QMD.pdb
     RDKit          3D

 26 25  0  0  1  0  0  0  0  0999 V2000
    5.6086  -17.8171   18.1009 N   0  0  0  0  0  0  0  0  0  0  0  0
    6.7723  -17.0313   17.7569 C   0  0  0  0  0  0  0  0  0  0  0  0
    7.5246  -17.4421   16.8648 O   0  0  0  0  0  0  0  0  0  0  0  0
    7.0622  -15.7674   18.4534 C   0  0  0  0  0  0  0  0  0  0  0  0
    8.4016  -15.7785   19.0821 C   0  0  0  0  0  0  0  0  0  0  0  0
    8.4948  -16.6388   20.3254 C   0  0  2  0  0  0  0  0  0  0  0  0
    7.1656  -17.1992   20.6274 N   0  0  0  0  0  0  0  0  0  0  0  0
    8.8512  -15.7509   21.4630 C   0  0  0  0  0  0  0  0  0  0  0  0
    9.9986  -15.2086   21.5549 O   0  0  0  0  0  0  0  0  0  0  0  0
    6.6739  -11.2299   27.5175 C   0  0  0  0  0  0  0  0  0  0  0  0
    6.1557  -12.1553   26.0481 S   0  0  0  0  0  0  0  0  0  0  0  0
    7.5031  -13.2526   25.4937 C   0  0  0  0  0  0  0  0  0  0  0  0
    7.1094  -13.9224   24.1977 C   0  0  0  0  0  0  0  0  0  0  0  0
    8.2227  -14.8015   23.6683 C   0  0  2  0  0  0  0  0  0  0  0  0
    7.8671  -15.5111   22.4727 N   0  0  0  0  0  0  0  0  0  0  0  0
    8.5324  -15.7894   24.7316 C   0  0  0  0  0  0  0  0  0  0  0  0
    7.6092  -16.5267   25.1447 O   0  0  0  0  0  0  0  0  0  0  0  0
    9.8437  -15.9089   25.2805 N   0  0  0  0  0  0  0  0  0  0  0  0
   10.2515  -17.1432   25.8601 C   0  0  1  0  0  0  0  0  0  0  0  0
   10.7650  -18.1300   24.8163 C   0  0  0  0  0  0  0  0  0  0  0  0
   11.2313  -19.3582   25.5052 C   0  0  0  0  0  0  0  0  0  0  0  0
   12.2922  -19.9268   25.1554 O   0  0  0  0  0  0  0  0  0  0  0  0
   11.2897  -16.9375   26.9242 C   0  0  0  0  0  0  0  0  0  0  0  0
   11.5503  -17.8876   27.6952 O   0  0  0  0  0  0  0  0  0  0  0  0
   10.4521  -19.8554   26.5475 O   0  0  0  0  0  0  0  0  0  0  0  0
   11.9632  -15.7465   27.0817 O   0  0  0  0  0  0  0  0  0  0  0  0
  2  1  1  0
  3  2  2  0
  4  2  1  0
  5  4  1  0
  6  5  1  0
  6  7  1  1
  8  6  1  0
  9  8  2  0
 11 10  1  0
 11 12  1  0
 14 13  1  1
 13 12  1  0
 14 15  1  0
 15  8  1  0
 16 18  1  0
 16 14  1  0
 17 16  2  0
 19 18  1  0
 19 20  1  6
 20 21  1  0
 21 22  2  0
 23 26  1  0
 23 19  1  0
 24 23  2  0
 25 21  1  0
M  END
$$$$
