QMD.pdb
     RDKit          3D

 26 25  0  0  1  0  0  0  0  0999 V2000
    8.2293  -11.7787   18.5810 N   0  0  0  0  0  0  0  0  0  0  0  0
    7.8006  -13.1189   18.2486 C   0  0  0  0  0  0  0  0  0  0  0  0
    7.5722  -13.3935   17.0642 O   0  0  0  0  0  0  0  0  0  0  0  0
    7.6354  -14.1398   19.2959 C   0  0  0  0  0  0  0  0  0  0  0  0
    8.8089  -15.0369   19.3820 C   0  0  0  0  0  0  0  0  0  0  0  0
    8.6595  -16.1566   20.3913 C   0  0  2  0  0  0  0  0  0  0  0  0
    7.2654  -16.6341   20.3823 N   0  0  0  0  0  0  0  0  0  0  0  0
    8.9048  -15.5835   21.7407 C   0  0  0  0  0  0  0  0  0  0  0  0
    9.9537  -14.9125   22.0025 O   0  0  0  0  0  0  0  0  0  0  0  0
    7.5121  -11.7115   27.6068 C   0  0  0  0  0  0  0  0  0  0  0  0
    7.3210  -12.4578   25.9666 S   0  0  0  0  0  0  0  0  0  0  0  0
    7.0996  -14.2615   26.1230 C   0  0  0  0  0  0  0  0  0  0  0  0
    6.8373  -14.8592   24.7602 C   0  0  0  0  0  0  0  0  0  0  0  0
    8.1259  -15.2629   24.0753 C   0  0  2  0  0  0  0  0  0  0  0  0
    7.9262  -15.8022   22.7605 N   0  0  0  0  0  0  0  0  0  0  0  0
    8.7556  -16.3045   24.9244 C   0  0  0  0  0  0  0  0  0  0  0  0
    8.0657  -17.2926   25.2624 O   0  0  0  0  0  0  0  0  0  0  0  0
   10.1118  -16.1979   25.3540 N   0  0  0  0  0  0  0  0  0  0  0  0
   10.6706  -17.2199   26.1719 C   0  0  1  0  0  0  0  0  0  0  0  0
   12.1843  -17.3236   26.0138 C   0  0  0  0  0  0  0  0  0  0  0  0
   12.5035  -17.5467   24.5825 C   0  0  0  0  0  0  0  0  0  0  0  0
   13.4473  -16.9325   24.0321 O   0  0  0  0  0  0  0  0  0  0  0  0
   10.3195  -17.0241   27.6178 C   0  0  0  0  0  0  0  0  0  0  0  0
    9.8303  -15.9278   27.9700 O   0  0  0  0  0  0  0  0  0  0  0  0
   11.7206  -18.4565   23.8753 O   0  0  0  0  0  0  0  0  0  0  0  0
   10.5147  -18.0030   28.5668 O   0  0  0  0  0  0  0  0  0  0  0  0
  2  1  1  0
  3  2  2  0
  4  2  1  0
  5  4  1  0
  6  5  1  0
  6  7  1  1
  8  6  1  0
  9  8  2  0
 11 10  1  0
 11 12  1  0
 14 13  1  1
 13 12  1  0
 14 15  1  0
 15  8  1  0
 16 18  1  0
 16 14  1  0
 17 16  2  0
 19 18  1  0
 19 20  1  1
 20 21  1  0
 21 22  2  0
 23 26  1  0
 23 19  1  0
 24 23  2  0
 25 21  1  0
M  END
$$$$
