NFC.pdb
     RDKit          3D

 26 26  0  0  1  0  0  0  0  0999 V2000
   28.6214  -19.2041  -18.6552 N   0  0  0  0  0  0  0  0  0  0  0  0
   27.3702  -19.8489  -18.8042 C   0  0  0  0  0  0  0  0  0  0  0  0
   26.9114  -20.0193  -19.9623 O   0  0  0  0  0  0  0  0  0  0  0  0
   26.5719  -20.3348  -17.6540 C   0  0  0  0  0  0  0  0  0  0  0  0
   27.3171  -21.4084  -16.8904 C   0  0  2  0  0  0  0  0  0  0  0  0
   27.3983  -22.6147  -17.6641 N   0  0  0  0  0  0  0  0  0  0  0  0
   26.6033  -21.5934  -15.5991 C   0  0  0  0  0  0  0  0  0  0  0  0
   25.5730  -22.2936  -15.5996 O   0  0  0  0  0  0  0  0  0  0  0  0
   27.0210  -21.0259  -14.3778 N   0  0  0  0  0  0  0  0  0  0  0  0
   26.2883  -21.0791  -13.1469 C   0  0  1  0  0  0  0  0  0  0  0  0
   27.0313  -20.6580  -11.9426 C   0  0  0  0  0  0  0  0  0  0  0  0
   26.2806  -20.5839  -10.6984 C   0  0  0  0  0  0  0  0  0  0  0  0
   26.3009  -19.4054   -9.9848 C   0  0  0  0  0  0  0  0  0  0  0  0
   25.6100  -19.2427   -8.7795 C   0  0  0  0  0  0  0  0  0  0  0  0
   24.8816  -20.2731   -8.2698 C   0  0  0  0  0  0  0  0  0  0  0  0
   24.8529  -21.4568   -8.9734 C   0  0  0  0  0  0  0  0  0  0  0  0
   25.5354  -21.6087  -10.1584 C   0  0  0  0  0  0  0  0  0  0  0  0
   24.9754  -20.4280  -13.2883 C   0  0  0  0  0  0  0  0  0  0  0  0
   24.8856  -19.2649  -13.8075 O   0  0  0  0  0  0  0  0  0  0  0  0
   23.7586  -21.0402  -12.8698 N   0  0  0  0  0  0  0  0  0  0  0  0
   22.4758  -20.3769  -12.9925 C   0  0  1  0  0  0  0  0  0  0  0  0
   22.0005  -20.3865  -14.4438 C   0  0  0  0  0  0  0  0  0  0  0  0
   20.2905  -19.7771  -14.5017 S   0  0  0  0  0  0  0  0  0  0  0  0
   21.4687  -21.0999  -12.1989 C   0  0  0  0  0  0  0  0  0  0  0  0
   20.4274  -20.5028  -11.5126 O   0  0  0  0  0  0  0  0  0  0  0  0
   21.5182  -22.3739  -12.1057 O   0  0  0  0  0  0  0  0  0  0  0  0
  2  1  1  0
  3  2  2  0
  4  2  1  0
  5  4  1  0
  5  6  1  6
  7  9  1  0
  7  5  1  0
  8  7  2  0
 10  9  1  0
 10 11  1  1
 11 12  1  0
 12 17  2  0
 12 13  1  0
 13 14  2  0
 14 15  1  0
 16 15  2  0
 17 16  1  0
 18 20  1  0
 18 10  1  0
 19 18  2  0
 21 20  1  0
 21 24  1  0
 21 22  1  6
 22 23  1  0
 24 25  1  0
 26 24  2  0
M  END
$$$$
