NFC.pdb
     RDKit          3D

 26 26  0  0  1  0  0  0  0  0999 V2000
   29.4352  -19.2048  -17.1904 N   0  0  0  0  0  0  0  0  0  0  0  0
   28.0312  -19.0616  -17.0823 C   0  0  0  0  0  0  0  0  0  0  0  0
   27.4057  -18.5057  -18.0207 O   0  0  0  0  0  0  0  0  0  0  0  0
   27.2604  -19.5382  -15.9097 C   0  0  0  0  0  0  0  0  0  0  0  0
   27.7221  -20.9137  -15.4788 C   0  0  2  0  0  0  0  0  0  0  0  0
   27.4544  -21.8810  -16.5049 N   0  0  0  0  0  0  0  0  0  0  0  0
   27.0308  -21.2191  -14.1981 C   0  0  0  0  0  0  0  0  0  0  0  0
   25.8596  -21.6395  -14.2556 O   0  0  0  0  0  0  0  0  0  0  0  0
   27.6192  -21.0619  -12.9264 N   0  0  0  0  0  0  0  0  0  0  0  0
   26.9110  -21.0687  -11.6801 C   0  0  1  0  0  0  0  0  0  0  0  0
   27.7278  -20.8010  -10.4798 C   0  0  0  0  0  0  0  0  0  0  0  0
   27.0119  -20.5766   -9.2331 C   0  0  0  0  0  0  0  0  0  0  0  0
   25.8898  -21.3321   -8.9714 C   0  0  0  0  0  0  0  0  0  0  0  0
   25.1393  -21.1855   -7.8002 C   0  0  0  0  0  0  0  0  0  0  0  0
   25.5104  -20.2679   -6.8662 C   0  0  0  0  0  0  0  0  0  0  0  0
   26.6305  -19.5061   -7.1154 C   0  0  0  0  0  0  0  0  0  0  0  0
   27.3633  -19.6565   -8.2702 C   0  0  0  0  0  0  0  0  0  0  0  0
   25.6946  -20.2431  -11.7626 C   0  0  0  0  0  0  0  0  0  0  0  0
   25.7823  -18.9839  -11.9547 O   0  0  0  0  0  0  0  0  0  0  0  0
   24.3820  -20.7843  -11.6403 N   0  0  0  0  0  0  0  0  0  0  0  0
   23.1920  -19.9699  -11.7858 C   0  0  1  0  0  0  0  0  0  0  0  0
   22.8773  -19.7339  -13.2615 C   0  0  0  0  0  0  0  0  0  0  0  0
   21.2671  -18.9032  -13.3889 S   0  0  0  0  0  0  0  0  0  0  0  0
   22.0386  -20.6730  -11.2008 C   0  0  0  0  0  0  0  0  0  0  0  0
   20.7907  -20.1119  -11.0015 O   0  0  0  0  0  0  0  0  0  0  0  0
   22.1488  -21.8924  -10.8334 O   0  0  0  0  0  0  0  0  0  0  0  0
  2  1  1  0
  3  2  2  0
  4  2  1  0
  5  4  1  0
  5  6  1  6
  7  9  1  0
  7  5  1  0
  8  7  2  0
 10  9  1  0
 10 11  1  1
 11 12  1  0
 12 17  2  0
 12 13  1  0
 13 14  2  0
 14 15  1  0
 16 15  2  0
 17 16  1  0
 18 20  1  0
 18 10  1  0
 19 18  2  0
 21 20  1  0
 21 24  1  0
 21 22  1  6
 22 23  1  0
 24 25  1  0
 26 24  2  0
M  END
$$$$
