NFC.pdb
     RDKit          3D

 26 26  0  0  1  0  0  0  0  0999 V2000
   29.0192  -20.3258  -18.3972 N   0  0  0  0  0  0  0  0  0  0  0  0
   27.7018  -20.7852  -18.6357 C   0  0  0  0  0  0  0  0  0  0  0  0
   27.1265  -20.4467  -19.7011 O   0  0  0  0  0  0  0  0  0  0  0  0
   26.9654  -21.6504  -17.6842 C   0  0  0  0  0  0  0  0  0  0  0  0
   27.8165  -21.9765  -16.4758 C   0  0  2  0  0  0  0  0  0  0  0  0
   28.4626  -23.2476  -16.6410 N   0  0  0  0  0  0  0  0  0  0  0  0
   26.9190  -21.9308  -15.2911 C   0  0  0  0  0  0  0  0  0  0  0  0
   26.3525  -22.9865  -14.9499 O   0  0  0  0  0  0  0  0  0  0  0  0
   26.6712  -20.7681  -14.5328 N   0  0  0  0  0  0  0  0  0  0  0  0
   25.8711  -20.7096  -13.3448 C   0  0  1  0  0  0  0  0  0  0  0  0
   26.4149  -19.8836  -12.2486 C   0  0  0  0  0  0  0  0  0  0  0  0
   27.5737  -20.4077  -11.5419 C   0  0  0  0  0  0  0  0  0  0  0  0
   27.4175  -20.8279  -10.2390 C   0  0  0  0  0  0  0  0  0  0  0  0
   28.4743  -21.3450   -9.4825 C   0  0  0  0  0  0  0  0  0  0  0  0
   29.7155  -21.4479  -10.0311 C   0  0  0  0  0  0  0  0  0  0  0  0
   29.8853  -21.0313  -11.3329 C   0  0  0  0  0  0  0  0  0  0  0  0
   28.8404  -20.5237  -12.0703 C   0  0  0  0  0  0  0  0  0  0  0  0
   24.4674  -20.4078  -13.6710 C   0  0  0  0  0  0  0  0  0  0  0  0
   24.1702  -19.3501  -14.3217 O   0  0  0  0  0  0  0  0  0  0  0  0
   23.3857  -21.2556  -13.2946 N   0  0  0  0  0  0  0  0  0  0  0  0
   22.0143  -20.9733  -13.6686 C   0  0  1  0  0  0  0  0  0  0  0  0
   21.2418  -22.2695  -13.9039 C   0  0  0  0  0  0  0  0  0  0  0  0
   22.0885  -23.2272  -15.1941 S   0  0  0  0  0  0  0  0  0  0  0  0
   21.3415  -20.2574  -12.5723 C   0  0  0  0  0  0  0  0  0  0  0  0
   20.0521  -19.7611  -12.6280 O   0  0  0  0  0  0  0  0  0  0  0  0
   21.9525  -20.0537  -11.4680 O   0  0  0  0  0  0  0  0  0  0  0  0
  2  1  1  0
  3  2  2  0
  4  2  1  0
  5  4  1  0
  5  6  1  6
  7  9  1  0
  7  5  1  0
  8  7  2  0
 10  9  1  0
 10 11  1  1
 11 12  1  0
 12 17  2  0
 12 13  1  0
 13 14  2  0
 14 15  1  0
 16 15  2  0
 17 16  1  0
 18 20  1  0
 18 10  1  0
 19 18  2  0
 21 20  1  0
 21 24  1  0
 21 22  1  1
 22 23  1  0
 24 25  1  0
 26 24  2  0
M  END
$$$$
