NFC.pdb
     RDKit          3D

 26 26  0  0  1  0  0  0  0  0999 V2000
   22.7059  -13.4652  -21.0775 N   0  0  0  0  0  0  0  0  0  0  0  0
   21.8140  -12.4826  -20.5851 C   0  0  0  0  0  0  0  0  0  0  0  0
   20.7442  -12.2687  -21.2100 O   0  0  0  0  0  0  0  0  0  0  0  0
   22.0831  -11.6904  -19.3618 C   0  0  0  0  0  0  0  0  0  0  0  0
   23.4589  -11.9950  -18.8092 C   0  0  2  0  0  0  0  0  0  0  0  0
   23.5800  -13.3904  -18.4957 N   0  0  0  0  0  0  0  0  0  0  0  0
   23.6529  -11.1150  -17.6263 C   0  0  0  0  0  0  0  0  0  0  0  0
   23.0507  -11.4108  -16.5767 O   0  0  0  0  0  0  0  0  0  0  0  0
   24.4750   -9.9694  -17.6209 N   0  0  0  0  0  0  0  0  0  0  0  0
   24.7170   -9.1296  -16.4847 C   0  0  1  0  0  0  0  0  0  0  0  0
   26.1259   -9.0247  -16.0564 C   0  0  0  0  0  0  0  0  0  0  0  0
   26.8851  -10.2636  -15.9812 C   0  0  0  0  0  0  0  0  0  0  0  0
   26.6507  -11.1181  -14.9260 C   0  0  0  0  0  0  0  0  0  0  0  0
   27.3325  -12.3296  -14.7720 C   0  0  0  0  0  0  0  0  0  0  0  0
   28.2691  -12.7028  -15.6862 C   0  0  0  0  0  0  0  0  0  0  0  0
   28.5131  -11.8576  -16.7460 C   0  0  0  0  0  0  0  0  0  0  0  0
   27.8379  -10.6674  -16.8902 C   0  0  0  0  0  0  0  0  0  0  0  0
   24.0494   -7.8268  -16.6427 C   0  0  0  0  0  0  0  0  0  0  0  0
   23.9934   -7.2662  -17.7885 O   0  0  0  0  0  0  0  0  0  0  0  0
   23.4389   -7.1332  -15.5578 N   0  0  0  0  0  0  0  0  0  0  0  0
   22.6794   -5.9136  -15.7479 C   0  0  1  0  0  0  0  0  0  0  0  0
   21.4214   -6.1843  -16.5703 C   0  0  0  0  0  0  0  0  0  0  0  0
   20.4502   -4.6529  -16.6722 S   0  0  0  0  0  0  0  0  0  0  0  0
   22.2430   -5.3955  -14.4410 C   0  0  0  0  0  0  0  0  0  0  0  0
   21.9691   -4.0676  -14.1700 O   0  0  0  0  0  0  0  0  0  0  0  0
   22.0926   -6.1918  -13.4523 O   0  0  0  0  0  0  0  0  0  0  0  0
  2  1  1  0
  3  2  2  0
  4  2  1  0
  5  4  1  0
  5  6  1  1
  7  9  1  0
  7  5  1  0
  8  7  2  0
 10  9  1  0
 10 11  1  6
 11 12  1  0
 12 17  2  0
 12 13  1  0
 13 14  2  0
 14 15  1  0
 16 15  2  0
 17 16  1  0
 18 20  1  0
 18 10  1  0
 19 18  2  0
 21 20  1  0
 21 24  1  0
 21 22  1  6
 22 23  1  0
 24 25  1  0
 26 24  2  0
M  END
$$$$
