NFC.pdb
     RDKit          3D

 26 26  0  0  1  0  0  0  0  0999 V2000
   19.3396  -14.1622  -21.5421 N   0  0  0  0  0  0  0  0  0  0  0  0
   19.9728  -13.0138  -21.0095 C   0  0  0  0  0  0  0  0  0  0  0  0
   20.8400  -12.4243  -21.7033 O   0  0  0  0  0  0  0  0  0  0  0  0
   19.6603  -12.4711  -19.6663 C   0  0  0  0  0  0  0  0  0  0  0  0
   20.8344  -12.6390  -18.7259 C   0  0  2  0  0  0  0  0  0  0  0  0
   20.9593  -14.0080  -18.3131 N   0  0  0  0  0  0  0  0  0  0  0  0
   20.6125  -11.7073  -17.5885 C   0  0  0  0  0  0  0  0  0  0  0  0
   19.6034  -11.8847  -16.8800 O   0  0  0  0  0  0  0  0  0  0  0  0
   21.4729  -10.6381  -17.2644 N   0  0  0  0  0  0  0  0  0  0  0  0
   21.3302   -9.7762  -16.1279 C   0  0  1  0  0  0  0  0  0  0  0  0
   22.5736   -9.4848  -15.3871 C   0  0  0  0  0  0  0  0  0  0  0  0
   22.4759   -8.5445  -14.2811 C   0  0  0  0  0  0  0  0  0  0  0  0
   22.2736   -9.0387  -13.0109 C   0  0  0  0  0  0  0  0  0  0  0  0
   22.1670   -8.2107  -11.8887 C   0  0  0  0  0  0  0  0  0  0  0  0
   22.2634   -6.8604  -12.0293 C   0  0  0  0  0  0  0  0  0  0  0  0
   22.4657   -6.3534  -13.2938 C   0  0  0  0  0  0  0  0  0  0  0  0
   22.5694   -7.1749  -14.3927 C   0  0  0  0  0  0  0  0  0  0  0  0
   20.5539   -8.5740  -16.4744 C   0  0  0  0  0  0  0  0  0  0  0  0
   20.8383   -7.9035  -17.5232 O   0  0  0  0  0  0  0  0  0  0  0  0
   19.4661   -8.1008  -15.6849 N   0  0  0  0  0  0  0  0  0  0  0  0
   18.7551   -6.8779  -16.0001 C   0  0  1  0  0  0  0  0  0  0  0  0
   17.3101   -7.1798  -16.3913 C   0  0  0  0  0  0  0  0  0  0  0  0
   16.4050   -5.6117  -16.5358 S   0  0  0  0  0  0  0  0  0  0  0  0
   18.7130   -6.0113  -14.8108 C   0  0  0  0  0  0  0  0  0  0  0  0
   18.7840   -4.6307  -14.8375 O   0  0  0  0  0  0  0  0  0  0  0  0
   18.6047   -6.5253  -13.6453 O   0  0  0  0  0  0  0  0  0  0  0  0
  2  1  1  0
  3  2  2  0
  4  2  1  0
  5  4  1  0
  5  6  1  1
  7  9  1  0
  7  5  1  0
  8  7  2  0
 10  9  1  0
 10 11  1  6
 11 12  1  0
 12 17  2  0
 12 13  1  0
 13 14  2  0
 14 15  1  0
 16 15  2  0
 17 16  1  0
 18 20  1  0
 18 10  1  0
 19 18  2  0
 21 20  1  0
 21 24  1  0
 21 22  1  1
 22 23  1  0
 24 25  1  0
 26 24  2  0
M  END
$$$$
