NFC.pdb
     RDKit          3D

 26 26  0  0  1  0  0  0  0  0999 V2000
   19.0152  -20.4238  -17.2600 N   0  0  0  0  0  0  0  0  0  0  0  0
   19.7449  -19.4003  -17.9109 C   0  0  0  0  0  0  0  0  0  0  0  0
   20.0266  -19.5385  -19.1284 O   0  0  0  0  0  0  0  0  0  0  0  0
   20.1945  -18.1679  -17.2215 C   0  0  0  0  0  0  0  0  0  0  0  0
   21.6957  -18.0046  -17.3247 C   0  0  2  0  0  0  0  0  0  0  0  0
   22.3682  -19.0492  -16.6060 N   0  0  0  0  0  0  0  0  0  0  0  0
   22.0179  -16.6464  -16.8122 C   0  0  0  0  0  0  0  0  0  0  0  0
   21.9661  -16.4621  -15.5813 O   0  0  0  0  0  0  0  0  0  0  0  0
   22.3776  -15.5576  -17.6330 N   0  0  0  0  0  0  0  0  0  0  0  0
   22.7234  -14.2474  -17.1654 C   0  0  1  0  0  0  0  0  0  0  0  0
   24.1612  -13.9144  -17.2036 C   0  0  0  0  0  0  0  0  0  0  0  0
   25.0628  -14.8073  -16.4916 C   0  0  0  0  0  0  0  0  0  0  0  0
   25.7746  -15.7399  -17.2141 C   0  0  0  0  0  0  0  0  0  0  0  0
   26.6634  -16.6385  -16.6150 C   0  0  0  0  0  0  0  0  0  0  0  0
   26.8507  -16.6117  -15.2672 C   0  0  0  0  0  0  0  0  0  0  0  0
   26.1452  -15.6841  -14.5332 C   0  0  0  0  0  0  0  0  0  0  0  0
   25.2727  -14.8036  -15.1303 C   0  0  0  0  0  0  0  0  0  0  0  0
   21.8639  -13.2248  -17.7847 C   0  0  0  0  0  0  0  0  0  0  0  0
   21.5889  -13.2825  -19.0303 O   0  0  0  0  0  0  0  0  0  0  0  0
   21.2993  -12.1409  -17.0518 N   0  0  0  0  0  0  0  0  0  0  0  0
   20.4759  -11.1271  -17.6800 C   0  0  1  0  0  0  0  0  0  0  0  0
   19.2425  -10.8309  -16.8295 C   0  0  0  0  0  0  0  0  0  0  0  0
   18.2274  -12.3338  -16.7308 S   0  0  0  0  0  0  0  0  0  0  0  0
   21.2386   -9.8732  -17.7939 C   0  0  0  0  0  0  0  0  0  0  0  0
   20.8093   -8.7472  -18.4719 O   0  0  0  0  0  0  0  0  0  0  0  0
   22.3878   -9.7684  -17.2438 O   0  0  0  0  0  0  0  0  0  0  0  0
  2  1  1  0
  3  2  2  0
  4  2  1  0
  5  4  1  0
  5  6  1  1
  7  9  1  0
  7  5  1  0
  8  7  2  0
 10  9  1  0
 10 11  1  6
 11 12  1  0
 12 17  2  0
 12 13  1  0
 13 14  2  0
 14 15  1  0
 16 15  2  0
 17 16  1  0
 18 20  1  0
 18 10  1  0
 19 18  2  0
 21 20  1  0
 21 24  1  0
 21 22  1  1
 22 23  1  0
 24 25  1  0
 26 24  2  0
M  END
$$$$
