NFC.pdb
     RDKit          3D

 26 26  0  0  1  0  0  0  0  0999 V2000
   20.6080  -14.4340  -19.4221 N   0  0  0  0  0  0  0  0  0  0  0  0
   21.2244  -13.1632  -19.5155 C   0  0  0  0  0  0  0  0  0  0  0  0
   21.7336  -12.8168  -20.6116 O   0  0  0  0  0  0  0  0  0  0  0  0
   21.2981  -12.2176  -18.3768 C   0  0  0  0  0  0  0  0  0  0  0  0
   22.6988  -11.6661  -18.2185 C   0  0  2  0  0  0  0  0  0  0  0  0
   23.6015  -12.6957  -17.7882 N   0  0  0  0  0  0  0  0  0  0  0  0
   22.6103  -10.5332  -17.2594 C   0  0  0  0  0  0  0  0  0  0  0  0
   22.3032  -10.7923  -16.0803 O   0  0  0  0  0  0  0  0  0  0  0  0
   22.8523   -9.1872  -17.6030 N   0  0  0  0  0  0  0  0  0  0  0  0
   22.8336   -8.0833  -16.6887 C   0  0  1  0  0  0  0  0  0  0  0  0
   24.1459   -7.4726  -16.3978 C   0  0  0  0  0  0  0  0  0  0  0  0
   25.2143   -8.3718  -15.9889 C   0  0  0  0  0  0  0  0  0  0  0  0
   26.2820   -8.5577  -16.8397 C   0  0  0  0  0  0  0  0  0  0  0  0
   27.3532   -9.4024  -16.5306 C   0  0  0  0  0  0  0  0  0  0  0  0
   27.3658  -10.0788  -15.3496 C   0  0  0  0  0  0  0  0  0  0  0  0
   26.3044   -9.9017  -14.4900 C   0  0  0  0  0  0  0  0  0  0  0  0
   25.2545   -9.0689  -14.8016 C   0  0  0  0  0  0  0  0  0  0  0  0
   21.7984   -7.1064  -17.0655 C   0  0  0  0  0  0  0  0  0  0  0  0
   21.7849   -6.6020  -18.2384 O   0  0  0  0  0  0  0  0  0  0  0  0
   20.7749   -6.6792  -16.1707 N   0  0  0  0  0  0  0  0  0  0  0  0
   19.7652   -5.7128  -16.5541 C   0  0  1  0  0  0  0  0  0  0  0  0
   18.3646   -6.2768  -16.3253 C   0  0  0  0  0  0  0  0  0  0  0  0
   18.1521   -7.7504  -17.3656 S   0  0  0  0  0  0  0  0  0  0  0  0
   19.8925   -4.5083  -15.7174 C   0  0  0  0  0  0  0  0  0  0  0  0
   19.0766   -3.3956  -15.8068 O   0  0  0  0  0  0  0  0  0  0  0  0
   20.8094   -4.4372  -14.8294 O   0  0  0  0  0  0  0  0  0  0  0  0
  2  1  1  0
  3  2  2  0
  4  2  1  0
  5  4  1  0
  5  6  1  1
  7  9  1  0
  7  5  1  0
  8  7  2  0
 10  9  1  0
 10 11  1  6
 11 12  1  0
 12 17  2  0
 12 13  1  0
 13 14  2  0
 14 15  1  0
 16 15  2  0
 17 16  1  0
 18 20  1  0
 18 10  1  0
 19 18  2  0
 21 20  1  0
 21 24  1  0
 21 22  1  1
 22 23  1  0
 24 25  1  0
 26 24  2  0
M  END
$$$$
