WHQ.pdb
     RDKit          3D

 34 36  0  0  1  0  0  0  0  0999 V2000
   24.3331  -19.1119  -19.3680 N   0  0  0  0  0  0  0  0  0  0  0  0
   23.4881  -18.1687  -18.7168 C   0  0  1  0  0  0  0  0  0  0  0  0
   22.4922  -17.5332  -19.6576 C   0  0  0  0  0  0  0  0  0  0  0  0
   23.1592  -16.5971  -20.5670 C   0  0  0  0  0  0  0  0  0  0  0  0
   23.8827  -16.9377  -21.6782 C   0  0  0  0  0  0  0  0  0  0  0  0
   24.3248  -15.7840  -22.2319 N   0  0  0  0  0  0  0  0  0  0  0  0
   23.9218  -14.7317  -21.5337 C   0  0  0  0  0  0  0  0  0  0  0  0
   24.0941  -13.3685  -21.6658 C   0  0  0  0  0  0  0  0  0  0  0  0
   23.5226  -12.5318  -20.7361 C   0  0  0  0  0  0  0  0  0  0  0  0
   22.7923  -13.0087  -19.6899 C   0  0  0  0  0  0  0  0  0  0  0  0
   22.6174  -14.3592  -19.5526 C   0  0  0  0  0  0  0  0  0  0  0  0
   23.1775  -15.2256  -20.4681 C   0  0  0  0  0  0  0  0  0  0  0  0
   22.7089  -18.7710  -17.5769 C   0  0  0  0  0  0  0  0  0  0  0  0
   22.3596  -19.9718  -17.6525 O   0  0  0  0  0  0  0  0  0  0  0  0
   22.3653  -18.0212  -16.4351 N   0  0  0  0  0  0  0  0  0  0  0  0
   21.5724  -18.3605  -15.3172 C   0  0  1  0  0  0  0  0  0  0  0  0
   22.2877  -18.3209  -13.9565 C   0  0  0  0  0  0  0  0  0  0  0  0
   21.4271  -18.8599  -12.8750 C   0  0  0  0  0  0  0  0  0  0  0  0
   21.3924  -20.1872  -12.4983 C   0  0  0  0  0  0  0  0  0  0  0  0
   20.5038  -20.3387  -11.4848 N   0  0  0  0  0  0  0  0  0  0  0  0
   19.9850  -19.1273  -11.2246 C   0  0  0  0  0  0  0  0  0  0  0  0
   20.5495  -18.2473  -12.0683 N   0  0  0  0  0  0  0  0  0  0  0  0
   20.2609  -17.7694  -15.1809 C   0  0  0  0  0  0  0  0  0  0  0  0
   20.0865  -16.8986  -14.2800 O   0  0  0  0  0  0  0  0  0  0  0  0
   18.2817  -22.3314  -17.4244 N   0  0  0  0  0  0  0  0  0  0  0  0
   17.9631  -22.5731  -16.0531 C   0  0  0  0  0  0  0  0  0  0  0  0
   17.2862  -23.5865  -15.7885 O   0  0  0  0  0  0  0  0  0  0  0  0
   18.4253  -21.6446  -14.9997 C   0  0  0  0  0  0  0  0  0  0  0  0
   19.1957  -20.4630  -15.4950 C   0  0  0  0  0  0  0  0  0  0  0  0
   18.3059  -19.2963  -15.7365 C   0  0  2  0  0  0  0  0  0  0  0  0
   19.1248  -18.0776  -15.9772 N   0  0  0  0  0  0  0  0  0  0  0  0
   17.4297  -18.9827  -14.5949 C   0  0  0  0  0  0  0  0  0  0  0  0
   17.8680  -18.8686  -13.4329 O   0  0  0  0  0  0  0  0  0  0  0  0
   16.0753  -18.8046  -14.7913 O   0  0  0  0  0  0  0  0  0  0  0  0
  2  1  1  6
  2 13  1  0
  2  3  1  0
  4  3  1  0
  4  5  2  0
  6  5  1  0
  7  6  1  0
  8  7  2  0
  9  8  1  0
 10  9  2  0
 10 11  1  0
 11 12  2  0
 12  7  1  0
 12  4  1  0
 13 14  2  0
 15 16  1  0
 15 13  1  0
 16 17  1  1
 18 17  1  0
 19 18  2  0
 20 21  1  0
 20 19  1  0
 21 22  2  0
 22 18  1  0
 23 31  1  0
 23 16  1  0
 24 23  2  0
 25 26  1  0
 26 27  2  0
 26 28  1  0
 28 29  1  0
 30 29  1  1
 30 31  1  0
 30 32  1  0
 32 34  1  0
 33 32  2  0
M  END
$$$$
