WHQ.pdb
     RDKit          3D

 34 36  0  0  1  0  0  0  0  0999 V2000
   26.9781  -12.9315  -17.6763 N   0  0  0  0  0  0  0  0  0  0  0  0
   26.9722  -11.5177  -17.5057 C   0  0  1  0  0  0  0  0  0  0  0  0
   28.1998  -10.8567  -18.0861 C   0  0  0  0  0  0  0  0  0  0  0  0
   29.3719  -11.7265  -17.9523 C   0  0  0  0  0  0  0  0  0  0  0  0
   29.3498  -13.0923  -17.8613 C   0  0  0  0  0  0  0  0  0  0  0  0
   30.6353  -13.5028  -17.7514 N   0  0  0  0  0  0  0  0  0  0  0  0
   31.4704  -12.4735  -17.7677 C   0  0  0  0  0  0  0  0  0  0  0  0
   32.8428  -12.3493  -17.6887 C   0  0  0  0  0  0  0  0  0  0  0  0
   33.4019  -11.0939  -17.7380 C   0  0  0  0  0  0  0  0  0  0  0  0
   32.6414   -9.9707  -17.8625 C   0  0  0  0  0  0  0  0  0  0  0  0
   31.2799  -10.0864  -17.9415 C   0  0  0  0  0  0  0  0  0  0  0  0
   30.6878  -11.3312  -17.8950 C   0  0  0  0  0  0  0  0  0  0  0  0
   25.7694  -10.8586  -18.1288 C   0  0  0  0  0  0  0  0  0  0  0  0
   25.7039   -9.6076  -18.1381 O   0  0  0  0  0  0  0  0  0  0  0  0
   24.7227  -11.6104  -18.6972 N   0  0  0  0  0  0  0  0  0  0  0  0
   23.5371  -11.1944  -19.3412 C   0  0  1  0  0  0  0  0  0  0  0  0
   23.1203  -12.0216  -20.5688 C   0  0  0  0  0  0  0  0  0  0  0  0
   24.0681  -11.8370  -21.6949 C   0  0  0  0  0  0  0  0  0  0  0  0
   25.1211  -10.9450  -21.6860 C   0  0  0  0  0  0  0  0  0  0  0  0
   25.7851  -11.0289  -22.8658 N   0  0  0  0  0  0  0  0  0  0  0  0
   25.1623  -11.9587  -23.6088 C   0  0  0  0  0  0  0  0  0  0  0  0
   24.1314  -12.4365  -22.8921 N   0  0  0  0  0  0  0  0  0  0  0  0
   22.3672  -10.9086  -18.5426 C   0  0  0  0  0  0  0  0  0  0  0  0
   22.0941  -11.6833  -17.5806 O   0  0  0  0  0  0  0  0  0  0  0  0
   17.9822   -6.1354  -18.9240 N   0  0  0  0  0  0  0  0  0  0  0  0
   17.5203   -7.0084  -17.8921 C   0  0  0  0  0  0  0  0  0  0  0  0
   16.4104   -6.7599  -17.3807 O   0  0  0  0  0  0  0  0  0  0  0  0
   18.3416   -8.1581  -17.4573 C   0  0  0  0  0  0  0  0  0  0  0  0
   19.6328   -8.3238  -18.1927 C   0  0  0  0  0  0  0  0  0  0  0  0
   20.2671   -9.6340  -17.8888 C   0  0  2  0  0  0  0  0  0  0  0  0
   21.4755   -9.8192  -18.7370 N   0  0  0  0  0  0  0  0  0  0  0  0
   19.3917  -10.7859  -18.1652 C   0  0  0  0  0  0  0  0  0  0  0  0
   19.1728  -11.1906  -19.3243 O   0  0  0  0  0  0  0  0  0  0  0  0
   18.7819  -11.4562  -17.1244 O   0  0  0  0  0  0  0  0  0  0  0  0
  2  1  1  6
  2 13  1  0
  2  3  1  0
  4  3  1  0
  4  5  2  0
  6  5  1  0
  7  6  1  0
  8  7  2  0
  9  8  1  0
 10  9  2  0
 10 11  1  0
 11 12  2  0
 12  7  1  0
 12  4  1  0
 13 14  2  0
 15 16  1  0
 15 13  1  0
 16 17  1  6
 18 17  1  0
 19 18  2  0
 20 21  1  0
 20 19  1  0
 21 22  2  0
 22 18  1  0
 23 31  1  0
 23 16  1  0
 24 23  2  0
 25 26  1  0
 26 27  2  0
 26 28  1  0
 28 29  1  0
 30 29  1  6
 30 31  1  0
 30 32  1  0
 32 34  1  0
 33 32  2  0
M  END
$$$$
