WHQ.pdb
     RDKit          3D

 34 36  0  0  1  0  0  0  0  0999 V2000
   25.0407  -13.7524  -18.2952 N   0  0  0  0  0  0  0  0  0  0  0  0
   23.7479  -13.5720  -17.7262 C   0  0  1  0  0  0  0  0  0  0  0  0
   23.7107  -13.8968  -16.2518 C   0  0  0  0  0  0  0  0  0  0  0  0
   24.1157  -15.2852  -16.0143 C   0  0  0  0  0  0  0  0  0  0  0  0
   25.1389  -15.6935  -15.2017 C   0  0  0  0  0  0  0  0  0  0  0  0
   25.1776  -17.0456  -15.2624 N   0  0  0  0  0  0  0  0  0  0  0  0
   24.2362  -17.5165  -16.0681 C   0  0  0  0  0  0  0  0  0  0  0  0
   23.8579  -18.7831  -16.4654 C   0  0  0  0  0  0  0  0  0  0  0  0
   22.8051  -18.9203  -17.3394 C   0  0  0  0  0  0  0  0  0  0  0  0
   22.1257  -17.8438  -17.8239 C   0  0  0  0  0  0  0  0  0  0  0  0
   22.4954  -16.5848  -17.4342 C   0  0  0  0  0  0  0  0  0  0  0  0
   23.5471  -16.4129  -16.5587 C   0  0  0  0  0  0  0  0  0  0  0  0
   23.2274  -12.1679  -17.8908 C   0  0  0  0  0  0  0  0  0  0  0  0
   24.0011  -11.2077  -17.6700 O   0  0  0  0  0  0  0  0  0  0  0  0
   21.8997  -11.9101  -18.2840 N   0  0  0  0  0  0  0  0  0  0  0  0
   21.2238  -10.6882  -18.4927 C   0  0  1  0  0  0  0  0  0  0  0  0
   20.4876  -10.5550  -19.8362 C   0  0  0  0  0  0  0  0  0  0  0  0
   21.4336  -10.5835  -20.9786 C   0  0  0  0  0  0  0  0  0  0  0  0
   22.7748  -10.2718  -20.8849 C   0  0  0  0  0  0  0  0  0  0  0  0
   23.3473  -10.3983  -22.1079 N   0  0  0  0  0  0  0  0  0  0  0  0
   22.3842  -10.7837  -22.9614 C   0  0  0  0  0  0  0  0  0  0  0  0
   21.2383  -10.8912  -22.2685 N   0  0  0  0  0  0  0  0  0  0  0  0
   20.3878  -10.1593  -17.4394 C   0  0  0  0  0  0  0  0  0  0  0  0
   19.4077  -10.8553  -17.0454 O   0  0  0  0  0  0  0  0  0  0  0  0
   21.8361   -7.5882  -12.0216 N   0  0  0  0  0  0  0  0  0  0  0  0
   20.4086   -7.5411  -12.0439 C   0  0  0  0  0  0  0  0  0  0  0  0
   19.8233   -7.2875  -10.9724 O   0  0  0  0  0  0  0  0  0  0  0  0
   19.6685   -7.7886  -13.2995 C   0  0  0  0  0  0  0  0  0  0  0  0
   20.5111   -8.2407  -14.4488 C   0  0  0  0  0  0  0  0  0  0  0  0
   19.6892   -8.4782  -15.6651 C   0  0  2  0  0  0  0  0  0  0  0  0
   20.5635   -8.9075  -16.7899 N   0  0  0  0  0  0  0  0  0  0  0  0
   18.9778   -7.2768  -16.1342 C   0  0  0  0  0  0  0  0  0  0  0  0
   19.4521   -6.5224  -17.0067 O   0  0  0  0  0  0  0  0  0  0  0  0
   17.7444   -6.9535  -15.6063 O   0  0  0  0  0  0  0  0  0  0  0  0
  2  1  1  1
  2 13  1  0
  2  3  1  0
  4  3  1  0
  4  5  2  0
  6  5  1  0
  7  6  1  0
  8  7  2  0
  9  8  1  0
 10  9  2  0
 10 11  1  0
 11 12  2  0
 12  7  1  0
 12  4  1  0
 13 14  2  0
 15 16  1  0
 15 13  1  0
 16 17  1  6
 18 17  1  0
 19 18  2  0
 20 21  1  0
 20 19  1  0
 21 22  2  0
 22 18  1  0
 23 31  1  0
 23 16  1  0
 24 23  2  0
 25 26  1  0
 26 27  2  0
 26 28  1  0
 28 29  1  0
 30 29  1  1
 30 31  1  0
 30 32  1  0
 32 34  1  0
 33 32  2  0
M  END
$$$$
