WHQ.pdb
     RDKit          3D

 34 36  0  0  1  0  0  0  0  0999 V2000
   24.1934  -19.7816   -8.1605 N   0  0  0  0  0  0  0  0  0  0  0  0
   25.4890  -20.0158   -8.7030 C   0  0  1  0  0  0  0  0  0  0  0  0
   26.1720  -21.2114   -8.0827 C   0  0  0  0  0  0  0  0  0  0  0  0
   26.4591  -20.9698   -6.6659 C   0  0  0  0  0  0  0  0  0  0  0  0
   25.6548  -21.3191   -5.6146 C   0  0  0  0  0  0  0  0  0  0  0  0
   26.2838  -20.9186   -4.4845 N   0  0  0  0  0  0  0  0  0  0  0  0
   27.4415  -20.3353   -4.7611 C   0  0  0  0  0  0  0  0  0  0  0  0
   28.4383  -19.7677   -3.9934 C   0  0  0  0  0  0  0  0  0  0  0  0
   29.5408  -19.2360   -4.6203 C   0  0  0  0  0  0  0  0  0  0  0  0
   29.6774  -19.2533   -5.9754 C   0  0  0  0  0  0  0  0  0  0  0  0
   28.6929  -19.8145   -6.7430 C   0  0  0  0  0  0  0  0  0  0  0  0
   27.5744  -20.3565   -6.1452 C   0  0  0  0  0  0  0  0  0  0  0  0
   25.4683  -20.2328  -10.1936 C   0  0  0  0  0  0  0  0  0  0  0  0
   24.4385  -20.7155  -10.7190 O   0  0  0  0  0  0  0  0  0  0  0  0
   26.5723  -19.9085  -11.0060 N   0  0  0  0  0  0  0  0  0  0  0  0
   26.6653  -19.7365  -12.4043 C   0  0  1  0  0  0  0  0  0  0  0  0
   28.0915  -19.6249  -12.9685 C   0  0  0  0  0  0  0  0  0  0  0  0
   28.0786  -19.3290  -14.4220 C   0  0  0  0  0  0  0  0  0  0  0  0
   27.7154  -18.1130  -14.9643 C   0  0  0  0  0  0  0  0  0  0  0  0
   27.8147  -18.1810  -16.3153 N   0  0  0  0  0  0  0  0  0  0  0  0
   28.2339  -19.4196  -16.6227 C   0  0  0  0  0  0  0  0  0  0  0  0
   28.3887  -20.0993  -15.4742 N   0  0  0  0  0  0  0  0  0  0  0  0
   25.8779  -20.5842  -13.2701 C   0  0  0  0  0  0  0  0  0  0  0  0
   26.0667  -21.8339  -13.2188 O   0  0  0  0  0  0  0  0  0  0  0  0
   20.7278  -20.6919  -12.7070 N   0  0  0  0  0  0  0  0  0  0  0  0
   20.5375  -21.0473  -14.0773 C   0  0  0  0  0  0  0  0  0  0  0  0
   19.3952  -20.9042  -14.5568 O   0  0  0  0  0  0  0  0  0  0  0  0
   21.6638  -21.5662  -14.8821 C   0  0  0  0  0  0  0  0  0  0  0  0
   22.9721  -21.6383  -14.1620 C   0  0  0  0  0  0  0  0  0  0  0  0
   24.0804  -21.0975  -14.9929 C   0  0  2  0  0  0  0  0  0  0  0  0
   24.8916  -20.1409  -14.1924 N   0  0  0  0  0  0  0  0  0  0  0  0
   23.6154  -20.3518  -16.1749 C   0  0  0  0  0  0  0  0  0  0  0  0
   23.5237  -19.1080  -16.1817 O   0  0  0  0  0  0  0  0  0  0  0  0
   23.2636  -21.0286  -17.3249 O   0  0  0  0  0  0  0  0  0  0  0  0
  2  1  1  1
  2 13  1  0
  2  3  1  0
  4  3  1  0
  4  5  2  0
  6  5  1  0
  7  6  1  0
  8  7  2  0
  9  8  1  0
 10  9  2  0
 10 11  1  0
 11 12  2  0
 12  7  1  0
 12  4  1  0
 13 14  2  0
 15 16  1  0
 15 13  1  0
 16 17  1  6
 18 17  1  0
 19 18  2  0
 20 21  1  0
 20 19  1  0
 21 22  2  0
 22 18  1  0
 23 31  1  0
 23 16  1  0
 24 23  2  0
 25 26  1  0
 26 27  2  0
 26 28  1  0
 28 29  1  0
 30 29  1  1
 30 31  1  0
 30 32  1  0
 32 34  1  0
 33 32  2  0
M  END
$$$$
