WHQ.pdb
     RDKit          3D

 34 36  0  0  1  0  0  0  0  0999 V2000
   25.3339  -19.8157  -18.0228 N   0  0  0  0  0  0  0  0  0  0  0  0
   25.4800  -19.2733  -16.7143 C   0  0  1  0  0  0  0  0  0  0  0  0
   25.2452  -17.7820  -16.6733 C   0  0  0  0  0  0  0  0  0  0  0  0
   26.2459  -17.0752  -17.4777 C   0  0  0  0  0  0  0  0  0  0  0  0
   25.9830  -16.2307  -18.5226 C   0  0  0  0  0  0  0  0  0  0  0  0
   27.1767  -15.7927  -18.9879 N   0  0  0  0  0  0  0  0  0  0  0  0
   28.1809  -16.3125  -18.2963 C   0  0  0  0  0  0  0  0  0  0  0  0
   29.5546  -16.1938  -18.3614 C   0  0  0  0  0  0  0  0  0  0  0  0
   30.3269  -16.8931  -17.4639 C   0  0  0  0  0  0  0  0  0  0  0  0
   29.7762  -17.6986  -16.5135 C   0  0  0  0  0  0  0  0  0  0  0  0
   28.4147  -17.8210  -16.4430 C   0  0  0  0  0  0  0  0  0  0  0  0
   27.6118  -17.1330  -17.3285 C   0  0  0  0  0  0  0  0  0  0  0  0
   24.5474  -19.9032  -15.7128 C   0  0  0  0  0  0  0  0  0  0  0  0
   23.4359  -20.3266  -16.1062 O   0  0  0  0  0  0  0  0  0  0  0  0
   24.8927  -20.0264  -14.3529 N   0  0  0  0  0  0  0  0  0  0  0  0
   24.1174  -20.4180  -13.2397 C   0  0  1  0  0  0  0  0  0  0  0  0
   24.8115  -20.3065  -11.8720 C   0  0  0  0  0  0  0  0  0  0  0  0
   23.8917  -20.6673  -10.7655 C   0  0  0  0  0  0  0  0  0  0  0  0
   22.5562  -20.9723  -10.9334 C   0  0  0  0  0  0  0  0  0  0  0  0
   22.0092  -21.2548   -9.7248 N   0  0  0  0  0  0  0  0  0  0  0  0
   22.9826  -21.1307   -8.8075 C   0  0  0  0  0  0  0  0  0  0  0  0
   24.1095  -20.7770   -9.4475 N   0  0  0  0  0  0  0  0  0  0  0  0
   22.7606  -19.9344  -13.1237 C   0  0  0  0  0  0  0  0  0  0  0  0
   22.5811  -18.7181  -12.8261 O   0  0  0  0  0  0  0  0  0  0  0  0
   19.5932  -18.7927  -17.1051 N   0  0  0  0  0  0  0  0  0  0  0  0
   19.7853  -20.1837  -16.8434 C   0  0  0  0  0  0  0  0  0  0  0  0
   19.9727  -20.9340  -17.8218 O   0  0  0  0  0  0  0  0  0  0  0  0
   19.7576  -20.6982  -15.4577 C   0  0  0  0  0  0  0  0  0  0  0  0
   19.6785  -19.6474  -14.3971 C   0  0  0  0  0  0  0  0  0  0  0  0
   20.2267  -20.1374  -13.1046 C   0  0  2  0  0  0  0  0  0  0  0  0
   21.5844  -20.7085  -13.3157 N   0  0  0  0  0  0  0  0  0  0  0  0
   19.4209  -21.2098  -12.4962 C   0  0  0  0  0  0  0  0  0  0  0  0
   19.7455  -22.4113  -12.5761 O   0  0  0  0  0  0  0  0  0  0  0  0
   18.2641  -20.9007  -11.8100 O   0  0  0  0  0  0  0  0  0  0  0  0
  2  1  1  6
  2 13  1  0
  2  3  1  0
  4  3  1  0
  4  5  2  0
  6  5  1  0
  7  6  1  0
  8  7  2  0
  9  8  1  0
 10  9  2  0
 10 11  1  0
 11 12  2  0
 12  7  1  0
 12  4  1  0
 13 14  2  0
 15 16  1  0
 15 13  1  0
 16 17  1  1
 18 17  1  0
 19 18  2  0
 20 21  1  0
 20 19  1  0
 21 22  2  0
 22 18  1  0
 23 31  1  0
 23 16  1  0
 24 23  2  0
 25 26  1  0
 26 27  2  0
 26 28  1  0
 28 29  1  0
 30 29  1  6
 30 31  1  0
 30 32  1  0
 32 34  1  0
 33 32  2  0
M  END
$$$$
