WHQ.pdb
     RDKit          3D

 34 36  0  0  1  0  0  0  0  0999 V2000
   27.9779  -21.9123  -10.4633 N   0  0  0  0  0  0  0  0  0  0  0  0
   26.7850  -21.3703   -9.9058 C   0  0  1  0  0  0  0  0  0  0  0  0
   27.0557  -20.2501   -8.9298 C   0  0  0  0  0  0  0  0  0  0  0  0
   28.0727  -20.6464   -7.9516 C   0  0  0  0  0  0  0  0  0  0  0  0
   29.1349  -21.4759   -8.1915 C   0  0  0  0  0  0  0  0  0  0  0  0
   29.8250  -21.5814   -7.0315 N   0  0  0  0  0  0  0  0  0  0  0  0
   29.2594  -20.8651   -6.0702 C   0  0  0  0  0  0  0  0  0  0  0  0
   29.5562  -20.6368   -4.7416 C   0  0  0  0  0  0  0  0  0  0  0  0
   28.7345  -19.8142   -4.0073 C   0  0  0  0  0  0  0  0  0  0  0  0
   27.6375  -19.2187   -4.5525 C   0  0  0  0  0  0  0  0  0  0  0  0
   27.3371  -19.4406   -5.8693 C   0  0  0  0  0  0  0  0  0  0  0  0
   28.1410  -20.2604   -6.6334 C   0  0  0  0  0  0  0  0  0  0  0  0
   25.8404  -20.8375  -10.9514 C   0  0  0  0  0  0  0  0  0  0  0  0
   26.2049  -19.8679  -11.6561 O   0  0  0  0  0  0  0  0  0  0  0  0
   24.5649  -21.3993  -11.1544 N   0  0  0  0  0  0  0  0  0  0  0  0
   23.4966  -20.9806  -11.9771 C   0  0  1  0  0  0  0  0  0  0  0  0
   23.3682  -21.7098  -13.3249 C   0  0  0  0  0  0  0  0  0  0  0  0
   24.6391  -21.6666  -14.0887 C   0  0  0  0  0  0  0  0  0  0  0  0
   25.6189  -22.6364  -14.0226 C   0  0  0  0  0  0  0  0  0  0  0  0
   26.6432  -22.2903  -14.8415 N   0  0  0  0  0  0  0  0  0  0  0  0
   26.3170  -21.1208  -15.4162 C   0  0  0  0  0  0  0  0  0  0  0  0
   25.1089  -20.7574  -14.9543 N   0  0  0  0  0  0  0  0  0  0  0  0
   22.1829  -20.8228  -11.3963 C   0  0  0  0  0  0  0  0  0  0  0  0
   21.7539  -21.7318  -10.6282 O   0  0  0  0  0  0  0  0  0  0  0  0
   18.7731  -19.7276  -16.1115 N   0  0  0  0  0  0  0  0  0  0  0  0
   19.4966  -18.5541  -15.7377 C   0  0  0  0  0  0  0  0  0  0  0  0
   19.2937  -17.5166  -16.3992 O   0  0  0  0  0  0  0  0  0  0  0  0
   20.4486  -18.5869  -14.6072 C   0  0  0  0  0  0  0  0  0  0  0  0
   20.5643  -19.9092  -13.9192 C   0  0  0  0  0  0  0  0  0  0  0  0
   20.1227  -19.8249  -12.5018 C   0  0  2  0  0  0  0  0  0  0  0  0
   21.3082  -19.7230  -11.6084 N   0  0  0  0  0  0  0  0  0  0  0  0
   19.3708  -21.0089  -12.0518 C   0  0  0  0  0  0  0  0  0  0  0  0
   19.7286  -22.1697  -12.3344 O   0  0  0  0  0  0  0  0  0  0  0  0
   18.2295  -20.8551  -11.2915 O   0  0  0  0  0  0  0  0  0  0  0  0
  2  1  1  6
  2 13  1  0
  2  3  1  0
  4  3  1  0
  4  5  2  0
  6  5  1  0
  7  6  1  0
  8  7  2  0
  9  8  1  0
 10  9  2  0
 10 11  1  0
 11 12  2  0
 12  7  1  0
 12  4  1  0
 13 14  2  0
 15 16  1  0
 15 13  1  0
 16 17  1  6
 18 17  1  0
 19 18  2  0
 20 21  1  0
 20 19  1  0
 21 22  2  0
 22 18  1  0
 23 31  1  0
 23 16  1  0
 24 23  2  0
 25 26  1  0
 26 27  2  0
 26 28  1  0
 28 29  1  0
 30 29  1  6
 30 31  1  0
 30 32  1  0
 32 34  1  0
 33 32  2  0
M  END
$$$$
