WHQ.pdb
     RDKit          3D

 34 36  0  0  1  0  0  0  0  0999 V2000
   22.7995  -20.1286  -18.1774 N   0  0  0  0  0  0  0  0  0  0  0  0
   22.1739  -19.2920  -17.2096 C   0  0  1  0  0  0  0  0  0  0  0  0
   21.0030  -18.5236  -17.7748 C   0  0  0  0  0  0  0  0  0  0  0  0
   21.4636  -17.4484  -18.6579 C   0  0  0  0  0  0  0  0  0  0  0  0
   22.0380  -17.6139  -19.8895 C   0  0  0  0  0  0  0  0  0  0  0  0
   22.3138  -16.3774  -20.3673 N   0  0  0  0  0  0  0  0  0  0  0  0
   21.9463  -15.4380  -19.5073 C   0  0  0  0  0  0  0  0  0  0  0  0
   22.0032  -14.0589  -19.5094 C   0  0  0  0  0  0  0  0  0  0  0  0
   21.5182  -13.3705  -18.4223 C   0  0  0  0  0  0  0  0  0  0  0  0
   20.9838  -14.0095  -17.3446 C   0  0  0  0  0  0  0  0  0  0  0  0
   20.9240  -15.3769  -17.3356 C   0  0  0  0  0  0  0  0  0  0  0  0
   21.4019  -16.0970  -18.4104 C   0  0  0  0  0  0  0  0  0  0  0  0
   21.6741  -20.0565  -16.0116 C   0  0  0  0  0  0  0  0  0  0  0  0
   21.2818  -21.2358  -16.1688 O   0  0  0  0  0  0  0  0  0  0  0  0
   21.6370  -19.4806  -14.7267 N   0  0  0  0  0  0  0  0  0  0  0  0
   21.1767  -20.0030  -13.4984 C   0  0  1  0  0  0  0  0  0  0  0  0
   21.7480  -19.3374  -12.2353 C   0  0  0  0  0  0  0  0  0  0  0  0
   21.4256  -20.1193  -11.0166 C   0  0  0  0  0  0  0  0  0  0  0  0
   20.7370  -21.3154  -11.0203 C   0  0  0  0  0  0  0  0  0  0  0  0
   20.6138  -21.7616   -9.7454 N   0  0  0  0  0  0  0  0  0  0  0  0
   21.2146  -20.8627   -8.9483 C   0  0  0  0  0  0  0  0  0  0  0  0
   21.6985  -19.8802   -9.7263 N   0  0  0  0  0  0  0  0  0  0  0  0
   19.7607  -20.2273  -13.3171 C   0  0  0  0  0  0  0  0  0  0  0  0
   18.9987  -19.2201  -13.2451 O   0  0  0  0  0  0  0  0  0  0  0  0
   15.9924  -19.8500  -16.8608 N   0  0  0  0  0  0  0  0  0  0  0  0
   15.9615  -20.8559  -15.8470 C   0  0  0  0  0  0  0  0  0  0  0  0
   14.8695  -21.0764  -15.2867 O   0  0  0  0  0  0  0  0  0  0  0  0
   17.1889  -21.5969  -15.4865 C   0  0  0  0  0  0  0  0  0  0  0  0
   17.0994  -22.3854  -14.2194 C   0  0  0  0  0  0  0  0  0  0  0  0
   17.6531  -21.6264  -13.0667 C   0  0  2  0  0  0  0  0  0  0  0  0
   19.1283  -21.4955  -13.2097 N   0  0  0  0  0  0  0  0  0  0  0  0
   17.4236  -22.2838  -11.7688 C   0  0  0  0  0  0  0  0  0  0  0  0
   16.3119  -22.2684  -11.2038 O   0  0  0  0  0  0  0  0  0  0  0  0
   18.4568  -22.9453  -11.1367 O   0  0  0  0  0  0  0  0  0  0  0  0
  2  1  1  6
  2 13  1  0
  2  3  1  0
  4  3  1  0
  4  5  2  0
  6  5  1  0
  7  6  1  0
  8  7  2  0
  9  8  1  0
 10  9  2  0
 10 11  1  0
 11 12  2  0
 12  7  1  0
 12  4  1  0
 13 14  2  0
 15 16  1  0
 15 13  1  0
 16 17  1  1
 18 17  1  0
 19 18  2  0
 20 21  1  0
 20 19  1  0
 21 22  2  0
 22 18  1  0
 23 31  1  0
 23 16  1  0
 24 23  2  0
 25 26  1  0
 26 27  2  0
 26 28  1  0
 28 29  1  0
 30 29  1  6
 30 31  1  0
 30 32  1  0
 32 34  1  0
 33 32  2  0
M  END
$$$$
