WHQ.pdb
     RDKit          3D

 34 36  0  0  1  0  0  0  0  0999 V2000
   25.5916  -18.9770  -19.9853 N   0  0  0  0  0  0  0  0  0  0  0  0
   24.7727  -18.6187  -18.8768 C   0  0  1  0  0  0  0  0  0  0  0  0
   23.6382  -17.7004  -19.2644 C   0  0  0  0  0  0  0  0  0  0  0  0
   24.1257  -16.5887  -20.0857 C   0  0  0  0  0  0  0  0  0  0  0  0
   25.4099  -16.1151  -20.1121 C   0  0  0  0  0  0  0  0  0  0  0  0
   25.4360  -15.0903  -20.9966 N   0  0  0  0  0  0  0  0  0  0  0  0
   24.2403  -14.8882  -21.5318 C   0  0  0  0  0  0  0  0  0  0  0  0
   23.7418  -13.9956  -22.4591 C   0  0  0  0  0  0  0  0  0  0  0  0
   22.4114  -14.0630  -22.8004 C   0  0  0  0  0  0  0  0  0  0  0  0
   21.5722  -14.9842  -22.2505 C   0  0  0  0  0  0  0  0  0  0  0  0
   22.0596  -15.8726  -21.3302 C   0  0  0  0  0  0  0  0  0  0  0  0
   23.3893  -15.8314  -20.9663 C   0  0  0  0  0  0  0  0  0  0  0  0
   24.1686  -19.8133  -18.1859 C   0  0  0  0  0  0  0  0  0  0  0  0
   24.1585  -20.9146  -18.7829 O   0  0  0  0  0  0  0  0  0  0  0  0
   23.6176  -19.7224  -16.8928 N   0  0  0  0  0  0  0  0  0  0  0  0
   23.1364  -20.7278  -16.0261 C   0  0  1  0  0  0  0  0  0  0  0  0
   24.1610  -21.2943  -15.0291 C   0  0  0  0  0  0  0  0  0  0  0  0
   25.4259  -21.6714  -15.7060 C   0  0  0  0  0  0  0  0  0  0  0  0
   25.8206  -22.9718  -15.9470 C   0  0  0  0  0  0  0  0  0  0  0  0
   27.0202  -22.9624  -16.5799 N   0  0  0  0  0  0  0  0  0  0  0  0
   27.3786  -21.6774  -16.7368 C   0  0  0  0  0  0  0  0  0  0  0  0
   26.4103  -20.9118  -16.2066 N   0  0  0  0  0  0  0  0  0  0  0  0
   21.8762  -20.5266  -15.3482 C   0  0  0  0  0  0  0  0  0  0  0  0
   21.7306  -19.4807  -14.6516 O   0  0  0  0  0  0  0  0  0  0  0  0
   17.9350  -24.9402  -13.2426 N   0  0  0  0  0  0  0  0  0  0  0  0
   17.4437  -24.3385  -14.4413 C   0  0  0  0  0  0  0  0  0  0  0  0
   16.5288  -24.9287  -15.0495 O   0  0  0  0  0  0  0  0  0  0  0  0
   18.0120  -23.0641  -14.9296 C   0  0  0  0  0  0  0  0  0  0  0  0
   19.0280  -22.4407  -14.0273 C   0  0  0  0  0  0  0  0  0  0  0  0
   19.5355  -21.1586  -14.5841 C   0  0  2  0  0  0  0  0  0  0  0  0
   20.7618  -21.4076  -15.3891 N   0  0  0  0  0  0  0  0  0  0  0  0
   19.9154  -20.1812  -13.5497 C   0  0  0  0  0  0  0  0  0  0  0  0
   19.3264  -19.0898  -13.4190 O   0  0  0  0  0  0  0  0  0  0  0  0
   20.9541  -20.4588  -12.6845 O   0  0  0  0  0  0  0  0  0  0  0  0
  2  1  1  6
  2 13  1  0
  2  3  1  0
  4  3  1  0
  4  5  2  0
  6  5  1  0
  7  6  1  0
  8  7  2  0
  9  8  1  0
 10  9  2  0
 10 11  1  0
 11 12  2  0
 12  7  1  0
 12  4  1  0
 13 14  2  0
 15 16  1  0
 15 13  1  0
 16 17  1  1
 18 17  1  0
 19 18  2  0
 20 21  1  0
 20 19  1  0
 21 22  2  0
 22 18  1  0
 23 31  1  0
 23 16  1  0
 24 23  2  0
 25 26  1  0
 26 27  2  0
 26 28  1  0
 28 29  1  0
 30 29  1  1
 30 31  1  0
 30 32  1  0
 32 34  1  0
 33 32  2  0
M  END
$$$$
