WHQ.pdb
     RDKit          3D

 34 36  0  0  1  0  0  0  0  0999 V2000
   16.6997  -28.1797   -9.8428 N   0  0  0  0  0  0  0  0  0  0  0  0
   17.8668  -28.1311   -9.0283 C   0  0  1  0  0  0  0  0  0  0  0  0
   18.6147  -26.8258   -9.1609 C   0  0  0  0  0  0  0  0  0  0  0  0
   19.2013  -26.6955  -10.4978 C   0  0  0  0  0  0  0  0  0  0  0  0
   18.7698  -25.8484  -11.4828 C   0  0  0  0  0  0  0  0  0  0  0  0
   19.5785  -26.0394  -12.5518 N   0  0  0  0  0  0  0  0  0  0  0  0
   20.4980  -26.9601  -12.2990 C   0  0  0  0  0  0  0  0  0  0  0  0
   21.5326  -27.5097  -13.0289 C   0  0  0  0  0  0  0  0  0  0  0  0
   22.3206  -28.4740  -12.4457 C   0  0  0  0  0  0  0  0  0  0  0  0
   22.1099  -28.9021  -11.1698 C   0  0  0  0  0  0  0  0  0  0  0  0
   21.0858  -28.3616  -10.4401 C   0  0  0  0  0  0  0  0  0  0  0  0
   20.2771  -27.3923  -10.9959 C   0  0  0  0  0  0  0  0  0  0  0  0
   17.5677  -28.3316   -7.5656 C   0  0  0  0  0  0  0  0  0  0  0  0
   16.6152  -27.7002   -7.0522 O   0  0  0  0  0  0  0  0  0  0  0  0
   18.3288  -29.2062   -6.7657 N   0  0  0  0  0  0  0  0  0  0  0  0
   18.1885  -29.5664   -5.4078 C   0  0  1  0  0  0  0  0  0  0  0  0
   18.9077  -30.8576   -4.9833 C   0  0  0  0  0  0  0  0  0  0  0  0
   18.2012  -32.0622   -5.4838 C   0  0  0  0  0  0  0  0  0  0  0  0
   16.9223  -32.0535   -6.0025 C   0  0  0  0  0  0  0  0  0  0  0  0
   16.5808  -33.3151   -6.3648 N   0  0  0  0  0  0  0  0  0  0  0  0
   17.6263  -34.1089   -6.0801 C   0  0  0  0  0  0  0  0  0  0  0  0
   18.5940  -33.3419   -5.5508 N   0  0  0  0  0  0  0  0  0  0  0  0
   18.3827  -28.5589   -4.3902 C   0  0  0  0  0  0  0  0  0  0  0  0
   19.3124  -27.7162   -4.5508 O   0  0  0  0  0  0  0  0  0  0  0  0
   14.8956  -27.0184    0.8939 N   0  0  0  0  0  0  0  0  0  0  0  0
   16.1138  -26.2783    0.9864 C   0  0  0  0  0  0  0  0  0  0  0  0
   16.2970  -25.5956    2.0138 O   0  0  0  0  0  0  0  0  0  0  0  0
   17.1087  -26.3297   -0.1058 C   0  0  0  0  0  0  0  0  0  0  0  0
   16.8121  -27.3245   -1.1818 C   0  0  0  0  0  0  0  0  0  0  0  0
   17.8686  -27.3244   -2.2283 C   0  0  2  0  0  0  0  0  0  0  0  0
   17.6148  -28.4201   -3.2024 N   0  0  0  0  0  0  0  0  0  0  0  0
   19.2214  -27.5560   -1.6939 C   0  0  0  0  0  0  0  0  0  0  0  0
   19.6622  -28.7021   -1.4757 O   0  0  0  0  0  0  0  0  0  0  0  0
   20.0480  -26.4860   -1.4173 O   0  0  0  0  0  0  0  0  0  0  0  0
  2  1  1  6
  2 13  1  0
  2  3  1  0
  4  3  1  0
  4  5  2  0
  6  5  1  0
  7  6  1  0
  8  7  2  0
  9  8  1  0
 10  9  2  0
 10 11  1  0
 11 12  2  0
 12  7  1  0
 12  4  1  0
 13 14  2  0
 15 16  1  0
 15 13  1  0
 16 17  1  1
 18 17  1  0
 19 18  2  0
 20 21  1  0
 20 19  1  0
 21 22  2  0
 22 18  1  0
 23 31  1  0
 23 16  1  0
 24 23  2  0
 25 26  1  0
 26 27  2  0
 26 28  1  0
 28 29  1  0
 30 29  1  1
 30 31  1  0
 30 32  1  0
 32 34  1  0
 33 32  2  0
M  END
$$$$
