WHQ.pdb
     RDKit          3D

 34 36  0  0  1  0  0  0  0  0999 V2000
   25.4783  -17.7247  -20.1353 N   0  0  0  0  0  0  0  0  0  0  0  0
   24.1042  -17.9276  -19.8215 C   0  0  1  0  0  0  0  0  0  0  0  0
   23.2755  -18.2750  -21.0353 C   0  0  0  0  0  0  0  0  0  0  0  0
   23.1758  -17.1285  -21.9430 C   0  0  0  0  0  0  0  0  0  0  0  0
   24.2285  -16.4257  -22.4645 C   0  0  0  0  0  0  0  0  0  0  0  0
   23.7059  -15.4532  -23.2483 N   0  0  0  0  0  0  0  0  0  0  0  0
   22.3813  -15.5007  -23.2525 C   0  0  0  0  0  0  0  0  0  0  0  0
   21.3957  -14.7575  -23.8702 C   0  0  0  0  0  0  0  0  0  0  0  0
   20.0783  -15.0862  -23.6524 C   0  0  0  0  0  0  0  0  0  0  0  0
   19.7182  -16.1229  -22.8456 C   0  0  0  0  0  0  0  0  0  0  0  0
   20.6902  -16.8643  -22.2298 C   0  0  0  0  0  0  0  0  0  0  0  0
   22.0209  -16.5605  -22.4275 C   0  0  0  0  0  0  0  0  0  0  0  0
   23.8916  -19.0185  -18.8045 C   0  0  0  0  0  0  0  0  0  0  0  0
   24.7729  -19.8988  -18.6705 O   0  0  0  0  0  0  0  0  0  0  0  0
   22.7327  -19.0726  -18.0058 N   0  0  0  0  0  0  0  0  0  0  0  0
   22.5798  -19.0165  -16.6033 C   0  0  1  0  0  0  0  0  0  0  0  0
   23.3332  -17.8778  -15.8959 C   0  0  0  0  0  0  0  0  0  0  0  0
   24.7986  -18.1083  -15.9056 C   0  0  0  0  0  0  0  0  0  0  0  0
   25.4157  -19.1586  -16.5543 C   0  0  0  0  0  0  0  0  0  0  0  0
   26.7558  -19.0736  -16.3632 N   0  0  0  0  0  0  0  0  0  0  0  0
   26.9828  -17.9875  -15.6061 C   0  0  0  0  0  0  0  0  0  0  0  0
   25.7966  -17.4165  -15.3383 N   0  0  0  0  0  0  0  0  0  0  0  0
   21.2559  -19.1334  -16.0360 C   0  0  0  0  0  0  0  0  0  0  0  0
   20.4315  -18.1957  -16.2395 O   0  0  0  0  0  0  0  0  0  0  0  0
   18.7013  -24.4522  -13.6598 N   0  0  0  0  0  0  0  0  0  0  0  0
   19.5657  -23.5993  -12.9076 C   0  0  0  0  0  0  0  0  0  0  0  0
   20.1741  -24.1019  -11.9421 O   0  0  0  0  0  0  0  0  0  0  0  0
   19.7197  -22.1751  -13.2731 C   0  0  0  0  0  0  0  0  0  0  0  0
   19.0448  -21.7748  -14.5457 C   0  0  0  0  0  0  0  0  0  0  0  0
   19.3429  -20.3611  -14.8976 C   0  0  2  0  0  0  0  0  0  0  0  0
   20.7804  -20.2220  -15.2557 N   0  0  0  0  0  0  0  0  0  0  0  0
   19.1032  -19.4195  -13.7906 C   0  0  0  0  0  0  0  0  0  0  0  0
   20.0343  -18.8305  -13.2063 O   0  0  0  0  0  0  0  0  0  0  0  0
   17.8148  -19.1639  -13.3673 O   0  0  0  0  0  0  0  0  0  0  0  0
  2  1  1  6
  2 13  1  0
  2  3  1  0
  4  3  1  0
  4  5  2  0
  6  5  1  0
  7  6  1  0
  8  7  2  0
  9  8  1  0
 10  9  2  0
 10 11  1  0
 11 12  2  0
 12  7  1  0
 12  4  1  0
 13 14  2  0
 15 16  1  0
 15 13  1  0
 16 17  1  6
 18 17  1  0
 19 18  2  0
 20 21  1  0
 20 19  1  0
 21 22  2  0
 22 18  1  0
 23 31  1  0
 23 16  1  0
 24 23  2  0
 25 26  1  0
 26 27  2  0
 26 28  1  0
 28 29  1  0
 30 29  1  1
 30 31  1  0
 30 32  1  0
 32 34  1  0
 33 32  2  0
M  END
$$$$
