IIF.pdb
     RDKit          3D

 28 28  0  0  1  0  0  0  0  0999 V2000
   28.7912  -16.1119  -17.8797 C   0  0  0  0  0  0  0  0  0  0  0  0
   27.6217  -16.1045  -16.9143 C   0  0  0  0  0  0  0  0  0  0  0  0
   27.4620  -17.5164  -16.3903 C   0  0  2  0  0  0  0  0  0  0  0  0
   27.2842  -18.4371  -17.5536 C   0  0  0  0  0  0  0  0  0  0  0  0
   26.2930  -17.5100  -15.4394 C   0  0  2  0  0  0  0  0  0  0  0  0
   26.5738  -16.5405  -14.4077 N   0  0  0  0  0  0  0  0  0  0  0  0
   26.0922  -18.8504  -14.8080 C   0  0  0  0  0  0  0  0  0  0  0  0
   25.7778  -19.8503  -15.5119 O   0  0  0  0  0  0  0  0  0  0  0  0
   29.5285  -20.5744  -11.2568 C   0  0  0  0  0  0  0  0  0  0  0  0
   28.4500  -20.5050  -12.3625 C   0  0  0  0  0  0  0  0  0  0  0  0
   27.0840  -20.4652  -11.7606 C   0  0  2  0  0  0  0  0  0  0  0  0
   26.8760  -21.6026  -10.7685 C   0  0  0  0  0  0  0  0  0  0  0  0
   25.9419  -20.1772  -12.6385 C   0  0  2  0  0  0  0  0  0  0  0  0
   26.2610  -18.9699  -13.4181 N   0  0  0  0  0  0  0  0  0  0  0  0
   24.5872  -20.1796  -12.1516 C   0  0  0  0  0  0  0  0  0  0  0  0
   24.2388  -19.3902  -11.2312 O   0  0  0  0  0  0  0  0  0  0  0  0
   23.5777  -21.0347  -12.6550 N   0  0  0  0  0  0  0  0  0  0  0  0
   22.1822  -20.9297  -12.1912 C   0  0  1  0  0  0  0  0  0  0  0  0
   21.7699  -19.4957  -12.4578 C   0  0  0  0  0  0  0  0  0  0  0  0
   20.3337  -19.2531  -12.1729 C   0  0  0  0  0  0  0  0  0  0  0  0
   19.8255  -19.3361  -10.8831 C   0  0  0  0  0  0  0  0  0  0  0  0
   18.4970  -19.1116  -10.5878 C   0  0  0  0  0  0  0  0  0  0  0  0
   17.6661  -18.7936  -11.6410 C   0  0  0  0  0  0  0  0  0  0  0  0
   18.1444  -18.7072  -12.9125 C   0  0  0  0  0  0  0  0  0  0  0  0
   19.4854  -18.9339  -13.2093 C   0  0  0  0  0  0  0  0  0  0  0  0
   21.3425  -21.9141  -12.9147 C   0  0  0  0  0  0  0  0  0  0  0  0
   21.6025  -22.2693  -14.0850 O   0  0  0  0  0  0  0  0  0  0  0  0
   20.2279  -22.4798  -12.3096 O   0  0  0  0  0  0  0  0  0  0  0  0
  2  1  1  0
  3  2  1  0
  3  4  1  6
  5  3  1  0
  5  6  1  1
  7  5  1  0
  8  7  2  0
 10 11  1  0
 10  9  1  0
 11 13  1  0
 11 12  1  6
 13 14  1  1
 14  7  1  0
 15 13  1  0
 15 16  2  0
 17 18  1  0
 17 15  1  0
 18 19  1  6
 19 20  1  0
 20 25  2  0
 21 22  2  0
 21 20  1  0
 22 23  1  0
 23 24  2  0
 25 24  1  0
 26 18  1  0
 27 26  2  0
 28 26  1  0
M  END
$$$$
