IIF.pdb
     RDKit          3D

 28 28  0  0  1  0  0  0  0  0999 V2000
   25.5294  -18.9509  -17.7905 C   0  0  0  0  0  0  0  0  0  0  0  0
   26.4851  -19.9807  -17.2196 C   0  0  0  0  0  0  0  0  0  0  0  0
   27.6895  -19.2312  -16.6892 C   0  0  2  0  0  0  0  0  0  0  0  0
   28.3256  -18.4928  -17.8218 C   0  0  0  0  0  0  0  0  0  0  0  0
   28.5970  -20.2455  -16.0424 C   0  0  2  0  0  0  0  0  0  0  0  0
   28.9388  -21.2276  -17.0433 N   0  0  0  0  0  0  0  0  0  0  0  0
   27.9250  -20.9306  -14.8958 C   0  0  0  0  0  0  0  0  0  0  0  0
   27.3953  -22.0665  -15.0486 O   0  0  0  0  0  0  0  0  0  0  0  0
   30.4837  -21.1139  -10.4295 C   0  0  0  0  0  0  0  0  0  0  0  0
   29.5169  -21.4414  -11.5907 C   0  0  0  0  0  0  0  0  0  0  0  0
   28.1793  -20.8228  -11.3495 C   0  0  2  0  0  0  0  0  0  0  0  0
   27.6142  -21.2225   -9.9922 C   0  0  0  0  0  0  0  0  0  0  0  0
   27.2110  -20.7997  -12.4540 C   0  0  2  0  0  0  0  0  0  0  0  0
   27.8972  -20.2826  -13.6493 N   0  0  0  0  0  0  0  0  0  0  0  0
   25.8882  -20.2544  -12.2958 C   0  0  0  0  0  0  0  0  0  0  0  0
   25.7127  -19.0055  -12.2627 O   0  0  0  0  0  0  0  0  0  0  0  0
   24.7243  -21.0510  -12.1749 N   0  0  0  0  0  0  0  0  0  0  0  0
   23.3913  -20.4417  -12.0145 C   0  0  1  0  0  0  0  0  0  0  0  0
   22.5768  -20.9235  -13.1985 C   0  0  0  0  0  0  0  0  0  0  0  0
   21.1676  -20.4609  -13.1471 C   0  0  0  0  0  0  0  0  0  0  0  0
   20.1473  -21.2901  -12.6998 C   0  0  0  0  0  0  0  0  0  0  0  0
   18.8300  -20.8862  -12.6368 C   0  0  0  0  0  0  0  0  0  0  0  0
   18.5491  -19.5989  -13.0426 C   0  0  0  0  0  0  0  0  0  0  0  0
   19.5346  -18.7704  -13.4843 C   0  0  0  0  0  0  0  0  0  0  0  0
   20.8639  -19.1789  -13.5473 C   0  0  0  0  0  0  0  0  0  0  0  0
   22.8116  -20.8499  -10.7127 C   0  0  0  0  0  0  0  0  0  0  0  0
   23.1263  -21.9258  -10.1586 O   0  0  0  0  0  0  0  0  0  0  0  0
   21.8903  -20.0421  -10.0591 O   0  0  0  0  0  0  0  0  0  0  0  0
  2  1  1  0
  3  2  1  0
  3  4  1  6
  5  3  1  0
  5  6  1  6
  7  5  1  0
  8  7  2  0
 10 11  1  0
 10  9  1  0
 11 13  1  0
 11 12  1  1
 13 14  1  6
 14  7  1  0
 15 13  1  0
 15 16  2  0
 17 18  1  0
 17 15  1  0
 18 19  1  6
 19 20  1  0
 20 25  2  0
 21 22  2  0
 21 20  1  0
 22 23  1  0
 23 24  2  0
 25 24  1  0
 26 18  1  0
 27 26  2  0
 28 26  1  0
M  END
$$$$
