IIF.pdb
     RDKit          3D

 28 28  0  0  1  0  0  0  0  0999 V2000
   28.6117  -16.8646  -15.4902 C   0  0  0  0  0  0  0  0  0  0  0  0
   27.4037  -17.7665  -15.3258 C   0  0  0  0  0  0  0  0  0  0  0  0
   27.9170  -19.1838  -15.1804 C   0  0  2  0  0  0  0  0  0  0  0  0
   28.6593  -19.5496  -16.4246 C   0  0  0  0  0  0  0  0  0  0  0  0
   26.7253  -20.0642  -14.9059 C   0  0  2  0  0  0  0  0  0  0  0  0
   25.8144  -19.9263  -16.0171 N   0  0  0  0  0  0  0  0  0  0  0  0
   26.0246  -19.6621  -13.6477 C   0  0  0  0  0  0  0  0  0  0  0  0
   25.5664  -18.4932  -13.5142 O   0  0  0  0  0  0  0  0  0  0  0  0
   21.5448  -20.7266  -12.6663 C   0  0  0  0  0  0  0  0  0  0  0  0
   22.9835  -20.1613  -12.6377 C   0  0  0  0  0  0  0  0  0  0  0  0
   23.7757  -20.7990  -11.5442 C   0  0  2  0  0  0  0  0  0  0  0  0
   22.9571  -20.9361  -10.2666 C   0  0  0  0  0  0  0  0  0  0  0  0
   25.1714  -20.3804  -11.3573 C   0  0  2  0  0  0  0  0  0  0  0  0
   25.8887  -20.6126  -12.6217 N   0  0  0  0  0  0  0  0  0  0  0  0
   25.9378  -20.7773  -10.2052 C   0  0  0  0  0  0  0  0  0  0  0  0
   26.3060  -21.9759  -10.0659 O   0  0  0  0  0  0  0  0  0  0  0  0
   26.3270  -19.8823   -9.1798 N   0  0  0  0  0  0  0  0  0  0  0  0
   26.9875  -20.3628   -7.9524 C   0  0  1  0  0  0  0  0  0  0  0  0
   27.6591  -19.1464   -7.3469 C   0  0  0  0  0  0  0  0  0  0  0  0
   28.2749  -19.4330   -6.0273 C   0  0  0  0  0  0  0  0  0  0  0  0
   29.4268  -20.2007   -5.9153 C   0  0  0  0  0  0  0  0  0  0  0  0
   30.0236  -20.4796   -4.7035 C   0  0  0  0  0  0  0  0  0  0  0  0
   29.4255  -19.9588   -3.5758 C   0  0  0  0  0  0  0  0  0  0  0  0
   28.2963  -19.2039   -3.6640 C   0  0  0  0  0  0  0  0  0  0  0  0
   27.6948  -18.9229   -4.8876 C   0  0  0  0  0  0  0  0  0  0  0  0
   25.9799  -20.9722   -7.0518 C   0  0  0  0  0  0  0  0  0  0  0  0
   26.2871  -21.8499   -6.2159 O   0  0  0  0  0  0  0  0  0  0  0  0
   24.6478  -20.5838   -7.1078 O   0  0  0  0  0  0  0  0  0  0  0  0
  2  1  1  0
  3  2  1  0
  3  4  1  6
  5  3  1  0
  5  6  1  6
  7  5  1  0
  8  7  2  0
 10 11  1  0
 10  9  1  0
 11 13  1  0
 11 12  1  1
 13 14  1  6
 14  7  1  0
 15 13  1  0
 15 16  2  0
 17 18  1  0
 17 15  1  0
 18 19  1  1
 19 20  1  0
 20 25  2  0
 21 22  2  0
 21 20  1  0
 22 23  1  0
 23 24  2  0
 25 24  1  0
 26 18  1  0
 27 26  2  0
 28 26  1  0
M  END
$$$$
