IIF.pdb
     RDKit          3D

 28 28  0  0  1  0  0  0  0  0999 V2000
   27.7320  -15.2167  -15.0915 C   0  0  0  0  0  0  0  0  0  0  0  0
   26.8565  -16.4519  -15.1771 C   0  0  0  0  0  0  0  0  0  0  0  0
   27.7755  -17.6557  -15.1735 C   0  0  2  0  0  0  0  0  0  0  0  0
   28.6502  -17.5887  -16.3830 C   0  0  0  0  0  0  0  0  0  0  0  0
   26.9029  -18.8832  -15.1250 C   0  0  2  0  0  0  0  0  0  0  0  0
   26.0617  -18.8685  -16.2979 N   0  0  0  0  0  0  0  0  0  0  0  0
   26.0387  -18.8941  -13.9048 C   0  0  0  0  0  0  0  0  0  0  0  0
   25.1449  -18.0170  -13.7440 O   0  0  0  0  0  0  0  0  0  0  0  0
   22.0768  -21.0297  -13.5858 C   0  0  0  0  0  0  0  0  0  0  0  0
   23.3232  -20.1689  -13.2766 C   0  0  0  0  0  0  0  0  0  0  0  0
   24.1707  -20.8273  -12.2382 C   0  0  2  0  0  0  0  0  0  0  0  0
   23.3225  -21.4606  -11.1425 C   0  0  0  0  0  0  0  0  0  0  0  0
   25.3786  -20.1298  -11.7772 C   0  0  2  0  0  0  0  0  0  0  0  0
   26.2444  -19.8999  -12.9453 N   0  0  0  0  0  0  0  0  0  0  0  0
   26.1149  -20.5660  -10.6197 C   0  0  0  0  0  0  0  0  0  0  0  0
   26.7162  -21.6751  -10.6267 O   0  0  0  0  0  0  0  0  0  0  0  0
   26.2205  -19.8071   -9.4294 N   0  0  0  0  0  0  0  0  0  0  0  0
   26.8923  -20.3466   -8.2330 C   0  0  1  0  0  0  0  0  0  0  0  0
   27.5404  -19.1552   -7.5564 C   0  0  0  0  0  0  0  0  0  0  0  0
   28.1217  -19.4971   -6.2343 C   0  0  0  0  0  0  0  0  0  0  0  0
   29.2255  -20.3322   -6.1208 C   0  0  0  0  0  0  0  0  0  0  0  0
   29.7896  -20.6638   -4.9067 C   0  0  0  0  0  0  0  0  0  0  0  0
   29.2084  -20.1261   -3.7780 C   0  0  0  0  0  0  0  0  0  0  0  0
   28.1262  -19.3055   -3.8676 C   0  0  0  0  0  0  0  0  0  0  0  0
   27.5576  -18.9715   -5.0936 C   0  0  0  0  0  0  0  0  0  0  0  0
   25.8984  -21.0286   -7.3700 C   0  0  0  0  0  0  0  0  0  0  0  0
   24.6732  -20.7982   -7.4655 O   0  0  0  0  0  0  0  0  0  0  0  0
   26.3003  -21.9554   -6.4171 O   0  0  0  0  0  0  0  0  0  0  0  0
  2  1  1  0
  3  2  1  0
  3  4  1  6
  5  3  1  0
  5  6  1  6
  7  5  1  0
  8  7  2  0
 10 11  1  0
 10  9  1  0
 11 13  1  0
 11 12  1  1
 13 14  1  6
 14  7  1  0
 15 13  1  0
 15 16  2  0
 17 18  1  0
 17 15  1  0
 18 19  1  1
 19 20  1  0
 20 25  2  0
 21 22  2  0
 21 20  1  0
 22 23  1  0
 23 24  2  0
 25 24  1  0
 26 18  1  0
 27 26  2  0
 28 26  1  0
M  END
$$$$
