SQH.pdb
     RDKit          3D

 26 26  0  0  1  0  0  0  0  0999 V2000
    8.7661  -17.1112   18.0379 O   0  0  0  0  0  0  0  0  0  0  0  0
    8.3301  -16.6270   19.2576 C   0  0  0  0  0  0  0  0  0  0  0  0
    7.3340  -17.6041   19.8436 C   0  0  2  0  0  0  0  0  0  0  0  0
    6.1428  -17.7159   19.0462 N   0  0  0  0  0  0  0  0  0  0  0  0
    6.9680  -17.1440   21.1962 C   0  0  0  0  0  0  0  0  0  0  0  0
    6.1589  -16.2128   21.3713 O   0  0  0  0  0  0  0  0  0  0  0  0
    8.5103  -20.7486   26.8567 N   0  0  0  0  0  0  0  0  0  0  0  0
    7.5687  -20.4900   25.8451 C   0  0  0  0  0  0  0  0  0  0  0  0
    6.4084  -20.9441   25.9291 O   0  0  0  0  0  0  0  0  0  0  0  0
    7.9266  -19.6735   24.6545 C   0  0  0  0  0  0  0  0  0  0  0  0
    6.7926  -18.7854   24.2890 C   0  0  0  0  0  0  0  0  0  0  0  0
    7.1220  -17.4603   23.7040 C   0  0  2  0  0  0  0  0  0  0  0  0
    7.5482  -17.7740   22.3146 N   0  0  0  0  0  0  0  0  0  0  0  0
    8.2052  -16.7008   24.3173 C   0  0  0  0  0  0  0  0  0  0  0  0
    9.1909  -16.3586   23.5788 O   0  0  0  0  0  0  0  0  0  0  0  0
    8.2877  -16.2892   25.6589 N   0  0  0  0  0  0  0  0  0  0  0  0
    9.3796  -15.4349   26.1459 C   0  0  1  0  0  0  0  0  0  0  0  0
    9.2391  -14.0584   25.5730 C   0  0  0  0  0  0  0  0  0  0  0  0
    7.9828  -13.3854   25.9842 C   0  0  0  0  0  0  0  0  0  0  0  0
    7.8369  -12.5673   27.1184 C   0  0  0  0  0  0  0  0  0  0  0  0
    6.5793  -12.1192   27.1987 N   0  0  0  0  0  0  0  0  0  0  0  0
    5.9332  -12.6366   26.1424 C   0  0  0  0  0  0  0  0  0  0  0  0
    6.7658  -13.3919   25.4158 N   0  0  0  0  0  0  0  0  0  0  0  0
    9.3010  -15.4337   27.6132 C   0  0  0  0  0  0  0  0  0  0  0  0
   10.0606  -14.8105   28.3981 O   0  0  0  0  0  0  0  0  0  0  0  0
    8.2926  -16.1894   28.2431 O   0  0  0  0  0  0  0  0  0  0  0  0
  1  2  1  0
  3  2  1  0
  3  5  1  0
  3  4  1  6
  5  6  2  0
  7  8  1  0
  8  9  2  0
  8 10  1  0
 10 11  1  0
 12 11  1  1
 12 14  1  0
 13 12  1  0
 13  5  1  0
 14 15  2  0
 16 17  1  0
 16 14  1  0
 17 24  1  0
 18 19  1  0
 17 18  1  6
 19 20  2  0
 20 21  1  0
 22 21  1  0
 23 19  1  0
 23 22  2  0
 24 25  2  0
 24 26  1  0
M  END
$$$$
