SQH.pdb
     RDKit          3D

 26 26  0  0  1  0  0  0  0  0999 V2000
   17.4512  -18.7819   12.7994 O   0  0  0  0  0  0  0  0  0  0  0  0
   16.4302  -19.2522   13.6048 C   0  0  0  0  0  0  0  0  0  0  0  0
   15.5797  -18.0818   14.0489 C   0  0  2  0  0  0  0  0  0  0  0  0
   16.0106  -16.8397   13.4668 N   0  0  0  0  0  0  0  0  0  0  0  0
   15.6570  -17.9787   15.5182 C   0  0  0  0  0  0  0  0  0  0  0  0
   16.1174  -16.9647   16.0771 O   0  0  0  0  0  0  0  0  0  0  0  0
   11.1645  -20.1565   19.0203 N   0  0  0  0  0  0  0  0  0  0  0  0
   12.2954  -20.4825   19.7892 C   0  0  0  0  0  0  0  0  0  0  0  0
   12.2402  -21.3933   20.6419 O   0  0  0  0  0  0  0  0  0  0  0  0
   13.5809  -19.7562   19.6092 C   0  0  0  0  0  0  0  0  0  0  0  0
   13.8749  -19.5966   18.1613 C   0  0  0  0  0  0  0  0  0  0  0  0
   15.1785  -18.9883   17.7907 C   0  0  2  0  0  0  0  0  0  0  0  0
   15.1989  -19.0532   16.3056 N   0  0  0  0  0  0  0  0  0  0  0  0
   16.3908  -19.6492   18.2596 C   0  0  0  0  0  0  0  0  0  0  0  0
   17.0104  -20.4144   17.4443 O   0  0  0  0  0  0  0  0  0  0  0  0
   16.9708  -19.5338   19.5350 N   0  0  0  0  0  0  0  0  0  0  0  0
   18.4249  -19.4385   19.7236 C   0  0  1  0  0  0  0  0  0  0  0  0
   18.9549  -18.2512   18.9806 C   0  0  0  0  0  0  0  0  0  0  0  0
   19.6421  -18.6176   17.7181 C   0  0  0  0  0  0  0  0  0  0  0  0
   19.7376  -19.9201   17.1974 C   0  0  0  0  0  0  0  0  0  0  0  0
   20.4206  -19.9027   16.0477 N   0  0  0  0  0  0  0  0  0  0  0  0
   20.7557  -18.6207   15.8350 C   0  0  0  0  0  0  0  0  0  0  0  0
   20.2937  -17.8513   16.8280 N   0  0  0  0  0  0  0  0  0  0  0  0
   18.6635  -19.3371   21.1700 C   0  0  0  0  0  0  0  0  0  0  0  0
   17.8761  -18.8505   22.0213 O   0  0  0  0  0  0  0  0  0  0  0  0
   19.8779  -19.8193   21.6967 O   0  0  0  0  0  0  0  0  0  0  0  0
  1  2  1  0
  3  2  1  0
  3  5  1  0
  3  4  1  6
  5  6  2  0
  7  8  1  0
  8  9  2  0
  8 10  1  0
 10 11  1  0
 12 11  1  1
 12 14  1  0
 13 12  1  0
 13  5  1  0
 14 15  2  0
 16 17  1  0
 16 14  1  0
 17 24  1  0
 18 19  1  0
 17 18  1  6
 19 20  2  0
 20 21  1  0
 22 21  1  0
 23 19  1  0
 23 22  2  0
 24 25  2  0
 24 26  1  0
M  END
$$$$
