SQH.pdb
     RDKit          3D

 26 26  0  0  1  0  0  0  0  0999 V2000
    7.3371  -13.5794   19.0450 O   0  0  0  0  0  0  0  0  0  0  0  0
    8.3785  -12.7019   18.8044 C   0  0  0  0  0  0  0  0  0  0  0  0
    9.0854  -13.1194   17.5331 C   0  0  2  0  0  0  0  0  0  0  0  0
    8.1721  -13.5942   16.5294 N   0  0  0  0  0  0  0  0  0  0  0  0
   10.0425  -14.1926   17.8612 C   0  0  0  0  0  0  0  0  0  0  0  0
    9.8875  -15.3552   17.4407 O   0  0  0  0  0  0  0  0  0  0  0  0
   16.1512  -14.7860   17.0390 N   0  0  0  0  0  0  0  0  0  0  0  0
   15.8394  -14.7013   18.4073 C   0  0  0  0  0  0  0  0  0  0  0  0
   16.5972  -14.0947   19.1930 O   0  0  0  0  0  0  0  0  0  0  0  0
   14.6060  -15.3281   18.9533 C   0  0  0  0  0  0  0  0  0  0  0  0
   13.4257  -14.4806   18.6417 C   0  0  0  0  0  0  0  0  0  0  0  0
   12.1015  -14.9457   19.1285 C   0  0  2  0  0  0  0  0  0  0  0  0
   11.1571  -13.8934   18.6690 N   0  0  0  0  0  0  0  0  0  0  0  0
   11.9190  -15.0779   20.5691 C   0  0  0  0  0  0  0  0  0  0  0  0
   12.3354  -14.1278   21.3162 O   0  0  0  0  0  0  0  0  0  0  0  0
   11.3191  -16.1551   21.2445 N   0  0  0  0  0  0  0  0  0  0  0  0
   11.1409  -16.1579   22.7030 C   0  0  1  0  0  0  0  0  0  0  0  0
    9.7614  -16.6310   23.0434 C   0  0  0  0  0  0  0  0  0  0  0  0
    8.6980  -15.7344   22.5284 C   0  0  0  0  0  0  0  0  0  0  0  0
    8.7235  -14.3299   22.5904 C   0  0  0  0  0  0  0  0  0  0  0  0
    7.6136  -13.8287   22.0376 N   0  0  0  0  0  0  0  0  0  0  0  0
    6.8927  -14.8850   21.6305 C   0  0  0  0  0  0  0  0  0  0  0  0
    7.5352  -16.0227   21.9209 N   0  0  0  0  0  0  0  0  0  0  0  0
   12.1794  -17.0357   23.2599 C   0  0  0  0  0  0  0  0  0  0  0  0
   13.0276  -17.6930   22.6041 O   0  0  0  0  0  0  0  0  0  0  0  0
   12.2700  -17.1839   24.6579 O   0  0  0  0  0  0  0  0  0  0  0  0
  1  2  1  0
  3  2  1  0
  3  5  1  0
  3  4  1  6
  5  6  2  0
  7  8  1  0
  8  9  2  0
  8 10  1  0
 10 11  1  0
 12 11  1  1
 12 14  1  0
 13 12  1  0
 13  5  1  0
 14 15  2  0
 16 17  1  0
 16 14  1  0
 17 24  1  0
 18 19  1  0
 17 18  1  6
 19 20  2  0
 20 21  1  0
 22 21  1  0
 23 19  1  0
 23 22  2  0
 24 25  2  0
 24 26  1  0
M  END
$$$$
