SQH.pdb
     RDKit          3D

 26 26  0  0  1  0  0  0  0  0999 V2000
    8.4948  -12.8091   16.9403 O   0  0  0  0  0  0  0  0  0  0  0  0
    8.8219  -13.5908   18.0332 C   0  0  0  0  0  0  0  0  0  0  0  0
    9.6276  -14.7809   17.5592 C   0  0  2  0  0  0  0  0  0  0  0  0
    8.8208  -15.7458   16.8624 N   0  0  0  0  0  0  0  0  0  0  0  0
   10.2444  -15.4256   18.7335 C   0  0  0  0  0  0  0  0  0  0  0  0
    9.7620  -16.4570   19.2394 O   0  0  0  0  0  0  0  0  0  0  0  0
   16.0575  -13.8902   20.4825 N   0  0  0  0  0  0  0  0  0  0  0  0
   15.5519  -14.1897   19.2052 C   0  0  0  0  0  0  0  0  0  0  0  0
   16.2000  -13.8882   18.1811 O   0  0  0  0  0  0  0  0  0  0  0  0
   14.2394  -14.8695   19.0397 C   0  0  0  0  0  0  0  0  0  0  0  0
   13.5071  -14.8803   20.3327 C   0  0  0  0  0  0  0  0  0  0  0  0
   12.1798  -15.5469   20.3620 C   0  0  2  0  0  0  0  0  0  0  0  0
   11.4062  -14.8599   19.2944 N   0  0  0  0  0  0  0  0  0  0  0  0
   11.3965  -15.4402   21.5873 C   0  0  0  0  0  0  0  0  0  0  0  0
   11.4635  -14.3484   22.2488 O   0  0  0  0  0  0  0  0  0  0  0  0
   10.5531  -16.4234   22.1334 N   0  0  0  0  0  0  0  0  0  0  0  0
    9.9062  -16.2555   23.4419 C   0  0  1  0  0  0  0  0  0  0  0  0
    8.4201  -16.3588   23.2888 C   0  0  0  0  0  0  0  0  0  0  0  0
    7.8321  -15.2104   22.5570 C   0  0  0  0  0  0  0  0  0  0  0  0
    8.5362  -14.0627   22.1521 C   0  0  0  0  0  0  0  0  0  0  0  0
    7.7121  -13.2224   21.5170 N   0  0  0  0  0  0  0  0  0  0  0  0
    6.5082  -13.8155   21.5138 C   0  0  0  0  0  0  0  0  0  0  0  0
    6.5751  -15.0005   22.1325 N   0  0  0  0  0  0  0  0  0  0  0  0
   10.4450  -17.3003   24.3236 C   0  0  0  0  0  0  0  0  0  0  0  0
   11.2529  -18.2064   23.9953 O   0  0  0  0  0  0  0  0  0  0  0  0
   10.0452  -17.3265   25.6741 O   0  0  0  0  0  0  0  0  0  0  0  0
  1  2  1  0
  3  2  1  0
  3  5  1  0
  3  4  1  1
  5  6  2  0
  7  8  1  0
  8  9  2  0
  8 10  1  0
 10 11  1  0
 12 11  1  1
 12 14  1  0
 13 12  1  0
 13  5  1  0
 14 15  2  0
 16 17  1  0
 16 14  1  0
 17 24  1  0
 18 19  1  0
 17 18  1  6
 19 20  2  0
 20 21  1  0
 22 21  1  0
 23 19  1  0
 23 22  2  0
 24 25  2  0
 24 26  1  0
M  END
$$$$
