SQH.pdb
     RDKit          3D

 26 26  0  0  1  0  0  0  0  0999 V2000
    8.9863  -17.2098   16.5115 O   0  0  0  0  0  0  0  0  0  0  0  0
   10.1953  -17.4702   17.1302 C   0  0  0  0  0  0  0  0  0  0  0  0
   11.2515  -16.5605   16.5412 C   0  0  2  0  0  0  0  0  0  0  0  0
   11.7571  -17.0487   15.2869 N   0  0  0  0  0  0  0  0  0  0  0  0
   12.3655  -16.4541   17.5019 C   0  0  0  0  0  0  0  0  0  0  0  0
   13.2288  -17.3470   17.6005 O   0  0  0  0  0  0  0  0  0  0  0  0
   16.7896  -14.0755   19.3221 N   0  0  0  0  0  0  0  0  0  0  0  0
   16.2380  -14.0043   18.0309 C   0  0  0  0  0  0  0  0  0  0  0  0
   16.9033  -14.3647   17.0374 O   0  0  0  0  0  0  0  0  0  0  0  0
   14.8553  -13.5010   17.8141 C   0  0  0  0  0  0  0  0  0  0  0  0
   14.0338  -13.7347   19.0303 C   0  0  0  0  0  0  0  0  0  0  0  0
   13.5710  -15.1228   19.2871 C   0  0  2  0  0  0  0  0  0  0  0  0
   12.4530  -15.3151   18.3262 N   0  0  0  0  0  0  0  0  0  0  0  0
   13.0457  -15.4259   20.6132 C   0  0  0  0  0  0  0  0  0  0  0  0
   11.7957  -15.6705   20.7217 O   0  0  0  0  0  0  0  0  0  0  0  0
   13.7763  -15.4850   21.8128 N   0  0  0  0  0  0  0  0  0  0  0  0
   13.6494  -16.6117   22.7474 C   0  0  1  0  0  0  0  0  0  0  0  0
   13.9315  -17.8968   22.0321 C   0  0  0  0  0  0  0  0  0  0  0  0
   12.6996  -18.6232   21.6388 C   0  0  0  0  0  0  0  0  0  0  0  0
   11.3876  -18.1593   21.8400 C   0  0  0  0  0  0  0  0  0  0  0  0
   10.5107  -19.0536   21.3710 N   0  0  0  0  0  0  0  0  0  0  0  0
   11.2411  -20.0671   20.8807 C   0  0  0  0  0  0  0  0  0  0  0  0
   12.5461  -19.8148   21.0382 N   0  0  0  0  0  0  0  0  0  0  0  0
   14.5984  -16.3689   23.8427 C   0  0  0  0  0  0  0  0  0  0  0  0
   15.7894  -15.9831   23.7229 O   0  0  0  0  0  0  0  0  0  0  0  0
   14.1753  -16.5751   25.1704 O   0  0  0  0  0  0  0  0  0  0  0  0
  1  2  1  0
  3  2  1  0
  3  5  1  0
  3  4  1  6
  5  6  2  0
  7  8  1  0
  8  9  2  0
  8 10  1  0
 10 11  1  0
 12 11  1  1
 12 14  1  0
 13 12  1  0
 13  5  1  0
 14 15  2  0
 16 17  1  0
 16 14  1  0
 17 24  1  0
 18 19  1  0
 17 18  1  6
 19 20  2  0
 20 21  1  0
 22 21  1  0
 23 19  1  0
 23 22  2  0
 24 25  2  0
 24 26  1  0
M  END
$$$$
