SQH.pdb
     RDKit          3D

 26 26  0  0  1  0  0  0  0  0999 V2000
   14.2995  -16.4708   13.2857 O   0  0  0  0  0  0  0  0  0  0  0  0
   13.1734  -16.8063   14.0149 C   0  0  0  0  0  0  0  0  0  0  0  0
   12.3233  -15.5678   14.1985 C   0  0  2  0  0  0  0  0  0  0  0  0
   12.3829  -14.6893   13.0620 N   0  0  0  0  0  0  0  0  0  0  0  0
   12.8011  -14.8456   15.3924 C   0  0  0  0  0  0  0  0  0  0  0  0
   13.4242  -13.7707   15.2981 O   0  0  0  0  0  0  0  0  0  0  0  0
   10.5135  -16.5043   20.8062 N   0  0  0  0  0  0  0  0  0  0  0  0
   11.4010  -15.5240   21.2837 C   0  0  0  0  0  0  0  0  0  0  0  0
   11.4659  -15.2693   22.5045 O   0  0  0  0  0  0  0  0  0  0  0  0
   12.2816  -14.7680   20.3535 C   0  0  0  0  0  0  0  0  0  0  0  0
   12.0923  -15.2593   18.9638 C   0  0  0  0  0  0  0  0  0  0  0  0
   12.9849  -14.7042   17.9141 C   0  0  2  0  0  0  0  0  0  0  0  0
   12.5456  -15.3859   16.6680 N   0  0  0  0  0  0  0  0  0  0  0  0
   14.4167  -14.9465   18.0465 C   0  0  0  0  0  0  0  0  0  0  0  0
   14.8681  -16.0864   17.6844 O   0  0  0  0  0  0  0  0  0  0  0  0
   15.3795  -14.0459   18.5345 N   0  0  0  0  0  0  0  0  0  0  0  0
   16.7844  -14.4334   18.7216 C   0  0  1  0  0  0  0  0  0  0  0  0
   17.6794  -13.4143   18.0867 C   0  0  0  0  0  0  0  0  0  0  0  0
   17.8950  -13.6545   16.6390 C   0  0  0  0  0  0  0  0  0  0  0  0
   17.3776  -12.8596   15.6010 C   0  0  0  0  0  0  0  0  0  0  0  0
   17.7588  -13.3508   14.4169 N   0  0  0  0  0  0  0  0  0  0  0  0
   18.5027  -14.4345   14.6874 C   0  0  0  0  0  0  0  0  0  0  0  0
   18.5865  -14.6193   16.0104 N   0  0  0  0  0  0  0  0  0  0  0  0
   17.0099  -14.5416   20.1696 C   0  0  0  0  0  0  0  0  0  0  0  0
   18.1049  -14.7925   20.7350 O   0  0  0  0  0  0  0  0  0  0  0  0
   15.9228  -14.3530   21.0455 O   0  0  0  0  0  0  0  0  0  0  0  0
  1  2  1  0
  3  2  1  0
  3  5  1  0
  3  4  1  6
  5  6  2  0
  7  8  1  0
  8  9  2  0
  8 10  1  0
 10 11  1  0
 12 11  1  1
 12 14  1  0
 13 12  1  0
 13  5  1  0
 14 15  2  0
 16 17  1  0
 16 14  1  0
 17 24  1  0
 18 19  1  0
 17 18  1  1
 19 20  2  0
 20 21  1  0
 22 21  1  0
 23 19  1  0
 23 22  2  0
 24 25  2  0
 24 26  1  0
M  END
$$$$
