SQH.pdb
     RDKit          3D

 26 26  0  0  1  0  0  0  0  0999 V2000
    8.1465  -11.6890   19.2800 O   0  0  0  0  0  0  0  0  0  0  0  0
    7.9843  -12.6774   20.2333 C   0  0  0  0  0  0  0  0  0  0  0  0
    8.2554  -14.0221   19.5941 C   0  0  2  0  0  0  0  0  0  0  0  0
    7.2750  -14.3632   18.5993 N   0  0  0  0  0  0  0  0  0  0  0  0
    8.2496  -15.0516   20.6503 C   0  0  0  0  0  0  0  0  0  0  0  0
    7.2900  -15.8334   20.7933 O   0  0  0  0  0  0  0  0  0  0  0  0
   10.5194  -19.2255   23.4295 N   0  0  0  0  0  0  0  0  0  0  0  0
   10.2891  -19.4700   22.0643 C   0  0  0  0  0  0  0  0  0  0  0  0
   10.0636  -20.6291   21.6579 O   0  0  0  0  0  0  0  0  0  0  0  0
   10.3077  -18.3616   21.0727 C   0  0  0  0  0  0  0  0  0  0  0  0
   10.6604  -17.0845   21.7459 C   0  0  0  0  0  0  0  0  0  0  0  0
    9.5611  -16.3291   22.3997 C   0  0  2  0  0  0  0  0  0  0  0  0
    9.3562  -15.1510   21.5163 N   0  0  0  0  0  0  0  0  0  0  0  0
    9.8001  -15.8141   23.7428 C   0  0  0  0  0  0  0  0  0  0  0  0
    9.9767  -14.5554   23.8799 O   0  0  0  0  0  0  0  0  0  0  0  0
    9.8553  -16.5621   24.9318 N   0  0  0  0  0  0  0  0  0  0  0  0
    9.2205  -16.0990   26.1735 C   0  0  1  0  0  0  0  0  0  0  0  0
    7.8037  -15.6989   25.8989 C   0  0  0  0  0  0  0  0  0  0  0  0
    7.5588  -14.2517   26.1127 C   0  0  0  0  0  0  0  0  0  0  0  0
    8.5316  -13.3158   26.5061 C   0  0  0  0  0  0  0  0  0  0  0  0
    7.9812  -12.1012   26.6078 N   0  0  0  0  0  0  0  0  0  0  0  0
    6.6868  -12.2528   26.2877 C   0  0  0  0  0  0  0  0  0  0  0  0
    6.4306  -13.5328   25.9920 N   0  0  0  0  0  0  0  0  0  0  0  0
    9.3057  -17.2054   27.1367 C   0  0  0  0  0  0  0  0  0  0  0  0
    9.0867  -18.4200   26.8953 O   0  0  0  0  0  0  0  0  0  0  0  0
    9.6642  -16.9237   28.4696 O   0  0  0  0  0  0  0  0  0  0  0  0
  1  2  1  0
  3  2  1  0
  3  5  1  0
  3  4  1  6
  5  6  2  0
  7  8  1  0
  8  9  2  0
  8 10  1  0
 10 11  1  0
 12 11  1  6
 12 14  1  0
 13 12  1  0
 13  5  1  0
 14 15  2  0
 16 17  1  0
 16 14  1  0
 17 24  1  0
 18 19  1  0
 17 18  1  6
 19 20  2  0
 20 21  1  0
 22 21  1  0
 23 19  1  0
 23 22  2  0
 24 25  2  0
 24 26  1  0
M  END
$$$$
