SQH.pdb
     RDKit          3D

 26 26  0  0  1  0  0  0  0  0999 V2000
   11.1155  -19.0933   22.2864 O   0  0  0  0  0  0  0  0  0  0  0  0
   12.0299  -19.0651   21.2494 C   0  0  0  0  0  0  0  0  0  0  0  0
   11.3723  -18.4467   20.0347 C   0  0  2  0  0  0  0  0  0  0  0  0
   12.2087  -18.5112   18.8669 N   0  0  0  0  0  0  0  0  0  0  0  0
   11.0703  -17.0346   20.3346 C   0  0  0  0  0  0  0  0  0  0  0  0
   11.9114  -16.1343   20.1484 O   0  0  0  0  0  0  0  0  0  0  0  0
    8.5625  -11.9164   19.1667 N   0  0  0  0  0  0  0  0  0  0  0  0
    7.9440  -13.1736   19.0503 C   0  0  0  0  0  0  0  0  0  0  0  0
    7.8302  -13.7224   17.9343 O   0  0  0  0  0  0  0  0  0  0  0  0
    7.4115  -13.8802   20.2459 C   0  0  0  0  0  0  0  0  0  0  0  0
    8.0469  -15.2179   20.3693 C   0  0  0  0  0  0  0  0  0  0  0  0
    9.3757  -15.2861   21.0301 C   0  0  2  0  0  0  0  0  0  0  0  0
    9.8005  -16.6986   20.8435 N   0  0  0  0  0  0  0  0  0  0  0  0
    9.4340  -15.0125   22.4611 C   0  0  0  0  0  0  0  0  0  0  0  0
    8.6348  -14.1357   22.9372 O   0  0  0  0  0  0  0  0  0  0  0  0
   10.2867  -15.6210   23.3986 N   0  0  0  0  0  0  0  0  0  0  0  0
    9.7790  -16.2141   24.6434 C   0  0  1  0  0  0  0  0  0  0  0  0
    8.6850  -17.1879   24.3307 C   0  0  0  0  0  0  0  0  0  0  0  0
    8.2205  -17.9394   25.5221 C   0  0  0  0  0  0  0  0  0  0  0  0
    8.6731  -17.7315   26.8371 C   0  0  0  0  0  0  0  0  0  0  0  0
    8.0537  -18.5738   27.6711 N   0  0  0  0  0  0  0  0  0  0  0  0
    7.2237  -19.3048   26.9109 C   0  0  0  0  0  0  0  0  0  0  0  0
    7.3198  -18.9301   25.6295 N   0  0  0  0  0  0  0  0  0  0  0  0
   10.9202  -16.8592   25.3073 C   0  0  0  0  0  0  0  0  0  0  0  0
   12.0771  -16.9942   24.8333 O   0  0  0  0  0  0  0  0  0  0  0  0
   10.7460  -17.3911   26.6001 O   0  0  0  0  0  0  0  0  0  0  0  0
  1  2  1  0
  3  2  1  0
  3  5  1  0
  3  4  1  6
  5  6  2  0
  7  8  1  0
  8  9  2  0
  8 10  1  0
 10 11  1  0
 12 11  1  1
 12 14  1  0
 13 12  1  0
 13  5  1  0
 14 15  2  0
 16 17  1  0
 16 14  1  0
 17 24  1  0
 18 19  1  0
 17 18  1  6
 19 20  2  0
 20 21  1  0
 22 21  1  0
 23 19  1  0
 23 22  2  0
 24 25  2  0
 24 26  1  0
M  END
$$$$
