RNH.pdb
     RDKit          3D

 30 30  0  0  1  0  0  0  0  0999 V2000
   20.8572  -28.5248   -9.7490 N   0  0  0  0  0  0  0  0  0  0  0  0
   19.9511  -28.7244  -10.8168 C   0  0  0  0  0  0  0  0  0  0  0  0
   20.1450  -29.6776  -11.6652 N   0  0  0  0  0  0  0  0  0  0  0  0
   18.8338  -27.8506  -10.9197 N   0  0  0  0  0  0  0  0  0  0  0  0
   18.8396  -26.6019  -10.2071 C   0  0  0  0  0  0  0  0  0  0  0  0
   18.4352  -26.7498   -8.7517 C   0  0  0  0  0  0  0  0  0  0  0  0
   17.2361  -25.8722   -8.5164 C   0  0  0  0  0  0  0  0  0  0  0  0
   17.6208  -24.5175   -7.9616 C   0  0  2  0  0  0  0  0  0  0  0  0
   19.0396  -24.2704   -8.0893 N   0  0  0  0  0  0  0  0  0  0  0  0
   17.0976  -24.2693   -6.6028 C   0  0  0  0  0  0  0  0  0  0  0  0
   17.8632  -24.4521   -5.6288 O   0  0  0  0  0  0  0  0  0  0  0  0
   19.5297  -29.7509  -12.4937 N   0  0  0  0  0  0  0  0  0  0  0  0
   13.7111  -21.6931   -2.7632 C   0  0  0  0  0  0  0  0  0  0  0  0
   13.3980  -22.7845   -3.5791 O   0  0  0  0  0  0  0  0  0  0  0  0
   12.5724  -23.6378   -3.1043 C   0  0  0  0  0  0  0  0  0  0  0  0
   13.9050  -23.0697   -4.9219 C   0  0  1  0  0  0  0  0  0  0  0  0
   15.2604  -23.6936   -4.9738 N   0  0  0  0  0  0  0  0  0  0  0  0
   15.7818  -23.8366   -6.3147 C   0  0  0  0  0  0  0  0  0  0  0  0
   15.2608  -24.9611   -4.2242 O   0  0  0  0  0  0  0  0  0  0  0  0
   14.9678  -26.0773   -4.7254 N   0  0  0  0  0  0  0  0  0  0  0  0
   15.6061  -24.9760   -2.8495 C   0  0  1  0  0  0  0  0  0  0  0  0
   15.5569  -26.2324   -2.0781 C   0  0  0  0  0  0  0  0  0  0  0  0
   16.9564  -26.3706   -1.5266 C   0  0  0  0  0  0  0  0  0  0  0  0
   17.8262  -27.2911   -2.2555 C   0  0  0  0  0  0  0  0  0  0  0  0
   17.4950  -28.0095   -3.4141 N   0  0  0  0  0  0  0  0  0  0  0  0
   18.5297  -28.7639   -3.8105 C   0  0  0  0  0  0  0  0  0  0  0  0
   19.5159  -28.5372   -2.9216 N   0  0  0  0  0  0  0  0  0  0  0  0
   19.0893  -27.6613   -2.0016 C   0  0  0  0  0  0  0  0  0  0  0  0
   14.5284  -26.1456   -1.0367 O   0  0  0  0  0  0  0  0  0  0  0  0
   14.2687  -25.0258   -0.5276 O   0  0  0  0  0  0  0  0  0  0  0  0
  2  1  1  0
  3  2  2  0
  4  2  1  0
  5  4  1  0
  6  5  1  0
  7  6  1  0
  8  7  1  0
  8  9  1  1
 10 11  2  0
 10  8  1  0
 13 12  1  0
 13 15  1  0
 14 13  2  0
 16 15  1  1
 16 18  1  0
 16 17  1  0
 17 10  1  0
 18 20  1  0
 19 18  2  0
 20 21  1  0
 21 28  1  0
 22 23  1  0
 21 22  1  1
 23 27  1  0
 24 23  2  0
 24 25  1  0
 25 26  1  0
 27 26  2  0
 28 29  2  0
 28 30  1  0
M  END
$$$$
