RNH.pdb
     RDKit          3D

 30 30  0  0  1  0  0  0  0  0999 V2000
   12.4697  -19.0371    0.7543 N   0  0  0  0  0  0  0  0  0  0  0  0
   11.9700  -17.7489    1.0572 C   0  0  0  0  0  0  0  0  0  0  0  0
   11.0757  -17.2039    0.3028 N   0  0  0  0  0  0  0  0  0  0  0  0
   12.4800  -17.0858    2.2072 N   0  0  0  0  0  0  0  0  0  0  0  0
   13.7646  -17.4606    2.7331 C   0  0  0  0  0  0  0  0  0  0  0  0
   14.1621  -16.6522    3.9547 C   0  0  0  0  0  0  0  0  0  0  0  0
   15.3312  -15.7862    3.5723 C   0  0  0  0  0  0  0  0  0  0  0  0
   15.8250  -14.9495    4.7330 C   0  0  2  0  0  0  0  0  0  0  0  0
   16.4324  -13.7168    4.2836 N   0  0  0  0  0  0  0  0  0  0  0  0
   16.6595  -15.7055    5.6888 C   0  0  0  0  0  0  0  0  0  0  0  0
   17.8235  -16.0151    5.3458 O   0  0  0  0  0  0  0  0  0  0  0  0
   10.6756  -16.2886    0.5722 N   0  0  0  0  0  0  0  0  0  0  0  0
   18.3094  -16.3431   11.3307 C   0  0  0  0  0  0  0  0  0  0  0  0
   17.8526  -17.0565   10.2184 O   0  0  0  0  0  0  0  0  0  0  0  0
   18.4480  -18.1581    9.9589 C   0  0  0  0  0  0  0  0  0  0  0  0
   16.7661  -16.6917    9.3084 C   0  0  2  0  0  0  0  0  0  0  0  0
   17.0382  -16.9312    7.8601 N   0  0  0  0  0  0  0  0  0  0  0  0
   16.2387  -16.1120    6.9769 C   0  0  0  0  0  0  0  0  0  0  0  0
   16.9299  -18.3683    7.5579 O   0  0  0  0  0  0  0  0  0  0  0  0
   15.9570  -18.8913    6.9556 N   0  0  0  0  0  0  0  0  0  0  0  0
   17.9611  -19.2586    7.9494 C   0  0  1  0  0  0  0  0  0  0  0  0
   17.8987  -20.6857    7.5815 C   0  0  0  0  0  0  0  0  0  0  0  0
   17.9097  -20.6683    6.0710 C   0  0  0  0  0  0  0  0  0  0  0  0
   17.9830  -21.9806    5.4325 C   0  0  0  0  0  0  0  0  0  0  0  0
   16.9017  -22.8208    5.1280 N   0  0  0  0  0  0  0  0  0  0  0  0
   17.3335  -23.9516    4.5519 C   0  0  0  0  0  0  0  0  0  0  0  0
   18.6745  -23.8447    4.4846 N   0  0  0  0  0  0  0  0  0  0  0  0
   19.0515  -22.6711    5.0099 C   0  0  0  0  0  0  0  0  0  0  0  0
   19.0355  -21.4071    8.1622 O   0  0  0  0  0  0  0  0  0  0  0  0
   20.0006  -20.7504    8.6290 O   0  0  0  0  0  0  0  0  0  0  0  0
  2  1  1  0
  3  2  2  0
  4  2  1  0
  5  4  1  0
  6  5  1  0
  7  6  1  0
  8  7  1  0
  8  9  1  6
 10 11  2  0
 10  8  1  0
 13 12  1  0
 13 15  1  0
 14 13  2  0
 16 15  1  1
 16 18  1  0
 16 17  1  0
 17 10  1  0
 18 20  1  0
 19 18  2  0
 20 21  1  0
 21 28  1  0
 22 23  1  0
 21 22  1  1
 23 27  1  0
 24 23  2  0
 24 25  1  0
 25 26  1  0
 27 26  2  0
 28 29  2  0
 28 30  1  0
M  END
$$$$
