RNH.pdb
     RDKit          3D

 30 30  0  0  1  0  0  0  0  0999 V2000
   15.8039   -4.4077  -18.1139 N   0  0  0  0  0  0  0  0  0  0  0  0
   16.8259   -3.6614  -18.7459 C   0  0  0  0  0  0  0  0  0  0  0  0
   16.5799   -3.0131  -19.8346 N   0  0  0  0  0  0  0  0  0  0  0  0
   18.1155   -3.6499  -18.1466 N   0  0  0  0  0  0  0  0  0  0  0  0
   18.3252   -4.3296  -16.8972 C   0  0  0  0  0  0  0  0  0  0  0  0
   18.5342   -5.8236  -17.0645 C   0  0  0  0  0  0  0  0  0  0  0  0
   18.8200   -6.4028  -15.7059 C   0  0  0  0  0  0  0  0  0  0  0  0
   17.7396   -7.3629  -15.2563 C   0  0  2  0  0  0  0  0  0  0  0  0
   16.4509   -7.0168  -15.8129 N   0  0  0  0  0  0  0  0  0  0  0  0
   17.7143   -7.5758  -13.7949 C   0  0  0  0  0  0  0  0  0  0  0  0
   18.7786   -7.9077  -13.2243 O   0  0  0  0  0  0  0  0  0  0  0  0
   17.3302   -2.4476  -20.2676 N   0  0  0  0  0  0  0  0  0  0  0  0
   16.5432   -8.0083   -8.6177 C   0  0  0  0  0  0  0  0  0  0  0  0
   15.9905   -6.9106   -9.2843 O   0  0  0  0  0  0  0  0  0  0  0  0
   15.4897   -5.9881   -8.5538 C   0  0  0  0  0  0  0  0  0  0  0  0
   15.9160   -6.6882  -10.7288 C   0  0  2  0  0  0  0  0  0  0  0  0
   16.5366   -7.7527  -11.5718 N   0  0  0  0  0  0  0  0  0  0  0  0
   16.5657   -7.4324  -12.9814 C   0  0  0  0  0  0  0  0  0  0  0  0
   15.8982   -9.0505  -11.2956 O   0  0  0  0  0  0  0  0  0  0  0  0
   16.5231  -10.1385  -11.2021 N   0  0  0  0  0  0  0  0  0  0  0  0
   14.4944   -9.1305  -11.1157 C   0  0  1  0  0  0  0  0  0  0  0  0
   13.8215  -10.4412  -11.0442 C   0  0  0  0  0  0  0  0  0  0  0  0
   12.3520  -10.0913  -11.0471 C   0  0  0  0  0  0  0  0  0  0  0  0
   11.8464   -9.5104   -9.8053 C   0  0  0  0  0  0  0  0  0  0  0  0
   12.5359   -9.4186   -8.5870 N   0  0  0  0  0  0  0  0  0  0  0  0
   11.7682   -8.8345   -7.6560 C   0  0  0  0  0  0  0  0  0  0  0  0
   10.5993   -8.5526   -8.2630 N   0  0  0  0  0  0  0  0  0  0  0  0
   10.6546   -8.9575   -9.5391 C   0  0  0  0  0  0  0  0  0  0  0  0
   14.2217  -11.2771  -12.1804 O   0  0  0  0  0  0  0  0  0  0  0  0
   14.5769  -12.4644  -11.9690 O   0  0  0  0  0  0  0  0  0  0  0  0
  2  1  1  0
  3  2  2  0
  4  2  1  0
  5  4  1  0
  6  5  1  0
  7  6  1  0
  8  7  1  0
  8  9  1  1
 10 11  2  0
 10  8  1  0
 13 12  1  0
 13 15  1  0
 14 13  2  0
 16 15  1  1
 16 18  1  0
 16 17  1  0
 17 10  1  0
 18 20  1  0
 19 18  2  0
 20 21  1  0
 21 28  1  0
 22 23  1  0
 21 22  1  6
 23 27  1  0
 24 23  2  0
 24 25  1  0
 25 26  1  0
 27 26  2  0
 28 29  2  0
 28 30  1  0
M  END
$$$$
