RNH.pdb
     RDKit          3D

 30 30  0  0  1  0  0  0  0  0999 V2000
   43.8484  -16.5530   -8.7238 N   0  0  0  0  0  0  0  0  0  0  0  0
   44.3809  -16.2791   -7.4423 C   0  0  0  0  0  0  0  0  0  0  0  0
   44.0091  -16.9752   -6.4208 N   0  0  0  0  0  0  0  0  0  0  0  0
   45.3281  -15.2253   -7.3215 N   0  0  0  0  0  0  0  0  0  0  0  0
   45.1260  -14.0007   -8.0471 C   0  0  0  0  0  0  0  0  0  0  0  0
   46.1621  -12.9411   -7.7191 C   0  0  0  0  0  0  0  0  0  0  0  0
   45.7788  -11.6823   -8.4481 C   0  0  0  0  0  0  0  0  0  0  0  0
   45.5664  -10.5185   -7.5040 C   0  0  2  0  0  0  0  0  0  0  0  0
   46.0061  -10.8307   -6.1625 N   0  0  0  0  0  0  0  0  0  0  0  0
   44.2019   -9.9561   -7.5628 C   0  0  0  0  0  0  0  0  0  0  0  0
   43.2933  -10.5332   -6.9228 O   0  0  0  0  0  0  0  0  0  0  0  0
   44.3605  -16.7226   -5.4811 N   0  0  0  0  0  0  0  0  0  0  0  0
   43.6803   -5.5237   -6.3360 C   0  0  0  0  0  0  0  0  0  0  0  0
   42.7052   -6.4420   -6.7370 O   0  0  0  0  0  0  0  0  0  0  0  0
   42.0268   -7.0012   -5.8083 C   0  0  0  0  0  0  0  0  0  0  0  0
   42.3644   -6.8431   -8.1025 C   0  0  2  0  0  0  0  0  0  0  0  0
   42.4850   -8.3034   -8.3883 N   0  0  0  0  0  0  0  0  0  0  0  0
   43.8390   -8.8021   -8.2965 C   0  0  0  0  0  0  0  0  0  0  0  0
   41.8479   -8.6189   -9.6778 O   0  0  0  0  0  0  0  0  0  0  0  0
   42.2888   -9.4695  -10.4933 N   0  0  0  0  0  0  0  0  0  0  0  0
   40.6615   -7.9493  -10.0694 C   0  0  1  0  0  0  0  0  0  0  0  0
   40.0383   -8.2313  -11.3763 C   0  0  0  0  0  0  0  0  0  0  0  0
   39.6310   -9.6824  -11.2746 C   0  0  0  0  0  0  0  0  0  0  0  0
   38.7977  -10.1747  -12.3693 C   0  0  0  0  0  0  0  0  0  0  0  0
   38.3612   -9.4382  -13.4807 N   0  0  0  0  0  0  0  0  0  0  0  0
   37.6074  -10.2024  -14.2836 C   0  0  0  0  0  0  0  0  0  0  0  0
   37.5568  -11.4156  -13.7005 N   0  0  0  0  0  0  0  0  0  0  0  0
   38.2664  -11.3899  -12.5641 C   0  0  0  0  0  0  0  0  0  0  0  0
   38.9078   -7.3254  -11.6027 O   0  0  0  0  0  0  0  0  0  0  0  0
   38.3833   -6.7464  -10.6177 O   0  0  0  0  0  0  0  0  0  0  0  0
  2  1  1  0
  3  2  2  0
  4  2  1  0
  5  4  1  0
  6  5  1  0
  7  6  1  0
  8  7  1  0
  8  9  1  1
 10 11  2  0
 10  8  1  0
 13 12  1  0
 13 15  1  0
 14 13  2  0
 16 15  1  1
 16 18  1  0
 16 17  1  0
 17 10  1  0
 18 20  1  0
 19 18  2  0
 20 21  1  0
 21 28  1  0
 22 23  1  0
 21 22  1  6
 23 27  1  0
 24 23  2  0
 24 25  1  0
 25 26  1  0
 27 26  2  0
 28 29  2  0
 28 30  1  0
M  END
$$$$
