RNH.pdb
     RDKit          3D

 30 30  0  0  1  0  0  0  0  0999 V2000
   23.4532  -19.6977  -19.4017 N   0  0  0  0  0  0  0  0  0  0  0  0
   23.5897  -19.6865  -20.8095 C   0  0  0  0  0  0  0  0  0  0  0  0
   22.6108  -20.0641  -21.5613 N   0  0  0  0  0  0  0  0  0  0  0  0
   24.8262  -19.2492  -21.3594 N   0  0  0  0  0  0  0  0  0  0  0  0
   25.9115  -18.9025  -20.4825 C   0  0  0  0  0  0  0  0  0  0  0  0
   26.4080  -20.0792  -19.6623 C   0  0  0  0  0  0  0  0  0  0  0  0
   27.4996  -19.5796  -18.7557 C   0  0  0  0  0  0  0  0  0  0  0  0
   28.1602  -20.7028  -17.9857 C   0  0  2  0  0  0  0  0  0  0  0  0
   28.3786  -21.8654  -18.8171 N   0  0  0  0  0  0  0  0  0  0  0  0
   27.4915  -21.0094  -16.7049 C   0  0  0  0  0  0  0  0  0  0  0  0
   26.8668  -22.0901  -16.6045 O   0  0  0  0  0  0  0  0  0  0  0  0
   22.7302  -20.0584  -22.5889 N   0  0  0  0  0  0  0  0  0  0  0  0
   26.5558  -21.8414  -11.7061 C   0  0  0  0  0  0  0  0  0  0  0  0
   27.3172  -20.6823  -11.8835 O   0  0  0  0  0  0  0  0  0  0  0  0
   27.9078  -20.2193  -10.8480 C   0  0  0  0  0  0  0  0  0  0  0  0
   27.5218  -19.9294  -13.1216 C   0  0  2  0  0  0  0  0  0  0  0  0
   26.8367  -20.4836  -14.3268 N   0  0  0  0  0  0  0  0  0  0  0  0
   27.5025  -20.1647  -15.5700 C   0  0  0  0  0  0  0  0  0  0  0  0
   25.4171  -20.0923  -14.3242 O   0  0  0  0  0  0  0  0  0  0  0  0
   25.0102  -18.9122  -14.4810 N   0  0  0  0  0  0  0  0  0  0  0  0
   24.4085  -21.0706  -14.1373 C   0  0  2  0  0  0  0  0  0  0  0  0
   23.0453  -20.6745  -13.7365 C   0  0  0  0  0  0  0  0  0  0  0  0
   23.2736  -19.6437  -12.6561 C   0  0  0  0  0  0  0  0  0  0  0  0
   23.5295  -20.1837  -11.3226 C   0  0  0  0  0  0  0  0  0  0  0  0
   23.5720  -21.5400  -10.9668 N   0  0  0  0  0  0  0  0  0  0  0  0
   23.8242  -21.6740   -9.6571 C   0  0  0  0  0  0  0  0  0  0  0  0
   23.9431  -20.4229   -9.1725 N   0  0  0  0  0  0  0  0  0  0  0  0
   23.7666  -19.5442  -10.1686 C   0  0  0  0  0  0  0  0  0  0  0  0
   22.3111  -20.1510  -14.8927 O   0  0  0  0  0  0  0  0  0  0  0  0
   21.1450  -19.7115  -14.7267 O   0  0  0  0  0  0  0  0  0  0  0  0
  2  1  1  0
  3  2  2  0
  4  2  1  0
  5  4  1  0
  6  5  1  0
  7  6  1  0
  8  7  1  0
  8  9  1  6
 10 11  2  0
 10  8  1  0
 13 12  1  0
 13 15  1  0
 14 13  2  0
 16 15  1  1
 16 18  1  0
 16 17  1  0
 17 10  1  0
 18 20  1  0
 19 18  2  0
 20 21  1  0
 21 28  1  0
 22 23  1  0
 21 22  1  1
 23 27  1  0
 24 23  2  0
 24 25  1  0
 25 26  1  0
 27 26  2  0
 28 29  2  0
 28 30  1  0
M  END
$$$$
