RNH.pdb
     RDKit          3D

 30 30  0  0  1  0  0  0  0  0999 V2000
   28.5265  -29.9926  -17.1264 N   0  0  0  0  0  0  0  0  0  0  0  0
   29.6962  -29.2627  -17.4425 C   0  0  0  0  0  0  0  0  0  0  0  0
   30.6725  -29.8350  -18.0632 N   0  0  0  0  0  0  0  0  0  0  0  0
   29.7567  -27.8947  -17.0586 N   0  0  0  0  0  0  0  0  0  0  0  0
   28.5736  -27.2403  -16.5696 C   0  0  0  0  0  0  0  0  0  0  0  0
   27.4532  -27.2024  -17.5928 C   0  0  0  0  0  0  0  0  0  0  0  0
   26.2631  -26.5467  -16.9471 C   0  0  0  0  0  0  0  0  0  0  0  0
   26.0386  -25.1404  -17.4600 C   0  0  2  0  0  0  0  0  0  0  0  0
   27.2873  -24.4658  -17.7358 N   0  0  0  0  0  0  0  0  0  0  0  0
   25.1126  -24.3509  -16.6228 C   0  0  0  0  0  0  0  0  0  0  0  0
   23.9832  -24.8302  -16.3718 O   0  0  0  0  0  0  0  0  0  0  0  0
   31.4719  -29.2631  -18.3860 N   0  0  0  0  0  0  0  0  0  0  0  0
   22.7669  -20.8263  -13.3680 C   0  0  0  0  0  0  0  0  0  0  0  0
   24.1486  -20.9693  -13.2092 O   0  0  0  0  0  0  0  0  0  0  0  0
   24.6590  -20.4716  -12.1476 C   0  0  0  0  0  0  0  0  0  0  0  0
   25.0884  -21.6259  -14.1188 C   0  0  2  0  0  0  0  0  0  0  0  0
   24.4698  -22.3050  -15.2956 N   0  0  0  0  0  0  0  0  0  0  0  0
   25.4077  -23.0793  -16.0773 C   0  0  0  0  0  0  0  0  0  0  0  0
   23.7226  -21.3283  -16.1058 O   0  0  0  0  0  0  0  0  0  0  0  0
   24.2623  -20.4522  -16.8296 N   0  0  0  0  0  0  0  0  0  0  0  0
   22.3052  -21.3361  -16.1034 C   0  0  1  0  0  0  0  0  0  0  0  0
   21.5491  -20.3593  -16.9098 C   0  0  0  0  0  0  0  0  0  0  0  0
   20.2594  -21.0782  -17.2288 C   0  0  0  0  0  0  0  0  0  0  0  0
   20.3087  -21.9616  -18.3917 C   0  0  0  0  0  0  0  0  0  0  0  0
   21.3810  -22.1045  -19.2848 N   0  0  0  0  0  0  0  0  0  0  0  0
   21.0809  -22.9962  -20.2398 C   0  0  0  0  0  0  0  0  0  0  0  0
   19.8329  -23.4240  -19.9686 N   0  0  0  0  0  0  0  0  0  0  0  0
   19.3820  -22.8043  -18.8694 C   0  0  0  0  0  0  0  0  0  0  0  0
   21.3511  -19.1217  -16.1489 O   0  0  0  0  0  0  0  0  0  0  0  0
   21.4978  -19.1431  -14.9004 O   0  0  0  0  0  0  0  0  0  0  0  0
  2  1  1  0
  3  2  2  0
  4  2  1  0
  5  4  1  0
  6  5  1  0
  7  6  1  0
  8  7  1  0
  8  9  1  1
 10 11  2  0
 10  8  1  0
 13 12  1  0
 13 15  1  0
 14 13  2  0
 16 15  1  1
 16 18  1  0
 16 17  1  0
 17 10  1  0
 18 20  1  0
 19 18  2  0
 20 21  1  0
 21 28  1  0
 22 23  1  0
 21 22  1  6
 23 27  1  0
 24 23  2  0
 24 25  1  0
 25 26  1  0
 27 26  2  0
 28 29  2  0
 28 30  1  0
M  END
$$$$
