PLT.pdb
     RDKit          3D

 23 23  0  0  1  0  0  0  0  0999 V2000
   12.9340  -17.6036    2.9782 N   0  0  0  0  0  0  0  0  0  0  0  0
   12.3444  -17.4400    1.6663 C   0  0  0  0  0  0  0  0  0  0  0  0
   12.0028  -18.8461    1.2076 C   0  0  0  0  0  0  0  0  0  0  0  0
   13.1982  -19.6239    1.7534 C   0  0  0  0  0  0  0  0  0  0  0  0
   13.4319  -18.9410    3.0729 C   0  0  1  0  0  0  0  0  0  0  0  0
   14.8600  -18.9084    3.4442 C   0  0  0  0  0  0  0  0  0  0  0  0
   15.4866  -19.9781    3.6513 O   0  0  0  0  0  0  0  0  0  0  0  0
   17.7032  -14.5599    3.8372 C   0  0  0  0  0  0  0  0  0  0  0  0
   17.4135  -15.4747    2.6778 C   0  0  1  0  0  0  0  0  0  0  0  0
   18.2494  -14.9310    1.5078 C   0  0  0  0  0  0  0  0  0  0  0  0
   17.7631  -16.9020    2.8771 C   0  0  0  0  0  0  0  0  0  0  0  0
   17.0106  -17.6423    3.9314 C   0  0  2  0  0  0  0  0  0  0  0  0
   15.5963  -17.7094    3.5875 N   0  0  0  0  0  0  0  0  0  0  0  0
   17.2257  -17.2314    5.3134 C   0  0  0  0  0  0  0  0  0  0  0  0
   16.7095  -16.1389    5.7472 O   0  0  0  0  0  0  0  0  0  0  0  0
   15.7527  -18.2941    8.3772 C   0  0  0  0  0  0  0  0  0  0  0  0
   17.2229  -18.4899    8.5135 C   0  0  1  0  0  0  0  0  0  0  0  0
   17.6514  -19.7785    8.2233 O   0  0  0  0  0  0  0  0  0  0  0  0
   18.0327  -17.5006    7.6795 C   0  0  2  0  0  0  0  0  0  0  0  0
   17.9794  -17.9450    6.2866 N   0  0  0  0  0  0  0  0  0  0  0  0
   19.3890  -17.5127    8.2495 C   0  0  0  0  0  0  0  0  0  0  0  0
   19.6479  -16.8740    9.4493 O   0  0  0  0  0  0  0  0  0  0  0  0
   20.3304  -18.0917    7.6738 O   0  0  0  0  0  0  0  0  0  0  0  0
  2  3  1  0
  2  1  1  0
  3  4  1  0
  4  5  1  0
  5  1  1  0
  5  6  1  6
  6 13  1  0
  6  7  2  0
  9  8  1  1
  9 10  1  0
 12 11  1  6
 11  9  1  0
 12 14  1  0
 13 12  1  0
 14 15  2  0
 17 16  1  6
 17 18  1  0
 17 19  1  0
 19 20  1  6
 20 14  1  0
 21 19  1  0
 21 22  1  0
 23 21  2  0
M  END
$$$$
