PLT.pdb
     RDKit          3D

 23 23  0  0  1  0  0  0  0  0999 V2000
   28.4210  -21.4447  -15.9307 N   0  0  0  0  0  0  0  0  0  0  0  0
   28.4136  -21.0148  -17.3130 C   0  0  0  0  0  0  0  0  0  0  0  0
   28.5251  -19.5019  -17.2578 C   0  0  0  0  0  0  0  0  0  0  0  0
   27.6595  -19.1952  -16.0378 C   0  0  0  0  0  0  0  0  0  0  0  0
   27.9992  -20.3411  -15.1249 C   0  0  1  0  0  0  0  0  0  0  0  0
   26.8545  -20.7525  -14.2889 C   0  0  0  0  0  0  0  0  0  0  0  0
   26.1372  -21.7268  -14.6297 O   0  0  0  0  0  0  0  0  0  0  0  0
   26.5834  -19.9030   -8.6540 C   0  0  0  0  0  0  0  0  0  0  0  0
   26.3080  -20.5902   -9.9643 C   0  0  1  0  0  0  0  0  0  0  0  0
   25.5918  -21.9001   -9.5977 C   0  0  0  0  0  0  0  0  0  0  0  0
   25.4540  -19.8434  -10.9194 C   0  0  0  0  0  0  0  0  0  0  0  0
   25.3175  -20.4112  -12.2922 C   0  0  2  0  0  0  0  0  0  0  0  0
   26.4988  -20.0990  -13.0861 N   0  0  0  0  0  0  0  0  0  0  0  0
   24.0790  -20.1292  -13.0076 C   0  0  0  0  0  0  0  0  0  0  0  0
   23.7809  -18.9218  -13.3260 O   0  0  0  0  0  0  0  0  0  0  0  0
   21.8717  -23.0005  -15.2215 C   0  0  0  0  0  0  0  0  0  0  0  0
   21.9425  -21.5353  -15.4800 C   0  0  1  0  0  0  0  0  0  0  0  0
   20.9462  -21.0608  -16.3232 O   0  0  0  0  0  0  0  0  0  0  0  0
   21.9410  -20.7063  -14.1984 C   0  0  2  0  0  0  0  0  0  0  0  0
   23.1160  -21.0931  -13.4171 N   0  0  0  0  0  0  0  0  0  0  0  0
   20.6651  -21.0056  -13.5296 C   0  0  0  0  0  0  0  0  0  0  0  0
   20.6534  -21.6354  -12.2977 O   0  0  0  0  0  0  0  0  0  0  0  0
   19.5732  -20.7034  -14.0485 O   0  0  0  0  0  0  0  0  0  0  0  0
  2  3  1  0
  2  1  1  0
  3  4  1  0
  4  5  1  0
  5  1  1  0
  5  6  1  6
  6 13  1  0
  6  7  2  0
  9  8  1  1
  9 10  1  0
 12 11  1  1
 11  9  1  0
 12 14  1  0
 13 12  1  0
 14 15  2  0
 17 16  1  1
 17 18  1  0
 17 19  1  0
 19 20  1  1
 20 14  1  0
 21 19  1  0
 21 22  1  0
 23 21  2  0
M  END
$$$$
