PLT.pdb
     RDKit          3D

 23 23  0  0  1  0  0  0  0  0999 V2000
   20.8366  -10.8703  -18.3635 N   0  0  0  0  0  0  0  0  0  0  0  0
   20.6294  -12.2728  -18.6559 C   0  0  0  0  0  0  0  0  0  0  0  0
   19.1616  -12.3877  -19.0255 C   0  0  0  0  0  0  0  0  0  0  0  0
   18.5405  -11.3969  -18.0434 C   0  0  0  0  0  0  0  0  0  0  0  0
   19.5701  -10.3008  -18.0212 C   0  0  1  0  0  0  0  0  0  0  0  0
   19.6663   -9.6462  -16.7019 C   0  0  0  0  0  0  0  0  0  0  0  0
   18.6578   -9.0972  -16.1906 O   0  0  0  0  0  0  0  0  0  0  0  0
   20.7581   -8.9598  -11.4781 C   0  0  0  0  0  0  0  0  0  0  0  0
   21.9684   -9.1451  -12.3531 C   0  0  1  0  0  0  0  0  0  0  0  0
   22.8970  -10.0903  -11.5736 C   0  0  0  0  0  0  0  0  0  0  0  0
   21.7161   -9.7367  -13.6894 C   0  0  0  0  0  0  0  0  0  0  0  0
   21.0158   -8.8780  -14.6884 C   0  0  2  0  0  0  0  0  0  0  0  0
   20.8618   -9.5941  -15.9480 N   0  0  0  0  0  0  0  0  0  0  0  0
   21.5288   -7.5268  -14.8786 C   0  0  0  0  0  0  0  0  0  0  0  0
   22.6483   -7.3426  -15.4792 O   0  0  0  0  0  0  0  0  0  0  0  0
   19.7862   -4.3398  -16.4283 C   0  0  0  0  0  0  0  0  0  0  0  0
   20.3671   -4.0569  -15.0862 C   0  0  1  0  0  0  0  0  0  0  0  0
   19.4336   -4.0371  -14.0583 O   0  0  0  0  0  0  0  0  0  0  0  0
   21.4925   -5.0181  -14.7127 C   0  0  2  0  0  0  0  0  0  0  0  0
   20.8921   -6.3271  -14.4545 N   0  0  0  0  0  0  0  0  0  0  0  0
   22.1479   -4.4287  -13.5347 C   0  0  0  0  0  0  0  0  0  0  0  0
   22.8397   -3.2355  -13.6446 O   0  0  0  0  0  0  0  0  0  0  0  0
   22.0983   -4.9818  -12.4191 O   0  0  0  0  0  0  0  0  0  0  0  0
  2  3  1  0
  2  1  1  0
  3  4  1  0
  4  5  1  0
  5  1  1  0
  5  6  1  1
  6 13  1  0
  6  7  2  0
  9  8  1  1
  9 10  1  0
 12 11  1  1
 11  9  1  0
 12 14  1  0
 13 12  1  0
 14 15  2  0
 17 16  1  6
 17 18  1  0
 17 19  1  0
 19 20  1  1
 20 14  1  0
 21 19  1  0
 21 22  1  0
 23 21  2  0
M  END
$$$$
