PLT.pdb
     RDKit          3D

 23 23  0  0  1  0  0  0  0  0999 V2000
   28.0678  -19.7136  -16.1057 N   0  0  0  0  0  0  0  0  0  0  0  0
   27.9740  -18.7707  -17.2001 C   0  0  0  0  0  0  0  0  0  0  0  0
   27.9201  -17.4040  -16.5418 C   0  0  0  0  0  0  0  0  0  0  0  0
   27.0611  -17.7096  -15.3169 C   0  0  0  0  0  0  0  0  0  0  0  0
   27.5503  -19.0790  -14.9331 C   0  0  1  0  0  0  0  0  0  0  0  0
   26.4820  -19.9157  -14.3527 C   0  0  0  0  0  0  0  0  0  0  0  0
   26.0709  -20.9344  -14.9635 O   0  0  0  0  0  0  0  0  0  0  0  0
   26.1018  -20.3361   -8.8866 C   0  0  0  0  0  0  0  0  0  0  0  0
   26.0842  -20.5514  -10.3760 C   0  0  1  0  0  0  0  0  0  0  0  0
   26.4598  -22.0279  -10.5813 C   0  0  0  0  0  0  0  0  0  0  0  0
   24.7872  -20.3021  -11.0503 C   0  0  0  0  0  0  0  0  0  0  0  0
   24.7679  -20.4025  -12.5387 C   0  0  2  0  0  0  0  0  0  0  0  0
   25.8682  -19.6365  -13.1095 N   0  0  0  0  0  0  0  0  0  0  0  0
   23.5003  -20.1327  -13.2063 C   0  0  0  0  0  0  0  0  0  0  0  0
   23.1014  -18.9227  -13.3641 O   0  0  0  0  0  0  0  0  0  0  0  0
   22.4071  -20.5828  -16.6622 C   0  0  0  0  0  0  0  0  0  0  0  0
   21.3920  -21.2637  -15.8111 C   0  0  1  0  0  0  0  0  0  0  0  0
   21.5246  -22.6454  -15.7681 O   0  0  0  0  0  0  0  0  0  0  0  0
   21.3589  -20.7261  -14.3828 C   0  0  2  0  0  0  0  0  0  0  0  0
   22.6121  -21.1112  -13.7335 N   0  0  0  0  0  0  0  0  0  0  0  0
   20.1661  -21.3202  -13.7591 C   0  0  0  0  0  0  0  0  0  0  0  0
   18.9013  -20.9702  -14.1973 O   0  0  0  0  0  0  0  0  0  0  0  0
   20.2617  -22.1452  -12.8300 O   0  0  0  0  0  0  0  0  0  0  0  0
  2  3  1  0
  2  1  1  0
  3  4  1  0
  4  5  1  0
  5  1  1  0
  5  6  1  6
  6 13  1  0
  6  7  2  0
  9  8  1  1
  9 10  1  0
 12 11  1  1
 11  9  1  0
 12 14  1  0
 13 12  1  0
 14 15  2  0
 17 16  1  6
 17 18  1  0
 17 19  1  0
 19 20  1  1
 20 14  1  0
 21 19  1  0
 21 22  1  0
 23 21  2  0
M  END
$$$$
