PLT.pdb
     RDKit          3D

 23 23  0  0  1  0  0  0  0  0999 V2000
   17.8320  -10.8468  -17.8620 N   0  0  0  0  0  0  0  0  0  0  0  0
   16.5796  -10.3030  -18.3430 C   0  0  0  0  0  0  0  0  0  0  0  0
   16.9632   -9.3648  -19.4729 C   0  0  0  0  0  0  0  0  0  0  0  0
   18.2494   -8.7577  -18.9171 C   0  0  0  0  0  0  0  0  0  0  0  0
   18.8752   -9.9406  -18.2307 C   0  0  1  0  0  0  0  0  0  0  0  0
   19.6381   -9.5541  -17.0278 C   0  0  0  0  0  0  0  0  0  0  0  0
   19.0748   -9.5128  -15.9049 O   0  0  0  0  0  0  0  0  0  0  0  0
   24.1432  -11.8818  -15.3901 C   0  0  0  0  0  0  0  0  0  0  0  0
   22.8710  -11.0858  -15.5035 C   0  0  1  0  0  0  0  0  0  0  0  0
   22.1804  -11.2197  -14.1367 C   0  0  0  0  0  0  0  0  0  0  0  0
   23.0354   -9.6429  -15.8036 C   0  0  0  0  0  0  0  0  0  0  0  0
   21.7916   -8.8236  -15.8902 C   0  0  2  0  0  0  0  0  0  0  0  0
   21.0108   -9.2151  -17.0565 N   0  0  0  0  0  0  0  0  0  0  0  0
   21.9400   -7.3773  -15.7831 C   0  0  0  0  0  0  0  0  0  0  0  0
   22.5438   -6.7226  -16.7077 O   0  0  0  0  0  0  0  0  0  0  0  0
   19.6911   -4.6066  -16.1628 C   0  0  0  0  0  0  0  0  0  0  0  0
   20.3064   -4.4508  -14.8153 C   0  0  1  0  0  0  0  0  0  0  0  0
   19.5046   -4.8952  -13.7723 O   0  0  0  0  0  0  0  0  0  0  0  0
   21.6738   -5.1205  -14.7069 C   0  0  2  0  0  0  0  0  0  0  0  0
   21.4619   -6.5681  -14.7149 N   0  0  0  0  0  0  0  0  0  0  0  0
   22.2670   -4.6195  -13.4572 C   0  0  0  0  0  0  0  0  0  0  0  0
   22.7406   -3.3217  -13.3803 O   0  0  0  0  0  0  0  0  0  0  0  0
   22.3578   -5.3420  -12.4460 O   0  0  0  0  0  0  0  0  0  0  0  0
  2  3  1  0
  2  1  1  0
  3  4  1  0
  4  5  1  0
  5  1  1  0
  5  6  1  1
  6 13  1  0
  6  7  2  0
  9  8  1  1
  9 10  1  0
 12 11  1  6
 11  9  1  0
 12 14  1  0
 13 12  1  0
 14 15  2  0
 17 16  1  6
 17 18  1  0
 17 19  1  0
 19 20  1  1
 20 14  1  0
 21 19  1  0
 21 22  1  0
 23 21  2  0
M  END
$$$$
