PLT.pdb
     RDKit          3D

 23 23  0  0  1  0  0  0  0  0999 V2000
   27.6001  -19.8993  -15.5995 N   0  0  0  0  0  0  0  0  0  0  0  0
   29.0288  -20.0325  -15.4080 C   0  0  0  0  0  0  0  0  0  0  0  0
   29.3889  -21.3694  -16.0303 C   0  0  0  0  0  0  0  0  0  0  0  0
   28.1743  -22.2060  -15.6348 C   0  0  0  0  0  0  0  0  0  0  0  0
   27.0563  -21.2101  -15.7772 C   0  0  1  0  0  0  0  0  0  0  0  0
   25.9773  -21.4315  -14.7948 C   0  0  0  0  0  0  0  0  0  0  0  0
   25.2831  -22.4784  -14.8394 O   0  0  0  0  0  0  0  0  0  0  0  0
   26.4069  -20.1153   -9.4014 C   0  0  0  0  0  0  0  0  0  0  0  0
   25.9542  -20.8124  -10.6559 C   0  0  1  0  0  0  0  0  0  0  0  0
   25.2946  -22.1184  -10.1840 C   0  0  0  0  0  0  0  0  0  0  0  0
   24.9776  -20.0720  -11.4909 C   0  0  0  0  0  0  0  0  0  0  0  0
   24.5948  -20.6903  -12.7935 C   0  0  2  0  0  0  0  0  0  0  0  0
   25.6617  -20.5099  -13.7695 N   0  0  0  0  0  0  0  0  0  0  0  0
   23.2857  -20.3444  -13.3338 C   0  0  0  0  0  0  0  0  0  0  0  0
   22.9217  -19.1152  -13.4000 O   0  0  0  0  0  0  0  0  0  0  0  0
   20.8637  -22.9886  -15.6021 C   0  0  0  0  0  0  0  0  0  0  0  0
   20.8353  -21.5037  -15.7152 C   0  0  1  0  0  0  0  0  0  0  0  0
   19.6842  -21.0035  -16.3097 O   0  0  0  0  0  0  0  0  0  0  0  0
   21.0435  -20.8029  -14.3752 C   0  0  2  0  0  0  0  0  0  0  0  0
   22.3182  -21.2647  -13.8252 N   0  0  0  0  0  0  0  0  0  0  0  0
   19.8807  -21.1645  -13.5494 C   0  0  0  0  0  0  0  0  0  0  0  0
   18.6186  -20.7052  -13.8816 O   0  0  0  0  0  0  0  0  0  0  0  0
   19.9999  -21.8858  -12.5403 O   0  0  0  0  0  0  0  0  0  0  0  0
  2  3  1  0
  2  1  1  0
  3  4  1  0
  4  5  1  0
  5  1  1  0
  5  6  1  1
  6 13  1  0
  6  7  2  0
  9  8  1  1
  9 10  1  0
 12 11  1  1
 11  9  1  0
 12 14  1  0
 13 12  1  0
 14 15  2  0
 17 16  1  1
 17 18  1  0
 17 19  1  0
 19 20  1  1
 20 14  1  0
 21 19  1  0
 21 22  1  0
 23 21  2  0
M  END
$$$$
