EWR.pdb
     RDKit          3D

 35 36  0  0  1  0  0  0  0  0999 V2000
   25.6749  -16.2938  -18.0344 N   0  0  0  0  0  0  0  0  0  0  0  0
   26.2013  -17.5077  -18.6884 C   0  0  1  0  0  0  0  0  0  0  0  0
   27.3418  -17.1406  -19.5714 C   0  0  0  0  0  0  0  0  0  0  0  0
   28.3598  -16.2545  -18.9105 C   0  0  0  0  0  0  0  0  0  0  0  0
   29.7329  -16.8300  -19.1146 C   0  0  0  0  0  0  0  0  0  0  0  0
   30.0641  -17.1594  -20.2629 O   0  0  0  0  0  0  0  0  0  0  0  0
   26.5216  -18.4435  -17.6056 C   0  0  0  0  0  0  0  0  0  0  0  0
   27.0750  -19.5747  -17.8542 O   0  0  0  0  0  0  0  0  0  0  0  0
   30.5934  -16.9841  -18.0518 O   0  0  0  0  0  0  0  0  0  0  0  0
   26.2306  -18.1140  -16.2561 N   0  0  0  0  0  0  0  0  0  0  0  0
   26.2272  -19.1873  -15.2880 C   0  0  1  0  0  0  0  0  0  0  0  0
   26.8512  -18.6462  -14.0082 C   0  0  0  0  0  0  0  0  0  0  0  0
   27.0347  -19.7396  -13.0302 C   0  0  0  0  0  0  0  0  0  0  0  0
   27.8034  -20.8703  -13.1850 C   0  0  0  0  0  0  0  0  0  0  0  0
   27.7196  -21.6313  -12.0726 N   0  0  0  0  0  0  0  0  0  0  0  0
   26.9067  -21.0132  -11.1939 C   0  0  0  0  0  0  0  0  0  0  0  0
   26.5012  -21.3641   -9.9402 C   0  0  0  0  0  0  0  0  0  0  0  0
   25.6473  -20.5306   -9.2471 C   0  0  0  0  0  0  0  0  0  0  0  0
   25.2043  -19.3555   -9.8068 C   0  0  0  0  0  0  0  0  0  0  0  0
   25.6234  -19.0164  -11.0729 C   0  0  0  0  0  0  0  0  0  0  0  0
   26.4666  -19.8217  -11.7792 C   0  0  0  0  0  0  0  0  0  0  0  0
   24.8624  -19.6797  -15.0585 C   0  0  0  0  0  0  0  0  0  0  0  0
   23.9282  -18.8246  -14.9369 O   0  0  0  0  0  0  0  0  0  0  0  0
   18.3914  -20.9506  -11.8975 N   0  0  0  0  0  0  0  0  0  0  0  0
   18.9799  -21.8859  -11.0021 C   0  0  0  0  0  0  0  0  0  0  0  0
   18.2473  -22.8002  -10.4225 N   0  0  0  0  0  0  0  0  0  0  0  0
   20.3628  -21.8760  -10.6970 N   0  0  0  0  0  0  0  0  0  0  0  0
   21.2780  -20.9287  -11.2718 C   0  0  0  0  0  0  0  0  0  0  0  0
   21.5565  -21.3962  -12.7042 C   0  0  0  0  0  0  0  0  0  0  0  0
   22.9487  -21.1066  -13.1174 C   0  0  0  0  0  0  0  0  0  0  0  0
   23.1623  -21.4261  -14.5723 C   0  0  2  0  0  0  0  0  0  0  0  0
   24.5264  -21.0457  -14.9645 N   0  0  0  0  0  0  0  0  0  0  0  0
   22.2123  -20.6217  -15.3853 C   0  0  0  0  0  0  0  0  0  0  0  0
   20.8934  -20.9322  -15.5051 O   0  0  0  0  0  0  0  0  0  0  0  0
   22.6257  -19.5941  -16.0103 O   0  0  0  0  0  0  0  0  0  0  0  0
  2  1  1  1
  3  4  1  0
  3  2  1  0
  4  5  1  0
  5  9  1  0
  5  6  2  0
  7  8  2  0
  7  2  1  0
 10  7  1  0
 11 10  1  0
 11 12  1  1
 13 21  1  0
 13 12  1  0
 14 13  2  0
 15 14  1  0
 15 16  1  0
 16 17  1  0
 16 21  2  0
 17 18  2  0
 18 19  1  0
 20 19  2  0
 21 20  1  0
 22 11  1  0
 23 22  2  0
 24 25  1  0
 25 27  1  0
 26 25  2  0
 27 28  1  0
 29 28  1  0
 29 30  1  0
 31 30  1  1
 31 32  1  0
 31 33  1  0
 32 22  1  0
 33 34  1  0
 35 33  2  0
M  END
$$$$
