EWR.pdb
     RDKit          3D

 35 36  0  0  1  0  0  0  0  0999 V2000
   26.6709  -21.2392  -16.5671 N   0  0  0  0  0  0  0  0  0  0  0  0
   26.6342  -22.6081  -16.0166 C   0  0  1  0  0  0  0  0  0  0  0  0
   27.9695  -23.2449  -16.1809 C   0  0  0  0  0  0  0  0  0  0  0  0
   28.8665  -22.5308  -17.1524 C   0  0  0  0  0  0  0  0  0  0  0  0
   29.2891  -23.4819  -18.2365 C   0  0  0  0  0  0  0  0  0  0  0  0
   28.9526  -23.2267  -19.4021 O   0  0  0  0  0  0  0  0  0  0  0  0
   26.1685  -22.4746  -14.6324 C   0  0  0  0  0  0  0  0  0  0  0  0
   26.1310  -23.4905  -13.8487 O   0  0  0  0  0  0  0  0  0  0  0  0
   30.0286  -24.6029  -17.9363 O   0  0  0  0  0  0  0  0  0  0  0  0
   25.7539  -21.2145  -14.1279 N   0  0  0  0  0  0  0  0  0  0  0  0
   25.3406  -21.1474  -12.7444 C   0  0  1  0  0  0  0  0  0  0  0  0
   25.9620  -19.8923  -12.1454 C   0  0  0  0  0  0  0  0  0  0  0  0
   27.1106  -20.2534  -11.2875 C   0  0  0  0  0  0  0  0  0  0  0  0
   28.3720  -20.6165  -11.7004 C   0  0  0  0  0  0  0  0  0  0  0  0
   29.1462  -20.8698  -10.6232 N   0  0  0  0  0  0  0  0  0  0  0  0
   28.4075  -20.6773   -9.5131 C   0  0  0  0  0  0  0  0  0  0  0  0
   28.7185  -20.8000   -8.1911 C   0  0  0  0  0  0  0  0  0  0  0  0
   27.7522  -20.5373   -7.2416 C   0  0  0  0  0  0  0  0  0  0  0  0
   26.4855  -20.1547   -7.6151 C   0  0  0  0  0  0  0  0  0  0  0  0
   26.1886  -20.0356   -8.9534 C   0  0  0  0  0  0  0  0  0  0  0  0
   27.1245  -20.2892   -9.9117 C   0  0  0  0  0  0  0  0  0  0  0  0
   23.8757  -21.1302  -12.6370 C   0  0  0  0  0  0  0  0  0  0  0  0
   23.2076  -20.6621  -13.6133 O   0  0  0  0  0  0  0  0  0  0  0  0
   16.4280  -23.5440  -10.5290 N   0  0  0  0  0  0  0  0  0  0  0  0
   17.3629  -24.6053  -10.6786 C   0  0  0  0  0  0  0  0  0  0  0  0
   17.0502  -25.6722  -11.3660 N   0  0  0  0  0  0  0  0  0  0  0  0
   18.6557  -24.5633  -10.1021 N   0  0  0  0  0  0  0  0  0  0  0  0
   19.1366  -23.4333   -9.3556 C   0  0  0  0  0  0  0  0  0  0  0  0
   19.6914  -22.4334  -10.3754 C   0  0  0  0  0  0  0  0  0  0  0  0
   21.1717  -22.4501  -10.4143 C   0  0  0  0  0  0  0  0  0  0  0  0
   21.6963  -21.5965  -11.5371 C   0  0  2  0  0  0  0  0  0  0  0  0
   23.1655  -21.6021  -11.5142 N   0  0  0  0  0  0  0  0  0  0  0  0
   21.2417  -20.1963  -11.3288 C   0  0  0  0  0  0  0  0  0  0  0  0
   20.2335  -19.6310  -12.0457 O   0  0  0  0  0  0  0  0  0  0  0  0
   21.8062  -19.4710  -10.4496 O   0  0  0  0  0  0  0  0  0  0  0  0
  2  1  1  1
  3  4  1  0
  3  2  1  0
  4  5  1  0
  5  9  1  0
  5  6  2  0
  7  8  2  0
  7  2  1  0
 10  7  1  0
 11 10  1  0
 11 12  1  6
 13 21  1  0
 13 12  1  0
 14 13  2  0
 15 14  1  0
 15 16  1  0
 16 17  1  0
 16 21  2  0
 17 18  2  0
 18 19  1  0
 20 19  2  0
 21 20  1  0
 22 11  1  0
 23 22  2  0
 24 25  1  0
 25 27  1  0
 26 25  2  0
 27 28  1  0
 29 28  1  0
 29 30  1  0
 31 30  1  1
 31 32  1  0
 31 33  1  0
 32 22  1  0
 33 34  1  0
 35 33  2  0
M  END
$$$$
