EWR.pdb
     RDKit          3D

 35 36  0  0  1  0  0  0  0  0999 V2000
   27.0481  -22.5160  -14.8762 N   0  0  0  0  0  0  0  0  0  0  0  0
   27.4209  -21.3002  -14.1272 C   0  0  1  0  0  0  0  0  0  0  0  0
   26.9569  -20.0974  -14.8711 C   0  0  0  0  0  0  0  0  0  0  0  0
   28.0426  -19.4097  -15.6500 C   0  0  0  0  0  0  0  0  0  0  0  0
   27.4639  -18.2338  -16.3853 C   0  0  0  0  0  0  0  0  0  0  0  0
   26.2418  -18.0401  -16.3087 O   0  0  0  0  0  0  0  0  0  0  0  0
   26.8560  -21.4640  -12.7838 C   0  0  0  0  0  0  0  0  0  0  0  0
   25.7086  -22.0138  -12.6138 O   0  0  0  0  0  0  0  0  0  0  0  0
   28.2739  -17.3997  -17.1214 O   0  0  0  0  0  0  0  0  0  0  0  0
   27.5711  -21.0219  -11.6403 N   0  0  0  0  0  0  0  0  0  0  0  0
   26.9350  -21.1706  -10.3509 C   0  0  1  0  0  0  0  0  0  0  0  0
   27.9894  -20.8859   -9.2891 C   0  0  0  0  0  0  0  0  0  0  0  0
   27.3515  -20.7519   -7.9622 C   0  0  0  0  0  0  0  0  0  0  0  0
   26.0835  -21.1519   -7.6075 C   0  0  0  0  0  0  0  0  0  0  0  0
   25.8639  -20.8620   -6.3069 N   0  0  0  0  0  0  0  0  0  0  0  0
   26.9708  -20.2782   -5.8079 C   0  0  0  0  0  0  0  0  0  0  0  0
   27.2556  -19.8035   -4.5617 C   0  0  0  0  0  0  0  0  0  0  0  0
   28.4922  -19.2416   -4.3180 C   0  0  0  0  0  0  0  0  0  0  0  0
   29.4346  -19.1569   -5.3156 C   0  0  0  0  0  0  0  0  0  0  0  0
   29.1308  -19.6410   -6.5673 C   0  0  0  0  0  0  0  0  0  0  0  0
   27.9169  -20.2008   -6.8348 C   0  0  0  0  0  0  0  0  0  0  0  0
   25.7850  -20.2651  -10.2280 C   0  0  0  0  0  0  0  0  0  0  0  0
   25.9281  -19.0583  -10.6048 O   0  0  0  0  0  0  0  0  0  0  0  0
   21.3358  -21.0405  -16.8219 N   0  0  0  0  0  0  0  0  0  0  0  0
   20.3913  -20.6199  -15.8453 C   0  0  0  0  0  0  0  0  0  0  0  0
   19.1411  -20.4246  -16.1731 N   0  0  0  0  0  0  0  0  0  0  0  0
   20.7483  -20.3947  -14.4935 N   0  0  0  0  0  0  0  0  0  0  0  0
   22.0328  -20.7550  -13.9593 C   0  0  0  0  0  0  0  0  0  0  0  0
   22.0702  -20.2440  -12.5153 C   0  0  0  0  0  0  0  0  0  0  0  0
   23.2625  -20.7357  -11.7875 C   0  0  0  0  0  0  0  0  0  0  0  0
   23.3056  -20.1936  -10.3843 C   0  0  2  0  0  0  0  0  0  0  0  0
   24.5304  -20.6547   -9.7162 N   0  0  0  0  0  0  0  0  0  0  0  0
   22.1433  -20.7283   -9.6269 C   0  0  0  0  0  0  0  0  0  0  0  0
   22.1347  -21.9647   -9.0600 O   0  0  0  0  0  0  0  0  0  0  0  0
   21.0957  -20.0202   -9.4908 O   0  0  0  0  0  0  0  0  0  0  0  0
  2  1  1  6
  3  4  1  0
  3  2  1  0
  4  5  1  0
  5  9  1  0
  5  6  2  0
  7  8  2  0
  7  2  1  0
 10  7  1  0
 11 10  1  0
 11 12  1  1
 13 21  1  0
 13 12  1  0
 14 13  2  0
 15 14  1  0
 15 16  1  0
 16 17  1  0
 16 21  2  0
 17 18  2  0
 18 19  1  0
 20 19  2  0
 21 20  1  0
 22 11  1  0
 23 22  2  0
 24 25  1  0
 25 27  1  0
 26 25  2  0
 27 28  1  0
 29 28  1  0
 29 30  1  0
 31 30  1  6
 31 32  1  0
 31 33  1  0
 32 22  1  0
 33 34  1  0
 35 33  2  0
M  END
$$$$
