EWR.pdb
     RDKit          3D

 35 36  0  0  1  0  0  0  0  0999 V2000
   28.6575  -22.8641  -15.8120 N   0  0  0  0  0  0  0  0  0  0  0  0
   28.5664  -21.5137  -15.2234 C   0  0  1  0  0  0  0  0  0  0  0  0
   28.0192  -20.5679  -16.2340 C   0  0  0  0  0  0  0  0  0  0  0  0
   27.7232  -19.2000  -15.6867 C   0  0  0  0  0  0  0  0  0  0  0  0
   27.3112  -18.2895  -16.8091 C   0  0  0  0  0  0  0  0  0  0  0  0
   26.8085  -17.1941  -16.5189 O   0  0  0  0  0  0  0  0  0  0  0  0
   27.7677  -21.6585  -14.0019 C   0  0  0  0  0  0  0  0  0  0  0  0
   26.6846  -22.3473  -14.0004 O   0  0  0  0  0  0  0  0  0  0  0  0
   27.4899  -18.6679  -18.1201 O   0  0  0  0  0  0  0  0  0  0  0  0
   28.1804  -21.0428  -12.7916 N   0  0  0  0  0  0  0  0  0  0  0  0
   27.3803  -21.2781  -11.6110 C   0  0  1  0  0  0  0  0  0  0  0  0
   28.2653  -21.0070  -10.4013 C   0  0  0  0  0  0  0  0  0  0  0  0
   27.4371  -20.8827   -9.1830 C   0  0  0  0  0  0  0  0  0  0  0  0
   26.0761  -21.0596   -9.0840 C   0  0  0  0  0  0  0  0  0  0  0  0
   25.6852  -20.8626   -7.8064 N   0  0  0  0  0  0  0  0  0  0  0  0
   26.7720  -20.5595   -7.0704 C   0  0  0  0  0  0  0  0  0  0  0  0
   26.9118  -20.2756   -5.7440 C   0  0  0  0  0  0  0  0  0  0  0  0
   28.1655  -19.9940   -5.2407 C   0  0  0  0  0  0  0  0  0  0  0  0
   29.2690  -19.9973   -6.0609 C   0  0  0  0  0  0  0  0  0  0  0  0
   29.1102  -20.2859   -7.3969 C   0  0  0  0  0  0  0  0  0  0  0  0
   27.8831  -20.5676   -7.9196 C   0  0  0  0  0  0  0  0  0  0  0  0
   26.1859  -20.4230  -11.6103 C   0  0  0  0  0  0  0  0  0  0  0  0
   26.3462  -19.1677  -11.7421 O   0  0  0  0  0  0  0  0  0  0  0  0
   20.8962  -17.0590  -16.1737 N   0  0  0  0  0  0  0  0  0  0  0  0
   21.5664  -18.3104  -16.2620 C   0  0  0  0  0  0  0  0  0  0  0  0
   21.1904  -19.2032  -17.1396 N   0  0  0  0  0  0  0  0  0  0  0  0
   22.6541  -18.6485  -15.4207 N   0  0  0  0  0  0  0  0  0  0  0  0
   23.2429  -19.9594  -15.4018 C   0  0  0  0  0  0  0  0  0  0  0  0
   23.1782  -20.4521  -13.9524 C   0  0  0  0  0  0  0  0  0  0  0  0
   23.6917  -19.4386  -13.0025 C   0  0  0  0  0  0  0  0  0  0  0  0
   23.7400  -19.9823  -11.6001 C   0  0  2  0  0  0  0  0  0  0  0  0
   24.8708  -20.9118  -11.4715 N   0  0  0  0  0  0  0  0  0  0  0  0
   22.4906  -20.7440  -11.3369 C   0  0  0  0  0  0  0  0  0  0  0  0
   21.3272  -20.1497  -10.9584 O   0  0  0  0  0  0  0  0  0  0  0  0
   22.4823  -22.0098  -11.4602 O   0  0  0  0  0  0  0  0  0  0  0  0
  2  1  1  6
  3  4  1  0
  3  2  1  0
  4  5  1  0
  5  9  1  0
  5  6  2  0
  7  8  2  0
  7  2  1  0
 10  7  1  0
 11 10  1  0
 11 12  1  1
 13 21  1  0
 13 12  1  0
 14 13  2  0
 15 14  1  0
 15 16  1  0
 16 17  1  0
 16 21  2  0
 17 18  2  0
 18 19  1  0
 20 19  2  0
 21 20  1  0
 22 11  1  0
 23 22  2  0
 24 25  1  0
 25 27  1  0
 26 25  2  0
 27 28  1  0
 29 28  1  0
 29 30  1  0
 31 30  1  6
 31 32  1  0
 31 33  1  0
 32 22  1  0
 33 34  1  0
 35 33  2  0
M  END
$$$$
