EWR.pdb
     RDKit          3D

 35 36  0  0  1  0  0  0  0  0999 V2000
   27.6707  -24.0219  -16.4918 N   0  0  0  0  0  0  0  0  0  0  0  0
   27.3427  -22.5845  -16.4238 C   0  0  1  0  0  0  0  0  0  0  0  0
   26.6257  -22.1800  -17.6638 C   0  0  0  0  0  0  0  0  0  0  0  0
   27.5344  -21.9178  -18.8316 C   0  0  0  0  0  0  0  0  0  0  0  0
   28.2564  -20.6164  -18.6226 C   0  0  0  0  0  0  0  0  0  0  0  0
   29.4934  -20.6144  -18.7040 O   0  0  0  0  0  0  0  0  0  0  0  0
   26.5933  -22.3997  -15.1768 C   0  0  0  0  0  0  0  0  0  0  0  0
   25.9496  -23.3742  -14.6441 O   0  0  0  0  0  0  0  0  0  0  0  0
   27.5572  -19.4633  -18.3486 O   0  0  0  0  0  0  0  0  0  0  0  0
   26.5691  -21.1373  -14.5286 N   0  0  0  0  0  0  0  0  0  0  0  0
   25.8400  -21.0343  -13.2848 C   0  0  1  0  0  0  0  0  0  0  0  0
   26.4587  -19.8923  -12.4891 C   0  0  0  0  0  0  0  0  0  0  0  0
   27.5150  -20.4103  -11.5938 C   0  0  0  0  0  0  0  0  0  0  0  0
   28.7664  -20.8525  -11.9568 C   0  0  0  0  0  0  0  0  0  0  0  0
   29.4448  -21.2458  -10.8573 N   0  0  0  0  0  0  0  0  0  0  0  0
   28.6535  -21.0667   -9.7818 C   0  0  0  0  0  0  0  0  0  0  0  0
   28.8660  -21.3067   -8.4564 C   0  0  0  0  0  0  0  0  0  0  0  0
   27.8647  -21.0269   -7.5490 C   0  0  0  0  0  0  0  0  0  0  0  0
   26.6611  -20.5107   -7.9677 C   0  0  0  0  0  0  0  0  0  0  0  0
   26.4633  -20.2743   -9.3087 C   0  0  0  0  0  0  0  0  0  0  0  0
   27.4358  -20.5417  -10.2259 C   0  0  0  0  0  0  0  0  0  0  0  0
   24.4103  -20.8076  -13.5345 C   0  0  0  0  0  0  0  0  0  0  0  0
   24.0835  -19.9842  -14.4478 O   0  0  0  0  0  0  0  0  0  0  0  0
   16.6888  -22.2757  -14.2865 N   0  0  0  0  0  0  0  0  0  0  0  0
   17.3961  -23.5089  -14.3301 C   0  0  0  0  0  0  0  0  0  0  0  0
   17.1449  -24.3844  -15.2677 N   0  0  0  0  0  0  0  0  0  0  0  0
   18.3895  -23.8468  -13.3791 N   0  0  0  0  0  0  0  0  0  0  0  0
   18.7327  -22.9905  -12.2771 C   0  0  0  0  0  0  0  0  0  0  0  0
   19.6554  -21.9014  -12.8342 C   0  0  0  0  0  0  0  0  0  0  0  0
   21.0760  -22.1630  -12.5080 C   0  0  0  0  0  0  0  0  0  0  0  0
   21.9782  -21.1425  -13.1477 C   0  0  2  0  0  0  0  0  0  0  0  0
   23.3776  -21.4492  -12.8207 N   0  0  0  0  0  0  0  0  0  0  0  0
   21.6613  -19.8025  -12.5869 C   0  0  0  0  0  0  0  0  0  0  0  0
   20.9264  -18.8746  -13.2571 O   0  0  0  0  0  0  0  0  0  0  0  0
   22.0872  -19.4820  -11.4322 O   0  0  0  0  0  0  0  0  0  0  0  0
  2  1  1  6
  3  4  1  0
  3  2  1  0
  4  5  1  0
  5  9  1  0
  5  6  2  0
  7  8  2  0
  7  2  1  0
 10  7  1  0
 11 10  1  0
 11 12  1  1
 13 21  1  0
 13 12  1  0
 14 13  2  0
 15 14  1  0
 15 16  1  0
 16 17  1  0
 16 21  2  0
 17 18  2  0
 18 19  1  0
 20 19  2  0
 21 20  1  0
 22 11  1  0
 23 22  2  0
 24 25  1  0
 25 27  1  0
 26 25  2  0
 27 28  1  0
 29 28  1  0
 29 30  1  0
 31 30  1  1
 31 32  1  0
 31 33  1  0
 32 22  1  0
 33 34  1  0
 35 33  2  0
M  END
$$$$
