EWR.pdb
     RDKit          3D

 35 36  0  0  1  0  0  0  0  0999 V2000
   26.4125  -23.8725  -16.9893 N   0  0  0  0  0  0  0  0  0  0  0  0
   25.2354  -23.0353  -17.2925 C   0  0  1  0  0  0  0  0  0  0  0  0
   24.5001  -23.6138  -18.4501 C   0  0  0  0  0  0  0  0  0  0  0  0
   25.0932  -23.2582  -19.7843 C   0  0  0  0  0  0  0  0  0  0  0  0
   24.7218  -21.8454  -20.1372 C   0  0  0  0  0  0  0  0  0  0  0  0
   23.8412  -21.2874  -19.4664 O   0  0  0  0  0  0  0  0  0  0  0  0
   24.4708  -22.9461  -16.0443 C   0  0  0  0  0  0  0  0  0  0  0  0
   24.4396  -23.9285  -15.2188 O   0  0  0  0  0  0  0  0  0  0  0  0
   25.3460  -21.1956  -21.1774 O   0  0  0  0  0  0  0  0  0  0  0  0
   23.7521  -21.7660  -15.7199 N   0  0  0  0  0  0  0  0  0  0  0  0
   23.1414  -21.6890  -14.4122 C   0  0  1  0  0  0  0  0  0  0  0  0
   23.1468  -20.2243  -13.9941 C   0  0  0  0  0  0  0  0  0  0  0  0
   22.6479  -20.0891  -12.6090 C   0  0  0  0  0  0  0  0  0  0  0  0
   23.2366  -20.5756  -11.4644 C   0  0  0  0  0  0  0  0  0  0  0  0
   22.4828  -20.2485  -10.3927 N   0  0  0  0  0  0  0  0  0  0  0  0
   21.4103  -19.5554  -10.8219 C   0  0  0  0  0  0  0  0  0  0  0  0
   20.3619  -19.0063  -10.1445 C   0  0  0  0  0  0  0  0  0  0  0  0
   19.3798  -18.3365  -10.8454 C   0  0  0  0  0  0  0  0  0  0  0  0
   19.4490  -18.2187  -12.2134 C   0  0  0  0  0  0  0  0  0  0  0  0
   20.5138  -18.7786  -12.8814 C   0  0  0  0  0  0  0  0  0  0  0  0
   21.4974  -19.4454  -12.2133 C   0  0  0  0  0  0  0  0  0  0  0  0
   21.7797  -22.2394  -14.4382 C   0  0  0  0  0  0  0  0  0  0  0  0
   21.0714  -22.0401  -15.4761 O   0  0  0  0  0  0  0  0  0  0  0  0
   18.7763  -27.2051   -8.6095 N   0  0  0  0  0  0  0  0  0  0  0  0
   18.2708  -25.8862   -8.7768 C   0  0  0  0  0  0  0  0  0  0  0  0
   17.7322  -25.2500   -7.7700 N   0  0  0  0  0  0  0  0  0  0  0  0
   18.3231  -25.2065  -10.0180 N   0  0  0  0  0  0  0  0  0  0  0  0
   17.8156  -25.7749  -11.2366 C   0  0  0  0  0  0  0  0  0  0  0  0
   18.0810  -24.7517  -12.3457 C   0  0  0  0  0  0  0  0  0  0  0  0
   19.4179  -24.1289  -12.2124 C   0  0  0  0  0  0  0  0  0  0  0  0
   19.8065  -23.3997  -13.4702 C   0  0  2  0  0  0  0  0  0  0  0  0
   21.2106  -22.9760  -13.3793 N   0  0  0  0  0  0  0  0  0  0  0  0
   18.9682  -22.1783  -13.5957 C   0  0  0  0  0  0  0  0  0  0  0  0
   17.9827  -22.0491  -14.5243 O   0  0  0  0  0  0  0  0  0  0  0  0
   19.1624  -21.1933  -12.8148 O   0  0  0  0  0  0  0  0  0  0  0  0
  2  1  1  1
  3  4  1  0
  3  2  1  0
  4  5  1  0
  5  9  1  0
  5  6  2  0
  7  8  2  0
  7  2  1  0
 10  7  1  0
 11 10  1  0
 11 12  1  6
 13 21  1  0
 13 12  1  0
 14 13  2  0
 15 14  1  0
 15 16  1  0
 16 17  1  0
 16 21  2  0
 17 18  2  0
 18 19  1  0
 20 19  2  0
 21 20  1  0
 22 11  1  0
 23 22  2  0
 24 25  1  0
 25 27  1  0
 26 25  2  0
 27 28  1  0
 29 28  1  0
 29 30  1  0
 31 30  1  1
 31 32  1  0
 31 33  1  0
 32 22  1  0
 33 34  1  0
 35 33  2  0
M  END
$$$$
