WFL.pdb
     RDKit          3D

 34 36  0  0  1  0  0  0  0  0999 V2000
   24.8131  -17.9552  -18.3532 N   0  0  0  0  0  0  0  0  0  0  0  0
   24.2479  -18.4878  -17.1184 C   0  0  1  0  0  0  0  0  0  0  0  0
   22.8263  -18.9428  -17.3555 C   0  0  0  0  0  0  0  0  0  0  0  0
   21.9366  -17.7880  -17.4232 C   0  0  0  0  0  0  0  0  0  0  0  0
   21.8126  -17.0055  -18.5754 C   0  0  0  0  0  0  0  0  0  0  0  0
   20.8994  -16.0674  -18.3375 N   0  0  0  0  0  0  0  0  0  0  0  0
   20.4182  -16.2035  -17.0699 C   0  0  0  0  0  0  0  0  0  0  0  0
   19.4714  -15.4639  -16.3742 C   0  0  0  0  0  0  0  0  0  0  0  0
   19.1702  -15.8096  -15.0751 C   0  0  0  0  0  0  0  0  0  0  0  0
   19.8202  -16.8799  -14.5072 C   0  0  0  0  0  0  0  0  0  0  0  0
   20.7563  -17.6098  -15.1985 C   0  0  0  0  0  0  0  0  0  0  0  0
   21.0751  -17.2795  -16.5131 C   0  0  0  0  0  0  0  0  0  0  0  0
   25.0849  -19.5597  -16.5883 C   0  0  0  0  0  0  0  0  0  0  0  0
   25.3587  -20.6169  -17.2425 O   0  0  0  0  0  0  0  0  0  0  0  0
   25.6120  -19.3740  -15.2612 N   0  0  0  0  0  0  0  0  0  0  0  0
   26.4550  -20.3945  -14.7019 C   0  0  1  0  0  0  0  0  0  0  0  0
   27.8074  -19.7618  -14.3742 C   0  0  0  0  0  0  0  0  0  0  0  0
   28.3391  -18.9996  -15.5282 C   0  0  0  0  0  0  0  0  0  0  0  0
   28.0154  -17.6700  -15.7017 C   0  0  0  0  0  0  0  0  0  0  0  0
   28.4955  -16.9313  -16.7679 C   0  0  0  0  0  0  0  0  0  0  0  0
   29.3259  -17.5035  -17.7086 C   0  0  0  0  0  0  0  0  0  0  0  0
   29.6576  -18.8305  -17.5481 C   0  0  0  0  0  0  0  0  0  0  0  0
   29.1659  -19.5655  -16.4669 C   0  0  0  0  0  0  0  0  0  0  0  0
   25.8652  -21.0402  -13.5278 C   0  0  0  0  0  0  0  0  0  0  0  0
   26.2527  -22.1632  -13.0892 O   0  0  0  0  0  0  0  0  0  0  0  0
   26.5996  -21.5964  -10.0058 C   0  0  0  0  0  0  0  0  0  0  0  0
   25.9887  -20.2137  -10.2653 C   0  0  2  0  0  0  0  0  0  0  0  0
   26.2940  -19.3649   -9.0561 C   0  0  0  0  0  0  0  0  0  0  0  0
   24.5229  -20.4151  -10.4595 C   0  0  0  0  0  0  0  0  0  0  0  0
   24.1394  -21.1330  -11.7192 C   0  0  2  0  0  0  0  0  0  0  0  0
   24.8193  -20.4250  -12.8203 N   0  0  0  0  0  0  0  0  0  0  0  0
   22.6992  -21.2320  -11.9650 C   0  0  0  0  0  0  0  0  0  0  0  0
   21.8643  -21.9639  -11.1323 O   0  0  0  0  0  0  0  0  0  0  0  0
   22.0996  -20.6691  -12.9419 O   0  0  0  0  0  0  0  0  0  0  0  0
  2  3  1  0
  2  1  1  6
  3  4  1  0
  4  5  2  0
  5  6  1  0
  7  6  1  0
  8  7  2  0
  9  8  1  0
 10 11  1  0
 10  9  2  0
 11 12  2  0
 12  4  1  0
 12  7  1  0
 13 14  2  0
 13  2  1  0
 15 13  1  0
 16 15  1  0
 16 17  1  1
 17 18  1  0
 18 23  1  0
 18 19  2  0
 19 20  1  0
 20 21  2  0
 22 21  1  0
 23 22  2  0
 24 31  1  0
 24 16  1  0
 25 24  2  0
 27 26  1  1
 27 28  1  0
 27 29  1  0
 30 29  1  1
 30 32  1  0
 30 31  1  0
 32 33  1  0
 34 32  2  0
M  END
$$$$
