WFL.pdb
     RDKit          3D

 34 36  0  0  1  0  0  0  0  0999 V2000
   25.6538  -20.8455  -15.7254 N   0  0  0  0  0  0  0  0  0  0  0  0
   26.0070  -20.1125  -14.5147 C   0  0  1  0  0  0  0  0  0  0  0  0
   24.7577  -19.5832  -13.8489 C   0  0  0  0  0  0  0  0  0  0  0  0
   23.7513  -19.2638  -14.8563 C   0  0  0  0  0  0  0  0  0  0  0  0
   22.4581  -19.7942  -14.8163 C   0  0  0  0  0  0  0  0  0  0  0  0
   21.7730  -19.2814  -15.8353 N   0  0  0  0  0  0  0  0  0  0  0  0
   22.5689  -18.4331  -16.5452 C   0  0  0  0  0  0  0  0  0  0  0  0
   22.3063  -17.6798  -17.6815 C   0  0  0  0  0  0  0  0  0  0  0  0
   23.3077  -16.9000  -18.2172 C   0  0  0  0  0  0  0  0  0  0  0  0
   24.5399  -16.8935  -17.6070 C   0  0  0  0  0  0  0  0  0  0  0  0
   24.7962  -17.6399  -16.4826 C   0  0  0  0  0  0  0  0  0  0  0  0
   23.7985  -18.4338  -15.9230 C   0  0  0  0  0  0  0  0  0  0  0  0
   26.7939  -20.9506  -13.6153 C   0  0  0  0  0  0  0  0  0  0  0  0
   26.6815  -22.2178  -13.5686 O   0  0  0  0  0  0  0  0  0  0  0  0
   27.7353  -20.2764  -12.7594 N   0  0  0  0  0  0  0  0  0  0  0  0
   28.5264  -21.0577  -11.8491 C   0  0  1  0  0  0  0  0  0  0  0  0
   29.8737  -20.3570  -11.6740 C   0  0  0  0  0  0  0  0  0  0  0  0
   30.7016  -21.0309  -10.6465 C   0  0  0  0  0  0  0  0  0  0  0  0
   31.4631  -22.1345  -10.9701 C   0  0  0  0  0  0  0  0  0  0  0  0
   32.2463  -22.7853  -10.0341 C   0  0  0  0  0  0  0  0  0  0  0  0
   32.2956  -22.3496   -8.7265 C   0  0  0  0  0  0  0  0  0  0  0  0
   31.5402  -21.2486   -8.3889 C   0  0  0  0  0  0  0  0  0  0  0  0
   30.7534  -20.6004   -9.3437 C   0  0  0  0  0  0  0  0  0  0  0  0
   27.8636  -21.2772  -10.5624 C   0  0  0  0  0  0  0  0  0  0  0  0
   28.0703  -22.2996   -9.8442 O   0  0  0  0  0  0  0  0  0  0  0  0
   27.8152  -20.5710   -6.2563 C   0  0  0  0  0  0  0  0  0  0  0  0
   27.7972  -19.3950   -7.2408 C   0  0  2  0  0  0  0  0  0  0  0  0
   28.0070  -18.1404   -6.4298 C   0  0  0  0  0  0  0  0  0  0  0  0
   26.4676  -19.4150   -7.9181 C   0  0  0  0  0  0  0  0  0  0  0  0
   26.2201  -20.6011   -8.8019 C   0  0  2  0  0  0  0  0  0  0  0  0
   26.9487  -20.3388  -10.0573 N   0  0  0  0  0  0  0  0  0  0  0  0
   24.8102  -20.8995   -9.0622 C   0  0  0  0  0  0  0  0  0  0  0  0
   24.0560  -21.6785   -8.1959 O   0  0  0  0  0  0  0  0  0  0  0  0
   24.1667  -20.4810  -10.0828 O   0  0  0  0  0  0  0  0  0  0  0  0
  2  3  1  0
  2  1  1  6
  3  4  1  0
  4  5  2  0
  5  6  1  0
  7  6  1  0
  8  7  2  0
  9  8  1  0
 10 11  1  0
 10  9  2  0
 11 12  2  0
 12  4  1  0
 12  7  1  0
 13 14  2  0
 13  2  1  0
 15 13  1  0
 16 15  1  0
 16 17  1  1
 17 18  1  0
 18 23  1  0
 18 19  2  0
 19 20  1  0
 20 21  2  0
 22 21  1  0
 23 22  2  0
 24 31  1  0
 24 16  1  0
 25 24  2  0
 27 26  1  1
 27 28  1  0
 27 29  1  0
 30 29  1  1
 30 32  1  0
 30 31  1  0
 32 33  1  0
 34 32  2  0
M  END
$$$$
