WFL.pdb
     RDKit          3D

 34 36  0  0  1  0  0  0  0  0999 V2000
   28.5774  -21.2064  -14.3159 N   0  0  0  0  0  0  0  0  0  0  0  0
   27.4199  -20.3380  -14.1317 C   0  0  1  0  0  0  0  0  0  0  0  0
   26.8397  -19.9593  -15.4749 C   0  0  0  0  0  0  0  0  0  0  0  0
   27.5076  -18.7685  -15.9902 C   0  0  0  0  0  0  0  0  0  0  0  0
   28.4799  -18.8310  -16.9933 C   0  0  0  0  0  0  0  0  0  0  0  0
   28.8597  -17.5870  -17.2741 N   0  0  0  0  0  0  0  0  0  0  0  0
   28.1731  -16.7078  -16.4915 C   0  0  0  0  0  0  0  0  0  0  0  0
   28.2311  -15.3227  -16.4164 C   0  0  0  0  0  0  0  0  0  0  0  0
   27.4250  -14.6640  -15.5141 C   0  0  0  0  0  0  0  0  0  0  0  0
   26.5861  -15.4029  -14.7135 C   0  0  0  0  0  0  0  0  0  0  0  0
   26.5309  -16.7733  -14.7905 C   0  0  0  0  0  0  0  0  0  0  0  0
   27.3354  -17.4597  -15.6964 C   0  0  0  0  0  0  0  0  0  0  0  0
   26.4304  -20.9738  -13.2672 C   0  0  0  0  0  0  0  0  0  0  0  0
   26.2206  -22.2294  -13.2561 O   0  0  0  0  0  0  0  0  0  0  0  0
   25.6795  -20.1076  -12.3959 N   0  0  0  0  0  0  0  0  0  0  0  0
   24.5955  -20.6632  -11.6334 C   0  0  1  0  0  0  0  0  0  0  0  0
   24.5315  -19.9241  -10.2969 C   0  0  0  0  0  0  0  0  0  0  0  0
   25.7013  -20.2465   -9.4466 C   0  0  0  0  0  0  0  0  0  0  0  0
   26.0191  -21.5568   -9.1559 C   0  0  0  0  0  0  0  0  0  0  0  0
   27.1042  -21.8904   -8.3658 C   0  0  0  0  0  0  0  0  0  0  0  0
   27.9188  -20.9134   -7.8329 C   0  0  0  0  0  0  0  0  0  0  0  0
   27.6134  -19.6004   -8.1150 C   0  0  0  0  0  0  0  0  0  0  0  0
   26.5146  -19.2769   -8.9142 C   0  0  0  0  0  0  0  0  0  0  0  0
   23.3147  -20.6075  -12.3403 C   0  0  0  0  0  0  0  0  0  0  0  0
   22.9245  -19.5891  -12.9841 O   0  0  0  0  0  0  0  0  0  0  0  0
   21.4328  -21.9834  -15.8673 C   0  0  0  0  0  0  0  0  0  0  0  0
   21.7560  -23.1269  -14.8975 C   0  0  2  0  0  0  0  0  0  0  0  0
   21.4313  -24.4146  -15.6133 C   0  0  0  0  0  0  0  0  0  0  0  0
   20.9077  -22.9234  -13.6868 C   0  0  0  0  0  0  0  0  0  0  0  0
   21.1169  -21.6208  -12.9734 C   0  0  2  0  0  0  0  0  0  0  0  0
   22.4436  -21.7093  -12.3346 N   0  0  0  0  0  0  0  0  0  0  0  0
   20.0828  -21.2735  -11.9964 C   0  0  0  0  0  0  0  0  0  0  0  0
   20.3246  -21.3140  -10.6304 O   0  0  0  0  0  0  0  0  0  0  0  0
   18.8977  -20.9126  -12.3066 O   0  0  0  0  0  0  0  0  0  0  0  0
  2  3  1  0
  2  1  1  6
  3  4  1  0
  4  5  2  0
  5  6  1  0
  7  6  1  0
  8  7  2  0
  9  8  1  0
 10 11  1  0
 10  9  2  0
 11 12  2  0
 12  4  1  0
 12  7  1  0
 13 14  2  0
 13  2  1  0
 15 13  1  0
 16 15  1  0
 16 17  1  1
 17 18  1  0
 18 23  1  0
 18 19  2  0
 19 20  1  0
 20 21  2  0
 22 21  1  0
 23 22  2  0
 24 31  1  0
 24 16  1  0
 25 24  2  0
 27 26  1  6
 27 28  1  0
 27 29  1  0
 30 29  1  1
 30 32  1  0
 30 31  1  0
 32 33  1  0
 34 32  2  0
M  END
$$$$
