WFL.pdb
     RDKit          3D

 34 36  0  0  1  0  0  0  0  0999 V2000
   26.4300  -22.0304  -13.1087 N   0  0  0  0  0  0  0  0  0  0  0  0
   25.8785  -21.0164  -12.2169 C   0  0  1  0  0  0  0  0  0  0  0  0
   24.3895  -20.8865  -12.4411 C   0  0  0  0  0  0  0  0  0  0  0  0
   24.1293  -20.3566  -13.7757 C   0  0  0  0  0  0  0  0  0  0  0  0
   24.4042  -21.0855  -14.9369 C   0  0  0  0  0  0  0  0  0  0  0  0
   24.0169  -20.3560  -15.9802 N   0  0  0  0  0  0  0  0  0  0  0  0
   23.4975  -19.1727  -15.5477 C   0  0  0  0  0  0  0  0  0  0  0  0
   22.9787  -18.0967  -16.2552 C   0  0  0  0  0  0  0  0  0  0  0  0
   22.5225  -16.9953  -15.5648 C   0  0  0  0  0  0  0  0  0  0  0  0
   22.5967  -16.9973  -14.1918 C   0  0  0  0  0  0  0  0  0  0  0  0
   23.1104  -18.0637  -13.4948 C   0  0  0  0  0  0  0  0  0  0  0  0
   23.5755  -19.1881  -14.1719 C   0  0  0  0  0  0  0  0  0  0  0  0
   26.1983  -21.3236  -10.8262 C   0  0  0  0  0  0  0  0  0  0  0  0
   25.8123  -22.3868  -10.2420 O   0  0  0  0  0  0  0  0  0  0  0  0
   26.9945  -20.3568  -10.1158 N   0  0  0  0  0  0  0  0  0  0  0  0
   27.2227  -20.5465   -8.7098 C   0  0  1  0  0  0  0  0  0  0  0  0
   28.3285  -19.5837   -8.2773 C   0  0  0  0  0  0  0  0  0  0  0  0
   28.5741  -19.6662   -6.8185 C   0  0  0  0  0  0  0  0  0  0  0  0
   28.2127  -18.6284   -5.9849 C   0  0  0  0  0  0  0  0  0  0  0  0
   28.4283  -18.6751   -4.6195 C   0  0  0  0  0  0  0  0  0  0  0  0
   29.0197  -19.7746   -4.0336 C   0  0  0  0  0  0  0  0  0  0  0  0
   29.3859  -20.8186   -4.8537 C   0  0  0  0  0  0  0  0  0  0  0  0
   29.1627  -20.7589   -6.2312 C   0  0  0  0  0  0  0  0  0  0  0  0
   26.0114  -20.3691   -7.9071 C   0  0  0  0  0  0  0  0  0  0  0  0
   25.1196  -19.5129   -8.1819 O   0  0  0  0  0  0  0  0  0  0  0  0
   21.3468  -22.9699   -6.6427 C   0  0  0  0  0  0  0  0  0  0  0  0
   22.1691  -21.8533   -5.9872 C   0  0  2  0  0  0  0  0  0  0  0  0
   21.4224  -20.5634   -6.2207 C   0  0  0  0  0  0  0  0  0  0  0  0
   23.5095  -21.8577   -6.6431 C   0  0  0  0  0  0  0  0  0  0  0  0
   24.5464  -21.0005   -5.9802 C   0  0  2  0  0  0  0  0  0  0  0  0
   25.7813  -21.1619   -6.7707 N   0  0  0  0  0  0  0  0  0  0  0  0
   24.7834  -21.2932   -4.5651 C   0  0  0  0  0  0  0  0  0  0  0  0
   24.2112  -20.5321   -3.5554 O   0  0  0  0  0  0  0  0  0  0  0  0
   25.5189  -22.2492   -4.1455 O   0  0  0  0  0  0  0  0  0  0  0  0
  2  3  1  0
  2  1  1  6
  3  4  1  0
  4  5  2  0
  5  6  1  0
  7  6  1  0
  8  7  2  0
  9  8  1  0
 10 11  1  0
 10  9  2  0
 11 12  2  0
 12  4  1  0
 12  7  1  0
 13 14  2  0
 13  2  1  0
 15 13  1  0
 16 15  1  0
 16 17  1  1
 17 18  1  0
 18 23  1  0
 18 19  2  0
 19 20  1  0
 20 21  2  0
 22 21  1  0
 23 22  2  0
 24 31  1  0
 24 16  1  0
 25 24  2  0
 27 26  1  6
 27 28  1  0
 27 29  1  0
 30 29  1  6
 30 32  1  0
 30 31  1  0
 32 33  1  0
 34 32  2  0
M  END
$$$$
