WFL.pdb
     RDKit          3D

 34 36  0  0  1  0  0  0  0  0999 V2000
   26.2998  -21.7267  -12.4285 N   0  0  0  0  0  0  0  0  0  0  0  0
   26.1067  -20.5901  -11.5348 C   0  0  1  0  0  0  0  0  0  0  0  0
   24.6718  -20.1200  -11.6002 C   0  0  0  0  0  0  0  0  0  0  0  0
   24.4050  -19.5075  -12.8976 C   0  0  0  0  0  0  0  0  0  0  0  0
   23.1774  -19.6468  -13.5526 C   0  0  0  0  0  0  0  0  0  0  0  0
   23.2313  -18.9406  -14.6790 N   0  0  0  0  0  0  0  0  0  0  0  0
   24.4504  -18.3419  -14.7898 C   0  0  0  0  0  0  0  0  0  0  0  0
   24.9730  -17.5238  -15.7823 C   0  0  0  0  0  0  0  0  0  0  0  0
   26.2614  -17.0528  -15.6561 C   0  0  0  0  0  0  0  0  0  0  0  0
   26.9911  -17.4102  -14.5468 C   0  0  0  0  0  0  0  0  0  0  0  0
   26.4710  -18.2197  -13.5664 C   0  0  0  0  0  0  0  0  0  0  0  0
   25.1704  -18.7057  -13.6724 C   0  0  0  0  0  0  0  0  0  0  0  0
   26.5104  -20.9296  -10.1738 C   0  0  0  0  0  0  0  0  0  0  0  0
   26.4743  -22.1157   -9.7128 O   0  0  0  0  0  0  0  0  0  0  0  0
   26.9706  -19.8457   -9.3451 N   0  0  0  0  0  0  0  0  0  0  0  0
   27.4827  -20.1439   -8.0361 C   0  0  1  0  0  0  0  0  0  0  0  0
   28.6284  -19.1745   -7.7456 C   0  0  0  0  0  0  0  0  0  0  0  0
   29.1570  -19.3611   -6.3741 C   0  0  0  0  0  0  0  0  0  0  0  0
   29.8703  -20.4945   -6.0437 C   0  0  0  0  0  0  0  0  0  0  0  0
   30.3769  -20.6979   -4.7729 C   0  0  0  0  0  0  0  0  0  0  0  0
   30.1853  -19.7637   -3.7766 C   0  0  0  0  0  0  0  0  0  0  0  0
   29.4747  -18.6269   -4.0921 C   0  0  0  0  0  0  0  0  0  0  0  0
   28.9684  -18.4336   -5.3794 C   0  0  0  0  0  0  0  0  0  0  0  0
   26.4543  -20.0876   -6.9957 C   0  0  0  0  0  0  0  0  0  0  0  0
   25.5641  -19.1879   -6.9521 O   0  0  0  0  0  0  0  0  0  0  0  0
   22.6440  -20.8491   -5.8079 C   0  0  0  0  0  0  0  0  0  0  0  0
   23.5950  -22.0315   -6.0314 C   0  0  2  0  0  0  0  0  0  0  0  0
   22.7434  -23.2755   -6.0866 C   0  0  0  0  0  0  0  0  0  0  0  0
   24.5465  -22.0480   -4.8819 C   0  0  0  0  0  0  0  0  0  0  0  0
   25.5006  -20.8921   -4.8275 C   0  0  2  0  0  0  0  0  0  0  0  0
   26.4102  -21.0540   -5.9774 N   0  0  0  0  0  0  0  0  0  0  0  0
   26.2498  -20.7623   -3.5760 C   0  0  0  0  0  0  0  0  0  0  0  0
   25.7755  -20.0029   -2.5155 O   0  0  0  0  0  0  0  0  0  0  0  0
   27.3767  -21.3211   -3.3553 O   0  0  0  0  0  0  0  0  0  0  0  0
  2  3  1  0
  2  1  1  6
  3  4  1  0
  4  5  2  0
  5  6  1  0
  7  6  1  0
  8  7  2  0
  9  8  1  0
 10 11  1  0
 10  9  2  0
 11 12  2  0
 12  4  1  0
 12  7  1  0
 13 14  2  0
 13  2  1  0
 15 13  1  0
 16 15  1  0
 16 17  1  1
 17 18  1  0
 18 23  1  0
 18 19  2  0
 19 20  1  0
 20 21  2  0
 22 21  1  0
 23 22  2  0
 24 31  1  0
 24 16  1  0
 25 24  2  0
 27 26  1  1
 27 28  1  0
 27 29  1  0
 30 29  1  1
 30 32  1  0
 30 31  1  0
 32 33  1  0
 34 32  2  0
M  END
$$$$
