WFL.pdb
     RDKit          3D

 34 36  0  0  1  0  0  0  0  0999 V2000
   24.1368  -22.1495  -12.8424 N   0  0  0  0  0  0  0  0  0  0  0  0
   24.7429  -20.9853  -12.2060 C   0  0  1  0  0  0  0  0  0  0  0  0
   23.6673  -20.0188  -11.7665 C   0  0  0  0  0  0  0  0  0  0  0  0
   22.9707  -19.4825  -12.9313 C   0  0  0  0  0  0  0  0  0  0  0  0
   21.5887  -19.6105  -13.1012 C   0  0  0  0  0  0  0  0  0  0  0  0
   21.2541  -18.9837  -14.2262 N   0  0  0  0  0  0  0  0  0  0  0  0
   22.3662  -18.4481  -14.8036 C   0  0  0  0  0  0  0  0  0  0  0  0
   22.5194  -17.7215  -15.9767 C   0  0  0  0  0  0  0  0  0  0  0  0
   23.7777  -17.3006  -16.3473 C   0  0  0  0  0  0  0  0  0  0  0  0
   24.8455  -17.6155  -15.5402 C   0  0  0  0  0  0  0  0  0  0  0  0
   24.6904  -18.3344  -14.3800 C   0  0  0  0  0  0  0  0  0  0  0  0
   23.4277  -18.7685  -13.9851 C   0  0  0  0  0  0  0  0  0  0  0  0
   25.6006  -21.3917  -11.0971 C   0  0  0  0  0  0  0  0  0  0  0  0
   25.2954  -22.3256  -10.2875 O   0  0  0  0  0  0  0  0  0  0  0  0
   26.8451  -20.6830  -10.9472 N   0  0  0  0  0  0  0  0  0  0  0  0
   27.6654  -20.9590   -9.8001 C   0  0  1  0  0  0  0  0  0  0  0  0
   29.0422  -20.3419  -10.0453 C   0  0  0  0  0  0  0  0  0  0  0  0
   29.9239  -20.5068   -8.8660 C   0  0  0  0  0  0  0  0  0  0  0  0
   30.7140  -21.6293   -8.7305 C   0  0  0  0  0  0  0  0  0  0  0  0
   31.5475  -21.8125   -7.6420 C   0  0  0  0  0  0  0  0  0  0  0  0
   31.6207  -20.8682   -6.6397 C   0  0  0  0  0  0  0  0  0  0  0  0
   30.8373  -19.7420   -6.7617 C   0  0  0  0  0  0  0  0  0  0  0  0
   29.9997  -19.5691   -7.8659 C   0  0  0  0  0  0  0  0  0  0  0  0
   27.0758  -20.4780   -8.5494 C   0  0  0  0  0  0  0  0  0  0  0  0
   26.4234  -19.3959   -8.4642 O   0  0  0  0  0  0  0  0  0  0  0  0
   24.5496  -22.5868   -3.6174 C   0  0  0  0  0  0  0  0  0  0  0  0
   25.3182  -21.3569   -4.1164 C   0  0  2  0  0  0  0  0  0  0  0  0
   24.3318  -20.2170   -4.1757 C   0  0  0  0  0  0  0  0  0  0  0  0
   25.8654  -21.7019   -5.4612 C   0  0  0  0  0  0  0  0  0  0  0  0
   26.7515  -20.6594   -6.0756 C   0  0  2  0  0  0  0  0  0  0  0  0
   27.2117  -21.2158   -7.3619 N   0  0  0  0  0  0  0  0  0  0  0  0
   27.8835  -20.2385   -5.2473 C   0  0  0  0  0  0  0  0  0  0  0  0
   27.8157  -19.1173   -4.4322 O   0  0  0  0  0  0  0  0  0  0  0  0
   29.0041  -20.8494   -5.2032 O   0  0  0  0  0  0  0  0  0  0  0  0
  2  3  1  0
  2  1  1  1
  3  4  1  0
  4  5  2  0
  5  6  1  0
  7  6  1  0
  8  7  2  0
  9  8  1  0
 10 11  1  0
 10  9  2  0
 11 12  2  0
 12  4  1  0
 12  7  1  0
 13 14  2  0
 13  2  1  0
 15 13  1  0
 16 15  1  0
 16 17  1  6
 17 18  1  0
 18 23  1  0
 18 19  2  0
 19 20  1  0
 20 21  2  0
 22 21  1  0
 23 22  2  0
 24 31  1  0
 24 16  1  0
 25 24  2  0
 27 26  1  6
 27 28  1  0
 27 29  1  0
 30 29  1  1
 30 32  1  0
 30 31  1  0
 32 33  1  0
 34 32  2  0
M  END
$$$$
