WFL.pdb
     RDKit          3D

 34 36  0  0  1  0  0  0  0  0999 V2000
   29.0503  -20.8293  -14.2247 N   0  0  0  0  0  0  0  0  0  0  0  0
   27.8135  -20.1308  -13.8929 C   0  0  1  0  0  0  0  0  0  0  0  0
   27.0265  -19.8484  -15.1519 C   0  0  0  0  0  0  0  0  0  0  0  0
   27.5999  -18.7048  -15.8539 C   0  0  0  0  0  0  0  0  0  0  0  0
   28.5137  -18.8517  -16.9021 C   0  0  0  0  0  0  0  0  0  0  0  0
   28.8109  -17.6382  -17.3600 N   0  0  0  0  0  0  0  0  0  0  0  0
   28.1263  -16.6975  -16.6506 C   0  0  0  0  0  0  0  0  0  0  0  0
   28.1162  -15.3130  -16.7529 C   0  0  0  0  0  0  0  0  0  0  0  0
   27.3310  -14.5808  -15.8896 C   0  0  0  0  0  0  0  0  0  0  0  0
   26.5802  -15.2478  -14.9505 C   0  0  0  0  0  0  0  0  0  0  0  0
   26.5923  -16.6179  -14.8520 C   0  0  0  0  0  0  0  0  0  0  0  0
   27.3770  -17.3781  -15.7153 C   0  0  0  0  0  0  0  0  0  0  0  0
   27.0360  -20.8924  -12.9201 C   0  0  0  0  0  0  0  0  0  0  0  0
   26.8254  -22.1436  -13.0241 O   0  0  0  0  0  0  0  0  0  0  0  0
   26.5029  -20.1602  -11.8008 N   0  0  0  0  0  0  0  0  0  0  0  0
   25.4191  -20.7333  -11.0513 C   0  0  1  0  0  0  0  0  0  0  0  0
   25.4071  -20.0836   -9.6676 C   0  0  0  0  0  0  0  0  0  0  0  0
   26.6278  -20.4266   -8.9010 C   0  0  0  0  0  0  0  0  0  0  0  0
   27.0340  -19.6452   -7.8395 C   0  0  0  0  0  0  0  0  0  0  0  0
   28.1681  -19.9388   -7.1043 C   0  0  0  0  0  0  0  0  0  0  0  0
   28.9444  -21.0372   -7.4088 C   0  0  0  0  0  0  0  0  0  0  0  0
   28.5508  -21.8268   -8.4664 C   0  0  0  0  0  0  0  0  0  0  0  0
   27.4034  -21.5192   -9.2010 C   0  0  0  0  0  0  0  0  0  0  0  0
   24.1255  -20.5928  -11.7222 C   0  0  0  0  0  0  0  0  0  0  0  0
   23.7269  -19.5050  -12.2335 O   0  0  0  0  0  0  0  0  0  0  0  0
   19.4081  -23.1074  -13.0914 C   0  0  0  0  0  0  0  0  0  0  0  0
   20.5129  -22.8581  -14.1256 C   0  0  2  0  0  0  0  0  0  0  0  0
   20.4897  -24.0241  -15.0825 C   0  0  0  0  0  0  0  0  0  0  0  0
   21.7995  -22.7682  -13.3747 C   0  0  0  0  0  0  0  0  0  0  0  0
   21.9544  -21.5457  -12.5197 C   0  0  2  0  0  0  0  0  0  0  0  0
   23.2510  -21.6866  -11.8306 N   0  0  0  0  0  0  0  0  0  0  0  0
   20.8703  -21.3144  -11.5628 C   0  0  0  0  0  0  0  0  0  0  0  0
   19.7672  -20.5353  -11.8824 O   0  0  0  0  0  0  0  0  0  0  0  0
   20.8448  -21.7958  -10.3802 O   0  0  0  0  0  0  0  0  0  0  0  0
  2  3  1  0
  2  1  1  6
  3  4  1  0
  4  5  2  0
  5  6  1  0
  7  6  1  0
  8  7  2  0
  9  8  1  0
 10 11  1  0
 10  9  2  0
 11 12  2  0
 12  4  1  0
 12  7  1  0
 13 14  2  0
 13  2  1  0
 15 13  1  0
 16 15  1  0
 16 17  1  1
 17 18  1  0
 18 23  1  0
 18 19  2  0
 19 20  1  0
 20 21  2  0
 22 21  1  0
 23 22  2  0
 24 31  1  0
 24 16  1  0
 25 24  2  0
 27 26  1  1
 27 28  1  0
 27 29  1  0
 30 29  1  1
 30 32  1  0
 30 31  1  0
 32 33  1  0
 34 32  2  0
M  END
$$$$
