WFL.pdb
     RDKit          3D

 34 36  0  0  1  0  0  0  0  0999 V2000
   26.7098  -20.6830  -19.2045 N   0  0  0  0  0  0  0  0  0  0  0  0
   25.9783  -19.8172  -18.2864 C   0  0  1  0  0  0  0  0  0  0  0  0
   24.6745  -19.3823  -18.9151 C   0  0  0  0  0  0  0  0  0  0  0  0
   24.8938  -18.2164  -19.7651 C   0  0  0  0  0  0  0  0  0  0  0  0
   26.1733  -17.7882  -20.1322 C   0  0  0  0  0  0  0  0  0  0  0  0
   26.0386  -16.7393  -20.9398 N   0  0  0  0  0  0  0  0  0  0  0  0
   24.7164  -16.4610  -21.1170 C   0  0  0  0  0  0  0  0  0  0  0  0
   24.0893  -15.4672  -21.8564 C   0  0  0  0  0  0  0  0  0  0  0  0
   22.7135  -15.3966  -21.8569 C   0  0  0  0  0  0  0  0  0  0  0  0
   22.0032  -16.3162  -21.1217 C   0  0  0  0  0  0  0  0  0  0  0  0
   22.6268  -17.2985  -20.3914 C   0  0  0  0  0  0  0  0  0  0  0  0
   24.0162  -17.3897  -20.3778 C   0  0  0  0  0  0  0  0  0  0  0  0
   25.7726  -20.4823  -17.0034 C   0  0  0  0  0  0  0  0  0  0  0  0
   25.4241  -21.7024  -16.9003 O   0  0  0  0  0  0  0  0  0  0  0  0
   25.9891  -19.6899  -15.8208 N   0  0  0  0  0  0  0  0  0  0  0  0
   25.5995  -20.2272  -14.5463 C   0  0  1  0  0  0  0  0  0  0  0  0
   26.3895  -19.4925  -13.4633 C   0  0  0  0  0  0  0  0  0  0  0  0
   26.0902  -20.0347  -12.1172 C   0  0  0  0  0  0  0  0  0  0  0  0
   26.7507  -21.1500  -11.6458 C   0  0  0  0  0  0  0  0  0  0  0  0
   26.4942  -21.6800  -10.3942 C   0  0  0  0  0  0  0  0  0  0  0  0
   25.5572  -21.1059   -9.5610 C   0  0  0  0  0  0  0  0  0  0  0  0
   24.8897  -19.9915  -10.0186 C   0  0  0  0  0  0  0  0  0  0  0  0
   25.1580  -19.4662  -11.2847 C   0  0  0  0  0  0  0  0  0  0  0  0
   24.1572  -20.1432  -14.3097 C   0  0  0  0  0  0  0  0  0  0  0  0
   23.5093  -19.0567  -14.3689 O   0  0  0  0  0  0  0  0  0  0  0  0
   19.5055  -22.8870  -13.0953 C   0  0  0  0  0  0  0  0  0  0  0  0
   19.8456  -22.3732  -14.4998 C   0  0  2  0  0  0  0  0  0  0  0  0
   19.2707  -23.3645  -15.4810 C   0  0  0  0  0  0  0  0  0  0  0  0
   21.3332  -22.2912  -14.5847 C   0  0  0  0  0  0  0  0  0  0  0  0
   21.9598  -21.2056  -13.7611 C   0  0  2  0  0  0  0  0  0  0  0  0
   23.4128  -21.2934  -14.0004 N   0  0  0  0  0  0  0  0  0  0  0  0
   21.6565  -21.2573  -12.3294 C   0  0  0  0  0  0  0  0  0  0  0  0
   22.3416  -22.1018  -11.4672 O   0  0  0  0  0  0  0  0  0  0  0  0
   20.7579  -20.5490  -11.7623 O   0  0  0  0  0  0  0  0  0  0  0  0
  2  3  1  0
  2  1  1  6
  3  4  1  0
  4  5  2  0
  5  6  1  0
  7  6  1  0
  8  7  2  0
  9  8  1  0
 10 11  1  0
 10  9  2  0
 11 12  2  0
 12  4  1  0
 12  7  1  0
 13 14  2  0
 13  2  1  0
 15 13  1  0
 16 15  1  0
 16 17  1  1
 17 18  1  0
 18 23  1  0
 18 19  2  0
 19 20  1  0
 20 21  2  0
 22 21  1  0
 23 22  2  0
 24 31  1  0
 24 16  1  0
 25 24  2  0
 27 26  1  1
 27 28  1  0
 27 29  1  0
 30 29  1  6
 30 32  1  0
 30 31  1  0
 32 33  1  0
 34 32  2  0
M  END
$$$$
