WFL.pdb
     RDKit          3D

 34 36  0  0  1  0  0  0  0  0999 V2000
   29.0553  -22.6380  -17.5922 N   0  0  0  0  0  0  0  0  0  0  0  0
   29.1058  -22.1973  -16.2027 C   0  0  1  0  0  0  0  0  0  0  0  0
   30.4497  -21.5716  -15.9082 C   0  0  0  0  0  0  0  0  0  0  0  0
   31.0076  -22.1382  -14.6845 C   0  0  0  0  0  0  0  0  0  0  0  0
   31.6919  -23.3576  -14.6687 C   0  0  0  0  0  0  0  0  0  0  0  0
   32.1133  -23.5752  -13.4255 N   0  0  0  0  0  0  0  0  0  0  0  0
   31.7305  -22.5433  -12.6219 C   0  0  0  0  0  0  0  0  0  0  0  0
   31.9274  -22.3288  -11.2645 C   0  0  0  0  0  0  0  0  0  0  0  0
   31.4172  -21.1888  -10.6830 C   0  0  0  0  0  0  0  0  0  0  0  0
   30.7263  -20.2972  -11.4692 C   0  0  0  0  0  0  0  0  0  0  0  0
   30.5334  -20.5123  -12.8121 C   0  0  0  0  0  0  0  0  0  0  0  0
   31.0417  -21.6567  -13.4212 C   0  0  0  0  0  0  0  0  0  0  0  0
   28.0022  -21.2880  -15.9094 C   0  0  0  0  0  0  0  0  0  0  0  0
   27.8845  -20.1404  -16.4478 O   0  0  0  0  0  0  0  0  0  0  0  0
   27.0170  -21.7483  -14.9656 N   0  0  0  0  0  0  0  0  0  0  0  0
   25.9659  -20.8521  -14.5694 C   0  0  1  0  0  0  0  0  0  0  0  0
   25.0152  -20.6867  -15.7549 C   0  0  0  0  0  0  0  0  0  0  0  0
   23.8692  -19.8137  -15.4084 C   0  0  0  0  0  0  0  0  0  0  0  0
   22.6282  -20.3546  -15.1440 C   0  0  0  0  0  0  0  0  0  0  0  0
   21.5392  -19.5669  -14.8176 C   0  0  0  0  0  0  0  0  0  0  0  0
   21.6551  -18.1947  -14.7433 C   0  0  0  0  0  0  0  0  0  0  0  0
   22.8885  -17.6406  -15.0049 C   0  0  0  0  0  0  0  0  0  0  0  0
   23.9803  -18.4472  -15.3336 C   0  0  0  0  0  0  0  0  0  0  0  0
   25.2563  -21.3013  -13.3702 C   0  0  0  0  0  0  0  0  0  0  0  0
   24.7064  -22.4383  -13.2779 O   0  0  0  0  0  0  0  0  0  0  0  0
   26.2913  -21.9225   -8.9845 C   0  0  0  0  0  0  0  0  0  0  0  0
   26.3105  -20.5000   -9.5579 C   0  0  2  0  0  0  0  0  0  0  0  0
   26.8796  -19.6027   -8.4871 C   0  0  0  0  0  0  0  0  0  0  0  0
   24.9006  -20.1495   -9.8990 C   0  0  0  0  0  0  0  0  0  0  0  0
   24.3335  -20.8710  -11.0852 C   0  0  2  0  0  0  0  0  0  0  0  0
   25.1543  -20.4693  -12.2431 N   0  0  0  0  0  0  0  0  0  0  0  0
   22.9111  -20.6309  -11.3378 C   0  0  0  0  0  0  0  0  0  0  0  0
   21.9274  -21.4703  -10.8338 O   0  0  0  0  0  0  0  0  0  0  0  0
   22.4615  -19.6539  -12.0265 O   0  0  0  0  0  0  0  0  0  0  0  0
  2  3  1  0
  2  1  1  6
  3  4  1  0
  4  5  2  0
  5  6  1  0
  7  6  1  0
  8  7  2  0
  9  8  1  0
 10 11  1  0
 10  9  2  0
 11 12  2  0
 12  4  1  0
 12  7  1  0
 13 14  2  0
 13  2  1  0
 15 13  1  0
 16 15  1  0
 16 17  1  6
 17 18  1  0
 18 23  1  0
 18 19  2  0
 19 20  1  0
 20 21  2  0
 22 21  1  0
 23 22  2  0
 24 31  1  0
 24 16  1  0
 25 24  2  0
 27 26  1  1
 27 28  1  0
 27 29  1  0
 30 29  1  1
 30 32  1  0
 30 31  1  0
 32 33  1  0
 34 32  2  0
M  END
$$$$
