WFL.pdb
     RDKit          3D

 34 36  0  0  1  0  0  0  0  0999 V2000
   29.0502  -20.7283  -14.4675 N   0  0  0  0  0  0  0  0  0  0  0  0
   27.8007  -20.0625  -14.1168 C   0  0  1  0  0  0  0  0  0  0  0  0
   27.0425  -19.6939  -15.3712 C   0  0  0  0  0  0  0  0  0  0  0  0
   27.6664  -18.5408  -16.0119 C   0  0  0  0  0  0  0  0  0  0  0  0
   28.5823  -18.6720  -17.0604 C   0  0  0  0  0  0  0  0  0  0  0  0
   28.9310  -17.4502  -17.4555 N   0  0  0  0  0  0  0  0  0  0  0  0
   28.2782  -16.5191  -16.7044 C   0  0  0  0  0  0  0  0  0  0  0  0
   28.3236  -15.1319  -16.7379 C   0  0  0  0  0  0  0  0  0  0  0  0
   27.5609  -14.4126  -15.8442 C   0  0  0  0  0  0  0  0  0  0  0  0
   26.7766  -15.0948  -14.9441 C   0  0  0  0  0  0  0  0  0  0  0  0
   26.7337  -16.4675  -14.9138 C   0  0  0  0  0  0  0  0  0  0  0  0
   27.4949  -17.2147  -15.8089 C   0  0  0  0  0  0  0  0  0  0  0  0
   27.0053  -20.8967  -13.2212 C   0  0  0  0  0  0  0  0  0  0  0  0
   26.9713  -22.1668  -13.3006 O   0  0  0  0  0  0  0  0  0  0  0  0
   26.2407  -20.2148  -12.2094 N   0  0  0  0  0  0  0  0  0  0  0  0
   25.2096  -20.9370  -11.5165 C   0  0  1  0  0  0  0  0  0  0  0  0
   25.1645  -20.4287  -10.0756 C   0  0  0  0  0  0  0  0  0  0  0  0
   26.4455  -20.6813   -9.3751 C   0  0  0  0  0  0  0  0  0  0  0  0
   27.2340  -21.7596   -9.7190 C   0  0  0  0  0  0  0  0  0  0  0  0
   28.4346  -22.0222   -9.0845 C   0  0  0  0  0  0  0  0  0  0  0  0
   28.8937  -21.2058   -8.0723 C   0  0  0  0  0  0  0  0  0  0  0  0
   28.1166  -20.1252   -7.7182 C   0  0  0  0  0  0  0  0  0  0  0  0
   26.9060  -19.8711   -8.3668 C   0  0  0  0  0  0  0  0  0  0  0  0
   23.9023  -20.8273  -12.1662 C   0  0  0  0  0  0  0  0  0  0  0  0
   23.4174  -19.7261  -12.5615 O   0  0  0  0  0  0  0  0  0  0  0  0
   19.9122  -24.8222  -14.5342 C   0  0  0  0  0  0  0  0  0  0  0  0
   20.0928  -23.3483  -14.1503 C   0  0  2  0  0  0  0  0  0  0  0  0
   20.0015  -22.5481  -15.4259 C   0  0  0  0  0  0  0  0  0  0  0  0
   21.4315  -23.2284  -13.5021 C   0  0  0  0  0  0  0  0  0  0  0  0
   21.7881  -21.8518  -13.0254 C   0  0  2  0  0  0  0  0  0  0  0  0
   23.1118  -21.9675  -12.3848 N   0  0  0  0  0  0  0  0  0  0  0  0
   20.8156  -21.2357  -12.1202 C   0  0  0  0  0  0  0  0  0  0  0  0
   20.8530  -21.4525  -10.7500 O   0  0  0  0  0  0  0  0  0  0  0  0
   19.8714  -20.4650  -12.5015 O   0  0  0  0  0  0  0  0  0  0  0  0
  2  3  1  0
  2  1  1  6
  3  4  1  0
  4  5  2  0
  5  6  1  0
  7  6  1  0
  8  7  2  0
  9  8  1  0
 10 11  1  0
 10  9  2  0
 11 12  2  0
 12  4  1  0
 12  7  1  0
 13 14  2  0
 13  2  1  0
 15 13  1  0
 16 15  1  0
 16 17  1  1
 17 18  1  0
 18 23  1  0
 18 19  2  0
 19 20  1  0
 20 21  2  0
 22 21  1  0
 23 22  2  0
 24 31  1  0
 24 16  1  0
 25 24  2  0
 27 26  1  6
 27 28  1  0
 27 29  1  0
 30 29  1  1
 30 32  1  0
 30 31  1  0
 32 33  1  0
 34 32  2  0
M  END
$$$$
