WFL.pdb
     RDKit          3D

 34 36  0  0  1  0  0  0  0  0999 V2000
   28.8709  -18.3625  -13.2397 N   0  0  0  0  0  0  0  0  0  0  0  0
   28.1911  -19.5565  -13.7296 C   0  0  1  0  0  0  0  0  0  0  0  0
   28.0334  -20.5575  -12.6084 C   0  0  0  0  0  0  0  0  0  0  0  0
   29.3304  -20.8351  -11.9999 C   0  0  0  0  0  0  0  0  0  0  0  0
   29.7421  -20.2317  -10.8075 C   0  0  0  0  0  0  0  0  0  0  0  0
   30.9387  -20.7207  -10.4923 N   0  0  0  0  0  0  0  0  0  0  0  0
   31.3302  -21.6239  -11.4347 C   0  0  0  0  0  0  0  0  0  0  0  0
   32.4904  -22.3789  -11.5415 C   0  0  0  0  0  0  0  0  0  0  0  0
   32.6466  -23.2226  -12.6193 C   0  0  0  0  0  0  0  0  0  0  0  0
   31.6444  -23.2893  -13.5583 C   0  0  0  0  0  0  0  0  0  0  0  0
   30.4976  -22.5411  -13.4495 C   0  0  0  0  0  0  0  0  0  0  0  0
   30.3176  -21.6831  -12.3677 C   0  0  0  0  0  0  0  0  0  0  0  0
   26.9104  -19.2082  -14.3372 C   0  0  0  0  0  0  0  0  0  0  0  0
   26.2419  -18.1761  -14.0077 O   0  0  0  0  0  0  0  0  0  0  0  0
   26.4148  -20.0952  -15.3574 N   0  0  0  0  0  0  0  0  0  0  0  0
   25.0554  -19.9505  -15.8002 C   0  0  1  0  0  0  0  0  0  0  0  0
   24.9903  -20.3710  -17.2684 C   0  0  0  0  0  0  0  0  0  0  0  0
   23.6178  -20.2296  -17.8086 C   0  0  0  0  0  0  0  0  0  0  0  0
   22.8302  -21.3408  -18.0265 C   0  0  0  0  0  0  0  0  0  0  0  0
   21.5455  -21.2421  -18.5293 C   0  0  0  0  0  0  0  0  0  0  0  0
   20.9976  -20.0140  -18.8351 C   0  0  0  0  0  0  0  0  0  0  0  0
   21.7726  -18.8955  -18.6227 C   0  0  0  0  0  0  0  0  0  0  0  0
   23.0686  -19.0089  -18.1145 C   0  0  0  0  0  0  0  0  0  0  0  0
   24.1062  -20.7073  -14.9819 C   0  0  0  0  0  0  0  0  0  0  0  0
   24.1171  -21.9711  -14.9019 O   0  0  0  0  0  0  0  0  0  0  0  0
   23.9192  -22.2446  -11.5347 C   0  0  0  0  0  0  0  0  0  0  0  0
   23.7295  -20.7233  -11.4899 C   0  0  2  0  0  0  0  0  0  0  0  0
   23.8915  -20.3029  -10.0502 C   0  0  0  0  0  0  0  0  0  0  0  0
   22.3602  -20.4400  -12.0112 C   0  0  0  0  0  0  0  0  0  0  0  0
   22.1345  -20.8134  -13.4461 C   0  0  2  0  0  0  0  0  0  0  0  0
   23.1198  -20.0465  -14.2315 N   0  0  0  0  0  0  0  0  0  0  0  0
   20.7746  -20.5884  -13.9409 C   0  0  0  0  0  0  0  0  0  0  0  0
   19.7508  -21.4945  -13.7024 O   0  0  0  0  0  0  0  0  0  0  0  0
   20.4198  -19.5657  -14.6185 O   0  0  0  0  0  0  0  0  0  0  0  0
  2  3  1  0
  2  1  1  1
  3  4  1  0
  4  5  2  0
  5  6  1  0
  7  6  1  0
  8  7  2  0
  9  8  1  0
 10 11  1  0
 10  9  2  0
 11 12  2  0
 12  4  1  0
 12  7  1  0
 13 14  2  0
 13  2  1  0
 15 13  1  0
 16 15  1  0
 16 17  1  6
 17 18  1  0
 18 23  1  0
 18 19  2  0
 19 20  1  0
 20 21  2  0
 22 21  1  0
 23 22  2  0
 24 31  1  0
 24 16  1  0
 25 24  2  0
 27 26  1  1
 27 28  1  0
 27 29  1  0
 30 29  1  1
 30 32  1  0
 30 31  1  0
 32 33  1  0
 34 32  2  0
M  END
$$$$
