GFY.pdb
     RDKit          3D

 28 29  0  0  1  0  0  0  0  0999 V2000
   28.8160  -21.3295  -14.2260 N   0  0  0  0  0  0  0  0  0  0  0  0
   27.8852  -20.3119  -13.7809 C   0  0  0  0  0  0  0  0  0  0  0  0
   26.6871  -20.9177  -13.1557 C   0  0  0  0  0  0  0  0  0  0  0  0
   26.3135  -22.0438  -13.5738 O   0  0  0  0  0  0  0  0  0  0  0  0
   25.9559  -20.2812  -12.1158 N   0  0  0  0  0  0  0  0  0  0  0  0
   24.7499  -20.8442  -11.5957 C   0  0  1  0  0  0  0  0  0  0  0  0
   24.4176  -20.3157  -10.2127 C   0  0  0  0  0  0  0  0  0  0  0  0
   25.5724  -20.3827   -9.3038 C   0  0  0  0  0  0  0  0  0  0  0  0
   26.3963  -21.5054   -9.3175 C   0  0  0  0  0  0  0  0  0  0  0  0
   27.4890  -21.6045   -8.4817 C   0  0  0  0  0  0  0  0  0  0  0  0
   27.8026  -20.5917   -7.6024 C   0  0  0  0  0  0  0  0  0  0  0  0
   26.9896  -19.4777   -7.5851 C   0  0  0  0  0  0  0  0  0  0  0  0
   25.8967  -19.3813   -8.4227 C   0  0  0  0  0  0  0  0  0  0  0  0
   23.5688  -20.7079  -12.4766 C   0  0  0  0  0  0  0  0  0  0  0  0
   23.2778  -19.6651  -13.1162 O   0  0  0  0  0  0  0  0  0  0  0  0
   16.2944  -23.2015  -16.8671 O   0  0  0  0  0  0  0  0  0  0  0  0
   17.4564  -23.2046  -16.1077 C   0  0  0  0  0  0  0  0  0  0  0  0
   18.6666  -22.8974  -16.6913 C   0  0  0  0  0  0  0  0  0  0  0  0
   19.8500  -22.8823  -15.9983 C   0  0  0  0  0  0  0  0  0  0  0  0
   19.8706  -23.1877  -14.6323 C   0  0  0  0  0  0  0  0  0  0  0  0
   21.1344  -23.2006  -13.8736 C   0  0  0  0  0  0  0  0  0  0  0  0
   21.5005  -21.8032  -13.4168 C   0  0  2  0  0  0  0  0  0  0  0  0
   22.7134  -21.8452  -12.6008 N   0  0  0  0  0  0  0  0  0  0  0  0
   20.3927  -21.2642  -12.6151 C   0  0  0  0  0  0  0  0  0  0  0  0
   20.1346  -21.5585  -11.4214 O   0  0  0  0  0  0  0  0  0  0  0  0
   18.6585  -23.4925  -14.0624 C   0  0  0  0  0  0  0  0  0  0  0  0
   17.4609  -23.5073  -14.7649 C   0  0  0  0  0  0  0  0  0  0  0  0
   19.5269  -20.3417  -13.1869 O   0  0  0  0  0  0  0  0  0  0  0  0
  2  1  1  0
  2  3  1  0
  3  4  2  0
  5  3  1  0
  5  6  1  0
  6  7  1  1
  8  7  1  0
  9  8  2  0
 10  9  1  0
 11 12  1  0
 11 10  2  0
 12 13  2  0
 13  8  1  0
 14  6  1  0
 14 15  2  0
 16 17  1  0
 17 27  2  0
 17 18  1  0
 18 19  2  0
 19 20  1  0
 20 21  1  0
 22 21  1  1
 22 23  1  0
 23 14  1  0
 24 28  1  0
 24 22  1  0
 25 24  2  0
 26 20  2  0
 27 26  1  0
M  END
$$$$
