GFY.pdb
     RDKit          3D

 28 29  0  0  1  0  0  0  0  0999 V2000
   27.0652  -20.7038  -16.0359 N   0  0  0  0  0  0  0  0  0  0  0  0
   25.9068  -20.2154  -16.7570 C   0  0  0  0  0  0  0  0  0  0  0  0
   24.8303  -19.8044  -15.8267 C   0  0  0  0  0  0  0  0  0  0  0  0
   24.9957  -20.0331  -14.6008 O   0  0  0  0  0  0  0  0  0  0  0  0
   23.6352  -19.1704  -16.2637 N   0  0  0  0  0  0  0  0  0  0  0  0
   22.5870  -18.8384  -15.3511 C   0  0  1  0  0  0  0  0  0  0  0  0
   21.7399  -17.6800  -15.8442 C   0  0  0  0  0  0  0  0  0  0  0  0
   20.7103  -17.2936  -14.8671 C   0  0  0  0  0  0  0  0  0  0  0  0
   21.0723  -16.5684  -13.7346 C   0  0  0  0  0  0  0  0  0  0  0  0
   20.1358  -16.1864  -12.7968 C   0  0  0  0  0  0  0  0  0  0  0  0
   18.8061  -16.5112  -12.9504 C   0  0  0  0  0  0  0  0  0  0  0  0
   18.4427  -17.2294  -14.0704 C   0  0  0  0  0  0  0  0  0  0  0  0
   19.3821  -17.6102  -15.0073 C   0  0  0  0  0  0  0  0  0  0  0  0
   21.7105  -19.9687  -14.9718 C   0  0  0  0  0  0  0  0  0  0  0  0
   21.2756  -20.8301  -15.7779 O   0  0  0  0  0  0  0  0  0  0  0  0
   18.1425  -26.1773   -9.8862 O   0  0  0  0  0  0  0  0  0  0  0  0
   18.8305  -25.0556  -10.3279 C   0  0  0  0  0  0  0  0  0  0  0  0
   19.8250  -25.1804  -11.2741 C   0  0  0  0  0  0  0  0  0  0  0  0
   20.5418  -24.1136  -11.7525 C   0  0  0  0  0  0  0  0  0  0  0  0
   20.2806  -22.8213  -11.2823 C   0  0  0  0  0  0  0  0  0  0  0  0
   21.0552  -21.6637  -11.7654 C   0  0  0  0  0  0  0  0  0  0  0  0
   20.5320  -21.1895  -13.1058 C   0  0  2  0  0  0  0  0  0  0  0  0
   21.3451  -20.0768  -13.5951 N   0  0  0  0  0  0  0  0  0  0  0  0
   19.1428  -20.7402  -12.9372 C   0  0  0  0  0  0  0  0  0  0  0  0
   18.7743  -19.6738  -12.3847 O   0  0  0  0  0  0  0  0  0  0  0  0
   19.2878  -22.7099  -10.3396 C   0  0  0  0  0  0  0  0  0  0  0  0
   18.5624  -23.7906   -9.8559 C   0  0  0  0  0  0  0  0  0  0  0  0
   18.1095  -21.5333  -13.4175 O   0  0  0  0  0  0  0  0  0  0  0  0
  2  1  1  0
  2  3  1  0
  3  4  2  0
  5  3  1  0
  5  6  1  0
  6  7  1  6
  8  7  1  0
  9  8  2  0
 10  9  1  0
 11 12  1  0
 11 10  2  0
 12 13  2  0
 13  8  1  0
 14  6  1  0
 14 15  2  0
 16 17  1  0
 17 27  2  0
 17 18  1  0
 18 19  2  0
 19 20  1  0
 20 21  1  0
 22 21  1  1
 22 23  1  0
 23 14  1  0
 24 28  1  0
 24 22  1  0
 25 24  2  0
 26 20  2  0
 27 26  1  0
M  END
$$$$
