GFY.pdb
     RDKit          3D

 28 29  0  0  1  0  0  0  0  0999 V2000
   28.5159  -19.3321  -14.5253 N   0  0  0  0  0  0  0  0  0  0  0  0
   27.7251  -18.8803  -13.3981 C   0  0  0  0  0  0  0  0  0  0  0  0
   26.8071  -19.9427  -12.9271 C   0  0  0  0  0  0  0  0  0  0  0  0
   26.5157  -20.8649  -13.7315 O   0  0  0  0  0  0  0  0  0  0  0  0
   26.2521  -19.9565  -11.6183 N   0  0  0  0  0  0  0  0  0  0  0  0
   25.2626  -20.9133  -11.2347 C   0  0  1  0  0  0  0  0  0  0  0  0
   25.3723  -21.2999   -9.7715 C   0  0  0  0  0  0  0  0  0  0  0  0
   26.7207  -21.0570   -9.2358 C   0  0  0  0  0  0  0  0  0  0  0  0
   27.8210  -21.6621   -9.8380 C   0  0  0  0  0  0  0  0  0  0  0  0
   29.1007  -21.4577   -9.3659 C   0  0  0  0  0  0  0  0  0  0  0  0
   29.3333  -20.6449   -8.2785 C   0  0  0  0  0  0  0  0  0  0  0  0
   28.2468  -20.0434   -7.6786 C   0  0  0  0  0  0  0  0  0  0  0  0
   26.9672  -20.2498   -8.1533 C   0  0  0  0  0  0  0  0  0  0  0  0
   23.8684  -20.5246  -11.5426 C   0  0  0  0  0  0  0  0  0  0  0  0
   23.2610  -19.5698  -10.9945 O   0  0  0  0  0  0  0  0  0  0  0  0
   25.9561  -20.2356  -17.9517 O   0  0  0  0  0  0  0  0  0  0  0  0
   25.0242  -20.0605  -16.9378 C   0  0  0  0  0  0  0  0  0  0  0  0
   23.8570  -20.7933  -16.9351 C   0  0  0  0  0  0  0  0  0  0  0  0
   22.8966  -20.6686  -15.9640 C   0  0  0  0  0  0  0  0  0  0  0  0
   23.0737  -19.7651  -14.9096 C   0  0  0  0  0  0  0  0  0  0  0  0
   22.0436  -19.5979  -13.8684 C   0  0  0  0  0  0  0  0  0  0  0  0
   21.8847  -20.8703  -13.0615 C   0  0  2  0  0  0  0  0  0  0  0  0
   23.1810  -21.2923  -12.5320 N   0  0  0  0  0  0  0  0  0  0  0  0
   21.3519  -21.9217  -13.9396 C   0  0  0  0  0  0  0  0  0  0  0  0
   21.9072  -23.0184  -14.1983 O   0  0  0  0  0  0  0  0  0  0  0  0
   24.2406  -19.0405  -14.9237 C   0  0  0  0  0  0  0  0  0  0  0  0
   25.2124  -19.1676  -15.9072 C   0  0  0  0  0  0  0  0  0  0  0  0
   20.1253  -21.7301  -14.5611 O   0  0  0  0  0  0  0  0  0  0  0  0
  2  1  1  0
  2  3  1  0
  3  4  2  0
  5  3  1  0
  5  6  1  0
  6  7  1  1
  8  7  1  0
  9  8  2  0
 10  9  1  0
 11 12  1  0
 11 10  2  0
 12 13  2  0
 13  8  1  0
 14  6  1  0
 14 15  2  0
 16 17  1  0
 17 27  2  0
 17 18  1  0
 18 19  2  0
 19 20  1  0
 20 21  1  0
 22 21  1  6
 22 23  1  0
 23 14  1  0
 24 28  1  0
 24 22  1  0
 25 24  2  0
 26 20  2  0
 27 26  1  0
M  END
$$$$
