GFY.pdb
     RDKit          3D

 28 29  0  0  1  0  0  0  0  0999 V2000
   22.9347  -11.1489  -17.7351 N   0  0  0  0  0  0  0  0  0  0  0  0
   23.0867  -12.3655  -16.9625 C   0  0  0  0  0  0  0  0  0  0  0  0
   24.3446  -13.0664  -17.3083 C   0  0  0  0  0  0  0  0  0  0  0  0
   24.7045  -13.0649  -18.5137 O   0  0  0  0  0  0  0  0  0  0  0  0
   25.1472  -13.7305  -16.3408 N   0  0  0  0  0  0  0  0  0  0  0  0
   26.3061  -14.4779  -16.7151 C   0  0  1  0  0  0  0  0  0  0  0  0
   27.4982  -14.1749  -15.8264 C   0  0  0  0  0  0  0  0  0  0  0  0
   28.0315  -12.8239  -16.0595 C   0  0  0  0  0  0  0  0  0  0  0  0
   29.0885  -12.6438  -16.9483 C   0  0  0  0  0  0  0  0  0  0  0  0
   29.6146  -11.3928  -17.1944 C   0  0  0  0  0  0  0  0  0  0  0  0
   29.1097  -10.2757  -16.5664 C   0  0  0  0  0  0  0  0  0  0  0  0
   28.0628  -10.4490  -15.6852 C   0  0  0  0  0  0  0  0  0  0  0  0
   27.5383  -11.7021  -15.4410 C   0  0  0  0  0  0  0  0  0  0  0  0
   26.1045  -15.9417  -16.7936 C   0  0  0  0  0  0  0  0  0  0  0  0
   25.8730  -16.6797  -15.8022 O   0  0  0  0  0  0  0  0  0  0  0  0
   21.7112  -19.0609  -13.5455 O   0  0  0  0  0  0  0  0  0  0  0  0
   22.3785  -18.8644  -14.7467 C   0  0  0  0  0  0  0  0  0  0  0  0
   22.2574  -17.6674  -15.4191 C   0  0  0  0  0  0  0  0  0  0  0  0
   22.8895  -17.4091  -16.6085 C   0  0  0  0  0  0  0  0  0  0  0  0
   23.7045  -18.3819  -17.1991 C   0  0  0  0  0  0  0  0  0  0  0  0
   24.3741  -18.1341  -18.4889 C   0  0  0  0  0  0  0  0  0  0  0  0
   25.8658  -17.9553  -18.2935 C   0  0  2  0  0  0  0  0  0  0  0  0
   26.1777  -16.5413  -18.0880 N   0  0  0  0  0  0  0  0  0  0  0  0
   26.5596  -18.4371  -19.4964 C   0  0  0  0  0  0  0  0  0  0  0  0
   26.6034  -19.6274  -19.8957 O   0  0  0  0  0  0  0  0  0  0  0  0
   23.8169  -19.5704  -16.5198 C   0  0  0  0  0  0  0  0  0  0  0  0
   23.1767  -19.8309  -15.3155 C   0  0  0  0  0  0  0  0  0  0  0  0
   27.2416  -17.5301  -20.2961 O   0  0  0  0  0  0  0  0  0  0  0  0
  2  1  1  0
  2  3  1  0
  3  4  2  0
  5  3  1  0
  5  6  1  0
  6  7  1  1
  8  7  1  0
  9  8  2  0
 10  9  1  0
 11 12  1  0
 11 10  2  0
 12 13  2  0
 13  8  1  0
 14  6  1  0
 14 15  2  0
 16 17  1  0
 17 27  2  0
 17 18  1  0
 18 19  2  0
 19 20  1  0
 20 21  1  0
 22 21  1  6
 22 23  1  0
 23 14  1  0
 24 28  1  0
 24 22  1  0
 25 24  2  0
 26 20  2  0
 27 26  1  0
M  END
$$$$
