GFY.pdb
     RDKit          3D

 28 29  0  0  1  0  0  0  0  0999 V2000
   22.1241  -21.3980   -6.6037 N   0  0  0  0  0  0  0  0  0  0  0  0
   23.4985  -21.8572   -6.5865 C   0  0  0  0  0  0  0  0  0  0  0  0
   24.3551  -21.0176   -7.4553 C   0  0  0  0  0  0  0  0  0  0  0  0
   23.7951  -20.1314   -8.1506 O   0  0  0  0  0  0  0  0  0  0  0  0
   25.7660  -21.1757   -7.5298 N   0  0  0  0  0  0  0  0  0  0  0  0
   26.5465  -20.4824   -8.5056 C   0  0  1  0  0  0  0  0  0  0  0  0
   27.9877  -20.3008   -8.0667 C   0  0  0  0  0  0  0  0  0  0  0  0
   28.0856  -19.7760   -6.6959 C   0  0  0  0  0  0  0  0  0  0  0  0
   28.3373  -20.6485   -5.6401 C   0  0  0  0  0  0  0  0  0  0  0  0
   28.4376  -20.1944   -4.3416 C   0  0  0  0  0  0  0  0  0  0  0  0
   28.2914  -18.8572   -4.0453 C   0  0  0  0  0  0  0  0  0  0  0  0
   28.0420  -17.9891   -5.0877 C   0  0  0  0  0  0  0  0  0  0  0  0
   27.9422  -18.4465   -6.3863 C   0  0  0  0  0  0  0  0  0  0  0  0
   26.5109  -21.0700   -9.8632 C   0  0  0  0  0  0  0  0  0  0  0  0
   26.8464  -22.2513  -10.1336 O   0  0  0  0  0  0  0  0  0  0  0  0
   19.8906  -18.5793  -11.3832 O   0  0  0  0  0  0  0  0  0  0  0  0
   21.0439  -19.3117  -11.6293 C   0  0  0  0  0  0  0  0  0  0  0  0
   21.3746  -20.3767  -10.8193 C   0  0  0  0  0  0  0  0  0  0  0  0
   22.4981  -21.1403  -11.0076 C   0  0  0  0  0  0  0  0  0  0  0  0
   23.3749  -20.8561  -12.0612 C   0  0  0  0  0  0  0  0  0  0  0  0
   24.6004  -21.6491  -12.2674 C   0  0  0  0  0  0  0  0  0  0  0  0
   25.8239  -20.7555  -12.2695 C   0  0  2  0  0  0  0  0  0  0  0  0
   26.0609  -20.2284  -10.9261 N   0  0  0  0  0  0  0  0  0  0  0  0
   25.5904  -19.6390  -13.1965 C   0  0  0  0  0  0  0  0  0  0  0  0
   25.4048  -19.7351  -14.4352 O   0  0  0  0  0  0  0  0  0  0  0  0
   23.0347  -19.7924  -12.8609 C   0  0  0  0  0  0  0  0  0  0  0  0
   21.8969  -19.0199  -12.6695 C   0  0  0  0  0  0  0  0  0  0  0  0
   25.5627  -18.3415  -12.7034 O   0  0  0  0  0  0  0  0  0  0  0  0
  2  1  1  0
  2  3  1  0
  3  4  2  0
  5  3  1  0
  5  6  1  0
  6  7  1  1
  8  7  1  0
  9  8  2  0
 10  9  1  0
 11 12  1  0
 11 10  2  0
 12 13  2  0
 13  8  1  0
 14  6  1  0
 14 15  2  0
 16 17  1  0
 17 27  2  0
 17 18  1  0
 18 19  2  0
 19 20  1  0
 20 21  1  0
 22 21  1  1
 22 23  1  0
 23 14  1  0
 24 28  1  0
 24 22  1  0
 25 24  2  0
 26 20  2  0
 27 26  1  0
M  END
$$$$
