GFY.pdb
     RDKit          3D

 28 29  0  0  1  0  0  0  0  0999 V2000
   24.8166  -10.2804  -16.6876 N   0  0  0  0  0  0  0  0  0  0  0  0
   24.3296   -9.6487  -17.8975 C   0  0  0  0  0  0  0  0  0  0  0  0
   23.4751   -8.4800  -17.5854 C   0  0  0  0  0  0  0  0  0  0  0  0
   23.0178   -8.3831  -16.4175 O   0  0  0  0  0  0  0  0  0  0  0  0
   23.1584   -7.4795  -18.5445 N   0  0  0  0  0  0  0  0  0  0  0  0
   22.3030   -6.3803  -18.2252 C   0  0  1  0  0  0  0  0  0  0  0  0
   22.8584   -5.0568  -18.7175 C   0  0  0  0  0  0  0  0  0  0  0  0
   23.9911   -4.5950  -17.9003 C   0  0  0  0  0  0  0  0  0  0  0  0
   25.2620   -5.1182  -18.1254 C   0  0  0  0  0  0  0  0  0  0  0  0
   26.3490   -4.7094  -17.3813 C   0  0  0  0  0  0  0  0  0  0  0  0
   26.2125   -3.7662  -16.3868 C   0  0  0  0  0  0  0  0  0  0  0  0
   24.9557   -3.2451  -16.1601 C   0  0  0  0  0  0  0  0  0  0  0  0
   23.8698   -3.6561  -16.9064 C   0  0  0  0  0  0  0  0  0  0  0  0
   20.9020   -6.5300  -18.6771 C   0  0  0  0  0  0  0  0  0  0  0  0
   20.5571   -6.6943  -19.8751 O   0  0  0  0  0  0  0  0  0  0  0  0
   18.3753   -9.1322  -12.1267 O   0  0  0  0  0  0  0  0  0  0  0  0
   18.3160   -8.8744  -13.4894 C   0  0  0  0  0  0  0  0  0  0  0  0
   17.2423   -8.1920  -14.0196 C   0  0  0  0  0  0  0  0  0  0  0  0
   17.1228   -7.9051  -15.3554 C   0  0  0  0  0  0  0  0  0  0  0  0
   18.1175   -8.3076  -16.2543 C   0  0  0  0  0  0  0  0  0  0  0  0
   17.9976   -8.0305  -17.6973 C   0  0  0  0  0  0  0  0  0  0  0  0
   18.4701   -6.6265  -18.0153 C   0  0  2  0  0  0  0  0  0  0  0  0
   19.8853   -6.4857  -17.6746 N   0  0  0  0  0  0  0  0  0  0  0  0
   17.6811   -5.6730  -17.2224 C   0  0  0  0  0  0  0  0  0  0  0  0
   16.4445   -5.4761  -17.3222 O   0  0  0  0  0  0  0  0  0  0  0  0
   19.1820   -8.9870  -15.7140 C   0  0  0  0  0  0  0  0  0  0  0  0
   19.3021   -9.2768  -14.3614 C   0  0  0  0  0  0  0  0  0  0  0  0
   18.3177   -4.8979  -16.2625 O   0  0  0  0  0  0  0  0  0  0  0  0
  2  1  1  0
  2  3  1  0
  3  4  2  0
  5  3  1  0
  5  6  1  0
  6  7  1  6
  8  7  1  0
  9  8  2  0
 10  9  1  0
 11 12  1  0
 11 10  2  0
 12 13  2  0
 13  8  1  0
 14  6  1  0
 14 15  2  0
 16 17  1  0
 17 27  2  0
 17 18  1  0
 18 19  2  0
 19 20  1  0
 20 21  1  0
 22 21  1  1
 22 23  1  0
 23 14  1  0
 24 28  1  0
 24 22  1  0
 25 24  2  0
 26 20  2  0
 27 26  1  0
M  END
$$$$
