KEG.pdb
     RDKit          3D

 23 22  0  0  1  0  0  0  0  0999 V2000
    6.0334  -17.4772   21.3028 N   0  0  0  0  0  0  0  0  0  0  0  0
    6.8825  -16.5354   21.9758 C   0  0  1  0  0  0  0  0  0  0  0  0
    6.7888  -15.1974   21.3632 C   0  0  0  0  0  0  0  0  0  0  0  0
    7.8764  -14.8961   20.4144 C   0  0  0  0  0  0  0  0  0  0  0  0
    7.8060  -13.6205   19.6564 C   0  0  0  0  0  0  0  0  0  0  0  0
    8.9708  -13.5399   18.6433 C   0  0  0  0  0  0  0  0  0  0  0  0
    8.8009  -12.3311   17.8895 N   0  0  0  0  0  0  0  0  0  0  0  0
    6.5857  -16.5028   23.4450 C   0  0  0  0  0  0  0  0  0  0  0  0
    5.4193  -16.4265   23.8768 O   0  0  0  0  0  0  0  0  0  0  0  0
    7.6198  -16.5580   24.3967 N   0  0  0  0  0  0  0  0  0  0  0  0
    7.5429  -16.5944   25.7992 C   0  0  1  0  0  0  0  0  0  0  0  0
    7.0574  -17.8422   26.4708 C   0  0  0  0  0  0  0  0  0  0  0  0
    7.8615  -19.0713   26.1711 C   0  0  0  0  0  0  0  0  0  0  0  0
    7.4174  -20.2468   27.0139 C   0  0  0  0  0  0  0  0  0  0  0  0
    6.2156  -20.6145   27.0202 O   0  0  0  0  0  0  0  0  0  0  0  0
    8.7118  -15.9657   26.4144 C   0  0  0  0  0  0  0  0  0  0  0  0
    9.8395  -16.1190   25.8735 O   0  0  0  0  0  0  0  0  0  0  0  0
    8.3165  -20.9333   27.7835 O   0  0  0  0  0  0  0  0  0  0  0  0
    8.6878  -15.1832   27.5892 N   0  0  0  0  0  0  0  0  0  0  0  0
    9.9059  -14.6423   28.1835 C   0  0  0  0  0  0  0  0  0  0  0  0
   10.5248  -15.6452   29.0892 C   0  0  0  0  0  0  0  0  0  0  0  0
   11.6075  -15.3471   29.8767 O   0  0  0  0  0  0  0  0  0  0  0  0
   10.0575  -16.8094   29.1511 O   0  0  0  0  0  0  0  0  0  0  0  0
  2  1  1  6
  2  8  1  0
  3  2  1  0
  4  3  1  0
  5  4  1  0
  6  5  1  0
  7  6  1  0
  8  9  2  0
 10  8  1  0
 10 11  1  0
 11 12  1  1
 12 13  1  0
 13 14  1  0
 14 18  1  0
 15 14  2  0
 16 17  2  0
 16 11  1  0
 19 16  1  0
 20 19  1  0
 21 20  1  0
 21 22  1  0
 23 21  2  0
M  END
$$$$
