KEG.pdb
     RDKit          3D

 23 22  0  0  1  0  0  0  0  0999 V2000
    9.0237  -17.8632   19.4997 N   0  0  0  0  0  0  0  0  0  0  0  0
    9.8645  -16.7992   19.9706 C   0  0  1  0  0  0  0  0  0  0  0  0
    9.0868  -15.5702   20.2138 C   0  0  0  0  0  0  0  0  0  0  0  0
    8.3982  -15.0513   19.0179 C   0  0  0  0  0  0  0  0  0  0  0  0
    7.6341  -13.7840   19.1490 C   0  0  0  0  0  0  0  0  0  0  0  0
    6.9038  -13.4650   17.8244 C   0  0  0  0  0  0  0  0  0  0  0  0
    6.1199  -12.2830   18.0406 N   0  0  0  0  0  0  0  0  0  0  0  0
   10.6367  -17.2247   21.1832 C   0  0  0  0  0  0  0  0  0  0  0  0
   10.1871  -18.0659   21.9851 O   0  0  0  0  0  0  0  0  0  0  0  0
   11.9059  -16.6868   21.4622 N   0  0  0  0  0  0  0  0  0  0  0  0
   12.7472  -16.9068   22.5659 C   0  0  1  0  0  0  0  0  0  0  0  0
   14.1585  -16.4071   22.5181 C   0  0  0  0  0  0  0  0  0  0  0  0
   14.9957  -16.7730   23.7066 C   0  0  0  0  0  0  0  0  0  0  0  0
   16.4077  -16.2452   23.5769 C   0  0  0  0  0  0  0  0  0  0  0  0
   16.6555  -15.0253   23.7497 O   0  0  0  0  0  0  0  0  0  0  0  0
   12.0434  -16.6775   23.8276 C   0  0  0  0  0  0  0  0  0  0  0  0
   11.4132  -15.5976   23.9845 O   0  0  0  0  0  0  0  0  0  0  0  0
   17.4423  -17.0869   23.2714 O   0  0  0  0  0  0  0  0  0  0  0  0
   12.0068  -17.5809   24.9119 N   0  0  0  0  0  0  0  0  0  0  0  0
   11.2526  -17.2988   26.1289 C   0  0  0  0  0  0  0  0  0  0  0  0
   11.5547  -18.3176   27.1682 C   0  0  0  0  0  0  0  0  0  0  0  0
   11.0974  -18.2036   28.4562 O   0  0  0  0  0  0  0  0  0  0  0  0
   12.2496  -19.3232   26.8795 O   0  0  0  0  0  0  0  0  0  0  0  0
  2  1  1  1
  2  8  1  0
  3  2  1  0
  4  3  1  0
  5  4  1  0
  6  5  1  0
  7  6  1  0
  8  9  2  0
 10  8  1  0
 10 11  1  0
 11 12  1  6
 12 13  1  0
 13 14  1  0
 14 18  1  0
 15 14  2  0
 16 17  2  0
 16 11  1  0
 19 16  1  0
 20 19  1  0
 21 20  1  0
 21 22  1  0
 23 21  2  0
M  END
$$$$
