KEG.pdb
     RDKit          3D

 23 22  0  0  1  0  0  0  0  0999 V2000
    6.2588  -16.8270   24.3404 N   0  0  0  0  0  0  0  0  0  0  0  0
    7.4630  -16.0457   24.3234 C   0  0  1  0  0  0  0  0  0  0  0  0
    7.5825  -15.2204   25.5395 C   0  0  0  0  0  0  0  0  0  0  0  0
    6.8520  -13.9416   25.4691 C   0  0  0  0  0  0  0  0  0  0  0  0
    6.9043  -13.0435   26.6513 C   0  0  0  0  0  0  0  0  0  0  0  0
    6.0049  -11.8078   26.4194 C   0  0  0  0  0  0  0  0  0  0  0  0
    6.0962  -10.9848   27.5911 N   0  0  0  0  0  0  0  0  0  0  0  0
    8.6640  -16.9189   24.1167 C   0  0  0  0  0  0  0  0  0  0  0  0
    8.7326  -18.0651   24.6008 O   0  0  0  0  0  0  0  0  0  0  0  0
    9.7650  -16.4738   23.3631 N   0  0  0  0  0  0  0  0  0  0  0  0
   10.9952  -17.1069   23.1181 C   0  0  1  0  0  0  0  0  0  0  0  0
   11.7491  -16.7759   21.8667 C   0  0  0  0  0  0  0  0  0  0  0  0
   13.0559  -17.4940   21.7114 C   0  0  0  0  0  0  0  0  0  0  0  0
   13.3436  -17.8197   20.2621 C   0  0  0  0  0  0  0  0  0  0  0  0
   13.8367  -16.9546   19.4954 O   0  0  0  0  0  0  0  0  0  0  0  0
   11.8043  -17.1899   24.3340 C   0  0  0  0  0  0  0  0  0  0  0  0
   13.0052  -16.8105   24.2919 O   0  0  0  0  0  0  0  0  0  0  0  0
   13.0745  -19.0634   19.7594 O   0  0  0  0  0  0  0  0  0  0  0  0
   11.3479  -17.6695   25.5809 N   0  0  0  0  0  0  0  0  0  0  0  0
   12.2391  -17.8144   26.7273 C   0  0  0  0  0  0  0  0  0  0  0  0
   11.4657  -18.2153   27.9317 C   0  0  0  0  0  0  0  0  0  0  0  0
   12.0652  -18.4239   29.1476 O   0  0  0  0  0  0  0  0  0  0  0  0
   10.2221  -18.3739   27.8561 O   0  0  0  0  0  0  0  0  0  0  0  0
  2  1  1  1
  2  8  1  0
  3  2  1  0
  4  3  1  0
  5  4  1  0
  6  5  1  0
  7  6  1  0
  8  9  2  0
 10  8  1  0
 10 11  1  0
 11 12  1  6
 12 13  1  0
 13 14  1  0
 14 18  1  0
 15 14  2  0
 16 17  2  0
 16 11  1  0
 19 16  1  0
 20 19  1  0
 21 20  1  0
 21 22  1  0
 23 21  2  0
M  END
$$$$
