KEG.pdb
     RDKit          3D

 23 22  0  0  1  0  0  0  0  0999 V2000
    7.3669  -16.7948   20.8304 N   0  0  0  0  0  0  0  0  0  0  0  0
    8.4255  -15.9551   21.3151 C   0  0  1  0  0  0  0  0  0  0  0  0
    7.9025  -14.6721   21.8195 C   0  0  0  0  0  0  0  0  0  0  0  0
    7.4798  -13.7395   20.7586 C   0  0  0  0  0  0  0  0  0  0  0  0
    8.2818  -13.6963   19.5089 C   0  0  0  0  0  0  0  0  0  0  0  0
    7.6548  -12.6970   18.5100 C   0  0  0  0  0  0  0  0  0  0  0  0
    8.4065  -12.7804   17.2908 N   0  0  0  0  0  0  0  0  0  0  0  0
    9.2468  -16.6710   22.3450 C   0  0  0  0  0  0  0  0  0  0  0  0
    8.7201  -17.3455   23.2507 O   0  0  0  0  0  0  0  0  0  0  0  0
   10.6518  -16.6076   22.3265 N   0  0  0  0  0  0  0  0  0  0  0  0
   11.5839  -17.1769   23.2103 C   0  0  1  0  0  0  0  0  0  0  0  0
   13.0450  -17.0692   22.8979 C   0  0  0  0  0  0  0  0  0  0  0  0
   13.6512  -15.7275   23.1802 C   0  0  0  0  0  0  0  0  0  0  0  0
   15.1109  -15.6816   22.7849 C   0  0  0  0  0  0  0  0  0  0  0  0
   15.6206  -14.6256   22.3326 O   0  0  0  0  0  0  0  0  0  0  0  0
   11.2208  -16.9244   24.6047 C   0  0  0  0  0  0  0  0  0  0  0  0
   10.6888  -15.8221   24.9041 O   0  0  0  0  0  0  0  0  0  0  0  0
   15.9045  -16.7885   22.9148 O   0  0  0  0  0  0  0  0  0  0  0  0
   11.4187  -17.8283   25.6709 N   0  0  0  0  0  0  0  0  0  0  0  0
   11.0600  -17.4940   27.0453 C   0  0  0  0  0  0  0  0  0  0  0  0
   11.5364  -18.5533   27.9728 C   0  0  0  0  0  0  0  0  0  0  0  0
   11.4388  -18.4281   29.3352 O   0  0  0  0  0  0  0  0  0  0  0  0
   12.0484  -19.6052   27.5158 O   0  0  0  0  0  0  0  0  0  0  0  0
  2  1  1  1
  2  8  1  0
  3  2  1  0
  4  3  1  0
  5  4  1  0
  6  5  1  0
  7  6  1  0
  8  9  2  0
 10  8  1  0
 10 11  1  0
 11 12  1  6
 12 13  1  0
 13 14  1  0
 14 18  1  0
 15 14  2  0
 16 17  2  0
 16 11  1  0
 19 16  1  0
 20 19  1  0
 21 20  1  0
 21 22  1  0
 23 21  2  0
M  END
$$$$
