KEG.pdb
     RDKit          3D

 23 22  0  0  1  0  0  0  0  0999 V2000
    5.8497  -15.8826   21.9658 N   0  0  0  0  0  0  0  0  0  0  0  0
    7.2810  -15.7934   21.9007 C   0  0  1  0  0  0  0  0  0  0  0  0
    7.7091  -14.6019   21.1448 C   0  0  0  0  0  0  0  0  0  0  0  0
    7.5554  -14.7327   19.6843 C   0  0  0  0  0  0  0  0  0  0  0  0
    7.9941  -13.5968   18.8333 C   0  0  0  0  0  0  0  0  0  0  0  0
    7.8578  -13.9693   17.3392 C   0  0  0  0  0  0  0  0  0  0  0  0
    8.2978  -12.8386   16.5733 N   0  0  0  0  0  0  0  0  0  0  0  0
    7.8822  -15.8338   23.2735 C   0  0  0  0  0  0  0  0  0  0  0  0
    7.4595  -15.1107   24.1961 O   0  0  0  0  0  0  0  0  0  0  0  0
    8.9525  -16.6957   23.5731 N   0  0  0  0  0  0  0  0  0  0  0  0
    9.8352  -16.6785   24.6660 C   0  0  1  0  0  0  0  0  0  0  0  0
   10.0096  -17.9224   25.4823 C   0  0  0  0  0  0  0  0  0  0  0  0
   10.8519  -17.7553   26.7110 C   0  0  0  0  0  0  0  0  0  0  0  0
   11.1200  -19.0820   27.3872 C   0  0  0  0  0  0  0  0  0  0  0  0
   11.0706  -19.1862   28.6387 O   0  0  0  0  0  0  0  0  0  0  0  0
   11.0692  -15.9617   24.3444 C   0  0  0  0  0  0  0  0  0  0  0  0
   11.7915  -15.5416   25.2876 O   0  0  0  0  0  0  0  0  0  0  0  0
   11.4188  -20.1942   26.6486 O   0  0  0  0  0  0  0  0  0  0  0  0
   11.5340  -15.6923   23.0388 N   0  0  0  0  0  0  0  0  0  0  0  0
   12.7984  -15.0062   22.7940 C   0  0  0  0  0  0  0  0  0  0  0  0
   13.9148  -15.9866   22.7501 C   0  0  0  0  0  0  0  0  0  0  0  0
   15.1783  -15.6359   22.3478 O   0  0  0  0  0  0  0  0  0  0  0  0
   13.7170  -17.1800   23.0879 O   0  0  0  0  0  0  0  0  0  0  0  0
  2  1  1  1
  2  8  1  0
  3  2  1  0
  4  3  1  0
  5  4  1  0
  6  5  1  0
  7  6  1  0
  8  9  2  0
 10  8  1  0
 10 11  1  0
 11 12  1  6
 12 13  1  0
 13 14  1  0
 14 18  1  0
 15 14  2  0
 16 17  2  0
 16 11  1  0
 19 16  1  0
 20 19  1  0
 21 20  1  0
 21 22  1  0
 23 21  2  0
M  END
$$$$
