KEG.pdb
     RDKit          3D

 23 22  0  0  1  0  0  0  0  0999 V2000
    7.8127  -14.2049   17.3289 N   0  0  0  0  0  0  0  0  0  0  0  0
    8.8106  -13.4927   18.0758 C   0  0  1  0  0  0  0  0  0  0  0  0
    8.2025  -12.6968   19.1579 C   0  0  0  0  0  0  0  0  0  0  0  0
    8.0067  -13.4447   20.4134 C   0  0  0  0  0  0  0  0  0  0  0  0
    7.2662  -12.7762   21.5141 C   0  0  0  0  0  0  0  0  0  0  0  0
    7.0969  -13.7461   22.7058 C   0  0  0  0  0  0  0  0  0  0  0  0
    6.2722  -13.0899   23.6793 N   0  0  0  0  0  0  0  0  0  0  0  0
    9.8630  -14.4286   18.5898 C   0  0  0  0  0  0  0  0  0  0  0  0
    9.6008  -15.6095   18.8891 O   0  0  0  0  0  0  0  0  0  0  0  0
   11.1943  -14.0057   18.7537 N   0  0  0  0  0  0  0  0  0  0  0  0
   12.3231  -14.7409   19.1531 C   0  0  1  0  0  0  0  0  0  0  0  0
   13.6669  -14.3683   18.6063 C   0  0  0  0  0  0  0  0  0  0  0  0
   14.7735  -15.3171   18.9566 C   0  0  0  0  0  0  0  0  0  0  0  0
   16.0722  -14.9311   18.2831 C   0  0  0  0  0  0  0  0  0  0  0  0
   16.2566  -13.7592   17.8681 O   0  0  0  0  0  0  0  0  0  0  0  0
   12.2889  -15.0354   20.5856 C   0  0  0  0  0  0  0  0  0  0  0  0
   11.9502  -14.1228   21.3858 O   0  0  0  0  0  0  0  0  0  0  0  0
   17.0717  -15.8502   18.1154 O   0  0  0  0  0  0  0  0  0  0  0  0
   12.6098  -16.2820   21.1653 N   0  0  0  0  0  0  0  0  0  0  0  0
   12.4462  -16.5363   22.5929 C   0  0  0  0  0  0  0  0  0  0  0  0
   12.8613  -17.9261   22.9180 C   0  0  0  0  0  0  0  0  0  0  0  0
   13.3143  -18.7954   21.9587 O   0  0  0  0  0  0  0  0  0  0  0  0
   12.8033  -18.3386   24.1029 O   0  0  0  0  0  0  0  0  0  0  0  0
  2  1  1  1
  2  8  1  0
  3  2  1  0
  4  3  1  0
  5  4  1  0
  6  5  1  0
  7  6  1  0
  8  9  2  0
 10  8  1  0
 10 11  1  0
 11 12  1  1
 12 13  1  0
 13 14  1  0
 14 18  1  0
 15 14  2  0
 16 17  2  0
 16 11  1  0
 19 16  1  0
 20 19  1  0
 21 20  1  0
 21 22  1  0
 23 21  2  0
M  END
$$$$
