KEG.pdb
     RDKit          3D

 23 22  0  0  1  0  0  0  0  0999 V2000
    7.7110  -17.9166   17.8654 N   0  0  0  0  0  0  0  0  0  0  0  0
    8.7880  -16.9991   18.1086 C   0  0  1  0  0  0  0  0  0  0  0  0
    8.3972  -15.6159   17.7795 C   0  0  0  0  0  0  0  0  0  0  0  0
    8.3768  -15.3275   16.3337 C   0  0  0  0  0  0  0  0  0  0  0  0
    7.9687  -13.9664   15.9006 C   0  0  0  0  0  0  0  0  0  0  0  0
    8.0961  -13.8373   14.3654 C   0  0  0  0  0  0  0  0  0  0  0  0
    7.5511  -12.5627   13.9954 N   0  0  0  0  0  0  0  0  0  0  0  0
    9.2874  -17.1220   19.5168 C   0  0  0  0  0  0  0  0  0  0  0  0
    8.6039  -16.7495   20.4898 O   0  0  0  0  0  0  0  0  0  0  0  0
   10.5544  -17.6665   19.7936 N   0  0  0  0  0  0  0  0  0  0  0  0
   11.1740  -17.9042   21.0320 C   0  0  1  0  0  0  0  0  0  0  0  0
   11.6462  -19.2881   21.3573 C   0  0  0  0  0  0  0  0  0  0  0  0
   10.6507  -20.1363   22.0899 C   0  0  0  0  0  0  0  0  0  0  0  0
   11.2105  -21.5063   22.4041 C   0  0  0  0  0  0  0  0  0  0  0  0
   12.4422  -21.6685   22.5938 O   0  0  0  0  0  0  0  0  0  0  0  0
   12.1008  -16.8275   21.3807 C   0  0  0  0  0  0  0  0  0  0  0  0
   12.9754  -16.4829   20.5416 O   0  0  0  0  0  0  0  0  0  0  0  0
   10.3857  -22.5946   22.4902 O   0  0  0  0  0  0  0  0  0  0  0  0
   12.1022  -16.1229   22.6041 N   0  0  0  0  0  0  0  0  0  0  0  0
   12.9699  -16.5025   23.7144 C   0  0  0  0  0  0  0  0  0  0  0  0
   14.3893  -16.2172   23.3778 C   0  0  0  0  0  0  0  0  0  0  0  0
   15.0793  -16.9491   22.4453 O   0  0  0  0  0  0  0  0  0  0  0  0
   14.9959  -15.2803   23.9538 O   0  0  0  0  0  0  0  0  0  0  0  0
  2  1  1  1
  2  8  1  0
  3  2  1  0
  4  3  1  0
  5  4  1  0
  6  5  1  0
  7  6  1  0
  8  9  2  0
 10  8  1  0
 10 11  1  0
 11 12  1  6
 12 13  1  0
 13 14  1  0
 14 18  1  0
 15 14  2  0
 16 17  2  0
 16 11  1  0
 19 16  1  0
 20 19  1  0
 21 20  1  0
 21 22  1  0
 23 21  2  0
M  END
$$$$
