KEG.pdb
     RDKit          3D

 23 22  0  0  1  0  0  0  0  0999 V2000
    6.9983  -15.0141   22.1235 N   0  0  0  0  0  0  0  0  0  0  0  0
    8.2369  -15.1185   21.4054 C   0  0  1  0  0  0  0  0  0  0  0  0
    8.3371  -14.0852   20.3582 C   0  0  0  0  0  0  0  0  0  0  0  0
    7.8700  -14.5295   19.0323 C   0  0  0  0  0  0  0  0  0  0  0  0
    8.0558  -13.6067   17.8830 C   0  0  0  0  0  0  0  0  0  0  0  0
    7.4254  -14.2127   16.6083 C   0  0  0  0  0  0  0  0  0  0  0  0
    7.4636  -13.2034   15.5893 N   0  0  0  0  0  0  0  0  0  0  0  0
    9.4046  -15.0814   22.3450 C   0  0  0  0  0  0  0  0  0  0  0  0
    9.3911  -14.3883   23.3805 O   0  0  0  0  0  0  0  0  0  0  0  0
   10.5660  -15.8328   22.0910 N   0  0  0  0  0  0  0  0  0  0  0  0
   11.7742  -15.8805   22.8066 C   0  0  1  0  0  0  0  0  0  0  0  0
   12.0165  -17.0156   23.7535 C   0  0  0  0  0  0  0  0  0  0  0  0
   11.5671  -16.7665   25.1618 C   0  0  0  0  0  0  0  0  0  0  0  0
   11.9971  -17.8820   26.0892 C   0  0  0  0  0  0  0  0  0  0  0  0
   11.2094  -18.3345   26.9576 O   0  0  0  0  0  0  0  0  0  0  0  0
   12.9106  -15.5166   21.9604 C   0  0  0  0  0  0  0  0  0  0  0  0
   12.9952  -16.0184   20.8076 O   0  0  0  0  0  0  0  0  0  0  0  0
   13.2514  -18.4211   25.9982 O   0  0  0  0  0  0  0  0  0  0  0  0
   13.9465  -14.6314   22.3298 N   0  0  0  0  0  0  0  0  0  0  0  0
   14.9759  -14.2083   21.3861 C   0  0  0  0  0  0  0  0  0  0  0  0
   16.1462  -15.1219   21.4588 C   0  0  0  0  0  0  0  0  0  0  0  0
   17.2778  -14.9188   20.7109 O   0  0  0  0  0  0  0  0  0  0  0  0
   16.1194  -16.1182   22.2231 O   0  0  0  0  0  0  0  0  0  0  0  0
  2  1  1  1
  2  8  1  0
  3  2  1  0
  4  3  1  0
  5  4  1  0
  6  5  1  0
  7  6  1  0
  8  9  2  0
 10  8  1  0
 10 11  1  0
 11 12  1  6
 12 13  1  0
 13 14  1  0
 14 18  1  0
 15 14  2  0
 16 17  2  0
 16 11  1  0
 19 16  1  0
 20 19  1  0
 21 20  1  0
 21 22  1  0
 23 21  2  0
M  END
$$$$
