TSW.pdb
     RDKit          3D

 28 29  0  0  1  0  0  0  0  0999 V2000
   28.6522  -28.3036  -16.2712 C   0  0  0  0  0  0  0  0  0  0  0  0
   29.3344  -28.5450  -17.5821 C   0  0  1  0  0  0  0  0  0  0  0  0
   30.3557  -27.6486  -17.8240 O   0  0  0  0  0  0  0  0  0  0  0  0
   29.8511  -29.9897  -17.5611 C   0  0  2  0  0  0  0  0  0  0  0  0
   30.3556  -30.2342  -18.9078 N   0  0  0  0  0  0  0  0  0  0  0  0
   28.7357  -30.9140  -17.2743 C   0  0  0  0  0  0  0  0  0  0  0  0
   27.7662  -31.0015  -18.0743 O   0  0  0  0  0  0  0  0  0  0  0  0
   26.7280  -34.1065  -14.2564 O   0  0  0  0  0  0  0  0  0  0  0  0
   27.8172  -33.2784  -14.4387 C   0  0  0  0  0  0  0  0  0  0  0  0
   27.6141  -32.5469  -15.7722 C   0  0  2  0  0  0  0  0  0  0  0  0
   28.7374  -31.7196  -16.0918 N   0  0  0  0  0  0  0  0  0  0  0  0
   26.4221  -31.6833  -15.5754 C   0  0  0  0  0  0  0  0  0  0  0  0
   26.5116  -30.7195  -14.7876 O   0  0  0  0  0  0  0  0  0  0  0  0
   25.2549  -32.0180  -16.3030 N   0  0  0  0  0  0  0  0  0  0  0  0
   24.0726  -31.2080  -16.1299 C   0  0  1  0  0  0  0  0  0  0  0  0
   23.7969  -30.4798  -17.4201 C   0  0  0  0  0  0  0  0  0  0  0  0
   22.6038  -29.6089  -17.2425 C   0  0  0  0  0  0  0  0  0  0  0  0
   22.0074  -29.2634  -16.0493 C   0  0  0  0  0  0  0  0  0  0  0  0
   20.9718  -28.4763  -16.3716 N   0  0  0  0  0  0  0  0  0  0  0  0
   20.8827  -28.3069  -17.6997 C   0  0  0  0  0  0  0  0  0  0  0  0
   20.0040  -27.5980  -18.5075 C   0  0  0  0  0  0  0  0  0  0  0  0
   20.1311  -27.5858  -19.8669 C   0  0  0  0  0  0  0  0  0  0  0  0
   21.1695  -28.3053  -20.4352 C   0  0  0  0  0  0  0  0  0  0  0  0
   22.0539  -29.0157  -19.6633 C   0  0  0  0  0  0  0  0  0  0  0  0
   21.9154  -29.0206  -18.2893 C   0  0  0  0  0  0  0  0  0  0  0  0
   22.9310  -32.0942  -15.8039 C   0  0  0  0  0  0  0  0  0  0  0  0
   21.9832  -31.7373  -14.8305 O   0  0  0  0  0  0  0  0  0  0  0  0
   22.7491  -33.1969  -16.3696 O   0  0  0  0  0  0  0  0  0  0  0  0
  2  3  1  0
  2  1  1  1
  4  5  1  6
  4  2  1  0
  6  4  1  0
  7  6  2  0
  9  8  1  0
 10  9  1  1
 10 11  1  0
 11  6  1  0
 12 10  1  0
 12 14  1  0
 13 12  2  0
 15 14  1  0
 15 26  1  0
 15 16  1  6
 17 16  1  0
 17 18  2  0
 19 18  1  0
 20 25  2  0
 20 19  1  0
 21 20  1  0
 22 23  1  0
 22 21  2  0
 23 24  2  0
 24 25  1  0
 25 17  1  0
 26 27  1  0
 28 26  2  0
M  END
$$$$
