TSW.pdb
     RDKit          3D

 28 29  0  0  1  0  0  0  0  0999 V2000
   27.7996  -25.2317  -18.2751 C   0  0  0  0  0  0  0  0  0  0  0  0
   26.7766  -24.3366  -17.6470 C   0  0  1  0  0  0  0  0  0  0  0  0
   25.4848  -24.6817  -17.9897 O   0  0  0  0  0  0  0  0  0  0  0  0
   26.9902  -24.4051  -16.1290 C   0  0  2  0  0  0  0  0  0  0  0  0
   26.5822  -25.7524  -15.7465 N   0  0  0  0  0  0  0  0  0  0  0  0
   26.1230  -23.4155  -15.4586 C   0  0  0  0  0  0  0  0  0  0  0  0
   25.2323  -23.7986  -14.6539 O   0  0  0  0  0  0  0  0  0  0  0  0
   26.2979  -19.5851  -16.6979 O   0  0  0  0  0  0  0  0  0  0  0  0
   25.8346  -19.6249  -15.3983 C   0  0  0  0  0  0  0  0  0  0  0  0
   25.3857  -21.0656  -15.1195 C   0  0  2  0  0  0  0  0  0  0  0  0
   26.2789  -22.0155  -15.7097 N   0  0  0  0  0  0  0  0  0  0  0  0
   24.0522  -21.1983  -15.7593 C   0  0  0  0  0  0  0  0  0  0  0  0
   23.9876  -21.7128  -16.8945 O   0  0  0  0  0  0  0  0  0  0  0  0
   22.9355  -20.7261  -15.0286 N   0  0  0  0  0  0  0  0  0  0  0  0
   21.6319  -20.7700  -15.6472 C   0  0  1  0  0  0  0  0  0  0  0  0
   20.5874  -20.8177  -14.5620 C   0  0  0  0  0  0  0  0  0  0  0  0
   20.8438  -19.7202  -13.5907 C   0  0  0  0  0  0  0  0  0  0  0  0
   21.2707  -18.4436  -13.8852 C   0  0  0  0  0  0  0  0  0  0  0  0
   21.3697  -17.8096  -12.7087 N   0  0  0  0  0  0  0  0  0  0  0  0
   21.0292  -18.6148  -11.6907 C   0  0  0  0  0  0  0  0  0  0  0  0
   20.9703  -18.4305  -10.3160 C   0  0  0  0  0  0  0  0  0  0  0  0
   20.5831  -19.4335   -9.4743 C   0  0  0  0  0  0  0  0  0  0  0  0
   20.2447  -20.6585  -10.0255 C   0  0  0  0  0  0  0  0  0  0  0  0
   20.2931  -20.8713  -11.3802 C   0  0  0  0  0  0  0  0  0  0  0  0
   20.6861  -19.8492  -12.2217 C   0  0  0  0  0  0  0  0  0  0  0  0
   21.4491  -19.5460  -16.4616 C   0  0  0  0  0  0  0  0  0  0  0  0
   22.3882  -18.5018  -16.4329 O   0  0  0  0  0  0  0  0  0  0  0  0
   20.4601  -19.3751  -17.2111 O   0  0  0  0  0  0  0  0  0  0  0  0
  2  3  1  0
  2  1  1  6
  4  5  1  1
  4  2  1  0
  6  4  1  0
  7  6  2  0
  9  8  1  0
 10  9  1  6
 10 11  1  0
 11  6  1  0
 12 10  1  0
 12 14  1  0
 13 12  2  0
 15 14  1  0
 15 26  1  0
 15 16  1  1
 17 16  1  0
 17 18  2  0
 19 18  1  0
 20 25  2  0
 20 19  1  0
 21 20  1  0
 22 23  1  0
 22 21  2  0
 23 24  2  0
 24 25  1  0
 25 17  1  0
 26 27  1  0
 28 26  2  0
M  END
$$$$
