TSW.pdb
     RDKit          3D

 28 29  0  0  1  0  0  0  0  0999 V2000
   25.9040  -21.9802  -19.5781 C   0  0  0  0  0  0  0  0  0  0  0  0
   26.0842  -21.8990  -18.0938 C   0  0  1  0  0  0  0  0  0  0  0  0
   25.3598  -22.8588  -17.4161 O   0  0  0  0  0  0  0  0  0  0  0  0
   27.5873  -22.0319  -17.8151 C   0  0  2  0  0  0  0  0  0  0  0  0
   27.9158  -23.4145  -18.1447 N   0  0  0  0  0  0  0  0  0  0  0  0
   27.8523  -21.7874  -16.3831 C   0  0  0  0  0  0  0  0  0  0  0  0
   28.2161  -22.7354  -15.6371 O   0  0  0  0  0  0  0  0  0  0  0  0
   26.9157  -18.1719  -14.6959 O   0  0  0  0  0  0  0  0  0  0  0  0
   28.0447  -18.7347  -14.1355 C   0  0  0  0  0  0  0  0  0  0  0  0
   28.0056  -20.2370  -14.4457 C   0  0  2  0  0  0  0  0  0  0  0  0
   27.7014  -20.4794  -15.8231 N   0  0  0  0  0  0  0  0  0  0  0  0
   26.9105  -20.7884  -13.6078 C   0  0  0  0  0  0  0  0  0  0  0  0
   25.8186  -21.0472  -14.1539 O   0  0  0  0  0  0  0  0  0  0  0  0
   27.1850  -20.9834  -12.2328 N   0  0  0  0  0  0  0  0  0  0  0  0
   26.1529  -21.5396  -11.3907 C   0  0  1  0  0  0  0  0  0  0  0  0
   26.7741  -21.9574  -10.0829 C   0  0  0  0  0  0  0  0  0  0  0  0
   26.7032  -20.8212   -9.1250 C   0  0  0  0  0  0  0  0  0  0  0  0
   25.7439  -19.8326   -9.0905 C   0  0  0  0  0  0  0  0  0  0  0  0
   26.0837  -19.0275   -8.0744 N   0  0  0  0  0  0  0  0  0  0  0  0
   27.2022  -19.4535   -7.4676 C   0  0  0  0  0  0  0  0  0  0  0  0
   27.9382  -18.9739   -6.3927 C   0  0  0  0  0  0  0  0  0  0  0  0
   29.0684  -19.6055   -5.9592 C   0  0  0  0  0  0  0  0  0  0  0  0
   29.4745  -20.7521   -6.6220 C   0  0  0  0  0  0  0  0  0  0  0  0
   28.7681  -21.2505   -7.6875 C   0  0  0  0  0  0  0  0  0  0  0  0
   27.6264  -20.6032   -8.1170 C   0  0  0  0  0  0  0  0  0  0  0  0
   25.1261  -20.5002  -11.1452 C   0  0  0  0  0  0  0  0  0  0  0  0
   23.8103  -20.8417  -10.7912 O   0  0  0  0  0  0  0  0  0  0  0  0
   25.3696  -19.2750  -11.2387 O   0  0  0  0  0  0  0  0  0  0  0  0
  2  3  1  0
  2  1  1  6
  4  5  1  1
  4  2  1  0
  6  4  1  0
  7  6  2  0
  9  8  1  0
 10  9  1  6
 10 11  1  0
 11  6  1  0
 12 10  1  0
 12 14  1  0
 13 12  2  0
 15 14  1  0
 15 26  1  0
 15 16  1  1
 17 16  1  0
 17 18  2  0
 19 18  1  0
 20 25  2  0
 20 19  1  0
 21 20  1  0
 22 23  1  0
 22 21  2  0
 23 24  2  0
 24 25  1  0
 25 17  1  0
 26 27  1  0
 28 26  2  0
M  END
$$$$
