TSW.pdb
     RDKit          3D

 28 29  0  0  1  0  0  0  0  0999 V2000
   15.7441  -10.7446  -18.8112 C   0  0  0  0  0  0  0  0  0  0  0  0
   16.9326   -9.9747  -18.3245 C   0  0  1  0  0  0  0  0  0  0  0  0
   17.2589  -10.2698  -17.0162 O   0  0  0  0  0  0  0  0  0  0  0  0
   18.0940  -10.2911  -19.2761 C   0  0  2  0  0  0  0  0  0  0  0  0
   18.3335  -11.7220  -19.1234 N   0  0  0  0  0  0  0  0  0  0  0  0
   19.2964   -9.5404  -18.8619 C   0  0  0  0  0  0  0  0  0  0  0  0
   20.4282   -9.8619  -19.3126 O   0  0  0  0  0  0  0  0  0  0  0  0
   19.7122   -5.8164  -19.2135 O   0  0  0  0  0  0  0  0  0  0  0  0
   20.6580   -6.8071  -19.0423 C   0  0  0  0  0  0  0  0  0  0  0  0
   20.3027   -7.5567  -17.7514 C   0  0  2  0  0  0  0  0  0  0  0  0
   19.1966   -8.4434  -17.9486 N   0  0  0  0  0  0  0  0  0  0  0  0
   19.9093   -6.5075  -16.7769 C   0  0  0  0  0  0  0  0  0  0  0  0
   18.6996   -6.2193  -16.6716 O   0  0  0  0  0  0  0  0  0  0  0  0
   20.9459   -5.9009  -16.0276 N   0  0  0  0  0  0  0  0  0  0  0  0
   20.7275   -5.6402  -14.6246 C   0  0  1  0  0  0  0  0  0  0  0  0
   20.5459   -6.9569  -13.9147 C   0  0  0  0  0  0  0  0  0  0  0  0
   20.3651   -6.7048  -12.4596 C   0  0  0  0  0  0  0  0  0  0  0  0
   21.1939   -7.1254  -11.4423 C   0  0  0  0  0  0  0  0  0  0  0  0
   20.6385   -6.6773  -10.3080 N   0  0  0  0  0  0  0  0  0  0  0  0
   19.5074   -5.9985  -10.5539 C   0  0  0  0  0  0  0  0  0  0  0  0
   18.5908   -5.3556   -9.7329 C   0  0  0  0  0  0  0  0  0  0  0  0
   17.4935   -4.7224  -10.2419 C   0  0  0  0  0  0  0  0  0  0  0  0
   17.3077   -4.7330  -11.6146 C   0  0  0  0  0  0  0  0  0  0  0  0
   18.1959   -5.3598  -12.4518 C   0  0  0  0  0  0  0  0  0  0  0  0
   19.3023   -5.9970  -11.9255 C   0  0  0  0  0  0  0  0  0  0  0  0
   21.9135   -4.9394  -14.0796 C   0  0  0  0  0  0  0  0  0  0  0  0
   23.1903   -5.1218  -14.6362 O   0  0  0  0  0  0  0  0  0  0  0  0
   21.8460   -4.1559  -13.1046 O   0  0  0  0  0  0  0  0  0  0  0  0
  2  3  1  0
  2  1  1  6
  4  5  1  1
  4  2  1  0
  6  4  1  0
  7  6  2  0
  9  8  1  0
 10  9  1  6
 10 11  1  0
 11  6  1  0
 12 10  1  0
 12 14  1  0
 13 12  2  0
 15 14  1  0
 15 26  1  0
 15 16  1  1
 17 16  1  0
 17 18  2  0
 19 18  1  0
 20 25  2  0
 20 19  1  0
 21 20  1  0
 22 23  1  0
 22 21  2  0
 23 24  2  0
 24 25  1  0
 25 17  1  0
 26 27  1  0
 28 26  2  0
M  END
$$$$
