TSW.pdb
     RDKit          3D

 28 29  0  0  1  0  0  0  0  0999 V2000
   22.3605  -10.2728  -22.1534 C   0  0  0  0  0  0  0  0  0  0  0  0
   22.6231   -9.2591  -21.0831 C   0  0  1  0  0  0  0  0  0  0  0  0
   21.9345   -9.5253  -19.9169 O   0  0  0  0  0  0  0  0  0  0  0  0
   24.1389   -9.2380  -20.8456 C   0  0  2  0  0  0  0  0  0  0  0  0
   24.4741  -10.5858  -20.3993 N   0  0  0  0  0  0  0  0  0  0  0  0
   24.4631   -8.2682  -19.7802 C   0  0  0  0  0  0  0  0  0  0  0  0
   24.7786   -8.6751  -18.6302 O   0  0  0  0  0  0  0  0  0  0  0  0
   24.0004   -4.2756  -20.5036 O   0  0  0  0  0  0  0  0  0  0  0  0
   24.9749   -4.5199  -19.5571 C   0  0  0  0  0  0  0  0  0  0  0  0
   24.7191   -5.9239  -18.9931 C   0  0  2  0  0  0  0  0  0  0  0  0
   24.4248   -6.8606  -20.0345 N   0  0  0  0  0  0  0  0  0  0  0  0
   23.5279   -5.7902  -18.1166 C   0  0  0  0  0  0  0  0  0  0  0  0
   22.4237   -6.1736  -18.5539 O   0  0  0  0  0  0  0  0  0  0  0  0
   23.7307   -5.2305  -16.8323 N   0  0  0  0  0  0  0  0  0  0  0  0
   22.5914   -5.0556  -15.9632 C   0  0  1  0  0  0  0  0  0  0  0  0
   22.9812   -5.4787  -14.5704 C   0  0  0  0  0  0  0  0  0  0  0  0
   22.9496   -6.9637  -14.4857 C   0  0  0  0  0  0  0  0  0  0  0  0
   23.8119   -7.8419  -15.1053 C   0  0  0  0  0  0  0  0  0  0  0  0
   23.4028   -9.0681  -14.7520 N   0  0  0  0  0  0  0  0  0  0  0  0
   22.3320   -9.0114  -13.9452 C   0  0  0  0  0  0  0  0  0  0  0  0
   21.5592   -9.9848  -13.3268 C   0  0  0  0  0  0  0  0  0  0  0  0
   20.4952   -9.6594  -12.5354 C   0  0  0  0  0  0  0  0  0  0  0  0
   20.1955   -8.3187  -12.3576 C   0  0  0  0  0  0  0  0  0  0  0  0
   20.9406   -7.3338  -12.9554 C   0  0  0  0  0  0  0  0  0  0  0  0
   22.0146   -7.6749  -13.7537 C   0  0  0  0  0  0  0  0  0  0  0  0
   22.2089   -3.6243  -15.9606 C   0  0  0  0  0  0  0  0  0  0  0  0
   21.1116   -3.1623  -15.2152 O   0  0  0  0  0  0  0  0  0  0  0  0
   22.8332   -2.7573  -16.6145 O   0  0  0  0  0  0  0  0  0  0  0  0
  2  3  1  0
  2  1  1  6
  4  5  1  1
  4  2  1  0
  6  4  1  0
  7  6  2  0
  9  8  1  0
 10  9  1  6
 10 11  1  0
 11  6  1  0
 12 10  1  0
 12 14  1  0
 13 12  2  0
 15 14  1  0
 15 26  1  0
 15 16  1  1
 17 16  1  0
 17 18  2  0
 19 18  1  0
 20 25  2  0
 20 19  1  0
 21 20  1  0
 22 23  1  0
 22 21  2  0
 23 24  2  0
 24 25  1  0
 25 17  1  0
 26 27  1  0
 28 26  2  0
M  END
$$$$
