GGD.pdb
     RDKit          3D

 17 16  0  0  1  0  0  0  0  0999 V2000
    1.9204  -21.7612   20.0063 N   0  0  0  0  0  0  0  0  0  0  0  0
    1.5640  -20.4228   20.3743 C   0  0  0  0  0  0  0  0  0  0  0  0
    2.7607  -19.6383   20.7691 C   0  0  0  0  0  0  0  0  0  0  0  0
    3.6395  -19.4539   19.8855 O   0  0  0  0  0  0  0  0  0  0  0  0
    2.9251  -19.1122   22.0765 N   0  0  0  0  0  0  0  0  0  0  0  0
    4.1177  -18.3731   22.3821 C   0  0  0  0  0  0  0  0  0  0  0  0
    5.1317  -19.2379   23.0664 C   0  0  0  0  0  0  0  0  0  0  0  0
    4.8788  -20.4427   23.3034 O   0  0  0  0  0  0  0  0  0  0  0  0
    6.3953  -18.7378   23.4663 N   0  0  0  0  0  0  0  0  0  0  0  0
    7.4044  -19.5645   24.0946 C   0  0  1  0  0  0  0  0  0  0  0  0
    8.7979  -19.1659   23.6886 C   0  0  0  0  0  0  0  0  0  0  0  0
    9.0567  -19.2484   22.2514 C   0  0  0  0  0  0  0  0  0  0  0  0
    8.2449  -19.8289   21.4970 O   0  0  0  0  0  0  0  0  0  0  0  0
    7.1882  -19.5705   25.5376 C   0  0  0  0  0  0  0  0  0  0  0  0
    6.4720  -18.7350   26.1559 O   0  0  0  0  0  0  0  0  0  0  0  0
   10.1856  -18.7009   21.6703 O   0  0  0  0  0  0  0  0  0  0  0  0
    7.7975  -20.5471   26.3057 O   0  0  0  0  0  0  0  0  0  0  0  0
  1  2  1  0
  3  2  1  0
  3  4  2  0
  5  6  1  0
  5  3  1  0
  7  8  2  0
  7  6  1  0
  9  7  1  0
 10  9  1  0
 10 14  1  0
 10 11  1  1
 12 16  1  0
 12 11  1  0
 13 12  2  0
 14 17  1  0
 15 14  2  0
M  END
$$$$
