GGD.pdb
     RDKit          3D

 17 16  0  0  1  0  0  0  0  0999 V2000
    6.6668  -15.3000   22.5476 N   0  0  0  0  0  0  0  0  0  0  0  0
    7.1334  -13.9947   22.1840 C   0  0  0  0  0  0  0  0  0  0  0  0
    7.5288  -13.9454   20.7541 C   0  0  0  0  0  0  0  0  0  0  0  0
    7.4656  -15.0242   20.1067 O   0  0  0  0  0  0  0  0  0  0  0  0
    7.9607  -12.7478   20.1277 N   0  0  0  0  0  0  0  0  0  0  0  0
    8.4186  -12.8022   18.7678 C   0  0  0  0  0  0  0  0  0  0  0  0
    9.7743  -13.4328   18.6765 C   0  0  0  0  0  0  0  0  0  0  0  0
   10.3525  -13.5321   17.5685 O   0  0  0  0  0  0  0  0  0  0  0  0
   10.4461  -13.9340   19.8186 N   0  0  0  0  0  0  0  0  0  0  0  0
   11.6398  -14.7490   19.7333 C   0  0  1  0  0  0  0  0  0  0  0  0
   12.8942  -13.9174   19.7088 C   0  0  0  0  0  0  0  0  0  0  0  0
   14.1329  -14.6922   19.6396 C   0  0  0  0  0  0  0  0  0  0  0  0
   14.0951  -15.9227   19.4172 O   0  0  0  0  0  0  0  0  0  0  0  0
   11.6142  -15.7485   20.7960 C   0  0  0  0  0  0  0  0  0  0  0  0
   11.0782  -15.5761   21.9258 O   0  0  0  0  0  0  0  0  0  0  0  0
   15.3773  -14.1149   19.8126 O   0  0  0  0  0  0  0  0  0  0  0  0
   12.2103  -16.9782   20.5784 O   0  0  0  0  0  0  0  0  0  0  0  0
  1  2  1  0
  3  2  1  0
  3  4  2  0
  5  6  1  0
  5  3  1  0
  7  8  2  0
  7  6  1  0
  9  7  1  0
 10  9  1  0
 10 14  1  0
 10 11  1  1
 12 16  1  0
 12 11  1  0
 13 12  2  0
 14 17  1  0
 15 14  2  0
M  END
$$$$
