GGD.pdb
     RDKit          3D

 17 16  0  0  1  0  0  0  0  0999 V2000
    7.7008  -13.3754   15.3631 N   0  0  0  0  0  0  0  0  0  0  0  0
    7.8564  -13.2473   16.7820 C   0  0  0  0  0  0  0  0  0  0  0  0
    8.1706  -14.5563   17.4075 C   0  0  0  0  0  0  0  0  0  0  0  0
    8.5125  -15.4908   16.6350 O   0  0  0  0  0  0  0  0  0  0  0  0
    8.0950  -14.7646   18.8089 N   0  0  0  0  0  0  0  0  0  0  0  0
    8.6060  -15.9896   19.3568 C   0  0  0  0  0  0  0  0  0  0  0  0
    9.6667  -15.7251   20.3811 C   0  0  0  0  0  0  0  0  0  0  0  0
   10.1025  -14.5626   20.5549 O   0  0  0  0  0  0  0  0  0  0  0  0
   10.2108  -16.7602   21.1808 N   0  0  0  0  0  0  0  0  0  0  0  0
   11.1510  -16.5123   22.2536 C   0  0  1  0  0  0  0  0  0  0  0  0
   10.8419  -17.3296   23.4792 C   0  0  0  0  0  0  0  0  0  0  0  0
   11.6710  -17.0139   24.6422 C   0  0  0  0  0  0  0  0  0  0  0  0
   12.5873  -16.1671   24.5519 O   0  0  0  0  0  0  0  0  0  0  0  0
   12.5092  -16.6914   21.7510 C   0  0  0  0  0  0  0  0  0  0  0  0
   12.9264  -17.7351   21.1767 O   0  0  0  0  0  0  0  0  0  0  0  0
   11.4859  -17.6226   25.8698 O   0  0  0  0  0  0  0  0  0  0  0  0
   13.4234  -15.6634   21.9005 O   0  0  0  0  0  0  0  0  0  0  0  0
  1  2  1  0
  3  2  1  0
  3  4  2  0
  5  6  1  0
  5  3  1  0
  7  8  2  0
  7  6  1  0
  9  7  1  0
 10  9  1  0
 10 14  1  0
 10 11  1  1
 12 16  1  0
 12 11  1  0
 13 12  2  0
 14 17  1  0
 15 14  2  0
M  END
$$$$
