GGD.pdb
     RDKit          3D

 17 16  0  0  1  0  0  0  0  0999 V2000
   13.2779  -21.5146   15.8161 N   0  0  0  0  0  0  0  0  0  0  0  0
   12.5713  -21.6493   17.0556 C   0  0  0  0  0  0  0  0  0  0  0  0
   12.2732  -20.3223   17.6502 C   0  0  0  0  0  0  0  0  0  0  0  0
   13.0755  -19.3866   17.3894 O   0  0  0  0  0  0  0  0  0  0  0  0
   11.1419  -20.0985   18.4767 N   0  0  0  0  0  0  0  0  0  0  0  0
   10.9498  -18.7972   19.0526 C   0  0  0  0  0  0  0  0  0  0  0  0
   11.7087  -18.6544   20.3362 C   0  0  0  0  0  0  0  0  0  0  0  0
   11.4252  -17.7350   21.1399 O   0  0  0  0  0  0  0  0  0  0  0  0
   12.7594  -19.5374   20.6878 N   0  0  0  0  0  0  0  0  0  0  0  0
   13.5614  -19.3683   21.8813 C   0  0  1  0  0  0  0  0  0  0  0  0
   13.0470  -20.1910   23.0319 C   0  0  0  0  0  0  0  0  0  0  0  0
   13.8202  -20.0556   24.2662 C   0  0  0  0  0  0  0  0  0  0  0  0
   14.8609  -19.3617   24.2851 O   0  0  0  0  0  0  0  0  0  0  0  0
   14.9619  -19.6175   21.5563 C   0  0  0  0  0  0  0  0  0  0  0  0
   15.3929  -20.6742   21.0168 O   0  0  0  0  0  0  0  0  0  0  0  0
   13.4463  -20.6741   25.4450 O   0  0  0  0  0  0  0  0  0  0  0  0
   15.9039  -18.6467   21.8482 O   0  0  0  0  0  0  0  0  0  0  0  0
  1  2  1  0
  3  2  1  0
  3  4  2  0
  5  6  1  0
  5  3  1  0
  7  8  2  0
  7  6  1  0
  9  7  1  0
 10  9  1  0
 10 14  1  0
 10 11  1  1
 12 16  1  0
 12 11  1  0
 13 12  2  0
 14 17  1  0
 15 14  2  0
M  END
$$$$
