VQS.pdb
     RDKit          3D

 23 22  0  0  1  0  0  0  0  0999 V2000
   16.2193  -11.0168  -16.8046 C   0  0  0  0  0  0  0  0  0  0  0  0
   17.3459  -11.7554  -17.4394 C   0  0  2  0  0  0  0  0  0  0  0  0
   16.8346  -13.0121  -18.1376 C   0  0  0  0  0  0  0  0  0  0  0  0
   18.3853  -12.2085  -16.4415 C   0  0  2  0  0  0  0  0  0  0  0  0
   17.9018  -13.0901  -15.4404 N   0  0  0  0  0  0  0  0  0  0  0  0
   18.9455  -10.9944  -15.7942 C   0  0  0  0  0  0  0  0  0  0  0  0
   18.3730  -10.5913  -14.7452 O   0  0  0  0  0  0  0  0  0  0  0  0
   24.2430  -10.3683  -16.7927 N   0  0  0  0  0  0  0  0  0  0  0  0
   23.8974  -10.7335  -15.4631 C   0  0  0  0  0  0  0  0  0  0  0  0
   24.5790  -11.6022  -14.8706 O   0  0  0  0  0  0  0  0  0  0  0  0
   22.7268  -10.0877  -14.7690 C   0  0  0  0  0  0  0  0  0  0  0  0
   22.0911   -9.0551  -15.6561 C   0  0  0  0  0  0  0  0  0  0  0  0
   20.6033   -9.0824  -15.6529 C   0  0  2  0  0  0  0  0  0  0  0  0
   20.0587  -10.2760  -16.2715 N   0  0  0  0  0  0  0  0  0  0  0  0
   19.9632   -7.8938  -16.2432 C   0  0  0  0  0  0  0  0  0  0  0  0
   19.8324   -7.7120  -17.4719 O   0  0  0  0  0  0  0  0  0  0  0  0
   17.2984   -5.7013  -14.1679 O   0  0  0  0  0  0  0  0  0  0  0  0
   17.3776   -5.6345  -15.5654 C   0  0  0  0  0  0  0  0  0  0  0  0
   18.8500   -5.6403  -15.9106 C   0  0  2  0  0  0  0  0  0  0  0  0
   19.4480   -6.8639  -15.4009 N   0  0  0  0  0  0  0  0  0  0  0  0
   19.5566   -4.4422  -15.4768 C   0  0  0  0  0  0  0  0  0  0  0  0
   20.5006   -4.5294  -14.6597 O   0  0  0  0  0  0  0  0  0  0  0  0
   19.2191   -3.1815  -15.9421 O   0  0  0  0  0  0  0  0  0  0  0  0
  2  1  1  1
  2  4  1  0
  2  3  1  0
  4  6  1  0
  4  5  1  1
  6  7  2  0
  9 11  1  0
  9  8  1  0
 10  9  2  0
 13 12  1  6
 12 11  1  0
 13 15  1  0
 14  6  1  0
 14 13  1  0
 15 16  2  0
 18 17  1  0
 19 18  1  1
 19 21  1  0
 20 19  1  0
 20 15  1  0
 21 22  2  0
 21 23  1  0
M  END
$$$$
