VQS.pdb
     RDKit          3D

 23 22  0  0  1  0  0  0  0  0999 V2000
   27.3060  -10.2894  -16.6209 C   0  0  0  0  0  0  0  0  0  0  0  0
   26.6620  -11.2316  -15.6641 C   0  0  2  0  0  0  0  0  0  0  0  0
   27.6464  -12.3172  -15.2393 C   0  0  0  0  0  0  0  0  0  0  0  0
   25.4663  -11.9402  -16.2552 C   0  0  2  0  0  0  0  0  0  0  0  0
   25.7527  -12.7397  -17.3919 N   0  0  0  0  0  0  0  0  0  0  0  0
   24.4682  -10.9041  -16.6256 C   0  0  0  0  0  0  0  0  0  0  0  0
   24.5454  -10.4281  -17.7910 O   0  0  0  0  0  0  0  0  0  0  0  0
   18.5181  -11.1590  -16.1449 N   0  0  0  0  0  0  0  0  0  0  0  0
   18.6486   -9.8325  -16.6387 C   0  0  0  0  0  0  0  0  0  0  0  0
   17.6331   -9.2372  -17.0687 O   0  0  0  0  0  0  0  0  0  0  0  0
   19.9888   -9.1447  -16.6479 C   0  0  0  0  0  0  0  0  0  0  0  0
   21.0696  -10.0888  -16.2030 C   0  0  0  0  0  0  0  0  0  0  0  0
   22.4263   -9.4797  -16.1504 C   0  0  2  0  0  0  0  0  0  0  0  0
   23.4567  -10.4270  -15.7699 N   0  0  0  0  0  0  0  0  0  0  0  0
   22.5315   -8.2801  -15.3015 C   0  0  0  0  0  0  0  0  0  0  0  0
   22.8113   -8.3112  -14.0847 O   0  0  0  0  0  0  0  0  0  0  0  0
   23.3626   -3.5964  -15.1816 O   0  0  0  0  0  0  0  0  0  0  0  0
   23.1818   -4.7384  -15.9735 C   0  0  0  0  0  0  0  0  0  0  0  0
   22.4731   -5.7531  -15.1044 C   0  0  2  0  0  0  0  0  0  0  0  0
   22.3087   -6.9855  -15.8584 N   0  0  0  0  0  0  0  0  0  0  0  0
   21.2222   -5.2655  -14.5383 C   0  0  0  0  0  0  0  0  0  0  0  0
   20.1395   -5.4744  -15.1305 O   0  0  0  0  0  0  0  0  0  0  0  0
   21.1806   -4.5639  -13.3442 O   0  0  0  0  0  0  0  0  0  0  0  0
  2  1  1  6
  2  4  1  0
  2  3  1  0
  4  6  1  0
  4  5  1  6
  6  7  2  0
  9 11  1  0
  9  8  1  0
 10  9  2  0
 13 12  1  1
 12 11  1  0
 13 15  1  0
 14  6  1  0
 14 13  1  0
 15 16  2  0
 18 17  1  0
 19 18  1  6
 19 21  1  0
 20 19  1  0
 20 15  1  0
 21 22  2  0
 21 23  1  0
M  END
$$$$
