VQS.pdb
     RDKit          3D

 23 22  0  0  1  0  0  0  0  0999 V2000
   21.1600   -8.9738  -17.0610 C   0  0  0  0  0  0  0  0  0  0  0  0
   21.2000   -9.7703  -15.8033 C   0  0  2  0  0  0  0  0  0  0  0  0
   21.3836  -11.2525  -16.1154 C   0  0  0  0  0  0  0  0  0  0  0  0
   19.9293   -9.6533  -14.9953 C   0  0  2  0  0  0  0  0  0  0  0  0
   18.7603  -10.1070  -15.6593 N   0  0  0  0  0  0  0  0  0  0  0  0
   19.7597   -8.2235  -14.6296 C   0  0  0  0  0  0  0  0  0  0  0  0
   19.0413   -7.5209  -15.3918 O   0  0  0  0  0  0  0  0  0  0  0  0
   19.4960   -5.0905   -9.1665 N   0  0  0  0  0  0  0  0  0  0  0  0
   18.4937   -5.8570   -9.8211 C   0  0  0  0  0  0  0  0  0  0  0  0
   17.4236   -6.1065   -9.2187 O   0  0  0  0  0  0  0  0  0  0  0  0
   18.7091   -6.3661  -11.2223 C   0  0  0  0  0  0  0  0  0  0  0  0
   20.0531   -5.9372  -11.7392 C   0  0  0  0  0  0  0  0  0  0  0  0
   20.2595   -6.1987  -13.1894 C   0  0  2  0  0  0  0  0  0  0  0  0
   20.3424   -7.6125  -13.5026 N   0  0  0  0  0  0  0  0  0  0  0  0
   21.4128   -5.5007  -13.7841 C   0  0  0  0  0  0  0  0  0  0  0  0
   22.5513   -6.0033  -13.8898 O   0  0  0  0  0  0  0  0  0  0  0  0
   23.7269   -5.1193  -16.0023 O   0  0  0  0  0  0  0  0  0  0  0  0
   22.5406   -4.4417  -16.3144 C   0  0  0  0  0  0  0  0  0  0  0  0
   22.2484   -3.5304  -15.1434 C   0  0  2  0  0  0  0  0  0  0  0  0
   21.2682   -4.1713  -14.2815 N   0  0  0  0  0  0  0  0  0  0  0  0
   21.8608   -2.1816  -15.5351 C   0  0  0  0  0  0  0  0  0  0  0  0
   20.6621   -1.9170  -15.7794 O   0  0  0  0  0  0  0  0  0  0  0  0
   22.7854   -1.1562  -15.6509 O   0  0  0  0  0  0  0  0  0  0  0  0
  2  1  1  6
  2  4  1  0
  2  3  1  0
  4  6  1  0
  4  5  1  6
  6  7  2  0
  9 11  1  0
  9  8  1  0
 10  9  2  0
 13 12  1  1
 12 11  1  0
 13 15  1  0
 14  6  1  0
 14 13  1  0
 15 16  2  0
 18 17  1  0
 19 18  1  6
 19 21  1  0
 20 19  1  0
 20 15  1  0
 21 22  2  0
 21 23  1  0
M  END
$$$$
