VQS.pdb
     RDKit          3D

 23 22  0  0  1  0  0  0  0  0999 V2000
   22.0027   -8.4378  -14.9863 C   0  0  0  0  0  0  0  0  0  0  0  0
   21.7862   -9.5196  -13.9859 C   0  0  2  0  0  0  0  0  0  0  0  0
   22.7551  -10.6730  -14.2283 C   0  0  0  0  0  0  0  0  0  0  0  0
   20.3949  -10.1042  -14.0473 C   0  0  2  0  0  0  0  0  0  0  0  0
   20.0784  -10.7554  -15.2677 N   0  0  0  0  0  0  0  0  0  0  0  0
   19.4318   -8.9961  -13.8208 C   0  0  0  0  0  0  0  0  0  0  0  0
   18.9373   -8.4514  -14.8453 O   0  0  0  0  0  0  0  0  0  0  0  0
   15.8290   -7.9875   -8.7598 N   0  0  0  0  0  0  0  0  0  0  0  0
   15.5203   -6.8491   -9.5531 C   0  0  0  0  0  0  0  0  0  0  0  0
   14.5988   -6.0817   -9.1895 O   0  0  0  0  0  0  0  0  0  0  0  0
   16.2881   -6.5628  -10.8171 C   0  0  0  0  0  0  0  0  0  0  0  0
   17.3315   -7.6182  -11.0515 C   0  0  0  0  0  0  0  0  0  0  0  0
   18.0868   -7.4558  -12.3232 C   0  0  2  0  0  0  0  0  0  0  0  0
   19.0425   -8.5225  -12.5531 N   0  0  0  0  0  0  0  0  0  0  0  0
   18.7629   -6.1559  -12.4777 C   0  0  0  0  0  0  0  0  0  0  0  0
   19.9026   -5.9071  -12.0315 O   0  0  0  0  0  0  0  0  0  0  0  0
   20.6303   -3.1154  -14.8554 O   0  0  0  0  0  0  0  0  0  0  0  0
   19.9827   -4.3004  -14.4812 C   0  0  0  0  0  0  0  0  0  0  0  0
   18.8097   -3.8920  -13.6182 C   0  0  2  0  0  0  0  0  0  0  0  0
   18.1162   -5.0888  -13.1697 N   0  0  0  0  0  0  0  0  0  0  0  0
   17.9215   -2.9297  -14.2569 C   0  0  0  0  0  0  0  0  0  0  0  0
   16.8571   -3.3139  -14.7916 O   0  0  0  0  0  0  0  0  0  0  0  0
   18.2131   -1.5758  -14.2979 O   0  0  0  0  0  0  0  0  0  0  0  0
  2  1  1  6
  2  4  1  0
  2  3  1  0
  4  6  1  0
  4  5  1  6
  6  7  2  0
  9 11  1  0
  9  8  1  0
 10  9  2  0
 13 12  1  1
 12 11  1  0
 13 15  1  0
 14  6  1  0
 14 13  1  0
 15 16  2  0
 18 17  1  0
 19 18  1  6
 19 21  1  0
 20 19  1  0
 20 15  1  0
 21 22  2  0
 21 23  1  0
M  END
$$$$
