VQS.pdb
     RDKit          3D

 23 22  0  0  1  0  0  0  0  0999 V2000
   26.9160  -10.3997  -16.8068 C   0  0  0  0  0  0  0  0  0  0  0  0
   26.4158  -11.3095  -15.7391 C   0  0  2  0  0  0  0  0  0  0  0  0
   27.4731  -12.3518  -15.3870 C   0  0  0  0  0  0  0  0  0  0  0  0
   25.1786  -12.0715  -16.1512 C   0  0  2  0  0  0  0  0  0  0  0  0
   25.3559  -12.9329  -17.2647 N   0  0  0  0  0  0  0  0  0  0  0  0
   24.1224  -11.0758  -16.4671 C   0  0  0  0  0  0  0  0  0  0  0  0
   23.9715  -10.7697  -17.6812 O   0  0  0  0  0  0  0  0  0  0  0  0
   18.3317  -10.7690  -14.9291 N   0  0  0  0  0  0  0  0  0  0  0  0
   18.4736   -9.4575  -15.4585 C   0  0  0  0  0  0  0  0  0  0  0  0
   17.4486   -8.7658  -15.6620 O   0  0  0  0  0  0  0  0  0  0  0  0
   19.8370   -8.8997  -15.7733 C   0  0  0  0  0  0  0  0  0  0  0  0
   20.9023   -9.9230  -15.4990 C   0  0  0  0  0  0  0  0  0  0  0  0
   22.2832   -9.4618  -15.8063 C   0  0  2  0  0  0  0  0  0  0  0  0
   23.2919  -10.4613  -15.5102 N   0  0  0  0  0  0  0  0  0  0  0  0
   22.6627   -8.1862  -15.1742 C   0  0  0  0  0  0  0  0  0  0  0  0
   23.1816   -8.0983  -14.0415 O   0  0  0  0  0  0  0  0  0  0  0  0
   23.7138   -4.9519  -17.3164 O   0  0  0  0  0  0  0  0  0  0  0  0
   22.7176   -4.6153  -16.3900 C   0  0  0  0  0  0  0  0  0  0  0  0
   22.7831   -5.6566  -15.2951 C   0  0  2  0  0  0  0  0  0  0  0  0
   22.4430   -6.9535  -15.8581 N   0  0  0  0  0  0  0  0  0  0  0  0
   21.9854   -5.3225  -14.1225 C   0  0  0  0  0  0  0  0  0  0  0  0
   20.8497   -5.8257  -13.9695 O   0  0  0  0  0  0  0  0  0  0  0  0
   22.4426   -4.4507  -13.1473 O   0  0  0  0  0  0  0  0  0  0  0  0
  2  1  1  6
  2  4  1  0
  2  3  1  0
  4  6  1  0
  4  5  1  6
  6  7  2  0
  9 11  1  0
  9  8  1  0
 10  9  2  0
 13 12  1  1
 12 11  1  0
 13 15  1  0
 14  6  1  0
 14 13  1  0
 15 16  2  0
 18 17  1  0
 19 18  1  6
 19 21  1  0
 20 19  1  0
 20 15  1  0
 21 22  2  0
 21 23  1  0
M  END
$$$$
