VQS.pdb
     RDKit          3D

 23 22  0  0  1  0  0  0  0  0999 V2000
   18.2765  -12.6634  -17.1868 C   0  0  0  0  0  0  0  0  0  0  0  0
   18.3464  -11.3539  -16.4809 C   0  0  2  0  0  0  0  0  0  0  0  0
   19.7678  -11.0833  -15.9968 C   0  0  0  0  0  0  0  0  0  0  0  0
   17.4569  -11.2978  -15.2614 C   0  0  2  0  0  0  0  0  0  0  0  0
   16.0877  -11.5725  -15.5128 N   0  0  0  0  0  0  0  0  0  0  0  0
   17.5830   -9.9383  -14.6759 C   0  0  0  0  0  0  0  0  0  0  0  0
   17.1327   -8.9787  -15.3592 O   0  0  0  0  0  0  0  0  0  0  0  0
   14.9080   -7.8082   -9.3076 N   0  0  0  0  0  0  0  0  0  0  0  0
   16.1400   -8.3807   -9.7259 C   0  0  0  0  0  0  0  0  0  0  0  0
   16.9569   -8.7736   -8.8607 O   0  0  0  0  0  0  0  0  0  0  0  0
   16.4657   -8.5166  -11.1903 C   0  0  0  0  0  0  0  0  0  0  0  0
   17.9247   -8.2523  -11.4333 C   0  0  0  0  0  0  0  0  0  0  0  0
   18.3277   -8.3306  -12.8636 C   0  0  2  0  0  0  0  0  0  0  0  0
   18.1652   -9.6582  -13.4247 N   0  0  0  0  0  0  0  0  0  0  0  0
   19.6896   -7.8459  -13.1483 C   0  0  0  0  0  0  0  0  0  0  0  0
   20.7246   -8.5089  -12.9265 O   0  0  0  0  0  0  0  0  0  0  0  0
   22.6119   -5.3841  -15.7771 O   0  0  0  0  0  0  0  0  0  0  0  0
   21.3236   -5.8767  -15.5288 C   0  0  0  0  0  0  0  0  0  0  0  0
   21.1984   -6.0077  -14.0274 C   0  0  2  0  0  0  0  0  0  0  0  0
   19.8867   -6.5493  -13.7100 N   0  0  0  0  0  0  0  0  0  0  0  0
   21.4909   -4.7755  -13.3069 C   0  0  0  0  0  0  0  0  0  0  0  0
   20.5884   -3.9302  -13.1132 O   0  0  0  0  0  0  0  0  0  0  0  0
   22.7557   -4.4943  -12.8160 O   0  0  0  0  0  0  0  0  0  0  0  0
  2  1  1  1
  2  4  1  0
  2  3  1  0
  4  6  1  0
  4  5  1  6
  6  7  2  0
  9 11  1  0
  9  8  1  0
 10  9  2  0
 13 12  1  1
 12 11  1  0
 13 15  1  0
 14  6  1  0
 14 13  1  0
 15 16  2  0
 18 17  1  0
 19 18  1  6
 19 21  1  0
 20 19  1  0
 20 15  1  0
 21 22  2  0
 21 23  1  0
M  END
$$$$
