VQS.pdb
     RDKit          3D

 23 22  0  0  1  0  0  0  0  0999 V2000
   14.3963  -11.7209  -16.6690 C   0  0  0  0  0  0  0  0  0  0  0  0
   15.2849  -10.6260  -16.1900 C   0  0  2  0  0  0  0  0  0  0  0  0
   15.2880   -9.4676  -17.1831 C   0  0  0  0  0  0  0  0  0  0  0  0
   16.7218  -11.0642  -16.0333 C   0  0  2  0  0  0  0  0  0  0  0  0
   16.9064  -12.2133  -15.2216 N   0  0  0  0  0  0  0  0  0  0  0  0
   17.4770   -9.9265  -15.4484 C   0  0  0  0  0  0  0  0  0  0  0  0
   17.2179   -9.6247  -14.2516 O   0  0  0  0  0  0  0  0  0  0  0  0
   23.3740   -8.6276  -15.7084 N   0  0  0  0  0  0  0  0  0  0  0  0
   22.6486   -9.3701  -14.7372 C   0  0  0  0  0  0  0  0  0  0  0  0
   23.2689  -10.1396  -13.9668 O   0  0  0  0  0  0  0  0  0  0  0  0
   21.1518   -9.2381  -14.6302 C   0  0  0  0  0  0  0  0  0  0  0  0
   20.6407   -8.2174  -15.6071 C   0  0  0  0  0  0  0  0  0  0  0  0
   19.1635   -8.0394  -15.5848 C   0  0  2  0  0  0  0  0  0  0  0  0
   18.4491   -9.1750  -16.1363 N   0  0  0  0  0  0  0  0  0  0  0  0
   18.6812   -6.8038  -16.2261 C   0  0  0  0  0  0  0  0  0  0  0  0
   18.6070   -6.6449  -17.4627 O   0  0  0  0  0  0  0  0  0  0  0  0
   15.6343   -4.8972  -15.3307 O   0  0  0  0  0  0  0  0  0  0  0  0
   16.6381   -3.9287  -15.1953 C   0  0  0  0  0  0  0  0  0  0  0  0
   17.8245   -4.4294  -15.9883 C   0  0  2  0  0  0  0  0  0  0  0  0
   18.2641   -5.6971  -15.4279 N   0  0  0  0  0  0  0  0  0  0  0  0
   18.9037   -3.4570  -16.1021 C   0  0  0  0  0  0  0  0  0  0  0  0
   18.6752   -2.3132  -16.5560 O   0  0  0  0  0  0  0  0  0  0  0  0
   20.2022   -3.7529  -15.7199 O   0  0  0  0  0  0  0  0  0  0  0  0
  2  1  1  6
  2  4  1  0
  2  3  1  0
  4  6  1  0
  4  5  1  1
  6  7  2  0
  9 11  1  0
  9  8  1  0
 10  9  2  0
 13 12  1  6
 12 11  1  0
 13 15  1  0
 14  6  1  0
 14 13  1  0
 15 16  2  0
 18 17  1  0
 19 18  1  1
 19 21  1  0
 20 19  1  0
 20 15  1  0
 21 22  2  0
 21 23  1  0
M  END
$$$$
