IDS.pdb
     RDKit          3D

 23 22  0  0  1  0  0  0  0  0999 V2000
    5.5631  -11.4829   26.7349 C   0  0  0  0  0  0  0  0  0  0  0  0
    5.4611  -12.7958   26.0227 C   0  0  0  0  0  0  0  0  0  0  0  0
    6.7578  -13.5404   25.8647 C   0  0  2  0  0  0  0  0  0  0  0  0
    7.8214  -12.6457   25.2521 C   0  0  0  0  0  0  0  0  0  0  0  0
    6.5949  -14.8162   25.1386 C   0  0  2  0  0  0  0  0  0  0  0  0
    5.5555  -15.6201   25.7864 N   0  0  0  0  0  0  0  0  0  0  0  0
    7.8564  -15.6456   25.0505 C   0  0  0  0  0  0  0  0  0  0  0  0
    7.9998  -16.5762   25.8502 O   0  0  0  0  0  0  0  0  0  0  0  0
    8.8489  -15.3857   24.0967 N   0  0  0  0  0  0  0  0  0  0  0  0
   10.0958  -16.0339   23.8214 C   0  0  1  0  0  0  0  0  0  0  0  0
   10.7283  -15.8415   22.5059 C   0  0  0  0  0  0  0  0  0  0  0  0
   11.9949  -16.5368   22.2416 C   0  0  0  0  0  0  0  0  0  0  0  0
   13.0881  -15.9773   22.5717 O   0  0  0  0  0  0  0  0  0  0  0  0
   10.9702  -16.1446   24.9734 C   0  0  0  0  0  0  0  0  0  0  0  0
   12.0915  -16.7304   24.8317 O   0  0  0  0  0  0  0  0  0  0  0  0
   12.0783  -17.7703   21.6527 O   0  0  0  0  0  0  0  0  0  0  0  0
    9.9746  -14.7617   28.8002 O   0  0  0  0  0  0  0  0  0  0  0  0
   11.3193  -14.6938   28.4523 C   0  0  0  0  0  0  0  0  0  0  0  0
   11.5921  -15.7154   27.3794 C   0  0  2  0  0  0  0  0  0  0  0  0
   10.6768  -15.6490   26.2680 N   0  0  0  0  0  0  0  0  0  0  0  0
   11.5854  -17.0545   27.9719 C   0  0  0  0  0  0  0  0  0  0  0  0
   12.4688  -17.3619   28.9909 O   0  0  0  0  0  0  0  0  0  0  0  0
   10.8042  -17.9657   27.5993 O   0  0  0  0  0  0  0  0  0  0  0  0
  2  1  1  0
  3  2  1  0
  3  4  1  6
  5  7  1  0
  5  6  1  1
  5  3  1  0
  7  8  2  0
  9  7  1  0
  9 10  1  0
 10 14  1  0
 10 11  1  6
 12 13  2  0
 12 11  1  0
 14 15  2  0
 14 20  1  0
 16 12  1  0
 17 18  1  0
 19 18  1  1
 19 21  1  0
 20 19  1  0
 21 23  2  0
 21 22  1  0
M  END
$$$$
