IDS.pdb
     RDKit          3D

 23 22  0  0  1  0  0  0  0  0999 V2000
    7.9145  -12.0690   27.1326 C   0  0  0  0  0  0  0  0  0  0  0  0
    7.5487  -13.4538   26.6971 C   0  0  0  0  0  0  0  0  0  0  0  0
    7.1665  -13.5892   25.2492 C   0  0  2  0  0  0  0  0  0  0  0  0
    6.0546  -12.6178   24.8926 C   0  0  0  0  0  0  0  0  0  0  0  0
    6.8522  -14.9825   24.8730 C   0  0  2  0  0  0  0  0  0  0  0  0
    5.7848  -15.4947   25.7360 N   0  0  0  0  0  0  0  0  0  0  0  0
    8.0295  -15.9281   24.9550 C   0  0  0  0  0  0  0  0  0  0  0  0
    8.0872  -16.7063   25.9126 O   0  0  0  0  0  0  0  0  0  0  0  0
    9.0389  -15.9405   23.9838 N   0  0  0  0  0  0  0  0  0  0  0  0
   10.1847  -16.7825   23.8143 C   0  0  1  0  0  0  0  0  0  0  0  0
   10.9140  -16.7514   22.5356 C   0  0  0  0  0  0  0  0  0  0  0  0
   10.1400  -16.5389   21.3055 C   0  0  0  0  0  0  0  0  0  0  0  0
    9.2508  -17.3877   20.9800 O   0  0  0  0  0  0  0  0  0  0  0  0
   10.9638  -16.9691   25.0235 C   0  0  0  0  0  0  0  0  0  0  0  0
   11.8302  -16.0884   25.3305 O   0  0  0  0  0  0  0  0  0  0  0  0
   10.3154  -15.4678   20.4705 O   0  0  0  0  0  0  0  0  0  0  0  0
   10.0082  -18.9630   28.3949 O   0  0  0  0  0  0  0  0  0  0  0  0
   11.2716  -19.3588   27.9693 C   0  0  0  0  0  0  0  0  0  0  0  0
   11.7783  -18.3564   26.9655 C   0  0  2  0  0  0  0  0  0  0  0  0
   10.8423  -18.0695   25.9079 N   0  0  0  0  0  0  0  0  0  0  0  0
   13.0511  -18.8244   26.4130 C   0  0  0  0  0  0  0  0  0  0  0  0
   14.1122  -19.0939   27.2585 O   0  0  0  0  0  0  0  0  0  0  0  0
   13.2420  -19.0001   25.1834 O   0  0  0  0  0  0  0  0  0  0  0  0
  2  1  1  0
  3  2  1  0
  3  4  1  1
  5  7  1  0
  5  6  1  1
  5  3  1  0
  7  8  2  0
  9  7  1  0
  9 10  1  0
 10 14  1  0
 10 11  1  6
 12 13  2  0
 12 11  1  0
 14 15  2  0
 14 20  1  0
 16 12  1  0
 17 18  1  0
 19 18  1  1
 19 21  1  0
 20 19  1  0
 21 23  2  0
 21 22  1  0
M  END
$$$$
