IDS.pdb
     RDKit          3D

 23 22  0  0  1  0  0  0  0  0999 V2000
    7.7319  -12.5131   27.3836 C   0  0  0  0  0  0  0  0  0  0  0  0
    7.3917  -13.8127   26.7230 C   0  0  0  0  0  0  0  0  0  0  0  0
    7.3229  -13.7686   25.2216 C   0  0  2  0  0  0  0  0  0  0  0  0
    6.3349  -12.7120   24.7585 C   0  0  0  0  0  0  0  0  0  0  0  0
    7.0639  -15.0952   24.6261 C   0  0  2  0  0  0  0  0  0  0  0  0
    5.8370  -15.6576   25.1961 N   0  0  0  0  0  0  0  0  0  0  0  0
    8.1837  -16.0926   24.8216 C   0  0  0  0  0  0  0  0  0  0  0  0
    8.0761  -16.9195   25.7330 O   0  0  0  0  0  0  0  0  0  0  0  0
    9.3212  -16.0990   24.0041 N   0  0  0  0  0  0  0  0  0  0  0  0
   10.5140  -16.8906   24.0410 C   0  0  1  0  0  0  0  0  0  0  0  0
   11.4558  -16.8206   22.9115 C   0  0  0  0  0  0  0  0  0  0  0  0
   10.9005  -16.7866   21.5521 C   0  0  0  0  0  0  0  0  0  0  0  0
   10.1116  -17.7131   21.1829 O   0  0  0  0  0  0  0  0  0  0  0  0
   11.0744  -17.0513   25.3693 C   0  0  0  0  0  0  0  0  0  0  0  0
   11.7268  -16.0824   25.8753 O   0  0  0  0  0  0  0  0  0  0  0  0
   11.1810  -15.8054   20.6389 O   0  0  0  0  0  0  0  0  0  0  0  0
    9.7818  -19.7990   28.0015 O   0  0  0  0  0  0  0  0  0  0  0  0
   10.6222  -18.8278   28.5348 C   0  0  0  0  0  0  0  0  0  0  0  0
   11.5733  -18.3702   27.4600 C   0  0  2  0  0  0  0  0  0  0  0  0
   10.9574  -18.2172   26.1660 N   0  0  0  0  0  0  0  0  0  0  0  0
   12.7034  -19.2985   27.3852 C   0  0  0  0  0  0  0  0  0  0  0  0
   13.5106  -19.4925   28.4916 O   0  0  0  0  0  0  0  0  0  0  0  0
   12.9915  -19.9464   26.3476 O   0  0  0  0  0  0  0  0  0  0  0  0
  2  1  1  0
  3  2  1  0
  3  4  1  1
  5  7  1  0
  5  6  1  1
  5  3  1  0
  7  8  2  0
  9  7  1  0
  9 10  1  0
 10 14  1  0
 10 11  1  6
 12 13  2  0
 12 11  1  0
 14 15  2  0
 14 20  1  0
 16 12  1  0
 17 18  1  0
 19 18  1  1
 19 21  1  0
 20 19  1  0
 21 23  2  0
 21 22  1  0
M  END
$$$$
