IDS.pdb
     RDKit          3D

 23 22  0  0  1  0  0  0  0  0999 V2000
    8.0775  -12.4829   21.1271 C   0  0  0  0  0  0  0  0  0  0  0  0
    8.2974  -13.7376   20.3405 C   0  0  0  0  0  0  0  0  0  0  0  0
    8.9638  -13.5477   19.0062 C   0  0  2  0  0  0  0  0  0  0  0  0
    8.1630  -12.5957   18.1348 C   0  0  0  0  0  0  0  0  0  0  0  0
    9.2606  -14.8282   18.3326 C   0  0  2  0  0  0  0  0  0  0  0  0
    8.0085  -15.4665   17.9187 N   0  0  0  0  0  0  0  0  0  0  0  0
   10.0408  -15.8086   19.1794 C   0  0  0  0  0  0  0  0  0  0  0  0
    9.4193  -16.7125   19.7475 O   0  0  0  0  0  0  0  0  0  0  0  0
   11.4303  -15.7156   19.3302 N   0  0  0  0  0  0  0  0  0  0  0  0
   12.3444  -16.4229   20.1757 C   0  0  1  0  0  0  0  0  0  0  0  0
   13.7153  -16.6713   19.6996 C   0  0  0  0  0  0  0  0  0  0  0  0
   13.8844  -17.3018   18.3837 C   0  0  0  0  0  0  0  0  0  0  0  0
   13.4790  -18.4949   18.2129 O   0  0  0  0  0  0  0  0  0  0  0  0
   12.1664  -16.1562   21.5904 C   0  0  0  0  0  0  0  0  0  0  0  0
   12.7245  -15.1269   22.0900 O   0  0  0  0  0  0  0  0  0  0  0  0
   14.4602  -16.6786   17.3088 O   0  0  0  0  0  0  0  0  0  0  0  0
    8.9777  -16.0611   23.5284 O   0  0  0  0  0  0  0  0  0  0  0  0
    9.8084  -16.8124   24.3527 C   0  0  0  0  0  0  0  0  0  0  0  0
   11.2293  -16.6550   23.8778 C   0  0  2  0  0  0  0  0  0  0  0  0
   11.4120  -16.9595   22.4810 N   0  0  0  0  0  0  0  0  0  0  0  0
   12.1111  -17.4820   24.7042 C   0  0  0  0  0  0  0  0  0  0  0  0
   12.1282  -17.3128   26.0769 O   0  0  0  0  0  0  0  0  0  0  0  0
   12.8741  -18.3595   24.2275 O   0  0  0  0  0  0  0  0  0  0  0  0
  2  1  1  0
  3  2  1  0
  3  4  1  6
  5  7  1  0
  5  6  1  1
  5  3  1  0
  7  8  2  0
  9  7  1  0
  9 10  1  0
 10 14  1  0
 10 11  1  6
 12 13  2  0
 12 11  1  0
 14 15  2  0
 14 20  1  0
 16 12  1  0
 17 18  1  0
 19 18  1  1
 19 21  1  0
 20 19  1  0
 21 23  2  0
 21 22  1  0
M  END
$$$$
