IDS.pdb
     RDKit          3D

 23 22  0  0  1  0  0  0  0  0999 V2000
    6.1761  -11.5215   27.1455 C   0  0  0  0  0  0  0  0  0  0  0  0
    5.6993  -12.7130   26.3747 C   0  0  0  0  0  0  0  0  0  0  0  0
    6.7838  -13.5500   25.7549 C   0  0  2  0  0  0  0  0  0  0  0  0
    7.7255  -12.6880   24.9319 C   0  0  0  0  0  0  0  0  0  0  0  0
    6.2502  -14.6999   24.9970 C   0  0  2  0  0  0  0  0  0  0  0  0
    5.3676  -15.4891   25.8598 N   0  0  0  0  0  0  0  0  0  0  0  0
    7.3116  -15.6166   24.4312 C   0  0  0  0  0  0  0  0  0  0  0  0
    7.6493  -16.5999   25.0983 O   0  0  0  0  0  0  0  0  0  0  0  0
    7.9095  -15.3786   23.1870 N   0  0  0  0  0  0  0  0  0  0  0  0
    8.8829  -16.1197   22.4426 C   0  0  1  0  0  0  0  0  0  0  0  0
    9.0057  -15.8881   20.9939 C   0  0  0  0  0  0  0  0  0  0  0  0
   10.0173  -16.6563   20.2562 C   0  0  0  0  0  0  0  0  0  0  0  0
    9.7902  -17.8778   19.9855 O   0  0  0  0  0  0  0  0  0  0  0  0
   10.1000  -16.4014   23.1798 C   0  0  0  0  0  0  0  0  0  0  0  0
   11.0297  -17.0451   22.5952 O   0  0  0  0  0  0  0  0  0  0  0  0
   11.2107  -16.1348   19.8329 O   0  0  0  0  0  0  0  0  0  0  0  0
   10.3261  -15.9386   27.1876 O   0  0  0  0  0  0  0  0  0  0  0  0
   11.5937  -15.7787   26.6385 C   0  0  0  0  0  0  0  0  0  0  0  0
   11.5745  -16.2930   25.2228 C   0  0  2  0  0  0  0  0  0  0  0  0
   10.3466  -16.0159   24.5208 N   0  0  0  0  0  0  0  0  0  0  0  0
   11.8522  -17.7308   25.2254 C   0  0  0  0  0  0  0  0  0  0  0  0
   13.0089  -18.2084   25.8147 O   0  0  0  0  0  0  0  0  0  0  0  0
   11.0817  -18.5793   24.7099 O   0  0  0  0  0  0  0  0  0  0  0  0
  2  1  1  0
  3  2  1  0
  3  4  1  6
  5  7  1  0
  5  6  1  1
  5  3  1  0
  7  8  2  0
  9  7  1  0
  9 10  1  0
 10 14  1  0
 10 11  1  6
 12 13  2  0
 12 11  1  0
 14 15  2  0
 14 20  1  0
 16 12  1  0
 17 18  1  0
 19 18  1  1
 19 21  1  0
 20 19  1  0
 21 23  2  0
 21 22  1  0
M  END
$$$$
