IDS.pdb
     RDKit          3D

 23 22  0  0  1  0  0  0  0  0999 V2000
    6.8663  -12.0893   19.3859 C   0  0  0  0  0  0  0  0  0  0  0  0
    7.5798  -13.3646   19.0605 C   0  0  0  0  0  0  0  0  0  0  0  0
    8.0054  -14.1809   20.2493 C   0  0  2  0  0  0  0  0  0  0  0  0
    8.8149  -13.3380   21.2195 C   0  0  0  0  0  0  0  0  0  0  0  0
    8.6935  -15.4295   19.8635 C   0  0  2  0  0  0  0  0  0  0  0  0
    7.8131  -16.2310   19.0097 N   0  0  0  0  0  0  0  0  0  0  0  0
    9.1332  -16.2824   21.0323 C   0  0  0  0  0  0  0  0  0  0  0  0
    8.2800  -16.9613   21.6129 O   0  0  0  0  0  0  0  0  0  0  0  0
   10.4657  -16.3190   21.4630 N   0  0  0  0  0  0  0  0  0  0  0  0
   11.0968  -17.0150   22.5437 C   0  0  1  0  0  0  0  0  0  0  0  0
   12.5239  -17.3611   22.4370 C   0  0  0  0  0  0  0  0  0  0  0  0
   13.1582  -18.0302   23.5804 C   0  0  0  0  0  0  0  0  0  0  0  0
   12.6375  -19.0952   24.0405 O   0  0  0  0  0  0  0  0  0  0  0  0
   10.5940  -16.6495   23.8543 C   0  0  0  0  0  0  0  0  0  0  0  0
   11.0377  -15.5893   24.4018 O   0  0  0  0  0  0  0  0  0  0  0  0
   14.2941  -17.5751   24.1951 O   0  0  0  0  0  0  0  0  0  0  0  0
    7.0262  -17.9015   25.4352 O   0  0  0  0  0  0  0  0  0  0  0  0
    7.6629  -16.7760   25.9469 C   0  0  0  0  0  0  0  0  0  0  0  0
    9.1518  -16.9981   25.8934 C   0  0  2  0  0  0  0  0  0  0  0  0
    9.6348  -17.3864   24.5922 N   0  0  0  0  0  0  0  0  0  0  0  0
    9.5303  -17.9919   26.9001 C   0  0  0  0  0  0  0  0  0  0  0  0
    9.2232  -17.7760   28.2315 O   0  0  0  0  0  0  0  0  0  0  0  0
   10.1340  -19.0576   26.6190 O   0  0  0  0  0  0  0  0  0  0  0  0
  2  1  1  0
  3  2  1  0
  3  4  1  1
  5  7  1  0
  5  6  1  6
  5  3  1  0
  7  8  2  0
  9  7  1  0
  9 10  1  0
 10 14  1  0
 10 11  1  1
 12 13  2  0
 12 11  1  0
 14 15  2  0
 14 20  1  0
 16 12  1  0
 17 18  1  0
 19 18  1  6
 19 21  1  0
 20 19  1  0
 21 23  2  0
 21 22  1  0
M  END
$$$$
