IDS.pdb
     RDKit          3D

 23 22  0  0  1  0  0  0  0  0999 V2000
    7.8126  -12.1349   20.9970 C   0  0  0  0  0  0  0  0  0  0  0  0
    7.9122  -13.6184   20.8221 C   0  0  0  0  0  0  0  0  0  0  0  0
    8.5473  -14.0698   19.5362 C   0  0  2  0  0  0  0  0  0  0  0  0
    7.8876  -13.3975   18.3446 C   0  0  0  0  0  0  0  0  0  0  0  0
    8.5923  -15.5408   19.4112 C   0  0  2  0  0  0  0  0  0  0  0  0
    7.2314  -16.0623   19.2620 N   0  0  0  0  0  0  0  0  0  0  0  0
    9.2489  -16.2430   20.5786 C   0  0  0  0  0  0  0  0  0  0  0  0
    8.5314  -16.6221   21.5100 O   0  0  0  0  0  0  0  0  0  0  0  0
   10.6305  -16.4696   20.6251 N   0  0  0  0  0  0  0  0  0  0  0  0
   11.4644  -17.0559   21.6308 C   0  0  1  0  0  0  0  0  0  0  0  0
   12.7854  -17.5822   21.2491 C   0  0  0  0  0  0  0  0  0  0  0  0
   12.8645  -18.4593   20.0736 C   0  0  0  0  0  0  0  0  0  0  0  0
   11.9012  -19.2521   19.8275 O   0  0  0  0  0  0  0  0  0  0  0  0
   11.3456  -16.4302   22.9341 C   0  0  0  0  0  0  0  0  0  0  0  0
   11.9977  -15.3597   23.1563 O   0  0  0  0  0  0  0  0  0  0  0  0
   13.9264  -18.4806   19.2090 O   0  0  0  0  0  0  0  0  0  0  0  0
    8.1388  -16.5674   25.2615 O   0  0  0  0  0  0  0  0  0  0  0  0
    9.1409  -15.6607   25.5896 C   0  0  0  0  0  0  0  0  0  0  0  0
   10.4770  -16.2921   25.2975 C   0  0  2  0  0  0  0  0  0  0  0  0
   10.5526  -16.9187   24.0018 N   0  0  0  0  0  0  0  0  0  0  0  0
   10.8001  -17.2538   26.3535 C   0  0  0  0  0  0  0  0  0  0  0  0
   10.9060  -16.8277   27.6652 O   0  0  0  0  0  0  0  0  0  0  0  0
   10.9925  -18.4760   26.1329 O   0  0  0  0  0  0  0  0  0  0  0  0
  2  1  1  0
  3  2  1  0
  3  4  1  6
  5  7  1  0
  5  6  1  1
  5  3  1  0
  7  8  2  0
  9  7  1  0
  9 10  1  0
 10 14  1  0
 10 11  1  6
 12 13  2  0
 12 11  1  0
 14 15  2  0
 14 20  1  0
 16 12  1  0
 17 18  1  0
 19 18  1  1
 19 21  1  0
 20 19  1  0
 21 23  2  0
 21 22  1  0
M  END
$$$$
