QCF.pdb
     RDKit          3D

 27 27  0  0  1  0  0  0  0  0999 V2000
    8.0670  -12.6857   18.3833 N   0  0  0  0  0  0  0  0  0  0  0  0
    8.0047  -13.6127   17.3078 C   0  0  0  0  0  0  0  0  0  0  0  0
    8.6000  -13.3290   16.2396 O   0  0  0  0  0  0  0  0  0  0  0  0
    7.2344  -14.8641   17.5202 C   0  0  0  0  0  0  0  0  0  0  0  0
    6.8267  -14.9873   18.9903 C   0  0  0  0  0  0  0  0  0  0  0  0
    7.8494  -15.8343   19.7296 C   0  0  2  0  0  0  0  0  0  0  0  0
    8.0607  -17.0941   19.0637 N   0  0  0  0  0  0  0  0  0  0  0  0
    7.3870  -16.0591   21.1498 C   0  0  0  0  0  0  0  0  0  0  0  0
    6.1640  -16.1771   21.4115 O   0  0  0  0  0  0  0  0  0  0  0  0
    8.3164  -16.1411   22.2106 N   0  0  0  0  0  0  0  0  0  0  0  0
    7.9311  -16.1975   23.6231 C   0  0  1  0  0  0  0  0  0  0  0  0
    6.9198  -17.2978   23.7169 C   0  0  0  0  0  0  0  0  0  0  0  0
    7.6457  -18.8513   24.2463 S   0  0  0  0  0  0  0  0  0  0  0  0
    9.1075  -16.3357   24.4867 C   0  0  0  0  0  0  0  0  0  0  0  0
    9.7659  -17.4400   24.5400 O   0  0  0  0  0  0  0  0  0  0  0  0
    9.5836  -15.2949   25.2922 N   0  0  0  0  0  0  0  0  0  0  0  0
    9.5351  -15.3322   26.7580 C   0  0  1  0  0  0  0  0  0  0  0  0
    8.1463  -15.0882   27.2524 C   0  0  0  0  0  0  0  0  0  0  0  0
    7.6977  -13.7210   27.0353 C   0  0  0  0  0  0  0  0  0  0  0  0
    7.4581  -13.1767   25.7750 C   0  0  0  0  0  0  0  0  0  0  0  0
    7.0131  -11.8786   25.6510 C   0  0  0  0  0  0  0  0  0  0  0  0
    6.7861  -11.0669   26.7415 C   0  0  0  0  0  0  0  0  0  0  0  0
    7.0215  -11.6008   27.9904 C   0  0  0  0  0  0  0  0  0  0  0  0
    7.4637  -12.8914   28.1115 C   0  0  0  0  0  0  0  0  0  0  0  0
   10.0110  -16.6549   27.1716 C   0  0  0  0  0  0  0  0  0  0  0  0
   11.0207  -16.7530   27.8992 O   0  0  0  0  0  0  0  0  0  0  0  0
    9.3717  -17.8129   26.7816 O   0  0  0  0  0  0  0  0  0  0  0  0
  1  2  1  0
  2  3  2  0
  4  5  1  0
  4  2  1  0
  6  7  1  6
  6  5  1  0
  8 10  1  0
  8  6  1  0
  9  8  2  0
 11 10  1  0
 11 12  1  6
 13 12  1  0
 14 15  2  0
 14 11  1  0
 16 14  1  0
 17 25  1  0
 17 16  1  0
 17 18  1  6
 19 18  1  0
 20 19  2  0
 21 20  1  0
 22 21  2  0
 22 23  1  0
 23 24  2  0
 24 19  1  0
 25 27  1  0
 26 25  2  0
M  END
$$$$
