QCF.pdb
     RDKit          3D

 27 27  0  0  1  0  0  0  0  0999 V2000
    8.9955  -14.0871   16.9228 N   0  0  0  0  0  0  0  0  0  0  0  0
    8.2265  -13.3991   17.9001 C   0  0  0  0  0  0  0  0  0  0  0  0
    8.6488  -12.2955   18.3239 O   0  0  0  0  0  0  0  0  0  0  0  0
    6.9658  -14.0355   18.3584 C   0  0  0  0  0  0  0  0  0  0  0  0
    6.8479  -13.9321   19.8809 C   0  0  0  0  0  0  0  0  0  0  0  0
    7.9285  -14.7806   20.5306 C   0  0  2  0  0  0  0  0  0  0  0  0
    8.2898  -15.8948   19.6922 N   0  0  0  0  0  0  0  0  0  0  0  0
    7.4468  -15.2676   21.8768 C   0  0  0  0  0  0  0  0  0  0  0  0
    6.7470  -14.5260   22.6106 O   0  0  0  0  0  0  0  0  0  0  0  0
    7.7717  -16.5627   22.3381 N   0  0  0  0  0  0  0  0  0  0  0  0
    7.4526  -17.0476   23.6835 C   0  0  1  0  0  0  0  0  0  0  0  0
    7.2766  -18.5278   23.5425 C   0  0  0  0  0  0  0  0  0  0  0  0
    6.9501  -19.3310   25.1137 S   0  0  0  0  0  0  0  0  0  0  0  0
    8.4613  -16.6137   24.6548 C   0  0  0  0  0  0  0  0  0  0  0  0
    9.7159  -16.6541   24.3718 O   0  0  0  0  0  0  0  0  0  0  0  0
    8.1317  -16.1342   25.9276 N   0  0  0  0  0  0  0  0  0  0  0  0
    9.1361  -15.6772   26.8944 C   0  0  1  0  0  0  0  0  0  0  0  0
    8.5756  -14.6165   27.7853 C   0  0  0  0  0  0  0  0  0  0  0  0
    8.0038  -13.4994   27.0487 C   0  0  0  0  0  0  0  0  0  0  0  0
    8.7658  -12.5391   26.3859 C   0  0  0  0  0  0  0  0  0  0  0  0
    8.1505  -11.5213   25.6904 C   0  0  0  0  0  0  0  0  0  0  0  0
    6.7797  -11.4006   25.6142 C   0  0  0  0  0  0  0  0  0  0  0  0
    6.0214  -12.3481   26.2680 C   0  0  0  0  0  0  0  0  0  0  0  0
    6.6351  -13.3591   26.9588 C   0  0  0  0  0  0  0  0  0  0  0  0
    9.5489  -16.8478   27.6731 C   0  0  0  0  0  0  0  0  0  0  0  0
    8.9492  -17.9332   27.5296 O   0  0  0  0  0  0  0  0  0  0  0  0
   10.5941  -16.7925   28.5711 O   0  0  0  0  0  0  0  0  0  0  0  0
  1  2  1  0
  2  3  2  0
  4  5  1  0
  4  2  1  0
  6  7  1  6
  6  5  1  0
  8 10  1  0
  8  6  1  0
  9  8  2  0
 11 10  1  0
 11 12  1  6
 13 12  1  0
 14 15  2  0
 14 11  1  0
 16 14  1  0
 17 25  1  0
 17 16  1  0
 17 18  1  1
 19 18  1  0
 20 19  2  0
 21 20  1  0
 22 21  2  0
 22 23  1  0
 23 24  2  0
 24 19  1  0
 25 27  1  0
 26 25  2  0
M  END
$$$$
