QCF.pdb
     RDKit          3D

 27 27  0  0  1  0  0  0  0  0999 V2000
   10.9641  -13.1685   20.1157 N   0  0  0  0  0  0  0  0  0  0  0  0
   10.4371  -12.9770   18.8098 C   0  0  0  0  0  0  0  0  0  0  0  0
   11.2309  -12.9920   17.8374 O   0  0  0  0  0  0  0  0  0  0  0  0
    8.9724  -12.7705   18.6810 C   0  0  0  0  0  0  0  0  0  0  0  0
    8.2432  -13.4327   19.8524 C   0  0  0  0  0  0  0  0  0  0  0  0
    8.2642  -14.9417   19.6733 C   0  0  2  0  0  0  0  0  0  0  0  0
    7.3590  -15.3549   18.6316 N   0  0  0  0  0  0  0  0  0  0  0  0
    7.9060  -15.6104   20.9795 C   0  0  0  0  0  0  0  0  0  0  0  0
    6.7106  -15.8884   21.2471 O   0  0  0  0  0  0  0  0  0  0  0  0
    8.9039  -15.9363   21.9248 N   0  0  0  0  0  0  0  0  0  0  0  0
    8.6531  -16.7410   23.1233 C   0  0  1  0  0  0  0  0  0  0  0  0
    9.1049  -18.1255   22.7756 C   0  0  0  0  0  0  0  0  0  0  0  0
   10.8411  -18.1861   22.3256 S   0  0  0  0  0  0  0  0  0  0  0  0
    9.2820  -16.1412   24.3038 C   0  0  0  0  0  0  0  0  0  0  0  0
   10.3873  -15.4893   24.2081 O   0  0  0  0  0  0  0  0  0  0  0  0
    8.7307  -16.2345   25.5868 N   0  0  0  0  0  0  0  0  0  0  0  0
    9.3767  -15.6709   26.7773 C   0  0  1  0  0  0  0  0  0  0  0  0
    8.3627  -15.1008   27.7153 C   0  0  0  0  0  0  0  0  0  0  0  0
    7.7434  -13.8840   27.2118 C   0  0  0  0  0  0  0  0  0  0  0  0
    8.4457  -12.7078   26.9560 C   0  0  0  0  0  0  0  0  0  0  0  0
    7.7921  -11.6016   26.4585 C   0  0  0  0  0  0  0  0  0  0  0  0
    6.4396  -11.5985   26.1931 C   0  0  0  0  0  0  0  0  0  0  0  0
    5.7405  -12.7597   26.4444 C   0  0  0  0  0  0  0  0  0  0  0  0
    6.3922  -13.8583   26.9388 C   0  0  0  0  0  0  0  0  0  0  0  0
   10.1257  -16.7563   27.4160 C   0  0  0  0  0  0  0  0  0  0  0  0
    9.9942  -17.9279   27.0060 O   0  0  0  0  0  0  0  0  0  0  0  0
   10.9860  -16.5252   28.4688 O   0  0  0  0  0  0  0  0  0  0  0  0
  1  2  1  0
  2  3  2  0
  4  5  1  0
  4  2  1  0
  6  7  1  6
  6  5  1  0
  8 10  1  0
  8  6  1  0
  9  8  2  0
 11 10  1  0
 11 12  1  6
 13 12  1  0
 14 15  2  0
 14 11  1  0
 16 14  1  0
 17 25  1  0
 17 16  1  0
 17 18  1  1
 19 18  1  0
 20 19  2  0
 21 20  1  0
 22 21  2  0
 22 23  1  0
 23 24  2  0
 24 19  1  0
 25 27  1  0
 26 25  2  0
M  END
$$$$
