QCF.pdb
     RDKit          3D

 27 27  0  0  1  0  0  0  0  0999 V2000
    9.0432  -13.5612   18.2700 N   0  0  0  0  0  0  0  0  0  0  0  0
    8.2908  -14.2122   17.2551 C   0  0  0  0  0  0  0  0  0  0  0  0
    7.6831  -13.5041   16.4152 O   0  0  0  0  0  0  0  0  0  0  0  0
    8.2731  -15.6968   17.2552 C   0  0  0  0  0  0  0  0  0  0  0  0
    9.1058  -16.2323   18.4225 C   0  0  0  0  0  0  0  0  0  0  0  0
    8.4027  -17.4313   19.0372 C   0  0  2  0  0  0  0  0  0  0  0  0
    7.5004  -18.0443   18.0963 N   0  0  0  0  0  0  0  0  0  0  0  0
    7.6576  -16.9985   20.2777 C   0  0  0  0  0  0  0  0  0  0  0  0
    6.4398  -16.6964   20.2177 O   0  0  0  0  0  0  0  0  0  0  0  0
    8.3118  -16.9242   21.5276 N   0  0  0  0  0  0  0  0  0  0  0  0
    7.6110  -16.7221   22.7984 C   0  0  1  0  0  0  0  0  0  0  0  0
    6.6244  -17.8444   22.8926 C   0  0  0  0  0  0  0  0  0  0  0  0
    5.8939  -17.9783   24.5263 S   0  0  0  0  0  0  0  0  0  0  0  0
    8.5577  -16.6085   23.9118 C   0  0  0  0  0  0  0  0  0  0  0  0
    9.4313  -17.5263   24.1367 O   0  0  0  0  0  0  0  0  0  0  0  0
    8.5746  -15.5146   24.7845 N   0  0  0  0  0  0  0  0  0  0  0  0
    9.6163  -15.3169   25.7985 C   0  0  1  0  0  0  0  0  0  0  0  0
    9.6605  -13.8924   26.2477 C   0  0  0  0  0  0  0  0  0  0  0  0
    8.3487  -13.2630   26.2715 C   0  0  0  0  0  0  0  0  0  0  0  0
    7.6397  -12.9971   27.4415 C   0  0  0  0  0  0  0  0  0  0  0  0
    6.4105  -12.3775   27.3844 C   0  0  0  0  0  0  0  0  0  0  0  0
    5.8288  -11.9959   26.1946 C   0  0  0  0  0  0  0  0  0  0  0  0
    6.5262  -12.2566   25.0344 C   0  0  0  0  0  0  0  0  0  0  0  0
    7.7481  -12.8725   25.0934 C   0  0  0  0  0  0  0  0  0  0  0  0
    9.3020  -16.2074   26.9189 C   0  0  0  0  0  0  0  0  0  0  0  0
   10.0564  -16.2467   27.9127 O   0  0  0  0  0  0  0  0  0  0  0  0
    8.1837  -17.0144   26.9152 O   0  0  0  0  0  0  0  0  0  0  0  0
  1  2  1  0
  2  3  2  0
  4  5  1  0
  4  2  1  0
  6  7  1  6
  6  5  1  0
  8 10  1  0
  8  6  1  0
  9  8  2  0
 11 10  1  0
 11 12  1  1
 13 12  1  0
 14 15  2  0
 14 11  1  0
 16 14  1  0
 17 25  1  0
 17 16  1  0
 17 18  1  1
 19 18  1  0
 20 19  2  0
 21 20  1  0
 22 21  2  0
 22 23  1  0
 23 24  2  0
 24 19  1  0
 25 27  1  0
 26 25  2  0
M  END
$$$$
