QCF.pdb
     RDKit          3D

 27 27  0  0  1  0  0  0  0  0999 V2000
    8.0209  -12.6261   18.5815 N   0  0  0  0  0  0  0  0  0  0  0  0
    8.4364  -13.6186   17.6531 C   0  0  0  0  0  0  0  0  0  0  0  0
    8.6803  -13.2674   16.4727 O   0  0  0  0  0  0  0  0  0  0  0  0
    8.5555  -15.0148   18.1438 C   0  0  0  0  0  0  0  0  0  0  0  0
    8.2024  -15.0809   19.6316 C   0  0  0  0  0  0  0  0  0  0  0  0
    8.2188  -16.5294   20.0914 C   0  0  2  0  0  0  0  0  0  0  0  0
    7.5064  -17.3764   19.1693 N   0  0  0  0  0  0  0  0  0  0  0  0
    7.6150  -16.6277   21.4724 C   0  0  0  0  0  0  0  0  0  0  0  0
    6.4554  -16.1983   21.6938 O   0  0  0  0  0  0  0  0  0  0  0  0
    8.3386  -17.2024   22.5410 N   0  0  0  0  0  0  0  0  0  0  0  0
    7.8126  -17.3243   23.9031 C   0  0  1  0  0  0  0  0  0  0  0  0
    7.6115  -18.7916   24.1230 C   0  0  0  0  0  0  0  0  0  0  0  0
    7.0560  -19.1643   25.7883 S   0  0  0  0  0  0  0  0  0  0  0  0
    8.6834  -16.6470   24.8685 C   0  0  0  0  0  0  0  0  0  0  0  0
    9.9606  -16.6301   24.7127 O   0  0  0  0  0  0  0  0  0  0  0  0
    8.1918  -15.9852   25.9995 N   0  0  0  0  0  0  0  0  0  0  0  0
    9.0599  -15.3142   26.9734 C   0  0  1  0  0  0  0  0  0  0  0  0
    8.2903  -14.3149   27.7747 C   0  0  0  0  0  0  0  0  0  0  0  0
    7.6609  -13.2914   26.9538 C   0  0  0  0  0  0  0  0  0  0  0  0
    6.2861  -13.0659   26.9183 C   0  0  0  0  0  0  0  0  0  0  0  0
    5.7659  -12.0618   26.1312 C   0  0  0  0  0  0  0  0  0  0  0  0
    6.5588  -11.2449   25.3542 C   0  0  0  0  0  0  0  0  0  0  0  0
    7.9194  -11.4639   25.3859 C   0  0  0  0  0  0  0  0  0  0  0  0
    8.4345  -12.4625   26.1692 C   0  0  0  0  0  0  0  0  0  0  0  0
    9.6222  -16.3546   27.8385 C   0  0  0  0  0  0  0  0  0  0  0  0
   10.4136  -16.0429   28.7522 O   0  0  0  0  0  0  0  0  0  0  0  0
    9.3014  -17.6862   27.6779 O   0  0  0  0  0  0  0  0  0  0  0  0
  1  2  1  0
  2  3  2  0
  4  5  1  0
  4  2  1  0
  6  7  1  6
  6  5  1  0
  8 10  1  0
  8  6  1  0
  9  8  2  0
 11 10  1  0
 11 12  1  1
 13 12  1  0
 14 15  2  0
 14 11  1  0
 16 14  1  0
 17 25  1  0
 17 16  1  0
 17 18  1  1
 19 18  1  0
 20 19  2  0
 21 20  1  0
 22 21  2  0
 22 23  1  0
 23 24  2  0
 24 19  1  0
 25 27  1  0
 26 25  2  0
M  END
$$$$
