LHG.pdb
     RDKit          3D

 23 23  0  0  1  0  0  0  0  0999 V2000
    6.2691  -12.0517   25.9368 C   0  0  0  0  0  0  0  0  0  0  0  0
    6.7861  -13.1773   26.8011 C   0  0  2  0  0  0  0  0  0  0  0  0
    7.7737  -12.6809   27.8421 C   0  0  0  0  0  0  0  0  0  0  0  0
    7.5160  -14.1481   25.9180 C   0  0  0  0  0  0  0  0  0  0  0  0
    6.6274  -14.7032   24.8251 C   0  0  2  0  0  0  0  0  0  0  0  0
    5.3307  -14.9846   25.3928 N   0  0  0  0  0  0  0  0  0  0  0  0
    7.2403  -15.9836   24.3833 C   0  0  0  0  0  0  0  0  0  0  0  0
    6.5196  -16.9977   24.2179 O   0  0  0  0  0  0  0  0  0  0  0  0
    8.6107  -16.0742   24.1491 N   0  0  0  0  0  0  0  0  0  0  0  0
    9.0646  -15.8909   22.7187 C   0  0  1  0  0  0  0  0  0  0  0  0
    8.8100  -14.4224   22.5225 C   0  0  0  0  0  0  0  0  0  0  0  0
    8.1354  -13.9701   21.3234 C   0  0  0  0  0  0  0  0  0  0  0  0
    8.3752  -12.8658   20.5661 C   0  0  0  0  0  0  0  0  0  0  0  0
    7.5281  -12.9402   19.4973 N   0  0  0  0  0  0  0  0  0  0  0  0
    6.8004  -14.0579   19.6075 C   0  0  0  0  0  0  0  0  0  0  0  0
    7.1499  -14.6992   20.7054 N   0  0  0  0  0  0  0  0  0  0  0  0
   10.5440  -16.1703   22.8185 C   0  0  0  0  0  0  0  0  0  0  0  0
   11.2993  -15.6185   21.9228 O   0  0  0  0  0  0  0  0  0  0  0  0
   11.1865  -16.9592   23.7789 N   0  0  0  0  0  0  0  0  0  0  0  0
   12.0913  -16.3216   24.7541 C   0  0  0  0  0  0  0  0  0  0  0  0
   12.0757  -17.0834   26.0228 C   0  0  0  0  0  0  0  0  0  0  0  0
   12.9128  -16.7287   27.0808 O   0  0  0  0  0  0  0  0  0  0  0  0
   11.2921  -18.0424   26.1021 O   0  0  0  0  0  0  0  0  0  0  0  0
  2  1  1  6
  2  3  1  0
  4  2  1  0
  4  5  1  0
  5  7  1  0
  5  6  1  1
  7  8  2  0
  9  7  1  0
  9 10  1  0
 11 12  1  0
 10 11  1  1
 12 16  1  0
 13 14  1  0
 13 12  2  0
 14 15  1  0
 15 16  2  0
 17 10  1  0
 17 19  1  0
 18 17  2  0
 20 19  1  0
 20 21  1  0
 21 22  1  0
 23 21  2  0
M  END
$$$$
