LHG.pdb
     RDKit          3D

 23 23  0  0  1  0  0  0  0  0999 V2000
    5.9037  -12.5355   27.4135 C   0  0  0  0  0  0  0  0  0  0  0  0
    6.9860  -12.4346   26.3649 C   0  0  2  0  0  0  0  0  0  0  0  0
    7.1711  -11.0073   25.8810 C   0  0  0  0  0  0  0  0  0  0  0  0
    6.5686  -13.2585   25.1808 C   0  0  0  0  0  0  0  0  0  0  0  0
    6.9388  -14.7176   25.3431 C   0  0  2  0  0  0  0  0  0  0  0  0
    7.9380  -14.8204   26.3794 N   0  0  0  0  0  0  0  0  0  0  0  0
    7.5430  -15.1522   24.0561 C   0  0  0  0  0  0  0  0  0  0  0  0
    6.9832  -14.8587   22.9718 O   0  0  0  0  0  0  0  0  0  0  0  0
    8.7280  -15.8845   24.0365 N   0  0  0  0  0  0  0  0  0  0  0  0
    9.2416  -16.3012   22.6770 C   0  0  1  0  0  0  0  0  0  0  0  0
    9.5455  -14.9634   22.0623 C   0  0  0  0  0  0  0  0  0  0  0  0
    8.6121  -14.3844   21.1183 C   0  0  0  0  0  0  0  0  0  0  0  0
    7.4024  -14.8520   20.7080 C   0  0  0  0  0  0  0  0  0  0  0  0
    6.8803  -13.8975   19.8823 N   0  0  0  0  0  0  0  0  0  0  0  0
    7.7502  -12.8840   19.7992 C   0  0  0  0  0  0  0  0  0  0  0  0
    8.8072  -13.1550   20.5395 N   0  0  0  0  0  0  0  0  0  0  0  0
   10.5143  -17.0309   23.0301 C   0  0  0  0  0  0  0  0  0  0  0  0
   11.2101  -17.4936   22.0407 O   0  0  0  0  0  0  0  0  0  0  0  0
   11.0240  -17.2569   24.3133 N   0  0  0  0  0  0  0  0  0  0  0  0
   10.6837  -18.5067   25.0192 C   0  0  0  0  0  0  0  0  0  0  0  0
   11.7999  -19.4706   24.8954 C   0  0  0  0  0  0  0  0  0  0  0  0
   12.3475  -20.0801   26.0243 O   0  0  0  0  0  0  0  0  0  0  0  0
   12.2225  -19.7096   23.7533 O   0  0  0  0  0  0  0  0  0  0  0  0
  2  1  1  1
  2  3  1  0
  4  2  1  0
  4  5  1  0
  5  7  1  0
  5  6  1  1
  7  8  2  0
  9  7  1  0
  9 10  1  0
 11 12  1  0
 10 11  1  6
 12 16  1  0
 13 14  1  0
 13 12  2  0
 14 15  1  0
 15 16  2  0
 17 10  1  0
 17 19  1  0
 18 17  2  0
 20 19  1  0
 20 21  1  0
 21 22  1  0
 23 21  2  0
M  END
$$$$
