LHG.pdb
     RDKit          3D

 23 23  0  0  1  0  0  0  0  0999 V2000
    5.9921  -12.1840   25.7129 C   0  0  0  0  0  0  0  0  0  0  0  0
    6.5962  -13.0209   26.8156 C   0  0  2  0  0  0  0  0  0  0  0  0
    7.5425  -12.2110   27.6840 C   0  0  0  0  0  0  0  0  0  0  0  0
    7.3995  -14.1201   26.1820 C   0  0  0  0  0  0  0  0  0  0  0  0
    6.6271  -14.8358   25.0942 C   0  0  2  0  0  0  0  0  0  0  0  0
    5.8199  -15.8616   25.7096 N   0  0  0  0  0  0  0  0  0  0  0  0
    7.6317  -15.4871   24.2128 C   0  0  0  0  0  0  0  0  0  0  0  0
    7.7255  -16.7385   24.1895 O   0  0  0  0  0  0  0  0  0  0  0  0
    8.4749  -14.7241   23.4079 N   0  0  0  0  0  0  0  0  0  0  0  0
    9.3599  -15.4839   22.4462 C   0  0  1  0  0  0  0  0  0  0  0  0
    9.5625  -14.4557   21.3685 C   0  0  0  0  0  0  0  0  0  0  0  0
    8.5058  -14.2118   20.4085 C   0  0  0  0  0  0  0  0  0  0  0  0
    7.9327  -13.0342   20.0408 C   0  0  0  0  0  0  0  0  0  0  0  0
    7.0516  -13.3304   19.0402 N   0  0  0  0  0  0  0  0  0  0  0  0
    7.0942  -14.6483   18.8113 C   0  0  0  0  0  0  0  0  0  0  0  0
    7.9680  -15.2044   19.6274 N   0  0  0  0  0  0  0  0  0  0  0  0
   10.6201  -15.6687   23.2552 C   0  0  0  0  0  0  0  0  0  0  0  0
   10.9339  -14.7087   24.0658 O   0  0  0  0  0  0  0  0  0  0  0  0
   11.4833  -16.7694   23.2250 N   0  0  0  0  0  0  0  0  0  0  0  0
   12.6969  -16.7627   24.0636 C   0  0  0  0  0  0  0  0  0  0  0  0
   13.8443  -16.2560   23.2783 C   0  0  0  0  0  0  0  0  0  0  0  0
   15.1053  -16.1208   23.8594 O   0  0  0  0  0  0  0  0  0  0  0  0
   13.6362  -15.9598   22.0913 O   0  0  0  0  0  0  0  0  0  0  0  0
  2  1  1  6
  2  3  1  0
  4  2  1  0
  4  5  1  0
  5  7  1  0
  5  6  1  1
  7  8  2  0
  9  7  1  0
  9 10  1  0
 11 12  1  0
 10 11  1  6
 12 16  1  0
 13 14  1  0
 13 12  2  0
 14 15  1  0
 15 16  2  0
 17 10  1  0
 17 19  1  0
 18 17  2  0
 20 19  1  0
 20 21  1  0
 21 22  1  0
 23 21  2  0
M  END
$$$$
