LHG.pdb
     RDKit          3D

 23 23  0  0  1  0  0  0  0  0999 V2000
    8.5180  -12.3973   19.5284 C   0  0  0  0  0  0  0  0  0  0  0  0
    8.2411  -13.8127   19.9770 C   0  0  2  0  0  0  0  0  0  0  0  0
    6.7789  -14.1833   19.8033 C   0  0  0  0  0  0  0  0  0  0  0  0
    8.5569  -13.9094   21.4419 C   0  0  0  0  0  0  0  0  0  0  0  0
    9.2497  -15.2097   21.7906 C   0  0  2  0  0  0  0  0  0  0  0  0
    8.3344  -16.2955   21.5339 N   0  0  0  0  0  0  0  0  0  0  0  0
    9.5364  -15.1650   23.2487 C   0  0  0  0  0  0  0  0  0  0  0  0
   10.2097  -14.2188   23.7250 O   0  0  0  0  0  0  0  0  0  0  0  0
    9.0659  -16.1637   24.0985 N   0  0  0  0  0  0  0  0  0  0  0  0
    9.4930  -16.0750   25.5460 C   0  0  1  0  0  0  0  0  0  0  0  0
    8.1706  -15.8430   26.2221 C   0  0  0  0  0  0  0  0  0  0  0  0
    7.5607  -14.5307   26.1633 C   0  0  0  0  0  0  0  0  0  0  0  0
    8.1285  -13.3091   26.3524 C   0  0  0  0  0  0  0  0  0  0  0  0
    7.1527  -12.3874   26.0996 N   0  0  0  0  0  0  0  0  0  0  0  0
    6.0304  -13.0357   25.7665 C   0  0  0  0  0  0  0  0  0  0  0  0
    6.2521  -14.3352   25.7975 N   0  0  0  0  0  0  0  0  0  0  0  0
    9.9945  -17.4727   25.8136 C   0  0  0  0  0  0  0  0  0  0  0  0
   10.3076  -17.7509   27.0391 O   0  0  0  0  0  0  0  0  0  0  0  0
   10.1532  -18.5012   24.8784 N   0  0  0  0  0  0  0  0  0  0  0  0
   11.5109  -18.8936   24.4553 C   0  0  0  0  0  0  0  0  0  0  0  0
   12.0633  -19.8852   25.4049 C   0  0  0  0  0  0  0  0  0  0  0  0
   12.4579  -21.1503   24.9694 O   0  0  0  0  0  0  0  0  0  0  0  0
   12.1587  -19.5438   26.5941 O   0  0  0  0  0  0  0  0  0  0  0  0
  2  1  1  1
  2  3  1  0
  4  2  1  0
  4  5  1  0
  5  7  1  0
  5  6  1  1
  7  8  2  0
  9  7  1  0
  9 10  1  0
 11 12  1  0
 10 11  1  1
 12 16  1  0
 13 14  1  0
 13 12  2  0
 14 15  1  0
 15 16  2  0
 17 10  1  0
 17 19  1  0
 18 17  2  0
 20 19  1  0
 20 21  1  0
 21 22  1  0
 23 21  2  0
M  END
$$$$
