LHG.pdb
     RDKit          3D

 23 23  0  0  1  0  0  0  0  0999 V2000
    5.9992  -12.2947   25.8382 C   0  0  0  0  0  0  0  0  0  0  0  0
    6.7221  -13.1064   26.8869 C   0  0  2  0  0  0  0  0  0  0  0  0
    7.7538  -12.2766   27.6301 C   0  0  0  0  0  0  0  0  0  0  0  0
    7.4561  -14.2183   26.1940 C   0  0  0  0  0  0  0  0  0  0  0  0
    6.7095  -14.7222   24.9771 C   0  0  2  0  0  0  0  0  0  0  0  0
    5.7112  -15.6676   25.4155 N   0  0  0  0  0  0  0  0  0  0  0  0
    7.7014  -15.4370   24.1312 C   0  0  0  0  0  0  0  0  0  0  0  0
    7.6440  -16.6859   24.0202 O   0  0  0  0  0  0  0  0  0  0  0  0
    8.6990  -14.7366   23.4565 N   0  0  0  0  0  0  0  0  0  0  0  0
    9.5156  -15.5215   22.4552 C   0  0  1  0  0  0  0  0  0  0  0  0
    9.6728  -14.5087   21.3556 C   0  0  0  0  0  0  0  0  0  0  0  0
    8.5364  -14.1829   20.5190 C   0  0  0  0  0  0  0  0  0  0  0  0
    8.1042  -12.9662   20.0908 C   0  0  0  0  0  0  0  0  0  0  0  0
    7.0497  -13.2038   19.2560 N   0  0  0  0  0  0  0  0  0  0  0  0
    6.8538  -14.5256   19.1827 C   0  0  0  0  0  0  0  0  0  0  0  0
    7.7421  -15.1405   19.9388 N   0  0  0  0  0  0  0  0  0  0  0  0
   10.8168  -15.7182   23.1935 C   0  0  0  0  0  0  0  0  0  0  0  0
   11.8455  -16.0438   22.4774 O   0  0  0  0  0  0  0  0  0  0  0  0
   11.0301  -15.5821   24.5696 N   0  0  0  0  0  0  0  0  0  0  0  0
   10.8585  -16.7535   25.4496 C   0  0  0  0  0  0  0  0  0  0  0  0
   12.1331  -17.5000   25.5422 C   0  0  0  0  0  0  0  0  0  0  0  0
   12.2596  -18.5968   26.3948 O   0  0  0  0  0  0  0  0  0  0  0  0
   13.0747  -17.1100   24.8343 O   0  0  0  0  0  0  0  0  0  0  0  0
  2  1  1  6
  2  3  1  0
  4  2  1  0
  4  5  1  0
  5  7  1  0
  5  6  1  1
  7  8  2  0
  9  7  1  0
  9 10  1  0
 11 12  1  0
 10 11  1  6
 12 16  1  0
 13 14  1  0
 13 12  2  0
 14 15  1  0
 15 16  2  0
 17 10  1  0
 17 19  1  0
 18 17  2  0
 20 19  1  0
 20 21  1  0
 21 22  1  0
 23 21  2  0
M  END
$$$$
