LHG.pdb
     RDKit          3D

 23 23  0  0  1  0  0  0  0  0999 V2000
    5.9908  -12.4999   25.9527 C   0  0  0  0  0  0  0  0  0  0  0  0
    6.7045  -13.3837   26.9481 C   0  0  2  0  0  0  0  0  0  0  0  0
    7.6900  -12.5979   27.7948 C   0  0  0  0  0  0  0  0  0  0  0  0
    7.4897  -14.4103   26.1835 C   0  0  0  0  0  0  0  0  0  0  0  0
    6.7161  -14.9550   25.0016 C   0  0  2  0  0  0  0  0  0  0  0  0
    5.8691  -16.0266   25.4677 N   0  0  0  0  0  0  0  0  0  0  0  0
    7.7167  -15.5174   24.0567 C   0  0  0  0  0  0  0  0  0  0  0  0
    7.9368  -16.7529   24.0412 O   0  0  0  0  0  0  0  0  0  0  0  0
    8.4172  -14.6879   23.1836 N   0  0  0  0  0  0  0  0  0  0  0  0
    9.2677  -15.3729   22.1382 C   0  0  1  0  0  0  0  0  0  0  0  0
    9.3921  -14.2833   21.1100 C   0  0  0  0  0  0  0  0  0  0  0  0
    8.3571  -14.1261   20.1093 C   0  0  0  0  0  0  0  0  0  0  0  0
    7.3475  -13.2163   20.0515 C   0  0  0  0  0  0  0  0  0  0  0  0
    6.7018  -13.4320   18.8675 N   0  0  0  0  0  0  0  0  0  0  0  0
    7.3063  -14.4416   18.2303 C   0  0  0  0  0  0  0  0  0  0  0  0
    8.3124  -14.8788   18.9621 N   0  0  0  0  0  0  0  0  0  0  0  0
   10.5716  -15.5702   22.8713 C   0  0  0  0  0  0  0  0  0  0  0  0
   10.9315  -14.6232   23.6780 O   0  0  0  0  0  0  0  0  0  0  0  0
   11.4309  -16.6702   22.7748 N   0  0  0  0  0  0  0  0  0  0  0  0
   12.8899  -16.4565   22.8158 C   0  0  0  0  0  0  0  0  0  0  0  0
   13.3974  -16.7321   24.1784 C   0  0  0  0  0  0  0  0  0  0  0  0
   14.7493  -16.5745   24.4840 O   0  0  0  0  0  0  0  0  0  0  0  0
   12.5741  -17.1060   25.0283 O   0  0  0  0  0  0  0  0  0  0  0  0
  2  1  1  6
  2  3  1  0
  4  2  1  0
  4  5  1  0
  5  7  1  0
  5  6  1  1
  7  8  2  0
  9  7  1  0
  9 10  1  0
 11 12  1  0
 10 11  1  6
 12 16  1  0
 13 14  1  0
 13 12  2  0
 14 15  1  0
 15 16  2  0
 17 10  1  0
 17 19  1  0
 18 17  2  0
 20 19  1  0
 20 21  1  0
 21 22  1  0
 23 21  2  0
M  END
$$$$
