LHG.pdb
     RDKit          3D

 23 23  0  0  1  0  0  0  0  0999 V2000
    7.3252  -12.6540   27.4586 C   0  0  0  0  0  0  0  0  0  0  0  0
    7.4826  -13.3636   26.1346 C   0  0  2  0  0  0  0  0  0  0  0  0
    7.4461  -12.3936   24.9671 C   0  0  0  0  0  0  0  0  0  0  0  0
    6.3262  -14.3074   25.9692 C   0  0  0  0  0  0  0  0  0  0  0  0
    6.4377  -15.1282   24.7019 C   0  0  2  0  0  0  0  0  0  0  0  0
    5.2385  -15.9196   24.5661 N   0  0  0  0  0  0  0  0  0  0  0  0
    7.5935  -16.0451   24.8854 C   0  0  0  0  0  0  0  0  0  0  0  0
    7.4715  -17.0700   25.5995 O   0  0  0  0  0  0  0  0  0  0  0  0
    8.8166  -15.7815   24.2726 N   0  0  0  0  0  0  0  0  0  0  0  0
    9.8588  -16.8740   24.3480 C   0  0  1  0  0  0  0  0  0  0  0  0
   10.7313  -16.5202   23.1761 C   0  0  0  0  0  0  0  0  0  0  0  0
   10.3047  -16.8730   21.8378 C   0  0  0  0  0  0  0  0  0  0  0  0
    9.5635  -17.9357   21.4234 C   0  0  0  0  0  0  0  0  0  0  0  0
    9.3611  -17.7652   20.0835 N   0  0  0  0  0  0  0  0  0  0  0  0
    9.9620  -16.6318   19.7027 C   0  0  0  0  0  0  0  0  0  0  0  0
   10.5404  -16.0727   20.7476 N   0  0  0  0  0  0  0  0  0  0  0  0
   10.5541  -16.5580   25.6493 C   0  0  0  0  0  0  0  0  0  0  0  0
   11.5510  -15.7336   25.5880 O   0  0  0  0  0  0  0  0  0  0  0  0
   10.2331  -17.0584   26.9158 N   0  0  0  0  0  0  0  0  0  0  0  0
   11.1038  -16.7406   28.0634 C   0  0  0  0  0  0  0  0  0  0  0  0
   11.8439  -17.9526   28.4801 C   0  0  0  0  0  0  0  0  0  0  0  0
   11.8081  -18.3933   29.8031 O   0  0  0  0  0  0  0  0  0  0  0  0
   12.4911  -18.5531   27.6081 O   0  0  0  0  0  0  0  0  0  0  0  0
  2  1  1  1
  2  3  1  0
  4  2  1  0
  4  5  1  0
  5  7  1  0
  5  6  1  1
  7  8  2  0
  9  7  1  0
  9 10  1  0
 11 12  1  0
 10 11  1  6
 12 16  1  0
 13 14  1  0
 13 12  2  0
 14 15  1  0
 15 16  2  0
 17 10  1  0
 17 19  1  0
 18 17  2  0
 20 19  1  0
 20 21  1  0
 21 22  1  0
 23 21  2  0
M  END
$$$$
