LHG.pdb
     RDKit          3D

 23 23  0  0  1  0  0  0  0  0999 V2000
    5.7452  -12.2990   25.8089 C   0  0  0  0  0  0  0  0  0  0  0  0
    6.5852  -13.0430   26.8199 C   0  0  2  0  0  0  0  0  0  0  0  0
    7.4990  -12.1075   27.5915 C   0  0  0  0  0  0  0  0  0  0  0  0
    7.4598  -14.0128   26.0784 C   0  0  0  0  0  0  0  0  0  0  0  0
    6.6764  -14.8371   25.0788 C   0  0  2  0  0  0  0  0  0  0  0  0
    5.8337  -15.7545   25.8075 N   0  0  0  0  0  0  0  0  0  0  0  0
    7.6692  -15.6218   24.2985 C   0  0  0  0  0  0  0  0  0  0  0  0
    7.7159  -16.8700   24.4217 O   0  0  0  0  0  0  0  0  0  0  0  0
    8.5531  -14.9880   23.4279 N   0  0  0  0  0  0  0  0  0  0  0  0
    9.3264  -15.8799   22.4835 C   0  0  1  0  0  0  0  0  0  0  0  0
    9.6196  -14.9240   21.3609 C   0  0  0  0  0  0  0  0  0  0  0  0
    8.5541  -14.5333   20.4611 C   0  0  0  0  0  0  0  0  0  0  0  0
    7.2816  -15.0068   20.3778 C   0  0  0  0  0  0  0  0  0  0  0  0
    6.6503  -14.2508   19.4315 N   0  0  0  0  0  0  0  0  0  0  0  0
    7.5176  -13.3473   18.9600 C   0  0  0  0  0  0  0  0  0  0  0  0
    8.6779  -13.4979   19.5682 N   0  0  0  0  0  0  0  0  0  0  0  0
   10.5752  -16.1737   23.2778 C   0  0  0  0  0  0  0  0  0  0  0  0
   11.5447  -16.7494   22.6407 O   0  0  0  0  0  0  0  0  0  0  0  0
   10.7978  -15.8864   24.6289 N   0  0  0  0  0  0  0  0  0  0  0  0
   12.0629  -16.3063   25.2608 C   0  0  0  0  0  0  0  0  0  0  0  0
   11.8559  -17.5706   26.0019 C   0  0  0  0  0  0  0  0  0  0  0  0
   12.8159  -18.0397   26.8987 O   0  0  0  0  0  0  0  0  0  0  0  0
   10.8004  -18.1882   25.7915 O   0  0  0  0  0  0  0  0  0  0  0  0
  2  1  1  6
  2  3  1  0
  4  2  1  0
  4  5  1  0
  5  7  1  0
  5  6  1  1
  7  8  2  0
  9  7  1  0
  9 10  1  0
 11 12  1  0
 10 11  1  6
 12 16  1  0
 13 14  1  0
 13 12  2  0
 14 15  1  0
 15 16  2  0
 17 10  1  0
 17 19  1  0
 18 17  2  0
 20 19  1  0
 20 21  1  0
 21 22  1  0
 23 21  2  0
M  END
$$$$
