VWH.pdb
     RDKit          3D

 32 34  0  0  1  0  0  0  0  0999 V2000
    7.2307  -13.1356   21.4007 C   0  0  0  0  0  0  0  0  0  0  0  0
    8.2649  -13.6082   20.3848 C   0  0  2  0  0  0  0  0  0  0  0  0
    7.6637  -13.6506   18.9961 C   0  0  0  0  0  0  0  0  0  0  0  0
    8.9001  -14.8970   20.7922 C   0  0  2  0  0  0  0  0  0  0  0  0
    7.9150  -15.9492   20.6555 N   0  0  0  0  0  0  0  0  0  0  0  0
    9.4158  -14.9088   22.1744 C   0  0  0  0  0  0  0  0  0  0  0  0
   10.3511  -14.1282   22.4994 O   0  0  0  0  0  0  0  0  0  0  0  0
    8.8849  -15.7791   23.1522 N   0  0  0  0  0  0  0  0  0  0  0  0
    9.4506  -15.8787   24.5186 C   0  0  1  0  0  0  0  0  0  0  0  0
    8.3470  -16.1286   25.4562 C   0  0  0  0  0  0  0  0  0  0  0  0
    7.2989  -15.1509   25.6442 C   0  0  0  0  0  0  0  0  0  0  0  0
    5.9415  -15.2710   25.4471 C   0  0  0  0  0  0  0  0  0  0  0  0
    5.3770  -14.1024   25.7580 N   0  0  0  0  0  0  0  0  0  0  0  0
    6.3022  -13.2343   26.1462 C   0  0  0  0  0  0  0  0  0  0  0  0
    6.2204  -11.9029   26.5828 C   0  0  0  0  0  0  0  0  0  0  0  0
    7.3497  -11.1975   26.9580 C   0  0  0  0  0  0  0  0  0  0  0  0
    8.5654  -11.8283   26.8951 C   0  0  0  0  0  0  0  0  0  0  0  0
    8.6386  -13.1310   26.4669 C   0  0  0  0  0  0  0  0  0  0  0  0
    7.5261  -13.8582   26.0870 C   0  0  0  0  0  0  0  0  0  0  0  0
   10.6178  -16.7372   24.5244 C   0  0  0  0  0  0  0  0  0  0  0  0
   11.1389  -17.1092   25.6393 O   0  0  0  0  0  0  0  0  0  0  0  0
   11.2646  -17.2364   23.3686 N   0  0  0  0  0  0  0  0  0  0  0  0
   11.8105  -18.6140   23.3798 C   0  0  1  0  0  0  0  0  0  0  0  0
   11.4152  -19.2683   22.0510 C   0  0  0  0  0  0  0  0  0  0  0  0
   11.9106  -20.6568   22.0341 C   0  0  0  0  0  0  0  0  0  0  0  0
   11.9287  -21.5044   23.1603 C   0  0  0  0  0  0  0  0  0  0  0  0
   12.4341  -22.6831   22.8000 N   0  0  0  0  0  0  0  0  0  0  0  0
   12.7422  -22.6422   21.5055 C   0  0  0  0  0  0  0  0  0  0  0  0
   12.4239  -21.4301   21.0685 N   0  0  0  0  0  0  0  0  0  0  0  0
   13.2889  -18.5152   23.3736 C   0  0  0  0  0  0  0  0  0  0  0  0
   14.0724  -19.6617   23.6594 O   0  0  0  0  0  0  0  0  0  0  0  0
   13.9608  -17.4911   23.1373 O   0  0  0  0  0  0  0  0  0  0  0  0
  2  1  1  1
  2  3  1  0
  4  2  1  0
  4  5  1  1
  6  4  1  0
  6  7  2  0
  8  6  1  0
  9 10  1  1
  9  8  1  0
 11 10  1  0
 11 12  2  0
 13 12  1  0
 14 13  1  0
 15 14  2  0
 16 15  1  0
 17 16  2  0
 17 18  1  0
 18 19  2  0
 19 14  1  0
 19 11  1  0
 20  9  1  0
 21 20  2  0
 22 20  1  0
 23 24  1  6
 23 22  1  0
 24 25  1  0
 25 29  1  0
 26 25  2  0
 26 27  1  0
 27 28  1  0
 29 28  2  0
 30 31  1  0
 30 23  1  0
 32 30  2  0
M  END
$$$$
