VWH.pdb
     RDKit          3D

 32 34  0  0  1  0  0  0  0  0999 V2000
    7.3830  -15.3504   18.1605 C   0  0  0  0  0  0  0  0  0  0  0  0
    8.2847  -15.2493   19.3861 C   0  0  2  0  0  0  0  0  0  0  0  0
    9.1732  -16.4702   19.4933 C   0  0  0  0  0  0  0  0  0  0  0  0
    7.5066  -14.9747   20.6310 C   0  0  2  0  0  0  0  0  0  0  0  0
    6.7451  -13.7600   20.4290 N   0  0  0  0  0  0  0  0  0  0  0  0
    8.3348  -14.8177   21.8417 C   0  0  0  0  0  0  0  0  0  0  0  0
    8.8922  -13.7118   22.0788 O   0  0  0  0  0  0  0  0  0  0  0  0
    8.5218  -15.8826   22.7507 N   0  0  0  0  0  0  0  0  0  0  0  0
    9.4178  -15.7757   23.9265 C   0  0  1  0  0  0  0  0  0  0  0  0
    8.6228  -16.0324   25.1355 C   0  0  0  0  0  0  0  0  0  0  0  0
    7.4748  -15.2140   25.4548 C   0  0  0  0  0  0  0  0  0  0  0  0
    6.1345  -15.5252   25.4049 C   0  0  0  0  0  0  0  0  0  0  0  0
    5.4489  -14.4495   25.7971 N   0  0  0  0  0  0  0  0  0  0  0  0
    6.2799  -13.4598   26.0979 C   0  0  0  0  0  0  0  0  0  0  0  0
    6.0602  -12.1548   26.5652 C   0  0  0  0  0  0  0  0  0  0  0  0
    7.1133  -11.2971   26.8278 C   0  0  0  0  0  0  0  0  0  0  0  0
    8.3913  -11.7487   26.6209 C   0  0  0  0  0  0  0  0  0  0  0  0
    8.5994  -13.0266   26.1633 C   0  0  0  0  0  0  0  0  0  0  0  0
    7.5652  -13.9034   25.8939 C   0  0  0  0  0  0  0  0  0  0  0  0
   10.6478  -16.5063   23.6967 C   0  0  0  0  0  0  0  0  0  0  0  0
   10.6166  -17.7773   23.5056 O   0  0  0  0  0  0  0  0  0  0  0  0
   11.9392  -15.9286   23.6511 N   0  0  0  0  0  0  0  0  0  0  0  0
   13.1206  -16.8046   23.4702 C   0  0  1  0  0  0  0  0  0  0  0  0
   14.2631  -15.9228   22.9531 C   0  0  0  0  0  0  0  0  0  0  0  0
   13.9411  -15.4736   21.5864 C   0  0  0  0  0  0  0  0  0  0  0  0
   13.3073  -16.2777   20.6176 C   0  0  0  0  0  0  0  0  0  0  0  0
   13.1656  -15.5680   19.4992 N   0  0  0  0  0  0  0  0  0  0  0  0
   13.6724  -14.3524   19.6933 C   0  0  0  0  0  0  0  0  0  0  0  0
   14.1282  -14.3159   20.9393 N   0  0  0  0  0  0  0  0  0  0  0  0
   13.5367  -17.2856   24.8085 C   0  0  0  0  0  0  0  0  0  0  0  0
   12.7602  -16.9562   25.9480 O   0  0  0  0  0  0  0  0  0  0  0  0
   14.5411  -17.9791   25.0659 O   0  0  0  0  0  0  0  0  0  0  0  0
  2  1  1  6
  2  3  1  0
  4  2  1  0
  4  5  1  6
  6  4  1  0
  6  7  2  0
  8  6  1  0
  9 10  1  1
  9  8  1  0
 11 10  1  0
 11 12  2  0
 13 12  1  0
 14 13  1  0
 15 14  2  0
 16 15  1  0
 17 16  2  0
 17 18  1  0
 18 19  2  0
 19 14  1  0
 19 11  1  0
 20  9  1  0
 21 20  2  0
 22 20  1  0
 23 24  1  1
 23 22  1  0
 24 25  1  0
 25 29  1  0
 26 25  2  0
 26 27  1  0
 27 28  1  0
 29 28  2  0
 30 31  1  0
 30 23  1  0
 32 30  2  0
M  END
$$$$
