VWH.pdb
     RDKit          3D

 32 34  0  0  1  0  0  0  0  0999 V2000
    7.7651  -14.7170   17.4220 C   0  0  0  0  0  0  0  0  0  0  0  0
    8.5158  -14.8193   18.7454 C   0  0  2  0  0  0  0  0  0  0  0  0
    9.0844  -16.2105   18.9267 C   0  0  0  0  0  0  0  0  0  0  0  0
    7.6800  -14.3688   19.8982 C   0  0  2  0  0  0  0  0  0  0  0  0
    7.2607  -13.0059   19.6468 N   0  0  0  0  0  0  0  0  0  0  0  0
    8.3678  -14.4188   21.2023 C   0  0  0  0  0  0  0  0  0  0  0  0
    9.2121  -13.5302   21.4984 O   0  0  0  0  0  0  0  0  0  0  0  0
    8.1035  -15.4446   22.1367 N   0  0  0  0  0  0  0  0  0  0  0  0
    8.8973  -15.6135   23.3770 C   0  0  1  0  0  0  0  0  0  0  0  0
    7.9804  -15.9887   24.4624 C   0  0  0  0  0  0  0  0  0  0  0  0
    7.1165  -15.0052   25.0756 C   0  0  0  0  0  0  0  0  0  0  0  0
    5.7882  -15.1006   25.4253 C   0  0  0  0  0  0  0  0  0  0  0  0
    5.4221  -13.9370   25.9666 N   0  0  0  0  0  0  0  0  0  0  0  0
    6.4479  -13.0956   25.9840 C   0  0  0  0  0  0  0  0  0  0  0  0
    6.5791  -11.7802   26.4553 C   0  0  0  0  0  0  0  0  0  0  0  0
    7.7830  -11.1035   26.3758 C   0  0  0  0  0  0  0  0  0  0  0  0
    8.8592  -11.7472   25.8215 C   0  0  0  0  0  0  0  0  0  0  0  0
    8.7241  -13.0341   25.3620 C   0  0  0  0  0  0  0  0  0  0  0  0
    7.5332  -13.7326   25.4300 C   0  0  0  0  0  0  0  0  0  0  0  0
   10.0815  -16.4075   23.1188 C   0  0  0  0  0  0  0  0  0  0  0  0
    9.9760  -17.5572   22.5530 O   0  0  0  0  0  0  0  0  0  0  0  0
   11.4052  -16.0186   23.4354 N   0  0  0  0  0  0  0  0  0  0  0  0
   12.5269  -16.9322   23.1146 C   0  0  1  0  0  0  0  0  0  0  0  0
   13.7440  -16.0583   22.7904 C   0  0  0  0  0  0  0  0  0  0  0  0
   13.5170  -15.3791   21.5018 C   0  0  0  0  0  0  0  0  0  0  0  0
   12.8777  -15.9741   20.3953 C   0  0  0  0  0  0  0  0  0  0  0  0
   12.8359  -15.0902   19.3995 N   0  0  0  0  0  0  0  0  0  0  0  0
   13.4122  -13.9598   19.8025 C   0  0  0  0  0  0  0  0  0  0  0  0
   13.8103  -14.1513   21.0540 N   0  0  0  0  0  0  0  0  0  0  0  0
   12.8667  -17.6818   24.3468 C   0  0  0  0  0  0  0  0  0  0  0  0
   13.8980  -18.6541   24.3176 O   0  0  0  0  0  0  0  0  0  0  0  0
   12.3247  -17.5547   25.4630 O   0  0  0  0  0  0  0  0  0  0  0  0
  2  1  1  6
  2  3  1  0
  4  2  1  0
  4  5  1  6
  6  4  1  0
  6  7  2  0
  8  6  1  0
  9 10  1  1
  9  8  1  0
 11 10  1  0
 11 12  2  0
 13 12  1  0
 14 13  1  0
 15 14  2  0
 16 15  1  0
 17 16  2  0
 17 18  1  0
 18 19  2  0
 19 14  1  0
 19 11  1  0
 20  9  1  0
 21 20  2  0
 22 20  1  0
 23 24  1  1
 23 22  1  0
 24 25  1  0
 25 29  1  0
 26 25  2  0
 26 27  1  0
 27 28  1  0
 29 28  2  0
 30 31  1  0
 30 23  1  0
 32 30  2  0
M  END
$$$$
