VWH.pdb
     RDKit          3D

 32 34  0  0  1  0  0  0  0  0999 V2000
    6.8847  -13.5945   19.5192 C   0  0  0  0  0  0  0  0  0  0  0  0
    8.2134  -13.4335   18.7887 C   0  0  2  0  0  0  0  0  0  0  0  0
    8.0301  -13.6455   17.3010 C   0  0  0  0  0  0  0  0  0  0  0  0
    9.2834  -14.2918   19.3794 C   0  0  2  0  0  0  0  0  0  0  0  0
    9.0125  -15.6666   19.0147 N   0  0  0  0  0  0  0  0  0  0  0  0
    9.3893  -14.2046   20.8483 C   0  0  0  0  0  0  0  0  0  0  0  0
    9.4455  -13.0746   21.4050 O   0  0  0  0  0  0  0  0  0  0  0  0
    9.4296  -15.3634   21.6550 N   0  0  0  0  0  0  0  0  0  0  0  0
    9.0862  -15.3403   23.0967 C   0  0  1  0  0  0  0  0  0  0  0  0
    7.7948  -14.6564   23.2510 C   0  0  0  0  0  0  0  0  0  0  0  0
    7.1629  -14.5501   24.5469 C   0  0  0  0  0  0  0  0  0  0  0  0
    6.4924  -15.5056   25.2770 C   0  0  0  0  0  0  0  0  0  0  0  0
    6.0885  -14.9419   26.4171 N   0  0  0  0  0  0  0  0  0  0  0  0
    6.4650  -13.6703   26.4594 C   0  0  0  0  0  0  0  0  0  0  0  0
    6.3012  -12.6714   27.4315 C   0  0  0  0  0  0  0  0  0  0  0  0
    6.8101  -11.3981   27.2485 C   0  0  0  0  0  0  0  0  0  0  0  0
    7.4855  -11.1249   26.0870 C   0  0  0  0  0  0  0  0  0  0  0  0
    7.6420  -12.1066   25.1398 C   0  0  0  0  0  0  0  0  0  0  0  0
    7.1440  -13.3864   25.2980 C   0  0  0  0  0  0  0  0  0  0  0  0
    9.2926  -16.6462   23.6896 C   0  0  0  0  0  0  0  0  0  0  0  0
    9.1767  -17.7060   22.9710 O   0  0  0  0  0  0  0  0  0  0  0  0
    9.6341  -16.8788   25.0434 N   0  0  0  0  0  0  0  0  0  0  0  0
   10.6277  -17.9279   25.3718 C   0  0  1  0  0  0  0  0  0  0  0  0
   11.9754  -17.4689   24.8033 C   0  0  0  0  0  0  0  0  0  0  0  0
   12.0908  -17.9336   23.4089 C   0  0  0  0  0  0  0  0  0  0  0  0
   12.6366  -17.1647   22.3611 C   0  0  0  0  0  0  0  0  0  0  0  0
   12.5915  -17.8797   21.2379 N   0  0  0  0  0  0  0  0  0  0  0  0
   12.0476  -19.0654   21.5036 C   0  0  0  0  0  0  0  0  0  0  0  0
   11.7568  -19.0781   22.7986 N   0  0  0  0  0  0  0  0  0  0  0  0
   10.7840  -17.9583   26.8450 C   0  0  0  0  0  0  0  0  0  0  0  0
   10.0105  -17.0875   27.6532 O   0  0  0  0  0  0  0  0  0  0  0  0
   11.5559  -18.6944   27.4918 O   0  0  0  0  0  0  0  0  0  0  0  0
  2  1  1  1
  2  3  1  0
  4  2  1  0
  4  5  1  1
  6  4  1  0
  6  7  2  0
  8  6  1  0
  9 10  1  6
  9  8  1  0
 11 10  1  0
 11 12  2  0
 13 12  1  0
 14 13  1  0
 15 14  2  0
 16 15  1  0
 17 16  2  0
 17 18  1  0
 18 19  2  0
 19 14  1  0
 19 11  1  0
 20  9  1  0
 21 20  2  0
 22 20  1  0
 23 24  1  6
 23 22  1  0
 24 25  1  0
 25 29  1  0
 26 25  2  0
 26 27  1  0
 27 28  1  0
 29 28  2  0
 30 31  1  0
 30 23  1  0
 32 30  2  0
M  END
$$$$
