VWH.pdb
     RDKit          3D

 32 34  0  0  1  0  0  0  0  0999 V2000
    9.0539  -18.4402   20.4937 C   0  0  0  0  0  0  0  0  0  0  0  0
    7.6368  -17.9858   20.8260 C   0  0  2  0  0  0  0  0  0  0  0  0
    6.6776  -18.3937   19.7281 C   0  0  0  0  0  0  0  0  0  0  0  0
    7.5784  -16.5289   21.1490 C   0  0  2  0  0  0  0  0  0  0  0  0
    7.8991  -15.7867   19.9479 N   0  0  0  0  0  0  0  0  0  0  0  0
    8.4974  -16.1085   22.2238 C   0  0  0  0  0  0  0  0  0  0  0  0
    9.4921  -15.3843   21.9483 O   0  0  0  0  0  0  0  0  0  0  0  0
    8.2908  -16.4991   23.5655 N   0  0  0  0  0  0  0  0  0  0  0  0
    9.1761  -16.0541   24.6679 C   0  0  1  0  0  0  0  0  0  0  0  0
    8.3472  -15.8258   25.8597 C   0  0  0  0  0  0  0  0  0  0  0  0
    7.2454  -14.8904   25.8277 C   0  0  0  0  0  0  0  0  0  0  0  0
    5.9018  -15.1239   25.6385 C   0  0  0  0  0  0  0  0  0  0  0  0
    5.2697  -13.9500   25.6952 N   0  0  0  0  0  0  0  0  0  0  0  0
    6.1382  -12.9706   25.9118 C   0  0  0  0  0  0  0  0  0  0  0  0
    5.9762  -11.5850   26.0655 C   0  0  0  0  0  0  0  0  0  0  0  0
    7.0573  -10.7560   26.3059 C   0  0  0  0  0  0  0  0  0  0  0  0
    8.3051  -11.3174   26.3921 C   0  0  0  0  0  0  0  0  0  0  0  0
    8.4568  -12.6737   26.2404 C   0  0  0  0  0  0  0  0  0  0  0  0
    7.3938  -13.5241   26.0002 C   0  0  0  0  0  0  0  0  0  0  0  0
   10.3501  -16.8993   24.7501 C   0  0  0  0  0  0  0  0  0  0  0  0
   11.3292  -16.5701   25.5156 O   0  0  0  0  0  0  0  0  0  0  0  0
   10.5282  -18.1129   24.0437 N   0  0  0  0  0  0  0  0  0  0  0  0
   11.8489  -18.7841   24.0748 C   0  0  1  0  0  0  0  0  0  0  0  0
   12.8853  -17.7669   23.5833 C   0  0  0  0  0  0  0  0  0  0  0  0
   12.7013  -17.5563   22.1358 C   0  0  0  0  0  0  0  0  0  0  0  0
   12.8346  -16.3082   21.4944 C   0  0  0  0  0  0  0  0  0  0  0  0
   12.6054  -16.4701   20.1921 N   0  0  0  0  0  0  0  0  0  0  0  0
   12.3321  -17.7520   19.9590 C   0  0  0  0  0  0  0  0  0  0  0  0
   12.3941  -18.3810   21.1261 N   0  0  0  0  0  0  0  0  0  0  0  0
   12.1798  -19.0669   25.4911 C   0  0  0  0  0  0  0  0  0  0  0  0
   11.2090  -18.8420   26.4995 O   0  0  0  0  0  0  0  0  0  0  0  0
   13.2667  -19.4991   25.9247 O   0  0  0  0  0  0  0  0  0  0  0  0
  2  1  1  6
  2  3  1  0
  4  2  1  0
  4  5  1  6
  6  4  1  0
  6  7  2  0
  8  6  1  0
  9 10  1  1
  9  8  1  0
 11 10  1  0
 11 12  2  0
 13 12  1  0
 14 13  1  0
 15 14  2  0
 16 15  1  0
 17 16  2  0
 17 18  1  0
 18 19  2  0
 19 14  1  0
 19 11  1  0
 20  9  1  0
 21 20  2  0
 22 20  1  0
 23 24  1  1
 23 22  1  0
 24 25  1  0
 25 29  1  0
 26 25  2  0
 26 27  1  0
 27 28  1  0
 29 28  2  0
 30 31  1  0
 30 23  1  0
 32 30  2  0
M  END
$$$$
