VWH.pdb
     RDKit          3D

 32 34  0  0  1  0  0  0  0  0999 V2000
    7.5898  -13.2815   18.8453 C   0  0  0  0  0  0  0  0  0  0  0  0
    8.8513  -13.9204   18.2747 C   0  0  2  0  0  0  0  0  0  0  0  0
    8.6284  -14.3446   16.8388 C   0  0  0  0  0  0  0  0  0  0  0  0
    9.3611  -15.0232   19.1432 C   0  0  2  0  0  0  0  0  0  0  0  0
    8.4762  -16.1598   18.9961 N   0  0  0  0  0  0  0  0  0  0  0  0
    9.4510  -14.6762   20.5743 C   0  0  0  0  0  0  0  0  0  0  0  0
   10.3491  -13.8849   20.9705 O   0  0  0  0  0  0  0  0  0  0  0  0
    8.5497  -15.2116   21.5211 N   0  0  0  0  0  0  0  0  0  0  0  0
    8.5294  -14.7713   22.9362 C   0  0  1  0  0  0  0  0  0  0  0  0
    7.2133  -15.0998   23.5013 C   0  0  0  0  0  0  0  0  0  0  0  0
    6.8931  -14.7723   24.8725 C   0  0  0  0  0  0  0  0  0  0  0  0
    6.4969  -15.5965   25.9017 C   0  0  0  0  0  0  0  0  0  0  0  0
    6.3211  -14.8410   26.9876 N   0  0  0  0  0  0  0  0  0  0  0  0
    6.5842  -13.5704   26.7106 C   0  0  0  0  0  0  0  0  0  0  0  0
    6.5638  -12.4105   27.5005 C   0  0  0  0  0  0  0  0  0  0  0  0
    6.9027  -11.1761   26.9761 C   0  0  0  0  0  0  0  0  0  0  0  0
    7.2630  -11.1037   25.6551 C   0  0  0  0  0  0  0  0  0  0  0  0
    7.2807  -12.2422   24.8877 C   0  0  0  0  0  0  0  0  0  0  0  0
    6.9472  -13.4874   25.3870 C   0  0  0  0  0  0  0  0  0  0  0  0
    9.7379  -15.1909   23.6167 C   0  0  0  0  0  0  0  0  0  0  0  0
   10.3510  -14.3782   24.4019 O   0  0  0  0  0  0  0  0  0  0  0  0
   10.3314  -16.4709   23.5028 N   0  0  0  0  0  0  0  0  0  0  0  0
   10.7570  -17.1858   24.7290 C   0  0  1  0  0  0  0  0  0  0  0  0
    9.4843  -17.6373   25.4545 C   0  0  0  0  0  0  0  0  0  0  0  0
    9.8519  -18.1795   26.7752 C   0  0  0  0  0  0  0  0  0  0  0  0
   11.1678  -18.2102   27.2798 C   0  0  0  0  0  0  0  0  0  0  0  0
   11.1477  -18.7602   28.4930 N   0  0  0  0  0  0  0  0  0  0  0  0
    9.8932  -19.0852   28.7978 C   0  0  0  0  0  0  0  0  0  0  0  0
    9.1384  -18.7323   27.7648 N   0  0  0  0  0  0  0  0  0  0  0  0
   11.4610  -18.4210   24.3117 C   0  0  0  0  0  0  0  0  0  0  0  0
   12.0773  -19.2442   25.2876 O   0  0  0  0  0  0  0  0  0  0  0  0
   11.5844  -18.8436   23.1445 O   0  0  0  0  0  0  0  0  0  0  0  0
  2  1  1  1
  2  3  1  0
  4  2  1  0
  4  5  1  1
  6  4  1  0
  6  7  2  0
  8  6  1  0
  9 10  1  1
  9  8  1  0
 11 10  1  0
 11 12  2  0
 13 12  1  0
 14 13  1  0
 15 14  2  0
 16 15  1  0
 17 16  2  0
 17 18  1  0
 18 19  2  0
 19 14  1  0
 19 11  1  0
 20  9  1  0
 21 20  2  0
 22 20  1  0
 23 24  1  1
 23 22  1  0
 24 25  1  0
 25 29  1  0
 26 25  2  0
 26 27  1  0
 27 28  1  0
 29 28  2  0
 30 31  1  0
 30 23  1  0
 32 30  2  0
M  END
$$$$
