VWH.pdb
     RDKit          3D

 32 34  0  0  1  0  0  0  0  0999 V2000
    7.2620  -14.7018   17.8374 C   0  0  0  0  0  0  0  0  0  0  0  0
    8.2257  -14.8308   19.0120 C   0  0  2  0  0  0  0  0  0  0  0  0
    8.7229  -16.2552   19.1365 C   0  0  0  0  0  0  0  0  0  0  0  0
    7.6383  -14.2984   20.2777 C   0  0  2  0  0  0  0  0  0  0  0  0
    7.2817  -12.9118   20.0620 N   0  0  0  0  0  0  0  0  0  0  0  0
    8.5372  -14.3792   21.4447 C   0  0  0  0  0  0  0  0  0  0  0  0
    9.4185  -13.4942   21.6175 O   0  0  0  0  0  0  0  0  0  0  0  0
    8.4360  -15.4310   22.3822 N   0  0  0  0  0  0  0  0  0  0  0  0
    9.3322  -15.5363   23.5581 C   0  0  1  0  0  0  0  0  0  0  0  0
    8.5221  -15.9267   24.7203 C   0  0  0  0  0  0  0  0  0  0  0  0
    7.4332  -15.0932   25.1780 C   0  0  0  0  0  0  0  0  0  0  0  0
    6.0900  -15.3798   25.2752 C   0  0  0  0  0  0  0  0  0  0  0  0
    5.4738  -14.2985   25.7567 N   0  0  0  0  0  0  0  0  0  0  0  0
    6.3523  -13.3285   25.9754 C   0  0  0  0  0  0  0  0  0  0  0  0
    6.2118  -12.0272   26.4821 C   0  0  0  0  0  0  0  0  0  0  0  0
    7.3041  -11.1925   26.6360 C   0  0  0  0  0  0  0  0  0  0  0  0
    8.5418  -11.6634   26.2805 C   0  0  0  0  0  0  0  0  0  0  0  0
    8.6724  -12.9374   25.7850 C   0  0  0  0  0  0  0  0  0  0  0  0
    7.5978  -13.7915   25.6218 C   0  0  0  0  0  0  0  0  0  0  0  0
   10.5274  -16.2830   23.2213 C   0  0  0  0  0  0  0  0  0  0  0  0
   10.4332  -17.4914   22.7924 O   0  0  0  0  0  0  0  0  0  0  0  0
   11.8492  -15.7853   23.3144 N   0  0  0  0  0  0  0  0  0  0  0  0
   12.9855  -16.6752   22.9788 C   0  0  1  0  0  0  0  0  0  0  0  0
   14.1702  -15.7761   22.6070 C   0  0  0  0  0  0  0  0  0  0  0  0
   13.9634  -15.2489   21.2459 C   0  0  0  0  0  0  0  0  0  0  0  0
   12.9356  -15.6742   20.3801 C   0  0  0  0  0  0  0  0  0  0  0  0
   13.0333  -14.9985   19.2362 N   0  0  0  0  0  0  0  0  0  0  0  0
   14.0659  -14.1621   19.3168 C   0  0  0  0  0  0  0  0  0  0  0  0
   14.6055  -14.3257   20.5183 N   0  0  0  0  0  0  0  0  0  0  0  0
   13.3777  -17.3940   24.2138 C   0  0  0  0  0  0  0  0  0  0  0  0
   12.6197  -17.2220   25.3994 O   0  0  0  0  0  0  0  0  0  0  0  0
   14.3458  -18.1700   24.3422 O   0  0  0  0  0  0  0  0  0  0  0  0
  2  1  1  6
  2  3  1  0
  4  2  1  0
  4  5  1  6
  6  4  1  0
  6  7  2  0
  8  6  1  0
  9 10  1  1
  9  8  1  0
 11 10  1  0
 11 12  2  0
 13 12  1  0
 14 13  1  0
 15 14  2  0
 16 15  1  0
 17 16  2  0
 17 18  1  0
 18 19  2  0
 19 14  1  0
 19 11  1  0
 20  9  1  0
 21 20  2  0
 22 20  1  0
 23 24  1  1
 23 22  1  0
 24 25  1  0
 25 29  1  0
 26 25  2  0
 26 27  1  0
 27 28  1  0
 29 28  2  0
 30 31  1  0
 30 23  1  0
 32 30  2  0
M  END
$$$$
