VWH.pdb
     RDKit          3D

 32 34  0  0  1  0  0  0  0  0999 V2000
    9.0700  -18.4336   18.9178 C   0  0  0  0  0  0  0  0  0  0  0  0
    9.6086  -17.9668   20.2658 C   0  0  2  0  0  0  0  0  0  0  0  0
   10.2769  -19.1123   20.9957 C   0  0  0  0  0  0  0  0  0  0  0  0
    8.5606  -17.2806   21.0790 C   0  0  2  0  0  0  0  0  0  0  0  0
    7.9776  -16.2302   20.2709 N   0  0  0  0  0  0  0  0  0  0  0  0
    9.0583  -16.6892   22.3356 C   0  0  0  0  0  0  0  0  0  0  0  0
    9.8302  -15.6931   22.2950 O   0  0  0  0  0  0  0  0  0  0  0  0
    8.6898  -17.2137   23.5943 N   0  0  0  0  0  0  0  0  0  0  0  0
    9.2738  -16.7184   24.8634 C   0  0  1  0  0  0  0  0  0  0  0  0
    8.1878  -16.5693   25.8421 C   0  0  0  0  0  0  0  0  0  0  0  0
    7.2014  -15.5221   25.7004 C   0  0  0  0  0  0  0  0  0  0  0  0
    5.8650  -15.6131   25.3819 C   0  0  0  0  0  0  0  0  0  0  0  0
    5.3604  -14.3777   25.3735 N   0  0  0  0  0  0  0  0  0  0  0  0
    6.3043  -13.4940   25.6709 C   0  0  0  0  0  0  0  0  0  0  0  0
    6.2784  -12.0971   25.8042 C   0  0  0  0  0  0  0  0  0  0  0  0
    7.4141  -11.3852   26.1463 C   0  0  0  0  0  0  0  0  0  0  0  0
    8.5801  -12.0756   26.3552 C   0  0  0  0  0  0  0  0  0  0  0  0
    8.5989  -13.4422   26.2228 C   0  0  0  0  0  0  0  0  0  0  0  0
    7.4786  -14.1773   25.8827 C   0  0  0  0  0  0  0  0  0  0  0  0
   10.4619  -17.4739   25.2055 C   0  0  0  0  0  0  0  0  0  0  0  0
   11.2953  -17.8152   24.2878 O   0  0  0  0  0  0  0  0  0  0  0  0
   10.8151  -17.8841   26.5134 N   0  0  0  0  0  0  0  0  0  0  0  0
   12.0916  -18.6052   26.7284 C   0  0  1  0  0  0  0  0  0  0  0  0
   13.2210  -17.5781   26.5883 C   0  0  0  0  0  0  0  0  0  0  0  0
   13.7116  -17.5915   25.1981 C   0  0  0  0  0  0  0  0  0  0  0  0
   13.1514  -18.3747   24.1686 C   0  0  0  0  0  0  0  0  0  0  0  0
   13.8281  -18.1491   23.0435 N   0  0  0  0  0  0  0  0  0  0  0  0
   14.7922  -17.2649   23.2906 C   0  0  0  0  0  0  0  0  0  0  0  0
   14.7066  -16.9458   24.5760 N   0  0  0  0  0  0  0  0  0  0  0  0
   12.1190  -19.0673   28.1360 C   0  0  0  0  0  0  0  0  0  0  0  0
   10.9959  -18.8451   28.9720 O   0  0  0  0  0  0  0  0  0  0  0  0
   13.0612  -19.6564   28.7029 O   0  0  0  0  0  0  0  0  0  0  0  0
  2  1  1  6
  2  3  1  0
  4  2  1  0
  4  5  1  6
  6  4  1  0
  6  7  2  0
  8  6  1  0
  9 10  1  1
  9  8  1  0
 11 10  1  0
 11 12  2  0
 13 12  1  0
 14 13  1  0
 15 14  2  0
 16 15  1  0
 17 16  2  0
 17 18  1  0
 18 19  2  0
 19 14  1  0
 19 11  1  0
 20  9  1  0
 21 20  2  0
 22 20  1  0
 23 24  1  1
 23 22  1  0
 24 25  1  0
 25 29  1  0
 26 25  2  0
 26 27  1  0
 27 28  1  0
 29 28  2  0
 30 31  1  0
 30 23  1  0
 32 30  2  0
M  END
$$$$
