VWH.pdb
     RDKit          3D

 32 34  0  0  1  0  0  0  0  0999 V2000
    6.6463  -13.4934   19.1355 C   0  0  0  0  0  0  0  0  0  0  0  0
    7.4583  -13.6002   20.4217 C   0  0  2  0  0  0  0  0  0  0  0  0
    8.3764  -12.4057   20.5703 C   0  0  0  0  0  0  0  0  0  0  0  0
    8.1711  -14.9085   20.5256 C   0  0  2  0  0  0  0  0  0  0  0  0
    7.1961  -15.9676   20.3707 N   0  0  0  0  0  0  0  0  0  0  0  0
    8.8886  -15.1090   21.7989 C   0  0  0  0  0  0  0  0  0  0  0  0
    9.8882  -14.3910   22.0731 O   0  0  0  0  0  0  0  0  0  0  0  0
    8.4822  -16.0928   22.7275 N   0  0  0  0  0  0  0  0  0  0  0  0
    9.1797  -16.3035   24.0183 C   0  0  1  0  0  0  0  0  0  0  0  0
    8.1647  -16.4552   25.0701 C   0  0  0  0  0  0  0  0  0  0  0  0
    7.2198  -15.3965   25.3461 C   0  0  0  0  0  0  0  0  0  0  0  0
    5.8593  -15.3588   25.1381 C   0  0  0  0  0  0  0  0  0  0  0  0
    5.4137  -14.1717   25.5542 N   0  0  0  0  0  0  0  0  0  0  0  0
    6.4186  -13.4416   26.0205 C   0  0  0  0  0  0  0  0  0  0  0  0
    6.4685  -12.1540   26.5767 C   0  0  0  0  0  0  0  0  0  0  0  0
    7.6600  -11.6047   27.0153 C   0  0  0  0  0  0  0  0  0  0  0  0
    8.8057  -12.3483   26.8958 C   0  0  0  0  0  0  0  0  0  0  0  0
    8.7501  -13.6073   26.3504 C   0  0  0  0  0  0  0  0  0  0  0  0
    7.5731  -14.1795   25.9051 C   0  0  0  0  0  0  0  0  0  0  0  0
   10.2298  -17.2913   23.8736 C   0  0  0  0  0  0  0  0  0  0  0  0
   10.0620  -18.3013   23.0959 O   0  0  0  0  0  0  0  0  0  0  0  0
   11.4838  -17.2456   24.5286 N   0  0  0  0  0  0  0  0  0  0  0  0
   12.4469  -18.3543   24.3313 C   0  0  1  0  0  0  0  0  0  0  0  0
   13.8417  -17.7279   24.2204 C   0  0  0  0  0  0  0  0  0  0  0  0
   14.8377  -18.8018   24.0525 C   0  0  0  0  0  0  0  0  0  0  0  0
   14.5287  -20.1071   23.6195 C   0  0  0  0  0  0  0  0  0  0  0  0
   15.6530  -20.8205   23.5760 N   0  0  0  0  0  0  0  0  0  0  0  0
   16.6682  -20.0479   23.9566 C   0  0  0  0  0  0  0  0  0  0  0  0
   16.1636  -18.8525   24.2355 N   0  0  0  0  0  0  0  0  0  0  0  0
   12.4535  -19.1735   25.5660 C   0  0  0  0  0  0  0  0  0  0  0  0
   13.0830  -20.4437   25.5650 O   0  0  0  0  0  0  0  0  0  0  0  0
   11.9431  -18.8643   26.6615 O   0  0  0  0  0  0  0  0  0  0  0  0
  2  1  1  6
  2  3  1  0
  4  2  1  0
  4  5  1  1
  6  4  1  0
  6  7  2  0
  8  6  1  0
  9 10  1  1
  9  8  1  0
 11 10  1  0
 11 12  2  0
 13 12  1  0
 14 13  1  0
 15 14  2  0
 16 15  1  0
 17 16  2  0
 17 18  1  0
 18 19  2  0
 19 14  1  0
 19 11  1  0
 20  9  1  0
 21 20  2  0
 22 20  1  0
 23 24  1  1
 23 22  1  0
 24 25  1  0
 25 29  1  0
 26 25  2  0
 26 27  1  0
 27 28  1  0
 29 28  2  0
 30 31  1  0
 30 23  1  0
 32 30  2  0
M  END
$$$$
