LEG.pdb
     RDKit          3D

 22 21  0  0  1  0  0  0  0  0999 V2000
    7.0791  -12.0095   24.7591 C   0  0  0  0  0  0  0  0  0  0  0  0
    6.4723  -12.7198   25.9362 C   0  0  2  0  0  0  0  0  0  0  0  0
    6.5966  -11.8640   27.1781 C   0  0  0  0  0  0  0  0  0  0  0  0
    7.1028  -14.0429   26.2197 C   0  0  0  0  0  0  0  0  0  0  0  0
    6.7567  -15.0894   25.1843 C   0  0  2  0  0  0  0  0  0  0  0  0
    5.4556  -15.6458   25.3706 N   0  0  0  0  0  0  0  0  0  0  0  0
    7.8179  -16.1225   25.0768 C   0  0  0  0  0  0  0  0  0  0  0  0
    7.7664  -17.1415   25.7856 O   0  0  0  0  0  0  0  0  0  0  0  0
    8.9155  -15.9929   24.1770 N   0  0  0  0  0  0  0  0  0  0  0  0
    9.9978  -16.9765   24.1246 C   0  0  1  0  0  0  0  0  0  0  0  0
   10.9233  -16.6837   22.9523 C   0  0  0  0  0  0  0  0  0  0  0  0
   12.0016  -17.7335   22.8132 C   0  0  0  0  0  0  0  0  0  0  0  0
   12.2647  -17.9266   21.3790 C   0  0  0  0  0  0  0  0  0  0  0  0
   12.3388  -16.9169   20.6115 O   0  0  0  0  0  0  0  0  0  0  0  0
   10.7696  -16.8619   25.3856 C   0  0  0  0  0  0  0  0  0  0  0  0
   11.3539  -15.7868   25.6984 O   0  0  0  0  0  0  0  0  0  0  0  0
   12.4445  -19.1636   20.7764 O   0  0  0  0  0  0  0  0  0  0  0  0
   10.9032  -17.9289   26.3098 N   0  0  0  0  0  0  0  0  0  0  0  0
   11.6612  -17.7773   27.5543 C   0  0  0  0  0  0  0  0  0  0  0  0
   11.5997  -18.9836   28.3806 C   0  0  0  0  0  0  0  0  0  0  0  0
   12.2527  -18.9985   29.6016 O   0  0  0  0  0  0  0  0  0  0  0  0
   10.9774  -20.0108   28.0285 O   0  0  0  0  0  0  0  0  0  0  0  0
  2  1  1  6
  2  3  1  0
  4  2  1  0
  4  5  1  0
  5  7  1  0
  5  6  1  1
  7  9  1  0
  7  8  2  0
  9 10  1  0
 10 15  1  0
 10 11  1  6
 12 13  1  0
 12 11  1  0
 13 14  2  0
 15 16  2  0
 17 13  1  0
 18 15  1  0
 18 19  1  0
 19 20  1  0
 20 22  2  0
 20 21  1  0
M  END
$$$$
