LEG.pdb
     RDKit          3D

 22 21  0  0  1  0  0  0  0  0999 V2000
    9.3093  -12.5729   18.8886 C   0  0  0  0  0  0  0  0  0  0  0  0
    8.0238  -13.2296   19.3061 C   0  0  2  0  0  0  0  0  0  0  0  0
    7.0187  -12.1797   19.7274 C   0  0  0  0  0  0  0  0  0  0  0  0
    8.1892  -14.1924   20.4348 C   0  0  0  0  0  0  0  0  0  0  0  0
    9.2087  -15.2698   20.1397 C   0  0  2  0  0  0  0  0  0  0  0  0
    8.8363  -16.1003   19.0402 N   0  0  0  0  0  0  0  0  0  0  0  0
    9.5531  -16.0440   21.3592 C   0  0  0  0  0  0  0  0  0  0  0  0
    8.7004  -16.2173   22.2459 O   0  0  0  0  0  0  0  0  0  0  0  0
   10.8461  -16.6084   21.5604 N   0  0  0  0  0  0  0  0  0  0  0  0
   11.1638  -17.4254   22.7322 C   0  0  1  0  0  0  0  0  0  0  0  0
   11.5426  -18.8368   22.3070 C   0  0  0  0  0  0  0  0  0  0  0  0
   10.8628  -19.2355   21.0174 C   0  0  0  0  0  0  0  0  0  0  0  0
   11.5563  -20.4186   20.4856 C   0  0  0  0  0  0  0  0  0  0  0  0
   11.6446  -20.5840   19.2291 O   0  0  0  0  0  0  0  0  0  0  0  0
   12.3241  -16.8015   23.4128 C   0  0  0  0  0  0  0  0  0  0  0  0
   12.7289  -17.2232   24.5323 O   0  0  0  0  0  0  0  0  0  0  0  0
   12.1414  -21.4012   21.2715 O   0  0  0  0  0  0  0  0  0  0  0  0
   13.0459  -15.7103   22.8662 N   0  0  0  0  0  0  0  0  0  0  0  0
   14.1852  -15.1137   23.5680 C   0  0  0  0  0  0  0  0  0  0  0  0
   15.4460  -15.7673   23.2148 C   0  0  0  0  0  0  0  0  0  0  0  0
   16.6292  -15.2809   23.7450 O   0  0  0  0  0  0  0  0  0  0  0  0
   15.5018  -16.7549   22.4481 O   0  0  0  0  0  0  0  0  0  0  0  0
  2  1  1  1
  2  3  1  0
  4  2  1  0
  4  5  1  0
  5  7  1  0
  5  6  1  6
  7  9  1  0
  7  8  2  0
  9 10  1  0
 10 15  1  0
 10 11  1  6
 12 13  1  0
 12 11  1  0
 13 14  2  0
 15 16  2  0
 17 13  1  0
 18 15  1  0
 18 19  1  0
 19 20  1  0
 20 22  2  0
 20 21  1  0
M  END
$$$$
