LEG.pdb
     RDKit          3D

 22 21  0  0  1  0  0  0  0  0999 V2000
    9.3531  -12.4272   19.0329 C   0  0  0  0  0  0  0  0  0  0  0  0
    8.1521  -13.1793   19.5331 C   0  0  2  0  0  0  0  0  0  0  0  0
    7.3556  -12.3110   20.4827 C   0  0  0  0  0  0  0  0  0  0  0  0
    8.4990  -14.4457   20.2432 C   0  0  0  0  0  0  0  0  0  0  0  0
    9.2750  -15.4098   19.3739 C   0  0  2  0  0  0  0  0  0  0  0  0
    8.5269  -15.8679   18.2481 N   0  0  0  0  0  0  0  0  0  0  0  0
    9.8558  -16.5187   20.1729 C   0  0  0  0  0  0  0  0  0  0  0  0
    9.1266  -17.4382   20.5805 O   0  0  0  0  0  0  0  0  0  0  0  0
   11.2420  -16.5747   20.4989 N   0  0  0  0  0  0  0  0  0  0  0  0
   11.8186  -17.6882   21.2533 C   0  0  1  0  0  0  0  0  0  0  0  0
   13.2342  -17.9761   20.7740 C   0  0  0  0  0  0  0  0  0  0  0  0
   13.2441  -18.6035   19.3991 C   0  0  0  0  0  0  0  0  0  0  0  0
   14.4566  -18.1492   18.7015 C   0  0  0  0  0  0  0  0  0  0  0  0
   15.2837  -17.3958   19.3036 O   0  0  0  0  0  0  0  0  0  0  0  0
   11.8673  -17.2862   22.6797 C   0  0  0  0  0  0  0  0  0  0  0  0
   12.5017  -16.2579   23.0472 O   0  0  0  0  0  0  0  0  0  0  0  0
   14.7811  -18.4881   17.3956 O   0  0  0  0  0  0  0  0  0  0  0  0
   11.2185  -18.0128   23.7102 N   0  0  0  0  0  0  0  0  0  0  0  0
   11.2092  -17.5383   25.0963 C   0  0  0  0  0  0  0  0  0  0  0  0
   12.0976  -18.3289   25.9491 C   0  0  0  0  0  0  0  0  0  0  0  0
   12.1428  -18.0614   27.3070 O   0  0  0  0  0  0  0  0  0  0  0  0
   12.8244  -19.2438   25.5007 O   0  0  0  0  0  0  0  0  0  0  0  0
  2  1  1  1
  2  3  1  0
  4  2  1  0
  4  5  1  0
  5  7  1  0
  5  6  1  6
  7  9  1  0
  7  8  2  0
  9 10  1  0
 10 15  1  0
 10 11  1  6
 12 13  1  0
 12 11  1  0
 13 14  2  0
 15 16  2  0
 17 13  1  0
 18 15  1  0
 18 19  1  0
 19 20  1  0
 20 22  2  0
 20 21  1  0
M  END
$$$$
