LEG.pdb
     RDKit          3D

 22 21  0  0  1  0  0  0  0  0999 V2000
    8.3278  -12.7674   18.0376 C   0  0  0  0  0  0  0  0  0  0  0  0
    7.4030  -13.5368   18.9381 C   0  0  2  0  0  0  0  0  0  0  0  0
    6.7767  -12.6066   19.9542 C   0  0  0  0  0  0  0  0  0  0  0  0
    8.0798  -14.6430   19.6774 C   0  0  0  0  0  0  0  0  0  0  0  0
    8.7332  -15.6483   18.7556 C   0  0  2  0  0  0  0  0  0  0  0  0
    7.7898  -16.3759   17.9695 N   0  0  0  0  0  0  0  0  0  0  0  0
    9.6765  -16.5294   19.4899 C   0  0  0  0  0  0  0  0  0  0  0  0
    9.2477  -17.5133   20.1156 O   0  0  0  0  0  0  0  0  0  0  0  0
   11.0813  -16.2901   19.5081 N   0  0  0  0  0  0  0  0  0  0  0  0
   12.0136  -17.1866   20.1927 C   0  0  1  0  0  0  0  0  0  0  0  0
   13.3194  -17.2855   19.4170 C   0  0  0  0  0  0  0  0  0  0  0  0
   13.1205  -17.9281   18.0636 C   0  0  0  0  0  0  0  0  0  0  0  0
   14.3332  -17.6909   17.2659 C   0  0  0  0  0  0  0  0  0  0  0  0
   14.7324  -16.5013   17.0666 O   0  0  0  0  0  0  0  0  0  0  0  0
   12.2920  -16.6086   21.5294 C   0  0  0  0  0  0  0  0  0  0  0  0
   12.5531  -15.3808   21.6688 O   0  0  0  0  0  0  0  0  0  0  0  0
   15.1023  -18.6947   16.6945 O   0  0  0  0  0  0  0  0  0  0  0  0
   12.2851  -17.3775   22.7208 N   0  0  0  0  0  0  0  0  0  0  0  0
   12.5257  -16.7672   24.0308 C   0  0  0  0  0  0  0  0  0  0  0  0
   13.9536  -16.6887   24.3416 C   0  0  0  0  0  0  0  0  0  0  0  0
   14.3537  -16.1003   25.5295 O   0  0  0  0  0  0  0  0  0  0  0  0
   14.8361  -17.1340   23.5739 O   0  0  0  0  0  0  0  0  0  0  0  0
  2  1  1  1
  2  3  1  0
  4  2  1  0
  4  5  1  0
  5  7  1  0
  5  6  1  1
  7  9  1  0
  7  8  2  0
  9 10  1  0
 10 15  1  0
 10 11  1  6
 12 13  1  0
 12 11  1  0
 13 14  2  0
 15 16  2  0
 17 13  1  0
 18 15  1  0
 18 19  1  0
 19 20  1  0
 20 22  2  0
 20 21  1  0
M  END
$$$$
