LEG.pdb
     RDKit          3D

 22 21  0  0  1  0  0  0  0  0999 V2000
    6.9813  -12.3638   24.8991 C   0  0  0  0  0  0  0  0  0  0  0  0
    6.6901  -13.0927   26.1806 C   0  0  2  0  0  0  0  0  0  0  0  0
    7.1554  -12.2694   27.3620 C   0  0  0  0  0  0  0  0  0  0  0  0
    7.3441  -14.4321   26.2625 C   0  0  0  0  0  0  0  0  0  0  0  0
    6.9400  -15.3503   25.1307 C   0  0  2  0  0  0  0  0  0  0  0  0
    5.6112  -15.8522   25.2704 N   0  0  0  0  0  0  0  0  0  0  0  0
    7.9438  -16.4227   24.9131 C   0  0  0  0  0  0  0  0  0  0  0  0
    7.9016  -17.4601   25.5952 O   0  0  0  0  0  0  0  0  0  0  0  0
    8.9748  -16.3108   23.9356 N   0  0  0  0  0  0  0  0  0  0  0  0
    9.9775  -17.3586   23.7401 C   0  0  1  0  0  0  0  0  0  0  0  0
   10.7810  -17.0935   22.4749 C   0  0  0  0  0  0  0  0  0  0  0  0
    9.9517  -17.3047   21.2292 C   0  0  0  0  0  0  0  0  0  0  0  0
   10.8642  -17.3347   20.0761 C   0  0  0  0  0  0  0  0  0  0  0  0
   11.5032  -18.3994   19.8071 O   0  0  0  0  0  0  0  0  0  0  0  0
   10.8932  -17.3263   24.9058 C   0  0  0  0  0  0  0  0  0  0  0  0
   11.4301  -16.2480   25.2850 O   0  0  0  0  0  0  0  0  0  0  0  0
   11.0913  -16.2584   19.2301 O   0  0  0  0  0  0  0  0  0  0  0  0
   11.2239  -18.4799   25.6612 N   0  0  0  0  0  0  0  0  0  0  0  0
   12.0548  -18.3979   26.8652 C   0  0  0  0  0  0  0  0  0  0  0  0
   13.3915  -18.9508   26.6438 C   0  0  0  0  0  0  0  0  0  0  0  0
   14.2251  -19.1553   27.7304 O   0  0  0  0  0  0  0  0  0  0  0  0
   13.8174  -19.2494   25.5054 O   0  0  0  0  0  0  0  0  0  0  0  0
  2  1  1  6
  2  3  1  0
  4  2  1  0
  4  5  1  0
  5  7  1  0
  5  6  1  1
  7  9  1  0
  7  8  2  0
  9 10  1  0
 10 15  1  0
 10 11  1  6
 12 13  1  0
 12 11  1  0
 13 14  2  0
 15 16  2  0
 17 13  1  0
 18 15  1  0
 18 19  1  0
 19 20  1  0
 20 22  2  0
 20 21  1  0
M  END
$$$$
