LEG.pdb
     RDKit          3D

 22 21  0  0  1  0  0  0  0  0999 V2000
    6.7490  -11.8919   24.4388 C   0  0  0  0  0  0  0  0  0  0  0  0
    6.2571  -12.6515   25.6385 C   0  0  2  0  0  0  0  0  0  0  0  0
    5.8841  -11.6882   26.7444 C   0  0  0  0  0  0  0  0  0  0  0  0
    7.2593  -13.6154   26.1816 C   0  0  0  0  0  0  0  0  0  0  0  0
    7.7744  -14.5761   25.1333 C   0  0  2  0  0  0  0  0  0  0  0  0
    6.8232  -15.5822   24.7869 N   0  0  0  0  0  0  0  0  0  0  0  0
    9.0977  -15.1355   25.5091 C   0  0  0  0  0  0  0  0  0  0  0  0
    9.9867  -14.3864   25.9472 O   0  0  0  0  0  0  0  0  0  0  0  0
    9.3981  -16.5232   25.3862 N   0  0  0  0  0  0  0  0  0  0  0  0
   10.7062  -17.0703   25.7484 C   0  0  1  0  0  0  0  0  0  0  0  0
   10.5430  -18.4036   26.4640 C   0  0  0  0  0  0  0  0  0  0  0  0
   11.3373  -18.4515   27.7489 C   0  0  0  0  0  0  0  0  0  0  0  0
   10.4929  -19.0710   28.7816 C   0  0  0  0  0  0  0  0  0  0  0  0
    9.4195  -19.6616   28.4456 O   0  0  0  0  0  0  0  0  0  0  0  0
   11.4642  -17.2890   24.4929 C   0  0  0  0  0  0  0  0  0  0  0  0
   12.5866  -17.8679   24.5000 O   0  0  0  0  0  0  0  0  0  0  0  0
   10.7836  -19.0622   30.1385 O   0  0  0  0  0  0  0  0  0  0  0  0
   10.9921  -16.8724   23.2224 N   0  0  0  0  0  0  0  0  0  0  0  0
   11.7805  -17.0774   22.0046 C   0  0  0  0  0  0  0  0  0  0  0  0
   12.9135  -16.1544   21.9268 C   0  0  0  0  0  0  0  0  0  0  0  0
   13.2272  -15.5729   20.7099 O   0  0  0  0  0  0  0  0  0  0  0  0
   13.6170  -15.8655   22.9208 O   0  0  0  0  0  0  0  0  0  0  0  0
  2  1  1  6
  2  3  1  0
  4  2  1  0
  4  5  1  0
  5  7  1  0
  5  6  1  1
  7  9  1  0
  7  8  2  0
  9 10  1  0
 10 15  1  0
 10 11  1  6
 12 13  1  0
 12 11  1  0
 13 14  2  0
 15 16  2  0
 17 13  1  0
 18 15  1  0
 18 19  1  0
 19 20  1  0
 20 22  2  0
 20 21  1  0
M  END
$$$$
