LEG.pdb
     RDKit          3D

 22 21  0  0  1  0  0  0  0  0999 V2000
    6.9656  -11.8288   27.8760 C   0  0  0  0  0  0  0  0  0  0  0  0
    6.7187  -12.0810   26.4153 C   0  0  2  0  0  0  0  0  0  0  0  0
    5.6960  -11.0994   25.8857 C   0  0  0  0  0  0  0  0  0  0  0  0
    6.2295  -13.4614   26.1264 C   0  0  0  0  0  0  0  0  0  0  0  0
    7.2751  -14.5205   26.3953 C   0  0  2  0  0  0  0  0  0  0  0  0
    8.5633  -13.9716   26.6712 N   0  0  0  0  0  0  0  0  0  0  0  0
    7.3009  -15.5466   25.3221 C   0  0  0  0  0  0  0  0  0  0  0  0
    6.2801  -16.2086   25.0714 O   0  0  0  0  0  0  0  0  0  0  0  0
    8.4704  -15.8100   24.5514 N   0  0  0  0  0  0  0  0  0  0  0  0
    8.5176  -16.8764   23.5504 C   0  0  1  0  0  0  0  0  0  0  0  0
    8.7824  -16.2948   22.1690 C   0  0  0  0  0  0  0  0  0  0  0  0
    7.6146  -15.4737   21.6729 C   0  0  0  0  0  0  0  0  0  0  0  0
    7.9199  -15.0313   20.3038 C   0  0  0  0  0  0  0  0  0  0  0  0
    8.8292  -15.6205   19.6404 O   0  0  0  0  0  0  0  0  0  0  0  0
    9.6347  -17.7820   23.9120 C   0  0  0  0  0  0  0  0  0  0  0  0
    9.9195  -18.7848   23.1991 O   0  0  0  0  0  0  0  0  0  0  0  0
    7.2735  -13.9878   19.6566 O   0  0  0  0  0  0  0  0  0  0  0  0
   10.4449  -17.5900   25.0597 N   0  0  0  0  0  0  0  0  0  0  0  0
   11.5878  -18.4602   25.3479 C   0  0  0  0  0  0  0  0  0  0  0  0
   11.2500  -19.4992   26.3215 C   0  0  0  0  0  0  0  0  0  0  0  0
   12.2652  -20.2643   26.8707 O   0  0  0  0  0  0  0  0  0  0  0  0
   10.0737  -19.7281   26.6824 O   0  0  0  0  0  0  0  0  0  0  0  0
  2  1  1  1
  2  3  1  0
  4  2  1  0
  4  5  1  0
  5  7  1  0
  5  6  1  6
  7  9  1  0
  7  8  2  0
  9 10  1  0
 10 15  1  0
 10 11  1  6
 12 13  1  0
 12 11  1  0
 13 14  2  0
 15 16  2  0
 17 13  1  0
 18 15  1  0
 18 19  1  0
 19 20  1  0
 20 22  2  0
 20 21  1  0
M  END
$$$$
