LEG.pdb
     RDKit          3D

 22 21  0  0  1  0  0  0  0  0999 V2000
    6.4287  -11.9815   24.9599 C   0  0  0  0  0  0  0  0  0  0  0  0
    6.1550  -12.6754   26.2645 C   0  0  2  0  0  0  0  0  0  0  0  0
    6.1583  -11.6707   27.3962 C   0  0  0  0  0  0  0  0  0  0  0  0
    7.1478  -13.7420   26.5884 C   0  0  0  0  0  0  0  0  0  0  0  0
    7.3494  -14.7181   25.4510 C   0  0  2  0  0  0  0  0  0  0  0  0
    6.3817  -15.7672   25.4415 N   0  0  0  0  0  0  0  0  0  0  0  0
    8.7465  -15.2191   25.4029 C   0  0  0  0  0  0  0  0  0  0  0  0
    9.6947  -14.4167   25.4238 O   0  0  0  0  0  0  0  0  0  0  0  0
    9.0528  -16.6091   25.3325 N   0  0  0  0  0  0  0  0  0  0  0  0
   10.4286  -17.0977   25.2317 C   0  0  1  0  0  0  0  0  0  0  0  0
   10.6603  -18.2348   26.2164 C   0  0  0  0  0  0  0  0  0  0  0  0
   10.4807  -17.7830   27.6474 C   0  0  0  0  0  0  0  0  0  0  0  0
   10.7486  -18.9334   28.5237 C   0  0  0  0  0  0  0  0  0  0  0  0
   11.3766  -18.7606   29.6145 O   0  0  0  0  0  0  0  0  0  0  0  0
   10.6232  -17.6091   23.8536 C   0  0  0  0  0  0  0  0  0  0  0  0
   10.6391  -18.8488   23.6130 O   0  0  0  0  0  0  0  0  0  0  0  0
   10.3579  -20.2357   28.2462 O   0  0  0  0  0  0  0  0  0  0  0  0
   10.8013  -16.7601   22.7319 N   0  0  0  0  0  0  0  0  0  0  0  0
   12.0996  -16.1545   22.4250 C   0  0  0  0  0  0  0  0  0  0  0  0
   13.0154  -17.1130   21.8053 C   0  0  0  0  0  0  0  0  0  0  0  0
   13.0289  -18.4218   22.2573 O   0  0  0  0  0  0  0  0  0  0  0  0
   13.7935  -16.7984   20.8768 O   0  0  0  0  0  0  0  0  0  0  0  0
  2  1  1  6
  2  3  1  0
  4  2  1  0
  4  5  1  0
  5  7  1  0
  5  6  1  1
  7  9  1  0
  7  8  2  0
  9 10  1  0
 10 15  1  0
 10 11  1  1
 12 13  1  0
 12 11  1  0
 13 14  2  0
 15 16  2  0
 17 13  1  0
 18 15  1  0
 18 19  1  0
 19 20  1  0
 20 22  2  0
 20 21  1  0
M  END
$$$$
