LEG.pdb
     RDKit          3D

 22 21  0  0  1  0  0  0  0  0999 V2000
    8.5571  -13.0838   19.2541 C   0  0  0  0  0  0  0  0  0  0  0  0
    7.5615  -13.4488   20.3189 C   0  0  2  0  0  0  0  0  0  0  0  0
    7.2255  -12.2318   21.1531 C   0  0  0  0  0  0  0  0  0  0  0  0
    8.0430  -14.5223   21.2377 C   0  0  0  0  0  0  0  0  0  0  0  0
    8.3312  -15.8213   20.5190 C   0  0  2  0  0  0  0  0  0  0  0  0
    7.1619  -16.4164   19.9572 N   0  0  0  0  0  0  0  0  0  0  0  0
    9.1036  -16.7582   21.3740 C   0  0  0  0  0  0  0  0  0  0  0  0
    8.5080  -17.5903   22.0784 O   0  0  0  0  0  0  0  0  0  0  0  0
   10.5278  -16.7438   21.4222 N   0  0  0  0  0  0  0  0  0  0  0  0
   11.2869  -17.6789   22.2534 C   0  0  1  0  0  0  0  0  0  0  0  0
   12.6973  -17.8486   21.7071 C   0  0  0  0  0  0  0  0  0  0  0  0
   12.7166  -18.7007   20.4591 C   0  0  0  0  0  0  0  0  0  0  0  0
   14.0737  -18.6481   19.8946 C   0  0  0  0  0  0  0  0  0  0  0  0
   14.5505  -19.6685   19.3068 O   0  0  0  0  0  0  0  0  0  0  0  0
   11.3666  -17.1035   23.6177 C   0  0  0  0  0  0  0  0  0  0  0  0
   12.0062  -16.0376   23.8407 O   0  0  0  0  0  0  0  0  0  0  0  0
   14.9031  -17.5371   19.9540 O   0  0  0  0  0  0  0  0  0  0  0  0
   10.7433  -17.6970   24.7446 N   0  0  0  0  0  0  0  0  0  0  0  0
   10.8641  -17.1162   26.0842 C   0  0  0  0  0  0  0  0  0  0  0  0
   11.7077  -17.9324   26.9583 C   0  0  0  0  0  0  0  0  0  0  0  0
   12.4000  -19.0035   26.4189 O   0  0  0  0  0  0  0  0  0  0  0  0
   11.8315  -17.7024   28.1823 O   0  0  0  0  0  0  0  0  0  0  0  0
  2  1  1  6
  2  3  1  0
  4  2  1  0
  4  5  1  0
  5  7  1  0
  5  6  1  1
  7  9  1  0
  7  8  2  0
  9 10  1  0
 10 15  1  0
 10 11  1  6
 12 13  1  0
 12 11  1  0
 13 14  2  0
 15 16  2  0
 17 13  1  0
 18 15  1  0
 18 19  1  0
 19 20  1  0
 20 22  2  0
 20 21  1  0
M  END
$$$$
