LEG.pdb
     RDKit          3D

 22 21  0  0  1  0  0  0  0  0999 V2000
    6.7055  -12.1920   24.7378 C   0  0  0  0  0  0  0  0  0  0  0  0
    6.3209  -12.8621   26.0268 C   0  0  2  0  0  0  0  0  0  0  0  0
    6.6290  -11.9520   27.1958 C   0  0  0  0  0  0  0  0  0  0  0  0
    7.0223  -14.1603   26.2523 C   0  0  0  0  0  0  0  0  0  0  0  0
    6.7072  -15.1878   25.1883 C   0  0  2  0  0  0  0  0  0  0  0  0
    5.4163  -15.7751   25.3485 N   0  0  0  0  0  0  0  0  0  0  0  0
    7.7905  -16.1960   25.0654 C   0  0  0  0  0  0  0  0  0  0  0  0
    7.8116  -17.1800   25.8234 O   0  0  0  0  0  0  0  0  0  0  0  0
    8.8284  -16.0811   24.0955 N   0  0  0  0  0  0  0  0  0  0  0  0
    9.9042  -17.0673   23.9879 C   0  0  1  0  0  0  0  0  0  0  0  0
   10.7435  -16.8023   22.7462 C   0  0  0  0  0  0  0  0  0  0  0  0
   11.9065  -17.7615   22.6401 C   0  0  0  0  0  0  0  0  0  0  0  0
   12.6093  -17.4849   21.3780 C   0  0  0  0  0  0  0  0  0  0  0  0
   12.1346  -17.9238   20.2844 O   0  0  0  0  0  0  0  0  0  0  0  0
   10.7641  -16.9259   25.1876 C   0  0  0  0  0  0  0  0  0  0  0  0
   11.3409  -15.8342   25.4528 O   0  0  0  0  0  0  0  0  0  0  0  0
   13.7882  -16.7591   21.2820 O   0  0  0  0  0  0  0  0  0  0  0  0
   10.9946  -17.9844   26.1026 N   0  0  0  0  0  0  0  0  0  0  0  0
   11.8698  -17.8179   27.2657 C   0  0  0  0  0  0  0  0  0  0  0  0
   11.9465  -19.0384   28.0694 C   0  0  0  0  0  0  0  0  0  0  0  0
   12.7266  -19.0445   29.2135 O   0  0  0  0  0  0  0  0  0  0  0  0
   11.3325  -20.0857   27.7651 O   0  0  0  0  0  0  0  0  0  0  0  0
  2  1  1  6
  2  3  1  0
  4  2  1  0
  4  5  1  0
  5  7  1  0
  5  6  1  1
  7  9  1  0
  7  8  2  0
  9 10  1  0
 10 15  1  0
 10 11  1  6
 12 13  1  0
 12 11  1  0
 13 14  2  0
 15 16  2  0
 17 13  1  0
 18 15  1  0
 18 19  1  0
 19 20  1  0
 20 22  2  0
 20 21  1  0
M  END
$$$$
