RDN.pdb
     RDKit          3D

 28 27  0  0  1  0  0  0  0  0999 V2000
    7.0160  -12.7149   18.1242 N   0  0  0  0  0  0  0  0  0  0  0  0
    7.5317  -13.4144   16.9724 C   0  0  0  0  0  0  0  0  0  0  0  0
    7.2622  -12.9197   15.8129 N   0  0  0  0  0  0  0  0  0  0  0  0
    8.3002  -14.5917   17.1023 N   0  0  0  0  0  0  0  0  0  0  0  0
    8.2763  -15.3592   18.3170 C   0  0  0  0  0  0  0  0  0  0  0  0
    8.6310  -14.4788   19.5105 C   0  0  0  0  0  0  0  0  0  0  0  0
   10.1110  -14.3070   19.6539 C   0  0  0  0  0  0  0  0  0  0  0  0
   10.8130  -15.4788   20.2573 C   0  0  2  0  0  0  0  0  0  0  0  0
   10.2610  -16.7516   19.9293 N   0  0  0  0  0  0  0  0  0  0  0  0
   10.7989  -15.3111   21.7390 C   0  0  0  0  0  0  0  0  0  0  0  0
   11.2385  -14.2144   22.2025 O   0  0  0  0  0  0  0  0  0  0  0  0
    7.5175  -13.3698   14.9216 N   0  0  0  0  0  0  0  0  0  0  0  0
   10.3285  -16.2965   22.6358 C   0  0  1  0  0  0  0  0  0  0  0  0
   10.5116  -16.1735   24.0870 C   0  0  0  0  0  0  0  0  0  0  0  0
    9.3289  -16.8562   24.7344 C   0  0  0  0  0  0  0  0  0  0  0  0
    8.9246  -18.0765   23.9924 O   0  0  0  0  0  0  0  0  0  0  0  0
    8.0762  -18.0461   23.0856 C   0  0  0  0  0  0  0  0  0  0  0  0
   11.7959  -16.8014   24.4996 O   0  0  0  0  0  0  0  0  0  0  0  0
   11.8039  -17.6693   25.4065 O   0  0  0  0  0  0  0  0  0  0  0  0
    9.5488  -19.2652   24.3671 N   0  0  0  0  0  0  0  0  0  0  0  0
   15.6217  -19.8591   24.7418 C   0  0  0  0  0  0  0  0  0  0  0  0
   15.0874  -19.5275   23.4757 O   0  0  0  0  0  0  0  0  0  0  0  0
   15.5922  -20.0011   22.4349 C   0  0  0  0  0  0  0  0  0  0  0  0
   13.9294  -18.6202   23.3636 C   0  0  1  0  0  0  0  0  0  0  0  0
   14.2227  -17.2800   24.0421 N   0  0  0  0  0  0  0  0  0  0  0  0
   13.0404  -16.4582   23.9034 C   0  0  0  0  0  0  0  0  0  0  0  0
   15.3941  -16.7092   23.3571 O   0  0  0  0  0  0  0  0  0  0  0  0
   15.1710  -15.6357   22.5005 O   0  0  0  0  0  0  0  0  0  0  0  0
  2  3  2  0
  2  1  1  0
  4  2  1  0
  5  4  1  0
  6  5  1  0
  7  6  1  0
  7  8  1  0
  8 10  1  0
  8  9  1  1
 10 11  2  0
 12 13  1  0
 12 10  1  0
 13 14  1  1
 15 14  1  0
 16 15  2  0
 17 18  2  0
 17 13  1  0
 19 15  1  0
 20 21  1  0
 21 22  2  0
 21 23  1  0
 24 23  1  1
 24 25  1  0
 24 26  1  0
 25 17  1  0
 26 27  1  0
 28 26  2  0
M  END
$$$$
