RDN.pdb
     RDKit          3D

 28 27  0  0  1  0  0  0  0  0999 V2000
    6.5376  -11.4129   19.9069 N   0  0  0  0  0  0  0  0  0  0  0  0
    7.4204  -12.4622   19.4580 C   0  0  0  0  0  0  0  0  0  0  0  0
    6.9520  -13.2979   18.5955 N   0  0  0  0  0  0  0  0  0  0  0  0
    8.7431  -12.5750   19.9389 N   0  0  0  0  0  0  0  0  0  0  0  0
    9.4895  -13.7913   19.7694 C   0  0  0  0  0  0  0  0  0  0  0  0
    9.1541  -14.7813   20.8797 C   0  0  0  0  0  0  0  0  0  0  0  0
   10.3857  -15.4015   21.4620 C   0  0  0  0  0  0  0  0  0  0  0  0
   11.0143  -16.4494   20.6035 C   0  0  2  0  0  0  0  0  0  0  0  0
   10.2743  -17.6623   20.4869 N   0  0  0  0  0  0  0  0  0  0  0  0
   12.3623  -16.7553   21.1631 C   0  0  0  0  0  0  0  0  0  0  0  0
   12.4440  -17.7199   21.9840 O   0  0  0  0  0  0  0  0  0  0  0  0
    7.4555  -14.1387   18.2764 N   0  0  0  0  0  0  0  0  0  0  0  0
   13.5320  -16.0361   20.8298 C   0  0  2  0  0  0  0  0  0  0  0  0
   14.8463  -16.4009   21.3723 C   0  0  0  0  0  0  0  0  0  0  0  0
   15.8257  -15.3627   20.8753 C   0  0  0  0  0  0  0  0  0  0  0  0
   17.2245  -15.7146   21.2251 O   0  0  0  0  0  0  0  0  0  0  0  0
   17.5060  -16.7416   21.8646 C   0  0  0  0  0  0  0  0  0  0  0  0
   14.7984  -16.4372   22.8590 O   0  0  0  0  0  0  0  0  0  0  0  0
   14.1682  -15.5504   23.4854 O   0  0  0  0  0  0  0  0  0  0  0  0
   18.2121  -14.8288   20.7971 N   0  0  0  0  0  0  0  0  0  0  0  0
   12.3906  -19.7648   26.5178 C   0  0  0  0  0  0  0  0  0  0  0  0
   13.1820  -18.6093   26.3250 O   0  0  0  0  0  0  0  0  0  0  0  0
   13.5214  -17.9077   27.3022 C   0  0  0  0  0  0  0  0  0  0  0  0
   13.6179  -18.2150   24.9718 C   0  0  2  0  0  0  0  0  0  0  0  0
   15.0767  -17.7522   24.9853 N   0  0  0  0  0  0  0  0  0  0  0  0
   15.4459  -17.4491   23.6198 C   0  0  0  0  0  0  0  0  0  0  0  0
   15.8639  -18.8588   25.5536 O   0  0  0  0  0  0  0  0  0  0  0  0
   15.7738  -19.0656   26.9265 O   0  0  0  0  0  0  0  0  0  0  0  0
  2  3  2  0
  2  1  1  0
  4  2  1  0
  5  4  1  0
  6  5  1  0
  7  6  1  0
  7  8  1  0
  8 10  1  0
  8  9  1  1
 10 11  2  0
 12 13  1  0
 12 10  1  0
 13 14  1  6
 15 14  1  0
 16 15  2  0
 17 18  2  0
 17 13  1  0
 19 15  1  0
 20 21  1  0
 21 22  2  0
 21 23  1  0
 24 23  1  1
 24 25  1  0
 24 26  1  0
 25 17  1  0
 26 27  1  0
 28 26  2  0
M  END
$$$$
