RDN.pdb
     RDKit          3D

 28 27  0  0  1  0  0  0  0  0999 V2000
    8.8272  -15.4986   16.5751 N   0  0  0  0  0  0  0  0  0  0  0  0
    8.2769  -14.1817   16.3626 C   0  0  0  0  0  0  0  0  0  0  0  0
    8.5400  -13.6072   15.2391 N   0  0  0  0  0  0  0  0  0  0  0  0
    7.4827  -13.5433   17.3398 N   0  0  0  0  0  0  0  0  0  0  0  0
    7.9862  -13.3130   18.6660 C   0  0  0  0  0  0  0  0  0  0  0  0
    6.9718  -13.7717   19.7081 C   0  0  0  0  0  0  0  0  0  0  0  0
    7.5019  -13.6281   21.1005 C   0  0  0  0  0  0  0  0  0  0  0  0
    8.3565  -14.7648   21.5561 C   0  0  2  0  0  0  0  0  0  0  0  0
    8.0311  -16.0328   20.9915 N   0  0  0  0  0  0  0  0  0  0  0  0
    8.2514  -14.8536   23.0410 C   0  0  0  0  0  0  0  0  0  0  0  0
    8.4294  -13.7835   23.6998 O   0  0  0  0  0  0  0  0  0  0  0  0
    8.2556  -12.6448   15.0042 N   0  0  0  0  0  0  0  0  0  0  0  0
    7.9685  -16.0500   23.7375 C   0  0  2  0  0  0  0  0  0  0  0  0
    7.9744  -16.1121   25.2041 C   0  0  0  0  0  0  0  0  0  0  0  0
    6.7644  -16.9213   25.6104 C   0  0  0  0  0  0  0  0  0  0  0  0
    6.8349  -18.3118   25.0960 O   0  0  0  0  0  0  0  0  0  0  0  0
    7.7930  -18.7157   24.4164 C   0  0  0  0  0  0  0  0  0  0  0  0
    9.2351  -16.7365   25.6885 O   0  0  0  0  0  0  0  0  0  0  0  0
    9.3395  -17.0812   26.8911 O   0  0  0  0  0  0  0  0  0  0  0  0
    5.7651  -19.1462   25.4160 N   0  0  0  0  0  0  0  0  0  0  0  0
   13.7681  -18.9640   26.1877 C   0  0  0  0  0  0  0  0  0  0  0  0
   12.5375  -19.6593   26.1600 O   0  0  0  0  0  0  0  0  0  0  0  0
   12.4852  -20.8615   26.4980 C   0  0  0  0  0  0  0  0  0  0  0  0
   11.3000  -18.9788   25.7330 C   0  0  1  0  0  0  0  0  0  0  0  0
   11.5911  -17.5354   25.3157 N   0  0  0  0  0  0  0  0  0  0  0  0
   10.3504  -16.9661   24.8368 C   0  0  0  0  0  0  0  0  0  0  0  0
   12.6262  -17.6001   24.2709 O   0  0  0  0  0  0  0  0  0  0  0  0
   12.2073  -17.4747   22.9500 O   0  0  0  0  0  0  0  0  0  0  0  0
  2  3  2  0
  2  1  1  0
  4  2  1  0
  5  4  1  0
  6  5  1  0
  7  6  1  0
  7  8  1  0
  8 10  1  0
  8  9  1  6
 10 11  2  0
 12 13  1  0
 12 10  1  0
 13 14  1  6
 15 14  1  0
 16 15  2  0
 17 18  2  0
 17 13  1  0
 19 15  1  0
 20 21  1  0
 21 22  2  0
 21 23  1  0
 24 23  1  1
 24 25  1  0
 24 26  1  0
 25 17  1  0
 26 27  1  0
 28 26  2  0
M  END
$$$$
