RDN.pdb
     RDKit          3D

 28 27  0  0  1  0  0  0  0  0999 V2000
    7.3503  -12.9522   15.6795 N   0  0  0  0  0  0  0  0  0  0  0  0
    7.7600  -12.9212   17.0627 C   0  0  0  0  0  0  0  0  0  0  0  0
    7.1308  -12.1134   17.8458 N   0  0  0  0  0  0  0  0  0  0  0  0
    8.8052  -13.7386   17.5452 N   0  0  0  0  0  0  0  0  0  0  0  0
    8.5586  -14.7378   18.5482 C   0  0  0  0  0  0  0  0  0  0  0  0
    8.1849  -14.0817   19.8731 C   0  0  0  0  0  0  0  0  0  0  0  0
    8.0944  -15.0823   20.9827 C   0  0  0  0  0  0  0  0  0  0  0  0
    8.4697  -16.4738   20.5915 C   0  0  2  0  0  0  0  0  0  0  0  0
    7.3956  -17.2804   20.1139 N   0  0  0  0  0  0  0  0  0  0  0  0
    9.0833  -17.1361   21.7784 C   0  0  0  0  0  0  0  0  0  0  0  0
    8.2955  -17.6916   22.6040 O   0  0  0  0  0  0  0  0  0  0  0  0
    7.3501  -11.9933   18.8457 N   0  0  0  0  0  0  0  0  0  0  0  0
   10.4742  -17.1741   22.0241 C   0  0  2  0  0  0  0  0  0  0  0  0
   11.0322  -17.8197   23.2184 C   0  0  0  0  0  0  0  0  0  0  0  0
   12.3354  -18.4596   22.7986 C   0  0  0  0  0  0  0  0  0  0  0  0
   12.9774  -19.1875   23.9216 O   0  0  0  0  0  0  0  0  0  0  0  0
   12.3138  -19.7822   24.7870 C   0  0  0  0  0  0  0  0  0  0  0  0
   11.2407  -16.8162   24.2971 O   0  0  0  0  0  0  0  0  0  0  0  0
   12.0606  -15.8805   24.1297 O   0  0  0  0  0  0  0  0  0  0  0  0
   14.3708  -19.1696   23.9560 N   0  0  0  0  0  0  0  0  0  0  0  0
    9.4531  -13.4386   28.1919 C   0  0  0  0  0  0  0  0  0  0  0  0
    9.5805  -14.8172   28.4776 O   0  0  0  0  0  0  0  0  0  0  0  0
    9.7967  -15.2011   29.6474 C   0  0  0  0  0  0  0  0  0  0  0  0
    9.4607  -15.8210   27.4030 C   0  0  1  0  0  0  0  0  0  0  0  0
   10.7545  -15.9016   26.5894 N   0  0  0  0  0  0  0  0  0  0  0  0
   10.5412  -16.8676   25.5341 C   0  0  0  0  0  0  0  0  0  0  0  0
   11.8154  -16.3087   27.5254 O   0  0  0  0  0  0  0  0  0  0  0  0
   11.8896  -17.6580   27.8568 O   0  0  0  0  0  0  0  0  0  0  0  0
  2  3  2  0
  2  1  1  0
  4  2  1  0
  5  4  1  0
  6  5  1  0
  7  6  1  0
  7  8  1  0
  8 10  1  0
  8  9  1  1
 10 11  2  0
 12 13  1  0
 12 10  1  0
 13 14  1  6
 15 14  1  0
 16 15  2  0
 17 18  2  0
 17 13  1  0
 19 15  1  0
 20 21  1  0
 21 22  2  0
 21 23  1  0
 24 23  1  6
 24 25  1  0
 24 26  1  0
 25 17  1  0
 26 27  1  0
 28 26  2  0
M  END
$$$$
