RDN.pdb
     RDKit          3D

 28 27  0  0  1  0  0  0  0  0999 V2000
    8.2306  -11.1380   19.4501 N   0  0  0  0  0  0  0  0  0  0  0  0
    8.5798  -12.5355   19.5346 C   0  0  0  0  0  0  0  0  0  0  0  0
    9.6819  -12.9025   18.9757 N   0  0  0  0  0  0  0  0  0  0  0  0
    7.7539  -13.4675   20.1998 N   0  0  0  0  0  0  0  0  0  0  0  0
    8.2507  -14.7653   20.5661 C   0  0  0  0  0  0  0  0  0  0  0  0
    7.2553  -15.8491   20.1661 C   0  0  0  0  0  0  0  0  0  0  0  0
    7.0950  -16.8800   21.2395 C   0  0  0  0  0  0  0  0  0  0  0  0
    7.7184  -18.2002   20.9258 C   0  0  2  0  0  0  0  0  0  0  0  0
    6.8032  -19.2826   20.7740 N   0  0  0  0  0  0  0  0  0  0  0  0
    8.6792  -18.5269   22.0185 C   0  0  0  0  0  0  0  0  0  0  0  0
    8.2600  -19.2740   22.9550 O   0  0  0  0  0  0  0  0  0  0  0  0
   10.0411  -13.8683   18.9904 N   0  0  0  0  0  0  0  0  0  0  0  0
   10.0097  -18.0531   22.0611 C   0  0  2  0  0  0  0  0  0  0  0  0
   10.9424  -18.4583   23.1197 C   0  0  0  0  0  0  0  0  0  0  0  0
   12.3315  -18.1233   22.6276 C   0  0  0  0  0  0  0  0  0  0  0  0
   13.3793  -18.6576   23.5330 O   0  0  0  0  0  0  0  0  0  0  0  0
   13.1889  -19.6581   24.2439 C   0  0  0  0  0  0  0  0  0  0  0  0
   10.6263  -17.7445   24.3864 O   0  0  0  0  0  0  0  0  0  0  0  0
   11.0435  -16.5740   24.5645 O   0  0  0  0  0  0  0  0  0  0  0  0
   14.5949  -17.9754   23.5451 N   0  0  0  0  0  0  0  0  0  0  0  0
    6.3239  -17.6712   25.3552 C   0  0  0  0  0  0  0  0  0  0  0  0
    7.3552  -17.0416   26.0890 O   0  0  0  0  0  0  0  0  0  0  0  0
    7.5871  -15.8234   25.9321 C   0  0  0  0  0  0  0  0  0  0  0  0
    8.1711  -17.8102   27.0483 C   0  0  2  0  0  0  0  0  0  0  0  0
    9.6589  -17.6968   26.7079 N   0  0  0  0  0  0  0  0  0  0  0  0
    9.8585  -18.3371   25.4263 C   0  0  0  0  0  0  0  0  0  0  0  0
   10.3916  -18.3647   27.7961 O   0  0  0  0  0  0  0  0  0  0  0  0
   11.2305  -19.4184   27.4468 O   0  0  0  0  0  0  0  0  0  0  0  0
  2  3  2  0
  2  1  1  0
  4  2  1  0
  5  4  1  0
  6  5  1  0
  7  6  1  0
  7  8  1  0
  8 10  1  0
  8  9  1  1
 10 11  2  0
 12 13  1  0
 12 10  1  0
 13 14  1  6
 15 14  1  0
 16 15  2  0
 17 18  2  0
 17 13  1  0
 19 15  1  0
 20 21  1  0
 21 22  2  0
 21 23  1  0
 24 23  1  6
 24 25  1  0
 24 26  1  0
 25 17  1  0
 26 27  1  0
 28 26  2  0
M  END
$$$$
