RDN.pdb
     RDKit          3D

 28 27  0  0  1  0  0  0  0  0999 V2000
    7.6801  -11.8053   18.6096 N   0  0  0  0  0  0  0  0  0  0  0  0
    8.0470  -13.0125   17.9096 C   0  0  0  0  0  0  0  0  0  0  0  0
    7.5400  -13.1916   16.7380 N   0  0  0  0  0  0  0  0  0  0  0  0
    8.9239  -13.9620   18.4777 N   0  0  0  0  0  0  0  0  0  0  0  0
    8.9182  -14.2198   19.8915 C   0  0  0  0  0  0  0  0  0  0  0  0
    7.5014  -14.1169   20.4460 C   0  0  0  0  0  0  0  0  0  0  0  0
    7.4646  -14.3515   21.9239 C   0  0  0  0  0  0  0  0  0  0  0  0
    7.7438  -15.7604   22.3325 C   0  0  2  0  0  0  0  0  0  0  0  0
    6.5972  -16.5247   22.6979 N   0  0  0  0  0  0  0  0  0  0  0  0
    8.6913  -15.7267   23.4836 C   0  0  0  0  0  0  0  0  0  0  0  0
    8.3613  -15.0211   24.4857 O   0  0  0  0  0  0  0  0  0  0  0  0
    7.7570  -13.9981   16.1340 N   0  0  0  0  0  0  0  0  0  0  0  0
    9.9168  -16.4295   23.5120 C   0  0  1  0  0  0  0  0  0  0  0  0
   10.7737  -16.4439   24.7038 C   0  0  0  0  0  0  0  0  0  0  0  0
    9.9479  -17.0283   25.8266 C   0  0  0  0  0  0  0  0  0  0  0  0
   10.7552  -17.2292   27.0558 O   0  0  0  0  0  0  0  0  0  0  0  0
   11.5847  -16.3903   27.4443 C   0  0  0  0  0  0  0  0  0  0  0  0
   11.9969  -17.2520   24.4495 O   0  0  0  0  0  0  0  0  0  0  0  0
   12.8140  -17.4580   25.3800 O   0  0  0  0  0  0  0  0  0  0  0  0
   10.5340  -18.4141   27.7560 N   0  0  0  0  0  0  0  0  0  0  0  0
   13.9101  -14.0954   20.7678 C   0  0  0  0  0  0  0  0  0  0  0  0
   13.2136  -15.3139   20.5978 O   0  0  0  0  0  0  0  0  0  0  0  0
   13.2222  -15.8957   19.4916 C   0  0  0  0  0  0  0  0  0  0  0  0
   12.4683  -15.9156   21.7200 C   0  0  2  0  0  0  0  0  0  0  0  0
   13.1765  -17.1732   22.2291 N   0  0  0  0  0  0  0  0  0  0  0  0
   12.2906  -17.8136   23.1766 C   0  0  0  0  0  0  0  0  0  0  0  0
   14.4373  -16.7263   22.8438 O   0  0  0  0  0  0  0  0  0  0  0  0
   14.3573  -15.7248   23.8064 O   0  0  0  0  0  0  0  0  0  0  0  0
  2  3  2  0
  2  1  1  0
  4  2  1  0
  5  4  1  0
  6  5  1  0
  7  6  1  0
  7  8  1  0
  8 10  1  0
  8  9  1  1
 10 11  2  0
 12 13  1  0
 12 10  1  0
 13 14  1  6
 15 14  1  0
 16 15  2  0
 17 18  2  0
 17 13  1  0
 19 15  1  0
 20 21  1  0
 21 22  2  0
 21 23  1  0
 24 23  1  6
 24 25  1  0
 24 26  1  0
 25 17  1  0
 26 27  1  0
 28 26  2  0
M  END
$$$$
