QNI.pdb
     RDKit          3D

 26 25  0  0  1  0  0  0  0  0999 V2000
    6.9897  -13.4347   16.4144 N   0  0  0  0  0  0  0  0  0  0  0  0
    8.3329  -13.9024   16.1779 C   0  0  0  0  0  0  0  0  0  0  0  0
    8.8391  -13.5503   15.1020 O   0  0  0  0  0  0  0  0  0  0  0  0
    9.0125  -14.7356   17.1647 C   0  0  0  0  0  0  0  0  0  0  0  0
    8.2714  -15.0468   18.4223 C   0  0  0  0  0  0  0  0  0  0  0  0
    9.0005  -15.9081   19.4088 C   0  0  2  0  0  0  0  0  0  0  0  0
    9.1448  -17.2502   18.9955 N   0  0  0  0  0  0  0  0  0  0  0  0
    8.3979  -15.7508   20.7903 C   0  0  0  0  0  0  0  0  0  0  0  0
    8.2992  -14.5870   21.2341 O   0  0  0  0  0  0  0  0  0  0  0  0
    6.5859  -18.2662   20.7870 N   0  0  0  0  0  0  0  0  0  0  0  0
    6.3755  -18.8930   22.0377 C   0  0  0  0  0  0  0  0  0  0  0  0
    5.8458  -20.0425   22.0595 O   0  0  0  0  0  0  0  0  0  0  0  0
    6.7822  -18.1840   23.2888 C   0  0  0  0  0  0  0  0  0  0  0  0
    7.4172  -16.8700   22.8663 C   0  0  2  0  0  0  0  0  0  0  0  0
    7.9653  -16.8487   21.5517 N   0  0  0  0  0  0  0  0  0  0  0  0
    8.2516  -16.2479   23.9074 C   0  0  0  0  0  0  0  0  0  0  0  0
    9.4907  -16.3779   23.8291 O   0  0  0  0  0  0  0  0  0  0  0  0
    6.1416  -11.6744   26.0626 C   0  0  0  0  0  0  0  0  0  0  0  0
    7.0957  -12.7050   25.5044 C   0  0  0  0  0  0  0  0  0  0  0  0
    7.6775  -13.5932   26.5793 C   0  0  2  0  0  0  0  0  0  0  0  0
    8.5784  -12.7309   27.4450 C   0  0  0  0  0  0  0  0  0  0  0  0
    8.3520  -14.8183   26.0402 C   0  0  2  0  0  0  0  0  0  0  0  0
    7.7095  -15.5125   24.9848 N   0  0  0  0  0  0  0  0  0  0  0  0
    8.9529  -15.6580   27.0675 C   0  0  0  0  0  0  0  0  0  0  0  0
   10.1846  -15.3532   27.6809 O   0  0  0  0  0  0  0  0  0  0  0  0
    8.3925  -16.7003   27.4536 O   0  0  0  0  0  0  0  0  0  0  0  0
  1  2  1  0
  2  3  2  0
  4  2  1  0
  4  5  1  0
  6  5  1  0
  6  7  1  6
  8  6  1  0
  8  9  2  0
 10 11  1  0
 11 13  1  0
 12 11  2  0
 14 13  1  1
 14 15  1  0
 15  8  1  0
 16 14  1  0
 17 16  2  0
 18 19  1  0
 19 20  1  0
 20 22  1  0
 20 21  1  6
 22 23  1  1
 22 24  1  0
 23 16  1  0
 24 25  1  0
 26 24  2  0
M  END
$$$$
