QNI.pdb
     RDKit          3D

 26 25  0  0  1  0  0  0  0  0999 V2000
   10.4141  -20.3151   16.6847 N   0  0  0  0  0  0  0  0  0  0  0  0
   10.2990  -18.8779   16.6687 C   0  0  0  0  0  0  0  0  0  0  0  0
    9.9785  -18.3800   15.5791 O   0  0  0  0  0  0  0  0  0  0  0  0
   10.5553  -18.1001   17.8767 C   0  0  0  0  0  0  0  0  0  0  0  0
    9.4200  -17.9244   18.8295 C   0  0  0  0  0  0  0  0  0  0  0  0
    9.7236  -17.1245   20.0601 C   0  0  2  0  0  0  0  0  0  0  0  0
   10.8655  -17.5691   20.7609 N   0  0  0  0  0  0  0  0  0  0  0  0
    8.4840  -16.9949   20.9220 C   0  0  0  0  0  0  0  0  0  0  0  0
    7.4729  -17.6315   20.5565 O   0  0  0  0  0  0  0  0  0  0  0  0
    5.5906  -18.3983   22.1823 N   0  0  0  0  0  0  0  0  0  0  0  0
    6.0103  -18.1112   23.5025 C   0  0  0  0  0  0  0  0  0  0  0  0
    5.1597  -18.1765   24.4377 O   0  0  0  0  0  0  0  0  0  0  0  0
    7.4364  -17.7415   23.7527 C   0  0  0  0  0  0  0  0  0  0  0  0
    7.6245  -16.3264   23.2326 C   0  0  2  0  0  0  0  0  0  0  0  0
    8.4529  -16.2017   22.0805 N   0  0  0  0  0  0  0  0  0  0  0  0
    7.8590  -15.3282   24.2888 C   0  0  0  0  0  0  0  0  0  0  0  0
    7.4730  -14.1572   24.0930 O   0  0  0  0  0  0  0  0  0  0  0  0
    6.2568  -12.0230   26.4158 C   0  0  0  0  0  0  0  0  0  0  0  0
    7.3483  -12.9459   25.9249 C   0  0  0  0  0  0  0  0  0  0  0  0
    7.9743  -13.7445   27.0444 C   0  0  2  0  0  0  0  0  0  0  0  0
    8.5944  -12.7575   28.0170 C   0  0  0  0  0  0  0  0  0  0  0  0
    8.9265  -14.7982   26.5653 C   0  0  2  0  0  0  0  0  0  0  0  0
    8.4984  -15.6406   25.5090 N   0  0  0  0  0  0  0  0  0  0  0  0
    9.6576  -15.4602   27.6370 C   0  0  0  0  0  0  0  0  0  0  0  0
   10.6152  -14.7989   28.4320 O   0  0  0  0  0  0  0  0  0  0  0  0
    9.4633  -16.6612   27.9001 O   0  0  0  0  0  0  0  0  0  0  0  0
  1  2  1  0
  2  3  2  0
  4  2  1  0
  4  5  1  0
  6  5  1  0
  6  7  1  1
  8  6  1  0
  8  9  2  0
 10 11  1  0
 11 13  1  0
 12 11  2  0
 14 13  1  1
 14 15  1  0
 15  8  1  0
 16 14  1  0
 17 16  2  0
 18 19  1  0
 19 20  1  0
 20 22  1  0
 20 21  1  1
 22 23  1  1
 22 24  1  0
 23 16  1  0
 24 25  1  0
 26 24  2  0
M  END
$$$$
