QNI.pdb
     RDKit          3D

 26 25  0  0  1  0  0  0  0  0999 V2000
    9.0092  -12.7622   16.1590 N   0  0  0  0  0  0  0  0  0  0  0  0
    8.4280  -13.9613   16.7096 C   0  0  0  0  0  0  0  0  0  0  0  0
    9.0160  -15.0167   16.4300 O   0  0  0  0  0  0  0  0  0  0  0  0
    7.2251  -13.8917   17.5330 C   0  0  0  0  0  0  0  0  0  0  0  0
    7.4065  -13.5872   18.9828 C   0  0  0  0  0  0  0  0  0  0  0  0
    8.3882  -14.4552   19.7103 C   0  0  2  0  0  0  0  0  0  0  0  0
    8.8343  -15.5638   18.9586 N   0  0  0  0  0  0  0  0  0  0  0  0
    7.8554  -14.8159   21.0823 C   0  0  0  0  0  0  0  0  0  0  0  0
    7.3847  -13.8836   21.7683 O   0  0  0  0  0  0  0  0  0  0  0  0
    5.5898  -18.7661   24.7766 N   0  0  0  0  0  0  0  0  0  0  0  0
    6.8958  -18.4319   24.3474 C   0  0  0  0  0  0  0  0  0  0  0  0
    7.8326  -18.4288   25.1986 O   0  0  0  0  0  0  0  0  0  0  0  0
    7.1295  -18.0942   22.9105 C   0  0  0  0  0  0  0  0  0  0  0  0
    7.4779  -16.6164   22.8542 C   0  0  2  0  0  0  0  0  0  0  0  0
    7.8809  -16.1298   21.5775 N   0  0  0  0  0  0  0  0  0  0  0  0
    8.2883  -16.1501   23.9912 C   0  0  0  0  0  0  0  0  0  0  0  0
    9.5304  -16.2463   23.9118 O   0  0  0  0  0  0  0  0  0  0  0  0
    6.0392  -11.7589   26.2072 C   0  0  0  0  0  0  0  0  0  0  0  0
    7.0303  -12.7662   25.6714 C   0  0  0  0  0  0  0  0  0  0  0  0
    7.5613  -13.6817   26.7498 C   0  0  2  0  0  0  0  0  0  0  0  0
    8.3650  -12.8298   27.7158 C   0  0  0  0  0  0  0  0  0  0  0  0
    8.3161  -14.8602   26.2134 C   0  0  2  0  0  0  0  0  0  0  0  0
    7.7201  -15.5999   25.1616 N   0  0  0  0  0  0  0  0  0  0  0  0
    8.9743  -15.6538   27.2422 C   0  0  0  0  0  0  0  0  0  0  0  0
   10.0744  -15.1816   27.9857 O   0  0  0  0  0  0  0  0  0  0  0  0
    8.5848  -16.8048   27.5123 O   0  0  0  0  0  0  0  0  0  0  0  0
  1  2  1  0
  2  3  2  0
  4  2  1  0
  4  5  1  0
  6  5  1  0
  6  7  1  6
  8  6  1  0
  8  9  2  0
 10 11  1  0
 11 13  1  0
 12 11  2  0
 14 13  1  6
 14 15  1  0
 15  8  1  0
 16 14  1  0
 17 16  2  0
 18 19  1  0
 19 20  1  0
 20 22  1  0
 20 21  1  1
 22 23  1  1
 22 24  1  0
 23 16  1  0
 24 25  1  0
 26 24  2  0
M  END
$$$$
