QNI.pdb
     RDKit          3D

 26 25  0  0  1  0  0  0  0  0999 V2000
    7.3109  -15.0776   15.4354 N   0  0  0  0  0  0  0  0  0  0  0  0
    8.5859  -14.6564   15.9606 C   0  0  0  0  0  0  0  0  0  0  0  0
    9.5281  -14.6755   15.1545 O   0  0  0  0  0  0  0  0  0  0  0  0
    8.7145  -14.2464   17.3553 C   0  0  0  0  0  0  0  0  0  0  0  0
    7.4870  -14.3106   18.2019 C   0  0  0  0  0  0  0  0  0  0  0  0
    7.6409  -13.8117   19.6069 C   0  0  2  0  0  0  0  0  0  0  0  0
    8.6905  -12.8818   19.7690 N   0  0  0  0  0  0  0  0  0  0  0  0
    7.6948  -14.9760   20.5753 C   0  0  0  0  0  0  0  0  0  0  0  0
    6.9576  -15.9533   20.3250 O   0  0  0  0  0  0  0  0  0  0  0  0
   10.2846  -19.2547   23.3856 N   0  0  0  0  0  0  0  0  0  0  0  0
    9.2684  -18.2751   23.2896 C   0  0  0  0  0  0  0  0  0  0  0  0
    8.3601  -18.2540   24.1710 O   0  0  0  0  0  0  0  0  0  0  0  0
    9.2968  -17.3003   22.1573 C   0  0  0  0  0  0  0  0  0  0  0  0
    8.7186  -15.9965   22.6811 C   0  0  2  0  0  0  0  0  0  0  0  0
    8.5270  -14.9755   21.7065 N   0  0  0  0  0  0  0  0  0  0  0  0
    9.3084  -15.5505   23.9540 C   0  0  0  0  0  0  0  0  0  0  0  0
   10.5371  -15.3334   23.9933 O   0  0  0  0  0  0  0  0  0  0  0  0
    6.4616  -11.7665   25.9676 C   0  0  0  0  0  0  0  0  0  0  0  0
    7.6686  -12.6186   25.6500 C   0  0  0  0  0  0  0  0  0  0  0  0
    8.0212  -13.5611   26.7771 C   0  0  2  0  0  0  0  0  0  0  0  0
    8.6343  -12.7310   27.8905 C   0  0  0  0  0  0  0  0  0  0  0  0
    8.8748  -14.7148   26.3449 C   0  0  2  0  0  0  0  0  0  0  0  0
    8.5439  -15.3578   25.1260 N   0  0  0  0  0  0  0  0  0  0  0  0
    9.2614  -15.6000   27.4350 C   0  0  0  0  0  0  0  0  0  0  0  0
   10.2728  -15.2761   28.3615 O   0  0  0  0  0  0  0  0  0  0  0  0
    8.7037  -16.7011   27.5964 O   0  0  0  0  0  0  0  0  0  0  0  0
  1  2  1  0
  2  3  2  0
  4  2  1  0
  4  5  1  0
  6  5  1  0
  6  7  1  6
  8  6  1  0
  8  9  2  0
 10 11  1  0
 11 13  1  0
 12 11  2  0
 14 13  1  6
 14 15  1  0
 15  8  1  0
 16 14  1  0
 17 16  2  0
 18 19  1  0
 19 20  1  0
 20 22  1  0
 20 21  1  1
 22 23  1  6
 22 24  1  0
 23 16  1  0
 24 25  1  0
 26 24  2  0
M  END
$$$$
