QNI.pdb
     RDKit          3D

 26 25  0  0  1  0  0  0  0  0999 V2000
    8.8977  -11.9526   18.8786 N   0  0  0  0  0  0  0  0  0  0  0  0
    7.8917  -12.8126   18.3066 C   0  0  0  0  0  0  0  0  0  0  0  0
    6.9122  -12.2337   17.8133 O   0  0  0  0  0  0  0  0  0  0  0  0
    8.0544  -14.2626   18.3316 C   0  0  0  0  0  0  0  0  0  0  0  0
    9.2452  -14.8040   19.0502 C   0  0  0  0  0  0  0  0  0  0  0  0
    9.3529  -16.2983   19.0937 C   0  0  2  0  0  0  0  0  0  0  0  0
    8.6176  -16.9518   18.0812 N   0  0  0  0  0  0  0  0  0  0  0  0
    9.0616  -16.8061   20.4913 C   0  0  0  0  0  0  0  0  0  0  0  0
    8.0271  -17.4912   20.6390 O   0  0  0  0  0  0  0  0  0  0  0  0
   12.2906  -16.5134   22.3013 N   0  0  0  0  0  0  0  0  0  0  0  0
   12.0515  -17.7111   23.0153 C   0  0  0  0  0  0  0  0  0  0  0  0
   13.0376  -18.4444   23.3189 O   0  0  0  0  0  0  0  0  0  0  0  0
   10.6502  -18.0733   23.3876 C   0  0  0  0  0  0  0  0  0  0  0  0
    9.7630  -16.9222   22.9446 C   0  0  2  0  0  0  0  0  0  0  0  0
    9.9019  -16.5303   21.5822 N   0  0  0  0  0  0  0  0  0  0  0  0
    9.6899  -15.8171   23.9143 C   0  0  0  0  0  0  0  0  0  0  0  0
   10.2994  -14.7593   23.6534 O   0  0  0  0  0  0  0  0  0  0  0  0
    6.9455  -11.6411   26.7411 C   0  0  0  0  0  0  0  0  0  0  0  0
    7.8230  -12.8278   27.0661 C   0  0  0  0  0  0  0  0  0  0  0  0
    7.7701  -13.8935   25.9964 C   0  0  2  0  0  0  0  0  0  0  0  0
    6.3469  -14.4195   25.9468 C   0  0  0  0  0  0  0  0  0  0  0  0
    8.8034  -14.9652   26.1707 C   0  0  2  0  0  0  0  0  0  0  0  0
    8.9608  -15.9044   25.1210 N   0  0  0  0  0  0  0  0  0  0  0  0
    8.8557  -15.5170   27.5176 C   0  0  0  0  0  0  0  0  0  0  0  0
    9.3002  -14.7763   28.6311 O   0  0  0  0  0  0  0  0  0  0  0  0
    8.5033  -16.6890   27.7453 O   0  0  0  0  0  0  0  0  0  0  0  0
  1  2  1  0
  2  3  2  0
  4  2  1  0
  4  5  1  0
  6  5  1  0
  6  7  1  6
  8  6  1  0
  8  9  2  0
 10 11  1  0
 11 13  1  0
 12 11  2  0
 14 13  1  1
 14 15  1  0
 15  8  1  0
 16 14  1  0
 17 16  2  0
 18 19  1  0
 19 20  1  0
 20 22  1  0
 20 21  1  1
 22 23  1  6
 22 24  1  0
 23 16  1  0
 24 25  1  0
 26 24  2  0
M  END
$$$$
