QNI.pdb
     RDKit          3D

 26 25  0  0  1  0  0  0  0  0999 V2000
   11.3305  -19.9824   17.3596 N   0  0  0  0  0  0  0  0  0  0  0  0
    9.8936  -20.1008   17.3733 C   0  0  0  0  0  0  0  0  0  0  0  0
    9.4183  -20.9267   16.5797 O   0  0  0  0  0  0  0  0  0  0  0  0
    9.0906  -19.2808   18.2748 C   0  0  0  0  0  0  0  0  0  0  0  0
    9.8208  -18.3460   19.1805 C   0  0  0  0  0  0  0  0  0  0  0  0
    9.1001  -17.9659   20.4386 C   0  0  2  0  0  0  0  0  0  0  0  0
    7.6996  -18.1262   20.3630 N   0  0  0  0  0  0  0  0  0  0  0  0
    9.5383  -16.5909   20.9007 C   0  0  0  0  0  0  0  0  0  0  0  0
   10.7648  -16.4129   21.0597 O   0  0  0  0  0  0  0  0  0  0  0  0
    6.4430  -13.7166   19.1054 N   0  0  0  0  0  0  0  0  0  0  0  0
    7.6951  -13.3309   19.6392 C   0  0  0  0  0  0  0  0  0  0  0  0
    8.6553  -13.1178   18.8424 O   0  0  0  0  0  0  0  0  0  0  0  0
    7.8465  -13.1874   21.1190 C   0  0  0  0  0  0  0  0  0  0  0  0
    8.8764  -14.2137   21.5601 C   0  0  2  0  0  0  0  0  0  0  0  0
    8.6246  -15.5527   21.1444 N   0  0  0  0  0  0  0  0  0  0  0  0
    9.3133  -14.0589   22.9573 C   0  0  0  0  0  0  0  0  0  0  0  0
   10.0621  -13.1012   23.2408 O   0  0  0  0  0  0  0  0  0  0  0  0
    6.7818  -11.8381   27.2096 C   0  0  0  0  0  0  0  0  0  0  0  0
    7.5613  -13.1198   27.0270 C   0  0  0  0  0  0  0  0  0  0  0  0
    7.5777  -13.5844   25.5894 C   0  0  2  0  0  0  0  0  0  0  0  0
    6.1502  -13.9310   25.2061 C   0  0  0  0  0  0  0  0  0  0  0  0
    8.5568  -14.6893   25.3307 C   0  0  2  0  0  0  0  0  0  0  0  0
    8.9201  -14.9448   23.9849 N   0  0  0  0  0  0  0  0  0  0  0  0
    8.3415  -15.8699   26.1561 C   0  0  0  0  0  0  0  0  0  0  0  0
    8.3271  -17.1779   25.6315 O   0  0  0  0  0  0  0  0  0  0  0  0
    8.1575  -15.7705   27.3832 O   0  0  0  0  0  0  0  0  0  0  0  0
  1  2  1  0
  2  3  2  0
  4  2  1  0
  4  5  1  0
  6  5  1  0
  6  7  1  6
  8  6  1  0
  8  9  2  0
 10 11  1  0
 11 13  1  0
 12 11  2  0
 14 13  1  1
 14 15  1  0
 15  8  1  0
 16 14  1  0
 17 16  2  0
 18 19  1  0
 19 20  1  0
 20 22  1  0
 20 21  1  1
 22 23  1  6
 22 24  1  0
 23 16  1  0
 24 25  1  0
 26 24  2  0
M  END
$$$$
