QNI.pdb
     RDKit          3D

 26 25  0  0  1  0  0  0  0  0999 V2000
    9.2359  -12.7562   17.8003 N   0  0  0  0  0  0  0  0  0  0  0  0
    8.2486  -13.5457   17.1070 C   0  0  0  0  0  0  0  0  0  0  0  0
    8.4313  -13.6783   15.8875 O   0  0  0  0  0  0  0  0  0  0  0  0
    7.1232  -14.1282   17.8308 C   0  0  0  0  0  0  0  0  0  0  0  0
    7.1534  -14.0460   19.3208 C   0  0  0  0  0  0  0  0  0  0  0  0
    8.2203  -14.8555   19.9938 C   0  0  2  0  0  0  0  0  0  0  0  0
    8.6591  -15.9622   19.2352 N   0  0  0  0  0  0  0  0  0  0  0  0
    7.8017  -15.2053   21.4075 C   0  0  0  0  0  0  0  0  0  0  0  0
    7.2854  -14.2919   22.0860 O   0  0  0  0  0  0  0  0  0  0  0  0
    6.4413  -17.6616   25.4764 N   0  0  0  0  0  0  0  0  0  0  0  0
    7.0395  -18.7287   24.7659 C   0  0  0  0  0  0  0  0  0  0  0  0
    7.0141  -19.8872   25.2754 O   0  0  0  0  0  0  0  0  0  0  0  0
    7.6801  -18.4585   23.4431 C   0  0  0  0  0  0  0  0  0  0  0  0
    7.7227  -16.9494   23.2720 C   0  0  2  0  0  0  0  0  0  0  0  0
    7.9776  -16.4895   21.9481 N   0  0  0  0  0  0  0  0  0  0  0  0
    8.4600  -16.2484   24.3359 C   0  0  0  0  0  0  0  0  0  0  0  0
    9.7076  -16.2496   24.2912 O   0  0  0  0  0  0  0  0  0  0  0  0
    6.0352  -11.6796   26.0013 C   0  0  0  0  0  0  0  0  0  0  0  0
    7.0073  -12.7642   25.5982 C   0  0  0  0  0  0  0  0  0  0  0  0
    7.5526  -13.5202   26.7873 C   0  0  2  0  0  0  0  0  0  0  0  0
    8.3235  -12.5304   27.6422 C   0  0  0  0  0  0  0  0  0  0  0  0
    8.3443  -14.7355   26.4096 C   0  0  2  0  0  0  0  0  0  0  0  0
    7.8162  -15.5768   25.3987 N   0  0  0  0  0  0  0  0  0  0  0  0
    8.9441  -15.4221   27.5455 C   0  0  0  0  0  0  0  0  0  0  0  0
   10.0016  -14.8745   28.2991 O   0  0  0  0  0  0  0  0  0  0  0  0
    8.5396  -16.5432   27.9045 O   0  0  0  0  0  0  0  0  0  0  0  0
  1  2  1  0
  2  3  2  0
  4  2  1  0
  4  5  1  0
  6  5  1  0
  6  7  1  6
  8  6  1  0
  8  9  2  0
 10 11  1  0
 11 13  1  0
 12 11  2  0
 14 13  1  6
 14 15  1  0
 15  8  1  0
 16 14  1  0
 17 16  2  0
 18 19  1  0
 19 20  1  0
 20 22  1  0
 20 21  1  6
 22 23  1  1
 22 24  1  0
 23 16  1  0
 24 25  1  0
 26 24  2  0
M  END
$$$$
