QNI.pdb
     RDKit          3D

 26 25  0  0  1  0  0  0  0  0999 V2000
    8.9405  -13.7066   16.5044 N   0  0  0  0  0  0  0  0  0  0  0  0
    7.8207  -14.5289   16.8899 C   0  0  0  0  0  0  0  0  0  0  0  0
    7.3878  -15.2881   16.0099 O   0  0  0  0  0  0  0  0  0  0  0  0
    7.2630  -14.4388   18.2355 C   0  0  0  0  0  0  0  0  0  0  0  0
    7.7605  -13.3352   19.1085 C   0  0  0  0  0  0  0  0  0  0  0  0
    8.9988  -13.6391   19.8963 C   0  0  2  0  0  0  0  0  0  0  0  0
   10.0274  -14.2333   19.1336 N   0  0  0  0  0  0  0  0  0  0  0  0
    8.6460  -14.4041   21.1560 C   0  0  0  0  0  0  0  0  0  0  0  0
    7.6085  -14.0537   21.7576 O   0  0  0  0  0  0  0  0  0  0  0  0
   10.0565  -18.6072   20.4441 N   0  0  0  0  0  0  0  0  0  0  0  0
    9.2304  -18.3078   21.5528 C   0  0  0  0  0  0  0  0  0  0  0  0
    8.0018  -18.6064   21.4928 O   0  0  0  0  0  0  0  0  0  0  0  0
    9.8287  -17.6517   22.7548 C   0  0  0  0  0  0  0  0  0  0  0  0
    9.2627  -16.2431   22.8179 C   0  0  2  0  0  0  0  0  0  0  0  0
    9.4352  -15.4598   21.6407 N   0  0  0  0  0  0  0  0  0  0  0  0
    9.5364  -15.5457   24.0850 C   0  0  0  0  0  0  0  0  0  0  0  0
   10.6599  -15.0250   24.2435 O   0  0  0  0  0  0  0  0  0  0  0  0
    5.9884  -12.1013   25.9710 C   0  0  0  0  0  0  0  0  0  0  0  0
    7.2418  -12.8892   25.6673 C   0  0  0  0  0  0  0  0  0  0  0  0
    7.6001  -13.8514   26.7757 C   0  0  2  0  0  0  0  0  0  0  0  0
    7.9311  -13.0264   28.0063 C   0  0  0  0  0  0  0  0  0  0  0  0
    8.6741  -14.8255   26.3960 C   0  0  2  0  0  0  0  0  0  0  0  0
    8.5837  -15.4412   25.1226 N   0  0  0  0  0  0  0  0  0  0  0  0
    9.0868  -15.6990   27.4859 C   0  0  0  0  0  0  0  0  0  0  0  0
    9.0344  -17.1048   27.4015 O   0  0  0  0  0  0  0  0  0  0  0  0
    9.5111  -15.2307   28.5585 O   0  0  0  0  0  0  0  0  0  0  0  0
  1  2  1  0
  2  3  2  0
  4  2  1  0
  4  5  1  0
  6  5  1  0
  6  7  1  6
  8  6  1  0
  8  9  2  0
 10 11  1  0
 11 13  1  0
 12 11  2  0
 14 13  1  6
 14 15  1  0
 15  8  1  0
 16 14  1  0
 17 16  2  0
 18 19  1  0
 19 20  1  0
 20 22  1  0
 20 21  1  1
 22 23  1  6
 22 24  1  0
 23 16  1  0
 24 25  1  0
 26 24  2  0
M  END
$$$$
