QNI.pdb
     RDKit          3D

 26 25  0  0  1  0  0  0  0  0999 V2000
    7.5445  -12.5689   16.9524 N   0  0  0  0  0  0  0  0  0  0  0  0
    7.5006  -14.0069   16.8566 C   0  0  0  0  0  0  0  0  0  0  0  0
    6.7017  -14.4624   16.0247 O   0  0  0  0  0  0  0  0  0  0  0  0
    8.3546  -14.8329   17.7041 C   0  0  0  0  0  0  0  0  0  0  0  0
    9.1379  -14.1384   18.7678 C   0  0  0  0  0  0  0  0  0  0  0  0
    9.9595  -15.0261   19.6529 C   0  0  2  0  0  0  0  0  0  0  0  0
   10.4108  -16.2032   19.0175 N   0  0  0  0  0  0  0  0  0  0  0  0
    9.2410  -15.2712   20.9644 C   0  0  0  0  0  0  0  0  0  0  0  0
    8.7156  -14.2799   21.5143 O   0  0  0  0  0  0  0  0  0  0  0  0
    6.8327  -19.1084   21.1048 N   0  0  0  0  0  0  0  0  0  0  0  0
    8.1472  -19.0177   21.6202 C   0  0  0  0  0  0  0  0  0  0  0  0
    9.1071  -19.4440   20.9138 O   0  0  0  0  0  0  0  0  0  0  0  0
    8.3623  -18.4252   22.9752 C   0  0  0  0  0  0  0  0  0  0  0  0
    8.5511  -16.9304   22.7797 C   0  0  2  0  0  0  0  0  0  0  0  0
    9.1589  -16.5448   21.5504 N   0  0  0  0  0  0  0  0  0  0  0  0
    9.0474  -16.2297   23.9754 C   0  0  0  0  0  0  0  0  0  0  0  0
   10.2813  -16.1083   24.1211 O   0  0  0  0  0  0  0  0  0  0  0  0
    6.2344  -11.9187   25.7562 C   0  0  0  0  0  0  0  0  0  0  0  0
    7.3221  -12.9124   25.4194 C   0  0  0  0  0  0  0  0  0  0  0  0
    7.6038  -13.8658   26.5572 C   0  0  2  0  0  0  0  0  0  0  0  0
    8.1443  -13.0464   27.7153 C   0  0  0  0  0  0  0  0  0  0  0  0
    8.4844  -15.0146   26.1685 C   0  0  2  0  0  0  0  0  0  0  0  0
    8.1882  -15.6907   24.9586 N   0  0  0  0  0  0  0  0  0  0  0  0
    8.8636  -15.8683   27.2861 C   0  0  0  0  0  0  0  0  0  0  0  0
    9.8630  -15.5141   28.2145 O   0  0  0  0  0  0  0  0  0  0  0  0
    8.3099  -16.9677   27.4708 O   0  0  0  0  0  0  0  0  0  0  0  0
  1  2  1  0
  2  3  2  0
  4  2  1  0
  4  5  1  0
  6  5  1  0
  6  7  1  6
  8  6  1  0
  8  9  2  0
 10 11  1  0
 11 13  1  0
 12 11  2  0
 14 13  1  1
 14 15  1  0
 15  8  1  0
 16 14  1  0
 17 16  2  0
 18 19  1  0
 19 20  1  0
 20 22  1  0
 20 21  1  1
 22 23  1  6
 22 24  1  0
 23 16  1  0
 24 25  1  0
 26 24  2  0
M  END
$$$$
