QNI.pdb
     RDKit          3D

 26 25  0  0  1  0  0  0  0  0999 V2000
    9.2721  -12.6243   17.8573 N   0  0  0  0  0  0  0  0  0  0  0  0
    8.1854  -13.3276   17.2223 C   0  0  0  0  0  0  0  0  0  0  0  0
    8.3080  -13.5097   16.0018 O   0  0  0  0  0  0  0  0  0  0  0  0
    7.0352  -13.7741   18.0017 C   0  0  0  0  0  0  0  0  0  0  0  0
    7.2346  -13.9586   19.4692 C   0  0  0  0  0  0  0  0  0  0  0  0
    8.3576  -14.8704   19.8619 C   0  0  2  0  0  0  0  0  0  0  0  0
    8.5561  -15.9461   18.9696 N   0  0  0  0  0  0  0  0  0  0  0  0
    8.2114  -15.2909   21.3103 C   0  0  0  0  0  0  0  0  0  0  0  0
    7.5033  -14.5652   22.0404 O   0  0  0  0  0  0  0  0  0  0  0  0
    9.8315  -19.5128   21.1310 N   0  0  0  0  0  0  0  0  0  0  0  0
    8.8689  -19.1337   22.0960 C   0  0  0  0  0  0  0  0  0  0  0  0
    7.6577  -19.4448   21.9003 O   0  0  0  0  0  0  0  0  0  0  0  0
    9.3077  -18.3816   23.3106 C   0  0  0  0  0  0  0  0  0  0  0  0
    8.8057  -16.9562   23.1537 C   0  0  2  0  0  0  0  0  0  0  0  0
    8.8346  -16.4385   21.8269 N   0  0  0  0  0  0  0  0  0  0  0  0
    9.2825  -16.0366   24.1997 C   0  0  0  0  0  0  0  0  0  0  0  0
   10.4338  -15.5656   24.0940 O   0  0  0  0  0  0  0  0  0  0  0  0
    6.2343  -11.9984   25.6952 C   0  0  0  0  0  0  0  0  0  0  0  0
    7.3789  -12.9486   25.4284 C   0  0  0  0  0  0  0  0  0  0  0  0
    7.8160  -13.6874   26.6718 C   0  0  2  0  0  0  0  0  0  0  0  0
    8.3388  -12.6555   27.6550 C   0  0  0  0  0  0  0  0  0  0  0  0
    8.7808  -14.8006   26.3959 C   0  0  2  0  0  0  0  0  0  0  0  0
    8.4936  -15.6666   25.3114 N   0  0  0  0  0  0  0  0  0  0  0  0
    9.2887  -15.4489   27.5973 C   0  0  0  0  0  0  0  0  0  0  0  0
   10.1469  -14.8038   28.5102 O   0  0  0  0  0  0  0  0  0  0  0  0
    8.9797  -16.6229   27.8727 O   0  0  0  0  0  0  0  0  0  0  0  0
  1  2  1  0
  2  3  2  0
  4  2  1  0
  4  5  1  0
  6  5  1  0
  6  7  1  6
  8  6  1  0
  8  9  2  0
 10 11  1  0
 11 13  1  0
 12 11  2  0
 14 13  1  6
 14 15  1  0
 15  8  1  0
 16 14  1  0
 17 16  2  0
 18 19  1  0
 19 20  1  0
 20 22  1  0
 20 21  1  1
 22 23  1  6
 22 24  1  0
 23 16  1  0
 24 25  1  0
 26 24  2  0
M  END
$$$$
