QNI.pdb
     RDKit          3D

 26 25  0  0  1  0  0  0  0  0999 V2000
    9.4251  -12.5404   19.0257 N   0  0  0  0  0  0  0  0  0  0  0  0
    8.3022  -12.5503   19.9301 C   0  0  0  0  0  0  0  0  0  0  0  0
    7.9411  -11.4389   20.3452 O   0  0  0  0  0  0  0  0  0  0  0  0
    7.6655  -13.8079   20.3079 C   0  0  0  0  0  0  0  0  0  0  0  0
    8.2990  -15.0679   19.8194 C   0  0  0  0  0  0  0  0  0  0  0  0
    7.6897  -16.3397   20.3270 C   0  0  2  0  0  0  0  0  0  0  0  0
    6.3033  -16.4441   20.0823 N   0  0  0  0  0  0  0  0  0  0  0  0
    8.0785  -16.5683   21.7736 C   0  0  0  0  0  0  0  0  0  0  0  0
    7.1462  -16.6807   22.5979 O   0  0  0  0  0  0  0  0  0  0  0  0
   12.0603  -18.5717   21.5319 N   0  0  0  0  0  0  0  0  0  0  0  0
   11.4461  -18.5687   22.8064 C   0  0  0  0  0  0  0  0  0  0  0  0
   10.9694  -19.6528   23.2533 O   0  0  0  0  0  0  0  0  0  0  0  0
   11.3785  -17.2935   23.5827 C   0  0  0  0  0  0  0  0  0  0  0  0
    9.9426  -16.8031   23.5039 C   0  0  2  0  0  0  0  0  0  0  0  0
    9.4175  -16.6524   22.1884 N   0  0  0  0  0  0  0  0  0  0  0  0
    9.6345  -15.7055   24.4353 C   0  0  0  0  0  0  0  0  0  0  0  0
    9.2065  -14.6317   23.9640 O   0  0  0  0  0  0  0  0  0  0  0  0
    6.6326  -12.8049   25.3917 C   0  0  0  0  0  0  0  0  0  0  0  0
    7.9798  -13.4859   25.4638 C   0  0  0  0  0  0  0  0  0  0  0  0
    8.2200  -14.1477   26.8006 C   0  0  2  0  0  0  0  0  0  0  0  0
    8.0713  -13.0811   27.8706 C   0  0  0  0  0  0  0  0  0  0  0  0
    9.5166  -14.8961   26.8712 C   0  0  2  0  0  0  0  0  0  0  0  0
    9.8014  -15.8184   25.8334 N   0  0  0  0  0  0  0  0  0  0  0  0
    9.8680  -15.3369   28.2143 C   0  0  0  0  0  0  0  0  0  0  0  0
   10.0369  -16.6940   28.5544 O   0  0  0  0  0  0  0  0  0  0  0  0
   10.0366  -14.5168   29.1355 O   0  0  0  0  0  0  0  0  0  0  0  0
  1  2  1  0
  2  3  2  0
  4  2  1  0
  4  5  1  0
  6  5  1  0
  6  7  1  1
  8  6  1  0
  8  9  2  0
 10 11  1  0
 11 13  1  0
 12 11  2  0
 14 13  1  6
 14 15  1  0
 15  8  1  0
 16 14  1  0
 17 16  2  0
 18 19  1  0
 19 20  1  0
 20 22  1  0
 20 21  1  1
 22 23  1  6
 22 24  1  0
 23 16  1  0
 24 25  1  0
 26 24  2  0
M  END
$$$$
