QNI.pdb
     RDKit          3D

 26 25  0  0  1  0  0  0  0  0999 V2000
    9.4296  -12.7249   18.2328 N   0  0  0  0  0  0  0  0  0  0  0  0
    8.2648  -13.2294   17.5490 C   0  0  0  0  0  0  0  0  0  0  0  0
    8.3380  -13.2468   16.3112 O   0  0  0  0  0  0  0  0  0  0  0  0
    7.0977  -13.6759   18.3030 C   0  0  0  0  0  0  0  0  0  0  0  0
    7.3038  -14.0185   19.7409 C   0  0  0  0  0  0  0  0  0  0  0  0
    8.4538  -14.9347   20.0314 C   0  0  2  0  0  0  0  0  0  0  0  0
    8.6030  -15.9769   19.0909 N   0  0  0  0  0  0  0  0  0  0  0  0
    8.3995  -15.4069   21.4702 C   0  0  0  0  0  0  0  0  0  0  0  0
    7.5432  -14.8738   22.2076 O   0  0  0  0  0  0  0  0  0  0  0  0
   10.5455  -19.5215   21.3181 N   0  0  0  0  0  0  0  0  0  0  0  0
    9.6360  -19.1138   22.3222 C   0  0  0  0  0  0  0  0  0  0  0  0
    8.4371  -19.5145   22.2545 O   0  0  0  0  0  0  0  0  0  0  0  0
   10.1142  -18.2275   23.4262 C   0  0  0  0  0  0  0  0  0  0  0  0
    9.3650  -16.9123   23.2939 C   0  0  2  0  0  0  0  0  0  0  0  0
    9.2624  -16.3956   21.9705 N   0  0  0  0  0  0  0  0  0  0  0  0
    9.7039  -15.9249   24.3318 C   0  0  0  0  0  0  0  0  0  0  0  0
   10.7986  -15.3307   24.2487 O   0  0  0  0  0  0  0  0  0  0  0  0
    6.6236  -11.9144   25.5815 C   0  0  0  0  0  0  0  0  0  0  0  0
    7.7613  -12.8966   25.4236 C   0  0  0  0  0  0  0  0  0  0  0  0
    8.0655  -13.6367   26.7053 C   0  0  2  0  0  0  0  0  0  0  0  0
    8.5112  -12.6093   27.7302 C   0  0  0  0  0  0  0  0  0  0  0  0
    9.0321  -14.7680   26.5256 C   0  0  2  0  0  0  0  0  0  0  0  0
    8.8443  -15.6234   25.4114 N   0  0  0  0  0  0  0  0  0  0  0  0
    9.3974  -15.4315   27.7698 C   0  0  0  0  0  0  0  0  0  0  0  0
    9.1791  -16.8051   27.9969 O   0  0  0  0  0  0  0  0  0  0  0  0
    9.9276  -14.8001   28.7024 O   0  0  0  0  0  0  0  0  0  0  0  0
  1  2  1  0
  2  3  2  0
  4  2  1  0
  4  5  1  0
  6  5  1  0
  6  7  1  6
  8  6  1  0
  8  9  2  0
 10 11  1  0
 11 13  1  0
 12 11  2  0
 14 13  1  6
 14 15  1  0
 15  8  1  0
 16 14  1  0
 17 16  2  0
 18 19  1  0
 19 20  1  0
 20 22  1  0
 20 21  1  1
 22 23  1  6
 22 24  1  0
 23 16  1  0
 24 25  1  0
 26 24  2  0
M  END
$$$$
