QNI.pdb
     RDKit          3D

 26 25  0  0  1  0  0  0  0  0999 V2000
    6.5635  -14.2223   16.5394 N   0  0  0  0  0  0  0  0  0  0  0  0
    7.9678  -13.9427   16.3708 C   0  0  0  0  0  0  0  0  0  0  0  0
    8.3802  -13.9657   15.2014 O   0  0  0  0  0  0  0  0  0  0  0  0
    8.8117  -13.6602   17.5274 C   0  0  0  0  0  0  0  0  0  0  0  0
    8.1512  -13.6381   18.8656 C   0  0  0  0  0  0  0  0  0  0  0  0
    9.0443  -13.3139   20.0248 C   0  0  2  0  0  0  0  0  0  0  0  0
   10.3722  -13.0114   19.6533 N   0  0  0  0  0  0  0  0  0  0  0  0
    8.9321  -14.3852   21.0907 C   0  0  0  0  0  0  0  0  0  0  0  0
    7.7983  -14.5801   21.5783 O   0  0  0  0  0  0  0  0  0  0  0  0
   11.8701  -17.4382   19.9657 N   0  0  0  0  0  0  0  0  0  0  0  0
   10.9326  -17.7445   20.9800 C   0  0  0  0  0  0  0  0  0  0  0  0
    9.9380  -18.4711   20.6884 O   0  0  0  0  0  0  0  0  0  0  0  0
   11.1427  -17.2043   22.3575 C   0  0  0  0  0  0  0  0  0  0  0  0
   10.1143  -16.1050   22.5634 C   0  0  2  0  0  0  0  0  0  0  0  0
   10.0384  -15.1340   21.5239 N   0  0  0  0  0  0  0  0  0  0  0  0
   10.0821  -15.5663   23.9330 C   0  0  0  0  0  0  0  0  0  0  0  0
   11.1494  -15.1541   24.4323 O   0  0  0  0  0  0  0  0  0  0  0  0
    6.2912  -12.0933   25.3611 C   0  0  0  0  0  0  0  0  0  0  0  0
    7.5182  -12.9632   25.2137 C   0  0  0  0  0  0  0  0  0  0  0  0
    7.5765  -14.0579   26.2535 C   0  0  2  0  0  0  0  0  0  0  0  0
    7.6222  -13.3904   27.6162 C   0  0  0  0  0  0  0  0  0  0  0  0
    8.6863  -15.0390   26.0250 C   0  0  2  0  0  0  0  0  0  0  0  0
    8.8982  -15.4960   24.7002 N   0  0  0  0  0  0  0  0  0  0  0  0
    8.7947  -16.0553   27.0627 C   0  0  0  0  0  0  0  0  0  0  0  0
    9.5782  -15.8847   28.2216 O   0  0  0  0  0  0  0  0  0  0  0  0
    8.1880  -17.1380   26.9668 O   0  0  0  0  0  0  0  0  0  0  0  0
  1  2  1  0
  2  3  2  0
  4  2  1  0
  4  5  1  0
  6  5  1  0
  6  7  1  6
  8  6  1  0
  8  9  2  0
 10 11  1  0
 11 13  1  0
 12 11  2  0
 14 13  1  6
 14 15  1  0
 15  8  1  0
 16 14  1  0
 17 16  2  0
 18 19  1  0
 19 20  1  0
 20 22  1  0
 20 21  1  1
 22 23  1  6
 22 24  1  0
 23 16  1  0
 24 25  1  0
 26 24  2  0
M  END
$$$$
