NVK.pdb
     RDKit          3D

 25 24  0  0  1  0  0  0  0  0999 V2000
   22.5603  -15.2873  -21.4938 N   0  0  0  0  0  0  0  0  0  0  0  0
   21.6101  -14.6319  -20.7024 C   0  0  0  0  0  0  0  0  0  0  0  0
   20.4117  -14.6257  -21.1453 O   0  0  0  0  0  0  0  0  0  0  0  0
   21.8349  -13.9589  -19.4296 C   0  0  0  0  0  0  0  0  0  0  0  0
   23.2356  -13.9410  -18.9110 C   0  0  2  0  0  0  0  0  0  0  0  0
   23.6198  -15.2799  -18.5452 N   0  0  0  0  0  0  0  0  0  0  0  0
   23.3589  -13.0815  -17.6946 C   0  0  0  0  0  0  0  0  0  0  0  0
   22.6946  -13.4315  -16.6906 O   0  0  0  0  0  0  0  0  0  0  0  0
   26.1110   -9.8693  -15.1913 C   0  0  0  0  0  0  0  0  0  0  0  0
   25.7178  -10.9114  -16.1994 C   0  0  2  0  0  0  0  0  0  0  0  0
   26.7239  -10.8252  -17.3248 C   0  0  0  0  0  0  0  0  0  0  0  0
   24.3169  -11.0459  -16.5546 C   0  0  2  0  0  0  0  0  0  0  0  0
   24.1967  -11.9245  -17.6971 N   0  0  0  0  0  0  0  0  0  0  0  0
   23.4516   -9.8843  -16.7357 C   0  0  0  0  0  0  0  0  0  0  0  0
   23.5527   -9.2435  -17.8158 O   0  0  0  0  0  0  0  0  0  0  0  0
   22.5004   -9.4046  -15.8074 N   0  0  0  0  0  0  0  0  0  0  0  0
   21.7335   -8.1964  -16.1571 C   0  0  1  0  0  0  0  0  0  0  0  0
   20.3139   -8.5566  -16.4355 C   0  0  0  0  0  0  0  0  0  0  0  0
   19.4810   -7.3515  -16.7283 C   0  0  0  0  0  0  0  0  0  0  0  0
   18.0394   -7.7621  -16.9278 C   0  0  0  0  0  0  0  0  0  0  0  0
   17.2105   -6.5342  -17.3302 C   0  0  0  0  0  0  0  0  0  0  0  0
   15.8170   -6.9207  -17.3364 N   0  0  0  0  0  0  0  0  0  0  0  0
   21.9040   -7.2532  -15.0220 C   0  0  0  0  0  0  0  0  0  0  0  0
   21.6189   -5.9241  -15.2042 O   0  0  0  0  0  0  0  0  0  0  0  0
   22.3096   -7.6497  -13.8895 O   0  0  0  0  0  0  0  0  0  0  0  0
  1  2  1  0
  2  3  2  0
  2  4  1  0
  4  5  1  0
  5  7  1  0
  5  6  1  1
  7  8  2  0
 10 12  1  0
 10  9  1  6
 10 11  1  0
 13  7  1  0
 12 13  1  6
 14 12  1  0
 14 15  2  0
 16 14  1  0
 17 23  1  0
 17 16  1  0
 17 18  1  1
 19 18  1  0
 20 19  1  0
 21 20  1  0
 21 22  1  0
 23 24  1  0
 25 23  2  0
M  END
$$$$
