NVK.pdb
     RDKit          3D

 25 24  0  0  1  0  0  0  0  0999 V2000
   21.9809  -16.5641  -19.2837 N   0  0  0  0  0  0  0  0  0  0  0  0
   21.7105  -16.3927  -17.9212 C   0  0  0  0  0  0  0  0  0  0  0  0
   21.1940  -17.3926  -17.3165 O   0  0  0  0  0  0  0  0  0  0  0  0
   21.9546  -15.2028  -17.1162 C   0  0  0  0  0  0  0  0  0  0  0  0
   22.4242  -13.9818  -17.8372 C   0  0  2  0  0  0  0  0  0  0  0  0
   23.6320  -14.2946  -18.5566 N   0  0  0  0  0  0  0  0  0  0  0  0
   22.7322  -12.8692  -16.8882 C   0  0  0  0  0  0  0  0  0  0  0  0
   21.8832  -12.6435  -15.9937 O   0  0  0  0  0  0  0  0  0  0  0  0
   26.2102   -9.8133  -15.0699 C   0  0  0  0  0  0  0  0  0  0  0  0
   25.6646  -10.9230  -15.9229 C   0  0  2  0  0  0  0  0  0  0  0  0
   26.5900  -11.0488  -17.1120 C   0  0  0  0  0  0  0  0  0  0  0  0
   24.2355  -10.9753  -16.1707 C   0  0  2  0  0  0  0  0  0  0  0  0
   23.9385  -12.1140  -17.0115 N   0  0  0  0  0  0  0  0  0  0  0  0
   23.4904   -9.8111  -16.6400 C   0  0  0  0  0  0  0  0  0  0  0  0
   23.6345   -9.4725  -17.8451 O   0  0  0  0  0  0  0  0  0  0  0  0
   22.6127   -9.0194  -15.8657 N   0  0  0  0  0  0  0  0  0  0  0  0
   21.9808   -7.8520  -16.5044 C   0  0  1  0  0  0  0  0  0  0  0  0
   20.5215   -8.0976  -16.6854 C   0  0  0  0  0  0  0  0  0  0  0  0
   20.2541   -9.0866  -17.7726 C   0  0  0  0  0  0  0  0  0  0  0  0
   18.7626   -9.2563  -17.9544 C   0  0  0  0  0  0  0  0  0  0  0  0
   18.4977  -10.2802  -19.0673 C   0  0  0  0  0  0  0  0  0  0  0  0
   17.0658  -10.3991  -19.2307 N   0  0  0  0  0  0  0  0  0  0  0  0
   22.2922   -6.6856  -15.6386 C   0  0  0  0  0  0  0  0  0  0  0  0
   21.9557   -5.4254  -16.0623 O   0  0  0  0  0  0  0  0  0  0  0  0
   22.8645   -6.8296  -14.5178 O   0  0  0  0  0  0  0  0  0  0  0  0
  1  2  1  0
  2  3  2  0
  2  4  1  0
  4  5  1  0
  5  7  1  0
  5  6  1  1
  7  8  2  0
 10 12  1  0
 10  9  1  6
 10 11  1  0
 13  7  1  0
 12 13  1  6
 14 12  1  0
 14 15  2  0
 16 14  1  0
 17 23  1  0
 17 16  1  0
 17 18  1  1
 19 18  1  0
 20 19  1  0
 21 20  1  0
 21 22  1  0
 23 24  1  0
 25 23  2  0
M  END
$$$$
