NVK.pdb
     RDKit          3D

 25 24  0  0  1  0  0  0  0  0999 V2000
   27.6568  -22.7210  -17.4401 N   0  0  0  0  0  0  0  0  0  0  0  0
   26.9727  -23.4269  -16.4438 C   0  0  0  0  0  0  0  0  0  0  0  0
   27.3015  -24.6520  -16.2910 O   0  0  0  0  0  0  0  0  0  0  0  0
   25.9303  -22.9198  -15.5608 C   0  0  0  0  0  0  0  0  0  0  0  0
   25.4534  -21.5258  -15.8066 C   0  0  2  0  0  0  0  0  0  0  0  0
   26.5517  -20.6126  -15.6228 N   0  0  0  0  0  0  0  0  0  0  0  0
   24.3724  -21.1395  -14.8497 C   0  0  0  0  0  0  0  0  0  0  0  0
   24.7237  -20.9146  -13.6675 O   0  0  0  0  0  0  0  0  0  0  0  0
   22.5236  -18.1107  -15.0064 C   0  0  0  0  0  0  0  0  0  0  0  0
   21.5276  -19.2332  -14.9370 C   0  0  2  0  0  0  0  0  0  0  0  0
   20.2553  -18.6474  -14.3676 C   0  0  0  0  0  0  0  0  0  0  0  0
   21.9628  -20.5225  -14.4319 C   0  0  2  0  0  0  0  0  0  0  0  0
   23.0144  -21.0372  -15.2810 N   0  0  0  0  0  0  0  0  0  0  0  0
   21.0161  -21.5894  -14.1217 C   0  0  0  0  0  0  0  0  0  0  0  0
   20.4154  -22.1354  -15.0853 O   0  0  0  0  0  0  0  0  0  0  0  0
   20.7060  -22.0753  -12.8316 N   0  0  0  0  0  0  0  0  0  0  0  0
   19.7511  -23.1914  -12.7185 C   0  0  1  0  0  0  0  0  0  0  0  0
   19.8536  -23.8152  -11.3684 C   0  0  0  0  0  0  0  0  0  0  0  0
   18.8049  -24.8576  -11.1557 C   0  0  0  0  0  0  0  0  0  0  0  0
   18.8194  -25.3110   -9.7133 C   0  0  0  0  0  0  0  0  0  0  0  0
   17.6895  -26.3252   -9.4861 C   0  0  0  0  0  0  0  0  0  0  0  0
   17.6920  -26.6879   -8.0862 N   0  0  0  0  0  0  0  0  0  0  0  0
   18.4114  -22.6239  -13.0195 C   0  0  0  0  0  0  0  0  0  0  0  0
   18.0964  -21.3684  -12.5665 O   0  0  0  0  0  0  0  0  0  0  0  0
   17.5524  -23.2760  -13.6837 O   0  0  0  0  0  0  0  0  0  0  0  0
  1  2  1  0
  2  3  2  0
  2  4  1  0
  4  5  1  0
  5  7  1  0
  5  6  1  1
  7  8  2  0
 10 12  1  0
 10  9  1  1
 10 11  1  0
 13  7  1  0
 12 13  1  6
 14 12  1  0
 14 15  2  0
 16 14  1  0
 17 23  1  0
 17 16  1  0
 17 18  1  1
 19 18  1  0
 20 19  1  0
 21 20  1  0
 21 22  1  0
 23 24  1  0
 25 23  2  0
M  END
$$$$
