NVK.pdb
     RDKit          3D

 25 24  0  0  1  0  0  0  0  0999 V2000
   17.4259  -10.2250  -17.7771 N   0  0  0  0  0  0  0  0  0  0  0  0
   16.4942  -10.0057  -16.7559 C   0  0  0  0  0  0  0  0  0  0  0  0
   15.2632  -10.0367  -17.0966 O   0  0  0  0  0  0  0  0  0  0  0  0
   16.7717   -9.7490  -15.3486 C   0  0  0  0  0  0  0  0  0  0  0  0
   18.2064   -9.6175  -14.9542 C   0  0  2  0  0  0  0  0  0  0  0  0
   18.8436  -10.9048  -15.0581 N   0  0  0  0  0  0  0  0  0  0  0  0
   18.3459   -9.1508  -13.5413 C   0  0  0  0  0  0  0  0  0  0  0  0
   18.0657   -9.9820  -12.6456 O   0  0  0  0  0  0  0  0  0  0  0  0
   20.4753   -5.3913  -12.5893 C   0  0  0  0  0  0  0  0  0  0  0  0
   20.3075   -6.6874  -11.8485 C   0  0  2  0  0  0  0  0  0  0  0  0
   21.5437   -7.5105  -12.1323 C   0  0  0  0  0  0  0  0  0  0  0  0
   19.0221   -7.3595  -11.8995 C   0  0  2  0  0  0  0  0  0  0  0  0
   18.7785   -7.8212  -13.2483 N   0  0  0  0  0  0  0  0  0  0  0  0
   17.8097   -6.7482  -11.3636 C   0  0  0  0  0  0  0  0  0  0  0  0
   17.0594   -6.1356  -12.1694 O   0  0  0  0  0  0  0  0  0  0  0  0
   17.3909   -6.7785  -10.0144 N   0  0  0  0  0  0  0  0  0  0  0  0
   16.0923   -6.1717   -9.6743 C   0  0  1  0  0  0  0  0  0  0  0  0
   15.2959   -7.1102   -8.8330 C   0  0  0  0  0  0  0  0  0  0  0  0
   14.0017   -6.5050   -8.3967 C   0  0  0  0  0  0  0  0  0  0  0  0
   13.2344   -7.4945   -7.5490 C   0  0  0  0  0  0  0  0  0  0  0  0
   11.8335   -6.9379   -7.2577 C   0  0  0  0  0  0  0  0  0  0  0  0
   11.1261   -7.9112   -6.4555 N   0  0  0  0  0  0  0  0  0  0  0  0
   16.3993   -4.8793   -9.0090 C   0  0  0  0  0  0  0  0  0  0  0  0
   15.4704   -3.8708   -9.0393 O   0  0  0  0  0  0  0  0  0  0  0  0
   17.5020   -4.6876   -8.4161 O   0  0  0  0  0  0  0  0  0  0  0  0
  1  2  1  0
  2  3  2  0
  2  4  1  0
  4  5  1  0
  5  7  1  0
  5  6  1  1
  7  8  2  0
 10 12  1  0
 10  9  1  6
 10 11  1  0
 13  7  1  0
 12 13  1  6
 14 12  1  0
 14 15  2  0
 16 14  1  0
 17 23  1  0
 17 16  1  0
 17 18  1  1
 19 18  1  0
 20 19  1  0
 21 20  1  0
 21 22  1  0
 23 24  1  0
 25 23  2  0
M  END
$$$$
