NVK.pdb
     RDKit          3D

 25 24  0  0  1  0  0  0  0  0999 V2000
   18.1965  -16.6286  -15.5264 N   0  0  0  0  0  0  0  0  0  0  0  0
   19.4257  -16.1701  -16.0140 C   0  0  0  0  0  0  0  0  0  0  0  0
   19.8627  -16.7385  -17.0714 O   0  0  0  0  0  0  0  0  0  0  0  0
   20.2601  -15.1161  -15.4517 C   0  0  0  0  0  0  0  0  0  0  0  0
   20.8931  -14.1666  -16.4156 C   0  0  2  0  0  0  0  0  0  0  0  0
   21.9912  -14.8259  -17.0741 N   0  0  0  0  0  0  0  0  0  0  0  0
   21.4348  -12.9596  -15.7205 C   0  0  0  0  0  0  0  0  0  0  0  0
   20.9795  -12.7189  -14.5775 O   0  0  0  0  0  0  0  0  0  0  0  0
   25.1996  -11.9982  -15.1723 C   0  0  0  0  0  0  0  0  0  0  0  0
   24.3962  -10.9322  -15.8616 C   0  0  2  0  0  0  0  0  0  0  0  0
   25.1159   -9.6246  -15.6201 C   0  0  0  0  0  0  0  0  0  0  0  0
   22.9518  -10.9446  -15.7191 C   0  0  2  0  0  0  0  0  0  0  0  0
   22.4211  -12.1358  -16.3445 N   0  0  0  0  0  0  0  0  0  0  0  0
   22.1307   -9.7932  -16.0805 C   0  0  0  0  0  0  0  0  0  0  0  0
   21.9644   -9.5564  -17.3068 O   0  0  0  0  0  0  0  0  0  0  0  0
   21.4962   -8.9098  -15.1784 N   0  0  0  0  0  0  0  0  0  0  0  0
   20.7132   -7.7919  -15.7327 C   0  0  1  0  0  0  0  0  0  0  0  0
   19.2605   -8.0129  -15.4811 C   0  0  0  0  0  0  0  0  0  0  0  0
   18.4354   -6.8488  -15.9237 C   0  0  0  0  0  0  0  0  0  0  0  0
   16.9740   -7.1243  -15.6508 C   0  0  0  0  0  0  0  0  0  0  0  0
   16.1189   -6.0218  -16.2912 C   0  0  0  0  0  0  0  0  0  0  0  0
   14.7360   -6.2804  -15.9566 N   0  0  0  0  0  0  0  0  0  0  0  0
   21.2517   -6.5569  -15.1066 C   0  0  0  0  0  0  0  0  0  0  0  0
   20.9893   -5.3412  -15.6846 O   0  0  0  0  0  0  0  0  0  0  0  0
   21.9505   -6.6027  -14.0512 O   0  0  0  0  0  0  0  0  0  0  0  0
  1  2  1  0
  2  3  2  0
  2  4  1  0
  4  5  1  0
  5  7  1  0
  5  6  1  1
  7  8  2  0
 10 12  1  0
 10  9  1  1
 10 11  1  0
 13  7  1  0
 12 13  1  6
 14 12  1  0
 14 15  2  0
 16 14  1  0
 17 23  1  0
 17 16  1  0
 17 18  1  1
 19 18  1  0
 20 19  1  0
 21 20  1  0
 21 22  1  0
 23 24  1  0
 25 23  2  0
M  END
$$$$
