NVK.pdb
     RDKit          3D

 25 24  0  0  1  0  0  0  0  0999 V2000
   17.7034  -21.1421  -14.2334 N   0  0  0  0  0  0  0  0  0  0  0  0
   19.0841  -21.3668  -14.1891 C   0  0  0  0  0  0  0  0  0  0  0  0
   19.5040  -22.4257  -14.7674 O   0  0  0  0  0  0  0  0  0  0  0  0
   20.0949  -20.5268  -13.5597 C   0  0  0  0  0  0  0  0  0  0  0  0
   21.1233  -21.2157  -12.7237 C   0  0  2  0  0  0  0  0  0  0  0  0
   20.5723  -21.4766  -11.4189 N   0  0  0  0  0  0  0  0  0  0  0  0
   22.3415  -20.3687  -12.5447 C   0  0  0  0  0  0  0  0  0  0  0  0
   22.1887  -19.2902  -11.9241 O   0  0  0  0  0  0  0  0  0  0  0  0
   26.2514  -22.1588  -12.7204 C   0  0  0  0  0  0  0  0  0  0  0  0
   25.7507  -20.8973  -12.0765 C   0  0  2  0  0  0  0  0  0  0  0  0
   25.3905  -21.2529  -10.6517 C   0  0  0  0  0  0  0  0  0  0  0  0
   24.8292  -20.0541  -12.8159 C   0  0  2  0  0  0  0  0  0  0  0  0
   23.6061  -20.7857  -13.0620 N   0  0  0  0  0  0  0  0  0  0  0  0
   25.2319  -19.3492  -14.0290 C   0  0  0  0  0  0  0  0  0  0  0  0
   24.9254  -19.8686  -15.1353 O   0  0  0  0  0  0  0  0  0  0  0  0
   25.9386  -18.1267  -14.0833 N   0  0  0  0  0  0  0  0  0  0  0  0
   26.2481  -17.5592  -15.4070 C   0  0  1  0  0  0  0  0  0  0  0  0
   26.4746  -16.0902  -15.2915 C   0  0  0  0  0  0  0  0  0  0  0  0
   26.8462  -15.4794  -16.6032 C   0  0  0  0  0  0  0  0  0  0  0  0
   27.1607  -14.0126  -16.4137 C   0  0  0  0  0  0  0  0  0  0  0  0
   27.6096  -13.4102  -17.7526 C   0  0  0  0  0  0  0  0  0  0  0  0
   27.9005  -12.0104  -17.5354 N   0  0  0  0  0  0  0  0  0  0  0  0
   27.4234  -18.3114  -15.9168 C   0  0  0  0  0  0  0  0  0  0  0  0
   27.6026  -18.4412  -17.2703 O   0  0  0  0  0  0  0  0  0  0  0  0
   28.2629  -18.8381  -15.1280 O   0  0  0  0  0  0  0  0  0  0  0  0
  1  2  1  0
  2  3  2  0
  2  4  1  0
  4  5  1  0
  5  7  1  0
  5  6  1  1
  7  8  2  0
 10 12  1  0
 10  9  1  6
 10 11  1  0
 13  7  1  0
 12 13  1  6
 14 12  1  0
 14 15  2  0
 16 14  1  0
 17 23  1  0
 17 16  1  0
 17 18  1  1
 19 18  1  0
 20 19  1  0
 21 20  1  0
 21 22  1  0
 23 24  1  0
 25 23  2  0
M  END
$$$$
