NVK.pdb
     RDKit          3D

 25 24  0  0  1  0  0  0  0  0999 V2000
   29.4842  -19.4128  -17.1239 N   0  0  0  0  0  0  0  0  0  0  0  0
   28.1422  -19.0340  -17.0047 C   0  0  0  0  0  0  0  0  0  0  0  0
   27.7867  -17.9963  -17.6597 O   0  0  0  0  0  0  0  0  0  0  0  0
   27.1059  -19.6924  -16.2197 C   0  0  0  0  0  0  0  0  0  0  0  0
   27.5349  -20.8266  -15.3475 C   0  0  2  0  0  0  0  0  0  0  0  0
   27.9429  -21.9309  -16.1771 N   0  0  0  0  0  0  0  0  0  0  0  0
   26.4182  -21.2991  -14.4739 C   0  0  0  0  0  0  0  0  0  0  0  0
   25.6362  -22.1438  -14.9707 O   0  0  0  0  0  0  0  0  0  0  0  0
   24.7668  -21.7402   -9.8147 C   0  0  0  0  0  0  0  0  0  0  0  0
   25.6818  -21.2431  -10.8976 C   0  0  2  0  0  0  0  0  0  0  0  0
   26.3355  -19.9867  -10.3680 C   0  0  0  0  0  0  0  0  0  0  0  0
   25.1999  -21.2282  -12.2666 C   0  0  2  0  0  0  0  0  0  0  0  0
   26.2678  -20.8011  -13.1435 N   0  0  0  0  0  0  0  0  0  0  0  0
   23.9593  -20.5563  -12.6409 C   0  0  0  0  0  0  0  0  0  0  0  0
   23.9931  -19.3050  -12.7843 O   0  0  0  0  0  0  0  0  0  0  0  0
   22.7109  -21.1804  -12.8619 N   0  0  0  0  0  0  0  0  0  0  0  0
   21.5799  -20.3419  -13.2952 C   0  0  1  0  0  0  0  0  0  0  0  0
   21.1972  -20.6857  -14.6945 C   0  0  0  0  0  0  0  0  0  0  0  0
   19.9722  -19.9516  -15.1329 C   0  0  0  0  0  0  0  0  0  0  0  0
   19.5858  -20.3886  -16.5279 C   0  0  0  0  0  0  0  0  0  0  0  0
   18.3677  -19.5801  -16.9965 C   0  0  0  0  0  0  0  0  0  0  0  0
   18.0090  -20.0423  -18.3190 N   0  0  0  0  0  0  0  0  0  0  0  0
   20.4960  -20.5616  -12.3033 C   0  0  0  0  0  0  0  0  0  0  0  0
   20.4857  -21.7167  -11.5640 O   0  0  0  0  0  0  0  0  0  0  0  0
   19.5790  -19.7058  -12.1272 O   0  0  0  0  0  0  0  0  0  0  0  0
  1  2  1  0
  2  3  2  0
  2  4  1  0
  4  5  1  0
  5  7  1  0
  5  6  1  6
  7  8  2  0
 10 12  1  0
 10  9  1  1
 10 11  1  0
 13  7  1  0
 12 13  1  6
 14 12  1  0
 14 15  2  0
 16 14  1  0
 17 23  1  0
 17 16  1  0
 17 18  1  6
 19 18  1  0
 20 19  1  0
 21 20  1  0
 21 22  1  0
 23 24  1  0
 25 23  2  0
M  END
$$$$
