NVK.pdb
     RDKit          3D

 25 24  0  0  1  0  0  0  0  0999 V2000
   15.6713  -10.4606  -17.2662 N   0  0  0  0  0  0  0  0  0  0  0  0
   16.8271   -9.7327  -17.5713 C   0  0  0  0  0  0  0  0  0  0  0  0
   17.0708   -9.5514  -18.8123 O   0  0  0  0  0  0  0  0  0  0  0  0
   17.7810   -9.1572  -16.6319 C   0  0  0  0  0  0  0  0  0  0  0  0
   19.2287   -9.4181  -16.8913 C   0  0  2  0  0  0  0  0  0  0  0  0
   19.5339  -10.7791  -16.5330 N   0  0  0  0  0  0  0  0  0  0  0  0
   20.1022   -8.5229  -16.0733 C   0  0  0  0  0  0  0  0  0  0  0  0
   19.9813   -8.6060  -14.8283 O   0  0  0  0  0  0  0  0  0  0  0  0
   24.3626   -6.1806  -15.7806 C   0  0  0  0  0  0  0  0  0  0  0  0
   23.2712   -7.1388  -16.1644 C   0  0  2  0  0  0  0  0  0  0  0  0
   23.6389   -7.6908  -17.5232 C   0  0  0  0  0  0  0  0  0  0  0  0
   21.8905   -6.7489  -15.9449 C   0  0  2  0  0  0  0  0  0  0  0  0
   21.0216   -7.6258  -16.6984 N   0  0  0  0  0  0  0  0  0  0  0  0
   21.4450   -5.3673  -16.0974 C   0  0  0  0  0  0  0  0  0  0  0  0
   21.2758   -4.9341  -17.2684 O   0  0  0  0  0  0  0  0  0  0  0  0
   21.1811   -4.4591  -15.0475 N   0  0  0  0  0  0  0  0  0  0  0  0
   20.7928   -3.0821  -15.3986 C   0  0  1  0  0  0  0  0  0  0  0  0
   19.3124   -2.9312  -15.3084 C   0  0  0  0  0  0  0  0  0  0  0  0
   18.8742   -1.5392  -15.6281 C   0  0  0  0  0  0  0  0  0  0  0  0
   17.3684   -1.4418  -15.5303 C   0  0  0  0  0  0  0  0  0  0  0  0
   16.9179   -0.0432  -15.9754 C   0  0  0  0  0  0  0  0  0  0  0  0
   15.4750    0.0066  -15.8929 N   0  0  0  0  0  0  0  0  0  0  0  0
   21.5460   -2.1909  -14.4791 C   0  0  0  0  0  0  0  0  0  0  0  0
   22.2564   -2.7405  -13.4427 O   0  0  0  0  0  0  0  0  0  0  0  0
   21.5443   -0.9333  -14.6301 O   0  0  0  0  0  0  0  0  0  0  0  0
  1  2  1  0
  2  3  2  0
  2  4  1  0
  4  5  1  0
  5  7  1  0
  5  6  1  1
  7  8  2  0
 10 12  1  0
 10  9  1  6
 10 11  1  0
 13  7  1  0
 12 13  1  6
 14 12  1  0
 14 15  2  0
 16 14  1  0
 17 23  1  0
 17 16  1  0
 17 18  1  1
 19 18  1  0
 20 19  1  0
 21 20  1  0
 21 22  1  0
 23 24  1  0
 25 23  2  0
M  END
$$$$
