NVK.pdb
     RDKit          3D

 25 24  0  0  1  0  0  0  0  0999 V2000
   28.5482  -20.1106  -17.7482 N   0  0  0  0  0  0  0  0  0  0  0  0
   27.1552  -20.2369  -17.7975 C   0  0  0  0  0  0  0  0  0  0  0  0
   26.5851  -19.8079  -18.8573 O   0  0  0  0  0  0  0  0  0  0  0  0
   26.2841  -20.8051  -16.7767 C   0  0  0  0  0  0  0  0  0  0  0  0
   26.9427  -21.3554  -15.5541 C   0  0  2  0  0  0  0  0  0  0  0  0
   27.6617  -22.5530  -15.9047 N   0  0  0  0  0  0  0  0  0  0  0  0
   25.9399  -21.7144  -14.5058 C   0  0  0  0  0  0  0  0  0  0  0  0
   25.3716  -22.8250  -14.6299 O   0  0  0  0  0  0  0  0  0  0  0  0
   26.6566  -21.2103  -10.6452 C   0  0  0  0  0  0  0  0  0  0  0  0
   25.3208  -20.6870  -11.0909 C   0  0  2  0  0  0  0  0  0  0  0  0
   24.4249  -20.6961   -9.8728 C   0  0  0  0  0  0  0  0  0  0  0  0
   24.7644  -21.1681  -12.3422 C   0  0  2  0  0  0  0  0  0  0  0  0
   25.6584  -20.8231  -13.4255 N   0  0  0  0  0  0  0  0  0  0  0  0
   23.3870  -20.8853  -12.7337 C   0  0  0  0  0  0  0  0  0  0  0  0
   23.1328  -19.7380  -13.1883 O   0  0  0  0  0  0  0  0  0  0  0  0
   22.2995  -21.7840  -12.6528 N   0  0  0  0  0  0  0  0  0  0  0  0
   20.9727  -21.3128  -13.0861 C   0  0  1  0  0  0  0  0  0  0  0  0
   20.0843  -22.4771  -13.3649 C   0  0  0  0  0  0  0  0  0  0  0  0
   18.7101  -22.0464  -13.7617 C   0  0  0  0  0  0  0  0  0  0  0  0
   17.8396  -23.2612  -13.9917 C   0  0  0  0  0  0  0  0  0  0  0  0
   16.4338  -22.8091  -14.4118 C   0  0  0  0  0  0  0  0  0  0  0  0
   15.6005  -23.9864  -14.5158 N   0  0  0  0  0  0  0  0  0  0  0  0
   20.4757  -20.4212  -12.0067 C   0  0  0  0  0  0  0  0  0  0  0  0
   19.7824  -19.2856  -12.3393 O   0  0  0  0  0  0  0  0  0  0  0  0
   20.6807  -20.6858  -10.7852 O   0  0  0  0  0  0  0  0  0  0  0  0
  1  2  1  0
  2  3  2  0
  2  4  1  0
  4  5  1  0
  5  7  1  0
  5  6  1  6
  7  8  2  0
 10 12  1  0
 10  9  1  1
 10 11  1  0
 13  7  1  0
 12 13  1  6
 14 12  1  0
 14 15  2  0
 16 14  1  0
 17 23  1  0
 17 16  1  0
 17 18  1  1
 19 18  1  0
 20 19  1  0
 21 20  1  0
 21 22  1  0
 23 24  1  0
 25 23  2  0
M  END
$$$$
