NVK.pdb
     RDKit          3D

 25 24  0  0  1  0  0  0  0  0999 V2000
   18.8650  -13.9349  -20.4241 N   0  0  0  0  0  0  0  0  0  0  0  0
   18.4767  -12.6873  -19.9227 C   0  0  0  0  0  0  0  0  0  0  0  0
   17.5050  -12.1139  -20.5220 O   0  0  0  0  0  0  0  0  0  0  0  0
   19.0552  -11.9716  -18.7927 C   0  0  0  0  0  0  0  0  0  0  0  0
   20.2251  -12.6072  -18.1156 C   0  0  2  0  0  0  0  0  0  0  0  0
   19.7909  -13.8121  -17.4569 N   0  0  0  0  0  0  0  0  0  0  0  0
   20.8146  -11.7063  -17.0791 C   0  0  0  0  0  0  0  0  0  0  0  0
   20.1012  -11.4609  -16.0778 O   0  0  0  0  0  0  0  0  0  0  0  0
   24.3278  -12.2707  -15.5451 C   0  0  0  0  0  0  0  0  0  0  0  0
   24.1285  -10.8606  -16.0235 C   0  0  2  0  0  0  0  0  0  0  0  0
   25.0802   -9.9958  -15.2281 C   0  0  0  0  0  0  0  0  0  0  0  0
   22.7749  -10.3738  -16.2173 C   0  0  2  0  0  0  0  0  0  0  0  0
   22.1260  -11.1634  -17.2406 N   0  0  0  0  0  0  0  0  0  0  0  0
   22.4870   -8.9591  -16.4328 C   0  0  0  0  0  0  0  0  0  0  0  0
   22.8600   -8.4465  -17.5217 O   0  0  0  0  0  0  0  0  0  0  0  0
   21.8220   -8.0999  -15.5293 N   0  0  0  0  0  0  0  0  0  0  0  0
   21.6632   -6.6839  -15.9031 C   0  0  1  0  0  0  0  0  0  0  0  0
   20.3060   -6.4572  -16.4768 C   0  0  0  0  0  0  0  0  0  0  0  0
   20.0570   -5.0123  -16.7633 C   0  0  0  0  0  0  0  0  0  0  0  0
   18.6997   -4.8453  -17.4086 C   0  0  0  0  0  0  0  0  0  0  0  0
   18.4819   -3.3675  -17.7629 C   0  0  0  0  0  0  0  0  0  0  0  0
   17.2501   -3.2670  -18.5138 N   0  0  0  0  0  0  0  0  0  0  0  0
   21.9363   -5.8965  -14.6733 C   0  0  0  0  0  0  0  0  0  0  0  0
   22.1706   -4.5491  -14.7763 O   0  0  0  0  0  0  0  0  0  0  0  0
   21.9600   -6.4433  -13.5310 O   0  0  0  0  0  0  0  0  0  0  0  0
  1  2  1  0
  2  3  2  0
  2  4  1  0
  4  5  1  0
  5  7  1  0
  5  6  1  1
  7  8  2  0
 10 12  1  0
 10  9  1  1
 10 11  1  0
 13  7  1  0
 12 13  1  6
 14 12  1  0
 14 15  2  0
 16 14  1  0
 17 23  1  0
 17 16  1  0
 17 18  1  1
 19 18  1  0
 20 19  1  0
 21 20  1  0
 21 22  1  0
 23 24  1  0
 25 23  2  0
M  END
$$$$
