NVK.pdb
     RDKit          3D

 25 24  0  0  1  0  0  0  0  0999 V2000
   22.1838  -21.3726   -7.2978 N   0  0  0  0  0  0  0  0  0  0  0  0
   22.2317  -21.5652   -8.6832 C   0  0  0  0  0  0  0  0  0  0  0  0
   21.5801  -22.5654   -9.1385 O   0  0  0  0  0  0  0  0  0  0  0  0
   22.9391  -20.7512   -9.6632 C   0  0  0  0  0  0  0  0  0  0  0  0
   24.4150  -20.9535   -9.7731 C   0  0  2  0  0  0  0  0  0  0  0  0
   25.0376  -20.5633   -8.5345 N   0  0  0  0  0  0  0  0  0  0  0  0
   25.0032  -20.1180  -10.8637 C   0  0  0  0  0  0  0  0  0  0  0  0
   24.8904  -18.8754  -10.7414 O   0  0  0  0  0  0  0  0  0  0  0  0
   28.4985  -19.5339  -14.1535 C   0  0  0  0  0  0  0  0  0  0  0  0
   27.6597  -20.2700  -13.1477 C   0  0  2  0  0  0  0  0  0  0  0  0
   28.0497  -21.7277  -13.2437 C   0  0  0  0  0  0  0  0  0  0  0  0
   26.2463  -19.9538  -13.0521 C   0  0  2  0  0  0  0  0  0  0  0  0
   25.6566  -20.7247  -11.9798 N   0  0  0  0  0  0  0  0  0  0  0  0
   25.3683  -19.9830  -14.2178 C   0  0  0  0  0  0  0  0  0  0  0  0
   24.9236  -21.1030  -14.5861 O   0  0  0  0  0  0  0  0  0  0  0  0
   24.9632  -18.8647  -14.9806 N   0  0  0  0  0  0  0  0  0  0  0  0
   24.0718  -19.0921  -16.1312 C   0  0  1  0  0  0  0  0  0  0  0  0
   22.7535  -18.4385  -15.8917 C   0  0  0  0  0  0  0  0  0  0  0  0
   21.8667  -18.5178  -17.0913 C   0  0  0  0  0  0  0  0  0  0  0  0
   20.5624  -17.8060  -16.8112 C   0  0  0  0  0  0  0  0  0  0  0  0
   19.6337  -17.9466  -18.0256 C   0  0  0  0  0  0  0  0  0  0  0  0
   18.3743  -17.3158  -17.6980 N   0  0  0  0  0  0  0  0  0  0  0  0
   24.7923  -18.5754  -17.3233 C   0  0  0  0  0  0  0  0  0  0  0  0
   24.4064  -18.9885  -18.5729 O   0  0  0  0  0  0  0  0  0  0  0  0
   25.7575  -17.7630  -17.2105 O   0  0  0  0  0  0  0  0  0  0  0  0
  1  2  1  0
  2  3  2  0
  2  4  1  0
  4  5  1  0
  5  7  1  0
  5  6  1  1
  7  8  2  0
 10 12  1  0
 10  9  1  6
 10 11  1  0
 13  7  1  0
 12 13  1  1
 14 12  1  0
 14 15  2  0
 16 14  1  0
 17 23  1  0
 17 16  1  0
 17 18  1  1
 19 18  1  0
 20 19  1  0
 21 20  1  0
 21 22  1  0
 23 24  1  0
 25 23  2  0
M  END
$$$$
