AQR.pdb
     RDKit          3D

 26 25  0  0  1  0  0  0  0  0999 V2000
    7.1523  -20.0730   18.0227 C   0  0  0  0  0  0  0  0  0  0  0  0
    7.7206  -19.6073   19.3668 C   0  0  2  0  0  0  0  0  0  0  0  0
    6.6741  -19.0099   20.1339 N   0  0  0  0  0  0  0  0  0  0  0  0
    8.7706  -18.5732   19.0695 C   0  0  0  0  0  0  0  0  0  0  0  0
    9.7728  -18.9224   18.4338 O   0  0  0  0  0  0  0  0  0  0  0  0
    7.8584  -12.5059   17.9451 N   0  0  0  0  0  0  0  0  0  0  0  0
    7.8066  -13.6502   17.1107 C   0  0  0  0  0  0  0  0  0  0  0  0
    7.2605  -13.5513   15.9906 O   0  0  0  0  0  0  0  0  0  0  0  0
    8.3956  -14.9749   17.5397 C   0  0  0  0  0  0  0  0  0  0  0  0
    9.0094  -14.8523   18.8764 C   0  0  0  0  0  0  0  0  0  0  0  0
    9.5624  -16.1678   19.3679 C   0  0  2  0  0  0  0  0  0  0  0  0
    8.6416  -17.2418   19.4903 N   0  0  0  0  0  0  0  0  0  0  0  0
   10.5730  -16.0482   20.4259 C   0  0  0  0  0  0  0  0  0  0  0  0
   11.5174  -15.2127   20.3943 O   0  0  0  0  0  0  0  0  0  0  0  0
    9.4227  -16.1405   29.3100 N   0  0  0  0  0  0  0  0  0  0  0  0
   10.0935  -15.0486   28.6661 C   0  0  0  0  0  0  0  0  0  0  0  0
    9.9784  -13.8727   29.1761 N   0  0  0  0  0  0  0  0  0  0  0  0
   10.8518  -15.3166   27.4980 N   0  0  0  0  0  0  0  0  0  0  0  0
   10.1482  -15.7722   26.3193 C   0  0  0  0  0  0  0  0  0  0  0  0
   11.1155  -16.0223   25.1715 C   0  0  0  0  0  0  0  0  0  0  0  0
   10.3201  -16.3166   23.9323 C   0  0  0  0  0  0  0  0  0  0  0  0
   11.2485  -16.6379   22.7722 C   0  0  2  0  0  0  0  0  0  0  0  0
   10.5066  -16.9095   21.5594 N   0  0  0  0  0  0  0  0  0  0  0  0
   12.0968  -17.8234   23.0972 C   0  0  0  0  0  0  0  0  0  0  0  0
   11.9331  -18.9246   22.5150 O   0  0  0  0  0  0  0  0  0  0  0  0
   13.0961  -17.7582   24.0510 O   0  0  0  0  0  0  0  0  0  0  0  0
  2  1  1  6
  3  2  1  0
  4  2  1  0
  4  5  2  0
  6  7  1  0
  7  9  1  0
  8  7  2  0
  9 10  1  0
 11 10  1  1
 11 12  1  0
 12  4  1  0
 13 11  1  0
 13 23  1  0
 14 13  2  0
 16 18  1  0
 16 15  1  0
 17 16  2  0
 19 20  1  0
 19 18  1  0
 20 21  1  0
 22 21  1  1
 22 23  1  0
 22 24  1  0
 24 25  2  0
 24 26  1  0
M  END
$$$$
