AQR.pdb
     RDKit          3D

 26 25  0  0  1  0  0  0  0  0999 V2000
    4.8210  -19.2512   22.8746 C   0  0  0  0  0  0  0  0  0  0  0  0
    5.0597  -19.0485   21.3751 C   0  0  2  0  0  0  0  0  0  0  0  0
    5.1951  -20.3245   20.7476 N   0  0  0  0  0  0  0  0  0  0  0  0
    6.3467  -18.2851   21.2305 C   0  0  0  0  0  0  0  0  0  0  0  0
    7.4041  -18.9251   21.1770 O   0  0  0  0  0  0  0  0  0  0  0  0
    6.9774  -12.2335   18.9682 N   0  0  0  0  0  0  0  0  0  0  0  0
    8.2330  -12.8903   18.9481 C   0  0  0  0  0  0  0  0  0  0  0  0
    9.1273  -12.4512   18.1931 O   0  0  0  0  0  0  0  0  0  0  0  0
    8.5137  -14.0968   19.8149 C   0  0  0  0  0  0  0  0  0  0  0  0
    7.2495  -14.7517   20.2040 C   0  0  0  0  0  0  0  0  0  0  0  0
    7.4869  -16.0169   20.9921 C   0  0  2  0  0  0  0  0  0  0  0  0
    6.3753  -16.8852   21.1561 N   0  0  0  0  0  0  0  0  0  0  0  0
    8.3687  -15.8556   22.1546 C   0  0  0  0  0  0  0  0  0  0  0  0
    8.0050  -15.3127   23.2335 O   0  0  0  0  0  0  0  0  0  0  0  0
   10.3861  -20.5594   27.8853 N   0  0  0  0  0  0  0  0  0  0  0  0
   11.7527  -20.1251   27.8631 C   0  0  0  0  0  0  0  0  0  0  0  0
   12.4613  -20.2777   28.9264 N   0  0  0  0  0  0  0  0  0  0  0  0
   12.2584  -19.5482   26.6702 N   0  0  0  0  0  0  0  0  0  0  0  0
   11.3474  -19.3694   25.5611 C   0  0  0  0  0  0  0  0  0  0  0  0
   11.3624  -17.9286   25.0720 C   0  0  0  0  0  0  0  0  0  0  0  0
   10.4167  -17.8082   23.9118 C   0  0  0  0  0  0  0  0  0  0  0  0
   10.5450  -16.4384   23.2651 C   0  0  2  0  0  0  0  0  0  0  0  0
    9.7114  -16.3286   22.0869 N   0  0  0  0  0  0  0  0  0  0  0  0
   11.9640  -16.1749   22.8811 C   0  0  0  0  0  0  0  0  0  0  0  0
   12.3460  -16.2626   21.6875 O   0  0  0  0  0  0  0  0  0  0  0  0
   12.9148  -15.8240   23.8221 O   0  0  0  0  0  0  0  0  0  0  0  0
  2  1  1  1
  3  2  1  0
  4  2  1  0
  4  5  2  0
  6  7  1  0
  7  9  1  0
  8  7  2  0
  9 10  1  0
 11 10  1  1
 11 12  1  0
 12  4  1  0
 13 11  1  0
 13 23  1  0
 14 13  2  0
 16 18  1  0
 16 15  1  0
 17 16  2  0
 19 20  1  0
 19 18  1  0
 20 21  1  0
 22 21  1  6
 22 23  1  0
 22 24  1  0
 24 25  2  0
 24 26  1  0
M  END
$$$$
