AQR.pdb
     RDKit          3D

 26 25  0  0  1  0  0  0  0  0999 V2000
    6.6979  -13.7508   18.8279 C   0  0  0  0  0  0  0  0  0  0  0  0
    8.0948  -13.3411   19.3048 C   0  0  2  0  0  0  0  0  0  0  0  0
    8.9888  -13.3486   18.1908 N   0  0  0  0  0  0  0  0  0  0  0  0
    8.5407  -14.3702   20.3060 C   0  0  0  0  0  0  0  0  0  0  0  0
    7.7730  -14.6563   21.2330 O   0  0  0  0  0  0  0  0  0  0  0  0
   12.9051  -19.3168   19.2779 N   0  0  0  0  0  0  0  0  0  0  0  0
   12.6000  -18.0312   18.7654 C   0  0  0  0  0  0  0  0  0  0  0  0
   13.3684  -17.5252   17.9192 O   0  0  0  0  0  0  0  0  0  0  0  0
   11.3745  -17.2670   19.2124 C   0  0  0  0  0  0  0  0  0  0  0  0
   11.5915  -16.6932   20.5549 C   0  0  0  0  0  0  0  0  0  0  0  0
   10.3658  -15.9787   21.0698 C   0  0  2  0  0  0  0  0  0  0  0  0
    9.7883  -15.0037   20.2142 N   0  0  0  0  0  0  0  0  0  0  0  0
   10.4048  -15.6533   22.5007 C   0  0  0  0  0  0  0  0  0  0  0  0
   10.7737  -14.5337   22.9496 O   0  0  0  0  0  0  0  0  0  0  0  0
    7.0712  -21.4654   27.8200 N   0  0  0  0  0  0  0  0  0  0  0  0
    6.7046  -20.4434   26.8831 C   0  0  0  0  0  0  0  0  0  0  0  0
    5.8268  -20.7226   25.9844 N   0  0  0  0  0  0  0  0  0  0  0  0
    7.3267  -19.1735   26.9915 N   0  0  0  0  0  0  0  0  0  0  0  0
    6.9105  -18.1314   26.0789 C   0  0  0  0  0  0  0  0  0  0  0  0
    8.0170  -17.8032   25.0872 C   0  0  0  0  0  0  0  0  0  0  0  0
    8.6493  -16.5023   25.4905 C   0  0  0  0  0  0  0  0  0  0  0  0
   10.0347  -16.3755   24.8778 C   0  0  2  0  0  0  0  0  0  0  0  0
   10.0104  -16.6363   23.4543 N   0  0  0  0  0  0  0  0  0  0  0  0
   10.9813  -17.3297   25.5291 C   0  0  0  0  0  0  0  0  0  0  0  0
   11.4890  -18.2856   24.8914 O   0  0  0  0  0  0  0  0  0  0  0  0
   11.3375  -17.2006   26.8592 O   0  0  0  0  0  0  0  0  0  0  0  0
  2  1  1  6
  3  2  1  0
  4  2  1  0
  4  5  2  0
  6  7  1  0
  7  9  1  0
  8  7  2  0
  9 10  1  0
 11 10  1  6
 11 12  1  0
 12  4  1  0
 13 11  1  0
 13 23  1  0
 14 13  2  0
 16 18  1  0
 16 15  1  0
 17 16  2  0
 19 20  1  0
 19 18  1  0
 20 21  1  0
 22 21  1  1
 22 23  1  0
 22 24  1  0
 24 25  2  0
 24 26  1  0
M  END
$$$$
