AQR.pdb
     RDKit          3D

 26 25  0  0  1  0  0  0  0  0999 V2000
    8.2457  -12.1470   19.7363 C   0  0  0  0  0  0  0  0  0  0  0  0
    8.3547  -13.2336   18.6621 C   0  0  2  0  0  0  0  0  0  0  0  0
    7.1540  -14.0074   18.6579 N   0  0  0  0  0  0  0  0  0  0  0  0
    9.5122  -14.1155   19.0398 C   0  0  0  0  0  0  0  0  0  0  0  0
    9.2851  -15.1154   19.7319 O   0  0  0  0  0  0  0  0  0  0  0  0
   15.0597  -14.4556   15.8515 N   0  0  0  0  0  0  0  0  0  0  0  0
   15.2248  -15.3301   16.9543 C   0  0  0  0  0  0  0  0  0  0  0  0
   16.2676  -16.0158   17.0250 O   0  0  0  0  0  0  0  0  0  0  0  0
   14.1789  -15.4480   18.0397 C   0  0  0  0  0  0  0  0  0  0  0  0
   13.0814  -14.4912   17.7978 C   0  0  0  0  0  0  0  0  0  0  0  0
   12.0144  -14.5732   18.8622 C   0  0  2  0  0  0  0  0  0  0  0  0
   10.8239  -13.8345   18.6313 N   0  0  0  0  0  0  0  0  0  0  0  0
   12.5244  -14.5795   20.2387 C   0  0  0  0  0  0  0  0  0  0  0  0
   13.1778  -13.6255   20.7427 O   0  0  0  0  0  0  0  0  0  0  0  0
    7.3982  -18.8073   24.7504 N   0  0  0  0  0  0  0  0  0  0  0  0
    7.3214  -17.3910   24.9626 C   0  0  0  0  0  0  0  0  0  0  0  0
    6.3803  -16.9341   25.7120 N   0  0  0  0  0  0  0  0  0  0  0  0
    8.2863  -16.5612   24.3366 N   0  0  0  0  0  0  0  0  0  0  0  0
    9.6206  -17.0883   24.1525 C   0  0  0  0  0  0  0  0  0  0  0  0
   10.5027  -16.0901   23.4169 C   0  0  0  0  0  0  0  0  0  0  0  0
   11.8810  -16.6726   23.2914 C   0  0  0  0  0  0  0  0  0  0  0  0
   12.7591  -15.7735   22.4361 C   0  0  2  0  0  0  0  0  0  0  0  0
   12.2825  -15.7110   21.0708 N   0  0  0  0  0  0  0  0  0  0  0  0
   14.1678  -16.2697   22.4354 C   0  0  0  0  0  0  0  0  0  0  0  0
   14.6956  -16.7393   21.3966 O   0  0  0  0  0  0  0  0  0  0  0  0
   14.9482  -16.2328   23.5765 O   0  0  0  0  0  0  0  0  0  0  0  0
  2  1  1  1
  3  2  1  0
  4  2  1  0
  4  5  2  0
  6  7  1  0
  7  9  1  0
  8  7  2  0
  9 10  1  0
 11 10  1  6
 11 12  1  0
 12  4  1  0
 13 11  1  0
 13 23  1  0
 14 13  2  0
 16 18  1  0
 16 15  1  0
 17 16  2  0
 19 20  1  0
 19 18  1  0
 20 21  1  0
 22 21  1  1
 22 23  1  0
 22 24  1  0
 24 25  2  0
 24 26  1  0
M  END
$$$$
