AQR.pdb
     RDKit          3D

 26 25  0  0  1  0  0  0  0  0999 V2000
    7.2606  -14.9417   19.3315 C   0  0  0  0  0  0  0  0  0  0  0  0
    7.7032  -13.5343   19.7437 C   0  0  2  0  0  0  0  0  0  0  0  0
    8.6705  -13.0566   18.8075 N   0  0  0  0  0  0  0  0  0  0  0  0
    8.3404  -13.6499   21.1005 C   0  0  0  0  0  0  0  0  0  0  0  0
    9.5735  -13.5855   21.1756 O   0  0  0  0  0  0  0  0  0  0  0  0
    5.5469  -11.7515   26.5107 N   0  0  0  0  0  0  0  0  0  0  0  0
    6.5803  -12.6141   26.9537 C   0  0  0  0  0  0  0  0  0  0  0  0
    6.6627  -12.8738   28.1738 O   0  0  0  0  0  0  0  0  0  0  0  0
    7.5739  -13.2249   25.9917 C   0  0  0  0  0  0  0  0  0  0  0  0
    7.0243  -13.2260   24.6218 C   0  0  0  0  0  0  0  0  0  0  0  0
    7.9970  -13.8032   23.6224 C   0  0  2  0  0  0  0  0  0  0  0  0
    7.5799  -13.8262   22.2653 N   0  0  0  0  0  0  0  0  0  0  0  0
    8.7379  -14.9772   24.0996 C   0  0  0  0  0  0  0  0  0  0  0  0
    9.3369  -15.0180   25.2089 O   0  0  0  0  0  0  0  0  0  0  0  0
   14.8501  -15.6421   19.9991 N   0  0  0  0  0  0  0  0  0  0  0  0
   13.5374  -15.0697   20.0771 C   0  0  0  0  0  0  0  0  0  0  0  0
   13.1345  -14.3268   19.1066 N   0  0  0  0  0  0  0  0  0  0  0  0
   12.7457  -15.3495   21.2200 N   0  0  0  0  0  0  0  0  0  0  0  0
   13.1191  -16.4755   22.0476 C   0  0  0  0  0  0  0  0  0  0  0  0
   12.1044  -16.6922   23.1607 C   0  0  0  0  0  0  0  0  0  0  0  0
   10.8551  -17.2713   22.5619 C   0  0  0  0  0  0  0  0  0  0  0  0
    9.7172  -17.2286   23.5690 C   0  0  2  0  0  0  0  0  0  0  0  0
    8.7995  -16.1456   23.2859 N   0  0  0  0  0  0  0  0  0  0  0  0
   10.2529  -17.0605   24.9530 C   0  0  0  0  0  0  0  0  0  0  0  0
   10.2327  -15.9456   25.5316 O   0  0  0  0  0  0  0  0  0  0  0  0
   10.7926  -18.1237   25.6537 O   0  0  0  0  0  0  0  0  0  0  0  0
  2  1  1  6
  3  2  1  0
  4  2  1  0
  4  5  2  0
  6  7  1  0
  7  9  1  0
  8  7  2  0
  9 10  1  0
 11 10  1  1
 11 12  1  0
 12  4  1  0
 13 11  1  0
 13 23  1  0
 14 13  2  0
 16 18  1  0
 16 15  1  0
 17 16  2  0
 19 20  1  0
 19 18  1  0
 20 21  1  0
 22 21  1  6
 22 23  1  0
 22 24  1  0
 24 25  2  0
 24 26  1  0
M  END
$$$$
