AQR.pdb
     RDKit          3D

 26 25  0  0  1  0  0  0  0  0999 V2000
    8.1935  -12.4397   20.0787 C   0  0  0  0  0  0  0  0  0  0  0  0
    8.7800  -13.5143   19.1579 C   0  0  2  0  0  0  0  0  0  0  0  0
    8.0758  -13.4989   17.9152 N   0  0  0  0  0  0  0  0  0  0  0  0
    8.5669  -14.8406   19.8329 C   0  0  0  0  0  0  0  0  0  0  0  0
    8.0498  -15.7542   19.1784 O   0  0  0  0  0  0  0  0  0  0  0  0
   11.7251  -19.7619   19.7753 N   0  0  0  0  0  0  0  0  0  0  0  0
   12.1029  -18.8401   20.7832 C   0  0  0  0  0  0  0  0  0  0  0  0
   13.3187  -18.6081   20.9583 O   0  0  0  0  0  0  0  0  0  0  0  0
   11.0772  -18.1343   21.6408 C   0  0  0  0  0  0  0  0  0  0  0  0
   10.5341  -16.9619   20.9273 C   0  0  0  0  0  0  0  0  0  0  0  0
    9.5212  -16.2129   21.7585 C   0  0  2  0  0  0  0  0  0  0  0  0
    8.9355  -15.0622   21.1675 N   0  0  0  0  0  0  0  0  0  0  0  0
    9.8517  -16.1195   23.1857 C   0  0  0  0  0  0  0  0  0  0  0  0
   10.8042  -15.4254   23.6351 O   0  0  0  0  0  0  0  0  0  0  0  0
    6.9807  -11.1443   25.2212 N   0  0  0  0  0  0  0  0  0  0  0  0
    6.3580  -11.8480   26.3046 C   0  0  0  0  0  0  0  0  0  0  0  0
    5.4225  -11.2571   26.9616 N   0  0  0  0  0  0  0  0  0  0  0  0
    6.8027  -13.1619   26.6004 N   0  0  0  0  0  0  0  0  0  0  0  0
    7.6259  -13.8383   25.6223 C   0  0  0  0  0  0  0  0  0  0  0  0
    7.0366  -15.1935   25.2596 C   0  0  0  0  0  0  0  0  0  0  0  0
    7.7136  -16.2462   26.0893 C   0  0  0  0  0  0  0  0  0  0  0  0
    9.1052  -16.5318   25.5483 C   0  0  2  0  0  0  0  0  0  0  0  0
    9.0710  -16.8413   24.1348 N   0  0  0  0  0  0  0  0  0  0  0  0
    9.7233  -17.6775   26.2805 C   0  0  0  0  0  0  0  0  0  0  0  0
    9.9601  -18.7696   25.7065 O   0  0  0  0  0  0  0  0  0  0  0  0
   10.0602  -17.5836   27.6185 O   0  0  0  0  0  0  0  0  0  0  0  0
  2  1  1  1
  3  2  1  0
  4  2  1  0
  4  5  2  0
  6  7  1  0
  7  9  1  0
  8  7  2  0
  9 10  1  0
 11 10  1  6
 11 12  1  0
 12  4  1  0
 13 11  1  0
 13 23  1  0
 14 13  2  0
 16 18  1  0
 16 15  1  0
 17 16  2  0
 19 20  1  0
 19 18  1  0
 20 21  1  0
 22 21  1  1
 22 23  1  0
 22 24  1  0
 24 25  2  0
 24 26  1  0
M  END
$$$$
