VHN.pdb
     RDKit          3D

 26 26  0  0  1  0  0  0  0  0999 V2000
   20.8958  -10.7331  -21.0568 C   0  0  0  0  0  0  0  0  0  0  0  0
   21.3162  -11.7579  -20.0147 C   0  0  1  0  0  0  0  0  0  0  0  0
   22.0507  -12.9016  -20.6685 C   0  0  0  0  0  0  0  0  0  0  0  0
   22.1275  -11.1507  -18.9179 C   0  0  2  0  0  0  0  0  0  0  0  0
   22.6974  -12.1938  -18.1168 N   0  0  0  0  0  0  0  0  0  0  0  0
   21.3535  -10.1862  -18.0950 C   0  0  0  0  0  0  0  0  0  0  0  0
   20.7894   -9.2105  -18.6495 O   0  0  0  0  0  0  0  0  0  0  0  0
   21.2476  -10.3599  -16.6875 N   0  0  0  0  0  0  0  0  0  0  0  0
   20.5504   -9.4967  -15.7831 C   0  0  1  0  0  0  0  0  0  0  0  0
   19.9763  -10.1868  -14.5931 C   0  0  0  0  0  0  0  0  0  0  0  0
   18.7105  -10.8906  -14.8880 C   0  0  0  0  0  0  0  0  0  0  0  0
   18.0774  -10.9417  -16.0917 C   0  0  0  0  0  0  0  0  0  0  0  0
   16.9691  -11.6788  -15.9236 N   0  0  0  0  0  0  0  0  0  0  0  0
   16.8745  -12.0992  -14.6534 C   0  0  0  0  0  0  0  0  0  0  0  0
   17.9519  -11.6107  -14.0157 N   0  0  0  0  0  0  0  0  0  0  0  0
   21.3212   -8.2563  -15.4261 C   0  0  0  0  0  0  0  0  0  0  0  0
   22.4868   -8.4058  -14.9896 O   0  0  0  0  0  0  0  0  0  0  0  0
   22.7121   -2.6622  -16.5723 N   0  0  0  0  0  0  0  0  0  0  0  0
   21.9350   -3.4132  -15.6160 C   0  0  0  0  0  0  0  0  0  0  0  0
   21.9776   -2.9411  -14.4482 O   0  0  0  0  0  0  0  0  0  0  0  0
   21.1854   -4.6037  -16.0125 C   0  0  0  0  0  0  0  0  0  0  0  0
   21.5669   -5.8062  -15.2215 C   0  0  2  0  0  0  0  0  0  0  0  0
   20.7594   -6.9683  -15.5750 N   0  0  0  0  0  0  0  0  0  0  0  0
   21.5017   -5.5688  -13.7768 C   0  0  0  0  0  0  0  0  0  0  0  0
   22.5031   -5.1118  -12.9701 O   0  0  0  0  0  0  0  0  0  0  0  0
   20.3869   -5.8142  -13.1966 O   0  0  0  0  0  0  0  0  0  0  0  0
  2  1  1  6
  2  3  1  0
  4  2  1  0
  4  5  1  1
  6  4  1  0
  7  6  2  0
  8  6  1  0
  9  8  1  0
  9 10  1  1
 10 11  1  0
 11 12  2  0
 12 13  1  0
 14 13  1  0
 15 11  1  0
 15 14  2  0
 16 23  1  0
 16  9  1  0
 17 16  2  0
 19 18  1  0
 19 20  2  0
 22 21  1  6
 21 19  1  0
 22 24  1  0
 22 23  1  0
 24 25  1  0
 26 24  2  0
M  END
$$$$
