VHN.pdb
     RDKit          3D

 26 26  0  0  1  0  0  0  0  0999 V2000
   34.5023   -5.0542  -14.6400 C   0  0  0  0  0  0  0  0  0  0  0  0
   33.9713   -6.0709  -15.6386 C   0  0  1  0  0  0  0  0  0  0  0  0
   33.9339   -5.4766  -17.0243 C   0  0  0  0  0  0  0  0  0  0  0  0
   34.7493   -7.3454  -15.6177 C   0  0  2  0  0  0  0  0  0  0  0  0
   36.1252   -7.0656  -15.9062 N   0  0  0  0  0  0  0  0  0  0  0  0
   34.1938   -8.3744  -16.5335 C   0  0  0  0  0  0  0  0  0  0  0  0
   34.7312   -8.5636  -17.6529 O   0  0  0  0  0  0  0  0  0  0  0  0
   33.0606   -9.1444  -16.1523 N   0  0  0  0  0  0  0  0  0  0  0  0
   32.3931  -10.1178  -16.9625 C   0  0  1  0  0  0  0  0  0  0  0  0
   32.2470  -11.4558  -16.3219 C   0  0  0  0  0  0  0  0  0  0  0  0
   31.6499  -12.4651  -17.2215 C   0  0  0  0  0  0  0  0  0  0  0  0
   32.3212  -13.2678  -18.0919 C   0  0  0  0  0  0  0  0  0  0  0  0
   31.4072  -14.0308  -18.7102 N   0  0  0  0  0  0  0  0  0  0  0  0
   30.1761  -13.7415  -18.2632 C   0  0  0  0  0  0  0  0  0  0  0  0
   30.3291  -12.7737  -17.3434 N   0  0  0  0  0  0  0  0  0  0  0  0
   31.1124   -9.6148  -17.5683 C   0  0  0  0  0  0  0  0  0  0  0  0
   30.5431   -8.6531  -17.0005 O   0  0  0  0  0  0  0  0  0  0  0  0
   26.9587   -8.6226  -20.2955 N   0  0  0  0  0  0  0  0  0  0  0  0
   27.3072   -8.3687  -18.9183 C   0  0  0  0  0  0  0  0  0  0  0  0
   26.4449   -7.6928  -18.2954 O   0  0  0  0  0  0  0  0  0  0  0  0
   28.5550   -8.8693  -18.3449 C   0  0  0  0  0  0  0  0  0  0  0  0
   29.3979   -9.5781  -19.3471 C   0  0  2  0  0  0  0  0  0  0  0  0
   30.5663  -10.1991  -18.7332 N   0  0  0  0  0  0  0  0  0  0  0  0
   29.8128   -8.7034  -20.4473 C   0  0  0  0  0  0  0  0  0  0  0  0
   29.6745   -8.9382  -21.7845 O   0  0  0  0  0  0  0  0  0  0  0  0
   30.3678   -7.5938  -20.1308 O   0  0  0  0  0  0  0  0  0  0  0  0
  2  1  1  1
  2  3  1  0
  4  2  1  0
  4  5  1  6
  6  4  1  0
  7  6  2  0
  8  6  1  0
  9  8  1  0
  9 10  1  1
 10 11  1  0
 11 12  2  0
 12 13  1  0
 14 13  1  0
 15 11  1  0
 15 14  2  0
 16 23  1  0
 16  9  1  0
 17 16  2  0
 19 18  1  0
 19 20  2  0
 22 21  1  1
 21 19  1  0
 22 24  1  0
 22 23  1  0
 24 25  1  0
 26 24  2  0
M  END
$$$$
