VHN.pdb
     RDKit          3D

 26 26  0  0  1  0  0  0  0  0999 V2000
   27.0590  -11.7389  -15.1578 C   0  0  0  0  0  0  0  0  0  0  0  0
   25.8674  -10.8207  -15.3810 C   0  0  1  0  0  0  0  0  0  0  0  0
   26.2307   -9.7104  -16.3350 C   0  0  0  0  0  0  0  0  0  0  0  0
   24.6598  -11.5634  -15.8503 C   0  0  2  0  0  0  0  0  0  0  0  0
   24.9936  -12.3186  -17.0221 N   0  0  0  0  0  0  0  0  0  0  0  0
   23.4918  -10.6756  -16.0828 C   0  0  0  0  0  0  0  0  0  0  0  0
   23.3541  -10.1105  -17.1961 O   0  0  0  0  0  0  0  0  0  0  0  0
   22.5315  -10.4618  -15.0560 N   0  0  0  0  0  0  0  0  0  0  0  0
   21.3776   -9.6193  -15.1449 C   0  0  1  0  0  0  0  0  0  0  0  0
   20.1334  -10.2186  -14.5839 C   0  0  0  0  0  0  0  0  0  0  0  0
   19.5599  -11.2729  -15.4465 C   0  0  0  0  0  0  0  0  0  0  0  0
   20.0671  -11.7102  -16.6314 C   0  0  0  0  0  0  0  0  0  0  0  0
   19.2445  -12.6691  -17.0828 N   0  0  0  0  0  0  0  0  0  0  0  0
   18.2302  -12.8576  -16.2255 C   0  0  0  0  0  0  0  0  0  0  0  0
   18.4277  -11.9936  -15.2154 N   0  0  0  0  0  0  0  0  0  0  0  0
   21.6224   -8.2169  -14.6614 C   0  0  0  0  0  0  0  0  0  0  0  0
   22.5637   -8.0406  -13.8526 O   0  0  0  0  0  0  0  0  0  0  0  0
   22.0118   -3.1308  -14.3817 N   0  0  0  0  0  0  0  0  0  0  0  0
   22.9104   -4.0266  -15.0692 C   0  0  0  0  0  0  0  0  0  0  0  0
   23.9869   -3.4813  -15.4331 O   0  0  0  0  0  0  0  0  0  0  0  0
   22.5602   -5.4270  -15.2985 C   0  0  0  0  0  0  0  0  0  0  0  0
   21.2264   -5.7793  -14.7380 C   0  0  2  0  0  0  0  0  0  0  0  0
   20.8259   -7.1348  -15.0984 N   0  0  0  0  0  0  0  0  0  0  0  0
   20.1853   -4.8257  -15.1312 C   0  0  0  0  0  0  0  0  0  0  0  0
   19.6745   -3.8067  -14.3809 O   0  0  0  0  0  0  0  0  0  0  0  0
   19.6930   -4.9535  -16.3063 O   0  0  0  0  0  0  0  0  0  0  0  0
  2  1  1  6
  2  3  1  0
  4  2  1  0
  4  5  1  6
  6  4  1  0
  7  6  2  0
  8  6  1  0
  9  8  1  0
  9 10  1  1
 10 11  1  0
 11 12  2  0
 12 13  1  0
 14 13  1  0
 15 11  1  0
 15 14  2  0
 16 23  1  0
 16  9  1  0
 17 16  2  0
 19 18  1  0
 19 20  2  0
 22 21  1  6
 21 19  1  0
 22 24  1  0
 22 23  1  0
 24 25  1  0
 26 24  2  0
M  END
$$$$
