VHN.pdb
     RDKit          3D

 26 26  0  0  1  0  0  0  0  0999 V2000
   22.7296  -11.6184  -20.9262 C   0  0  0  0  0  0  0  0  0  0  0  0
   21.7201  -10.9497  -20.0061 C   0  0  1  0  0  0  0  0  0  0  0  0
   20.4698  -10.5910  -20.7696 C   0  0  0  0  0  0  0  0  0  0  0  0
   21.4023  -11.7860  -18.8104 C   0  0  2  0  0  0  0  0  0  0  0  0
   20.7852  -13.0075  -19.2368 N   0  0  0  0  0  0  0  0  0  0  0  0
   20.5696  -11.0691  -17.8109 C   0  0  0  0  0  0  0  0  0  0  0  0
   19.4085  -11.4788  -17.5626 O   0  0  0  0  0  0  0  0  0  0  0  0
   21.0769   -9.9251  -17.1355 N   0  0  0  0  0  0  0  0  0  0  0  0
   20.4574   -9.2554  -16.0323 C   0  0  1  0  0  0  0  0  0  0  0  0
   19.9365  -10.1662  -14.9735 C   0  0  0  0  0  0  0  0  0  0  0  0
   19.2756   -9.4456  -13.8651 C   0  0  0  0  0  0  0  0  0  0  0  0
   19.1745   -8.0953  -13.7276 C   0  0  0  0  0  0  0  0  0  0  0  0
   18.5039   -7.8637  -12.5889 N   0  0  0  0  0  0  0  0  0  0  0  0
   18.1742   -9.0210  -11.9961 C   0  0  0  0  0  0  0  0  0  0  0  0
   18.6524   -9.9967  -12.7870 N   0  0  0  0  0  0  0  0  0  0  0  0
   21.2806   -8.1250  -15.4802 C   0  0  0  0  0  0  0  0  0  0  0  0
   22.4326   -8.3969  -15.0676 O   0  0  0  0  0  0  0  0  0  0  0  0
   22.7175   -2.4193  -16.7368 N   0  0  0  0  0  0  0  0  0  0  0  0
   22.6225   -3.5743  -15.8770 C   0  0  0  0  0  0  0  0  0  0  0  0
   23.3922   -3.5268  -14.8802 O   0  0  0  0  0  0  0  0  0  0  0  0
   21.7044   -4.6716  -16.1762 C   0  0  0  0  0  0  0  0  0  0  0  0
   21.7036   -5.7180  -15.1167 C   0  0  2  0  0  0  0  0  0  0  0  0
   20.7809   -6.8045  -15.4261 N   0  0  0  0  0  0  0  0  0  0  0  0
   21.4087   -5.1699  -13.7899 C   0  0  0  0  0  0  0  0  0  0  0  0
   22.3031   -4.8730  -12.8029 O   0  0  0  0  0  0  0  0  0  0  0  0
   20.1793   -4.9405  -13.5153 O   0  0  0  0  0  0  0  0  0  0  0  0
  2  1  1  6
  2  3  1  0
  4  2  1  0
  4  5  1  6
  6  4  1  0
  7  6  2  0
  8  6  1  0
  9  8  1  0
  9 10  1  1
 10 11  1  0
 11 12  2  0
 12 13  1  0
 14 13  1  0
 15 11  1  0
 15 14  2  0
 16 23  1  0
 16  9  1  0
 17 16  2  0
 19 18  1  0
 19 20  2  0
 22 21  1  6
 21 19  1  0
 22 24  1  0
 22 23  1  0
 24 25  1  0
 26 24  2  0
M  END
$$$$
