VHN.pdb
     RDKit          3D

 26 26  0  0  1  0  0  0  0  0999 V2000
   13.3374  -10.2584  -11.0594 C   0  0  0  0  0  0  0  0  0  0  0  0
   14.2476  -11.4571  -11.2769 C   0  0  1  0  0  0  0  0  0  0  0  0
   13.5009  -12.5638  -11.9788 C   0  0  0  0  0  0  0  0  0  0  0  0
   15.4953  -11.0950  -12.0133 C   0  0  2  0  0  0  0  0  0  0  0  0
   16.2953  -12.2702  -12.1968 N   0  0  0  0  0  0  0  0  0  0  0  0
   16.2600  -10.0074  -11.3510 C   0  0  0  0  0  0  0  0  0  0  0  0
   16.8682  -10.2417  -10.2772 O   0  0  0  0  0  0  0  0  0  0  0  0
   16.3076   -8.7063  -11.9229 N   0  0  0  0  0  0  0  0  0  0  0  0
   16.9326   -7.5553  -11.3452 C   0  0  1  0  0  0  0  0  0  0  0  0
   17.8987   -6.8630  -12.2450 C   0  0  0  0  0  0  0  0  0  0  0  0
   19.0766   -7.6922  -12.5758 C   0  0  0  0  0  0  0  0  0  0  0  0
   20.1071   -7.9991  -11.7413 C   0  0  0  0  0  0  0  0  0  0  0  0
   20.9604   -8.7680  -12.4345 N   0  0  0  0  0  0  0  0  0  0  0  0
   20.5085   -8.9615  -13.6825 C   0  0  0  0  0  0  0  0  0  0  0  0
   19.3443   -8.2956  -13.7670 N   0  0  0  0  0  0  0  0  0  0  0  0
   15.9614   -6.6122  -10.6913 C   0  0  0  0  0  0  0  0  0  0  0  0
   15.0414   -6.1449  -11.4030 O   0  0  0  0  0  0  0  0  0  0  0  0
   12.9183   -4.7481   -6.1660 N   0  0  0  0  0  0  0  0  0  0  0  0
   14.2077   -4.3685   -6.6912 C   0  0  0  0  0  0  0  0  0  0  0  0
   14.4500   -3.1356   -6.5932 O   0  0  0  0  0  0  0  0  0  0  0  0
   15.1131   -5.3576   -7.2728 C   0  0  0  0  0  0  0  0  0  0  0  0
   15.1133   -5.3232   -8.7615 C   0  0  2  0  0  0  0  0  0  0  0  0
   16.0754   -6.2624   -9.3271 N   0  0  0  0  0  0  0  0  0  0  0  0
   15.3538   -3.9775   -9.2895 C   0  0  0  0  0  0  0  0  0  0  0  0
   14.4166   -3.0521   -9.6469 O   0  0  0  0  0  0  0  0  0  0  0  0
   16.5745   -3.6196   -9.4363 O   0  0  0  0  0  0  0  0  0  0  0  0
  2  1  1  6
  2  3  1  0
  4  2  1  0
  4  5  1  1
  6  4  1  0
  7  6  2  0
  8  6  1  0
  9  8  1  0
  9 10  1  6
 10 11  1  0
 11 12  2  0
 12 13  1  0
 14 13  1  0
 15 11  1  0
 15 14  2  0
 16 23  1  0
 16  9  1  0
 17 16  2  0
 19 18  1  0
 19 20  2  0
 22 21  1  1
 21 19  1  0
 22 24  1  0
 22 23  1  0
 24 25  1  0
 26 24  2  0
M  END
$$$$
