VHN.pdb
     RDKit          3D

 26 26  0  0  1  0  0  0  0  0999 V2000
   33.9606   -7.7255  -18.5114 C   0  0  0  0  0  0  0  0  0  0  0  0
   32.6962   -8.4910  -18.8693 C   0  0  1  0  0  0  0  0  0  0  0  0
   32.7986   -9.9221  -18.4040 C   0  0  0  0  0  0  0  0  0  0  0  0
   31.4660   -7.8352  -18.3340 C   0  0  2  0  0  0  0  0  0  0  0  0
   31.6129   -7.6325  -16.9226 N   0  0  0  0  0  0  0  0  0  0  0  0
   30.2260   -8.5872  -18.6552 C   0  0  0  0  0  0  0  0  0  0  0  0
   29.8333   -8.6561  -19.8463 O   0  0  0  0  0  0  0  0  0  0  0  0
   29.4827   -9.2276  -17.6258 N   0  0  0  0  0  0  0  0  0  0  0  0
   28.2383   -9.9159  -17.7899 C   0  0  1  0  0  0  0  0  0  0  0  0
   28.0195  -11.0304  -16.8244 C   0  0  0  0  0  0  0  0  0  0  0  0
   26.7974  -11.8110  -17.1100 C   0  0  0  0  0  0  0  0  0  0  0  0
   25.9107  -11.5817  -18.1168 C   0  0  0  0  0  0  0  0  0  0  0  0
   24.9517  -12.5148  -18.0180 N   0  0  0  0  0  0  0  0  0  0  0  0
   25.1974  -13.3309  -16.9822 C   0  0  0  0  0  0  0  0  0  0  0  0
   26.3385  -12.8937  -16.4230 N   0  0  0  0  0  0  0  0  0  0  0  0
   27.0552   -8.9948  -17.8996 C   0  0  0  0  0  0  0  0  0  0  0  0
   26.8594   -8.1909  -16.9579 O   0  0  0  0  0  0  0  0  0  0  0  0
   23.0773   -6.1695  -19.3644 N   0  0  0  0  0  0  0  0  0  0  0  0
   24.2078   -6.1049  -20.2589 C   0  0  0  0  0  0  0  0  0  0  0  0
   24.1593   -5.1376  -21.0654 O   0  0  0  0  0  0  0  0  0  0  0  0
   25.2838   -7.0922  -20.1970 C   0  0  0  0  0  0  0  0  0  0  0  0
   25.0971   -8.0688  -19.0885 C   0  0  2  0  0  0  0  0  0  0  0  0
   26.1934   -9.0284  -19.0189 N   0  0  0  0  0  0  0  0  0  0  0  0
   23.8156   -8.7743  -19.1750 C   0  0  0  0  0  0  0  0  0  0  0  0
   23.6214  -10.1199  -19.2937 O   0  0  0  0  0  0  0  0  0  0  0  0
   22.7540   -8.0594  -19.1364 O   0  0  0  0  0  0  0  0  0  0  0  0
  2  1  1  1
  2  3  1  0
  4  2  1  0
  4  5  1  1
  6  4  1  0
  7  6  2  0
  8  6  1  0
  9  8  1  0
  9 10  1  1
 10 11  1  0
 11 12  2  0
 12 13  1  0
 14 13  1  0
 15 11  1  0
 15 14  2  0
 16 23  1  0
 16  9  1  0
 17 16  2  0
 19 18  1  0
 19 20  2  0
 22 21  1  6
 21 19  1  0
 22 24  1  0
 22 23  1  0
 24 25  1  0
 26 24  2  0
M  END
$$$$
