QML.pdb
     RDKit          3D

 26 25  0  0  1  0  0  0  0  0999 V2000
   11.1525  -16.3114   17.1352 N   0  0  0  0  0  0  0  0  0  0  0  0
    9.7253  -16.1381   16.9470 C   0  0  0  0  0  0  0  0  0  0  0  0
    9.3624  -15.7764   15.8183 O   0  0  0  0  0  0  0  0  0  0  0  0
    8.8528  -16.3934   18.0774 C   0  0  0  0  0  0  0  0  0  0  0  0
    9.5284  -16.9720   19.2802 C   0  0  0  0  0  0  0  0  0  0  0  0
    8.5888  -17.2147   20.3937 C   0  0  2  0  0  0  0  0  0  0  0  0
    7.2099  -17.0311   20.0900 N   0  0  0  0  0  0  0  0  0  0  0  0
    9.0421  -16.4048   21.5835 C   0  0  0  0  0  0  0  0  0  0  0  0
   10.2795  -16.3861   21.8729 O   0  0  0  0  0  0  0  0  0  0  0  0
    6.7629  -11.5130   27.3811 C   0  0  0  0  0  0  0  0  0  0  0  0
    6.2639  -12.3373   25.8421 S   0  0  0  0  0  0  0  0  0  0  0  0
    7.5537  -13.5528   25.4383 C   0  0  0  0  0  0  0  0  0  0  0  0
    7.2586  -14.1618   24.0980 C   0  0  0  0  0  0  0  0  0  0  0  0
    8.3067  -15.2010   23.7108 C   0  0  2  0  0  0  0  0  0  0  0  0
    8.1616  -15.6699   22.3886 N   0  0  0  0  0  0  0  0  0  0  0  0
    8.5871  -16.1803   24.7500 C   0  0  0  0  0  0  0  0  0  0  0  0
    7.9242  -17.2445   24.8242 O   0  0  0  0  0  0  0  0  0  0  0  0
   12.4379  -19.7315   24.8438 C   0  0  0  0  0  0  0  0  0  0  0  0
   11.5429  -19.1945   25.9745 C   0  0  2  0  0  0  0  0  0  0  0  0
   10.5944  -20.2991   26.3232 C   0  0  0  0  0  0  0  0  0  0  0  0
   10.8838  -17.9714   25.4299 C   0  0  0  0  0  0  0  0  0  0  0  0
   10.2485  -17.0801   26.4341 C   0  0  2  0  0  0  0  0  0  0  0  0
    9.6214  -15.9810   25.7284 N   0  0  0  0  0  0  0  0  0  0  0  0
   11.1163  -16.6237   27.5126 C   0  0  0  0  0  0  0  0  0  0  0  0
   11.1992  -17.1711   28.7660 O   0  0  0  0  0  0  0  0  0  0  0  0
   11.8669  -15.6277   27.2756 O   0  0  0  0  0  0  0  0  0  0  0  0
  2  1  1  0
  3  2  2  0
  4  2  1  0
  5  4  1  0
  6  5  1  0
  6  7  1  6
  8  6  1  0
  8  9  2  0
 11 12  1  0
 11 10  1  0
 12 13  1  0
 14 13  1  1
 14 15  1  0
 15  8  1  0
 16 14  1  0
 17 16  2  0
 19 18  1  6
 20 19  1  0
 21 19  1  0
 22 21  1  6
 22 23  1  0
 23 16  1  0
 24 22  1  0
 25 24  1  0
 26 24  2  0
M  END
$$$$
