QML.pdb
     RDKit          3D

 26 25  0  0  1  0  0  0  0  0999 V2000
   13.8787  -18.0623   20.3290 N   0  0  0  0  0  0  0  0  0  0  0  0
   12.8702  -18.4604   19.3661 C   0  0  0  0  0  0  0  0  0  0  0  0
   13.2687  -19.1294   18.4018 O   0  0  0  0  0  0  0  0  0  0  0  0
   11.5004  -18.0461   19.6033 C   0  0  0  0  0  0  0  0  0  0  0  0
   11.2981  -17.1934   20.8157 C   0  0  0  0  0  0  0  0  0  0  0  0
    9.9272  -16.6502   20.9019 C   0  0  2  0  0  0  0  0  0  0  0  0
    9.5259  -15.8115   19.8235 N   0  0  0  0  0  0  0  0  0  0  0  0
    9.7592  -15.9951   22.2508 C   0  0  0  0  0  0  0  0  0  0  0  0
   10.5225  -15.0263   22.5576 O   0  0  0  0  0  0  0  0  0  0  0  0
    6.3277  -11.8028   25.3408 C   0  0  0  0  0  0  0  0  0  0  0  0
    7.0230  -13.3987   25.8574 S   0  0  0  0  0  0  0  0  0  0  0  0
    6.5644  -14.6215   24.5931 C   0  0  0  0  0  0  0  0  0  0  0  0
    7.1599  -15.9524   24.9519 C   0  0  0  0  0  0  0  0  0  0  0  0
    8.6257  -16.0413   24.5373 C   0  0  2  0  0  0  0  0  0  0  0  0
    8.7993  -16.4049   23.1857 N   0  0  0  0  0  0  0  0  0  0  0  0
    9.4869  -16.6738   25.5250 C   0  0  0  0  0  0  0  0  0  0  0  0
   10.0672  -17.7580   25.2697 O   0  0  0  0  0  0  0  0  0  0  0  0
   11.6882  -13.9609   27.7392 C   0  0  0  0  0  0  0  0  0  0  0  0
   10.5080  -14.3474   28.6479 C   0  0  2  0  0  0  0  0  0  0  0  0
   10.5785  -13.4435   29.8392 C   0  0  0  0  0  0  0  0  0  0  0  0
   10.6919  -15.7939   28.9658 C   0  0  0  0  0  0  0  0  0  0  0  0
   10.5535  -16.7285   27.8197 C   0  0  2  0  0  0  0  0  0  0  0  0
    9.7129  -16.0975   26.8225 N   0  0  0  0  0  0  0  0  0  0  0  0
   10.1041  -18.0745   28.1528 C   0  0  0  0  0  0  0  0  0  0  0  0
   10.8558  -19.0485   28.7558 O   0  0  0  0  0  0  0  0  0  0  0  0
    8.9069  -18.3790   27.8599 O   0  0  0  0  0  0  0  0  0  0  0  0
  2  1  1  0
  3  2  2  0
  4  2  1  0
  5  4  1  0
  6  5  1  0
  6  7  1  6
  8  6  1  0
  8  9  2  0
 11 12  1  0
 11 10  1  0
 12 13  1  0
 14 13  1  1
 14 15  1  0
 15  8  1  0
 16 14  1  0
 17 16  2  0
 19 18  1  6
 20 19  1  0
 21 19  1  0
 22 21  1  1
 22 23  1  0
 23 16  1  0
 24 22  1  0
 25 24  1  0
 26 24  2  0
M  END
$$$$
