QML.pdb
     RDKit          3D

 26 25  0  0  1  0  0  0  0  0999 V2000
   14.9652  -16.8553   18.0826 N   0  0  0  0  0  0  0  0  0  0  0  0
   14.2901  -18.0476   17.6082 C   0  0  0  0  0  0  0  0  0  0  0  0
   14.9427  -18.7815   16.8519 O   0  0  0  0  0  0  0  0  0  0  0  0
   12.9265  -18.2785   18.0461 C   0  0  0  0  0  0  0  0  0  0  0  0
   12.3840  -17.2551   18.9927 C   0  0  0  0  0  0  0  0  0  0  0  0
   11.5934  -17.8585   20.0847 C   0  0  2  0  0  0  0  0  0  0  0  0
   10.4811  -18.6492   19.6784 N   0  0  0  0  0  0  0  0  0  0  0  0
   11.2161  -16.7682   21.0574 C   0  0  0  0  0  0  0  0  0  0  0  0
   12.1385  -16.1909   21.7141 O   0  0  0  0  0  0  0  0  0  0  0  0
    5.9793  -12.8654   20.7251 C   0  0  0  0  0  0  0  0  0  0  0  0
    7.0854  -13.3240   19.3599 S   0  0  0  0  0  0  0  0  0  0  0  0
    8.5457  -14.1205   20.0930 C   0  0  0  0  0  0  0  0  0  0  0  0
    8.2110  -14.5884   21.4800 C   0  0  0  0  0  0  0  0  0  0  0  0
    9.3724  -15.3515   22.1102 C   0  0  2  0  0  0  0  0  0  0  0  0
    9.8932  -16.3602   21.2733 N   0  0  0  0  0  0  0  0  0  0  0  0
    9.1825  -15.6697   23.5173 C   0  0  0  0  0  0  0  0  0  0  0  0
    9.6647  -16.7205   24.0080 O   0  0  0  0  0  0  0  0  0  0  0  0
    8.7854  -12.1052   26.7822 C   0  0  0  0  0  0  0  0  0  0  0  0
    7.6828  -12.6812   25.8763 C   0  0  2  0  0  0  0  0  0  0  0  0
    6.5243  -11.7377   25.9689 C   0  0  0  0  0  0  0  0  0  0  0  0
    7.3992  -14.0511   26.3961 C   0  0  0  0  0  0  0  0  0  0  0  0
    8.1945  -15.1486   25.7886 C   0  0  2  0  0  0  0  0  0  0  0  0
    8.4445  -14.8100   24.4022 N   0  0  0  0  0  0  0  0  0  0  0  0
    7.6418  -16.4887   25.9413 C   0  0  0  0  0  0  0  0  0  0  0  0
    7.1948  -17.2958   24.9282 O   0  0  0  0  0  0  0  0  0  0  0  0
    7.5644  -16.9572   27.1186 O   0  0  0  0  0  0  0  0  0  0  0  0
  2  1  1  0
  3  2  2  0
  4  2  1  0
  5  4  1  0
  6  5  1  0
  6  7  1  6
  8  6  1  0
  8  9  2  0
 11 12  1  0
 11 10  1  0
 12 13  1  0
 14 13  1  6
 14 15  1  0
 15  8  1  0
 16 14  1  0
 17 16  2  0
 19 18  1  1
 20 19  1  0
 21 19  1  0
 22 21  1  6
 22 23  1  0
 23 16  1  0
 24 22  1  0
 25 24  1  0
 26 24  2  0
M  END
$$$$
