QML.pdb
     RDKit          3D

 26 25  0  0  1  0  0  0  0  0999 V2000
    6.2607  -20.6429   20.1178 N   0  0  0  0  0  0  0  0  0  0  0  0
    7.3684  -20.7066   21.0513 C   0  0  0  0  0  0  0  0  0  0  0  0
    7.0998  -21.1105   22.1920 O   0  0  0  0  0  0  0  0  0  0  0  0
    8.6783  -20.2948   20.5836 C   0  0  0  0  0  0  0  0  0  0  0  0
    9.3309  -19.2204   21.3947 C   0  0  0  0  0  0  0  0  0  0  0  0
    9.1386  -17.8770   20.8118 C   0  0  2  0  0  0  0  0  0  0  0  0
    9.8110  -17.6357   19.5802 N   0  0  0  0  0  0  0  0  0  0  0  0
    9.4603  -16.8493   21.8690 C   0  0  0  0  0  0  0  0  0  0  0  0
   10.6437  -16.3904   21.9332 O   0  0  0  0  0  0  0  0  0  0  0  0
    6.5514  -11.5692   26.9530 C   0  0  0  0  0  0  0  0  0  0  0  0
    6.2257  -12.6446   25.5266 S   0  0  0  0  0  0  0  0  0  0  0  0
    7.6463  -13.7664   25.3612 C   0  0  0  0  0  0  0  0  0  0  0  0
    7.4625  -14.6223   24.1413 C   0  0  0  0  0  0  0  0  0  0  0  0
    8.6686  -15.5261   23.9030 C   0  0  2  0  0  0  0  0  0  0  0  0
    8.5143  -16.3751   22.7875 N   0  0  0  0  0  0  0  0  0  0  0  0
    9.2341  -16.0972   25.1160 C   0  0  0  0  0  0  0  0  0  0  0  0
    8.6490  -17.0310   25.7185 O   0  0  0  0  0  0  0  0  0  0  0  0
   10.1216  -13.9820   29.7359 C   0  0  0  0  0  0  0  0  0  0  0  0
   10.8731  -14.3105   28.4339 C   0  0  2  0  0  0  0  0  0  0  0  0
   10.4893  -13.2529   27.4464 C   0  0  0  0  0  0  0  0  0  0  0  0
   10.4471  -15.6885   28.0511 C   0  0  0  0  0  0  0  0  0  0  0  0
   11.0879  -16.2464   26.8327 C   0  0  2  0  0  0  0  0  0  0  0  0
   10.4721  -15.6279   25.6762 N   0  0  0  0  0  0  0  0  0  0  0  0
   11.1082  -17.7008   26.7391 C   0  0  0  0  0  0  0  0  0  0  0  0
   10.0195  -18.5110   26.5494 O   0  0  0  0  0  0  0  0  0  0  0  0
   12.2351  -18.2764   26.8420 O   0  0  0  0  0  0  0  0  0  0  0  0
  2  1  1  0
  3  2  2  0
  4  2  1  0
  5  4  1  0
  6  5  1  0
  6  7  1  6
  8  6  1  0
  8  9  2  0
 11 12  1  0
 11 10  1  0
 12 13  1  0
 14 13  1  1
 14 15  1  0
 15  8  1  0
 16 14  1  0
 17 16  2  0
 19 18  1  1
 20 19  1  0
 21 19  1  0
 22 21  1  1
 22 23  1  0
 23 16  1  0
 24 22  1  0
 25 24  1  0
 26 24  2  0
M  END
$$$$
