QML.pdb
     RDKit          3D

 26 25  0  0  1  0  0  0  0  0999 V2000
   12.3808  -19.3782   19.1164 N   0  0  0  0  0  0  0  0  0  0  0  0
   11.1270  -19.2972   18.3926 C   0  0  0  0  0  0  0  0  0  0  0  0
   10.9992  -20.0698   17.4317 O   0  0  0  0  0  0  0  0  0  0  0  0
   10.1421  -18.3313   18.8414 C   0  0  0  0  0  0  0  0  0  0  0  0
   10.5231  -17.5617   20.0663 C   0  0  0  0  0  0  0  0  0  0  0  0
    9.3586  -17.2399   20.9161 C   0  0  2  0  0  0  0  0  0  0  0  0
    8.2006  -16.7780   20.2284 N   0  0  0  0  0  0  0  0  0  0  0  0
    9.8105  -16.2985   22.0055 C   0  0  0  0  0  0  0  0  0  0  0  0
   11.0275  -15.9328   22.0294 O   0  0  0  0  0  0  0  0  0  0  0  0
    6.2006  -12.5208   26.2262 C   0  0  0  0  0  0  0  0  0  0  0  0
    5.7082  -12.9867   24.5416 S   0  0  0  0  0  0  0  0  0  0  0  0
    7.1583  -13.7388   23.7443 C   0  0  0  0  0  0  0  0  0  0  0  0
    7.9936  -14.4283   24.7842 C   0  0  0  0  0  0  0  0  0  0  0  0
    9.2309  -15.0770   24.1704 C   0  0  2  0  0  0  0  0  0  0  0  0
    8.9506  -15.8066   22.9964 N   0  0  0  0  0  0  0  0  0  0  0  0
   10.1330  -15.6769   25.1418 C   0  0  0  0  0  0  0  0  0  0  0  0
   11.3214  -15.2833   25.2420 O   0  0  0  0  0  0  0  0  0  0  0  0
   11.4196  -14.6175   29.0630 C   0  0  0  0  0  0  0  0  0  0  0  0
   10.0910  -14.5950   28.2869 C   0  0  2  0  0  0  0  0  0  0  0  0
    9.1969  -13.6349   29.0078 C   0  0  0  0  0  0  0  0  0  0  0  0
    9.5969  -16.0032   28.2791 C   0  0  0  0  0  0  0  0  0  0  0  0
   10.2869  -16.9234   27.3392 C   0  0  2  0  0  0  0  0  0  0  0  0
    9.7147  -16.7341   26.0216 N   0  0  0  0  0  0  0  0  0  0  0  0
   10.3158  -18.3259   27.7352 C   0  0  0  0  0  0  0  0  0  0  0  0
    9.7654  -19.3706   27.0401 O   0  0  0  0  0  0  0  0  0  0  0  0
   10.9035  -18.6128   28.8233 O   0  0  0  0  0  0  0  0  0  0  0  0
  2  1  1  0
  3  2  2  0
  4  2  1  0
  5  4  1  0
  6  5  1  0
  6  7  1  6
  8  6  1  0
  8  9  2  0
 11 12  1  0
 11 10  1  0
 12 13  1  0
 14 13  1  1
 14 15  1  0
 15  8  1  0
 16 14  1  0
 17 16  2  0
 19 18  1  1
 20 19  1  0
 21 19  1  0
 22 21  1  1
 22 23  1  0
 23 16  1  0
 24 22  1  0
 25 24  1  0
 26 24  2  0
M  END
$$$$
