QML.pdb
     RDKit          3D

 26 25  0  0  1  0  0  0  0  0999 V2000
   11.5477  -16.9017   16.5292 N   0  0  0  0  0  0  0  0  0  0  0  0
   10.7904  -17.8367   17.3384 C   0  0  0  0  0  0  0  0  0  0  0  0
   11.1173  -19.0289   17.2469 O   0  0  0  0  0  0  0  0  0  0  0  0
    9.7262  -17.3104   18.1719 C   0  0  0  0  0  0  0  0  0  0  0  0
   10.1784  -16.6691   19.4456 C   0  0  0  0  0  0  0  0  0  0  0  0
    9.7094  -17.3971   20.6421 C   0  0  2  0  0  0  0  0  0  0  0  0
    8.4167  -17.9852   20.5404 N   0  0  0  0  0  0  0  0  0  0  0  0
    9.8495  -16.4871   21.8377 C   0  0  0  0  0  0  0  0  0  0  0  0
   10.9617  -15.9042   22.0335 O   0  0  0  0  0  0  0  0  0  0  0  0
    6.2879  -11.6994   26.8817 C   0  0  0  0  0  0  0  0  0  0  0  0
    6.0936  -12.8056   25.4549 S   0  0  0  0  0  0  0  0  0  0  0  0
    7.5989  -13.8190   25.3490 C   0  0  0  0  0  0  0  0  0  0  0  0
    7.5138  -14.7081   24.1421 C   0  0  0  0  0  0  0  0  0  0  0  0
    8.7937  -15.5162   23.9491 C   0  0  2  0  0  0  0  0  0  0  0  0
    8.8090  -16.2531   22.7466 N   0  0  0  0  0  0  0  0  0  0  0  0
    9.2683  -16.1777   25.1551 C   0  0  0  0  0  0  0  0  0  0  0  0
    8.7051  -17.2164   25.5809 O   0  0  0  0  0  0  0  0  0  0  0  0
   11.6314  -13.8480   28.0760 C   0  0  0  0  0  0  0  0  0  0  0  0
   10.2217  -14.3912   28.3686 C   0  0  2  0  0  0  0  0  0  0  0  0
    9.8486  -13.8873   29.7280 C   0  0  0  0  0  0  0  0  0  0  0  0
   10.3271  -15.8768   28.2746 C   0  0  0  0  0  0  0  0  0  0  0  0
   10.9507  -16.4016   27.0328 C   0  0  2  0  0  0  0  0  0  0  0  0
   10.3887  -15.6824   25.9076 N   0  0  0  0  0  0  0  0  0  0  0  0
   10.8860  -17.8470   26.8555 C   0  0  0  0  0  0  0  0  0  0  0  0
   10.2143  -18.5071   25.8602 O   0  0  0  0  0  0  0  0  0  0  0  0
   11.5071  -18.5664   27.6972 O   0  0  0  0  0  0  0  0  0  0  0  0
  2  1  1  0
  3  2  2  0
  4  2  1  0
  5  4  1  0
  6  5  1  0
  6  7  1  6
  8  6  1  0
  8  9  2  0
 11 12  1  0
 11 10  1  0
 12 13  1  0
 14 13  1  1
 14 15  1  0
 15  8  1  0
 16 14  1  0
 17 16  2  0
 19 18  1  1
 20 19  1  0
 21 19  1  0
 22 21  1  1
 22 23  1  0
 23 16  1  0
 24 22  1  0
 25 24  1  0
 26 24  2  0
M  END
$$$$
