AKG.pdb
     RDKit          3D

 19 18  0  0  1  0  0  0  0  0999 V2000
   26.8565  -10.4120  -14.6886 C   0  0  0  0  0  0  0  0  0  0  0  0
   25.9430  -11.0080  -15.7367 C   0  0  2  0  0  0  0  0  0  0  0  0
   26.7337  -11.3115  -16.8904 N   0  0  0  0  0  0  0  0  0  0  0  0
   24.9276   -9.9716  -16.1078 C   0  0  0  0  0  0  0  0  0  0  0  0
   25.2615   -9.0513  -16.9318 O   0  0  0  0  0  0  0  0  0  0  0  0
   23.6186  -10.0214  -15.5467 N   0  0  0  0  0  0  0  0  0  0  0  0
   22.5879   -9.0753  -15.8250 C   0  0  1  0  0  0  0  0  0  0  0  0
   21.3216   -9.6826  -16.2895 C   0  0  0  0  0  0  0  0  0  0  0  0
   20.2252   -8.7715  -16.6844 C   0  0  0  0  0  0  0  0  0  0  0  0
   19.0142   -9.5461  -17.1440 C   0  0  0  0  0  0  0  0  0  0  0  0
   17.9049   -8.6802  -17.6339 C   0  0  0  0  0  0  0  0  0  0  0  0
   16.7254   -9.4433  -18.0103 N   0  0  0  0  0  0  0  0  0  0  0  0
   22.4544   -7.9915  -14.8209 C   0  0  0  0  0  0  0  0  0  0  0  0
   22.4515   -8.3186  -13.6088 O   0  0  0  0  0  0  0  0  0  0  0  0
   22.3271   -6.6248  -15.1406 N   0  0  0  0  0  0  0  0  0  0  0  0
   22.1576   -5.5913  -14.1229 C   0  0  0  0  0  0  0  0  0  0  0  0
   22.1091   -4.2450  -14.7106 C   0  0  0  0  0  0  0  0  0  0  0  0
   21.9595   -3.0866  -13.9641 O   0  0  0  0  0  0  0  0  0  0  0  0
   22.2074   -4.1216  -15.9576 O   0  0  0  0  0  0  0  0  0  0  0  0
  2  3  1  0
  2  1  1  1
  4  5  2  0
  4  2  1  0
  6  4  1  0
  7  6  1  0
  7 13  1  0
  7  8  1  1
  9  8  1  0
 10  9  1  0
 11 10  1  0
 12 11  1  0
 13 15  1  0
 13 14  2  0
 15 16  1  0
 16 17  1  0
 17 18  1  0
 19 17  2  0
M  END
$$$$
