AKG.pdb
     RDKit          3D

 19 18  0  0  1  0  0  0  0  0999 V2000
   16.4469  -12.2044  -14.7979 C   0  0  0  0  0  0  0  0  0  0  0  0
   16.5329  -10.7955  -15.3417 C   0  0  2  0  0  0  0  0  0  0  0  0
   16.2491  -10.8452  -16.7436 N   0  0  0  0  0  0  0  0  0  0  0  0
   17.9375  -10.3118  -15.1517 C   0  0  0  0  0  0  0  0  0  0  0  0
   18.4087  -10.2434  -13.9641 O   0  0  0  0  0  0  0  0  0  0  0  0
   18.7229   -9.9383  -16.2807 N   0  0  0  0  0  0  0  0  0  0  0  0
   20.0980   -9.5646  -16.2154 C   0  0  1  0  0  0  0  0  0  0  0  0
   20.9386  -10.1723  -17.2701 C   0  0  0  0  0  0  0  0  0  0  0  0
   21.1740  -11.6312  -17.2075 C   0  0  0  0  0  0  0  0  0  0  0  0
   22.0996  -12.0801  -18.3118 C   0  0  0  0  0  0  0  0  0  0  0  0
   22.3050  -13.5553  -18.3531 C   0  0  0  0  0  0  0  0  0  0  0  0
   23.1555  -13.9700  -19.4577 N   0  0  0  0  0  0  0  0  0  0  0  0
   20.3366   -8.1249  -15.9488 C   0  0  0  0  0  0  0  0  0  0  0  0
   19.9168   -7.2990  -16.7961 O   0  0  0  0  0  0  0  0  0  0  0  0
   21.0054   -7.6286  -14.8118 N   0  0  0  0  0  0  0  0  0  0  0  0
   21.2845   -6.2079  -14.6209 C   0  0  0  0  0  0  0  0  0  0  0  0
   21.9967   -5.9530  -13.3608 C   0  0  0  0  0  0  0  0  0  0  0  0
   22.4926   -4.7106  -12.9972 O   0  0  0  0  0  0  0  0  0  0  0  0
   22.1734   -6.9043  -12.5586 O   0  0  0  0  0  0  0  0  0  0  0  0
  2  3  1  0
  2  1  1  6
  4  5  2  0
  4  2  1  0
  6  4  1  0
  7  6  1  0
  7 13  1  0
  7  8  1  6
  9  8  1  0
 10  9  1  0
 11 10  1  0
 12 11  1  0
 13 15  1  0
 13 14  2  0
 15 16  1  0
 16 17  1  0
 17 18  1  0
 19 17  2  0
M  END
$$$$
