AKG.pdb
     RDKit          3D

 19 18  0  0  1  0  0  0  0  0999 V2000
   24.8020  -12.7416  -17.7341 C   0  0  0  0  0  0  0  0  0  0  0  0
   24.9492  -11.4667  -16.9333 C   0  0  2  0  0  0  0  0  0  0  0  0
   24.4791  -11.7225  -15.6059 N   0  0  0  0  0  0  0  0  0  0  0  0
   24.0765  -10.4237  -17.5606 C   0  0  0  0  0  0  0  0  0  0  0  0
   24.3540  -10.0197  -18.7425 O   0  0  0  0  0  0  0  0  0  0  0  0
   22.9618   -9.9000  -16.8436 N   0  0  0  0  0  0  0  0  0  0  0  0
   22.0585   -8.9252  -17.3618 C   0  0  1  0  0  0  0  0  0  0  0  0
   20.6516   -9.3784  -17.4213 C   0  0  0  0  0  0  0  0  0  0  0  0
   20.3033  -10.6360  -16.7250 C   0  0  0  0  0  0  0  0  0  0  0  0
   19.0115  -10.4925  -15.9579 C   0  0  0  0  0  0  0  0  0  0  0  0
   18.5863  -11.7437  -15.2694 C   0  0  0  0  0  0  0  0  0  0  0  0
   17.3619  -11.5711  -14.5036 N   0  0  0  0  0  0  0  0  0  0  0  0
   22.2728   -7.5489  -16.8514 C   0  0  0  0  0  0  0  0  0  0  0  0
   21.6115   -6.6224  -17.3812 O   0  0  0  0  0  0  0  0  0  0  0  0
   23.1707   -7.2170  -15.8171 N   0  0  0  0  0  0  0  0  0  0  0  0
   23.3251   -5.8537  -15.3166 C   0  0  0  0  0  0  0  0  0  0  0  0
   22.3732   -5.5540  -14.2377 C   0  0  0  0  0  0  0  0  0  0  0  0
   22.3931   -4.3802  -13.5005 O   0  0  0  0  0  0  0  0  0  0  0  0
   21.4864   -6.3992  -13.9565 O   0  0  0  0  0  0  0  0  0  0  0  0
  2  3  1  0
  2  1  1  6
  4  5  2  0
  4  2  1  0
  6  4  1  0
  7  6  1  0
  7 13  1  0
  7  8  1  1
  9  8  1  0
 10  9  1  0
 11 10  1  0
 12 11  1  0
 13 15  1  0
 13 14  2  0
 15 16  1  0
 16 17  1  0
 17 18  1  0
 19 17  2  0
M  END
$$$$
