AKG.pdb
     RDKit          3D

 19 18  0  0  1  0  0  0  0  0999 V2000
   25.2452  -21.6296  -13.9781 C   0  0  0  0  0  0  0  0  0  0  0  0
   23.8874  -22.2964  -13.9767 C   0  0  2  0  0  0  0  0  0  0  0  0
   23.9713  -23.4703  -14.7910 N   0  0  0  0  0  0  0  0  0  0  0  0
   22.9070  -21.3493  -14.5969 C   0  0  0  0  0  0  0  0  0  0  0  0
   22.9720  -21.1347  -15.8566 O   0  0  0  0  0  0  0  0  0  0  0  0
   21.9257  -20.7063  -13.7877 N   0  0  0  0  0  0  0  0  0  0  0  0
   20.9109  -19.8394  -14.2910 C   0  0  1  0  0  0  0  0  0  0  0  0
   19.5427  -20.1976  -13.8577 C   0  0  0  0  0  0  0  0  0  0  0  0
   18.9998  -21.5009  -14.2988 C   0  0  0  0  0  0  0  0  0  0  0  0
   18.5599  -22.3335  -13.1194 C   0  0  0  0  0  0  0  0  0  0  0  0
   18.1351  -23.7127  -13.4902 C   0  0  0  0  0  0  0  0  0  0  0  0
   17.8340  -24.5353  -12.3291 N   0  0  0  0  0  0  0  0  0  0  0  0
   21.2478  -18.3956  -14.2390 C   0  0  0  0  0  0  0  0  0  0  0  0
   21.4140  -17.8775  -13.1076 O   0  0  0  0  0  0  0  0  0  0  0  0
   21.3881  -17.5721  -15.3741 N   0  0  0  0  0  0  0  0  0  0  0  0
   21.6424  -16.1372  -15.2785 C   0  0  0  0  0  0  0  0  0  0  0  0
   20.3954  -15.3612  -15.2238 C   0  0  0  0  0  0  0  0  0  0  0  0
   19.1337  -15.9353  -15.2175 O   0  0  0  0  0  0  0  0  0  0  0  0
   20.4609  -14.1067  -15.1801 O   0  0  0  0  0  0  0  0  0  0  0  0
  2  3  1  0
  2  1  1  6
  4  5  2  0
  4  2  1  0
  6  4  1  0
  7  6  1  0
  7 13  1  0
  7  8  1  1
  9  8  1  0
 10  9  1  0
 11 10  1  0
 12 11  1  0
 13 15  1  0
 13 14  2  0
 15 16  1  0
 16 17  1  0
 17 18  1  0
 19 17  2  0
M  END
$$$$
