AKG.pdb
     RDKit          3D

 19 18  0  0  1  0  0  0  0  0999 V2000
   15.6789  -11.7724  -15.0019 C   0  0  0  0  0  0  0  0  0  0  0  0
   16.3624  -10.5115  -15.4828 C   0  0  2  0  0  0  0  0  0  0  0  0
   16.1316  -10.3935  -16.8903 N   0  0  0  0  0  0  0  0  0  0  0  0
   17.8335  -10.6648  -15.2473 C   0  0  0  0  0  0  0  0  0  0  0  0
   18.2484  -10.8513  -14.0513 O   0  0  0  0  0  0  0  0  0  0  0  0
   18.7424  -10.6021  -16.3432 N   0  0  0  0  0  0  0  0  0  0  0  0
   20.1460  -10.8337  -16.2380 C   0  0  1  0  0  0  0  0  0  0  0  0
   20.6930  -11.7118  -17.2952 C   0  0  0  0  0  0  0  0  0  0  0  0
   20.8085  -13.1564  -16.9989 C   0  0  0  0  0  0  0  0  0  0  0  0
   19.9291  -13.9711  -17.9158 C   0  0  0  0  0  0  0  0  0  0  0  0
   20.0552  -15.4414  -17.7096 C   0  0  0  0  0  0  0  0  0  0  0  0
   19.2333  -16.2072  -18.6333 N   0  0  0  0  0  0  0  0  0  0  0  0
   20.9503   -9.6287  -15.9188 C   0  0  0  0  0  0  0  0  0  0  0  0
   22.1890   -9.7768  -15.7777 O   0  0  0  0  0  0  0  0  0  0  0  0
   20.4134   -8.3353  -15.7605 N   0  0  0  0  0  0  0  0  0  0  0  0
   21.2381   -7.1763  -15.4300 C   0  0  0  0  0  0  0  0  0  0  0  0
   21.1792   -6.8511  -13.9979 C   0  0  0  0  0  0  0  0  0  0  0  0
   21.8265   -5.7646  -13.4302 O   0  0  0  0  0  0  0  0  0  0  0  0
   20.5089   -7.5900  -13.2333 O   0  0  0  0  0  0  0  0  0  0  0  0
  2  3  1  0
  2  1  1  6
  4  5  2  0
  4  2  1  0
  6  4  1  0
  7  6  1  0
  7 13  1  0
  7  8  1  6
  9  8  1  0
 10  9  1  0
 11 10  1  0
 12 11  1  0
 13 15  1  0
 13 14  2  0
 15 16  1  0
 16 17  1  0
 17 18  1  0
 19 17  2  0
M  END
$$$$
