TMK.pdb
     RDKit          3D

 25 24  0  0  1  0  0  0  0  0999 V2000
   26.9647  -17.8997  -14.6403 C   0  0  0  0  0  0  0  0  0  0  0  0
   27.4745  -19.0074  -15.5477 C   0  0  1  0  0  0  0  0  0  0  0  0
   28.3695  -18.5872  -16.4886 O   0  0  0  0  0  0  0  0  0  0  0  0
   28.0434  -20.1503  -14.7750 C   0  0  2  0  0  0  0  0  0  0  0  0
   28.5308  -21.1314  -15.7067 N   0  0  0  0  0  0  0  0  0  0  0  0
   27.0701  -20.8176  -13.8500 C   0  0  0  0  0  0  0  0  0  0  0  0
   26.3130  -21.7193  -14.2695 O   0  0  0  0  0  0  0  0  0  0  0  0
   28.1788  -20.3697   -7.7322 C   0  0  0  0  0  0  0  0  0  0  0  0
   26.4056  -20.0875   -7.5298 S   0  0  0  0  0  0  0  0  0  0  0  0
   25.5799  -20.7916   -9.0235 C   0  0  0  0  0  0  0  0  0  0  0  0
   26.4539  -20.4662  -10.1842 C   0  0  0  0  0  0  0  0  0  0  0  0
   25.9830  -20.8820  -11.5348 C   0  0  2  0  0  0  0  0  0  0  0  0
   26.9849  -20.4516  -12.4923 N   0  0  0  0  0  0  0  0  0  0  0  0
   24.6492  -20.4121  -11.8668 C   0  0  0  0  0  0  0  0  0  0  0  0
   24.4442  -19.2670  -12.2975 O   0  0  0  0  0  0  0  0  0  0  0  0
   23.4471  -21.1905  -11.7293 N   0  0  0  0  0  0  0  0  0  0  0  0
   22.3386  -20.9564  -12.6222 C   0  0  1  0  0  0  0  0  0  0  0  0
   22.3878  -21.7560  -13.8789 C   0  0  0  0  0  0  0  0  0  0  0  0
   21.4374  -21.2662  -14.9410 C   0  0  0  0  0  0  0  0  0  0  0  0
   22.0548  -20.1680  -15.7528 C   0  0  0  0  0  0  0  0  0  0  0  0
   21.0968  -19.6001  -16.7739 C   0  0  0  0  0  0  0  0  0  0  0  0
   21.6758  -18.4677  -17.4426 N   0  0  0  0  0  0  0  0  0  0  0  0
   21.0331  -21.1283  -11.9082 C   0  0  0  0  0  0  0  0  0  0  0  0
   19.9409  -20.6954  -12.2911 O   0  0  0  0  0  0  0  0  0  0  0  0
   21.0543  -21.8337  -10.7185 O   0  0  0  0  0  0  0  0  0  0  0  0
  2  1  1  1
  3  2  1  0
  4  2  1  0
  4  6  1  0
  4  5  1  6
  6  7  2  0
  8  9  1  0
  9 10  1  0
 11 10  1  0
 12 11  1  1
 13  6  1  0
 13 12  1  0
 14 12  1  0
 14 15  2  0
 16 14  1  0
 17 16  1  0
 17 23  1  0
 17 18  1  6
 19 20  1  0
 19 18  1  0
 20 21  1  0
 21 22  1  0
 23 25  1  0
 24 23  2  0
M  END
$$$$
