TMK.pdb
     RDKit          3D

 25 24  0  0  1  0  0  0  0  0999 V2000
   27.1119  -17.8289  -14.2514 C   0  0  0  0  0  0  0  0  0  0  0  0
   27.5989  -18.8589  -15.2574 C   0  0  1  0  0  0  0  0  0  0  0  0
   28.5406  -18.3861  -16.1250 O   0  0  0  0  0  0  0  0  0  0  0  0
   28.0916  -20.1023  -14.5955 C   0  0  2  0  0  0  0  0  0  0  0  0
   28.6164  -20.9789  -15.6077 N   0  0  0  0  0  0  0  0  0  0  0  0
   27.0464  -20.8463  -13.8197 C   0  0  0  0  0  0  0  0  0  0  0  0
   26.3164  -21.6885  -14.3856 O   0  0  0  0  0  0  0  0  0  0  0  0
   26.9640  -19.3388   -7.7942 C   0  0  0  0  0  0  0  0  0  0  0  0
   25.9107  -20.7820   -7.5247 S   0  0  0  0  0  0  0  0  0  0  0  0
   25.1384  -21.1894   -9.1514 C   0  0  0  0  0  0  0  0  0  0  0  0
   26.1362  -20.8301  -10.1965 C   0  0  0  0  0  0  0  0  0  0  0  0
   25.7812  -21.1235  -11.6131 C   0  0  2  0  0  0  0  0  0  0  0  0
   26.8616  -20.6208  -12.4414 N   0  0  0  0  0  0  0  0  0  0  0  0
   24.4812  -20.6149  -12.0146 C   0  0  0  0  0  0  0  0  0  0  0  0
   24.2739  -19.4041  -12.1871 O   0  0  0  0  0  0  0  0  0  0  0  0
   23.3163  -21.4282  -12.2416 N   0  0  0  0  0  0  0  0  0  0  0  0
   22.1067  -20.8200  -12.7397 C   0  0  1  0  0  0  0  0  0  0  0  0
   21.6615  -21.3413  -14.0629 C   0  0  0  0  0  0  0  0  0  0  0  0
   20.3644  -20.7410  -14.5404 C   0  0  0  0  0  0  0  0  0  0  0  0
   19.9638  -21.3080  -15.8687 C   0  0  0  0  0  0  0  0  0  0  0  0
   18.6984  -20.6793  -16.4038 C   0  0  0  0  0  0  0  0  0  0  0  0
   18.3878  -21.1899  -17.7105 N   0  0  0  0  0  0  0  0  0  0  0  0
   21.0128  -20.8953  -11.7192 C   0  0  0  0  0  0  0  0  0  0  0  0
   20.9942  -21.6463  -10.7381 O   0  0  0  0  0  0  0  0  0  0  0  0
   19.9317  -20.0497  -11.8916 O   0  0  0  0  0  0  0  0  0  0  0  0
  2  1  1  1
  3  2  1  0
  4  2  1  0
  4  6  1  0
  4  5  1  6
  6  7  2  0
  8  9  1  0
  9 10  1  0
 11 10  1  0
 12 11  1  1
 13  6  1  0
 13 12  1  0
 14 12  1  0
 14 15  2  0
 16 14  1  0
 17 16  1  0
 17 23  1  0
 17 18  1  6
 19 20  1  0
 19 18  1  0
 20 21  1  0
 21 22  1  0
 23 25  1  0
 24 23  2  0
M  END
$$$$
