TMK.pdb
     RDKit          3D

 25 24  0  0  1  0  0  0  0  0999 V2000
   21.4805  -10.5641  -21.0562 C   0  0  0  0  0  0  0  0  0  0  0  0
   21.9406  -11.9905  -21.3094 C   0  0  1  0  0  0  0  0  0  0  0  0
   22.0633  -12.3083  -22.6311 O   0  0  0  0  0  0  0  0  0  0  0  0
   23.2066  -12.3097  -20.5869 C   0  0  2  0  0  0  0  0  0  0  0  0
   23.5862  -13.6590  -20.9088 N   0  0  0  0  0  0  0  0  0  0  0  0
   23.1162  -12.1858  -19.0954 C   0  0  0  0  0  0  0  0  0  0  0  0
   22.7090  -13.1437  -18.4033 O   0  0  0  0  0  0  0  0  0  0  0  0
   27.4650  -11.3526  -15.0298 C   0  0  0  0  0  0  0  0  0  0  0  0
   26.6873   -9.7390  -14.7929 S   0  0  0  0  0  0  0  0  0  0  0  0
   24.8817   -9.9668  -15.1039 C   0  0  0  0  0  0  0  0  0  0  0  0
   24.7439  -10.3611  -16.5330 C   0  0  0  0  0  0  0  0  0  0  0  0
   23.3809  -10.7160  -17.0180 C   0  0  2  0  0  0  0  0  0  0  0  0
   23.4879  -10.9967  -18.4377 N   0  0  0  0  0  0  0  0  0  0  0  0
   22.3677   -9.7199  -16.7163 C   0  0  0  0  0  0  0  0  0  0  0  0
   22.0395   -9.4484  -15.5512 O   0  0  0  0  0  0  0  0  0  0  0  0
   21.6417   -8.9633  -17.7014 N   0  0  0  0  0  0  0  0  0  0  0  0
   20.5819   -8.0783  -17.2837 C   0  0  1  0  0  0  0  0  0  0  0  0
   19.2820   -8.7608  -17.0279 C   0  0  0  0  0  0  0  0  0  0  0  0
   18.1612   -7.8123  -16.6886 C   0  0  0  0  0  0  0  0  0  0  0  0
   16.8552   -8.5387  -16.5746 C   0  0  0  0  0  0  0  0  0  0  0  0
   15.6892   -7.5975  -16.3815 C   0  0  0  0  0  0  0  0  0  0  0  0
   14.8778   -8.0113  -15.2700 N   0  0  0  0  0  0  0  0  0  0  0  0
   21.0106   -7.2485  -16.1127 C   0  0  0  0  0  0  0  0  0  0  0  0
   21.7359   -7.6294  -15.1877 O   0  0  0  0  0  0  0  0  0  0  0  0
   20.5548   -5.9432  -16.0655 O   0  0  0  0  0  0  0  0  0  0  0  0
  2  1  1  6
  3  2  1  0
  4  2  1  0
  4  6  1  0
  4  5  1  1
  6  7  2  0
  8  9  1  0
  9 10  1  0
 11 10  1  0
 12 11  1  6
 13  6  1  0
 13 12  1  0
 14 12  1  0
 14 15  2  0
 16 14  1  0
 17 16  1  0
 17 23  1  0
 17 18  1  1
 19 20  1  0
 19 18  1  0
 20 21  1  0
 21 22  1  0
 23 25  1  0
 24 23  2  0
M  END
$$$$
