TMK.pdb
     RDKit          3D

 25 24  0  0  1  0  0  0  0  0999 V2000
   26.6229  -17.6223  -14.7527 C   0  0  0  0  0  0  0  0  0  0  0  0
   27.4884  -18.5515  -15.5879 C   0  0  1  0  0  0  0  0  0  0  0  0
   28.3780  -17.9050  -16.3964 O   0  0  0  0  0  0  0  0  0  0  0  0
   28.1989  -19.5621  -14.7508 C   0  0  2  0  0  0  0  0  0  0  0  0
   29.0130  -20.3756  -15.6132 N   0  0  0  0  0  0  0  0  0  0  0  0
   27.2929  -20.4629  -13.9660 C   0  0  0  0  0  0  0  0  0  0  0  0
   26.8062  -21.4869  -14.4921 O   0  0  0  0  0  0  0  0  0  0  0  0
   27.6924  -20.8704   -7.6426 C   0  0  0  0  0  0  0  0  0  0  0  0
   25.9532  -20.3868   -7.7213 S   0  0  0  0  0  0  0  0  0  0  0  0
   25.3097  -20.9745   -9.3490 C   0  0  0  0  0  0  0  0  0  0  0  0
   26.2616  -20.4841  -10.3835 C   0  0  0  0  0  0  0  0  0  0  0  0
   26.0050  -20.8830  -11.7956 C   0  0  2  0  0  0  0  0  0  0  0  0
   26.9702  -20.1838  -12.6234 N   0  0  0  0  0  0  0  0  0  0  0  0
   24.6348  -20.6731  -12.2298 C   0  0  0  0  0  0  0  0  0  0  0  0
   24.1739  -19.5381  -12.4248 O   0  0  0  0  0  0  0  0  0  0  0  0
   23.6792  -21.7222  -12.4665 N   0  0  0  0  0  0  0  0  0  0  0  0
   22.3453  -21.3882  -12.9026 C   0  0  1  0  0  0  0  0  0  0  0  0
   21.6454  -22.4888  -13.6236 C   0  0  0  0  0  0  0  0  0  0  0  0
   20.2211  -22.1582  -13.9888 C   0  0  0  0  0  0  0  0  0  0  0  0
   19.5805  -23.2864  -14.7391 C   0  0  0  0  0  0  0  0  0  0  0  0
   18.1318  -23.0093  -15.0667 C   0  0  0  0  0  0  0  0  0  0  0  0
   17.5619  -24.0935  -15.8179 N   0  0  0  0  0  0  0  0  0  0  0  0
   21.5266  -20.8658  -11.7622 C   0  0  0  0  0  0  0  0  0  0  0  0
   21.7143  -21.1172  -10.5671 O   0  0  0  0  0  0  0  0  0  0  0  0
   20.4707  -20.0293  -12.0766 O   0  0  0  0  0  0  0  0  0  0  0  0
  2  1  1  1
  3  2  1  0
  4  2  1  0
  4  6  1  0
  4  5  1  6
  6  7  2  0
  8  9  1  0
  9 10  1  0
 11 10  1  0
 12 11  1  1
 13  6  1  0
 13 12  1  0
 14 12  1  0
 14 15  2  0
 16 14  1  0
 17 16  1  0
 17 23  1  0
 17 18  1  1
 19 20  1  0
 19 18  1  0
 20 21  1  0
 21 22  1  0
 23 25  1  0
 24 23  2  0
M  END
$$$$
