TMK.pdb
     RDKit          3D

 25 24  0  0  1  0  0  0  0  0999 V2000
   26.5959  -17.3181  -14.7222 C   0  0  0  0  0  0  0  0  0  0  0  0
   27.2266  -18.2053  -15.7830 C   0  0  1  0  0  0  0  0  0  0  0  0
   28.0956  -17.5523  -16.6085 O   0  0  0  0  0  0  0  0  0  0  0  0
   27.8868  -19.4060  -15.1921 C   0  0  2  0  0  0  0  0  0  0  0  0
   28.5148  -20.1477  -16.2523 N   0  0  0  0  0  0  0  0  0  0  0  0
   26.9574  -20.3247  -14.4571 C   0  0  0  0  0  0  0  0  0  0  0  0
   26.3277  -21.2131  -15.0707 O   0  0  0  0  0  0  0  0  0  0  0  0
   26.3003  -19.2444   -8.0392 C   0  0  0  0  0  0  0  0  0  0  0  0
   26.2024  -21.0447   -8.1581 S   0  0  0  0  0  0  0  0  0  0  0  0
   25.4105  -21.4294   -9.7809 C   0  0  0  0  0  0  0  0  0  0  0  0
   26.2696  -20.8123  -10.8289 C   0  0  0  0  0  0  0  0  0  0  0  0
   25.8426  -20.9718  -12.2470 C   0  0  2  0  0  0  0  0  0  0  0  0
   26.7719  -20.2147  -13.0649 N   0  0  0  0  0  0  0  0  0  0  0  0
   24.4565  -20.6125  -12.4913 C   0  0  0  0  0  0  0  0  0  0  0  0
   24.0717  -19.4333  -12.4810 O   0  0  0  0  0  0  0  0  0  0  0  0
   23.3994  -21.5522  -12.7546 N   0  0  0  0  0  0  0  0  0  0  0  0
   22.0888  -21.0700  -13.1164 C   0  0  1  0  0  0  0  0  0  0  0  0
   21.3472  -21.9618  -14.0522 C   0  0  0  0  0  0  0  0  0  0  0  0
   19.9776  -21.4479  -14.4144 C   0  0  0  0  0  0  0  0  0  0  0  0
   19.2658  -22.4032  -15.3239 C   0  0  0  0  0  0  0  0  0  0  0  0
   18.6960  -23.5883  -14.5799 C   0  0  0  0  0  0  0  0  0  0  0  0
   18.0092  -24.4736  -15.4795 N   0  0  0  0  0  0  0  0  0  0  0  0
   21.2805  -20.7552  -11.8953 C   0  0  0  0  0  0  0  0  0  0  0  0
   21.3552  -21.3438  -10.8114 O   0  0  0  0  0  0  0  0  0  0  0  0
   20.3738  -19.7149  -11.9914 O   0  0  0  0  0  0  0  0  0  0  0  0
  2  1  1  1
  3  2  1  0
  4  2  1  0
  4  6  1  0
  4  5  1  6
  6  7  2  0
  8  9  1  0
  9 10  1  0
 11 10  1  0
 12 11  1  1
 13  6  1  0
 13 12  1  0
 14 12  1  0
 14 15  2  0
 16 14  1  0
 17 16  1  0
 17 23  1  0
 17 18  1  1
 19 20  1  0
 19 18  1  0
 20 21  1  0
 21 22  1  0
 23 25  1  0
 24 23  2  0
M  END
$$$$
