TMK.pdb
     RDKit          3D

 25 24  0  0  1  0  0  0  0  0999 V2000
   28.7744  -18.1805  -15.5969 C   0  0  0  0  0  0  0  0  0  0  0  0
   27.6845  -18.8850  -14.8059 C   0  0  1  0  0  0  0  0  0  0  0  0
   26.4567  -18.8525  -15.4012 O   0  0  0  0  0  0  0  0  0  0  0  0
   28.0530  -20.2915  -14.4701 C   0  0  2  0  0  0  0  0  0  0  0  0
   28.2059  -21.0268  -15.6967 N   0  0  0  0  0  0  0  0  0  0  0  0
   27.0526  -21.0053  -13.6112 C   0  0  0  0  0  0  0  0  0  0  0  0
   26.2556  -21.8260  -14.1149 O   0  0  0  0  0  0  0  0  0  0  0  0
   27.7007  -19.6989   -7.7515 C   0  0  0  0  0  0  0  0  0  0  0  0
   26.1069  -20.4226   -7.3031 S   0  0  0  0  0  0  0  0  0  0  0  0
   25.2735  -20.8956   -8.8812 C   0  0  0  0  0  0  0  0  0  0  0  0
   26.2709  -20.6865   -9.9668 C   0  0  0  0  0  0  0  0  0  0  0  0
   25.8307  -20.9576  -11.3638 C   0  0  2  0  0  0  0  0  0  0  0  0
   26.9857  -20.7748  -12.2230 N   0  0  0  0  0  0  0  0  0  0  0  0
   24.6852  -20.1706  -11.7863 C   0  0  0  0  0  0  0  0  0  0  0  0
   24.8114  -19.1305  -12.4505 O   0  0  0  0  0  0  0  0  0  0  0  0
   23.3149  -20.4886  -11.4847 N   0  0  0  0  0  0  0  0  0  0  0  0
   22.2901  -20.2362  -12.4681 C   0  0  1  0  0  0  0  0  0  0  0  0
   22.5910  -20.7889  -13.8190 C   0  0  0  0  0  0  0  0  0  0  0  0
   21.5245  -20.4920  -14.8416 C   0  0  0  0  0  0  0  0  0  0  0  0
   21.8623  -21.1045  -16.1671 C   0  0  0  0  0  0  0  0  0  0  0  0
   20.8262  -20.7968  -17.2229 C   0  0  0  0  0  0  0  0  0  0  0  0
   21.1773  -21.4067  -18.4757 N   0  0  0  0  0  0  0  0  0  0  0  0
   20.9513  -20.6886  -11.9713 C   0  0  0  0  0  0  0  0  0  0  0  0
   20.7136  -21.7737  -11.4302 O   0  0  0  0  0  0  0  0  0  0  0  0
   19.8916  -19.8141  -12.1322 O   0  0  0  0  0  0  0  0  0  0  0  0
  2  1  1  6
  3  2  1  0
  4  2  1  0
  4  6  1  0
  4  5  1  6
  6  7  2  0
  8  9  1  0
  9 10  1  0
 11 10  1  0
 12 11  1  1
 13  6  1  0
 13 12  1  0
 14 12  1  0
 14 15  2  0
 16 14  1  0
 17 16  1  0
 17 23  1  0
 17 18  1  6
 19 20  1  0
 19 18  1  0
 20 21  1  0
 21 22  1  0
 23 25  1  0
 24 23  2  0
M  END
$$$$
