TMK.pdb
     RDKit          3D

 25 24  0  0  1  0  0  0  0  0999 V2000
   26.4175  -17.6607  -14.7331 C   0  0  0  0  0  0  0  0  0  0  0  0
   27.2772  -18.6092  -15.5526 C   0  0  1  0  0  0  0  0  0  0  0  0
   28.2586  -17.9896  -16.2708 O   0  0  0  0  0  0  0  0  0  0  0  0
   27.8639  -19.6989  -14.7188 C   0  0  2  0  0  0  0  0  0  0  0  0
   28.6392  -20.5578  -15.5730 N   0  0  0  0  0  0  0  0  0  0  0  0
   26.8531  -20.5373  -13.9954 C   0  0  0  0  0  0  0  0  0  0  0  0
   26.3733  -21.5577  -14.5346 O   0  0  0  0  0  0  0  0  0  0  0  0
   25.1526  -20.8747   -7.4087 C   0  0  0  0  0  0  0  0  0  0  0  0
   26.7381  -20.3269   -8.0803 S   0  0  0  0  0  0  0  0  0  0  0  0
   26.8237  -20.9467   -9.8174 C   0  0  0  0  0  0  0  0  0  0  0  0
   25.5861  -20.4750  -10.4975 C   0  0  0  0  0  0  0  0  0  0  0  0
   25.3930  -20.8697  -11.9208 C   0  0  2  0  0  0  0  0  0  0  0  0
   26.4219  -20.2024  -12.6967 N   0  0  0  0  0  0  0  0  0  0  0  0
   24.0550  -20.6193  -12.4278 C   0  0  0  0  0  0  0  0  0  0  0  0
   23.6667  -19.4787  -12.7224 O   0  0  0  0  0  0  0  0  0  0  0  0
   23.0519  -21.6305  -12.6309 N   0  0  0  0  0  0  0  0  0  0  0  0
   21.7777  -21.2680  -13.2018 C   0  0  1  0  0  0  0  0  0  0  0  0
   21.1949  -22.3038  -14.1009 C   0  0  0  0  0  0  0  0  0  0  0  0
   19.9325  -21.8580  -14.7930 C   0  0  0  0  0  0  0  0  0  0  0  0
   19.4104  -22.9270  -15.7045 C   0  0  0  0  0  0  0  0  0  0  0  0
   18.2525  -22.4475  -16.5484 C   0  0  0  0  0  0  0  0  0  0  0  0
   17.8194  -23.4767  -17.4528 N   0  0  0  0  0  0  0  0  0  0  0  0
   20.8122  -20.8569  -12.1330 C   0  0  0  0  0  0  0  0  0  0  0  0
   20.7858  -21.2973  -10.9788 O   0  0  0  0  0  0  0  0  0  0  0  0
   19.8705  -19.9009  -12.4691 O   0  0  0  0  0  0  0  0  0  0  0  0
  2  1  1  1
  3  2  1  0
  4  2  1  0
  4  6  1  0
  4  5  1  6
  6  7  2  0
  8  9  1  0
  9 10  1  0
 11 10  1  0
 12 11  1  1
 13  6  1  0
 13 12  1  0
 14 12  1  0
 14 15  2  0
 16 14  1  0
 17 16  1  0
 17 23  1  0
 17 18  1  1
 19 20  1  0
 19 18  1  0
 20 21  1  0
 21 22  1  0
 23 25  1  0
 24 23  2  0
M  END
$$$$
