TMK.pdb
     RDKit          3D

 25 24  0  0  1  0  0  0  0  0999 V2000
   17.1059  -13.3144  -16.7210 C   0  0  0  0  0  0  0  0  0  0  0  0
   18.0556  -12.7055  -15.7024 C   0  0  1  0  0  0  0  0  0  0  0  0
   19.3319  -13.1834  -15.7778 O   0  0  0  0  0  0  0  0  0  0  0  0
   18.0633  -11.2145  -15.7617 C   0  0  2  0  0  0  0  0  0  0  0  0
   18.4757  -10.8139  -17.0799 N   0  0  0  0  0  0  0  0  0  0  0  0
   18.9695  -10.5600  -14.7623 C   0  0  0  0  0  0  0  0  0  0  0  0
   18.8381  -10.7908  -13.5409 O   0  0  0  0  0  0  0  0  0  0  0  0
   24.8184   -9.0235  -16.1005 C   0  0  0  0  0  0  0  0  0  0  0  0
   24.5610  -10.6486  -15.3539 S   0  0  0  0  0  0  0  0  0  0  0  0
   22.8360  -10.6656  -14.6958 C   0  0  0  0  0  0  0  0  0  0  0  0
   22.3040   -9.2852  -14.8648 C   0  0  0  0  0  0  0  0  0  0  0  0
   20.9485   -9.0009  -14.3165 C   0  0  2  0  0  0  0  0  0  0  0  0
   19.9881   -9.6761  -15.1695 N   0  0  0  0  0  0  0  0  0  0  0  0
   20.6606   -7.5864  -14.1548 C   0  0  0  0  0  0  0  0  0  0  0  0
   20.1976   -6.9003  -15.0788 O   0  0  0  0  0  0  0  0  0  0  0  0
   20.8814   -6.8369  -12.9468 N   0  0  0  0  0  0  0  0  0  0  0  0
   20.5210   -5.4410  -12.8965 C   0  0  1  0  0  0  0  0  0  0  0  0
   19.7358   -5.0565  -11.6895 C   0  0  0  0  0  0  0  0  0  0  0  0
   18.3456   -5.6378  -11.6660 C   0  0  0  0  0  0  0  0  0  0  0  0
   17.6569   -5.3376  -10.3692 C   0  0  0  0  0  0  0  0  0  0  0  0
   16.2570   -5.9034  -10.3176 C   0  0  0  0  0  0  0  0  0  0  0  0
   15.6815   -5.7239   -9.0132 N   0  0  0  0  0  0  0  0  0  0  0  0
   21.7285   -4.5719  -13.0706 C   0  0  0  0  0  0  0  0  0  0  0  0
   22.9020   -4.9583  -13.0525 O   0  0  0  0  0  0  0  0  0  0  0  0
   21.5083   -3.2208  -13.2697 O   0  0  0  0  0  0  0  0  0  0  0  0
  2  1  1  6
  3  2  1  0
  4  2  1  0
  4  6  1  0
  4  5  1  6
  6  7  2  0
  8  9  1  0
  9 10  1  0
 11 10  1  0
 12 11  1  6
 13  6  1  0
 13 12  1  0
 14 12  1  0
 14 15  2  0
 16 14  1  0
 17 16  1  0
 17 23  1  0
 17 18  1  1
 19 20  1  0
 19 18  1  0
 20 21  1  0
 21 22  1  0
 23 25  1  0
 24 23  2  0
M  END
$$$$
