TMK.pdb
     RDKit          3D

 25 24  0  0  1  0  0  0  0  0999 V2000
   28.7870  -18.3081  -15.8756 C   0  0  0  0  0  0  0  0  0  0  0  0
   27.5606  -19.0247  -15.3348 C   0  0  1  0  0  0  0  0  0  0  0  0
   26.6084  -19.2848  -16.2775 O   0  0  0  0  0  0  0  0  0  0  0  0
   27.9166  -20.2784  -14.6080 C   0  0  2  0  0  0  0  0  0  0  0  0
   28.5167  -21.1915  -15.5431 N   0  0  0  0  0  0  0  0  0  0  0  0
   26.7557  -20.9653  -13.9534 C   0  0  0  0  0  0  0  0  0  0  0  0
   26.1810  -21.9190  -14.5214 O   0  0  0  0  0  0  0  0  0  0  0  0
   24.5999  -20.8878   -7.4845 C   0  0  0  0  0  0  0  0  0  0  0  0
   26.3057  -20.6531   -8.0323 S   0  0  0  0  0  0  0  0  0  0  0  0
   26.4170  -21.3455   -9.7402 C   0  0  0  0  0  0  0  0  0  0  0  0
   25.3265  -20.7079  -10.5283 C   0  0  0  0  0  0  0  0  0  0  0  0
   25.1729  -21.1264  -11.9497 C   0  0  2  0  0  0  0  0  0  0  0  0
   26.2861  -20.5600  -12.6886 N   0  0  0  0  0  0  0  0  0  0  0  0
   23.8840  -20.7905  -12.5291 C   0  0  0  0  0  0  0  0  0  0  0  0
   23.4582  -19.6257  -12.5539 O   0  0  0  0  0  0  0  0  0  0  0  0
   22.9747  -21.7399  -13.1137 N   0  0  0  0  0  0  0  0  0  0  0  0
   21.7130  -21.2861  -13.6459 C   0  0  1  0  0  0  0  0  0  0  0  0
   21.3042  -21.9635  -14.9088 C   0  0  0  0  0  0  0  0  0  0  0  0
   22.3444  -21.8867  -15.9965 C   0  0  0  0  0  0  0  0  0  0  0  0
   21.8447  -22.5071  -17.2661 C   0  0  0  0  0  0  0  0  0  0  0  0
   22.9324  -23.2433  -18.0128 C   0  0  0  0  0  0  0  0  0  0  0  0
   22.4112  -23.8504  -19.2063 N   0  0  0  0  0  0  0  0  0  0  0  0
   20.6379  -21.3601  -12.6056 C   0  0  0  0  0  0  0  0  0  0  0  0
   20.7458  -21.8924  -11.4957 O   0  0  0  0  0  0  0  0  0  0  0  0
   19.4205  -20.7812  -12.9161 O   0  0  0  0  0  0  0  0  0  0  0  0
  2  1  1  6
  3  2  1  0
  4  2  1  0
  4  6  1  0
  4  5  1  6
  6  7  2  0
  8  9  1  0
  9 10  1  0
 11 10  1  0
 12 11  1  1
 13  6  1  0
 13 12  1  0
 14 12  1  0
 14 15  2  0
 16 14  1  0
 17 16  1  0
 17 23  1  0
 17 18  1  6
 19 20  1  0
 19 18  1  0
 20 21  1  0
 21 22  1  0
 23 25  1  0
 24 23  2  0
M  END
$$$$
