TRL.pdb
     RDKit          3D

 27 26  0  0  1  0  0  0  0  0999 V2000
    6.6233  -20.8286   27.7734 C   0  0  0  0  0  0  0  0  0  0  0  0
    7.1929  -19.7672   26.8717 C   0  0  1  0  0  0  0  0  0  0  0  0
    8.5489  -19.6209   27.1500 O   0  0  0  0  0  0  0  0  0  0  0  0
    7.0054  -20.1400   25.4051 C   0  0  2  0  0  0  0  0  0  0  0  0
    7.5755  -21.4493   25.1824 N   0  0  0  0  0  0  0  0  0  0  0  0
    7.6988  -19.1809   24.5129 C   0  0  0  0  0  0  0  0  0  0  0  0
    8.7881  -19.5294   24.0238 O   0  0  0  0  0  0  0  0  0  0  0  0
    6.8115  -13.5783   18.0178 N   0  0  0  0  0  0  0  0  0  0  0  0
    7.8503  -12.9818   18.8260 C   0  0  0  0  0  0  0  0  0  0  0  0
    8.5497  -12.0058   18.3549 N   0  0  0  0  0  0  0  0  0  0  0  0
    8.1281  -13.4454   20.1273 N   0  0  0  0  0  0  0  0  0  0  0  0
    7.2901  -14.4567   20.7253 C   0  0  0  0  0  0  0  0  0  0  0  0
    7.8252  -14.7635   22.0841 C   0  0  0  0  0  0  0  0  0  0  0  0
    7.1165  -15.8432   22.8284 C   0  0  0  0  0  0  0  0  0  0  0  0
    7.9221  -16.9243   23.4087 C   0  0  2  0  0  0  0  0  0  0  0  0
    7.2220  -17.9107   24.1776 N   0  0  0  0  0  0  0  0  0  0  0  0
    8.9592  -16.3642   24.3252 C   0  0  0  0  0  0  0  0  0  0  0  0
    9.7853  -15.4969   23.9331 O   0  0  0  0  0  0  0  0  0  0  0  0
    9.1986  -11.4817   18.9631 C   0  0  0  0  0  0  0  0  0  0  0  0
   10.6124  -13.3943   28.0735 C   0  0  2  0  0  0  0  0  0  0  0  0
   10.0878  -14.7220   28.7351 C   0  0  0  0  0  0  0  0  0  0  0  0
    9.2800  -14.2265   29.9001 C   0  0  0  0  0  0  0  0  0  0  0  0
    9.3714  -15.4183   27.6589 C   0  0  1  0  0  0  0  0  0  0  0  0
   10.0499  -16.1921   26.6198 N   0  0  0  0  0  0  0  0  0  0  0  0
    9.0700  -16.7765   25.6811 C   0  0  0  0  0  0  0  0  0  0  0  0
   10.9862  -17.1859   27.0938 O   0  0  0  0  0  0  0  0  0  0  0  0
   12.3460  -17.0880   27.1937 O   0  0  0  0  0  0  0  0  0  0  0  0
  2  1  1  1
  2  4  1  0
  3  2  1  0
  4  5  1  1
  6  7  2  0
  6  4  1  0
  8  9  1  0
  9 11  1  0
 10  9  2  0
 11 12  1  0
 12 13  1  0
 13 14  1  0
 15 14  1  1
 15 16  1  0
 16  6  1  0
 17 18  2  0
 17 15  1  0
 20 19  1  1
 20 22  1  0
 21 20  1  0
 23 22  1  6
 23 24  1  0
 24 17  1  0
 25 26  1  0
 25 23  1  0
 27 25  2  0
M  END
$$$$
