TRL.pdb
     RDKit          3D

 27 26  0  0  1  0  0  0  0  0999 V2000
    8.1037  -12.2101   19.2739 C   0  0  0  0  0  0  0  0  0  0  0  0
    8.3363  -13.1707   20.4085 C   0  0  1  0  0  0  0  0  0  0  0  0
    7.6625  -12.7077   21.5351 O   0  0  0  0  0  0  0  0  0  0  0  0
    7.8409  -14.5676   20.0500 C   0  0  2  0  0  0  0  0  0  0  0  0
    6.4725  -14.4723   19.5949 N   0  0  0  0  0  0  0  0  0  0  0  0
    7.8703  -15.4678   21.2271 C   0  0  0  0  0  0  0  0  0  0  0  0
    6.8068  -15.6432   21.8479 O   0  0  0  0  0  0  0  0  0  0  0  0
   13.2329  -19.1470   20.3206 N   0  0  0  0  0  0  0  0  0  0  0  0
   12.3214  -20.1748   19.8723 C   0  0  0  0  0  0  0  0  0  0  0  0
   12.4431  -20.6684   18.6869 N   0  0  0  0  0  0  0  0  0  0  0  0
   11.2876  -20.6545   20.7009 N   0  0  0  0  0  0  0  0  0  0  0  0
   11.1053  -20.0978   22.0198 C   0  0  0  0  0  0  0  0  0  0  0  0
   10.0181  -19.0781   21.9505 C   0  0  0  0  0  0  0  0  0  0  0  0
   10.1149  -17.9632   22.9352 C   0  0  0  0  0  0  0  0  0  0  0  0
    9.0869  -16.9162   22.8953 C   0  0  2  0  0  0  0  0  0  0  0  0
    9.0045  -16.1369   21.6953 N   0  0  0  0  0  0  0  0  0  0  0  0
    9.3049  -15.9327   23.9973 C   0  0  0  0  0  0  0  0  0  0  0  0
   10.1413  -14.9962   23.8883 O   0  0  0  0  0  0  0  0  0  0  0  0
   11.8719  -21.4763   18.3920 C   0  0  0  0  0  0  0  0  0  0  0  0
    6.5631  -12.0977   26.1581 C   0  0  1  0  0  0  0  0  0  0  0  0
    7.9096  -12.8213   25.7853 C   0  0  0  0  0  0  0  0  0  0  0  0
    8.9561  -11.8208   26.1838 C   0  0  0  0  0  0  0  0  0  0  0  0
    7.8681  -14.0909   26.5219 C   0  0  2  0  0  0  0  0  0  0  0  0
    8.8868  -15.1302   26.3776 N   0  0  0  0  0  0  0  0  0  0  0  0
    8.5853  -15.9993   25.2215 C   0  0  0  0  0  0  0  0  0  0  0  0
    9.1583  -15.9064   27.5663 O   0  0  0  0  0  0  0  0  0  0  0  0
    9.0330  -17.2562   27.7426 O   0  0  0  0  0  0  0  0  0  0  0  0
  2  1  1  6
  2  4  1  0
  3  2  1  0
  4  5  1  1
  6  7  2  0
  6  4  1  0
  8  9  1  0
  9 11  1  0
 10  9  2  0
 11 12  1  0
 12 13  1  0
 13 14  1  0
 15 14  1  6
 15 16  1  0
 16  6  1  0
 17 18  2  0
 17 15  1  0
 20 19  1  6
 20 22  1  0
 21 20  1  0
 23 22  1  6
 23 24  1  0
 24 17  1  0
 25 26  1  0
 25 23  1  0
 27 25  2  0
M  END
$$$$
