TRL.pdb
     RDKit          3D

 27 26  0  0  1  0  0  0  0  0999 V2000
    8.6819  -11.9996   18.6927 C   0  0  0  0  0  0  0  0  0  0  0  0
    8.7822  -12.9592   19.8474 C   0  0  1  0  0  0  0  0  0  0  0  0
    8.4903  -12.2774   21.0254 O   0  0  0  0  0  0  0  0  0  0  0  0
    7.8139  -14.1243   19.6733 C   0  0  2  0  0  0  0  0  0  0  0  0
    6.4723  -13.5996   19.5573 N   0  0  0  0  0  0  0  0  0  0  0  0
    7.8504  -15.0339   20.8428 C   0  0  0  0  0  0  0  0  0  0  0  0
    6.8757  -15.0219   21.6156 O   0  0  0  0  0  0  0  0  0  0  0  0
    8.7745  -22.3739   23.1153 N   0  0  0  0  0  0  0  0  0  0  0  0
    9.6147  -21.9957   24.2284 C   0  0  0  0  0  0  0  0  0  0  0  0
    9.4123  -22.5156   25.3914 N   0  0  0  0  0  0  0  0  0  0  0  0
   10.6573  -21.0597   24.0791 N   0  0  0  0  0  0  0  0  0  0  0  0
   10.7045  -20.2152   22.9099 C   0  0  0  0  0  0  0  0  0  0  0  0
    9.8387  -19.0253   23.1575 C   0  0  0  0  0  0  0  0  0  0  0  0
    9.8309  -17.9968   22.0786 C   0  0  0  0  0  0  0  0  0  0  0  0
    8.9224  -16.8530   22.2224 C   0  0  2  0  0  0  0  0  0  0  0  0
    8.8988  -15.9070   21.1458 N   0  0  0  0  0  0  0  0  0  0  0  0
    9.2704  -16.0639   23.4412 C   0  0  0  0  0  0  0  0  0  0  0  0
   10.3923  -15.5033   23.5646 O   0  0  0  0  0  0  0  0  0  0  0  0
    9.9708  -22.2159   26.2063 C   0  0  0  0  0  0  0  0  0  0  0  0
    5.7259  -12.8127   26.2707 C   0  0  2  0  0  0  0  0  0  0  0  0
    7.0160  -13.2341   25.4746 C   0  0  0  0  0  0  0  0  0  0  0  0
    7.8307  -11.9729   25.4530 C   0  0  0  0  0  0  0  0  0  0  0  0
    7.5566  -14.3793   26.2180 C   0  0  2  0  0  0  0  0  0  0  0  0
    8.7008  -15.1631   25.7539 N   0  0  0  0  0  0  0  0  0  0  0  0
    8.3604  -15.9035   24.5215 C   0  0  0  0  0  0  0  0  0  0  0  0
    9.3053  -16.0285   26.7411 O   0  0  0  0  0  0  0  0  0  0  0  0
    9.5171  -17.3770   26.6684 O   0  0  0  0  0  0  0  0  0  0  0  0
  2  1  1  6
  2  4  1  0
  3  2  1  0
  4  5  1  1
  6  7  2  0
  6  4  1  0
  8  9  1  0
  9 11  1  0
 10  9  2  0
 11 12  1  0
 12 13  1  0
 13 14  1  0
 15 14  1  6
 15 16  1  0
 16  6  1  0
 17 18  2  0
 17 15  1  0
 20 19  1  6
 20 22  1  0
 21 20  1  0
 23 22  1  6
 23 24  1  0
 24 17  1  0
 25 26  1  0
 25 23  1  0
 27 25  2  0
M  END
$$$$
