TRL.pdb
     RDKit          3D

 27 26  0  0  1  0  0  0  0  0999 V2000
    8.1473  -12.4956   20.0896 C   0  0  0  0  0  0  0  0  0  0  0  0
    8.7846  -13.6683   19.3948 C   0  0  1  0  0  0  0  0  0  0  0  0
    9.9448  -14.0200   20.0787 O   0  0  0  0  0  0  0  0  0  0  0  0
    7.8323  -14.8584   19.3499 C   0  0  2  0  0  0  0  0  0  0  0  0
    6.6761  -14.4982   18.5611 N   0  0  0  0  0  0  0  0  0  0  0  0
    7.3642  -15.2247   20.7076 C   0  0  0  0  0  0  0  0  0  0  0  0
    6.4733  -14.5246   21.2209 O   0  0  0  0  0  0  0  0  0  0  0  0
    8.9494  -20.5647   26.9044 N   0  0  0  0  0  0  0  0  0  0  0  0
    7.5170  -20.5601   27.0948 C   0  0  0  0  0  0  0  0  0  0  0  0
    7.0228  -20.8225   28.2570 N   0  0  0  0  0  0  0  0  0  0  0  0
    6.6341  -20.2796   26.0330 N   0  0  0  0  0  0  0  0  0  0  0  0
    7.1552  -20.0265   24.7113 C   0  0  0  0  0  0  0  0  0  0  0  0
    7.0742  -18.5596   24.4500 C   0  0  0  0  0  0  0  0  0  0  0  0
    7.5267  -18.1183   23.1000 C   0  0  0  0  0  0  0  0  0  0  0  0
    7.3823  -16.6993   22.7537 C   0  0  2  0  0  0  0  0  0  0  0  0
    7.8481  -16.2995   21.4585 N   0  0  0  0  0  0  0  0  0  0  0  0
    8.1287  -15.8489   23.7278 C   0  0  0  0  0  0  0  0  0  0  0  0
    9.3782  -15.7024   23.6519 O   0  0  0  0  0  0  0  0  0  0  0  0
    6.0009  -20.8706   28.3957 C   0  0  0  0  0  0  0  0  0  0  0  0
    5.5459  -11.8973   27.0011 C   0  0  2  0  0  0  0  0  0  0  0  0
    6.4765  -12.4651   25.8665 C   0  0  0  0  0  0  0  0  0  0  0  0
    7.1856  -11.2411   25.3626 C   0  0  0  0  0  0  0  0  0  0  0  0
    7.2867  -13.4954   26.5283 C   0  0  2  0  0  0  0  0  0  0  0  0
    8.2021  -14.3769   25.8045 N   0  0  0  0  0  0  0  0  0  0  0  0
    7.4742  -15.1627   24.7869 C   0  0  0  0  0  0  0  0  0  0  0  0
    9.0360  -15.2221   26.6287 O   0  0  0  0  0  0  0  0  0  0  0  0
   10.2047  -14.9002   27.2606 O   0  0  0  0  0  0  0  0  0  0  0  0
  2  1  1  1
  2  4  1  0
  3  2  1  0
  4  5  1  6
  6  7  2  0
  6  4  1  0
  8  9  1  0
  9 11  1  0
 10  9  2  0
 11 12  1  0
 12 13  1  0
 13 14  1  0
 15 14  1  1
 15 16  1  0
 16  6  1  0
 17 18  2  0
 17 15  1  0
 20 19  1  6
 20 22  1  0
 21 20  1  0
 23 22  1  6
 23 24  1  0
 24 17  1  0
 25 26  1  0
 25 23  1  0
 27 25  2  0
M  END
$$$$
