TRL.pdb
     RDKit          3D

 27 26  0  0  1  0  0  0  0  0999 V2000
   10.1362  -12.8333   17.9949 C   0  0  0  0  0  0  0  0  0  0  0  0
    9.7049  -13.5499   19.2458 C   0  0  1  0  0  0  0  0  0  0  0  0
    9.7202  -12.6500   20.3076 O   0  0  0  0  0  0  0  0  0  0  0  0
    8.3049  -14.1325   19.0847 C   0  0  2  0  0  0  0  0  0  0  0  0
    7.3770  -13.0512   18.8432 N   0  0  0  0  0  0  0  0  0  0  0  0
    7.8724  -14.8415   20.3122 C   0  0  0  0  0  0  0  0  0  0  0  0
    7.0257  -14.2849   21.0338 O   0  0  0  0  0  0  0  0  0  0  0  0
   11.3302  -20.0207   26.2041 N   0  0  0  0  0  0  0  0  0  0  0  0
   10.6943  -20.5083   25.0017 C   0  0  0  0  0  0  0  0  0  0  0  0
   11.4038  -21.0697   24.0824 N   0  0  0  0  0  0  0  0  0  0  0  0
    9.3055  -20.3810   24.7998 N   0  0  0  0  0  0  0  0  0  0  0  0
    8.7832  -20.2325   23.4628 C   0  0  0  0  0  0  0  0  0  0  0  0
    8.1849  -18.8707   23.3433 C   0  0  0  0  0  0  0  0  0  0  0  0
    8.4039  -18.1815   22.0398 C   0  0  0  0  0  0  0  0  0  0  0  0
    7.9467  -16.7930   21.9083 C   0  0  2  0  0  0  0  0  0  0  0  0
    8.3440  -16.0912   20.7234 N   0  0  0  0  0  0  0  0  0  0  0  0
    8.4500  -15.9707   23.0484 C   0  0  0  0  0  0  0  0  0  0  0  0
    9.6514  -15.5949   23.1094 O   0  0  0  0  0  0  0  0  0  0  0  0
   10.9755  -21.3546   23.1873 C   0  0  0  0  0  0  0  0  0  0  0  0
    8.1276  -11.5777   25.8953 C   0  0  2  0  0  0  0  0  0  0  0  0
    7.2066  -12.6636   26.5649 C   0  0  0  0  0  0  0  0  0  0  0  0
    5.9944  -11.8774   26.9742 C   0  0  0  0  0  0  0  0  0  0  0  0
    7.0317  -13.6933   25.5327 C   0  0  1  0  0  0  0  0  0  0  0  0
    8.0604  -14.6814   25.2095 N   0  0  0  0  0  0  0  0  0  0  0  0
    7.6062  -15.5699   24.1200 C   0  0  0  0  0  0  0  0  0  0  0  0
    8.5728  -15.4373   26.3298 O   0  0  0  0  0  0  0  0  0  0  0  0
    8.5157  -16.7873   26.5368 O   0  0  0  0  0  0  0  0  0  0  0  0
  2  1  1  6
  2  4  1  0
  3  2  1  0
  4  5  1  1
  6  7  2  0
  6  4  1  0
  8  9  1  0
  9 11  1  0
 10  9  2  0
 11 12  1  0
 12 13  1  0
 13 14  1  0
 15 14  1  6
 15 16  1  0
 16  6  1  0
 17 18  2  0
 17 15  1  0
 20 19  1  1
 20 22  1  0
 21 20  1  0
 23 22  1  6
 23 24  1  0
 24 17  1  0
 25 26  1  0
 25 23  1  0
 27 25  2  0
M  END
$$$$
