TRL.pdb
     RDKit          3D

 27 26  0  0  1  0  0  0  0  0999 V2000
    8.9199  -12.6561   19.8818 C   0  0  0  0  0  0  0  0  0  0  0  0
    8.2976  -13.3798   18.7186 C   0  0  1  0  0  0  0  0  0  0  0  0
    8.9291  -12.9740   17.5464 O   0  0  0  0  0  0  0  0  0  0  0  0
    8.4336  -14.8900   18.8806 C   0  0  2  0  0  0  0  0  0  0  0  0
    7.7933  -15.5369   17.7580 N   0  0  0  0  0  0  0  0  0  0  0  0
    7.7701  -15.3604   20.1196 C   0  0  0  0  0  0  0  0  0  0  0  0
    6.5559  -15.1243   20.2511 O   0  0  0  0  0  0  0  0  0  0  0  0
    9.1927  -19.6463   27.0463 N   0  0  0  0  0  0  0  0  0  0  0  0
    7.7770  -19.9343   27.0187 C   0  0  0  0  0  0  0  0  0  0  0  0
    7.1671  -20.2621   28.1069 N   0  0  0  0  0  0  0  0  0  0  0  0
    7.0364  -19.8725   25.8215 N   0  0  0  0  0  0  0  0  0  0  0  0
    7.7112  -19.6295   24.5693 C   0  0  0  0  0  0  0  0  0  0  0  0
    7.4312  -18.2244   24.1524 C   0  0  0  0  0  0  0  0  0  0  0  0
    7.9974  -17.8168   22.8351 C   0  0  0  0  0  0  0  0  0  0  0  0
    7.8124  -16.4255   22.4054 C   0  0  2  0  0  0  0  0  0  0  0  0
    8.4053  -16.0509   21.1555 N   0  0  0  0  0  0  0  0  0  0  0  0
    8.3861  -15.4894   23.4172 C   0  0  0  0  0  0  0  0  0  0  0  0
    8.8537  -14.3670   23.0855 O   0  0  0  0  0  0  0  0  0  0  0  0
    6.1845  -20.5782   28.0848 C   0  0  0  0  0  0  0  0  0  0  0  0
    8.0679  -11.5764   26.2246 C   0  0  2  0  0  0  0  0  0  0  0  0
    7.1142  -12.7499   26.6594 C   0  0  0  0  0  0  0  0  0  0  0  0
    5.7539  -12.1146   26.6249 C   0  0  0  0  0  0  0  0  0  0  0  0
    7.3852  -13.8272   25.6990 C   0  0  1  0  0  0  0  0  0  0  0  0
    8.4781  -14.7851   25.8627 N   0  0  0  0  0  0  0  0  0  0  0  0
    8.4354  -15.8116   24.8009 C   0  0  0  0  0  0  0  0  0  0  0  0
    8.5913  -15.3840   27.1732 O   0  0  0  0  0  0  0  0  0  0  0  0
    7.5935  -15.8728   27.9694 O   0  0  0  0  0  0  0  0  0  0  0  0
  2  1  1  1
  2  4  1  0
  3  2  1  0
  4  5  1  6
  6  7  2  0
  6  4  1  0
  8  9  1  0
  9 11  1  0
 10  9  2  0
 11 12  1  0
 12 13  1  0
 13 14  1  0
 15 14  1  1
 15 16  1  0
 16  6  1  0
 17 18  2  0
 17 15  1  0
 20 19  1  1
 20 22  1  0
 21 20  1  0
 23 22  1  6
 23 24  1  0
 24 17  1  0
 25 26  1  0
 25 23  1  0
 27 25  2  0
M  END
$$$$
