TRL.pdb
     RDKit          3D

 27 26  0  0  1  0  0  0  0  0999 V2000
    9.8963  -13.2741   20.8770 C   0  0  0  0  0  0  0  0  0  0  0  0
    8.7298  -13.0629   19.9502 C   0  0  1  0  0  0  0  0  0  0  0  0
    9.2051  -12.5954   18.7283 O   0  0  0  0  0  0  0  0  0  0  0  0
    7.9588  -14.3617   19.7401 C   0  0  2  0  0  0  0  0  0  0  0  0
    6.8472  -14.1034   18.8534 N   0  0  0  0  0  0  0  0  0  0  0  0
    7.4145  -14.8774   21.0185 C   0  0  0  0  0  0  0  0  0  0  0  0
    6.4683  -14.2578   21.5362 O   0  0  0  0  0  0  0  0  0  0  0  0
    8.8291  -19.3755   26.9573 N   0  0  0  0  0  0  0  0  0  0  0  0
    7.5594  -20.0520   27.0921 C   0  0  0  0  0  0  0  0  0  0  0  0
    7.1522  -20.4272   28.2571 N   0  0  0  0  0  0  0  0  0  0  0  0
    6.7466  -20.3221   25.9732 N   0  0  0  0  0  0  0  0  0  0  0  0
    7.2053  -19.9747   24.6498 C   0  0  0  0  0  0  0  0  0  0  0  0
    7.0977  -18.4948   24.4913 C   0  0  0  0  0  0  0  0  0  0  0  0
    7.4832  -17.9589   23.1548 C   0  0  0  0  0  0  0  0  0  0  0  0
    7.3957  -16.5094   22.9414 C   0  0  2  0  0  0  0  0  0  0  0  0
    7.8839  -16.0098   21.6899 N   0  0  0  0  0  0  0  0  0  0  0  0
    8.1690  -15.7826   23.9917 C   0  0  0  0  0  0  0  0  0  0  0  0
    9.4229  -15.6731   23.9289 O   0  0  0  0  0  0  0  0  0  0  0  0
    6.2771  -20.9651   28.3608 C   0  0  0  0  0  0  0  0  0  0  0  0
    5.9235  -11.6357   27.0911 C   0  0  2  0  0  0  0  0  0  0  0  0
    6.8551  -12.3661   26.0546 C   0  0  0  0  0  0  0  0  0  0  0  0
    7.7536  -11.2654   25.5687 C   0  0  0  0  0  0  0  0  0  0  0  0
    7.4720  -13.4614   26.8135 C   0  0  2  0  0  0  0  0  0  0  0  0
    8.2877  -14.5030   26.1902 N   0  0  0  0  0  0  0  0  0  0  0  0
    7.5362  -15.1787   25.1124 C   0  0  0  0  0  0  0  0  0  0  0  0
    8.8820  -15.4569   27.0990 O   0  0  0  0  0  0  0  0  0  0  0  0
    8.7581  -16.8182   27.0972 O   0  0  0  0  0  0  0  0  0  0  0  0
  2  1  1  1
  2  4  1  0
  3  2  1  0
  4  5  1  6
  6  7  2  0
  6  4  1  0
  8  9  1  0
  9 11  1  0
 10  9  2  0
 11 12  1  0
 12 13  1  0
 13 14  1  0
 15 14  1  6
 15 16  1  0
 16  6  1  0
 17 18  2  0
 17 15  1  0
 20 19  1  6
 20 22  1  0
 21 20  1  0
 23 22  1  6
 23 24  1  0
 24 17  1  0
 25 26  1  0
 25 23  1  0
 27 25  2  0
M  END
$$$$
