FEC.pdb
     RDKit          3D

 27 27  0  0  1  0  0  0  0  0999 V2000
   28.1977  -20.5286  -10.6761 N   0  0  0  0  0  0  0  0  0  0  0  0
   26.8981  -20.9860  -10.3106 C   0  0  1  0  0  0  0  0  0  0  0  0
   26.3802  -20.3222   -9.0765 C   0  0  0  0  0  0  0  0  0  0  0  0
   27.2994  -20.3163   -7.9416 C   0  0  0  0  0  0  0  0  0  0  0  0
   27.2744  -19.3489   -6.9642 C   0  0  0  0  0  0  0  0  0  0  0  0
   28.1221  -19.3225   -5.8958 C   0  0  0  0  0  0  0  0  0  0  0  0
   29.0664  -20.3297   -5.7869 C   0  0  0  0  0  0  0  0  0  0  0  0
   29.1375  -21.3392   -6.7520 C   0  0  0  0  0  0  0  0  0  0  0  0
   28.2493  -21.3134   -7.8149 C   0  0  0  0  0  0  0  0  0  0  0  0
   25.9171  -20.8405  -11.4454 C   0  0  0  0  0  0  0  0  0  0  0  0
   25.9231  -19.8392  -12.2088 O   0  0  0  0  0  0  0  0  0  0  0  0
   24.9390  -21.8313  -11.7017 N   0  0  0  0  0  0  0  0  0  0  0  0
   24.0046  -21.7454  -12.8346 C   0  0  1  0  0  0  0  0  0  0  0  0
   23.9418  -23.0214  -13.5945 C   0  0  0  0  0  0  0  0  0  0  0  0
   25.2175  -23.4013  -14.2552 C   0  0  0  0  0  0  0  0  0  0  0  0
   25.2098  -24.7195  -14.9306 C   0  0  0  0  0  0  0  0  0  0  0  0
   25.1593  -25.8256  -14.3407 O   0  0  0  0  0  0  0  0  0  0  0  0
   22.6853  -21.2429  -12.3606 C   0  0  0  0  0  0  0  0  0  0  0  0
   22.3235  -21.5323  -11.1996 O   0  0  0  0  0  0  0  0  0  0  0  0
   25.2641  -24.6941  -16.3374 O   0  0  0  0  0  0  0  0  0  0  0  0
   21.8346  -20.4563  -13.1709 N   0  0  0  0  0  0  0  0  0  0  0  0
   20.5931  -19.8832  -12.7496 C   0  0  1  0  0  0  0  0  0  0  0  0
   20.3248  -18.5390  -13.4027 C   0  0  0  0  0  0  0  0  0  0  0  0
   19.9278  -18.7643  -15.1542 S   0  0  0  0  0  0  0  0  0  0  0  0
   19.4968  -20.8252  -13.1817 C   0  0  0  0  0  0  0  0  0  0  0  0
   19.7726  -21.7038  -14.0328 O   0  0  0  0  0  0  0  0  0  0  0  0
   18.2290  -20.7417  -12.6723 O   0  0  0  0  0  0  0  0  0  0  0  0
  2  1  1  6
  3  2  1  0
  3  4  1  0
  4  9  2  0
  5  4  1  0
  5  6  2  0
  6  7  1  0
  7  8  2  0
  9  8  1  0
 10  2  1  0
 10 11  2  0
 12 10  1  0
 13 18  1  0
 13 12  1  0
 13 14  1  1
 15 14  1  0
 16 15  1  0
 17 16  2  0
 18 21  1  0
 19 18  2  0
 20 16  1  0
 21 22  1  0
 22 25  1  0
 23 24  1  0
 22 23  1  6
 25 26  2  0
 25 27  1  0
M  END
$$$$
