FEC.pdb
     RDKit          3D

 27 27  0  0  1  0  0  0  0  0999 V2000
   15.6471   -5.1699   -9.5813 N   0  0  0  0  0  0  0  0  0  0  0  0
   16.3757   -6.3739   -9.8074 C   0  0  1  0  0  0  0  0  0  0  0  0
   15.4852   -7.5518  -10.0333 C   0  0  0  0  0  0  0  0  0  0  0  0
   14.5113   -7.8066   -8.9752 C   0  0  0  0  0  0  0  0  0  0  0  0
   14.8549   -7.8850   -7.6457 C   0  0  0  0  0  0  0  0  0  0  0  0
   13.9636   -8.1220   -6.6405 C   0  0  0  0  0  0  0  0  0  0  0  0
   12.6314   -8.2948   -6.9769 C   0  0  0  0  0  0  0  0  0  0  0  0
   12.2251   -8.2256   -8.3132 C   0  0  0  0  0  0  0  0  0  0  0  0
   13.1762   -7.9818   -9.2906 C   0  0  0  0  0  0  0  0  0  0  0  0
   17.3595   -6.2251  -10.9394 C   0  0  0  0  0  0  0  0  0  0  0  0
   17.1204   -5.5001  -11.9407 O   0  0  0  0  0  0  0  0  0  0  0  0
   18.6034   -6.9008  -10.9244 N   0  0  0  0  0  0  0  0  0  0  0  0
   19.5487   -6.8420  -12.0499 C   0  0  1  0  0  0  0  0  0  0  0  0
   20.9529   -7.0303  -11.6001 C   0  0  0  0  0  0  0  0  0  0  0  0
   21.9626   -6.9026  -12.6829 C   0  0  0  0  0  0  0  0  0  0  0  0
   22.0929   -5.5479  -13.2673 C   0  0  0  0  0  0  0  0  0  0  0  0
   22.2053   -5.3050  -14.4930 O   0  0  0  0  0  0  0  0  0  0  0  0
   19.1123   -7.7792  -13.1219 C   0  0  0  0  0  0  0  0  0  0  0  0
   18.8156   -8.9501  -12.8004 O   0  0  0  0  0  0  0  0  0  0  0  0
   22.0869   -4.4767  -12.3534 O   0  0  0  0  0  0  0  0  0  0  0  0
   19.0225   -7.3941  -14.4794 N   0  0  0  0  0  0  0  0  0  0  0  0
   18.5788   -8.2364  -15.5476 C   0  0  1  0  0  0  0  0  0  0  0  0
   17.1719   -7.8969  -16.0065 C   0  0  0  0  0  0  0  0  0  0  0  0
   16.3586   -9.3721  -16.6688 S   0  0  0  0  0  0  0  0  0  0  0  0
   19.5061   -8.0036  -16.7145 C   0  0  0  0  0  0  0  0  0  0  0  0
   19.8407   -6.8244  -16.9787 O   0  0  0  0  0  0  0  0  0  0  0  0
   19.9814   -9.0357  -17.4779 O   0  0  0  0  0  0  0  0  0  0  0  0
  2  1  1  6
  3  2  1  0
  3  4  1  0
  4  9  2  0
  5  4  1  0
  5  6  2  0
  6  7  1  0
  7  8  2  0
  9  8  1  0
 10  2  1  0
 10 11  2  0
 12 10  1  0
 13 18  1  0
 13 12  1  0
 13 14  1  1
 15 14  1  0
 16 15  1  0
 17 16  2  0
 18 21  1  0
 19 18  2  0
 20 16  1  0
 21 22  1  0
 22 25  1  0
 23 24  1  0
 22 23  1  6
 25 26  2  0
 25 27  1  0
M  END
$$$$
