FEC.pdb
     RDKit          3D

 27 27  0  0  1  0  0  0  0  0999 V2000
   24.2166  -12.7952  -17.6967 N   0  0  0  0  0  0  0  0  0  0  0  0
   24.2883  -11.6129  -16.9038 C   0  0  1  0  0  0  0  0  0  0  0  0
   25.6091  -10.9240  -17.0156 C   0  0  0  0  0  0  0  0  0  0  0  0
   26.7675  -11.7398  -16.6613 C   0  0  0  0  0  0  0  0  0  0  0  0
   27.0004  -12.1927  -15.3836 C   0  0  0  0  0  0  0  0  0  0  0  0
   28.0746  -12.9552  -15.0290 C   0  0  0  0  0  0  0  0  0  0  0  0
   28.9875  -13.2946  -16.0135 C   0  0  0  0  0  0  0  0  0  0  0  0
   28.8010  -12.8614  -17.3300 C   0  0  0  0  0  0  0  0  0  0  0  0
   27.6905  -12.0895  -17.6300 C   0  0  0  0  0  0  0  0  0  0  0  0
   23.1629  -10.6616  -17.2197 C   0  0  0  0  0  0  0  0  0  0  0  0
   22.6496  -10.5924  -18.3674 O   0  0  0  0  0  0  0  0  0  0  0  0
   22.6324   -9.7981  -16.2313 N   0  0  0  0  0  0  0  0  0  0  0  0
   21.5164   -8.8785  -16.5013 C   0  0  1  0  0  0  0  0  0  0  0  0
   20.4625   -8.9701  -15.4571 C   0  0  0  0  0  0  0  0  0  0  0  0
   19.2786   -8.1077  -15.7081 C   0  0  0  0  0  0  0  0  0  0  0  0
   18.2290   -8.1581  -14.6643 C   0  0  0  0  0  0  0  0  0  0  0  0
   18.3036   -8.8277  -13.6060 O   0  0  0  0  0  0  0  0  0  0  0  0
   22.0422   -7.5040  -16.7297 C   0  0  0  0  0  0  0  0  0  0  0  0
   23.0127   -7.1192  -16.0424 O   0  0  0  0  0  0  0  0  0  0  0  0
   17.0763   -7.3870  -14.9084 O   0  0  0  0  0  0  0  0  0  0  0  0
   21.4866   -6.6262  -17.6889 N   0  0  0  0  0  0  0  0  0  0  0  0
   21.9295   -5.2883  -17.9361 C   0  0  1  0  0  0  0  0  0  0  0  0
   22.3177   -5.0657  -19.3870 C   0  0  0  0  0  0  0  0  0  0  0  0
   22.7789   -3.3355  -19.6511 S   0  0  0  0  0  0  0  0  0  0  0  0
   20.7718   -4.3709  -17.6296 C   0  0  0  0  0  0  0  0  0  0  0  0
   21.0172   -3.2729  -17.0757 O   0  0  0  0  0  0  0  0  0  0  0  0
   19.4812   -4.7068  -17.9382 O   0  0  0  0  0  0  0  0  0  0  0  0
  2  1  1  6
  3  2  1  0
  3  4  1  0
  4  9  2  0
  5  4  1  0
  5  6  2  0
  6  7  1  0
  7  8  2  0
  9  8  1  0
 10  2  1  0
 10 11  2  0
 12 10  1  0
 13 18  1  0
 13 12  1  0
 13 14  1  1
 15 14  1  0
 16 15  1  0
 17 16  2  0
 18 21  1  0
 19 18  2  0
 20 16  1  0
 21 22  1  0
 22 25  1  0
 23 24  1  0
 22 23  1  6
 25 26  2  0
 25 27  1  0
M  END
$$$$
