FEC.pdb
     RDKit          3D

 27 27  0  0  1  0  0  0  0  0999 V2000
   26.3614  -16.0974  -18.3843 N   0  0  0  0  0  0  0  0  0  0  0  0
   26.9882  -16.8307  -17.3351 C   0  0  1  0  0  0  0  0  0  0  0  0
   28.1122  -16.0796  -16.6995 C   0  0  0  0  0  0  0  0  0  0  0  0
   29.3113  -15.9422  -17.5218 C   0  0  0  0  0  0  0  0  0  0  0  0
   30.1741  -16.9852  -17.7659 C   0  0  0  0  0  0  0  0  0  0  0  0
   31.2995  -16.8809  -18.5299 C   0  0  0  0  0  0  0  0  0  0  0  0
   31.5931  -15.6510  -19.0947 C   0  0  0  0  0  0  0  0  0  0  0  0
   30.7510  -14.5555  -18.8799 C   0  0  0  0  0  0  0  0  0  0  0  0
   29.6219  -14.7224  -18.0948 C   0  0  0  0  0  0  0  0  0  0  0  0
   25.9920  -17.2781  -16.2964 C   0  0  0  0  0  0  0  0  0  0  0  0
   24.8992  -16.6787  -16.1177 O   0  0  0  0  0  0  0  0  0  0  0  0
   26.2460  -18.3998  -15.4708 N   0  0  0  0  0  0  0  0  0  0  0  0
   25.2435  -18.9387  -14.5389 C   0  0  1  0  0  0  0  0  0  0  0  0
   24.0018  -19.3514  -15.2443 C   0  0  0  0  0  0  0  0  0  0  0  0
   22.9380  -19.8770  -14.3496 C   0  0  0  0  0  0  0  0  0  0  0  0
   21.7591  -20.4490  -15.0399 C   0  0  0  0  0  0  0  0  0  0  0  0
   21.2798  -20.0163  -16.1156 O   0  0  0  0  0  0  0  0  0  0  0  0
   25.8595  -20.0027  -13.6986 C   0  0  0  0  0  0  0  0  0  0  0  0
   26.3974  -20.9739  -14.2728 O   0  0  0  0  0  0  0  0  0  0  0  0
   21.1556  -21.5584  -14.4171 O   0  0  0  0  0  0  0  0  0  0  0  0
   25.8575  -19.9531  -12.2855 N   0  0  0  0  0  0  0  0  0  0  0  0
   26.4897  -20.9067  -11.4263 C   0  0  1  0  0  0  0  0  0  0  0  0
   26.4830  -20.4696   -9.9722 C   0  0  0  0  0  0  0  0  0  0  0  0
   24.7830  -20.2178   -9.4042 S   0  0  0  0  0  0  0  0  0  0  0  0
   25.6968  -22.1867  -11.5197 C   0  0  0  0  0  0  0  0  0  0  0  0
   24.5743  -22.1484  -12.0774 O   0  0  0  0  0  0  0  0  0  0  0  0
   26.1695  -23.3687  -11.0166 O   0  0  0  0  0  0  0  0  0  0  0  0
  2  1  1  6
  3  2  1  0
  3  4  1  0
  4  9  2  0
  5  4  1  0
  5  6  2  0
  6  7  1  0
  7  8  2  0
  9  8  1  0
 10  2  1  0
 10 11  2  0
 12 10  1  0
 13 18  1  0
 13 12  1  0
 13 14  1  6
 15 14  1  0
 16 15  1  0
 17 16  2  0
 18 21  1  0
 19 18  2  0
 20 16  1  0
 21 22  1  0
 22 25  1  0
 23 24  1  0
 22 23  1  1
 25 26  2  0
 25 27  1  0
M  END
$$$$
