FEC.pdb
     RDKit          3D

 27 27  0  0  1  0  0  0  0  0999 V2000
   24.5340  -12.0603  -16.0671 N   0  0  0  0  0  0  0  0  0  0  0  0
   23.7504  -11.1790  -16.8677 C   0  0  1  0  0  0  0  0  0  0  0  0
   22.9110  -11.9036  -17.8686 C   0  0  0  0  0  0  0  0  0  0  0  0
   23.6479  -12.7587  -18.7951 C   0  0  0  0  0  0  0  0  0  0  0  0
   23.6144  -14.1323  -18.7326 C   0  0  0  0  0  0  0  0  0  0  0  0
   24.2939  -14.9512  -19.5863 C   0  0  0  0  0  0  0  0  0  0  0  0
   25.0653  -14.3661  -20.5765 C   0  0  0  0  0  0  0  0  0  0  0  0
   25.1364  -12.9738  -20.6868 C   0  0  0  0  0  0  0  0  0  0  0  0
   24.4237  -12.1937  -19.7909 C   0  0  0  0  0  0  0  0  0  0  0  0
   22.9012  -10.2653  -16.0219 C   0  0  0  0  0  0  0  0  0  0  0  0
   22.4030  -10.6399  -14.9279 O   0  0  0  0  0  0  0  0  0  0  0  0
   22.6251   -8.9369  -16.4261 N   0  0  0  0  0  0  0  0  0  0  0  0
   21.7986   -8.0220  -15.6238 C   0  0  1  0  0  0  0  0  0  0  0  0
   22.4704   -6.7125  -15.4156 C   0  0  0  0  0  0  0  0  0  0  0  0
   21.6870   -5.7478  -14.6008 C   0  0  0  0  0  0  0  0  0  0  0  0
   22.3097   -4.4147  -14.4302 C   0  0  0  0  0  0  0  0  0  0  0  0
   23.5037   -4.1423  -14.7026 O   0  0  0  0  0  0  0  0  0  0  0  0
   20.4343   -7.9297  -16.2135 C   0  0  0  0  0  0  0  0  0  0  0  0
   20.3320   -7.7986  -17.4524 O   0  0  0  0  0  0  0  0  0  0  0  0
   21.4734   -3.4017  -13.9232 O   0  0  0  0  0  0  0  0  0  0  0  0
   19.2601   -7.9849  -15.4277 N   0  0  0  0  0  0  0  0  0  0  0  0
   17.9246   -7.8992  -15.9340 C   0  0  1  0  0  0  0  0  0  0  0  0
   17.0557   -9.0563  -15.4741 C   0  0  0  0  0  0  0  0  0  0  0  0
   16.4617   -9.9965  -16.9021 S   0  0  0  0  0  0  0  0  0  0  0  0
   17.3196   -6.6307  -15.3857 C   0  0  0  0  0  0  0  0  0  0  0  0
   16.1536   -6.3311  -15.7365 O   0  0  0  0  0  0  0  0  0  0  0  0
   18.0058   -5.8139  -14.5278 O   0  0  0  0  0  0  0  0  0  0  0  0
  2  1  1  1
  3  2  1  0
  3  4  1  0
  4  9  2  0
  5  4  1  0
  5  6  2  0
  6  7  1  0
  7  8  2  0
  9  8  1  0
 10  2  1  0
 10 11  2  0
 12 10  1  0
 13 18  1  0
 13 12  1  0
 13 14  1  6
 15 14  1  0
 16 15  1  0
 17 16  2  0
 18 21  1  0
 19 18  2  0
 20 16  1  0
 21 22  1  0
 22 25  1  0
 23 24  1  0
 22 23  1  1
 25 26  2  0
 25 27  1  0
M  END
$$$$
