FEC.pdb
     RDKit          3D

 27 27  0  0  1  0  0  0  0  0999 V2000
   26.1977  -22.3057  -10.3210 N   0  0  0  0  0  0  0  0  0  0  0  0
   25.7042  -20.9779  -10.4784 C   0  0  1  0  0  0  0  0  0  0  0  0
   26.7786  -19.9467  -10.3610 C   0  0  0  0  0  0  0  0  0  0  0  0
   27.4418  -19.8853   -9.0613 C   0  0  0  0  0  0  0  0  0  0  0  0
   28.6137  -20.5513   -8.7877 C   0  0  0  0  0  0  0  0  0  0  0  0
   29.2510  -20.5093   -7.5823 C   0  0  0  0  0  0  0  0  0  0  0  0
   28.6853  -19.7508   -6.5711 C   0  0  0  0  0  0  0  0  0  0  0  0
   27.4941  -19.0527   -6.7932 C   0  0  0  0  0  0  0  0  0  0  0  0
   26.8929  -19.1333   -8.0387 C   0  0  0  0  0  0  0  0  0  0  0  0
   24.9482  -20.8146  -11.7719 C   0  0  0  0  0  0  0  0  0  0  0  0
   25.3814  -21.2747  -12.8610 O   0  0  0  0  0  0  0  0  0  0  0  0
   23.7096  -20.1304  -11.8170 N   0  0  0  0  0  0  0  0  0  0  0  0
   22.8942  -20.0512  -13.0387 C   0  0  1  0  0  0  0  0  0  0  0  0
   21.4803  -19.7067  -12.7356 C   0  0  0  0  0  0  0  0  0  0  0  0
   20.7855  -20.6911  -11.8659 C   0  0  0  0  0  0  0  0  0  0  0  0
   20.4762  -21.9905  -12.5062 C   0  0  0  0  0  0  0  0  0  0  0  0
   20.7818  -22.2990  -13.6832 O   0  0  0  0  0  0  0  0  0  0  0  0
   23.5523  -19.1495  -14.0244 C   0  0  0  0  0  0  0  0  0  0  0  0
   24.2615  -18.2156  -13.5915 O   0  0  0  0  0  0  0  0  0  0  0  0
   19.7885  -22.9250  -11.7085 O   0  0  0  0  0  0  0  0  0  0  0  0
   23.4043  -19.3113  -15.4212 N   0  0  0  0  0  0  0  0  0  0  0  0
   24.4776  -19.3287  -16.3673 C   0  0  1  0  0  0  0  0  0  0  0  0
   25.4684  -20.4473  -16.0983 C   0  0  0  0  0  0  0  0  0  0  0  0
   27.1390  -19.9253  -16.5595 S   0  0  0  0  0  0  0  0  0  0  0  0
   23.8710  -19.5759  -17.7262 C   0  0  0  0  0  0  0  0  0  0  0  0
   23.0085  -20.4798  -17.8340 O   0  0  0  0  0  0  0  0  0  0  0  0
   24.2368  -18.8463  -18.8252 O   0  0  0  0  0  0  0  0  0  0  0  0
  2  1  1  6
  3  2  1  0
  3  4  1  0
  4  9  2  0
  5  4  1  0
  5  6  2  0
  6  7  1  0
  7  8  2  0
  9  8  1  0
 10  2  1  0
 10 11  2  0
 12 10  1  0
 13 18  1  0
 13 12  1  0
 13 14  1  1
 15 14  1  0
 16 15  1  0
 17 16  2  0
 18 21  1  0
 19 18  2  0
 20 16  1  0
 21 22  1  0
 22 25  1  0
 23 24  1  0
 22 23  1  1
 25 26  2  0
 25 27  1  0
M  END
$$$$
