FEC.pdb
     RDKit          3D

 27 27  0  0  1  0  0  0  0  0999 V2000
   27.0212  -22.5310  -11.3317 N   0  0  0  0  0  0  0  0  0  0  0  0
   26.1837  -21.3786  -11.3776 C   0  0  1  0  0  0  0  0  0  0  0  0
   26.8670  -20.1499  -10.8726 C   0  0  0  0  0  0  0  0  0  0  0  0
   27.2877  -20.2026   -9.4751 C   0  0  0  0  0  0  0  0  0  0  0  0
   28.5892  -20.4323   -9.0942 C   0  0  0  0  0  0  0  0  0  0  0  0
   29.0056  -20.4860   -7.7962 C   0  0  0  0  0  0  0  0  0  0  0  0
   28.0621  -20.2987   -6.7999 C   0  0  0  0  0  0  0  0  0  0  0  0
   26.7239  -20.0617   -7.1294 C   0  0  0  0  0  0  0  0  0  0  0  0
   26.3607  -20.0178   -8.4655 C   0  0  0  0  0  0  0  0  0  0  0  0
   25.6276  -21.1491  -12.7594 C   0  0  0  0  0  0  0  0  0  0  0  0
   26.3734  -21.0035  -13.7634 O   0  0  0  0  0  0  0  0  0  0  0  0
   24.2319  -21.0861  -12.9879 N   0  0  0  0  0  0  0  0  0  0  0  0
   23.6546  -21.0112  -14.3388 C   0  0  1  0  0  0  0  0  0  0  0  0
   23.8858  -22.2629  -15.1065 C   0  0  0  0  0  0  0  0  0  0  0  0
   23.8266  -23.5010  -14.2867 C   0  0  0  0  0  0  0  0  0  0  0  0
   24.8054  -24.5495  -14.6561 C   0  0  0  0  0  0  0  0  0  0  0  0
   24.9289  -25.6518  -14.0698 O   0  0  0  0  0  0  0  0  0  0  0  0
   22.2276  -20.5937  -14.2528 C   0  0  0  0  0  0  0  0  0  0  0  0
   21.6836  -20.5717  -13.1277 O   0  0  0  0  0  0  0  0  0  0  0  0
   25.6432  -24.2561  -15.7491 O   0  0  0  0  0  0  0  0  0  0  0  0
   21.4729  -20.2243  -15.3900 N   0  0  0  0  0  0  0  0  0  0  0  0
   20.1002  -19.8209  -15.3728 C   0  0  1  0  0  0  0  0  0  0  0  0
   19.2753  -20.6167  -14.3770 C   0  0  0  0  0  0  0  0  0  0  0  0
   19.4860  -22.3906  -14.6687 S   0  0  0  0  0  0  0  0  0  0  0  0
   20.0646  -18.3761  -14.9405 C   0  0  0  0  0  0  0  0  0  0  0  0
   21.1546  -17.7692  -14.8134 O   0  0  0  0  0  0  0  0  0  0  0  0
   18.8871  -17.7252  -14.6883 O   0  0  0  0  0  0  0  0  0  0  0  0
  2  1  1  6
  3  2  1  0
  3  4  1  0
  4  9  2  0
  5  4  1  0
  5  6  2  0
  6  7  1  0
  7  8  2  0
  9  8  1  0
 10  2  1  0
 10 11  2  0
 12 10  1  0
 13 18  1  0
 13 12  1  0
 13 14  1  1
 15 14  1  0
 16 15  1  0
 17 16  2  0
 18 21  1  0
 19 18  2  0
 20 16  1  0
 21 22  1  0
 22 25  1  0
 23 24  1  0
 22 23  1  1
 25 26  2  0
 25 27  1  0
M  END
$$$$
