FEC.pdb
     RDKit          3D

 27 27  0  0  1  0  0  0  0  0999 V2000
   27.1761  -22.4665  -11.1006 N   0  0  0  0  0  0  0  0  0  0  0  0
   26.2833  -21.4030  -10.7792 C   0  0  1  0  0  0  0  0  0  0  0  0
   26.9951  -20.1239  -10.4812 C   0  0  0  0  0  0  0  0  0  0  0  0
   27.6073  -20.0472   -9.1575 C   0  0  0  0  0  0  0  0  0  0  0  0
   28.9023  -20.4383   -8.9087 C   0  0  0  0  0  0  0  0  0  0  0  0
   29.4952  -20.3761   -7.6818 C   0  0  0  0  0  0  0  0  0  0  0  0
   28.7497  -19.8903   -6.6206 C   0  0  0  0  0  0  0  0  0  0  0  0
   27.4276  -19.4784   -6.8156 C   0  0  0  0  0  0  0  0  0  0  0  0
   26.8795  -19.5648   -8.0850 C   0  0  0  0  0  0  0  0  0  0  0  0
   25.2497  -21.1988  -11.8568 C   0  0  0  0  0  0  0  0  0  0  0  0
   25.5089  -21.3866  -13.0746 O   0  0  0  0  0  0  0  0  0  0  0  0
   23.9335  -20.7828  -11.5424 N   0  0  0  0  0  0  0  0  0  0  0  0
   22.8582  -20.7368  -12.5450 C   0  0  1  0  0  0  0  0  0  0  0  0
   21.5260  -20.5417  -11.9150 C   0  0  0  0  0  0  0  0  0  0  0  0
   20.4034  -20.4343  -12.8828 C   0  0  0  0  0  0  0  0  0  0  0  0
   19.0818  -20.1349  -12.2850 C   0  0  0  0  0  0  0  0  0  0  0  0
   18.8840  -19.8942  -11.0697 O   0  0  0  0  0  0  0  0  0  0  0  0
   23.1957  -19.7394  -13.5982 C   0  0  0  0  0  0  0  0  0  0  0  0
   23.5047  -18.5821  -13.2409 O   0  0  0  0  0  0  0  0  0  0  0  0
   17.9887  -20.1279  -13.1725 O   0  0  0  0  0  0  0  0  0  0  0  0
   23.1791  -20.0531  -14.9768 N   0  0  0  0  0  0  0  0  0  0  0  0
   23.4791  -19.1371  -16.0342 C   0  0  1  0  0  0  0  0  0  0  0  0
   24.5050  -19.6914  -17.0067 C   0  0  0  0  0  0  0  0  0  0  0  0
   24.7360  -18.5466  -18.3896 S   0  0  0  0  0  0  0  0  0  0  0  0
   22.2014  -18.9084  -16.8029 C   0  0  0  0  0  0  0  0  0  0  0  0
   21.4689  -19.8978  -17.0416 O   0  0  0  0  0  0  0  0  0  0  0  0
   21.8316  -17.6642  -17.2378 O   0  0  0  0  0  0  0  0  0  0  0  0
  2  1  1  6
  3  2  1  0
  3  4  1  0
  4  9  2  0
  5  4  1  0
  5  6  2  0
  6  7  1  0
  7  8  2  0
  9  8  1  0
 10  2  1  0
 10 11  2  0
 12 10  1  0
 13 18  1  0
 13 12  1  0
 13 14  1  1
 15 14  1  0
 16 15  1  0
 17 16  2  0
 18 21  1  0
 19 18  2  0
 20 16  1  0
 21 22  1  0
 22 25  1  0
 23 24  1  0
 22 23  1  6
 25 26  2  0
 25 27  1  0
M  END
$$$$
