FEC.pdb
     RDKit          3D

 27 27  0  0  1  0  0  0  0  0999 V2000
   29.0244  -14.9794  -21.0878 N   0  0  0  0  0  0  0  0  0  0  0  0
   28.3791  -14.5666  -19.8858 C   0  0  1  0  0  0  0  0  0  0  0  0
   28.9653  -13.3153  -19.3182 C   0  0  0  0  0  0  0  0  0  0  0  0
   30.4052  -13.3568  -19.0781 C   0  0  0  0  0  0  0  0  0  0  0  0
   31.2877  -12.4843  -19.6713 C   0  0  0  0  0  0  0  0  0  0  0  0
   32.6356  -12.5039  -19.4627 C   0  0  0  0  0  0  0  0  0  0  0  0
   33.1490  -13.4597  -18.6020 C   0  0  0  0  0  0  0  0  0  0  0  0
   32.2981  -14.3727  -17.9712 C   0  0  0  0  0  0  0  0  0  0  0  0
   30.9374  -14.3036  -18.2219 C   0  0  0  0  0  0  0  0  0  0  0  0
   26.8911  -14.4197  -20.0749 C   0  0  0  0  0  0  0  0  0  0  0  0
   26.3789  -14.2164  -21.2070 O   0  0  0  0  0  0  0  0  0  0  0  0
   25.9999  -14.5039  -18.9781 N   0  0  0  0  0  0  0  0  0  0  0  0
   24.5384  -14.4922  -19.1444 C   0  0  1  0  0  0  0  0  0  0  0  0
   23.8520  -15.1994  -18.0316 C   0  0  0  0  0  0  0  0  0  0  0  0
   22.4025  -15.4340  -18.2600 C   0  0  0  0  0  0  0  0  0  0  0  0
   22.0708  -16.6938  -18.9647 C   0  0  0  0  0  0  0  0  0  0  0  0
   21.2559  -16.7898  -19.9138 O   0  0  0  0  0  0  0  0  0  0  0  0
   24.0699  -13.0970  -19.3721 C   0  0  0  0  0  0  0  0  0  0  0  0
   24.6723  -12.1678  -18.7924 O   0  0  0  0  0  0  0  0  0  0  0  0
   22.7357  -17.8495  -18.5119 O   0  0  0  0  0  0  0  0  0  0  0  0
   22.9766  -12.7891  -20.2141 N   0  0  0  0  0  0  0  0  0  0  0  0
   22.4952  -11.4705  -20.4911 C   0  0  1  0  0  0  0  0  0  0  0  0
   22.5373  -11.1380  -21.9721 C   0  0  0  0  0  0  0  0  0  0  0  0
   21.8291   -9.4980  -22.2637 S   0  0  0  0  0  0  0  0  0  0  0  0
   21.0518  -11.4212  -20.0552 C   0  0  0  0  0  0  0  0  0  0  0  0
   20.4389  -10.3322  -20.1591 O   0  0  0  0  0  0  0  0  0  0  0  0
   20.4087  -12.5221  -19.5569 O   0  0  0  0  0  0  0  0  0  0  0  0
  2  1  1  6
  3  2  1  0
  3  4  1  0
  4  9  2  0
  5  4  1  0
  5  6  2  0
  6  7  1  0
  7  8  2  0
  9  8  1  0
 10  2  1  0
 10 11  2  0
 12 10  1  0
 13 18  1  0
 13 12  1  0
 13 14  1  1
 15 14  1  0
 16 15  1  0
 17 16  2  0
 18 21  1  0
 19 18  2  0
 20 16  1  0
 21 22  1  0
 22 25  1  0
 23 24  1  0
 22 23  1  6
 25 26  2  0
 25 27  1  0
M  END
$$$$
