EDQ.pdb
     RDKit          3D

 27 26  0  0  1  0  0  0  0  0999 V2000
   15.4082   -9.9329  -14.6233 N   0  0  0  0  0  0  0  0  0  0  0  0
   16.6128   -9.9135  -15.4591 C   0  0  1  0  0  0  0  0  0  0  0  0
   16.3188  -10.5980  -16.7635 C   0  0  0  0  0  0  0  0  0  0  0  0
   15.1965  -11.5668  -16.6902 C   0  0  0  0  0  0  0  0  0  0  0  0
   15.2692  -12.6980  -17.6351 C   0  0  0  0  0  0  0  0  0  0  0  0
   14.8275  -12.6788  -18.8014 O   0  0  0  0  0  0  0  0  0  0  0  0
   17.1315   -8.5422  -15.5813 C   0  0  0  0  0  0  0  0  0  0  0  0
   18.2129   -8.2763  -16.1609 O   0  0  0  0  0  0  0  0  0  0  0  0
   15.8735  -13.8636  -17.1870 O   0  0  0  0  0  0  0  0  0  0  0  0
   16.4194   -7.4130  -15.0357 N   0  0  0  0  0  0  0  0  0  0  0  0
   16.9916   -6.0889  -15.0621 C   0  0  1  0  0  0  0  0  0  0  0  0
   16.0466   -5.0396  -14.5141 C   0  0  0  0  0  0  0  0  0  0  0  0
   16.5720   -3.6694  -14.6505 C   0  0  0  0  0  0  0  0  0  0  0  0
   17.6995   -3.4991  -15.1770 O   0  0  0  0  0  0  0  0  0  0  0  0
   18.1715   -6.0752  -14.1413 C   0  0  0  0  0  0  0  0  0  0  0  0
   18.1068   -6.8134  -13.1187 O   0  0  0  0  0  0  0  0  0  0  0  0
   15.8446   -2.5947  -14.2113 O   0  0  0  0  0  0  0  0  0  0  0  0
   22.4270   -9.3288  -15.0788 N   0  0  0  0  0  0  0  0  0  0  0  0
   23.0089   -8.5045  -14.0980 C   0  0  0  0  0  0  0  0  0  0  0  0
   24.0959   -8.8803  -13.5730 O   0  0  0  0  0  0  0  0  0  0  0  0
   22.4360   -7.2194  -13.6333 C   0  0  0  0  0  0  0  0  0  0  0  0
   21.0553   -6.9877  -14.1727 C   0  0  0  0  0  0  0  0  0  0  0  0
   20.5608   -5.6107  -13.7646 C   0  0  2  0  0  0  0  0  0  0  0  0
   19.3090   -5.2824  -14.3890 N   0  0  0  0  0  0  0  0  0  0  0  0
   21.5548   -4.5634  -14.0387 C   0  0  0  0  0  0  0  0  0  0  0  0
   22.6863   -4.3564  -13.2566 O   0  0  0  0  0  0  0  0  0  0  0  0
   21.4000   -3.7996  -15.0248 O   0  0  0  0  0  0  0  0  0  0  0  0
  2  1  1  1
  2  7  1  0
  2  3  1  0
  4  3  1  0
  4  5  1  0
  5  6  2  0
  7  8  2  0
  9  5  1  0
 10 11  1  0
 10  7  1  0
 11 12  1  1
 13 12  1  0
 14 13  2  0
 15 16  2  0
 15 11  1  0
 17 13  1  0
 19 18  1  0
 20 19  2  0
 21 19  1  0
 22 21  1  0
 23 22  1  6
 23 24  1  0
 24 15  1  0
 25 23  1  0
 26 25  1  0
 27 25  2  0
M  END
$$$$
