EDQ.pdb
     RDKit          3D

 27 26  0  0  1  0  0  0  0  0999 V2000
   13.9012   -9.4083  -12.4271 N   0  0  0  0  0  0  0  0  0  0  0  0
   14.1076   -9.1206  -11.0041 C   0  0  1  0  0  0  0  0  0  0  0  0
   14.9381  -10.2143  -10.3955 C   0  0  0  0  0  0  0  0  0  0  0  0
   15.3708  -11.2480  -11.3690 C   0  0  0  0  0  0  0  0  0  0  0  0
   16.1971  -12.3381  -10.8151 C   0  0  0  0  0  0  0  0  0  0  0  0
   17.4191  -12.2539  -10.5800 O   0  0  0  0  0  0  0  0  0  0  0  0
   14.6447   -7.7624  -10.8271 C   0  0  0  0  0  0  0  0  0  0  0  0
   14.7572   -6.9495  -11.7771 O   0  0  0  0  0  0  0  0  0  0  0  0
   15.5623  -13.5402  -10.5382 O   0  0  0  0  0  0  0  0  0  0  0  0
   15.0776   -7.2825   -9.5379 N   0  0  0  0  0  0  0  0  0  0  0  0
   15.3534   -5.8835   -9.3187 C   0  0  1  0  0  0  0  0  0  0  0  0
   15.1077   -5.4634   -7.8843 C   0  0  0  0  0  0  0  0  0  0  0  0
   13.6853   -5.2023   -7.6003 C   0  0  0  0  0  0  0  0  0  0  0  0
   12.9393   -4.8144   -8.5332 O   0  0  0  0  0  0  0  0  0  0  0  0
   16.8147   -5.6571   -9.5503 C   0  0  0  0  0  0  0  0  0  0  0  0
   17.6060   -6.0784   -8.6609 O   0  0  0  0  0  0  0  0  0  0  0  0
   13.1803   -5.3792   -6.3390 O   0  0  0  0  0  0  0  0  0  0  0  0
   20.4675   -8.8211  -11.9584 N   0  0  0  0  0  0  0  0  0  0  0  0
   19.6704   -8.0995  -12.8662 C   0  0  0  0  0  0  0  0  0  0  0  0
   19.4936   -8.5854  -14.0199 O   0  0  0  0  0  0  0  0  0  0  0  0
   19.0189   -6.8030  -12.5655 C   0  0  0  0  0  0  0  0  0  0  0  0
   19.3061   -6.3362  -11.1688 C   0  0  0  0  0  0  0  0  0  0  0  0
   18.7157   -4.9540  -10.9497 C   0  0  2  0  0  0  0  0  0  0  0  0
   17.3015   -5.0069  -10.7010 N   0  0  0  0  0  0  0  0  0  0  0  0
   19.0002   -4.0479  -12.0713 C   0  0  0  0  0  0  0  0  0  0  0  0
   20.2862   -3.6794  -12.4524 O   0  0  0  0  0  0  0  0  0  0  0  0
   18.0511   -3.5651  -12.7390 O   0  0  0  0  0  0  0  0  0  0  0  0
  2  1  1  6
  2  7  1  0
  2  3  1  0
  4  3  1  0
  4  5  1  0
  5  6  2  0
  7  8  2  0
  9  5  1  0
 10 11  1  0
 10  7  1  0
 11 12  1  1
 13 12  1  0
 14 13  2  0
 15 16  2  0
 15 11  1  0
 17 13  1  0
 19 18  1  0
 20 19  2  0
 21 19  1  0
 22 21  1  0
 23 22  1  6
 23 24  1  0
 24 15  1  0
 25 23  1  0
 26 25  1  0
 27 25  2  0
M  END
$$$$
