EDQ.pdb
     RDKit          3D

 27 26  0  0  1  0  0  0  0  0999 V2000
   21.2084  -22.7684  -16.1805 N   0  0  0  0  0  0  0  0  0  0  0  0
   20.7126  -21.4372  -16.5443 C   0  0  1  0  0  0  0  0  0  0  0  0
   19.2279  -21.3866  -16.3225 C   0  0  0  0  0  0  0  0  0  0  0  0
   18.6249  -22.7068  -16.0111 C   0  0  0  0  0  0  0  0  0  0  0  0
   17.9951  -22.8216  -14.6815 C   0  0  0  0  0  0  0  0  0  0  0  0
   18.4347  -23.5186  -13.7452 O   0  0  0  0  0  0  0  0  0  0  0  0
   21.4801  -20.3944  -15.8455 C   0  0  0  0  0  0  0  0  0  0  0  0
   21.1845  -19.1762  -15.9131 O   0  0  0  0  0  0  0  0  0  0  0  0
   16.8306  -22.0995  -14.4644 O   0  0  0  0  0  0  0  0  0  0  0  0
   22.6285  -20.7161  -15.0347 N   0  0  0  0  0  0  0  0  0  0  0  0
   23.3255  -19.6939  -14.2927 C   0  0  1  0  0  0  0  0  0  0  0  0
   23.7033  -20.1478  -12.8979 C   0  0  0  0  0  0  0  0  0  0  0  0
   22.5567  -20.1660  -11.9721 C   0  0  0  0  0  0  0  0  0  0  0  0
   22.7347  -20.5506  -10.7898 O   0  0  0  0  0  0  0  0  0  0  0  0
   24.6253  -19.4239  -14.9842 C   0  0  0  0  0  0  0  0  0  0  0  0
   24.7616  -19.8945  -16.1481 O   0  0  0  0  0  0  0  0  0  0  0  0
   21.3137  -19.7699  -12.3906 O   0  0  0  0  0  0  0  0  0  0  0  0
   29.5595  -22.3548  -11.6828 N   0  0  0  0  0  0  0  0  0  0  0  0
   28.8429  -21.1479  -11.5834 C   0  0  0  0  0  0  0  0  0  0  0  0
   28.3177  -20.8574  -10.4706 O   0  0  0  0  0  0  0  0  0  0  0  0
   28.6585  -20.1865  -12.6958 C   0  0  0  0  0  0  0  0  0  0  0  0
   27.2310  -19.7446  -12.8306 C   0  0  0  0  0  0  0  0  0  0  0  0
   26.9684  -19.2552  -14.2443 C   0  0  2  0  0  0  0  0  0  0  0  0
   25.6582  -18.6812  -14.3797 N   0  0  0  0  0  0  0  0  0  0  0  0
   27.1626  -20.3175  -15.2414 C   0  0  0  0  0  0  0  0  0  0  0  0
   28.0203  -20.2000  -16.3301 O   0  0  0  0  0  0  0  0  0  0  0  0
   26.5335  -21.3998  -15.1298 O   0  0  0  0  0  0  0  0  0  0  0  0
  2  1  1  1
  2  7  1  0
  2  3  1  0
  4  3  1  0
  4  5  1  0
  5  6  2  0
  7  8  2  0
  9  5  1  0
 10 11  1  0
 10  7  1  0
 11 12  1  1
 13 12  1  0
 14 13  2  0
 15 16  2  0
 15 11  1  0
 17 13  1  0
 19 18  1  0
 20 19  2  0
 21 19  1  0
 22 21  1  0
 23 22  1  1
 23 24  1  0
 24 15  1  0
 25 23  1  0
 26 25  1  0
 27 25  2  0
M  END
$$$$
