EDQ.pdb
     RDKit          3D

 27 26  0  0  1  0  0  0  0  0999 V2000
   24.6306  -33.6741  -10.2753 N   0  0  0  0  0  0  0  0  0  0  0  0
   24.7552  -32.7803   -9.1195 C   0  0  1  0  0  0  0  0  0  0  0  0
   23.5277  -31.9194   -9.0276 C   0  0  0  0  0  0  0  0  0  0  0  0
   22.2795  -32.6831   -8.7781 C   0  0  0  0  0  0  0  0  0  0  0  0
   21.0787  -32.1868   -9.4778 C   0  0  0  0  0  0  0  0  0  0  0  0
   21.0540  -31.1885  -10.2252 O   0  0  0  0  0  0  0  0  0  0  0  0
   25.0647  -33.5509   -7.9050 C   0  0  0  0  0  0  0  0  0  0  0  0
   24.6682  -34.7292   -7.7313 O   0  0  0  0  0  0  0  0  0  0  0  0
   19.8959  -32.8858   -9.2859 O   0  0  0  0  0  0  0  0  0  0  0  0
   25.8496  -32.9899   -6.8331 N   0  0  0  0  0  0  0  0  0  0  0  0
   26.1439  -33.7558   -5.6465 C   0  0  1  0  0  0  0  0  0  0  0  0
   27.3801  -33.2563   -4.9277 C   0  0  0  0  0  0  0  0  0  0  0  0
   27.8516  -34.1868   -3.8865 C   0  0  0  0  0  0  0  0  0  0  0  0
   27.2055  -35.2431   -3.6759 O   0  0  0  0  0  0  0  0  0  0  0  0
   25.0196  -33.5606   -4.6779 C   0  0  0  0  0  0  0  0  0  0  0  0
   24.7985  -32.3795   -4.2897 O   0  0  0  0  0  0  0  0  0  0  0  0
   28.9775  -33.9079   -3.1574 O   0  0  0  0  0  0  0  0  0  0  0  0
   19.6583  -33.7801   -2.9805 N   0  0  0  0  0  0  0  0  0  0  0  0
   19.9955  -34.1624   -4.2920 C   0  0  0  0  0  0  0  0  0  0  0  0
   19.2038  -33.8475   -5.2261 O   0  0  0  0  0  0  0  0  0  0  0  0
   21.2198  -34.9120   -4.6599 C   0  0  0  0  0  0  0  0  0  0  0  0
   22.0105  -35.3297   -3.4552 C   0  0  0  0  0  0  0  0  0  0  0  0
   23.1894  -34.3930   -3.2553 C   0  0  2  0  0  0  0  0  0  0  0  0
   24.2347  -34.6332   -4.2114 N   0  0  0  0  0  0  0  0  0  0  0  0
   23.7254  -34.4638   -1.8887 C   0  0  0  0  0  0  0  0  0  0  0  0
   23.1780  -33.7720   -0.8133 O   0  0  0  0  0  0  0  0  0  0  0  0
   24.7310  -35.1790   -1.6497 O   0  0  0  0  0  0  0  0  0  0  0  0
  2  1  1  6
  2  7  1  0
  2  3  1  0
  4  3  1  0
  4  5  1  0
  5  6  2  0
  7  8  2  0
  9  5  1  0
 10 11  1  0
 10  7  1  0
 11 12  1  1
 13 12  1  0
 14 13  2  0
 15 16  2  0
 15 11  1  0
 17 13  1  0
 19 18  1  0
 20 19  2  0
 21 19  1  0
 22 21  1  0
 23 22  1  1
 23 24  1  0
 24 15  1  0
 25 23  1  0
 26 25  1  0
 27 25  2  0
M  END
$$$$
