EDQ.pdb
     RDKit          3D

 27 26  0  0  1  0  0  0  0  0999 V2000
   18.4802  -13.8783  -15.8974 N   0  0  0  0  0  0  0  0  0  0  0  0
   18.0192  -12.5688  -16.3696 C   0  0  1  0  0  0  0  0  0  0  0  0
   16.5494  -12.4338  -16.0908 C   0  0  0  0  0  0  0  0  0  0  0  0
   16.0545  -13.3527  -15.0352 C   0  0  0  0  0  0  0  0  0  0  0  0
   14.5945  -13.3484  -14.8206 C   0  0  0  0  0  0  0  0  0  0  0  0
   13.7863  -12.6356  -15.4486 O   0  0  0  0  0  0  0  0  0  0  0  0
   18.8576  -11.4968  -15.8108 C   0  0  0  0  0  0  0  0  0  0  0  0
   19.3810  -11.5704  -14.6721 O   0  0  0  0  0  0  0  0  0  0  0  0
   14.0916  -14.2012  -13.8487 O   0  0  0  0  0  0  0  0  0  0  0  0
   19.1284  -10.2869  -16.5474 N   0  0  0  0  0  0  0  0  0  0  0  0
   19.9609   -9.2479  -15.9919 C   0  0  1  0  0  0  0  0  0  0  0  0
   21.3859   -9.3145  -16.5009 C   0  0  0  0  0  0  0  0  0  0  0  0
   22.2689   -8.3229  -15.8613 C   0  0  0  0  0  0  0  0  0  0  0  0
   21.7806   -7.5215  -15.0265 O   0  0  0  0  0  0  0  0  0  0  0  0
   19.4349   -7.9292  -16.4659 C   0  0  0  0  0  0  0  0  0  0  0  0
   18.6901   -7.9444  -17.4855 O   0  0  0  0  0  0  0  0  0  0  0  0
   23.6029   -8.2728  -16.1694 O   0  0  0  0  0  0  0  0  0  0  0  0
   14.9244   -5.8472  -16.9364 N   0  0  0  0  0  0  0  0  0  0  0  0
   15.4518   -4.5982  -16.5596 C   0  0  0  0  0  0  0  0  0  0  0  0
   14.7346   -3.5719  -16.7347 O   0  0  0  0  0  0  0  0  0  0  0  0
   16.7957   -4.3978  -15.9683 C   0  0  0  0  0  0  0  0  0  0  0  0
   17.5206   -5.6946  -15.7591 C   0  0  0  0  0  0  0  0  0  0  0  0
   18.9894   -5.5330  -16.1107 C   0  0  2  0  0  0  0  0  0  0  0  0
   19.7460   -6.7186  -15.8166 N   0  0  0  0  0  0  0  0  0  0  0  0
   19.5915   -4.3687  -15.4459 C   0  0  0  0  0  0  0  0  0  0  0  0
   19.4747   -3.0675  -15.9234 O   0  0  0  0  0  0  0  0  0  0  0  0
   20.2526   -4.5272  -14.3887 O   0  0  0  0  0  0  0  0  0  0  0  0
  2  1  1  1
  2  7  1  0
  2  3  1  0
  4  3  1  0
  4  5  1  0
  5  6  2  0
  7  8  2  0
  9  5  1  0
 10 11  1  0
 10  7  1  0
 11 12  1  6
 13 12  1  0
 14 13  2  0
 15 16  2  0
 15 11  1  0
 17 13  1  0
 19 18  1  0
 20 19  2  0
 21 19  1  0
 22 21  1  0
 23 22  1  1
 23 24  1  0
 24 15  1  0
 25 23  1  0
 26 25  1  0
 27 25  2  0
M  END
$$$$
