EDQ.pdb
     RDKit          3D

 27 26  0  0  1  0  0  0  0  0999 V2000
   17.6204  -11.1407  -13.8184 N   0  0  0  0  0  0  0  0  0  0  0  0
   16.9214  -10.1056  -14.5866 C   0  0  1  0  0  0  0  0  0  0  0  0
   15.5118  -10.5535  -14.8485 C   0  0  0  0  0  0  0  0  0  0  0  0
   15.0553  -11.6450  -13.9518 C   0  0  0  0  0  0  0  0  0  0  0  0
   13.6999  -12.1636  -14.2191 C   0  0  0  0  0  0  0  0  0  0  0  0
   13.4002  -12.9099  -15.1726 O   0  0  0  0  0  0  0  0  0  0  0  0
   17.0436   -8.8000  -13.9194 C   0  0  0  0  0  0  0  0  0  0  0  0
   16.6227   -7.7349  -14.4334 O   0  0  0  0  0  0  0  0  0  0  0  0
   12.6914  -11.7904  -13.3427 O   0  0  0  0  0  0  0  0  0  0  0  0
   17.6612   -8.6683  -12.6229 N   0  0  0  0  0  0  0  0  0  0  0  0
   17.7939   -7.3791  -11.9892 C   0  0  1  0  0  0  0  0  0  0  0  0
   17.5573   -7.4423  -10.4945 C   0  0  0  0  0  0  0  0  0  0  0  0
   17.5294   -6.1110   -9.8628 C   0  0  0  0  0  0  0  0  0  0  0  0
   17.5483   -5.0897  -10.5936 O   0  0  0  0  0  0  0  0  0  0  0  0
   19.2132   -6.9299  -12.1444 C   0  0  0  0  0  0  0  0  0  0  0  0
   20.0800   -7.5235  -11.4438 O   0  0  0  0  0  0  0  0  0  0  0  0
   17.4831   -5.9848   -8.4994 O   0  0  0  0  0  0  0  0  0  0  0  0
   22.5685   -7.6895  -16.6673 N   0  0  0  0  0  0  0  0  0  0  0  0
   22.3984   -8.3129  -15.4173 C   0  0  0  0  0  0  0  0  0  0  0  0
   22.7414   -9.5246  -15.3048 O   0  0  0  0  0  0  0  0  0  0  0  0
   21.8431   -7.6473  -14.2154 C   0  0  0  0  0  0  0  0  0  0  0  0
   21.5477   -6.1965  -14.4580 C   0  0  0  0  0  0  0  0  0  0  0  0
   20.9693   -5.5656  -13.2032 C   0  0  2  0  0  0  0  0  0  0  0  0
   19.5820   -5.8955  -13.0264 N   0  0  0  0  0  0  0  0  0  0  0  0
   21.1506   -4.1072  -13.1844 C   0  0  0  0  0  0  0  0  0  0  0  0
   22.3713   -3.4893  -12.9339 O   0  0  0  0  0  0  0  0  0  0  0  0
   20.1683   -3.3540  -13.4025 O   0  0  0  0  0  0  0  0  0  0  0  0
  2  1  1  1
  2  7  1  0
  2  3  1  0
  4  3  1  0
  4  5  1  0
  5  6  2  0
  7  8  2  0
  9  5  1  0
 10 11  1  0
 10  7  1  0
 11 12  1  1
 13 12  1  0
 14 13  2  0
 15 16  2  0
 15 11  1  0
 17 13  1  0
 19 18  1  0
 20 19  2  0
 21 19  1  0
 22 21  1  0
 23 22  1  6
 23 24  1  0
 24 15  1  0
 25 23  1  0
 26 25  1  0
 27 25  2  0
M  END
$$$$
