EDQ.pdb
     RDKit          3D

 27 26  0  0  1  0  0  0  0  0999 V2000
   14.8930  -20.1531    5.8373 N   0  0  0  0  0  0  0  0  0  0  0  0
   16.2421  -20.5166    5.3922 C   0  0  1  0  0  0  0  0  0  0  0  0
   16.3854  -20.1872    3.9337 C   0  0  0  0  0  0  0  0  0  0  0  0
   16.5823  -18.7408    3.6642 C   0  0  0  0  0  0  0  0  0  0  0  0
   16.7814  -18.3784    2.2477 C   0  0  0  0  0  0  0  0  0  0  0  0
   16.8153  -19.1933    1.3040 O   0  0  0  0  0  0  0  0  0  0  0  0
   17.2542  -19.9060    6.2683 C   0  0  0  0  0  0  0  0  0  0  0  0
   17.0438  -18.8488    6.9118 O   0  0  0  0  0  0  0  0  0  0  0  0
   16.9418  -17.0325    1.9516 O   0  0  0  0  0  0  0  0  0  0  0  0
   18.5600  -20.4936    6.4391 N   0  0  0  0  0  0  0  0  0  0  0  0
   19.4809  -19.9864    7.4271 C   0  0  1  0  0  0  0  0  0  0  0  0
   20.7400  -20.8225    7.5272 C   0  0  0  0  0  0  0  0  0  0  0  0
   20.6359  -21.8953    8.5323 C   0  0  0  0  0  0  0  0  0  0  0  0
   20.9739  -23.0625    8.2145 O   0  0  0  0  0  0  0  0  0  0  0  0
   19.9411  -18.6338    6.9809 C   0  0  0  0  0  0  0  0  0  0  0  0
   20.2205  -18.5006    5.7566 O   0  0  0  0  0  0  0  0  0  0  0  0
   20.1783  -21.6278    9.7957 O   0  0  0  0  0  0  0  0  0  0  0  0
   17.4329  -13.2282    6.8262 N   0  0  0  0  0  0  0  0  0  0  0  0
   18.7843  -12.9960    6.5105 C   0  0  0  0  0  0  0  0  0  0  0  0
   19.0990  -11.8681    6.0339 O   0  0  0  0  0  0  0  0  0  0  0  0
   19.8724  -13.9843    6.6979 C   0  0  0  0  0  0  0  0  0  0  0  0
   19.3699  -15.2772    7.2698 C   0  0  0  0  0  0  0  0  0  0  0  0
   20.5109  -16.2727    7.3888 C   0  0  2  0  0  0  0  0  0  0  0  0
   20.0620  -17.5494    7.8716 N   0  0  0  0  0  0  0  0  0  0  0  0
   21.6007  -15.7650    8.2343 C   0  0  0  0  0  0  0  0  0  0  0  0
   21.9061  -16.2865    9.4871 O   0  0  0  0  0  0  0  0  0  0  0  0
   22.3104  -14.8099    7.8296 O   0  0  0  0  0  0  0  0  0  0  0  0
  2  1  1  1
  2  7  1  0
  2  3  1  0
  4  3  1  0
  4  5  1  0
  5  6  2  0
  7  8  2  0
  9  5  1  0
 10 11  1  0
 10  7  1  0
 11 12  1  6
 13 12  1  0
 14 13  2  0
 15 16  2  0
 15 11  1  0
 17 13  1  0
 19 18  1  0
 20 19  2  0
 21 19  1  0
 22 21  1  0
 23 22  1  1
 23 24  1  0
 24 15  1  0
 25 23  1  0
 26 25  1  0
 27 25  2  0
M  END
$$$$
