EDQ.pdb
     RDKit          3D

 27 26  0  0  1  0  0  0  0  0999 V2000
   17.8910  -11.3067  -16.0833 N   0  0  0  0  0  0  0  0  0  0  0  0
   17.0687  -11.3837  -14.8716 C   0  0  1  0  0  0  0  0  0  0  0  0
   17.0721  -12.7969  -14.3627 C   0  0  0  0  0  0  0  0  0  0  0  0
   16.4708  -13.7731  -15.3056 C   0  0  0  0  0  0  0  0  0  0  0  0
   16.4470  -15.1741  -14.8425 C   0  0  0  0  0  0  0  0  0  0  0  0
   17.1870  -16.0788  -15.2779 O   0  0  0  0  0  0  0  0  0  0  0  0
   17.4978  -10.3713  -13.8942 C   0  0  0  0  0  0  0  0  0  0  0  0
   17.4603  -10.5679  -12.6549 O   0  0  0  0  0  0  0  0  0  0  0  0
   15.5331  -15.5012  -13.8513 O   0  0  0  0  0  0  0  0  0  0  0  0
   17.9910   -9.0812  -14.3089 N   0  0  0  0  0  0  0  0  0  0  0  0
   18.4949   -8.1324  -13.3460 C   0  0  1  0  0  0  0  0  0  0  0  0
   19.4193   -7.1087  -13.9719 C   0  0  0  0  0  0  0  0  0  0  0  0
   20.7131   -7.6822  -14.3835 C   0  0  0  0  0  0  0  0  0  0  0  0
   21.4436   -8.2218  -13.5159 O   0  0  0  0  0  0  0  0  0  0  0  0
   17.3353   -7.3457  -12.8197 C   0  0  0  0  0  0  0  0  0  0  0  0
   16.3832   -7.1269  -13.6198 O   0  0  0  0  0  0  0  0  0  0  0  0
   21.1165   -7.6300  -15.6918 O   0  0  0  0  0  0  0  0  0  0  0  0
   14.9293   -7.2387   -6.9184 N   0  0  0  0  0  0  0  0  0  0  0  0
   14.2219   -6.2999   -7.6921 C   0  0  0  0  0  0  0  0  0  0  0  0
   13.2214   -5.7307   -7.1692 O   0  0  0  0  0  0  0  0  0  0  0  0
   14.5675   -5.9277   -9.0841 C   0  0  0  0  0  0  0  0  0  0  0  0
   15.7637   -6.6789   -9.5900 C   0  0  0  0  0  0  0  0  0  0  0  0
   16.0996   -6.2332  -11.0027 C   0  0  2  0  0  0  0  0  0  0  0  0
   17.2919   -6.8650  -11.4964 N   0  0  0  0  0  0  0  0  0  0  0  0
   16.2191   -4.7720  -11.1069 C   0  0  0  0  0  0  0  0  0  0  0  0
   15.1541   -3.9362  -11.4263 O   0  0  0  0  0  0  0  0  0  0  0  0
   17.3302   -4.2212  -10.9022 O   0  0  0  0  0  0  0  0  0  0  0  0
  2  1  1  6
  2  7  1  0
  2  3  1  0
  4  3  1  0
  4  5  1  0
  5  6  2  0
  7  8  2  0
  9  5  1  0
 10 11  1  0
 10  7  1  0
 11 12  1  6
 13 12  1  0
 14 13  2  0
 15 16  2  0
 15 11  1  0
 17 13  1  0
 19 18  1  0
 20 19  2  0
 21 19  1  0
 22 21  1  0
 23 22  1  1
 23 24  1  0
 24 15  1  0
 25 23  1  0
 26 25  1  0
 27 25  2  0
M  END
$$$$
