MDW.pdb
     RDKit          3D

 31 32  0  0  1  0  0  0  0  0999 V2000
   21.3887  -21.5684   -3.0320 C   0  0  0  0  0  0  0  0  0  0  0  0
   20.0171  -22.7155   -2.7870 S   0  0  0  0  0  0  0  0  0  0  0  0
   19.3002  -23.2865   -4.3574 C   0  0  0  0  0  0  0  0  0  0  0  0
   20.2489  -23.0377   -5.5067 C   0  0  0  0  0  0  0  0  0  0  0  0
   19.6309  -23.3335   -6.8499 C   0  0  2  0  0  0  0  0  0  0  0  0
   19.3184  -24.7401   -6.9049 N   0  0  0  0  0  0  0  0  0  0  0  0
   20.5964  -22.9907   -7.9469 C   0  0  0  0  0  0  0  0  0  0  0  0
   21.5369  -23.8275   -8.1221 O   0  0  0  0  0  0  0  0  0  0  0  0
   20.4617  -21.8232   -8.7207 N   0  0  0  0  0  0  0  0  0  0  0  0
   21.3488  -21.5481   -9.8180 C   0  0  1  0  0  0  0  0  0  0  0  0
   20.6581  -20.7992  -10.9105 C   0  0  0  0  0  0  0  0  0  0  0  0
   21.4698  -20.5453  -12.1155 C   0  0  0  0  0  0  0  0  0  0  0  0
   22.6510  -20.9466  -12.2795 O   0  0  0  0  0  0  0  0  0  0  0  0
   22.5561  -20.8067   -9.3662 C   0  0  0  0  0  0  0  0  0  0  0  0
   22.4295  -19.6307   -8.9905 O   0  0  0  0  0  0  0  0  0  0  0  0
   20.9452  -19.8109  -13.1878 O   0  0  0  0  0  0  0  0  0  0  0  0
   23.8476  -21.3787   -9.3433 N   0  0  0  0  0  0  0  0  0  0  0  0
   25.0584  -20.5580   -9.0997 C   0  0  1  0  0  0  0  0  0  0  0  0
   25.4807  -20.6830   -7.6827 C   0  0  0  0  0  0  0  0  0  0  0  0
   26.6309  -19.8911   -7.2427 C   0  0  0  0  0  0  0  0  0  0  0  0
   27.1263  -18.7313   -7.8509 C   0  0  0  0  0  0  0  0  0  0  0  0
   28.2107  -18.2846   -7.2051 N   0  0  0  0  0  0  0  0  0  0  0  0
   28.4423  -19.1287   -6.1780 C   0  0  0  0  0  0  0  0  0  0  0  0
   29.4169  -19.1422   -5.1785 C   0  0  0  0  0  0  0  0  0  0  0  0
   29.4324  -20.1185   -4.2111 C   0  0  0  0  0  0  0  0  0  0  0  0
   28.4670  -21.1042   -4.2275 C   0  0  0  0  0  0  0  0  0  0  0  0
   27.5018  -21.1141   -5.1961 C   0  0  0  0  0  0  0  0  0  0  0  0
   27.4785  -20.1281   -6.1821 C   0  0  0  0  0  0  0  0  0  0  0  0
   26.0555  -20.9122  -10.1074 C   0  0  0  0  0  0  0  0  0  0  0  0
   27.1803  -20.1034  -10.3718 O   0  0  0  0  0  0  0  0  0  0  0  0
   25.9740  -21.9625  -10.8044 O   0  0  0  0  0  0  0  0  0  0  0  0
  1  2  1  0
  3  4  1  0
  3  2  1  0
  5  4  1  0
  5  6  1  1
  7  8  2  0
  7  5  1  0
  9  7  1  0
 10  9  1  0
 10 11  1  6
 12 16  1  0
 12 11  1  0
 13 12  2  0
 14 17  1  0
 14 10  1  0
 15 14  2  0
 18 29  1  0
 18 17  1  0
 18 19  1  1
 19 20  1  0
 20 21  2  0
 20 28  1  0
 21 22  1  0
 22 23  1  0
 23 24  2  0
 25 24  1  0
 26 25  2  0
 27 28  2  0
 27 26  1  0
 28 23  1  0
 29 30  1  0
 31 29  2  0
M  END
$$$$
