MDW.pdb
     RDKit          3D

 31 32  0  0  1  0  0  0  0  0999 V2000
   28.5870  -17.5003  -16.0027 C   0  0  0  0  0  0  0  0  0  0  0  0
   27.6919  -16.2417  -16.9364 S   0  0  0  0  0  0  0  0  0  0  0  0
   26.6806  -15.1727  -15.8684 C   0  0  0  0  0  0  0  0  0  0  0  0
   25.9435  -15.9871  -14.8310 C   0  0  0  0  0  0  0  0  0  0  0  0
   25.1216  -17.0977  -15.4348 C   0  0  2  0  0  0  0  0  0  0  0  0
   23.8949  -16.5312  -15.9382 N   0  0  0  0  0  0  0  0  0  0  0  0
   24.8066  -18.1299  -14.3916 C   0  0  0  0  0  0  0  0  0  0  0  0
   23.8864  -17.8115  -13.5746 O   0  0  0  0  0  0  0  0  0  0  0  0
   25.4876  -19.3598  -14.3302 N   0  0  0  0  0  0  0  0  0  0  0  0
   25.1696  -20.3402  -13.3280 C   0  0  1  0  0  0  0  0  0  0  0  0
   25.1896  -21.7255  -13.8866 C   0  0  0  0  0  0  0  0  0  0  0  0
   24.7008  -22.7811  -12.9797 C   0  0  0  0  0  0  0  0  0  0  0  0
   24.1418  -22.5699  -11.8725 O   0  0  0  0  0  0  0  0  0  0  0  0
   26.0864  -20.2398  -12.1616 C   0  0  0  0  0  0  0  0  0  0  0  0
   27.2695  -19.9200  -12.3570 O   0  0  0  0  0  0  0  0  0  0  0  0
   24.8401  -24.1339  -13.3184 O   0  0  0  0  0  0  0  0  0  0  0  0
   25.6744  -20.4920  -10.8340 N   0  0  0  0  0  0  0  0  0  0  0  0
   26.6213  -20.4093   -9.6959 C   0  0  1  0  0  0  0  0  0  0  0  0
   25.9401  -19.8372   -8.5082 C   0  0  0  0  0  0  0  0  0  0  0  0
   26.7743  -19.2120   -7.4802 C   0  0  0  0  0  0  0  0  0  0  0  0
   27.2557  -17.8971   -7.4831 C   0  0  0  0  0  0  0  0  0  0  0  0
   28.0160  -17.6693   -6.4049 N   0  0  0  0  0  0  0  0  0  0  0  0
   28.0463  -18.8112   -5.6865 C   0  0  0  0  0  0  0  0  0  0  0  0
   28.6632  -19.1415   -4.4785 C   0  0  0  0  0  0  0  0  0  0  0  0
   28.5273  -20.3934   -3.9276 C   0  0  0  0  0  0  0  0  0  0  0  0
   27.7671  -21.3421   -4.5800 C   0  0  0  0  0  0  0  0  0  0  0  0
   27.1530  -21.0442   -5.7650 C   0  0  0  0  0  0  0  0  0  0  0  0
   27.2858  -19.7771   -6.3320 C   0  0  0  0  0  0  0  0  0  0  0  0
   27.2350  -21.7239   -9.5211 C   0  0  0  0  0  0  0  0  0  0  0  0
   28.4970  -21.8920   -8.9143 O   0  0  0  0  0  0  0  0  0  0  0  0
   26.6759  -22.7908   -9.9015 O   0  0  0  0  0  0  0  0  0  0  0  0
  1  2  1  0
  3  4  1  0
  3  2  1  0
  5  4  1  0
  5  6  1  1
  7  8  2  0
  7  5  1  0
  9  7  1  0
 10  9  1  0
 10 11  1  6
 12 16  1  0
 12 11  1  0
 13 12  2  0
 14 17  1  0
 14 10  1  0
 15 14  2  0
 18 29  1  0
 18 17  1  0
 18 19  1  1
 19 20  1  0
 20 21  2  0
 20 28  1  0
 21 22  1  0
 22 23  1  0
 23 24  2  0
 25 24  1  0
 26 25  2  0
 27 28  2  0
 27 26  1  0
 28 23  1  0
 29 30  1  0
 31 29  2  0
M  END
$$$$
