MDW.pdb
     RDKit          3D

 31 32  0  0  1  0  0  0  0  0999 V2000
   24.5100  -33.0065  -14.3498 C   0  0  0  0  0  0  0  0  0  0  0  0
   26.2676  -32.8339  -14.7213 S   0  0  0  0  0  0  0  0  0  0  0  0
   26.5691  -31.8110  -16.1940 C   0  0  0  0  0  0  0  0  0  0  0  0
   25.7345  -30.5521  -16.1577 C   0  0  0  0  0  0  0  0  0  0  0  0
   25.8846  -29.7147  -17.4026 C   0  0  2  0  0  0  0  0  0  0  0  0
   27.2239  -29.1811  -17.4310 N   0  0  0  0  0  0  0  0  0  0  0  0
   24.8951  -28.5861  -17.3856 C   0  0  0  0  0  0  0  0  0  0  0  0
   25.3874  -27.4371  -17.1553 O   0  0  0  0  0  0  0  0  0  0  0  0
   23.5217  -28.7953  -17.6094 N   0  0  0  0  0  0  0  0  0  0  0  0
   22.5926  -27.6984  -17.6280 C   0  0  1  0  0  0  0  0  0  0  0  0
   21.3886  -28.0102  -18.4555 C   0  0  0  0  0  0  0  0  0  0  0  0
   21.5986  -27.9809  -19.9152 C   0  0  0  0  0  0  0  0  0  0  0  0
   22.5913  -27.4577  -20.4842 O   0  0  0  0  0  0  0  0  0  0  0  0
   22.1869  -27.3085  -16.2515 C   0  0  0  0  0  0  0  0  0  0  0  0
   21.6901  -28.1693  -15.5083 O   0  0  0  0  0  0  0  0  0  0  0  0
   20.6621  -28.5592  -20.7827 O   0  0  0  0  0  0  0  0  0  0  0  0
   22.3403  -25.9986  -15.7452 N   0  0  0  0  0  0  0  0  0  0  0  0
   22.1094  -25.6848  -14.3145 C   0  0  1  0  0  0  0  0  0  0  0  0
   23.3771  -25.2481  -13.6786 C   0  0  0  0  0  0  0  0  0  0  0  0
   24.0377  -24.0602  -14.2227 C   0  0  0  0  0  0  0  0  0  0  0  0
   23.6739  -22.7270  -13.9970 C   0  0  0  0  0  0  0  0  0  0  0  0
   24.4741  -21.8966  -14.6772 N   0  0  0  0  0  0  0  0  0  0  0  0
   25.3632  -22.6570  -15.3497 C   0  0  0  0  0  0  0  0  0  0  0  0
   26.4256  -22.3299  -16.1943 C   0  0  0  0  0  0  0  0  0  0  0  0
   27.2158  -23.3041  -16.7560 C   0  0  0  0  0  0  0  0  0  0  0  0
   26.9550  -24.6307  -16.4805 C   0  0  0  0  0  0  0  0  0  0  0  0
   25.9199  -24.9778  -15.6571 C   0  0  0  0  0  0  0  0  0  0  0  0
   25.1123  -23.9964  -15.0832 C   0  0  0  0  0  0  0  0  0  0  0  0
   20.9871  -24.7527  -14.2309 C   0  0  0  0  0  0  0  0  0  0  0  0
   20.3030  -24.5030  -13.0230 O   0  0  0  0  0  0  0  0  0  0  0  0
   20.5589  -24.1130  -15.2324 O   0  0  0  0  0  0  0  0  0  0  0  0
  1  2  1  0
  3  4  1  0
  3  2  1  0
  5  4  1  0
  5  6  1  1
  7  8  2  0
  7  5  1  0
  9  7  1  0
 10  9  1  0
 10 11  1  6
 12 16  1  0
 12 11  1  0
 13 12  2  0
 14 17  1  0
 14 10  1  0
 15 14  2  0
 18 29  1  0
 18 17  1  0
 18 19  1  6
 19 20  1  0
 20 21  2  0
 20 28  1  0
 21 22  1  0
 22 23  1  0
 23 24  2  0
 25 24  1  0
 26 25  2  0
 27 28  2  0
 27 26  1  0
 28 23  1  0
 29 30  1  0
 31 29  2  0
M  END
$$$$
