MDW.pdb
     RDKit          3D

 31 32  0  0  1  0  0  0  0  0999 V2000
   28.5163  -18.6936   -8.0911 C   0  0  0  0  0  0  0  0  0  0  0  0
   27.5256  -19.6123   -6.8945 S   0  0  0  0  0  0  0  0  0  0  0  0
   26.3807  -20.7789   -7.6907 C   0  0  0  0  0  0  0  0  0  0  0  0
   26.0858  -20.3617   -9.1125 C   0  0  0  0  0  0  0  0  0  0  0  0
   26.3921  -21.4450  -10.1156 C   0  0  2  0  0  0  0  0  0  0  0  0
   27.8126  -21.6919  -10.0960 N   0  0  0  0  0  0  0  0  0  0  0  0
   25.9781  -21.0053  -11.4897 C   0  0  0  0  0  0  0  0  0  0  0  0
   26.7010  -20.0981  -12.0093 O   0  0  0  0  0  0  0  0  0  0  0  0
   24.8666  -21.5636  -12.1478 N   0  0  0  0  0  0  0  0  0  0  0  0
   24.6185  -21.3096  -13.5409 C   0  0  1  0  0  0  0  0  0  0  0  0
   24.1235  -22.5311  -14.2440 C   0  0  0  0  0  0  0  0  0  0  0  0
   25.1254  -23.5942  -14.4478 C   0  0  0  0  0  0  0  0  0  0  0  0
   24.9811  -24.7911  -14.0877 O   0  0  0  0  0  0  0  0  0  0  0  0
   23.6637  -20.1845  -13.7250 C   0  0  0  0  0  0  0  0  0  0  0  0
   22.7076  -20.0776  -12.9410 O   0  0  0  0  0  0  0  0  0  0  0  0
   26.3442  -23.3145  -15.0805 O   0  0  0  0  0  0  0  0  0  0  0  0
   23.7925  -19.2256  -14.7543 N   0  0  0  0  0  0  0  0  0  0  0  0
   22.7312  -18.2258  -15.0242 C   0  0  1  0  0  0  0  0  0  0  0  0
   23.2243  -17.2072  -15.9840 C   0  0  0  0  0  0  0  0  0  0  0  0
   22.2744  -16.1959  -16.4515 C   0  0  0  0  0  0  0  0  0  0  0  0
   21.9135  -15.0192  -15.7838 C   0  0  0  0  0  0  0  0  0  0  0  0
   20.9937  -14.3421  -16.4822 N   0  0  0  0  0  0  0  0  0  0  0  0
   20.7390  -15.0498  -17.6026 C   0  0  0  0  0  0  0  0  0  0  0  0
   19.8895  -14.8156  -18.6854 C   0  0  0  0  0  0  0  0  0  0  0  0
   19.8186  -15.6954  -19.7391 C   0  0  0  0  0  0  0  0  0  0  0  0
   20.6013  -16.8316  -19.7273 C   0  0  0  0  0  0  0  0  0  0  0  0
   21.4411  -17.0847  -18.6782 C   0  0  0  0  0  0  0  0  0  0  0  0
   21.5193  -16.1984  -17.6044 C   0  0  0  0  0  0  0  0  0  0  0  0
   21.5186  -18.9453  -15.4080 C   0  0  0  0  0  0  0  0  0  0  0  0
   21.5444  -20.0573  -16.2751 O   0  0  0  0  0  0  0  0  0  0  0  0
   20.3728  -18.6180  -14.9889 O   0  0  0  0  0  0  0  0  0  0  0  0
  1  2  1  0
  3  4  1  0
  3  2  1  0
  5  4  1  0
  5  6  1  6
  7  8  2  0
  7  5  1  0
  9  7  1  0
 10  9  1  0
 10 11  1  1
 12 16  1  0
 12 11  1  0
 13 12  2  0
 14 17  1  0
 14 10  1  0
 15 14  2  0
 18 29  1  0
 18 17  1  0
 18 19  1  6
 19 20  1  0
 20 21  2  0
 20 28  1  0
 21 22  1  0
 22 23  1  0
 23 24  2  0
 25 24  1  0
 26 25  2  0
 27 28  2  0
 27 26  1  0
 28 23  1  0
 29 30  1  0
 31 29  2  0
M  END
$$$$
