MDW.pdb
     RDKit          3D

 31 32  0  0  1  0  0  0  0  0999 V2000
   30.1472  -15.5951  -16.2877 C   0  0  0  0  0  0  0  0  0  0  0  0
   29.9942  -17.1515  -17.1886 S   0  0  0  0  0  0  0  0  0  0  0  0
   28.2672  -17.5553  -17.5890 C   0  0  0  0  0  0  0  0  0  0  0  0
   27.4061  -17.5375  -16.3477 C   0  0  0  0  0  0  0  0  0  0  0  0
   27.7011  -18.6846  -15.4146 C   0  0  2  0  0  0  0  0  0  0  0  0
   27.8118  -19.8895  -16.1989 N   0  0  0  0  0  0  0  0  0  0  0  0
   26.5893  -18.8353  -14.4175 C   0  0  0  0  0  0  0  0  0  0  0  0
   26.3457  -17.8030  -13.7172 O   0  0  0  0  0  0  0  0  0  0  0  0
   25.8735  -20.0385  -14.2752 N   0  0  0  0  0  0  0  0  0  0  0  0
   24.8193  -20.1701  -13.3067 C   0  0  1  0  0  0  0  0  0  0  0  0
   23.6851  -20.9866  -13.8344 C   0  0  0  0  0  0  0  0  0  0  0  0
   22.5563  -21.1780  -12.9045 C   0  0  0  0  0  0  0  0  0  0  0  0
   21.8521  -22.2186  -12.8397 O   0  0  0  0  0  0  0  0  0  0  0  0
   25.3232  -20.7476  -12.0324 C   0  0  0  0  0  0  0  0  0  0  0  0
   25.8295  -21.8806  -12.0486 O   0  0  0  0  0  0  0  0  0  0  0  0
   22.1927  -20.1662  -12.0055 O   0  0  0  0  0  0  0  0  0  0  0  0
   25.2535  -20.0660  -10.7970 N   0  0  0  0  0  0  0  0  0  0  0  0
   25.6572  -20.7145   -9.5261 C   0  0  1  0  0  0  0  0  0  0  0  0
   26.8528  -20.0367   -8.9667 C   0  0  0  0  0  0  0  0  0  0  0  0
   27.3096  -20.4485   -7.6379 C   0  0  0  0  0  0  0  0  0  0  0  0
   27.1555  -21.7138   -7.0584 C   0  0  0  0  0  0  0  0  0  0  0  0
   27.6610  -21.7311   -5.8188 N   0  0  0  0  0  0  0  0  0  0  0  0
   28.1487  -20.4984   -5.5668 C   0  0  0  0  0  0  0  0  0  0  0  0
   28.7939  -19.9559   -4.4540 C   0  0  0  0  0  0  0  0  0  0  0  0
   29.2228  -18.6501   -4.4449 C   0  0  0  0  0  0  0  0  0  0  0  0
   29.0121  -17.8598   -5.5561 C   0  0  0  0  0  0  0  0  0  0  0  0
   28.3819  -18.3667   -6.6588 C   0  0  0  0  0  0  0  0  0  0  0  0
   27.9425  -19.6901   -6.6769 C   0  0  0  0  0  0  0  0  0  0  0  0
   24.4832  -20.7799   -8.6584 C   0  0  0  0  0  0  0  0  0  0  0  0
   24.3750  -21.7120   -7.6055 O   0  0  0  0  0  0  0  0  0  0  0  0
   23.4929  -20.0078   -8.7956 O   0  0  0  0  0  0  0  0  0  0  0  0
  1  2  1  0
  3  4  1  0
  3  2  1  0
  5  4  1  0
  5  6  1  6
  7  8  2  0
  7  5  1  0
  9  7  1  0
 10  9  1  0
 10 11  1  6
 12 16  1  0
 12 11  1  0
 13 12  2  0
 14 17  1  0
 14 10  1  0
 15 14  2  0
 18 29  1  0
 18 17  1  0
 18 19  1  1
 19 20  1  0
 20 21  2  0
 20 28  1  0
 21 22  1  0
 22 23  1  0
 23 24  2  0
 25 24  1  0
 26 25  2  0
 27 28  2  0
 27 26  1  0
 28 23  1  0
 29 30  1  0
 31 29  2  0
M  END
$$$$
