MDW.pdb
     RDKit          3D

 31 32  0  0  1  0  0  0  0  0999 V2000
   30.2269  -19.4577  -15.5647 C   0  0  0  0  0  0  0  0  0  0  0  0
   29.3579  -18.1394  -16.4388 S   0  0  0  0  0  0  0  0  0  0  0  0
   28.5439  -16.9737  -15.3055 C   0  0  0  0  0  0  0  0  0  0  0  0
   27.4894  -17.6712  -14.4782 C   0  0  0  0  0  0  0  0  0  0  0  0
   26.5678  -18.5291  -15.3078 C   0  0  2  0  0  0  0  0  0  0  0  0
   25.7303  -17.6613  -16.0981 N   0  0  0  0  0  0  0  0  0  0  0  0
   25.7101  -19.3762  -14.4136 C   0  0  0  0  0  0  0  0  0  0  0  0
   24.7408  -18.7694  -13.8587 O   0  0  0  0  0  0  0  0  0  0  0  0
   25.9690  -20.7443  -14.2099 N   0  0  0  0  0  0  0  0  0  0  0  0
   25.2131  -21.5139  -13.2596 C   0  0  1  0  0  0  0  0  0  0  0  0
   25.2689  -22.9751  -13.5652 C   0  0  0  0  0  0  0  0  0  0  0  0
   24.0560  -23.7407  -13.2212 C   0  0  0  0  0  0  0  0  0  0  0  0
   23.0076  -23.2401  -12.7381 O   0  0  0  0  0  0  0  0  0  0  0  0
   25.6720  -21.2588  -11.8683 C   0  0  0  0  0  0  0  0  0  0  0  0
   26.7633  -21.7241  -11.5040 O   0  0  0  0  0  0  0  0  0  0  0  0
   24.0057  -25.1267  -13.4229 O   0  0  0  0  0  0  0  0  0  0  0  0
   24.9222  -20.5084  -10.9353 N   0  0  0  0  0  0  0  0  0  0  0  0
   25.0091  -20.7677   -9.4779 C   0  0  1  0  0  0  0  0  0  0  0  0
   25.9118  -19.7788   -8.8384 C   0  0  0  0  0  0  0  0  0  0  0  0
   27.2440  -20.2335   -8.4359 C   0  0  0  0  0  0  0  0  0  0  0  0
   28.0897  -21.0820   -9.1609 C   0  0  0  0  0  0  0  0  0  0  0  0
   29.2187  -21.3182   -8.4812 N   0  0  0  0  0  0  0  0  0  0  0  0
   29.1362  -20.6399   -7.3176 C   0  0  0  0  0  0  0  0  0  0  0  0
   30.0198  -20.5102   -6.2445 C   0  0  0  0  0  0  0  0  0  0  0  0
   29.7099  -19.7298   -5.1563 C   0  0  0  0  0  0  0  0  0  0  0  0
   28.5031  -19.0618   -5.1229 C   0  0  0  0  0  0  0  0  0  0  0  0
   27.6197  -19.1727   -6.1608 C   0  0  0  0  0  0  0  0  0  0  0  0
   27.9250  -19.9627   -7.2687 C   0  0  0  0  0  0  0  0  0  0  0  0
   23.6488  -20.8411   -8.9493 C   0  0  0  0  0  0  0  0  0  0  0  0
   22.5147  -20.5886   -9.7489 O   0  0  0  0  0  0  0  0  0  0  0  0
   23.4023  -21.1345   -7.7457 O   0  0  0  0  0  0  0  0  0  0  0  0
  1  2  1  0
  3  4  1  0
  3  2  1  0
  5  4  1  0
  5  6  1  1
  7  8  2  0
  7  5  1  0
  9  7  1  0
 10  9  1  0
 10 11  1  6
 12 16  1  0
 12 11  1  0
 13 12  2  0
 14 17  1  0
 14 10  1  0
 15 14  2  0
 18 29  1  0
 18 17  1  0
 18 19  1  1
 19 20  1  0
 20 21  2  0
 20 28  1  0
 21 22  1  0
 22 23  1  0
 23 24  2  0
 25 24  1  0
 26 25  2  0
 27 28  2  0
 27 26  1  0
 28 23  1  0
 29 30  1  0
 31 29  2  0
M  END
$$$$
