MDW.pdb
     RDKit          3D

 31 32  0  0  1  0  0  0  0  0999 V2000
   27.0437  -32.1833   -2.7484 C   0  0  0  0  0  0  0  0  0  0  0  0
   26.1665  -33.1988   -3.9553 S   0  0  0  0  0  0  0  0  0  0  0  0
   24.4566  -32.6407   -4.2207 C   0  0  0  0  0  0  0  0  0  0  0  0
   23.7501  -32.4179   -2.9039 C   0  0  0  0  0  0  0  0  0  0  0  0
   22.6289  -33.3982   -2.6683 C   0  0  2  0  0  0  0  0  0  0  0  0
   21.5345  -33.0530   -3.5414 N   0  0  0  0  0  0  0  0  0  0  0  0
   22.1735  -33.3250   -1.2399 C   0  0  0  0  0  0  0  0  0  0  0  0
   21.3821  -32.3672   -0.9718 O   0  0  0  0  0  0  0  0  0  0  0  0
   22.5984  -34.2552   -0.2733 N   0  0  0  0  0  0  0  0  0  0  0  0
   22.1697  -34.1583    1.0954 C   0  0  1  0  0  0  0  0  0  0  0  0
   22.5490  -35.3724    1.8788 C   0  0  0  0  0  0  0  0  0  0  0  0
   21.8317  -36.6093    1.5167 C   0  0  0  0  0  0  0  0  0  0  0  0
   22.0975  -37.7502    1.9756 O   0  0  0  0  0  0  0  0  0  0  0  0
   22.7074  -32.9342    1.7464 C   0  0  0  0  0  0  0  0  0  0  0  0
   23.8460  -32.5460    1.4413 O   0  0  0  0  0  0  0  0  0  0  0  0
   20.7705  -36.5772    0.6018 O   0  0  0  0  0  0  0  0  0  0  0  0
   21.9815  -32.1870    2.7006 N   0  0  0  0  0  0  0  0  0  0  0  0
   22.4602  -30.8704    3.1865 C   0  0  1  0  0  0  0  0  0  0  0  0
   22.6554  -29.9463    2.0420 C   0  0  0  0  0  0  0  0  0  0  0  0
   21.7916  -28.7666    1.9645 C   0  0  0  0  0  0  0  0  0  0  0  0
   21.2229  -28.0775    3.0425 C   0  0  0  0  0  0  0  0  0  0  0  0
   20.4601  -27.0665    2.6083 N   0  0  0  0  0  0  0  0  0  0  0  0
   20.5141  -27.0732    1.2600 C   0  0  0  0  0  0  0  0  0  0  0  0
   19.9334  -26.2480    0.2953 C   0  0  0  0  0  0  0  0  0  0  0  0
   20.1589  -26.4505   -1.0454 C   0  0  0  0  0  0  0  0  0  0  0  0
   20.9744  -27.4887   -1.4462 C   0  0  0  0  0  0  0  0  0  0  0  0
   21.5548  -28.3120   -0.5214 C   0  0  0  0  0  0  0  0  0  0  0  0
   21.3312  -28.1148    0.8409 C   0  0  0  0  0  0  0  0  0  0  0  0
   21.5516  -30.4182    4.2377 C   0  0  0  0  0  0  0  0  0  0  0  0
   21.9415  -29.4858    5.2215 O   0  0  0  0  0  0  0  0  0  0  0  0
   20.3620  -30.8325    4.3324 O   0  0  0  0  0  0  0  0  0  0  0  0
  1  2  1  0
  3  4  1  0
  3  2  1  0
  5  4  1  0
  5  6  1  6
  7  8  2  0
  7  5  1  0
  9  7  1  0
 10  9  1  0
 10 11  1  1
 12 16  1  0
 12 11  1  0
 13 12  2  0
 14 17  1  0
 14 10  1  0
 15 14  2  0
 18 29  1  0
 18 17  1  0
 18 19  1  6
 19 20  1  0
 20 21  2  0
 20 28  1  0
 21 22  1  0
 22 23  1  0
 23 24  2  0
 25 24  1  0
 26 25  2  0
 27 28  2  0
 27 26  1  0
 28 23  1  0
 29 30  1  0
 31 29  2  0
M  END
$$$$
