MDW.pdb
     RDKit          3D

 31 32  0  0  1  0  0  0  0  0999 V2000
   31.7526  -23.0427   -9.8120 C   0  0  0  0  0  0  0  0  0  0  0  0
   32.9384  -22.3648  -10.9916 S   0  0  0  0  0  0  0  0  0  0  0  0
   32.1566  -21.8734  -12.5578 C   0  0  0  0  0  0  0  0  0  0  0  0
   30.7991  -21.2565  -12.3142 C   0  0  0  0  0  0  0  0  0  0  0  0
   30.0924  -20.8750  -13.5903 C   0  0  2  0  0  0  0  0  0  0  0  0
   30.8298  -19.8042  -14.2139 N   0  0  0  0  0  0  0  0  0  0  0  0
   28.6969  -20.4128  -13.2868 C   0  0  0  0  0  0  0  0  0  0  0  0
   28.5931  -19.1951  -12.9376 O   0  0  0  0  0  0  0  0  0  0  0  0
   27.5885  -21.2742  -13.3845 N   0  0  0  0  0  0  0  0  0  0  0  0
   26.2770  -20.8533  -12.9725 C   0  0  1  0  0  0  0  0  0  0  0  0
   25.2197  -21.3595  -13.8984 C   0  0  0  0  0  0  0  0  0  0  0  0
   23.8320  -21.0557  -13.5014 C   0  0  0  0  0  0  0  0  0  0  0  0
   22.8638  -21.8501  -13.6220 O   0  0  0  0  0  0  0  0  0  0  0  0
   25.9865  -21.2745  -11.5762 C   0  0  0  0  0  0  0  0  0  0  0  0
   26.2534  -22.4374  -11.2349 O   0  0  0  0  0  0  0  0  0  0  0  0
   23.5048  -19.8116  -12.9453 O   0  0  0  0  0  0  0  0  0  0  0  0
   25.4183  -20.4108  -10.6135 N   0  0  0  0  0  0  0  0  0  0  0  0
   25.2999  -20.8035   -9.1886 C   0  0  1  0  0  0  0  0  0  0  0  0
   26.4812  -20.3240   -8.4292 C   0  0  0  0  0  0  0  0  0  0  0  0
   26.5008  -20.5548   -6.9835 C   0  0  0  0  0  0  0  0  0  0  0  0
   25.6666  -21.4209   -6.2661 C   0  0  0  0  0  0  0  0  0  0  0  0
   25.9353  -21.3594   -4.9560 N   0  0  0  0  0  0  0  0  0  0  0  0
   26.9345  -20.4672   -4.7925 C   0  0  0  0  0  0  0  0  0  0  0  0
   27.6171  -20.0230   -3.6587 C   0  0  0  0  0  0  0  0  0  0  0  0
   28.6329  -19.1019   -3.7535 C   0  0  0  0  0  0  0  0  0  0  0  0
   28.9852  -18.6064   -4.9921 C   0  0  0  0  0  0  0  0  0  0  0  0
   28.3317  -19.0247   -6.1182 C   0  0  0  0  0  0  0  0  0  0  0  0
   27.2994  -19.9583   -6.0318 C   0  0  0  0  0  0  0  0  0  0  0  0
   23.9942  -20.3612   -8.7041 C   0  0  0  0  0  0  0  0  0  0  0  0
   23.1422  -19.5424   -9.4741 O   0  0  0  0  0  0  0  0  0  0  0  0
   23.5463  -20.6828   -7.5676 O   0  0  0  0  0  0  0  0  0  0  0  0
  1  2  1  0
  3  4  1  0
  3  2  1  0
  5  4  1  0
  5  6  1  1
  7  8  2  0
  7  5  1  0
  9  7  1  0
 10  9  1  0
 10 11  1  6
 12 16  1  0
 12 11  1  0
 13 12  2  0
 14 17  1  0
 14 10  1  0
 15 14  2  0
 18 29  1  0
 18 17  1  0
 18 19  1  1
 19 20  1  0
 20 21  2  0
 20 28  1  0
 21 22  1  0
 22 23  1  0
 23 24  2  0
 25 24  1  0
 26 25  2  0
 27 28  2  0
 27 26  1  0
 28 23  1  0
 29 30  1  0
 31 29  2  0
M  END
$$$$
