MDW.pdb
     RDKit          3D

 31 32  0  0  1  0  0  0  0  0999 V2000
   33.3292  -23.9320  -11.9346 C   0  0  0  0  0  0  0  0  0  0  0  0
   32.0063  -23.3673  -13.0245 S   0  0  0  0  0  0  0  0  0  0  0  0
   32.5636  -23.1581  -14.7426 C   0  0  0  0  0  0  0  0  0  0  0  0
   31.4298  -22.6918  -15.6256 C   0  0  0  0  0  0  0  0  0  0  0  0
   30.5586  -23.8248  -16.1061 C   0  0  2  0  0  0  0  0  0  0  0  0
   31.3068  -24.5948  -17.0686 N   0  0  0  0  0  0  0  0  0  0  0  0
   29.3184  -23.2809  -16.7537 C   0  0  0  0  0  0  0  0  0  0  0  0
   29.4093  -23.0651  -18.0029 O   0  0  0  0  0  0  0  0  0  0  0  0
   28.1434  -23.0305  -16.0211 N   0  0  0  0  0  0  0  0  0  0  0  0
   27.0263  -22.3456  -16.6125 C   0  0  1  0  0  0  0  0  0  0  0  0
   26.5188  -23.0611  -17.8217 C   0  0  0  0  0  0  0  0  0  0  0  0
   25.3353  -22.4589  -18.4636 C   0  0  0  0  0  0  0  0  0  0  0  0
   25.1163  -21.2225  -18.5425 O   0  0  0  0  0  0  0  0  0  0  0  0
   25.9283  -22.1495  -15.6290 C   0  0  0  0  0  0  0  0  0  0  0  0
   25.4413  -23.1450  -15.0705 O   0  0  0  0  0  0  0  0  0  0  0  0
   24.3490  -23.2680  -19.0441 O   0  0  0  0  0  0  0  0  0  0  0  0
   25.4094  -20.8782  -15.2972 N   0  0  0  0  0  0  0  0  0  0  0  0
   24.4075  -20.7037  -14.2181 C   0  0  1  0  0  0  0  0  0  0  0  0
   24.8271  -19.6105  -13.3065 C   0  0  0  0  0  0  0  0  0  0  0  0
   25.4147  -19.9854  -12.0189 C   0  0  0  0  0  0  0  0  0  0  0  0
   26.7782  -20.1299  -11.7352 C   0  0  0  0  0  0  0  0  0  0  0  0
   26.9591  -20.5159  -10.4661 N   0  0  0  0  0  0  0  0  0  0  0  0
   25.7380  -20.6290   -9.9030 C   0  0  0  0  0  0  0  0  0  0  0  0
   25.3296  -20.9781   -8.6144 C   0  0  0  0  0  0  0  0  0  0  0  0
   23.9990  -21.0037   -8.2708 C   0  0  0  0  0  0  0  0  0  0  0  0
   23.0484  -20.6785   -9.2164 C   0  0  0  0  0  0  0  0  0  0  0  0
   23.4220  -20.3338  -10.4859 C   0  0  0  0  0  0  0  0  0  0  0  0
   24.7695  -20.3058  -10.8440 C   0  0  0  0  0  0  0  0  0  0  0  0
   23.0928  -20.5611  -14.8397 C   0  0  0  0  0  0  0  0  0  0  0  0
   21.8993  -20.8852  -14.1618 O   0  0  0  0  0  0  0  0  0  0  0  0
   22.9417  -20.1397  -16.0209 O   0  0  0  0  0  0  0  0  0  0  0  0
  1  2  1  0
  3  4  1  0
  3  2  1  0
  5  4  1  0
  5  6  1  6
  7  8  2  0
  7  5  1  0
  9  7  1  0
 10  9  1  0
 10 11  1  6
 12 16  1  0
 12 11  1  0
 13 12  2  0
 14 17  1  0
 14 10  1  0
 15 14  2  0
 18 29  1  0
 18 17  1  0
 18 19  1  6
 19 20  1  0
 20 21  2  0
 20 28  1  0
 21 22  1  0
 22 23  1  0
 23 24  2  0
 25 24  1  0
 26 25  2  0
 27 28  2  0
 27 26  1  0
 28 23  1  0
 29 30  1  0
 31 29  2  0
M  END
$$$$
