DYG.pdb
     RDKit          3D

 25 25  0  0  1  0  0  0  0  0999 V2000
   22.1956  -20.6535  -13.0343 N   0  0  0  0  0  0  0  0  0  0  0  0
   22.6065  -20.5852  -14.4170 C   0  0  1  0  0  0  0  0  0  0  0  0
   21.4872  -20.1069  -15.3123 C   0  0  0  0  0  0  0  0  0  0  0  0
   20.4061  -21.1049  -15.2766 C   0  0  0  0  0  0  0  0  0  0  0  0
   20.6789  -22.3128  -15.1607 O   0  0  0  0  0  0  0  0  0  0  0  0
   23.8132  -19.6921  -14.5572 C   0  0  0  0  0  0  0  0  0  0  0  0
   23.7161  -18.4881  -14.1759 O   0  0  0  0  0  0  0  0  0  0  0  0
   19.0961  -20.7031  -15.3712 O   0  0  0  0  0  0  0  0  0  0  0  0
   25.4549  -20.8084   -8.7341 O   0  0  0  0  0  0  0  0  0  0  0  0
   25.8754  -20.5935  -10.0382 C   0  0  0  0  0  0  0  0  0  0  0  0
   25.9562  -21.6046  -10.9707 C   0  0  0  0  0  0  0  0  0  0  0  0
   26.3864  -21.3391  -12.2754 C   0  0  0  0  0  0  0  0  0  0  0  0
   26.7446  -20.0745  -12.6845 C   0  0  0  0  0  0  0  0  0  0  0  0
   27.1929  -19.8493  -14.0472 C   0  0  0  0  0  0  0  0  0  0  0  0
   26.2204  -19.3052  -15.0193 C   0  0  2  0  0  0  0  0  0  0  0  0
   25.0305  -20.1551  -15.0944 N   0  0  0  0  0  0  0  0  0  0  0  0
   26.8361  -19.1580  -16.3523 C   0  0  0  0  0  0  0  0  0  0  0  0
   27.0454  -20.1704  -17.0406 O   0  0  0  0  0  0  0  0  0  0  0  0
   26.6526  -19.0749  -11.7215 C   0  0  0  0  0  0  0  0  0  0  0  0
   26.2308  -19.3246  -10.4359 C   0  0  0  0  0  0  0  0  0  0  0  0
   27.2076  -17.8941  -16.8891 N   0  0  0  0  0  0  0  0  0  0  0  0
   27.7663  -17.7817  -18.2058 C   0  0  0  0  0  0  0  0  0  0  0  0
   29.2286  -18.0020  -18.2772 C   0  0  0  0  0  0  0  0  0  0  0  0
   30.0217  -17.0725  -17.9433 O   0  0  0  0  0  0  0  0  0  0  0  0
   29.8330  -19.1773  -18.6930 O   0  0  0  0  0  0  0  0  0  0  0  0
  2  3  1  0
  2  1  1  1
  4  8  1  0
  4  3  1  0
  5  4  2  0
  6  2  1  0
  7  6  2  0
  9 10  1  0
 10 20  2  0
 10 11  1  0
 11 12  2  0
 12 13  1  0
 13 14  1  0
 15 14  1  1
 15 16  1  0
 16  6  1  0
 17 15  1  0
 17 21  1  0
 18 17  2  0
 19 13  2  0
 20 19  1  0
 22 21  1  0
 23 22  1  0
 24 23  2  0
 25 23  1  0
M  END
$$$$
