DYG.pdb
     RDKit          3D

 25 25  0  0  1  0  0  0  0  0999 V2000
   23.5904  -23.2092  -14.6625 N   0  0  0  0  0  0  0  0  0  0  0  0
   25.0163  -23.0516  -14.8285 C   0  0  1  0  0  0  0  0  0  0  0  0
   25.5082  -23.6989  -16.1022 C   0  0  0  0  0  0  0  0  0  0  0  0
   25.4142  -25.1594  -15.9464 C   0  0  0  0  0  0  0  0  0  0  0  0
   24.4013  -25.7627  -16.3425 O   0  0  0  0  0  0  0  0  0  0  0  0
   25.3842  -21.5897  -14.8028 C   0  0  0  0  0  0  0  0  0  0  0  0
   24.4668  -20.7367  -14.9904 O   0  0  0  0  0  0  0  0  0  0  0  0
   26.4445  -25.8564  -15.3641 O   0  0  0  0  0  0  0  0  0  0  0  0
   24.8877  -21.1064   -8.4009 O   0  0  0  0  0  0  0  0  0  0  0  0
   25.5437  -20.6963   -9.5520 C   0  0  0  0  0  0  0  0  0  0  0  0
   24.9753  -19.8371  -10.4670 C   0  0  0  0  0  0  0  0  0  0  0  0
   25.6766  -19.4513  -11.6146 C   0  0  0  0  0  0  0  0  0  0  0  0
   26.9487  -19.9046  -11.8816 C   0  0  0  0  0  0  0  0  0  0  0  0
   27.6337  -19.4827  -13.0906 C   0  0  0  0  0  0  0  0  0  0  0  0
   26.9680  -19.7248  -14.3886 C   0  0  2  0  0  0  0  0  0  0  0  0
   26.7045  -21.1525  -14.5788 N   0  0  0  0  0  0  0  0  0  0  0  0
   27.7791  -19.1956  -15.5020 C   0  0  0  0  0  0  0  0  0  0  0  0
   28.1151  -17.9998  -15.4948 O   0  0  0  0  0  0  0  0  0  0  0  0
   27.4960  -20.7701  -10.9402 C   0  0  0  0  0  0  0  0  0  0  0  0
   26.8156  -21.1560   -9.8082 C   0  0  0  0  0  0  0  0  0  0  0  0
   28.1957  -20.0021  -16.5972 N   0  0  0  0  0  0  0  0  0  0  0  0
   29.0214  -19.4673  -17.6416 C   0  0  0  0  0  0  0  0  0  0  0  0
   28.2877  -19.0577  -18.8606 C   0  0  0  0  0  0  0  0  0  0  0  0
   27.0215  -19.0930  -18.8741 O   0  0  0  0  0  0  0  0  0  0  0  0
   28.8821  -18.6232  -20.0342 O   0  0  0  0  0  0  0  0  0  0  0  0
  2  3  1  0
  2  1  1  6
  4  8  1  0
  4  3  1  0
  5  4  2  0
  6  2  1  0
  7  6  2  0
  9 10  1  0
 10 20  2  0
 10 11  1  0
 11 12  2  0
 12 13  1  0
 13 14  1  0
 15 14  1  1
 15 16  1  0
 16  6  1  0
 17 15  1  0
 17 21  1  0
 18 17  2  0
 19 13  2  0
 20 19  1  0
 22 21  1  0
 23 22  1  0
 24 23  2  0
 25 23  1  0
M  END
$$$$
