DYG.pdb
     RDKit          3D

 25 25  0  0  1  0  0  0  0  0999 V2000
   18.9221  -10.8017  -15.5714 N   0  0  0  0  0  0  0  0  0  0  0  0
   20.2267  -11.0966  -16.1159 C   0  0  1  0  0  0  0  0  0  0  0  0
   20.1340  -11.9034  -17.3901 C   0  0  0  0  0  0  0  0  0  0  0  0
   19.5523  -13.2160  -17.0665 C   0  0  0  0  0  0  0  0  0  0  0  0
   19.1950  -13.4675  -15.9021 O   0  0  0  0  0  0  0  0  0  0  0  0
   20.9915   -9.8192  -16.3542 C   0  0  0  0  0  0  0  0  0  0  0  0
   22.1892   -9.9033  -16.7578 O   0  0  0  0  0  0  0  0  0  0  0  0
   19.4035  -14.1634  -18.0498 O   0  0  0  0  0  0  0  0  0  0  0  0
   19.0197   -9.5364  -22.2484 O   0  0  0  0  0  0  0  0  0  0  0  0
   19.3624   -8.8297  -21.1053 C   0  0  0  0  0  0  0  0  0  0  0  0
   18.4909   -8.6464  -20.0539 C   0  0  0  0  0  0  0  0  0  0  0  0
   18.8821   -7.9254  -18.9204 C   0  0  0  0  0  0  0  0  0  0  0  0
   20.1372   -7.3723  -18.8024 C   0  0  0  0  0  0  0  0  0  0  0  0
   20.4948   -6.6250  -17.6097 C   0  0  0  0  0  0  0  0  0  0  0  0
   21.1684   -7.3489  -16.5102 C   0  0  2  0  0  0  0  0  0  0  0  0
   20.4169   -8.5505  -16.1425 N   0  0  0  0  0  0  0  0  0  0  0  0
   21.3492   -6.4724  -15.3370 C   0  0  0  0  0  0  0  0  0  0  0  0
   20.4678   -6.4373  -14.4625 O   0  0  0  0  0  0  0  0  0  0  0  0
   20.9944   -7.5739  -19.8791 C   0  0  0  0  0  0  0  0  0  0  0  0
   20.6204   -8.2812  -20.9985 C   0  0  0  0  0  0  0  0  0  0  0  0
   22.4995   -5.6540  -15.1621 N   0  0  0  0  0  0  0  0  0  0  0  0
   22.6858   -4.8799  -13.9686 C   0  0  0  0  0  0  0  0  0  0  0  0
   21.8427   -3.6660  -13.8818 C   0  0  0  0  0  0  0  0  0  0  0  0
   21.0487   -3.3828  -14.8272 O   0  0  0  0  0  0  0  0  0  0  0  0
   21.8430   -2.7759  -12.8201 O   0  0  0  0  0  0  0  0  0  0  0  0
  2  3  1  0
  2  1  1  6
  4  8  1  0
  4  3  1  0
  5  4  2  0
  6  2  1  0
  7  6  2  0
  9 10  1  0
 10 20  2  0
 10 11  1  0
 11 12  2  0
 12 13  1  0
 13 14  1  0
 15 14  1  6
 15 16  1  0
 16  6  1  0
 17 15  1  0
 17 21  1  0
 18 17  2  0
 19 13  2  0
 20 19  1  0
 22 21  1  0
 23 22  1  0
 24 23  2  0
 25 23  1  0
M  END
$$$$
