DYG.pdb
     RDKit          3D

 25 25  0  0  1  0  0  0  0  0999 V2000
   14.6806   -6.4046   -7.9336 N   0  0  0  0  0  0  0  0  0  0  0  0
   15.3824   -6.1987   -9.1787 C   0  0  1  0  0  0  0  0  0  0  0  0
   16.2874   -4.9901   -9.1199 C   0  0  0  0  0  0  0  0  0  0  0  0
   15.4506   -3.7922   -8.9446 C   0  0  0  0  0  0  0  0  0  0  0  0
   14.3441   -3.7192   -9.5080 O   0  0  0  0  0  0  0  0  0  0  0  0
   16.1708   -7.4316   -9.5411 C   0  0  0  0  0  0  0  0  0  0  0  0
   16.7207   -8.0881   -8.6077 O   0  0  0  0  0  0  0  0  0  0  0  0
   15.8907   -2.7549   -8.1593 O   0  0  0  0  0  0  0  0  0  0  0  0
   11.2562  -11.8757   -9.8019 O   0  0  0  0  0  0  0  0  0  0  0  0
   12.4445  -11.4023  -10.3380 C   0  0  0  0  0  0  0  0  0  0  0  0
   12.5583  -10.1538  -10.9098 C   0  0  0  0  0  0  0  0  0  0  0  0
   13.7790   -9.7197  -11.4380 C   0  0  0  0  0  0  0  0  0  0  0  0
   14.9083  -10.5066  -11.4128 C   0  0  0  0  0  0  0  0  0  0  0  0
   16.1511  -10.0156  -11.9812 C   0  0  0  0  0  0  0  0  0  0  0  0
   16.9960   -9.1319  -11.1493 C   0  0  2  0  0  0  0  0  0  0  0  0
   16.3108   -7.8677  -10.8734 N   0  0  0  0  0  0  0  0  0  0  0  0
   18.2971   -8.8840  -11.7999 C   0  0  0  0  0  0  0  0  0  0  0  0
   19.0421   -9.8444  -12.0552 O   0  0  0  0  0  0  0  0  0  0  0  0
   14.7626  -11.7609  -10.8295 C   0  0  0  0  0  0  0  0  0  0  0  0
   13.5672  -12.1981  -10.3069 C   0  0  0  0  0  0  0  0  0  0  0  0
   18.7426   -7.5789  -12.1490 N   0  0  0  0  0  0  0  0  0  0  0  0
   20.0549   -7.3613  -12.6867 C   0  0  0  0  0  0  0  0  0  0  0  0
   20.1525   -7.5088  -14.1567 C   0  0  0  0  0  0  0  0  0  0  0  0
   19.1289   -7.8414  -14.8247 O   0  0  0  0  0  0  0  0  0  0  0  0
   21.3060   -7.3094  -14.8977 O   0  0  0  0  0  0  0  0  0  0  0  0
  2  3  1  0
  2  1  1  1
  4  8  1  0
  4  3  1  0
  5  4  2  0
  6  2  1  0
  7  6  2  0
  9 10  1  0
 10 20  2  0
 10 11  1  0
 11 12  2  0
 12 13  1  0
 13 14  1  0
 15 14  1  6
 15 16  1  0
 16  6  1  0
 17 15  1  0
 17 21  1  0
 18 17  2  0
 19 13  2  0
 20 19  1  0
 22 21  1  0
 23 22  1  0
 24 23  2  0
 25 23  1  0
M  END
$$$$
