DYG.pdb
     RDKit          3D

 25 25  0  0  1  0  0  0  0  0999 V2000
   23.4166  -10.5065  -20.8094 N   0  0  0  0  0  0  0  0  0  0  0  0
   22.3081  -11.1617  -20.1557 C   0  0  1  0  0  0  0  0  0  0  0  0
   22.6713  -12.5544  -19.6956 C   0  0  0  0  0  0  0  0  0  0  0  0
   22.8259  -13.4096  -20.8833 C   0  0  0  0  0  0  0  0  0  0  0  0
   23.8175  -13.2742  -21.6218 O   0  0  0  0  0  0  0  0  0  0  0  0
   21.8249  -10.3309  -18.9940 C   0  0  0  0  0  0  0  0  0  0  0  0
   20.7807  -10.7049  -18.3821 O   0  0  0  0  0  0  0  0  0  0  0  0
   21.8760  -14.3573  -21.1765 O   0  0  0  0  0  0  0  0  0  0  0  0
   20.8648   -7.2309  -11.1288 O   0  0  0  0  0  0  0  0  0  0  0  0
   21.3513   -7.5755  -12.3810 C   0  0  0  0  0  0  0  0  0  0  0  0
   21.3965   -8.8775  -12.8298 C   0  0  0  0  0  0  0  0  0  0  0  0
   21.8963   -9.1766  -14.1020 C   0  0  0  0  0  0  0  0  0  0  0  0
   22.3604   -8.1999  -14.9539 C   0  0  0  0  0  0  0  0  0  0  0  0
   22.8777   -8.5599  -16.2621 C   0  0  0  0  0  0  0  0  0  0  0  0
   21.9829   -8.4108  -17.4299 C   0  0  2  0  0  0  0  0  0  0  0  0
   22.4951   -9.1644  -18.5761 N   0  0  0  0  0  0  0  0  0  0  0  0
   21.8103   -6.9881  -17.7815 C   0  0  0  0  0  0  0  0  0  0  0  0
   22.7501   -6.3749  -18.3139 O   0  0  0  0  0  0  0  0  0  0  0  0
   22.3020   -6.8958  -14.4734 C   0  0  0  0  0  0  0  0  0  0  0  0
   21.8125   -6.5902  -13.2243 C   0  0  0  0  0  0  0  0  0  0  0  0
   20.6028   -6.2785  -17.5322 N   0  0  0  0  0  0  0  0  0  0  0  0
   20.4890   -4.8794  -17.8286 C   0  0  0  0  0  0  0  0  0  0  0  0
   21.0006   -3.9799  -16.7698 C   0  0  0  0  0  0  0  0  0  0  0  0
   20.9768   -2.7255  -16.9446 O   0  0  0  0  0  0  0  0  0  0  0  0
   21.5243   -4.4006  -15.5581 O   0  0  0  0  0  0  0  0  0  0  0  0
  2  3  1  0
  2  1  1  1
  4  8  1  0
  4  3  1  0
  5  4  2  0
  6  2  1  0
  7  6  2  0
  9 10  1  0
 10 20  2  0
 10 11  1  0
 11 12  2  0
 12 13  1  0
 13 14  1  0
 15 14  1  1
 15 16  1  0
 16  6  1  0
 17 15  1  0
 17 21  1  0
 18 17  2  0
 19 13  2  0
 20 19  1  0
 22 21  1  0
 23 22  1  0
 24 23  2  0
 25 23  1  0
M  END
$$$$
