DYG.pdb
     RDKit          3D

 25 25  0  0  1  0  0  0  0  0999 V2000
   14.8970  -14.7360  -14.8015 N   0  0  0  0  0  0  0  0  0  0  0  0
   16.0726  -13.8985  -14.8471 C   0  0  1  0  0  0  0  0  0  0  0  0
   16.8480  -14.0887  -16.1300 C   0  0  0  0  0  0  0  0  0  0  0  0
   17.7074  -15.2742  -15.9812 C   0  0  0  0  0  0  0  0  0  0  0  0
   18.6491  -15.4623  -16.7715 O   0  0  0  0  0  0  0  0  0  0  0  0
   15.6871  -12.4514  -14.6726 C   0  0  0  0  0  0  0  0  0  0  0  0
   14.6497  -12.0311  -15.2656 O   0  0  0  0  0  0  0  0  0  0  0  0
   17.4701  -16.1727  -14.9699 O   0  0  0  0  0  0  0  0  0  0  0  0
   10.7203  -12.3957  -10.6821 O   0  0  0  0  0  0  0  0  0  0  0  0
   11.8864  -11.7708  -11.0982 C   0  0  0  0  0  0  0  0  0  0  0  0
   11.8900  -10.5492  -11.7355 C   0  0  0  0  0  0  0  0  0  0  0  0
   13.0926   -9.9575  -12.1371 C   0  0  0  0  0  0  0  0  0  0  0  0
   14.3120  -10.5579  -11.9187 C   0  0  0  0  0  0  0  0  0  0  0  0
   15.5333   -9.9088  -12.3612 C   0  0  0  0  0  0  0  0  0  0  0  0
   16.0039  -10.1747  -13.7377 C   0  0  2  0  0  0  0  0  0  0  0  0
   16.4404  -11.5653  -13.8777 N   0  0  0  0  0  0  0  0  0  0  0  0
   17.0930   -9.2506  -14.1084 C   0  0  0  0  0  0  0  0  0  0  0  0
   18.2528   -9.4983  -13.7393 O   0  0  0  0  0  0  0  0  0  0  0  0
   14.2766  -11.7897  -11.2735 C   0  0  0  0  0  0  0  0  0  0  0  0
   13.1000  -12.3806  -10.8741 C   0  0  0  0  0  0  0  0  0  0  0  0
   16.8710   -8.0737  -14.8760 N   0  0  0  0  0  0  0  0  0  0  0  0
   17.9535   -7.1984  -15.2233 C   0  0  0  0  0  0  0  0  0  0  0  0
   18.3404   -6.2426  -14.1608 C   0  0  0  0  0  0  0  0  0  0  0  0
   17.6984   -6.2223  -13.0690 O   0  0  0  0  0  0  0  0  0  0  0  0
   19.3804   -5.3322  -14.2551 O   0  0  0  0  0  0  0  0  0  0  0  0
  2  3  1  0
  2  1  1  6
  4  8  1  0
  4  3  1  0
  5  4  2  0
  6  2  1  0
  7  6  2  0
  9 10  1  0
 10 20  2  0
 10 11  1  0
 11 12  2  0
 12 13  1  0
 13 14  1  0
 15 14  1  1
 15 16  1  0
 16  6  1  0
 17 15  1  0
 17 21  1  0
 18 17  2  0
 19 13  2  0
 20 19  1  0
 22 21  1  0
 23 22  1  0
 24 23  2  0
 25 23  1  0
M  END
$$$$
