VVS.pdb
     RDKit          3D

 21 20  0  0  1  0  0  0  0  0999 V2000
   20.0765  -19.2641  -15.2860 C   0  0  0  0  0  0  0  0  0  0  0  0
   20.7641  -18.5445  -16.4443 C   0  0  2  0  0  0  0  0  0  0  0  0
   20.4161  -19.3121  -17.6797 C   0  0  0  0  0  0  0  0  0  0  0  0
   22.2850  -18.5763  -16.2310 C   0  0  2  0  0  0  0  0  0  0  0  0
   22.4982  -19.7290  -15.3306 N   0  0  0  0  0  0  0  0  0  0  0  0
   22.7823  -17.3695  -15.5630 C   0  0  0  0  0  0  0  0  0  0  0  0
   22.5629  -17.2312  -14.3232 O   0  0  0  0  0  0  0  0  0  0  0  0
   26.1042  -13.9008  -14.8907 C   0  0  0  0  0  0  0  0  0  0  0  0
   25.4433  -15.0122  -15.6187 C   0  0  2  0  0  0  0  0  0  0  0  0
   25.8173  -14.8684  -17.1007 C   0  0  0  0  0  0  0  0  0  0  0  0
   23.9489  -15.1168  -15.4533 C   0  0  2  0  0  0  0  0  0  0  0  0
   23.4954  -16.3257  -16.1684 N   0  0  0  0  0  0  0  0  0  0  0  0
   23.1887  -13.9428  -15.8671 C   0  0  0  0  0  0  0  0  0  0  0  0
   22.9797  -13.6834  -17.1121 O   0  0  0  0  0  0  0  0  0  0  0  0
   20.7302   -9.9506  -14.5974 O   0  0  0  0  0  0  0  0  0  0  0  0
   21.4423  -11.0803  -14.1841 C   0  0  0  0  0  0  0  0  0  0  0  0
   21.8611  -11.8451  -15.4473 C   0  0  2  0  0  0  0  0  0  0  0  0
   22.6146  -12.9927  -14.9893 N   0  0  0  0  0  0  0  0  0  0  0  0
   22.7518  -10.9681  -16.2154 C   0  0  0  0  0  0  0  0  0  0  0  0
   22.3316  -10.4059  -17.2526 O   0  0  0  0  0  0  0  0  0  0  0  0
   24.0627  -10.7489  -15.8094 O   0  0  0  0  0  0  0  0  0  0  0  0
  2  1  1  1
  2  3  1  0
  2  4  1  0
  4  6  1  0
  4  5  1  1
  6 12  1  0
  6  7  2  0
  9  8  1  1
  9 11  1  0
 10  9  1  0
 11 13  1  0
 11 12  1  6
 13 14  2  0
 15 16  1  0
 17 16  1  1
 17 19  1  0
 18 13  1  0
 18 17  1  0
 19 21  1  0
 20 19  2  0
M  END
$$$$
