VVS.pdb
     RDKit          3D

 21 20  0  0  1  0  0  0  0  0999 V2000
   17.3722  -12.1652  -18.1491 C   0  0  0  0  0  0  0  0  0  0  0  0
   18.5558  -12.7850  -18.8888 C   0  0  2  0  0  0  0  0  0  0  0  0
   17.9928  -13.8824  -19.7346 C   0  0  0  0  0  0  0  0  0  0  0  0
   19.5395  -13.3764  -17.8678 C   0  0  2  0  0  0  0  0  0  0  0  0
   18.7669  -14.4460  -17.2015 N   0  0  0  0  0  0  0  0  0  0  0  0
   19.9479  -12.4001  -16.8530 C   0  0  0  0  0  0  0  0  0  0  0  0
   19.1895  -12.2115  -15.8561 O   0  0  0  0  0  0  0  0  0  0  0  0
   23.3474  -12.1188  -14.9484 C   0  0  0  0  0  0  0  0  0  0  0  0
   22.9412  -10.8098  -15.5169 C   0  0  2  0  0  0  0  0  0  0  0  0
   23.4099   -9.7254  -14.5364 C   0  0  0  0  0  0  0  0  0  0  0  0
   21.4757  -10.6490  -15.8296 C   0  0  2  0  0  0  0  0  0  0  0  0
   21.1216  -11.6341  -16.8701 N   0  0  0  0  0  0  0  0  0  0  0  0
   21.0604   -9.3045  -16.2130 C   0  0  0  0  0  0  0  0  0  0  0  0
   21.5416   -8.7264  -17.2595 O   0  0  0  0  0  0  0  0  0  0  0  0
   18.0309   -7.5606  -14.3292 O   0  0  0  0  0  0  0  0  0  0  0  0
   18.2117   -7.0886  -15.6325 C   0  0  0  0  0  0  0  0  0  0  0  0
   19.7086   -7.1960  -15.9549 C   0  0  2  0  0  0  0  0  0  0  0  0
   20.1201   -8.5114  -15.5131 N   0  0  0  0  0  0  0  0  0  0  0  0
   20.4039   -6.1857  -15.1497 C   0  0  0  0  0  0  0  0  0  0  0  0
   21.1545   -6.5428  -14.2130 O   0  0  0  0  0  0  0  0  0  0  0  0
   20.2429   -4.8301  -15.4099 O   0  0  0  0  0  0  0  0  0  0  0  0
  2  1  1  1
  2  3  1  0
  2  4  1  0
  4  6  1  0
  4  5  1  1
  6 12  1  0
  6  7  2  0
  9  8  1  1
  9 11  1  0
 10  9  1  0
 11 13  1  0
 11 12  1  6
 13 14  2  0
 15 16  1  0
 17 16  1  1
 17 19  1  0
 18 13  1  0
 18 17  1  0
 19 21  1  0
 20 19  2  0
M  END
$$$$
