VVS.pdb
     RDKit          3D

 21 20  0  0  1  0  0  0  0  0999 V2000
   14.4774  -12.9777  -16.4161 C   0  0  0  0  0  0  0  0  0  0  0  0
   15.7728  -13.3502  -15.6980 C   0  0  2  0  0  0  0  0  0  0  0  0
   16.0648  -14.7689  -16.0704 C   0  0  0  0  0  0  0  0  0  0  0  0
   15.5585  -13.2512  -14.1800 C   0  0  2  0  0  0  0  0  0  0  0  0
   14.3924  -14.1227  -13.9235 N   0  0  0  0  0  0  0  0  0  0  0  0
   15.2225  -11.8905  -13.7494 C   0  0  0  0  0  0  0  0  0  0  0  0
   14.0603  -11.4493  -13.9927 O   0  0  0  0  0  0  0  0  0  0  0  0
   15.4671   -7.9581  -10.9138 C   0  0  0  0  0  0  0  0  0  0  0  0
   15.7353   -9.3496  -11.3539 C   0  0  2  0  0  0  0  0  0  0  0  0
   17.0632   -9.7788  -10.7141 C   0  0  0  0  0  0  0  0  0  0  0  0
   15.7612   -9.5805  -12.8430 C   0  0  2  0  0  0  0  0  0  0  0  0
   16.0748  -11.0036  -13.0774 N   0  0  0  0  0  0  0  0  0  0  0  0
   16.6580   -8.7116  -13.5965 C   0  0  0  0  0  0  0  0  0  0  0  0
   17.9337   -8.8946  -13.5879 O   0  0  0  0  0  0  0  0  0  0  0  0
   17.2793   -5.4737  -17.0982 O   0  0  0  0  0  0  0  0  0  0  0  0
   16.4102   -6.2881  -16.3664 C   0  0  0  0  0  0  0  0  0  0  0  0
   17.1787   -6.7879  -15.1353 C   0  0  2  0  0  0  0  0  0  0  0  0
   16.2514   -7.6144  -14.3926 N   0  0  0  0  0  0  0  0  0  0  0  0
   17.5210   -5.6132  -14.3256 C   0  0  0  0  0  0  0  0  0  0  0  0
   16.6622   -5.1054  -13.5687 O   0  0  0  0  0  0  0  0  0  0  0  0
   18.7903   -5.0503  -14.3844 O   0  0  0  0  0  0  0  0  0  0  0  0
  2  1  1  6
  2  3  1  0
  2  4  1  0
  4  6  1  0
  4  5  1  6
  6 12  1  0
  6  7  2  0
  9  8  1  6
  9 11  1  0
 10  9  1  0
 11 13  1  0
 11 12  1  1
 13 14  2  0
 15 16  1  0
 17 16  1  6
 17 19  1  0
 18 13  1  0
 18 17  1  0
 19 21  1  0
 20 19  2  0
M  END
$$$$
