VVS.pdb
     RDKit          3D

 21 20  0  0  1  0  0  0  0  0999 V2000
   18.4180  -15.0570  -15.3497 C   0  0  0  0  0  0  0  0  0  0  0  0
   17.7391  -13.6890  -15.3369 C   0  0  2  0  0  0  0  0  0  0  0  0
   18.8055  -12.6894  -15.6533 C   0  0  0  0  0  0  0  0  0  0  0  0
   17.1771  -13.4141  -13.9339 C   0  0  2  0  0  0  0  0  0  0  0  0
   16.1537  -14.4636  -13.7440 N   0  0  0  0  0  0  0  0  0  0  0  0
   16.5210  -12.1062  -13.8397 C   0  0  0  0  0  0  0  0  0  0  0  0
   15.5291  -11.8721  -14.5918 O   0  0  0  0  0  0  0  0  0  0  0  0
   16.4035   -9.7229  -10.4240 C   0  0  0  0  0  0  0  0  0  0  0  0
   15.5322   -9.5989  -11.6187 C   0  0  2  0  0  0  0  0  0  0  0  0
   14.4060  -10.6311  -11.4669 C   0  0  0  0  0  0  0  0  0  0  0  0
   16.2142   -9.7460  -12.9546 C   0  0  2  0  0  0  0  0  0  0  0  0
   16.8854  -11.0603  -12.9806 N   0  0  0  0  0  0  0  0  0  0  0  0
   17.1386   -8.6746  -13.3079 C   0  0  0  0  0  0  0  0  0  0  0  0
   18.2989   -8.5799  -12.7548 O   0  0  0  0  0  0  0  0  0  0  0  0
   18.6797   -5.5162  -16.5267 O   0  0  0  0  0  0  0  0  0  0  0  0
   17.7348   -6.4720  -16.1424 C   0  0  0  0  0  0  0  0  0  0  0  0
   17.8563   -6.6509  -14.6228 C   0  0  2  0  0  0  0  0  0  0  0  0
   16.8829   -7.6582  -14.2590 N   0  0  0  0  0  0  0  0  0  0  0  0
   17.4772   -5.3776  -14.0000 C   0  0  0  0  0  0  0  0  0  0  0  0
   16.3025   -5.2028  -13.6025 O   0  0  0  0  0  0  0  0  0  0  0  0
   18.4052   -4.3553  -13.8423 O   0  0  0  0  0  0  0  0  0  0  0  0
  2  1  1  1
  2  3  1  0
  2  4  1  0
  4  6  1  0
  4  5  1  6
  6 12  1  0
  6  7  2  0
  9  8  1  1
  9 11  1  0
 10  9  1  0
 11 13  1  0
 11 12  1  1
 13 14  2  0
 15 16  1  0
 17 16  1  6
 17 19  1  0
 18 13  1  0
 18 17  1  0
 19 21  1  0
 20 19  2  0
M  END
$$$$
