VVS.pdb
     RDKit          3D

 21 20  0  0  1  0  0  0  0  0999 V2000
   26.5640  -18.7643   -8.8174 C   0  0  0  0  0  0  0  0  0  0  0  0
   26.1607  -20.2161   -8.5685 C   0  0  2  0  0  0  0  0  0  0  0  0
   26.8144  -20.6181   -7.2849 C   0  0  0  0  0  0  0  0  0  0  0  0
   26.6913  -21.0938   -9.7122 C   0  0  2  0  0  0  0  0  0  0  0  0
   28.1486  -20.8470   -9.7090 N   0  0  0  0  0  0  0  0  0  0  0  0
   26.1575  -20.6950  -11.0183 C   0  0  0  0  0  0  0  0  0  0  0  0
   26.6399  -19.6672  -11.5799 O   0  0  0  0  0  0  0  0  0  0  0  0
   24.6710  -21.5802  -15.4775 C   0  0  0  0  0  0  0  0  0  0  0  0
   25.0256  -21.9085  -14.0746 C   0  0  2  0  0  0  0  0  0  0  0  0
   24.4080  -23.2784  -13.7601 C   0  0  0  0  0  0  0  0  0  0  0  0
   24.6274  -20.8925  -13.0351 C   0  0  2  0  0  0  0  0  0  0  0  0
   25.1433  -21.3502  -11.7302 N   0  0  0  0  0  0  0  0  0  0  0  0
   23.2014  -20.5948  -12.9635 C   0  0  0  0  0  0  0  0  0  0  0  0
   22.4403  -21.1629  -12.0923 O   0  0  0  0  0  0  0  0  0  0  0  0
   21.2954  -17.1008  -13.9239 O   0  0  0  0  0  0  0  0  0  0  0  0
   20.8099  -18.2238  -14.6000 C   0  0  0  0  0  0  0  0  0  0  0  0
   21.0906  -19.4471  -13.7165 C   0  0  2  0  0  0  0  0  0  0  0  0
   22.5155  -19.6857  -13.8037 N   0  0  0  0  0  0  0  0  0  0  0  0
   20.3814  -20.5870  -14.3083 C   0  0  0  0  0  0  0  0  0  0  0  0
   20.8988  -21.2191  -15.2576 O   0  0  0  0  0  0  0  0  0  0  0  0
   19.1370  -20.9803  -13.8306 O   0  0  0  0  0  0  0  0  0  0  0  0
  2  1  1  6
  2  3  1  0
  2  4  1  0
  4  6  1  0
  4  5  1  6
  6 12  1  0
  6  7  2  0
  9  8  1  6
  9 11  1  0
 10  9  1  0
 11 13  1  0
 11 12  1  1
 13 14  2  0
 15 16  1  0
 17 16  1  6
 17 19  1  0
 18 13  1  0
 18 17  1  0
 19 21  1  0
 20 19  2  0
M  END
$$$$
