VVS.pdb
     RDKit          3D

 21 20  0  0  1  0  0  0  0  0999 V2000
   15.5498  -11.1788  -16.7910 C   0  0  0  0  0  0  0  0  0  0  0  0
   16.7712  -10.5877  -16.0901 C   0  0  2  0  0  0  0  0  0  0  0  0
   16.5635   -9.1069  -16.0646 C   0  0  0  0  0  0  0  0  0  0  0  0
   18.0321  -10.9157  -16.9041 C   0  0  2  0  0  0  0  0  0  0  0  0
   18.2659  -12.3516  -16.6427 N   0  0  0  0  0  0  0  0  0  0  0  0
   19.2055  -10.1652  -16.4460 C   0  0  0  0  0  0  0  0  0  0  0  0
   19.7283  -10.4796  -15.3360 O   0  0  0  0  0  0  0  0  0  0  0  0
   22.5096   -9.4749  -18.4480 C   0  0  0  0  0  0  0  0  0  0  0  0
   21.9619   -8.2385  -17.8370 C   0  0  2  0  0  0  0  0  0  0  0  0
   23.1571   -7.3506  -17.4629 C   0  0  0  0  0  0  0  0  0  0  0  0
   21.0498   -8.4322  -16.6530 C   0  0  2  0  0  0  0  0  0  0  0  0
   19.8267   -9.1090  -17.1266 N   0  0  0  0  0  0  0  0  0  0  0  0
   20.7272   -7.2219  -15.9057 C   0  0  0  0  0  0  0  0  0  0  0  0
   20.1221   -6.2302  -16.4635 O   0  0  0  0  0  0  0  0  0  0  0  0
   21.4992   -6.9675  -11.9687 O   0  0  0  0  0  0  0  0  0  0  0  0
   20.4596   -6.1352  -12.3936 C   0  0  0  0  0  0  0  0  0  0  0  0
   20.7410   -5.7607  -13.8553 C   0  0  2  0  0  0  0  0  0  0  0  0
   21.0257   -7.0038  -14.5395 N   0  0  0  0  0  0  0  0  0  0  0  0
   21.9465   -4.9244  -13.8691 C   0  0  0  0  0  0  0  0  0  0  0  0
   23.0052   -5.3642  -14.3732 O   0  0  0  0  0  0  0  0  0  0  0  0
   21.9339   -3.6441  -13.3288 O   0  0  0  0  0  0  0  0  0  0  0  0
  2  1  1  6
  2  3  1  0
  2  4  1  0
  4  6  1  0
  4  5  1  1
  6 12  1  0
  6  7  2  0
  9  8  1  1
  9 11  1  0
 10  9  1  0
 11 13  1  0
 11 12  1  6
 13 14  2  0
 15 16  1  0
 17 16  1  1
 17 19  1  0
 18 13  1  0
 18 17  1  0
 19 21  1  0
 20 19  2  0
M  END
$$$$
