VVS.pdb
     RDKit          3D

 21 20  0  0  1  0  0  0  0  0999 V2000
   20.5543  -14.0623  -16.3024 C   0  0  0  0  0  0  0  0  0  0  0  0
   19.2395  -13.3522  -16.6178 C   0  0  2  0  0  0  0  0  0  0  0  0
   18.6119  -14.1131  -17.7420 C   0  0  0  0  0  0  0  0  0  0  0  0
   19.5350  -11.9148  -17.0722 C   0  0  2  0  0  0  0  0  0  0  0  0
   20.3604  -12.0837  -18.2867 N   0  0  0  0  0  0  0  0  0  0  0  0
   20.3152  -11.1640  -16.0835 C   0  0  0  0  0  0  0  0  0  0  0  0
   19.8698  -11.0785  -14.9009 O   0  0  0  0  0  0  0  0  0  0  0  0
   24.4554   -9.9235  -16.5109 C   0  0  0  0  0  0  0  0  0  0  0  0
   23.6733  -10.1271  -15.2665 C   0  0  2  0  0  0  0  0  0  0  0  0
   23.7782  -11.6153  -14.9043 C   0  0  0  0  0  0  0  0  0  0  0  0
   22.2320   -9.6890  -15.3102 C   0  0  2  0  0  0  0  0  0  0  0  0
   21.5355  -10.5148  -16.3159 N   0  0  0  0  0  0  0  0  0  0  0  0
   22.0161   -8.2673  -15.5539 C   0  0  0  0  0  0  0  0  0  0  0  0
   21.9916   -7.7878  -16.7499 O   0  0  0  0  0  0  0  0  0  0  0  0
   19.9963   -4.2171  -15.0094 O   0  0  0  0  0  0  0  0  0  0  0  0
   20.1700   -5.5735  -14.7195 C   0  0  0  0  0  0  0  0  0  0  0  0
   21.6696   -5.8786  -14.8373 C   0  0  2  0  0  0  0  0  0  0  0  0
   21.8150   -7.2897  -14.5505 N   0  0  0  0  0  0  0  0  0  0  0  0
   22.3567   -5.1089  -13.7941 C   0  0  0  0  0  0  0  0  0  0  0  0
   22.7796   -3.9571  -14.0449 O   0  0  0  0  0  0  0  0  0  0  0  0
   22.5476   -5.6393  -12.5238 O   0  0  0  0  0  0  0  0  0  0  0  0
  2  1  1  6
  2  3  1  0
  2  4  1  0
  4  6  1  0
  4  5  1  6
  6 12  1  0
  6  7  2  0
  9  8  1  6
  9 11  1  0
 10  9  1  0
 11 13  1  0
 11 12  1  6
 13 14  2  0
 15 16  1  0
 17 16  1  1
 17 19  1  0
 18 13  1  0
 18 17  1  0
 19 21  1  0
 20 19  2  0
M  END
$$$$
