VVS.pdb
     RDKit          3D

 21 20  0  0  1  0  0  0  0  0999 V2000
   17.6448  -12.0213  -18.0645 C   0  0  0  0  0  0  0  0  0  0  0  0
   18.9040  -12.5490  -17.3800 C   0  0  2  0  0  0  0  0  0  0  0  0
   18.5481  -13.8921  -16.8269 C   0  0  0  0  0  0  0  0  0  0  0  0
   19.2903  -11.6059  -16.2306 C   0  0  2  0  0  0  0  0  0  0  0  0
   18.1235  -11.6464  -15.3241 N   0  0  0  0  0  0  0  0  0  0  0  0
   19.4791  -10.2231  -16.6800 C   0  0  0  0  0  0  0  0  0  0  0  0
   20.4314   -9.9711  -17.4762 O   0  0  0  0  0  0  0  0  0  0  0  0
   16.4838   -7.2063  -16.6391 C   0  0  0  0  0  0  0  0  0  0  0  0
   17.7291   -7.2228  -17.4458 C   0  0  2  0  0  0  0  0  0  0  0  0
   17.4376   -8.0409  -18.7118 C   0  0  0  0  0  0  0  0  0  0  0  0
   18.9628   -7.7378  -16.7500 C   0  0  2  0  0  0  0  0  0  0  0  0
   18.6942   -9.1216  -16.3122 N   0  0  0  0  0  0  0  0  0  0  0  0
   19.4466   -6.9192  -15.6441 C   0  0  0  0  0  0  0  0  0  0  0  0
   18.9711   -7.0512  -14.4535 O   0  0  0  0  0  0  0  0  0  0  0  0
   23.0153   -4.6404  -13.5679 O   0  0  0  0  0  0  0  0  0  0  0  0
   22.4901   -5.3571  -14.6469 C   0  0  0  0  0  0  0  0  0  0  0  0
   20.9637   -5.2023  -14.6000 C   0  0  2  0  0  0  0  0  0  0  0  0
   20.4522   -5.9283  -15.7428 N   0  0  0  0  0  0  0  0  0  0  0  0
   20.6624   -3.7765  -14.7697 C   0  0  0  0  0  0  0  0  0  0  0  0
   20.5505   -3.2951  -15.9204 O   0  0  0  0  0  0  0  0  0  0  0  0
   20.4980   -2.9450  -13.6683 O   0  0  0  0  0  0  0  0  0  0  0  0
  2  1  1  1
  2  3  1  0
  2  4  1  0
  4  6  1  0
  4  5  1  1
  6 12  1  0
  6  7  2  0
  9  8  1  1
  9 11  1  0
 10  9  1  0
 11 13  1  0
 11 12  1  1
 13 14  2  0
 15 16  1  0
 17 16  1  6
 17 19  1  0
 18 13  1  0
 18 17  1  0
 19 21  1  0
 20 19  2  0
M  END
$$$$
