VVS.pdb
     RDKit          3D

 21 20  0  0  1  0  0  0  0  0999 V2000
   18.8280  -12.4311  -19.3235 C   0  0  0  0  0  0  0  0  0  0  0  0
   19.0788  -12.8109  -17.8657 C   0  0  2  0  0  0  0  0  0  0  0  0
   17.8148  -12.5010  -17.1289 C   0  0  0  0  0  0  0  0  0  0  0  0
   20.2231  -11.9519  -17.3067 C   0  0  2  0  0  0  0  0  0  0  0  0
   20.5097  -12.5497  -15.9856 N   0  0  0  0  0  0  0  0  0  0  0  0
   19.8278  -10.5543  -17.1059 C   0  0  0  0  0  0  0  0  0  0  0  0
   19.6067   -9.8364  -18.1258 O   0  0  0  0  0  0  0  0  0  0  0  0
   16.8222   -8.7368  -15.7868 C   0  0  0  0  0  0  0  0  0  0  0  0
   18.0272   -8.3651  -15.0046 C   0  0  2  0  0  0  0  0  0  0  0  0
   17.8099   -6.9348  -14.4907 C   0  0  0  0  0  0  0  0  0  0  0  0
   19.3461   -8.4785  -15.7250 C   0  0  2  0  0  0  0  0  0  0  0  0
   19.6632   -9.9126  -15.8707 N   0  0  0  0  0  0  0  0  0  0  0  0
   20.4559   -7.7518  -15.1189 C   0  0  0  0  0  0  0  0  0  0  0  0
   20.9507   -8.1078  -13.9834 O   0  0  0  0  0  0  0  0  0  0  0  0
   23.9265   -4.4008  -15.5999 O   0  0  0  0  0  0  0  0  0  0  0  0
   22.7997   -5.0224  -16.1458 C   0  0  0  0  0  0  0  0  0  0  0  0
   22.2453   -5.9808  -15.0827 C   0  0  2  0  0  0  0  0  0  0  0  0
   21.0939   -6.6209  -15.6820 N   0  0  0  0  0  0  0  0  0  0  0  0
   21.7981   -5.1653  -13.9480 C   0  0  0  0  0  0  0  0  0  0  0  0
   20.7002   -4.5654  -14.0052 O   0  0  0  0  0  0  0  0  0  0  0  0
   22.5767   -5.0461  -12.8031 O   0  0  0  0  0  0  0  0  0  0  0  0
  2  1  1  6
  2  3  1  0
  2  4  1  0
  4  6  1  0
  4  5  1  1
  6 12  1  0
  6  7  2  0
  9  8  1  6
  9 11  1  0
 10  9  1  0
 11 13  1  0
 11 12  1  1
 13 14  2  0
 15 16  1  0
 17 16  1  6
 17 19  1  0
 18 13  1  0
 18 17  1  0
 19 21  1  0
 20 19  2  0
M  END
$$$$
