VVS.pdb
     RDKit          3D

 21 20  0  0  1  0  0  0  0  0999 V2000
   17.8797  -12.5130  -16.6623 C   0  0  0  0  0  0  0  0  0  0  0  0
   17.2240  -11.3259  -17.3646 C   0  0  2  0  0  0  0  0  0  0  0  0
   16.6511  -11.8579  -18.6395 C   0  0  0  0  0  0  0  0  0  0  0  0
   18.2936  -10.2702  -17.6831 C   0  0  2  0  0  0  0  0  0  0  0  0
   19.1620  -10.9277  -18.6823 N   0  0  0  0  0  0  0  0  0  0  0  0
   19.1099   -9.9294  -16.5138 C   0  0  0  0  0  0  0  0  0  0  0  0
   18.5263   -9.5099  -15.4709 O   0  0  0  0  0  0  0  0  0  0  0  0
   22.2392  -11.8229  -14.8024 C   0  0  0  0  0  0  0  0  0  0  0  0
   22.5055  -10.4004  -15.1301 C   0  0  2  0  0  0  0  0  0  0  0  0
   23.4411   -9.8528  -14.0431 C   0  0  0  0  0  0  0  0  0  0  0  0
   21.2937   -9.5178  -15.2851 C   0  0  2  0  0  0  0  0  0  0  0  0
   20.5057  -10.0229  -16.4264 N   0  0  0  0  0  0  0  0  0  0  0  0
   21.5699   -8.0925  -15.4245 C   0  0  0  0  0  0  0  0  0  0  0  0
   22.2476   -7.6347  -16.4206 O   0  0  0  0  0  0  0  0  0  0  0  0
   20.4903   -3.5666  -14.8726 O   0  0  0  0  0  0  0  0  0  0  0  0
   20.1825   -4.9297  -14.8365 C   0  0  0  0  0  0  0  0  0  0  0  0
   21.5030   -5.6930  -14.6646 C   0  0  2  0  0  0  0  0  0  0  0  0
   21.1439   -7.0879  -14.5233 N   0  0  0  0  0  0  0  0  0  0  0  0
   22.1163   -5.2317  -13.4142 C   0  0  0  0  0  0  0  0  0  0  0  0
   22.9034   -4.2576  -13.4275 O   0  0  0  0  0  0  0  0  0  0  0  0
   21.8372   -5.8610  -12.2069 O   0  0  0  0  0  0  0  0  0  0  0  0
  2  1  1  6
  2  3  1  0
  2  4  1  0
  4  6  1  0
  4  5  1  6
  6 12  1  0
  6  7  2  0
  9  8  1  1
  9 11  1  0
 10  9  1  0
 11 13  1  0
 11 12  1  6
 13 14  2  0
 15 16  1  0
 17 16  1  1
 17 19  1  0
 18 13  1  0
 18 17  1  0
 19 21  1  0
 20 19  2  0
M  END
$$$$
