VVS.pdb
     RDKit          3D

 21 20  0  0  1  0  0  0  0  0999 V2000
   18.4605  -13.1089  -16.7486 C   0  0  0  0  0  0  0  0  0  0  0  0
   17.4506  -12.0204  -17.1056 C   0  0  2  0  0  0  0  0  0  0  0  0
   16.7011  -12.5199  -18.2995 C   0  0  0  0  0  0  0  0  0  0  0  0
   18.2015  -10.7315  -17.4727 C   0  0  2  0  0  0  0  0  0  0  0  0
   18.9797  -11.0983  -18.6747 N   0  0  0  0  0  0  0  0  0  0  0  0
   19.1382  -10.3114  -16.4257 C   0  0  0  0  0  0  0  0  0  0  0  0
   18.6821  -10.0663  -15.2698 O   0  0  0  0  0  0  0  0  0  0  0  0
   22.4699  -11.9294  -15.1527 C   0  0  0  0  0  0  0  0  0  0  0  0
   22.6560  -10.4993  -15.5021 C   0  0  2  0  0  0  0  0  0  0  0  0
   23.7001   -9.9284  -14.5321 C   0  0  0  0  0  0  0  0  0  0  0  0
   21.4107   -9.6504  -15.5057 C   0  0  2  0  0  0  0  0  0  0  0  0
   20.5226  -10.1497  -16.5736 N   0  0  0  0  0  0  0  0  0  0  0  0
   21.6315   -8.2142  -15.6319 C   0  0  0  0  0  0  0  0  0  0  0  0
   22.1908   -7.7107  -16.6781 O   0  0  0  0  0  0  0  0  0  0  0  0
   19.2934   -5.6106  -14.3100 O   0  0  0  0  0  0  0  0  0  0  0  0
   20.2883   -5.1351  -15.1691 C   0  0  0  0  0  0  0  0  0  0  0  0
   21.5971   -5.8416  -14.7897 C   0  0  2  0  0  0  0  0  0  0  0  0
   21.2720   -7.2463  -14.6639 N   0  0  0  0  0  0  0  0  0  0  0  0
   22.0068   -5.3298  -13.4772 C   0  0  0  0  0  0  0  0  0  0  0  0
   21.9177   -6.0632  -12.4659 O   0  0  0  0  0  0  0  0  0  0  0  0
   22.4954   -4.0365  -13.3355 O   0  0  0  0  0  0  0  0  0  0  0  0
  2  1  1  6
  2  3  1  0
  2  4  1  0
  4  6  1  0
  4  5  1  6
  6 12  1  0
  6  7  2  0
  9  8  1  1
  9 11  1  0
 10  9  1  0
 11 13  1  0
 11 12  1  6
 13 14  2  0
 15 16  1  0
 17 16  1  1
 17 19  1  0
 18 13  1  0
 18 17  1  0
 19 21  1  0
 20 19  2  0
M  END
$$$$
