NAN.pdb
     RDKit          3D

 22 21  0  0  1  0  0  0  0  0999 V2000
   27.0591  -21.9915  -11.0096 N   0  0  0  0  0  0  0  0  0  0  0  0
   26.3600  -21.1632  -10.1219 C   0  0  0  0  0  0  0  0  0  0  0  0
   26.8308  -21.0194   -8.9486 O   0  0  0  0  0  0  0  0  0  0  0  0
   25.1147  -20.4310  -10.4167 C   0  0  0  0  0  0  0  0  0  0  0  0
   24.6253  -20.7360  -11.8394 C   0  0  2  0  0  0  0  0  0  0  0  0
   25.3674  -21.8550  -12.3331 N   0  0  0  0  0  0  0  0  0  0  0  0
   24.9314  -19.5418  -12.6471 C   0  0  0  0  0  0  0  0  0  0  0  0
   23.9888  -18.9379  -13.2171 O   0  0  0  0  0  0  0  0  0  0  0  0
   27.5374  -20.6210  -14.1248 C   0  0  0  0  0  0  0  0  0  0  0  0
   26.9275  -19.2375  -14.0447 C   0  0  2  0  0  0  0  0  0  0  0  0
   26.2798  -19.0550  -12.7958 N   0  0  0  0  0  0  0  0  0  0  0  0
   26.0346  -19.0051  -15.2119 C   0  0  0  0  0  0  0  0  0  0  0  0
   26.3782  -18.1854  -16.0916 O   0  0  0  0  0  0  0  0  0  0  0  0
   22.3412  -19.8099  -18.9231 N   0  0  0  0  0  0  0  0  0  0  0  0
   23.3787  -20.7480  -18.7003 C   0  0  0  0  0  0  0  0  0  0  0  0
   23.5277  -21.6097  -19.6343 O   0  0  0  0  0  0  0  0  0  0  0  0
   24.2441  -20.7670  -17.5041 C   0  0  0  0  0  0  0  0  0  0  0  0
   23.9988  -19.6357  -16.5772 C   0  0  2  0  0  0  0  0  0  0  0  0
   24.7948  -19.6815  -15.3723 N   0  0  0  0  0  0  0  0  0  0  0  0
   22.5703  -19.3954  -16.2994 C   0  0  0  0  0  0  0  0  0  0  0  0
   21.6796  -19.1044  -17.1155 O   0  0  0  0  0  0  0  0  0  0  0  0
   22.1558  -19.5059  -14.9563 O   0  0  0  0  0  0  0  0  0  0  0  0
  2  1  1  0
  3  2  2  0
  4  2  1  0
  4  5  1  0
  5  6  1  6
  7  5  1  0
  8  7  2  0
 10  9  1  1
 10 11  1  0
 10 12  1  0
 11  7  1  0
 12 19  1  0
 13 12  2  0
 14 15  1  0
 15 17  1  0
 16 15  2  0
 18 17  1  1
 18 20  1  0
 19 18  1  0
 20 22  1  0
 21 20  2  0
M  END
$$$$
