NAN.pdb
     RDKit          3D

 22 21  0  0  1  0  0  0  0  0999 V2000
   14.5843  -13.2010  -13.6784 N   0  0  0  0  0  0  0  0  0  0  0  0
   15.8503  -12.8775  -14.1836 C   0  0  0  0  0  0  0  0  0  0  0  0
   16.7739  -13.7452  -14.0706 O   0  0  0  0  0  0  0  0  0  0  0  0
   16.2240  -11.6127  -14.8427 C   0  0  0  0  0  0  0  0  0  0  0  0
   15.0370  -10.6397  -14.8708 C   0  0  2  0  0  0  0  0  0  0  0  0
   14.1139  -11.0952  -15.8643 N   0  0  0  0  0  0  0  0  0  0  0  0
   15.5851   -9.3297  -15.2656 C   0  0  0  0  0  0  0  0  0  0  0  0
   16.1015   -9.2072  -16.4041 O   0  0  0  0  0  0  0  0  0  0  0  0
   15.1866   -5.8204  -14.5814 C   0  0  0  0  0  0  0  0  0  0  0  0
   16.1332   -6.9794  -14.8123 C   0  0  2  0  0  0  0  0  0  0  0  0
   15.5416   -8.1939  -14.3794 N   0  0  0  0  0  0  0  0  0  0  0  0
   17.4465   -6.7013  -14.1707 C   0  0  0  0  0  0  0  0  0  0  0  0
   17.7202   -7.2425  -13.0771 O   0  0  0  0  0  0  0  0  0  0  0  0
   22.3047   -5.2231  -12.9768 N   0  0  0  0  0  0  0  0  0  0  0  0
   21.8506   -6.5106  -13.3536 C   0  0  0  0  0  0  0  0  0  0  0  0
   22.6974   -7.4509  -13.1643 O   0  0  0  0  0  0  0  0  0  0  0  0
   20.5166   -6.7924  -13.9204 C   0  0  0  0  0  0  0  0  0  0  0  0
   19.7123   -5.5733  -14.1772 C   0  0  2  0  0  0  0  0  0  0  0  0
   18.4139   -5.8379  -14.7531 N   0  0  0  0  0  0  0  0  0  0  0  0
   20.4464   -4.5204  -14.9038 C   0  0  0  0  0  0  0  0  0  0  0  0
   20.4587   -4.3150  -16.1292 O   0  0  0  0  0  0  0  0  0  0  0  0
   21.2280   -3.6391  -14.1288 O   0  0  0  0  0  0  0  0  0  0  0  0
  2  1  1  0
  3  2  2  0
  4  2  1  0
  4  5  1  0
  5  6  1  6
  7  5  1  0
  8  7  2  0
 10  9  1  1
 10 11  1  0
 10 12  1  0
 11  7  1  0
 12 19  1  0
 13 12  2  0
 14 15  1  0
 15 17  1  0
 16 15  2  0
 18 17  1  6
 18 20  1  0
 19 18  1  0
 20 22  1  0
 21 20  2  0
M  END
$$$$
