NAN.pdb
     RDKit          3D

 22 21  0  0  1  0  0  0  0  0999 V2000
   12.1251  -11.4979  -11.4564 N   0  0  0  0  0  0  0  0  0  0  0  0
   12.3038  -10.6266  -10.3740 C   0  0  0  0  0  0  0  0  0  0  0  0
   11.3895  -10.5829   -9.4901 O   0  0  0  0  0  0  0  0  0  0  0  0
   13.4628   -9.7423  -10.1544 C   0  0  0  0  0  0  0  0  0  0  0  0
   14.4754   -9.8738  -11.3007 C   0  0  2  0  0  0  0  0  0  0  0  0
   15.3650  -10.9488  -10.9850 N   0  0  0  0  0  0  0  0  0  0  0  0
   15.2240   -8.6048  -11.3391 C   0  0  0  0  0  0  0  0  0  0  0  0
   15.9262   -8.2853  -10.3478 O   0  0  0  0  0  0  0  0  0  0  0  0
   16.3068   -6.1165  -13.8622 C   0  0  0  0  0  0  0  0  0  0  0  0
   15.9384   -6.5375  -12.4553 C   0  0  2  0  0  0  0  0  0  0  0  0
   15.1682   -7.7285  -12.4820 N   0  0  0  0  0  0  0  0  0  0  0  0
   15.2657   -5.4155  -11.7465 C   0  0  0  0  0  0  0  0  0  0  0  0
   14.0504   -5.2036  -11.9509 O   0  0  0  0  0  0  0  0  0  0  0  0
   13.0631   -4.3619   -8.7704 N   0  0  0  0  0  0  0  0  0  0  0  0
   14.2284   -3.9485   -8.0797 C   0  0  0  0  0  0  0  0  0  0  0  0
   14.1672   -4.0751   -6.8080 O   0  0  0  0  0  0  0  0  0  0  0  0
   15.4391   -3.4114   -8.7322 C   0  0  0  0  0  0  0  0  0  0  0  0
   15.3605   -3.4042  -10.2131 C   0  0  2  0  0  0  0  0  0  0  0  0
   15.9519   -4.5652  -10.8374 N   0  0  0  0  0  0  0  0  0  0  0  0
   15.8165   -2.1421  -10.8252 C   0  0  0  0  0  0  0  0  0  0  0  0
   16.7549   -1.9848  -11.6244 O   0  0  0  0  0  0  0  0  0  0  0  0
   15.1139   -0.9723  -10.4701 O   0  0  0  0  0  0  0  0  0  0  0  0
  2  1  1  0
  3  2  2  0
  4  2  1  0
  4  5  1  0
  5  6  1  1
  7  5  1  0
  8  7  2  0
 10  9  1  6
 10 11  1  0
 10 12  1  0
 11  7  1  0
 12 19  1  0
 13 12  2  0
 14 15  1  0
 15 17  1  0
 16 15  2  0
 18 17  1  1
 18 20  1  0
 19 18  1  0
 20 22  1  0
 21 20  2  0
M  END
$$$$
