NAN.pdb
     RDKit          3D

 22 21  0  0  1  0  0  0  0  0999 V2000
   17.1377  -14.6396  -13.5967 N   0  0  0  0  0  0  0  0  0  0  0  0
   16.2181  -14.1657  -14.5414 C   0  0  0  0  0  0  0  0  0  0  0  0
   15.0782  -14.7285  -14.5945 O   0  0  0  0  0  0  0  0  0  0  0  0
   16.4435  -13.0635  -15.4944 C   0  0  0  0  0  0  0  0  0  0  0  0
   15.3942  -11.9582  -15.3096 C   0  0  2  0  0  0  0  0  0  0  0  0
   14.2102  -12.3495  -16.0107 N   0  0  0  0  0  0  0  0  0  0  0  0
   15.9586  -10.7446  -15.9268 C   0  0  0  0  0  0  0  0  0  0  0  0
   15.8166  -10.5713  -17.1627 O   0  0  0  0  0  0  0  0  0  0  0  0
   16.0497   -7.8545  -16.4873 C   0  0  0  0  0  0  0  0  0  0  0  0
   17.1728   -8.6133  -15.8126 C   0  0  2  0  0  0  0  0  0  0  0  0
   16.6651   -9.7590  -15.1479 N   0  0  0  0  0  0  0  0  0  0  0  0
   17.9386   -7.7033  -14.9186 C   0  0  0  0  0  0  0  0  0  0  0  0
   18.1232   -8.0300  -13.7258 O   0  0  0  0  0  0  0  0  0  0  0  0
   21.9479   -4.7245  -13.4808 N   0  0  0  0  0  0  0  0  0  0  0  0
   21.9237   -6.0795  -13.8924 C   0  0  0  0  0  0  0  0  0  0  0  0
   22.9884   -6.7368  -13.6248 O   0  0  0  0  0  0  0  0  0  0  0  0
   20.7845   -6.7242  -14.5754 C   0  0  0  0  0  0  0  0  0  0  0  0
   19.6249   -5.8214  -14.7744 C   0  0  2  0  0  0  0  0  0  0  0  0
   18.4750   -6.4655  -15.3663 N   0  0  0  0  0  0  0  0  0  0  0  0
   19.9682   -4.5540  -15.4461 C   0  0  0  0  0  0  0  0  0  0  0  0
   19.7978   -4.2613  -16.6417 O   0  0  0  0  0  0  0  0  0  0  0  0
   20.5584   -3.5512  -14.6498 O   0  0  0  0  0  0  0  0  0  0  0  0
  2  1  1  0
  3  2  2  0
  4  2  1  0
  4  5  1  0
  5  6  1  6
  7  5  1  0
  8  7  2  0
 10  9  1  1
 10 11  1  0
 10 12  1  0
 11  7  1  0
 12 19  1  0
 13 12  2  0
 14 15  1  0
 15 17  1  0
 16 15  2  0
 18 17  1  6
 18 20  1  0
 19 18  1  0
 20 22  1  0
 21 20  2  0
M  END
$$$$
