NAN.pdb
     RDKit          3D

 22 21  0  0  1  0  0  0  0  0999 V2000
   18.0438  -14.8217  -16.8113 N   0  0  0  0  0  0  0  0  0  0  0  0
   19.4025  -14.9533  -16.4962 C   0  0  0  0  0  0  0  0  0  0  0  0
   19.7969  -16.0667  -16.0231 O   0  0  0  0  0  0  0  0  0  0  0  0
   20.4357  -13.9145  -16.6606 C   0  0  0  0  0  0  0  0  0  0  0  0
   19.8286  -12.6255  -17.2320 C   0  0  2  0  0  0  0  0  0  0  0  0
   19.6518  -12.8052  -18.6402 N   0  0  0  0  0  0  0  0  0  0  0  0
   20.8162  -11.5592  -16.9875 C   0  0  0  0  0  0  0  0  0  0  0  0
   21.1507  -11.3029  -15.8042 O   0  0  0  0  0  0  0  0  0  0  0  0
   22.8194   -9.1055  -19.0128 C   0  0  0  0  0  0  0  0  0  0  0  0
   22.2500   -9.7174  -17.7504 C   0  0  2  0  0  0  0  0  0  0  0  0
   21.4027  -10.8094  -18.0697 N   0  0  0  0  0  0  0  0  0  0  0  0
   21.5801   -8.6701  -16.9329 C   0  0  0  0  0  0  0  0  0  0  0  0
   20.3837   -8.3875  -17.1616 O   0  0  0  0  0  0  0  0  0  0  0  0
   20.3539   -4.9450  -13.4596 N   0  0  0  0  0  0  0  0  0  0  0  0
   20.4614   -6.2896  -13.0275 C   0  0  0  0  0  0  0  0  0  0  0  0
   19.9411   -6.5246  -11.8825 O   0  0  0  0  0  0  0  0  0  0  0  0
   21.1101   -7.3660  -13.8025 C   0  0  0  0  0  0  0  0  0  0  0  0
   21.6447   -6.9152  -15.1103 C   0  0  2  0  0  0  0  0  0  0  0  0
   22.2482   -7.9697  -15.8921 N   0  0  0  0  0  0  0  0  0  0  0  0
   22.5033   -5.7194  -15.0198 C   0  0  0  0  0  0  0  0  0  0  0  0
   23.6932   -5.6148  -15.3625 O   0  0  0  0  0  0  0  0  0  0  0  0
   21.9172   -4.5541  -14.4844 O   0  0  0  0  0  0  0  0  0  0  0  0
  2  1  1  0
  3  2  2  0
  4  2  1  0
  4  5  1  0
  5  6  1  6
  7  5  1  0
  8  7  2  0
 10  9  1  6
 10 11  1  0
 10 12  1  0
 11  7  1  0
 12 19  1  0
 13 12  2  0
 14 15  1  0
 15 17  1  0
 16 15  2  0
 18 17  1  1
 18 20  1  0
 19 18  1  0
 20 22  1  0
 21 20  2  0
M  END
$$$$
