NAN.pdb
     RDKit          3D

 22 21  0  0  1  0  0  0  0  0999 V2000
   24.7220  -15.4848  -20.8722 N   0  0  0  0  0  0  0  0  0  0  0  0
   25.9915  -14.9511  -21.1298 C   0  0  0  0  0  0  0  0  0  0  0  0
   26.5356  -15.2263  -22.2465 O   0  0  0  0  0  0  0  0  0  0  0  0
   26.7710  -14.0899  -20.2218 C   0  0  0  0  0  0  0  0  0  0  0  0
   27.8058  -14.9132  -19.4420 C   0  0  2  0  0  0  0  0  0  0  0  0
   27.1040  -15.7286  -18.4991 N   0  0  0  0  0  0  0  0  0  0  0  0
   28.6523  -13.9422  -18.7258 C   0  0  0  0  0  0  0  0  0  0  0  0
   28.2102  -13.4107  -17.6771 O   0  0  0  0  0  0  0  0  0  0  0  0
   32.1946  -12.7883  -18.7585 C   0  0  0  0  0  0  0  0  0  0  0  0
   30.7173  -12.6398  -18.4623 C   0  0  2  0  0  0  0  0  0  0  0  0
   29.9677  -13.5921  -19.1996 N   0  0  0  0  0  0  0  0  0  0  0  0
   30.2871  -11.2359  -18.7029 C   0  0  0  0  0  0  0  0  0  0  0  0
   29.5482  -10.9810  -19.6790 O   0  0  0  0  0  0  0  0  0  0  0  0
   29.0442   -7.9591  -20.5180 N   0  0  0  0  0  0  0  0  0  0  0  0
   28.2570   -8.1681  -19.3593 C   0  0  0  0  0  0  0  0  0  0  0  0
   27.0070   -7.9454  -19.5170 O   0  0  0  0  0  0  0  0  0  0  0  0
   28.7915   -8.6088  -18.0554 C   0  0  0  0  0  0  0  0  0  0  0  0
   30.2632   -8.7909  -18.0491 C   0  0  2  0  0  0  0  0  0  0  0  0
   30.6839  -10.1605  -17.8624 N   0  0  0  0  0  0  0  0  0  0  0  0
   30.9728   -7.8571  -17.1547 C   0  0  0  0  0  0  0  0  0  0  0  0
   31.6033   -8.1326  -16.1200 O   0  0  0  0  0  0  0  0  0  0  0  0
   30.9387   -6.4915  -17.5040 O   0  0  0  0  0  0  0  0  0  0  0  0
  2  1  1  0
  3  2  2  0
  4  2  1  0
  4  5  1  0
  5  6  1  1
  7  5  1  0
  8  7  2  0
 10  9  1  6
 10 11  1  0
 10 12  1  0
 11  7  1  0
 12 19  1  0
 13 12  2  0
 14 15  1  0
 15 17  1  0
 16 15  2  0
 18 17  1  1
 18 20  1  0
 19 18  1  0
 20 22  1  0
 21 20  2  0
M  END
$$$$
