NAN.pdb
     RDKit          3D

 22 21  0  0  1  0  0  0  0  0999 V2000
   17.2573  -17.8872  -15.0402 N   0  0  0  0  0  0  0  0  0  0  0  0
   18.4060  -18.1900  -15.7828 C   0  0  0  0  0  0  0  0  0  0  0  0
   18.7540  -19.4110  -15.8664 O   0  0  0  0  0  0  0  0  0  0  0  0
   19.2643  -17.2200  -16.4873 C   0  0  0  0  0  0  0  0  0  0  0  0
   18.7039  -15.7970  -16.3542 C   0  0  2  0  0  0  0  0  0  0  0  0
   17.3769  -15.7915  -16.8888 N   0  0  0  0  0  0  0  0  0  0  0  0
   19.5725  -14.9321  -17.1725 C   0  0  0  0  0  0  0  0  0  0  0  0
   20.7585  -14.7427  -16.8045 O   0  0  0  0  0  0  0  0  0  0  0  0
   19.7473  -13.4659  -20.5391 C   0  0  0  0  0  0  0  0  0  0  0  0
   19.9453  -13.3823  -19.0404 C   0  0  2  0  0  0  0  0  0  0  0  0
   19.0938  -14.3034  -18.3778 N   0  0  0  0  0  0  0  0  0  0  0  0
   19.7685  -11.9786  -18.5797 C   0  0  0  0  0  0  0  0  0  0  0  0
   20.4789  -11.0775  -19.0765 O   0  0  0  0  0  0  0  0  0  0  0  0
   16.8506   -7.3431  -16.8084 N   0  0  0  0  0  0  0  0  0  0  0  0
   17.0935   -8.5821  -16.1667 C   0  0  0  0  0  0  0  0  0  0  0  0
   17.1758   -8.5147  -14.8917 O   0  0  0  0  0  0  0  0  0  0  0  0
   17.2441   -9.8713  -16.8705 C   0  0  0  0  0  0  0  0  0  0  0  0
   18.6568  -10.2722  -17.0770 C   0  0  2  0  0  0  0  0  0  0  0  0
   18.8169  -11.6138  -17.5889 N   0  0  0  0  0  0  0  0  0  0  0  0
   19.5250  -10.0058  -15.9148 C   0  0  0  0  0  0  0  0  0  0  0  0
   20.0213  -10.8364  -15.1351 O   0  0  0  0  0  0  0  0  0  0  0  0
   19.8345   -8.6564  -15.6477 O   0  0  0  0  0  0  0  0  0  0  0  0
  2  1  1  0
  3  2  2  0
  4  2  1  0
  4  5  1  0
  5  6  1  6
  7  5  1  0
  8  7  2  0
 10  9  1  6
 10 11  1  0
 10 12  1  0
 11  7  1  0
 12 19  1  0
 13 12  2  0
 14 15  1  0
 15 17  1  0
 16 15  2  0
 18 17  1  1
 18 20  1  0
 19 18  1  0
 20 22  1  0
 21 20  2  0
M  END
$$$$
