IMA.pdb
     RDKit          3D

 22 21  0  0  1  0  0  0  0  0999 V2000
    7.4922  -11.9283   19.2885 C   0  0  0  0  0  0  0  0  0  0  0  0
    7.4506  -13.2361   20.0094 C   0  0  0  0  0  0  0  0  0  0  0  0
    8.4383  -14.2607   19.5155 C   0  0  2  0  0  0  0  0  0  0  0  0
    7.9267  -14.7302   18.1715 C   0  0  0  0  0  0  0  0  0  0  0  0
    8.4122  -15.4736   20.4525 C   0  0  2  0  0  0  0  0  0  0  0  0
    6.9916  -15.8741   20.4451 N   0  0  0  0  0  0  0  0  0  0  0  0
    8.7530  -15.1299   21.8427 C   0  0  0  0  0  0  0  0  0  0  0  0
    9.7103  -14.3152   22.0457 O   0  0  0  0  0  0  0  0  0  0  0  0
    7.1275  -11.8181   28.2485 C   0  0  0  0  0  0  0  0  0  0  0  0
    6.6004  -12.6165   26.6943 S   0  0  0  0  0  0  0  0  0  0  0  0
    7.7848  -13.9454   26.3288 C   0  0  0  0  0  0  0  0  0  0  0  0
    7.4658  -14.4642   24.9695 C   0  0  0  0  0  0  0  0  0  0  0  0
    8.5912  -15.2893   24.3431 C   0  0  2  0  0  0  0  0  0  0  0  0
    8.1005  -15.6277   23.0034 N   0  0  0  0  0  0  0  0  0  0  0  0
    8.9776  -16.4368   25.1506 C   0  0  0  0  0  0  0  0  0  0  0  0
    8.0588  -17.2226   25.5674 O   0  0  0  0  0  0  0  0  0  0  0  0
   12.0741  -18.3135   26.0665 C   0  0  0  0  0  0  0  0  0  0  0  0
   10.5884  -18.0124   26.2806 C   0  0  2  0  0  0  0  0  0  0  0  0
   10.2903  -16.8015   25.5427 N   0  0  0  0  0  0  0  0  0  0  0  0
   10.3644  -17.8589   27.7269 C   0  0  0  0  0  0  0  0  0  0  0  0
   10.4886  -18.8227   28.5218 O   0  0  0  0  0  0  0  0  0  0  0  0
   10.0055  -16.6348   28.2665 O   0  0  0  0  0  0  0  0  0  0  0  0
  1  2  1  0
  3  5  1  0
  3  4  1  6
  3  2  1  0
  5  7  1  0
  5  6  1  1
  7 14  1  0
  7  8  2  0
  9 10  1  0
 10 11  1  0
 11 12  1  0
 13 15  1  0
 13 12  1  1
 14 13  1  0
 15 16  2  0
 18 17  1  1
 18 19  1  0
 19 15  1  0
 20 18  1  0
 21 20  2  0
 22 20  1  0
M  END
$$$$
