IMA.pdb
     RDKit          3D

 22 21  0  0  1  0  0  0  0  0999 V2000
    6.6874  -12.0482   27.8521 C   0  0  0  0  0  0  0  0  0  0  0  0
    6.1768  -13.2162   27.0732 C   0  0  0  0  0  0  0  0  0  0  0  0
    7.1710  -13.8194   26.1156 C   0  0  2  0  0  0  0  0  0  0  0  0
    7.5283  -12.7278   25.1309 C   0  0  0  0  0  0  0  0  0  0  0  0
    6.4849  -14.9342   25.3179 C   0  0  2  0  0  0  0  0  0  0  0  0
    6.3257  -16.0117   26.3139 N   0  0  0  0  0  0  0  0  0  0  0  0
    7.3313  -15.4697   24.2391 C   0  0  0  0  0  0  0  0  0  0  0  0
    7.7768  -16.6570   24.3545 O   0  0  0  0  0  0  0  0  0  0  0  0
    9.1032  -12.7914   18.5855 C   0  0  0  0  0  0  0  0  0  0  0  0
    7.3546  -12.7348   19.1052 S   0  0  0  0  0  0  0  0  0  0  0  0
    7.1094  -14.0312   20.3548 C   0  0  0  0  0  0  0  0  0  0  0  0
    8.4569  -14.4506   20.8310 C   0  0  0  0  0  0  0  0  0  0  0  0
    8.4198  -15.4634   21.9767 C   0  0  2  0  0  0  0  0  0  0  0  0
    7.7035  -14.7757   23.0556 N   0  0  0  0  0  0  0  0  0  0  0  0
    9.7379  -15.9566   22.3478 C   0  0  0  0  0  0  0  0  0  0  0  0
   10.4089  -16.6096   21.4768 O   0  0  0  0  0  0  0  0  0  0  0  0
   12.1864  -15.6950   25.1786 C   0  0  0  0  0  0  0  0  0  0  0  0
   11.6948  -16.3527   23.8865 C   0  0  2  0  0  0  0  0  0  0  0  0
   10.3893  -15.7950   23.5966 N   0  0  0  0  0  0  0  0  0  0  0  0
   11.6480  -17.8063   24.1111 C   0  0  0  0  0  0  0  0  0  0  0  0
   10.5633  -18.4147   24.2829 O   0  0  0  0  0  0  0  0  0  0  0  0
   12.8092  -18.5605   24.1412 O   0  0  0  0  0  0  0  0  0  0  0  0
  1  2  1  0
  3  5  1  0
  3  4  1  6
  3  2  1  0
  5  7  1  0
  5  6  1  1
  7 14  1  0
  7  8  2  0
  9 10  1  0
 10 11  1  0
 11 12  1  0
 13 15  1  0
 13 12  1  6
 14 13  1  0
 15 16  2  0
 18 17  1  1
 18 19  1  0
 19 15  1  0
 20 18  1  0
 21 20  2  0
 22 20  1  0
M  END
$$$$
