IMA.pdb
     RDKit          3D

 22 21  0  0  1  0  0  0  0  0999 V2000
   10.0656  -15.8102   18.4305 C   0  0  0  0  0  0  0  0  0  0  0  0
    9.6058  -14.6787   19.2907 C   0  0  0  0  0  0  0  0  0  0  0  0
    8.1124  -14.5848   19.4649 C   0  0  2  0  0  0  0  0  0  0  0  0
    7.5469  -14.2419   18.1043 C   0  0  0  0  0  0  0  0  0  0  0  0
    7.7896  -13.4083   20.3929 C   0  0  2  0  0  0  0  0  0  0  0  0
    8.5450  -12.2905   19.7943 N   0  0  0  0  0  0  0  0  0  0  0  0
    8.3109  -13.5957   21.7567 C   0  0  0  0  0  0  0  0  0  0  0  0
    9.4920  -13.1944   22.0119 O   0  0  0  0  0  0  0  0  0  0  0  0
    6.4159  -11.8378   27.8575 C   0  0  0  0  0  0  0  0  0  0  0  0
    7.2569  -11.8220   26.2378 S   0  0  0  0  0  0  0  0  0  0  0  0
    6.3518  -12.9490   25.1364 C   0  0  0  0  0  0  0  0  0  0  0  0
    7.0700  -14.2538   25.1475 C   0  0  0  0  0  0  0  0  0  0  0  0
    8.2335  -14.3273   24.1572 C   0  0  2  0  0  0  0  0  0  0  0  0
    7.6065  -14.1906   22.8388 N   0  0  0  0  0  0  0  0  0  0  0  0
    9.0461  -15.5242   24.3163 C   0  0  0  0  0  0  0  0  0  0  0  0
    9.6045  -15.7326   25.4477 O   0  0  0  0  0  0  0  0  0  0  0  0
    9.9301  -18.6373   22.4117 C   0  0  0  0  0  0  0  0  0  0  0  0
   10.1328  -17.6789   23.5882 C   0  0  2  0  0  0  0  0  0  0  0  0
    9.3009  -16.5191   23.3390 N   0  0  0  0  0  0  0  0  0  0  0  0
   11.5638  -17.3412   23.6519 C   0  0  0  0  0  0  0  0  0  0  0  0
   12.4367  -18.2052   23.9121 O   0  0  0  0  0  0  0  0  0  0  0  0
   12.0012  -16.0468   23.4251 O   0  0  0  0  0  0  0  0  0  0  0  0
  1  2  1  0
  3  5  1  0
  3  4  1  6
  3  2  1  0
  5  7  1  0
  5  6  1  6
  7 14  1  0
  7  8  2  0
  9 10  1  0
 10 11  1  0
 11 12  1  0
 13 15  1  0
 13 12  1  1
 14 13  1  0
 15 16  2  0
 18 17  1  6
 18 19  1  0
 19 15  1  0
 20 18  1  0
 21 20  2  0
 22 20  1  0
M  END
$$$$
