IMA.pdb
     RDKit          3D

 22 21  0  0  1  0  0  0  0  0999 V2000
    4.1419  -20.1373   22.1887 C   0  0  0  0  0  0  0  0  0  0  0  0
    5.2300  -19.9169   23.1883 C   0  0  0  0  0  0  0  0  0  0  0  0
    5.9041  -18.5725   23.1012 C   0  0  2  0  0  0  0  0  0  0  0  0
    6.4903  -18.4808   21.7095 C   0  0  0  0  0  0  0  0  0  0  0  0
    7.0794  -18.5371   24.0847 C   0  0  2  0  0  0  0  0  0  0  0  0
    6.4317  -18.7638   25.3914 N   0  0  0  0  0  0  0  0  0  0  0  0
    7.7293  -17.2180   24.1520 C   0  0  0  0  0  0  0  0  0  0  0  0
    8.8196  -17.0493   23.5162 O   0  0  0  0  0  0  0  0  0  0  0  0
    5.1808  -12.1955   27.1608 C   0  0  0  0  0  0  0  0  0  0  0  0
    6.2059  -11.2995   25.9454 S   0  0  0  0  0  0  0  0  0  0  0  0
    7.5552  -12.4070   25.4403 C   0  0  0  0  0  0  0  0  0  0  0  0
    6.9862  -13.7789   25.3281 C   0  0  0  0  0  0  0  0  0  0  0  0
    8.0043  -14.8370   24.8993 C   0  0  2  0  0  0  0  0  0  0  0  0
    7.2449  -16.0910   24.8703 N   0  0  0  0  0  0  0  0  0  0  0  0
    9.1878  -14.8691   25.7458 C   0  0  0  0  0  0  0  0  0  0  0  0
   10.0120  -13.8940   25.6738 O   0  0  0  0  0  0  0  0  0  0  0  0
   10.5943  -14.6108   28.4125 C   0  0  0  0  0  0  0  0  0  0  0  0
   10.7454  -15.8194   27.4849 C   0  0  2  0  0  0  0  0  0  0  0  0
    9.5486  -15.8814   26.6704 N   0  0  0  0  0  0  0  0  0  0  0  0
   10.9149  -17.0143   28.3270 C   0  0  0  0  0  0  0  0  0  0  0  0
   10.0874  -17.9584   28.3104 O   0  0  0  0  0  0  0  0  0  0  0  0
   12.0030  -17.1403   29.1747 O   0  0  0  0  0  0  0  0  0  0  0  0
  1  2  1  0
  3  5  1  0
  3  4  1  6
  3  2  1  0
  5  7  1  0
  5  6  1  1
  7 14  1  0
  7  8  2  0
  9 10  1  0
 10 11  1  0
 11 12  1  0
 13 15  1  0
 13 12  1  1
 14 13  1  0
 15 16  2  0
 18 17  1  1
 18 19  1  0
 19 15  1  0
 20 18  1  0
 21 20  2  0
 22 20  1  0
M  END
$$$$
