IMA.pdb
     RDKit          3D

 22 21  0  0  1  0  0  0  0  0999 V2000
    8.0826  -16.1945   17.3375 C   0  0  0  0  0  0  0  0  0  0  0  0
    7.6340  -15.0812   18.2268 C   0  0  0  0  0  0  0  0  0  0  0  0
    8.2064  -15.1165   19.6198 C   0  0  2  0  0  0  0  0  0  0  0  0
    7.7892  -16.4425   20.2169 C   0  0  0  0  0  0  0  0  0  0  0  0
    7.5445  -14.0193   20.4611 C   0  0  2  0  0  0  0  0  0  0  0  0
    7.9053  -12.7811   19.7433 N   0  0  0  0  0  0  0  0  0  0  0  0
    8.1159  -13.9123   21.8135 C   0  0  0  0  0  0  0  0  0  0  0  0
    9.2493  -13.3477   21.9469 O   0  0  0  0  0  0  0  0  0  0  0  0
    7.2020  -10.8557   27.3645 C   0  0  0  0  0  0  0  0  0  0  0  0
    6.1296  -12.2764   26.9616 S   0  0  0  0  0  0  0  0  0  0  0  0
    6.5153  -12.7931   25.2626 C   0  0  0  0  0  0  0  0  0  0  0  0
    7.1615  -14.1328   25.3409 C   0  0  0  0  0  0  0  0  0  0  0  0
    8.2399  -14.3617   24.2805 C   0  0  2  0  0  0  0  0  0  0  0  0
    7.5097  -14.3854   23.0091 N   0  0  0  0  0  0  0  0  0  0  0  0
    9.0487  -15.5451   24.5326 C   0  0  0  0  0  0  0  0  0  0  0  0
    9.7010  -15.6118   25.6305 O   0  0  0  0  0  0  0  0  0  0  0  0
    9.6552  -18.9361   23.0501 C   0  0  0  0  0  0  0  0  0  0  0  0
   10.0180  -17.8171   24.0300 C   0  0  2  0  0  0  0  0  0  0  0  0
    9.2052  -16.6689   23.6826 N   0  0  0  0  0  0  0  0  0  0  0  0
   11.4584  -17.5485   23.8930 C   0  0  0  0  0  0  0  0  0  0  0  0
   12.3242  -18.3860   24.2467 O   0  0  0  0  0  0  0  0  0  0  0  0
   11.9130  -16.3518   23.3644 O   0  0  0  0  0  0  0  0  0  0  0  0
  1  2  1  0
  3  5  1  0
  3  4  1  1
  3  2  1  0
  5  7  1  0
  5  6  1  6
  7 14  1  0
  7  8  2  0
  9 10  1  0
 10 11  1  0
 11 12  1  0
 13 15  1  0
 13 12  1  1
 14 13  1  0
 15 16  2  0
 18 17  1  6
 18 19  1  0
 19 15  1  0
 20 18  1  0
 21 20  2  0
 22 20  1  0
M  END
$$$$
