IMA.pdb
     RDKit          3D

 22 21  0  0  1  0  0  0  0  0999 V2000
    7.1319  -12.5976   18.0449 C   0  0  0  0  0  0  0  0  0  0  0  0
    7.5562  -13.8535   18.7337 C   0  0  0  0  0  0  0  0  0  0  0  0
    8.2206  -13.6469   20.0698 C   0  0  2  0  0  0  0  0  0  0  0  0
    9.5385  -12.9601   19.7870 C   0  0  0  0  0  0  0  0  0  0  0  0
    8.5505  -15.0132   20.6815 C   0  0  2  0  0  0  0  0  0  0  0  0
    7.2947  -15.7699   20.5119 N   0  0  0  0  0  0  0  0  0  0  0  0
    8.8165  -14.9433   22.1276 C   0  0  0  0  0  0  0  0  0  0  0  0
   10.0155  -14.7546   22.5123 O   0  0  0  0  0  0  0  0  0  0  0  0
    7.8089  -11.3189   27.5666 C   0  0  0  0  0  0  0  0  0  0  0  0
    6.4758  -12.4877   27.1333 S   0  0  0  0  0  0  0  0  0  0  0  0
    7.2514  -14.0770   26.7150 C   0  0  0  0  0  0  0  0  0  0  0  0
    7.0511  -14.2993   25.2560 C   0  0  0  0  0  0  0  0  0  0  0  0
    8.2303  -14.9898   24.5684 C   0  0  2  0  0  0  0  0  0  0  0  0
    7.8429  -15.0652   23.1563 N   0  0  0  0  0  0  0  0  0  0  0  0
    8.5726  -16.2709   25.1682 C   0  0  0  0  0  0  0  0  0  0  0  0
    7.6553  -17.1554   25.2751 O   0  0  0  0  0  0  0  0  0  0  0  0
   11.4792  -18.4119   25.5154 C   0  0  0  0  0  0  0  0  0  0  0  0
   10.1253  -18.0182   26.1118 C   0  0  2  0  0  0  0  0  0  0  0  0
    9.8397  -16.6704   25.6630 N   0  0  0  0  0  0  0  0  0  0  0  0
   10.2345  -18.1117   27.5764 C   0  0  0  0  0  0  0  0  0  0  0  0
   10.1574  -17.0972   28.3119 O   0  0  0  0  0  0  0  0  0  0  0  0
   10.4279  -19.3332   28.2000 O   0  0  0  0  0  0  0  0  0  0  0  0
  1  2  1  0
  3  5  1  0
  3  4  1  6
  3  2  1  0
  5  7  1  0
  5  6  1  1
  7 14  1  0
  7  8  2  0
  9 10  1  0
 10 11  1  0
 11 12  1  0
 13 15  1  0
 13 12  1  1
 14 13  1  0
 15 16  2  0
 18 17  1  6
 18 19  1  0
 19 15  1  0
 20 18  1  0
 21 20  2  0
 22 20  1  0
M  END
$$$$
