IMA.pdb
     RDKit          3D

 22 21  0  0  1  0  0  0  0  0999 V2000
    7.0555  -12.4896   17.9091 C   0  0  0  0  0  0  0  0  0  0  0  0
    7.5961  -13.7096   18.5806 C   0  0  0  0  0  0  0  0  0  0  0  0
    7.9639  -13.5221   20.0293 C   0  0  2  0  0  0  0  0  0  0  0  0
    9.1626  -12.5993   20.0471 C   0  0  0  0  0  0  0  0  0  0  0  0
    8.4249  -14.8652   20.6067 C   0  0  2  0  0  0  0  0  0  0  0  0
    7.2175  -15.7078   20.5042 N   0  0  0  0  0  0  0  0  0  0  0  0
    8.7712  -14.7850   22.0352 C   0  0  0  0  0  0  0  0  0  0  0  0
    9.9511  -14.4253   22.3510 O   0  0  0  0  0  0  0  0  0  0  0  0
    8.0062  -12.3808   28.5706 C   0  0  0  0  0  0  0  0  0  0  0  0
    7.6360  -12.8052   26.8346 S   0  0  0  0  0  0  0  0  0  0  0  0
    7.2810  -14.5862   26.7669 C   0  0  0  0  0  0  0  0  0  0  0  0
    7.0697  -14.9435   25.3364 C   0  0  0  0  0  0  0  0  0  0  0  0
    8.3539  -14.9518   24.5053 C   0  0  2  0  0  0  0  0  0  0  0  0
    7.8959  -15.0731   23.1177 N   0  0  0  0  0  0  0  0  0  0  0  0
    9.2976  -15.9792   24.9200 C   0  0  0  0  0  0  0  0  0  0  0  0
    9.9593  -16.5960   24.0161 O   0  0  0  0  0  0  0  0  0  0  0  0
   11.9106  -16.9323   26.0770 C   0  0  0  0  0  0  0  0  0  0  0  0
   10.5457  -17.4261   26.5641 C   0  0  2  0  0  0  0  0  0  0  0  0
    9.5821  -16.3916   26.2463 N   0  0  0  0  0  0  0  0  0  0  0  0
   10.6473  -17.6745   28.0110 C   0  0  0  0  0  0  0  0  0  0  0  0
   11.4653  -18.5007   28.4848 O   0  0  0  0  0  0  0  0  0  0  0  0
    9.8366  -16.9995   28.9086 O   0  0  0  0  0  0  0  0  0  0  0  0
  1  2  1  0
  3  5  1  0
  3  4  1  6
  3  2  1  0
  5  7  1  0
  5  6  1  1
  7 14  1  0
  7  8  2  0
  9 10  1  0
 10 11  1  0
 11 12  1  0
 13 15  1  0
 13 12  1  1
 14 13  1  0
 15 16  2  0
 18 17  1  1
 18 19  1  0
 19 15  1  0
 20 18  1  0
 21 20  2  0
 22 20  1  0
M  END
$$$$
