IMA.pdb
     RDKit          3D

 22 21  0  0  1  0  0  0  0  0999 V2000
    7.0224  -18.9600   19.0760 C   0  0  0  0  0  0  0  0  0  0  0  0
    7.0802  -17.4883   19.3264 C   0  0  0  0  0  0  0  0  0  0  0  0
    7.7182  -17.0952   20.6332 C   0  0  2  0  0  0  0  0  0  0  0  0
    6.8552  -17.6913   21.7234 C   0  0  0  0  0  0  0  0  0  0  0  0
    7.6451  -15.5719   20.7877 C   0  0  2  0  0  0  0  0  0  0  0  0
    8.4521  -15.0795   19.6543 N   0  0  0  0  0  0  0  0  0  0  0  0
    8.2949  -15.0898   22.0175 C   0  0  0  0  0  0  0  0  0  0  0  0
    9.5665  -15.1165   22.0785 O   0  0  0  0  0  0  0  0  0  0  0  0
    5.2781  -11.7180   26.7241 C   0  0  0  0  0  0  0  0  0  0  0  0
    7.0577  -11.4307   27.0094 S   0  0  0  0  0  0  0  0  0  0  0  0
    7.9458  -12.9338   26.5050 C   0  0  0  0  0  0  0  0  0  0  0  0
    7.4226  -13.3323   25.1686 C   0  0  0  0  0  0  0  0  0  0  0  0
    8.3746  -14.2283   24.3743 C   0  0  2  0  0  0  0  0  0  0  0  0
    7.6255  -14.5840   23.1651 N   0  0  0  0  0  0  0  0  0  0  0  0
    8.8603  -15.3675   25.1389 C   0  0  0  0  0  0  0  0  0  0  0  0
    9.5267  -15.1421   26.2068 O   0  0  0  0  0  0  0  0  0  0  0  0
    8.7327  -19.1264   25.0462 C   0  0  0  0  0  0  0  0  0  0  0  0
    9.2665  -17.8092   25.6154 C   0  0  2  0  0  0  0  0  0  0  0  0
    8.6775  -16.7401   24.8346 N   0  0  0  0  0  0  0  0  0  0  0  0
   10.7343  -17.8370   25.5134 C   0  0  0  0  0  0  0  0  0  0  0  0
   11.4264  -18.6667   26.1528 O   0  0  0  0  0  0  0  0  0  0  0  0
   11.4093  -16.9409   24.7012 O   0  0  0  0  0  0  0  0  0  0  0  0
  1  2  1  0
  3  5  1  0
  3  4  1  1
  3  2  1  0
  5  7  1  0
  5  6  1  6
  7 14  1  0
  7  8  2  0
  9 10  1  0
 10 11  1  0
 11 12  1  0
 13 15  1  0
 13 12  1  1
 14 13  1  0
 15 16  2  0
 18 17  1  6
 18 19  1  0
 19 15  1  0
 20 18  1  0
 21 20  2  0
 22 20  1  0
M  END
$$$$
