IMA.pdb
     RDKit          3D

 22 21  0  0  1  0  0  0  0  0999 V2000
    8.7099  -18.0338   28.9787 C   0  0  0  0  0  0  0  0  0  0  0  0
    7.7285  -17.7062   27.9010 C   0  0  0  0  0  0  0  0  0  0  0  0
    8.2931  -17.7308   26.5046 C   0  0  2  0  0  0  0  0  0  0  0  0
    9.3914  -16.6909   26.4722 C   0  0  0  0  0  0  0  0  0  0  0  0
    7.2126  -17.2709   25.5195 C   0  0  2  0  0  0  0  0  0  0  0  0
    6.1655  -18.3011   25.6634 N   0  0  0  0  0  0  0  0  0  0  0  0
    7.6620  -17.3098   24.1183 C   0  0  0  0  0  0  0  0  0  0  0  0
    7.8078  -18.4462   23.5626 O   0  0  0  0  0  0  0  0  0  0  0  0
    7.8736  -12.1749   20.7111 C   0  0  0  0  0  0  0  0  0  0  0  0
    6.6047  -13.3039   20.0431 S   0  0  0  0  0  0  0  0  0  0  0  0
    6.8039  -14.9085   20.8723 C   0  0  0  0  0  0  0  0  0  0  0  0
    8.2391  -15.0396   21.2487 C   0  0  0  0  0  0  0  0  0  0  0  0
    8.5680  -16.3376   21.9882 C   0  0  2  0  0  0  0  0  0  0  0  0
    7.9513  -16.1776   23.3089 N   0  0  0  0  0  0  0  0  0  0  0  0
    9.9928  -16.6328   22.0206 C   0  0  0  0  0  0  0  0  0  0  0  0
   10.6083  -16.5316   23.1370 O   0  0  0  0  0  0  0  0  0  0  0  0
   12.0189  -18.8920   21.8340 C   0  0  0  0  0  0  0  0  0  0  0  0
   12.1472  -17.5576   21.0947 C   0  0  2  0  0  0  0  0  0  0  0  0
   10.8066  -17.0327   20.9308 N   0  0  0  0  0  0  0  0  0  0  0  0
   12.8102  -17.8185   19.8071 C   0  0  0  0  0  0  0  0  0  0  0  0
   12.1893  -17.7529   18.7178 O   0  0  0  0  0  0  0  0  0  0  0  0
   14.1541  -18.1486   19.7515 O   0  0  0  0  0  0  0  0  0  0  0  0
  1  2  1  0
  3  5  1  0
  3  4  1  1
  3  2  1  0
  5  7  1  0
  5  6  1  6
  7 14  1  0
  7  8  2  0
  9 10  1  0
 10 11  1  0
 11 12  1  0
 13 15  1  0
 13 12  1  6
 14 13  1  0
 15 16  2  0
 18 17  1  1
 18 19  1  0
 19 15  1  0
 20 18  1  0
 21 20  2  0
 22 20  1  0
M  END
$$$$
