IMA.pdb
     RDKit          3D

 22 21  0  0  1  0  0  0  0  0999 V2000
    7.5543  -20.4513   20.3799 C   0  0  0  0  0  0  0  0  0  0  0  0
    7.6661  -18.9643   20.2902 C   0  0  0  0  0  0  0  0  0  0  0  0
    8.1813  -18.2938   21.5370 C   0  0  2  0  0  0  0  0  0  0  0  0
    7.1792  -18.5992   22.6284 C   0  0  0  0  0  0  0  0  0  0  0  0
    8.1686  -16.7750   21.3304 C   0  0  2  0  0  0  0  0  0  0  0  0
    9.1411  -16.5758   20.2382 N   0  0  0  0  0  0  0  0  0  0  0  0
    8.6770  -16.0348   22.4968 C   0  0  0  0  0  0  0  0  0  0  0  0
    9.9232  -16.0920   22.7517 O   0  0  0  0  0  0  0  0  0  0  0  0
    5.9891  -10.7507   25.8850 C   0  0  0  0  0  0  0  0  0  0  0  0
    6.4040  -12.1477   26.9836 S   0  0  0  0  0  0  0  0  0  0  0  0
    7.9028  -12.9382   26.3270 C   0  0  0  0  0  0  0  0  0  0  0  0
    7.5365  -13.5819   25.0348 C   0  0  0  0  0  0  0  0  0  0  0  0
    8.4655  -14.7279   24.6300 C   0  0  2  0  0  0  0  0  0  0  0  0
    7.8947  -15.2436   23.3817 N   0  0  0  0  0  0  0  0  0  0  0  0
    8.6304  -15.7275   25.6750 C   0  0  0  0  0  0  0  0  0  0  0  0
    9.2073  -15.3796   26.7620 O   0  0  0  0  0  0  0  0  0  0  0  0
    7.5861  -19.2223   26.5094 C   0  0  0  0  0  0  0  0  0  0  0  0
    8.5548  -18.0464   26.6603 C   0  0  2  0  0  0  0  0  0  0  0  0
    8.2151  -17.0824   25.6333 N   0  0  0  0  0  0  0  0  0  0  0  0
    9.9226  -18.5683   26.5112 C   0  0  0  0  0  0  0  0  0  0  0  0
   10.4045  -19.4016   27.3173 O   0  0  0  0  0  0  0  0  0  0  0  0
   10.7333  -18.1548   25.4671 O   0  0  0  0  0  0  0  0  0  0  0  0
  1  2  1  0
  3  5  1  0
  3  4  1  1
  3  2  1  0
  5  7  1  0
  5  6  1  6
  7 14  1  0
  7  8  2  0
  9 10  1  0
 10 11  1  0
 11 12  1  0
 13 15  1  0
 13 12  1  1
 14 13  1  0
 15 16  2  0
 18 17  1  6
 18 19  1  0
 19 15  1  0
 20 18  1  0
 21 20  2  0
 22 20  1  0
M  END
$$$$
