LHI.pdb
     RDKit          3D

 27 27  0  0  1  0  0  0  0  0999 V2000
   28.0236  -18.9152   -6.3235 C   0  0  0  0  0  0  0  0  0  0  0  0
   27.9767  -20.0735   -7.2892 C   0  0  1  0  0  0  0  0  0  0  0  0
   27.4119  -21.2699   -6.5194 C   0  0  0  0  0  0  0  0  0  0  0  0
   27.0528  -19.8167   -8.4524 C   0  0  0  0  0  0  0  0  0  0  0  0
   26.9704  -20.9831   -9.4082 C   0  0  2  0  0  0  0  0  0  0  0  0
   28.3203  -21.2144   -9.9017 N   0  0  0  0  0  0  0  0  0  0  0  0
   26.0852  -20.5471  -10.5345 C   0  0  0  0  0  0  0  0  0  0  0  0
   25.7681  -19.3390  -10.6314 O   0  0  0  0  0  0  0  0  0  0  0  0
   25.6309  -21.5338  -11.4661 N   0  0  0  0  0  0  0  0  0  0  0  0
   24.8901  -21.0158  -12.6347 C   0  0  1  0  0  0  0  0  0  0  0  0
   25.5610  -21.6550  -13.8225 C   0  0  0  0  0  0  0  0  0  0  0  0
   24.9276  -21.2468  -15.0984 C   0  0  0  0  0  0  0  0  0  0  0  0
   23.7933  -20.4315  -15.1947 C   0  0  0  0  0  0  0  0  0  0  0  0
   23.5172  -20.2837  -16.4888 N   0  0  0  0  0  0  0  0  0  0  0  0
   24.4111  -20.9584  -17.2307 C   0  0  0  0  0  0  0  0  0  0  0  0
   25.2602  -21.5372  -16.3638 N   0  0  0  0  0  0  0  0  0  0  0  0
   23.4888  -21.4141  -12.4638 C   0  0  0  0  0  0  0  0  0  0  0  0
   23.1208  -22.5136  -11.9565 O   0  0  0  0  0  0  0  0  0  0  0  0
   20.2605  -18.4025   -9.9018 C   0  0  0  0  0  0  0  0  0  0  0  0
   20.9027  -19.5933  -10.5979 C   0  0  0  0  0  0  0  0  0  0  0  0
   20.3325  -19.7844  -11.9706 C   0  0  2  0  0  0  0  0  0  0  0  0
   18.8457  -19.9757  -11.8182 C   0  0  0  0  0  0  0  0  0  0  0  0
   21.0187  -20.9048  -12.6847 C   0  0  2  0  0  0  0  0  0  0  0  0
   22.4468  -20.5677  -12.8670 N   0  0  0  0  0  0  0  0  0  0  0  0
   20.4299  -21.3173  -13.9551 C   0  0  0  0  0  0  0  0  0  0  0  0
   20.6512  -20.6978  -15.1559 O   0  0  0  0  0  0  0  0  0  0  0  0
   19.6403  -22.3258  -14.0101 O   0  0  0  0  0  0  0  0  0  0  0  0
  2  1  1  1
  2  3  1  0
  4  5  1  0
  4  2  1  0
  5  7  1  0
  5  6  1  6
  7  8  2  0
  9 10  1  0
  9  7  1  0
 11 12  1  0
 10 11  1  6
 12 16  1  0
 13 12  2  0
 13 14  1  0
 14 15  1  0
 16 15  2  0
 17 18  2  0
 17 10  1  0
 19 20  1  0
 20 21  1  0
 21 23  1  0
 21 22  1  1
 23 24  1  6
 23 25  1  0
 24 17  1  0
 25 26  1  0
 27 25  2  0
M  END
$$$$
