LHI.pdb
     RDKit          3D

 27 27  0  0  1  0  0  0  0  0999 V2000
   27.4826  -13.7446  -17.8213 C   0  0  0  0  0  0  0  0  0  0  0  0
   27.7558  -15.1892  -17.4821 C   0  0  1  0  0  0  0  0  0  0  0  0
   28.1915  -15.2254  -16.0153 C   0  0  0  0  0  0  0  0  0  0  0  0
   26.5252  -16.0517  -17.6021 C   0  0  0  0  0  0  0  0  0  0  0  0
   26.7448  -17.4632  -17.1120 C   0  0  2  0  0  0  0  0  0  0  0  0
   27.7087  -18.0736  -18.0163 N   0  0  0  0  0  0  0  0  0  0  0  0
   25.4258  -18.1626  -17.2276 C   0  0  0  0  0  0  0  0  0  0  0  0
   24.7474  -18.0212  -18.2711 O   0  0  0  0  0  0  0  0  0  0  0  0
   24.9857  -18.9732  -16.1336 N   0  0  0  0  0  0  0  0  0  0  0  0
   23.6686  -19.6199  -16.3070 C   0  0  1  0  0  0  0  0  0  0  0  0
   23.8715  -21.0303  -15.8178 C   0  0  0  0  0  0  0  0  0  0  0  0
   22.6057  -21.8006  -15.8180 C   0  0  0  0  0  0  0  0  0  0  0  0
   21.8037  -22.0073  -14.6890 C   0  0  0  0  0  0  0  0  0  0  0  0
   20.7592  -22.7396  -15.0705 N   0  0  0  0  0  0  0  0  0  0  0  0
   20.8443  -23.0154  -16.3824 C   0  0  0  0  0  0  0  0  0  0  0  0
   21.9760  -22.4343  -16.8172 N   0  0  0  0  0  0  0  0  0  0  0  0
   22.7065  -18.8517  -15.5097 C   0  0  0  0  0  0  0  0  0  0  0  0
   22.9521  -18.3831  -14.3600 O   0  0  0  0  0  0  0  0  0  0  0  0
   20.6488  -14.8132  -17.4451 C   0  0  0  0  0  0  0  0  0  0  0  0
   21.0012  -15.7233  -16.2778 C   0  0  0  0  0  0  0  0  0  0  0  0
   19.8960  -16.6977  -16.0039 C   0  0  2  0  0  0  0  0  0  0  0  0
   18.7801  -15.9370  -15.3355 C   0  0  0  0  0  0  0  0  0  0  0  0
   20.3942  -17.8646  -15.2127 C   0  0  2  0  0  0  0  0  0  0  0  0
   21.4192  -18.5862  -15.9967 N   0  0  0  0  0  0  0  0  0  0  0  0
   19.3801  -18.7955  -14.7271 C   0  0  0  0  0  0  0  0  0  0  0  0
   18.8879  -18.8172  -13.4496 O   0  0  0  0  0  0  0  0  0  0  0  0
   18.8785  -19.6787  -15.5094 O   0  0  0  0  0  0  0  0  0  0  0  0
  2  1  1  1
  2  3  1  0
  4  5  1  0
  4  2  1  0
  5  7  1  0
  5  6  1  6
  7  8  2  0
  9 10  1  0
  9  7  1  0
 11 12  1  0
 10 11  1  1
 12 16  1  0
 13 12  2  0
 13 14  1  0
 14 15  1  0
 16 15  2  0
 17 18  2  0
 17 10  1  0
 19 20  1  0
 20 21  1  0
 21 23  1  0
 21 22  1  1
 23 24  1  6
 23 25  1  0
 24 17  1  0
 25 26  1  0
 27 25  2  0
M  END
$$$$
