LHI.pdb
     RDKit          3D

 27 27  0  0  1  0  0  0  0  0999 V2000
   28.4488  -16.6986  -16.3344 C   0  0  0  0  0  0  0  0  0  0  0  0
   27.9601  -18.0893  -16.0123 C   0  0  1  0  0  0  0  0  0  0  0  0
   29.1881  -19.0029  -16.0170 C   0  0  0  0  0  0  0  0  0  0  0  0
   27.3437  -18.1796  -14.6395 C   0  0  0  0  0  0  0  0  0  0  0  0
   26.9968  -19.5945  -14.2412 C   0  0  2  0  0  0  0  0  0  0  0  0
   26.1271  -20.1201  -15.2836 N   0  0  0  0  0  0  0  0  0  0  0  0
   26.2433  -19.4995  -12.9507 C   0  0  0  0  0  0  0  0  0  0  0  0
   25.6976  -18.4158  -12.6389 O   0  0  0  0  0  0  0  0  0  0  0  0
   26.1735  -20.6589  -12.1149 N   0  0  0  0  0  0  0  0  0  0  0  0
   25.4228  -20.4926  -10.8533 C   0  0  1  0  0  0  0  0  0  0  0  0
   24.2360  -21.4098  -10.9946 C   0  0  0  0  0  0  0  0  0  0  0  0
   23.2217  -20.8587  -11.9236 C   0  0  0  0  0  0  0  0  0  0  0  0
   22.2017  -19.9751  -11.5498 C   0  0  0  0  0  0  0  0  0  0  0  0
   21.4909  -19.7017  -12.6419 N   0  0  0  0  0  0  0  0  0  0  0  0
   21.9969  -20.3600  -13.6979 C   0  0  0  0  0  0  0  0  0  0  0  0
   23.0497  -21.0581  -13.2377 N   0  0  0  0  0  0  0  0  0  0  0  0
   26.3303  -20.8660   -9.7630 C   0  0  0  0  0  0  0  0  0  0  0  0
   27.1789  -21.8021   -9.8358 O   0  0  0  0  0  0  0  0  0  0  0  0
   29.7875  -18.8688   -5.3302 C   0  0  0  0  0  0  0  0  0  0  0  0
   28.8233  -19.9679   -5.7510 C   0  0  0  0  0  0  0  0  0  0  0  0
   28.0349  -19.5577   -6.9576 C   0  0  2  0  0  0  0  0  0  0  0  0
   27.3917  -18.2312   -6.6459 C   0  0  0  0  0  0  0  0  0  0  0  0
   27.0649  -20.6250   -7.3523 C   0  0  2  0  0  0  0  0  0  0  0  0
   26.3048  -20.1811   -8.5404 N   0  0  0  0  0  0  0  0  0  0  0  0
   26.1520  -21.0851   -6.3103 C   0  0  0  0  0  0  0  0  0  0  0  0
   26.5177  -21.8457   -5.2321 O   0  0  0  0  0  0  0  0  0  0  0  0
   24.9063  -20.7856   -6.3567 O   0  0  0  0  0  0  0  0  0  0  0  0
  2  1  1  1
  2  3  1  0
  4  5  1  0
  4  2  1  0
  5  7  1  0
  5  6  1  6
  7  8  2  0
  9 10  1  0
  9  7  1  0
 11 12  1  0
 10 11  1  6
 12 16  1  0
 13 12  2  0
 13 14  1  0
 14 15  1  0
 16 15  2  0
 17 18  2  0
 17 10  1  0
 19 20  1  0
 20 21  1  0
 21 23  1  0
 21 22  1  1
 23 24  1  6
 23 25  1  0
 24 17  1  0
 25 26  1  0
 27 25  2  0
M  END
$$$$
