VCG.pdb
     RDKit          3D

 18 17  0  0  1  0  0  0  0  0999 V2000
    9.0887  -12.6857   19.9123 C   0  0  0  0  0  0  0  0  0  0  0  0
    7.6604  -13.2300   19.9355 C   0  0  1  0  0  0  0  0  0  0  0  0
    7.2205  -13.4667   18.5257 C   0  0  0  0  0  0  0  0  0  0  0  0
    7.6610  -14.4909   20.7665 C   0  0  2  0  0  0  0  0  0  0  0  0
    6.4779  -15.2736   20.6009 N   0  0  0  0  0  0  0  0  0  0  0  0
    7.7857  -14.1133   22.2051 C   0  0  0  0  0  0  0  0  0  0  0  0
    7.4057  -12.9967   22.6428 O   0  0  0  0  0  0  0  0  0  0  0  0
    8.3476  -15.0148   23.1526 N   0  0  0  0  0  0  0  0  0  0  0  0
    8.0909  -14.8468   24.5683 C   0  0  1  0  0  0  0  0  0  0  0  0
    6.6099  -14.8742   24.8226 C   0  0  0  0  0  0  0  0  0  0  0  0
    6.0751  -13.7720   26.1173 S   0  0  0  0  0  0  0  0  0  0  0  0
    8.8483  -15.8303   25.3237 C   0  0  0  0  0  0  0  0  0  0  0  0
    9.0357  -15.8148   26.5659 O   0  0  0  0  0  0  0  0  0  0  0  0
    9.4498  -16.9306   24.6219 N   0  0  0  0  0  0  0  0  0  0  0  0
   10.7183  -16.7695   23.9461 C   0  0  0  0  0  0  0  0  0  0  0  0
   11.8642  -16.9883   24.8654 C   0  0  0  0  0  0  0  0  0  0  0  0
   12.8625  -17.8930   24.5722 O   0  0  0  0  0  0  0  0  0  0  0  0
   11.9183  -16.3301   25.9331 O   0  0  0  0  0  0  0  0  0  0  0  0
  2  1  1  6
  2  3  1  0
  4  5  1  1
  4  2  1  0
  6  4  1  0
  7  6  2  0
  8  6  1  0
  9  8  1  0
  9 12  1  0
  9 10  1  6
 11 10  1  0
 12 14  1  0
 13 12  2  0
 14 15  1  0
 15 16  1  0
 16 17  1  0
 18 16  2  0
M  END
$$$$
