VCG.pdb
     RDKit          3D

 18 17  0  0  1  0  0  0  0  0999 V2000
    1.5826  -23.2902   22.0098 C   0  0  0  0  0  0  0  0  0  0  0  0
    2.6448  -23.0850   23.0897 C   0  0  1  0  0  0  0  0  0  0  0  0
    3.2042  -24.4207   23.4641 C   0  0  0  0  0  0  0  0  0  0  0  0
    3.6913  -22.1483   22.5348 C   0  0  2  0  0  0  0  0  0  0  0  0
    4.3937  -22.6902   21.4155 N   0  0  0  0  0  0  0  0  0  0  0  0
    4.6765  -21.8419   23.6134 C   0  0  0  0  0  0  0  0  0  0  0  0
    4.3534  -21.2340   24.6665 O   0  0  0  0  0  0  0  0  0  0  0  0
    6.0402  -22.2309   23.4915 N   0  0  0  0  0  0  0  0  0  0  0  0
    6.9929  -21.9055   24.5331 C   0  0  1  0  0  0  0  0  0  0  0  0
    7.0471  -23.0213   25.5384 C   0  0  0  0  0  0  0  0  0  0  0  0
    8.2877  -22.8027   26.7995 S   0  0  0  0  0  0  0  0  0  0  0  0
    8.2754  -21.5713   23.9371 C   0  0  0  0  0  0  0  0  0  0  0  0
    8.8399  -22.2041   23.0100 O   0  0  0  0  0  0  0  0  0  0  0  0
    8.9889  -20.4234   24.4253 N   0  0  0  0  0  0  0  0  0  0  0  0
   10.2301  -20.0094   23.8092 C   0  0  0  0  0  0  0  0  0  0  0  0
   11.4070  -20.6300   24.4694 C   0  0  0  0  0  0  0  0  0  0  0  0
   11.4102  -20.9172   25.8180 O   0  0  0  0  0  0  0  0  0  0  0  0
   12.4194  -20.8967   23.7766 O   0  0  0  0  0  0  0  0  0  0  0  0
  2  1  1  6
  2  3  1  0
  4  5  1  6
  4  2  1  0
  6  4  1  0
  7  6  2  0
  8  6  1  0
  9  8  1  0
  9 12  1  0
  9 10  1  1
 11 10  1  0
 12 14  1  0
 13 12  2  0
 14 15  1  0
 15 16  1  0
 16 17  1  0
 18 16  2  0
M  END
$$$$
