VCG.pdb
     RDKit          3D

 18 17  0  0  1  0  0  0  0  0999 V2000
    6.0428  -16.1548   20.1545 C   0  0  0  0  0  0  0  0  0  0  0  0
    6.6434  -15.9302   21.5421 C   0  0  1  0  0  0  0  0  0  0  0  0
    7.4471  -17.1364   21.9115 C   0  0  0  0  0  0  0  0  0  0  0  0
    7.4736  -14.6700   21.4868 C   0  0  2  0  0  0  0  0  0  0  0  0
    8.6044  -14.7795   20.6213 N   0  0  0  0  0  0  0  0  0  0  0  0
    7.9555  -14.3560   22.8640 C   0  0  0  0  0  0  0  0  0  0  0  0
    9.1178  -14.6422   23.2514 O   0  0  0  0  0  0  0  0  0  0  0  0
    7.1068  -13.7111   23.8074 N   0  0  0  0  0  0  0  0  0  0  0  0
    7.5887  -13.4023   25.1382 C   0  0  1  0  0  0  0  0  0  0  0  0
    6.6879  -12.3855   25.7812 C   0  0  0  0  0  0  0  0  0  0  0  0
    7.0763  -12.0477   27.4877 S   0  0  0  0  0  0  0  0  0  0  0  0
    7.7477  -14.6302   25.8988 C   0  0  0  0  0  0  0  0  0  0  0  0
    6.8919  -15.5442   26.0025 O   0  0  0  0  0  0  0  0  0  0  0  0
    8.9781  -14.8528   26.6071 N   0  0  0  0  0  0  0  0  0  0  0  0
    9.1176  -15.9748   27.5089 C   0  0  0  0  0  0  0  0  0  0  0  0
   10.0238  -17.0149   26.9583 C   0  0  0  0  0  0  0  0  0  0  0  0
   10.7515  -17.8478   27.7817 O   0  0  0  0  0  0  0  0  0  0  0  0
   10.1243  -17.1328   25.7125 O   0  0  0  0  0  0  0  0  0  0  0  0
  2  1  1  6
  2  3  1  0
  4  5  1  6
  4  2  1  0
  6  4  1  0
  7  6  2  0
  8  6  1  0
  9  8  1  0
  9 12  1  0
  9 10  1  1
 11 10  1  0
 12 14  1  0
 13 12  2  0
 14 15  1  0
 15 16  1  0
 16 17  1  0
 18 16  2  0
M  END
$$$$
