VCG.pdb
     RDKit          3D

 18 17  0  0  1  0  0  0  0  0999 V2000
    6.7915  -14.0571   18.1050 C   0  0  0  0  0  0  0  0  0  0  0  0
    7.4369  -14.3999   19.4476 C   0  0  1  0  0  0  0  0  0  0  0  0
    8.5228  -15.4007   19.2096 C   0  0  0  0  0  0  0  0  0  0  0  0
    7.9493  -13.1155   20.0542 C   0  0  2  0  0  0  0  0  0  0  0  0
    9.0296  -12.5387   19.3194 N   0  0  0  0  0  0  0  0  0  0  0  0
    8.4144  -13.3973   21.4441 C   0  0  0  0  0  0  0  0  0  0  0  0
    9.6260  -13.5935   21.7211 O   0  0  0  0  0  0  0  0  0  0  0  0
    7.4925  -13.4561   22.5270 N   0  0  0  0  0  0  0  0  0  0  0  0
    7.9383  -13.8373   23.8515 C   0  0  1  0  0  0  0  0  0  0  0  0
    6.9960  -13.2839   24.8833 C   0  0  0  0  0  0  0  0  0  0  0  0
    7.2579  -13.9273   26.5249 S   0  0  0  0  0  0  0  0  0  0  0  0
    8.1170  -15.2781   23.9125 C   0  0  0  0  0  0  0  0  0  0  0  0
    7.2200  -16.1367   23.7206 O   0  0  0  0  0  0  0  0  0  0  0  0
    9.4197  -15.8030   24.2163 N   0  0  0  0  0  0  0  0  0  0  0  0
    9.6383  -17.2300   24.3027 C   0  0  0  0  0  0  0  0  0  0  0  0
   10.0231  -17.6465   25.6755 C   0  0  0  0  0  0  0  0  0  0  0  0
   10.3618  -18.9512   25.9660 O   0  0  0  0  0  0  0  0  0  0  0  0
   10.0380  -16.7845   26.5881 O   0  0  0  0  0  0  0  0  0  0  0  0
  2  1  1  6
  2  3  1  0
  4  5  1  6
  4  2  1  0
  6  4  1  0
  7  6  2  0
  8  6  1  0
  9  8  1  0
  9 12  1  0
  9 10  1  1
 11 10  1  0
 12 14  1  0
 13 12  2  0
 14 15  1  0
 15 16  1  0
 16 17  1  0
 18 16  2  0
M  END
$$$$
