VCG.pdb
     RDKit          3D

 18 17  0  0  1  0  0  0  0  0999 V2000
    7.6664  -19.5804   25.1827 C   0  0  0  0  0  0  0  0  0  0  0  0
    6.8507  -19.8348   23.9152 C   0  0  1  0  0  0  0  0  0  0  0  0
    6.1518  -21.1496   24.0574 C   0  0  0  0  0  0  0  0  0  0  0  0
    5.8929  -18.6799   23.7438 C   0  0  2  0  0  0  0  0  0  0  0  0
    4.9919  -18.8548   22.6496 N   0  0  0  0  0  0  0  0  0  0  0  0
    6.6838  -17.4348   23.5162 C   0  0  0  0  0  0  0  0  0  0  0  0
    7.2583  -17.1933   22.4232 O   0  0  0  0  0  0  0  0  0  0  0  0
    6.8215  -16.4572   24.5416 N   0  0  0  0  0  0  0  0  0  0  0  0
    7.6151  -15.2659   24.3190 C   0  0  1  0  0  0  0  0  0  0  0  0
    6.8831  -14.0627   24.8436 C   0  0  0  0  0  0  0  0  0  0  0  0
    6.1752  -14.2929   26.4632 S   0  0  0  0  0  0  0  0  0  0  0  0
    8.9439  -15.4511   24.8772 C   0  0  0  0  0  0  0  0  0  0  0  0
    9.2306  -15.4585   26.1004 O   0  0  0  0  0  0  0  0  0  0  0  0
   10.0511  -15.6454   23.9820 N   0  0  0  0  0  0  0  0  0  0  0  0
   11.3837  -15.8737   24.4956 C   0  0  0  0  0  0  0  0  0  0  0  0
   12.3845  -15.9804   23.4033 C   0  0  0  0  0  0  0  0  0  0  0  0
   13.6791  -15.5337   23.5639 O   0  0  0  0  0  0  0  0  0  0  0  0
   12.0361  -16.4906   22.3104 O   0  0  0  0  0  0  0  0  0  0  0  0
  2  1  1  1
  2  3  1  0
  4  5  1  6
  4  2  1  0
  6  4  1  0
  7  6  2  0
  8  6  1  0
  9  8  1  0
  9 12  1  0
  9 10  1  1
 11 10  1  0
 12 14  1  0
 13 12  2  0
 14 15  1  0
 15 16  1  0
 16 17  1  0
 18 16  2  0
M  END
$$$$
