ICH.pdb
     RDKit          3D

 25 25  0  0  1  0  0  0  0  0999 V2000
   27.9375  -18.9175   -6.3152 C   0  0  0  0  0  0  0  0  0  0  0  0
   28.2364  -20.1255   -7.1766 C   0  0  0  0  0  0  0  0  0  0  0  0
   27.5013  -19.9330   -8.4816 C   0  0  2  0  0  0  0  0  0  0  0  0
   26.0152  -19.9054   -8.1633 C   0  0  0  0  0  0  0  0  0  0  0  0
   27.7336  -21.0754   -9.4409 C   0  0  2  0  0  0  0  0  0  0  0  0
   29.1415  -21.2126   -9.7172 N   0  0  0  0  0  0  0  0  0  0  0  0
   26.9728  -20.7339  -10.6947 C   0  0  0  0  0  0  0  0  0  0  0  0
   27.3428  -19.7909  -11.4347 O   0  0  0  0  0  0  0  0  0  0  0  0
   25.8182  -21.4645  -11.0779 N   0  0  0  0  0  0  0  0  0  0  0  0
   25.1394  -21.2817  -12.3460 C   0  0  1  0  0  0  0  0  0  0  0  0
   25.2217  -22.5622  -13.1574 C   0  0  0  0  0  0  0  0  0  0  0  0
   24.4827  -22.3516  -14.7802 S   0  0  0  0  0  0  0  0  0  0  0  0
   23.7449  -20.8423  -12.1763 C   0  0  0  0  0  0  0  0  0  0  0  0
   23.0478  -21.3684  -11.2731 O   0  0  0  0  0  0  0  0  0  0  0  0
   23.1324  -19.8457  -12.9834 N   0  0  0  0  0  0  0  0  0  0  0  0
   21.7444  -19.4104  -12.7366 C   0  0  1  0  0  0  0  0  0  0  0  0
   21.5360  -18.1447  -13.5362 C   0  0  0  0  0  0  0  0  0  0  0  0
   20.1824  -17.5726  -13.3854 C   0  0  0  0  0  0  0  0  0  0  0  0
   19.1927  -17.9420  -12.5018 C   0  0  0  0  0  0  0  0  0  0  0  0
   18.0951  -17.1660  -12.7019 N   0  0  0  0  0  0  0  0  0  0  0  0
   18.4012  -16.3255  -13.6980 C   0  0  0  0  0  0  0  0  0  0  0  0
   19.6562  -16.5545  -14.1245 N   0  0  0  0  0  0  0  0  0  0  0  0
   20.7888  -20.4522  -13.1351 C   0  0  0  0  0  0  0  0  0  0  0  0
   21.0092  -21.1344  -14.1592 O   0  0  0  0  0  0  0  0  0  0  0  0
   19.6613  -20.6667  -12.3757 O   0  0  0  0  0  0  0  0  0  0  0  0
  2  1  1  0
  2  3  1  0
  3  5  1  0
  3  4  1  1
  5  6  1  6
  5  7  1  0
  7  8  2  0
  9  7  1  0
  9 10  1  0
 10 11  1  1
 12 11  1  0
 13 14  2  0
 13 10  1  0
 15 13  1  0
 16 15  1  0
 16 17  1  6
 18 22  1  0
 18 17  1  0
 19 18  2  0
 20 19  1  0
 20 21  1  0
 21 22  2  0
 23 16  1  0
 24 23  2  0
 25 23  1  0
M  END
$$$$
