ICH.pdb
     RDKit          3D

 25 25  0  0  1  0  0  0  0  0999 V2000
   17.4821  -13.6953  -19.3555 C   0  0  0  0  0  0  0  0  0  0  0  0
   18.9318  -13.5695  -18.9396 C   0  0  0  0  0  0  0  0  0  0  0  0
   19.0046  -12.4653  -17.9120 C   0  0  2  0  0  0  0  0  0  0  0  0
   18.6130  -11.1727  -18.6093 C   0  0  0  0  0  0  0  0  0  0  0  0
   20.4026  -12.2789  -17.3733 C   0  0  2  0  0  0  0  0  0  0  0  0
   20.8683  -13.5015  -16.7687 N   0  0  0  0  0  0  0  0  0  0  0  0
   20.3168  -11.1755  -16.3522 C   0  0  0  0  0  0  0  0  0  0  0  0
   19.7844  -11.3742  -15.2339 O   0  0  0  0  0  0  0  0  0  0  0  0
   20.8332   -9.8813  -16.6209 N   0  0  0  0  0  0  0  0  0  0  0  0
   20.7455   -8.7747  -15.6881 C   0  0  1  0  0  0  0  0  0  0  0  0
   22.1273   -8.4528  -15.1477 C   0  0  0  0  0  0  0  0  0  0  0  0
   22.0666   -7.0916  -13.9784 S   0  0  0  0  0  0  0  0  0  0  0  0
   20.1127   -7.5877  -16.2856 C   0  0  0  0  0  0  0  0  0  0  0  0
   20.4800   -7.2133  -17.4273 O   0  0  0  0  0  0  0  0  0  0  0  0
   19.0982   -6.8304  -15.6398 N   0  0  0  0  0  0  0  0  0  0  0  0
   18.5731   -5.5892  -16.2405 C   0  0  1  0  0  0  0  0  0  0  0  0
   17.0948   -5.5456  -15.9280 C   0  0  0  0  0  0  0  0  0  0  0  0
   16.3030   -6.5223  -16.7035 C   0  0  0  0  0  0  0  0  0  0  0  0
   16.4231   -6.8545  -18.0346 C   0  0  0  0  0  0  0  0  0  0  0  0
   15.4916   -7.7916  -18.3526 N   0  0  0  0  0  0  0  0  0  0  0  0
   14.8024   -8.0371  -17.2315 C   0  0  0  0  0  0  0  0  0  0  0  0
   15.2762   -7.2814  -16.2247 N   0  0  0  0  0  0  0  0  0  0  0  0
   19.2639   -4.4112  -15.6997 C   0  0  0  0  0  0  0  0  0  0  0  0
   20.1513   -4.5592  -14.8318 O   0  0  0  0  0  0  0  0  0  0  0  0
   18.9271   -3.1571  -16.1554 O   0  0  0  0  0  0  0  0  0  0  0  0
  2  1  1  0
  2  3  1  0
  3  5  1  0
  3  4  1  6
  5  6  1  1
  5  7  1  0
  7  8  2  0
  9  7  1  0
  9 10  1  0
 10 11  1  6
 12 11  1  0
 13 14  2  0
 13 10  1  0
 15 13  1  0
 16 15  1  0
 16 17  1  1
 18 22  1  0
 18 17  1  0
 19 18  2  0
 20 19  1  0
 20 21  1  0
 21 22  2  0
 23 16  1  0
 24 23  2  0
 25 23  1  0
M  END
$$$$
