ICH.pdb
     RDKit          3D

 25 25  0  0  1  0  0  0  0  0999 V2000
   26.7876  -32.1616   -8.6374 C   0  0  0  0  0  0  0  0  0  0  0  0
   25.6884  -33.0892   -8.1664 C   0  0  0  0  0  0  0  0  0  0  0  0
   25.3159  -32.6613   -6.7669 C   0  0  2  0  0  0  0  0  0  0  0  0
   26.4691  -33.0463   -5.8546 C   0  0  0  0  0  0  0  0  0  0  0  0
   24.0857  -33.3754   -6.2608 C   0  0  2  0  0  0  0  0  0  0  0  0
   22.9646  -33.1054   -7.1252 N   0  0  0  0  0  0  0  0  0  0  0  0
   23.8321  -32.8461   -4.8741 C   0  0  0  0  0  0  0  0  0  0  0  0
   23.4996  -31.6501   -4.6930 O   0  0  0  0  0  0  0  0  0  0  0  0
   23.9605  -33.6793   -3.7326 N   0  0  0  0  0  0  0  0  0  0  0  0
   23.7750  -33.2095   -2.3734 C   0  0  1  0  0  0  0  0  0  0  0  0
   22.4504  -33.7192   -1.8342 C   0  0  0  0  0  0  0  0  0  0  0  0
   21.3976  -34.3196   -3.1589 S   0  0  0  0  0  0  0  0  0  0  0  0
   24.8934  -33.5856   -1.4935 C   0  0  0  0  0  0  0  0  0  0  0  0
   25.3687  -34.7456   -1.5774 O   0  0  0  0  0  0  0  0  0  0  0  0
   25.4749  -32.7037   -0.5429 N   0  0  0  0  0  0  0  0  0  0  0  0
   26.4892  -33.1781    0.4179 C   0  0  1  0  0  0  0  0  0  0  0  0
   26.9064  -31.9792    1.2386 C   0  0  0  0  0  0  0  0  0  0  0  0
   27.9307  -32.2931    2.2556 C   0  0  0  0  0  0  0  0  0  0  0  0
   29.0615  -33.0671    2.1182 C   0  0  0  0  0  0  0  0  0  0  0  0
   29.7283  -33.1079    3.3017 N   0  0  0  0  0  0  0  0  0  0  0  0
   29.0187  -32.3677    4.1625 C   0  0  0  0  0  0  0  0  0  0  0  0
   27.9302  -31.8671    3.5510 N   0  0  0  0  0  0  0  0  0  0  0  0
   25.9457  -34.2419    1.2725 C   0  0  0  0  0  0  0  0  0  0  0  0
   26.7146  -35.1028    1.7524 O   0  0  0  0  0  0  0  0  0  0  0  0
   24.5956  -34.2786    1.5363 O   0  0  0  0  0  0  0  0  0  0  0  0
  2  1  1  0
  2  3  1  0
  3  5  1  0
  3  4  1  1
  5  6  1  6
  5  7  1  0
  7  8  2  0
  9  7  1  0
  9 10  1  0
 10 11  1  1
 12 11  1  0
 13 14  2  0
 13 10  1  0
 15 13  1  0
 16 15  1  0
 16 17  1  1
 18 22  1  0
 18 17  1  0
 19 18  2  0
 20 19  1  0
 20 21  1  0
 21 22  2  0
 23 16  1  0
 24 23  2  0
 25 23  1  0
M  END
$$$$
