ICH.pdb
     RDKit          3D

 25 25  0  0  1  0  0  0  0  0999 V2000
   27.3348  -17.0747  -16.7560 C   0  0  0  0  0  0  0  0  0  0  0  0
   28.0952  -18.1484  -16.0080 C   0  0  0  0  0  0  0  0  0  0  0  0
   27.0782  -18.9610  -15.2426 C   0  0  2  0  0  0  0  0  0  0  0  0
   26.4324  -18.0343  -14.2254 C   0  0  0  0  0  0  0  0  0  0  0  0
   27.7147  -20.0951  -14.4757 C   0  0  2  0  0  0  0  0  0  0  0  0
   28.3987  -20.9836  -15.3811 N   0  0  0  0  0  0  0  0  0  0  0  0
   26.5920  -20.8093  -13.7708 C   0  0  0  0  0  0  0  0  0  0  0  0
   25.7448  -21.4713  -14.4172 O   0  0  0  0  0  0  0  0  0  0  0  0
   26.4568  -20.7568  -12.3592 N   0  0  0  0  0  0  0  0  0  0  0  0
   25.3230  -21.3074  -11.6425 C   0  0  1  0  0  0  0  0  0  0  0  0
   25.6543  -21.4079  -10.1643 C   0  0  0  0  0  0  0  0  0  0  0  0
   25.9482  -19.7859   -9.4527 S   0  0  0  0  0  0  0  0  0  0  0  0
   24.0907  -20.5340  -11.8652 C   0  0  0  0  0  0  0  0  0  0  0  0
   24.0975  -19.2996  -11.6306 O   0  0  0  0  0  0  0  0  0  0  0  0
   22.8784  -21.1074  -12.3356 N   0  0  0  0  0  0  0  0  0  0  0  0
   21.6252  -20.3291  -12.3606 C   0  0  1  0  0  0  0  0  0  0  0  0
   21.8349  -19.1969  -13.3400 C   0  0  0  0  0  0  0  0  0  0  0  0
   22.3671  -19.6416  -14.6443 C   0  0  0  0  0  0  0  0  0  0  0  0
   22.7533  -20.9084  -15.0221 C   0  0  0  0  0  0  0  0  0  0  0  0
   23.1945  -20.8823  -16.3072 N   0  0  0  0  0  0  0  0  0  0  0  0
   23.0830  -19.6139  -16.7209 C   0  0  0  0  0  0  0  0  0  0  0  0
   22.5857  -18.8491  -15.7324 N   0  0  0  0  0  0  0  0  0  0  0  0
   20.4913  -21.1727  -12.7609 C   0  0  0  0  0  0  0  0  0  0  0  0
   19.3415  -20.6839  -12.8027 O   0  0  0  0  0  0  0  0  0  0  0  0
   20.7076  -22.4921  -13.0868 O   0  0  0  0  0  0  0  0  0  0  0  0
  2  1  1  0
  2  3  1  0
  3  5  1  0
  3  4  1  1
  5  6  1  6
  5  7  1  0
  7  8  2  0
  9  7  1  0
  9 10  1  0
 10 11  1  1
 12 11  1  0
 13 14  2  0
 13 10  1  0
 15 13  1  0
 16 15  1  0
 16 17  1  6
 18 22  1  0
 18 17  1  0
 19 18  2  0
 20 19  1  0
 20 21  1  0
 21 22  2  0
 23 16  1  0
 24 23  2  0
 25 23  1  0
M  END
$$$$
