ICH.pdb
     RDKit          3D

 25 25  0  0  1  0  0  0  0  0999 V2000
   21.1476  -23.2557  -13.8710 C   0  0  0  0  0  0  0  0  0  0  0  0
   21.7750  -21.9027  -13.6133 C   0  0  0  0  0  0  0  0  0  0  0  0
   23.0087  -21.8133  -14.4797 C   0  0  2  0  0  0  0  0  0  0  0  0
   23.9409  -22.9366  -14.0558 C   0  0  0  0  0  0  0  0  0  0  0  0
   23.7520  -20.5143  -14.2810 C   0  0  2  0  0  0  0  0  0  0  0  0
   22.8624  -19.3981  -14.4809 N   0  0  0  0  0  0  0  0  0  0  0  0
   24.8612  -20.5038  -15.2994 C   0  0  0  0  0  0  0  0  0  0  0  0
   24.6120  -20.6231  -16.5230 O   0  0  0  0  0  0  0  0  0  0  0  0
   26.2180  -20.3593  -14.9095 N   0  0  0  0  0  0  0  0  0  0  0  0
   27.3205  -20.3102  -15.8499 C   0  0  1  0  0  0  0  0  0  0  0  0
   28.2371  -19.1514  -15.5008 C   0  0  0  0  0  0  0  0  0  0  0  0
   27.3343  -17.6001  -15.4545 S   0  0  0  0  0  0  0  0  0  0  0  0
   28.0609  -21.5808  -15.9114 C   0  0  0  0  0  0  0  0  0  0  0  0
   28.3563  -22.1642  -14.8386 O   0  0  0  0  0  0  0  0  0  0  0  0
   28.4665  -22.1947  -17.1272 N   0  0  0  0  0  0  0  0  0  0  0  0
   28.7729  -23.6367  -17.1891 C   0  0  1  0  0  0  0  0  0  0  0  0
   27.5889  -24.3599  -16.5890 C   0  0  0  0  0  0  0  0  0  0  0  0
   27.6608  -25.8276  -16.7402 C   0  0  0  0  0  0  0  0  0  0  0  0
   28.3751  -26.7300  -15.9839 C   0  0  0  0  0  0  0  0  0  0  0  0
   28.1722  -27.9845  -16.4656 N   0  0  0  0  0  0  0  0  0  0  0  0
   27.3418  -27.8607  -17.5084 C   0  0  0  0  0  0  0  0  0  0  0  0
   27.0213  -26.5671  -17.6909 N   0  0  0  0  0  0  0  0  0  0  0  0
   29.0084  -24.0643  -18.5744 C   0  0  0  0  0  0  0  0  0  0  0  0
   29.3706  -25.2381  -18.8061 O   0  0  0  0  0  0  0  0  0  0  0  0
   28.8266  -23.1679  -19.6027 O   0  0  0  0  0  0  0  0  0  0  0  0
  2  1  1  0
  2  3  1  0
  3  5  1  0
  3  4  1  1
  5  6  1  6
  5  7  1  0
  7  8  2  0
  9  7  1  0
  9 10  1  0
 10 11  1  1
 12 11  1  0
 13 14  2  0
 13 10  1  0
 15 13  1  0
 16 15  1  0
 16 17  1  6
 18 22  1  0
 18 17  1  0
 19 18  2  0
 20 19  1  0
 20 21  1  0
 21 22  2  0
 23 16  1  0
 24 23  2  0
 25 23  1  0
M  END
$$$$
