ICH.pdb
     RDKit          3D

 25 25  0  0  1  0  0  0  0  0999 V2000
   28.4334  -13.9582  -15.8150 C   0  0  0  0  0  0  0  0  0  0  0  0
   27.0638  -14.4778  -15.4344 C   0  0  0  0  0  0  0  0  0  0  0  0
   26.0601  -13.4283  -15.8484 C   0  0  2  0  0  0  0  0  0  0  0  0
   26.3200  -12.1946  -14.9995 C   0  0  0  0  0  0  0  0  0  0  0  0
   24.6386  -13.8632  -15.5845 C   0  0  2  0  0  0  0  0  0  0  0  0
   24.4120  -15.1770  -16.1321 N   0  0  0  0  0  0  0  0  0  0  0  0
   23.7551  -12.8444  -16.2546 C   0  0  0  0  0  0  0  0  0  0  0  0
   23.8328  -12.6387  -17.4896 O   0  0  0  0  0  0  0  0  0  0  0  0
   22.8105  -12.0875  -15.5139 N   0  0  0  0  0  0  0  0  0  0  0  0
   21.9344  -11.0973  -16.1091 C   0  0  1  0  0  0  0  0  0  0  0  0
   20.4937  -11.4048  -15.7420 C   0  0  0  0  0  0  0  0  0  0  0  0
   19.3779  -10.1547  -16.3871 S   0  0  0  0  0  0  0  0  0  0  0  0
   22.3035   -9.7236  -15.7305 C   0  0  0  0  0  0  0  0  0  0  0  0
   22.6080   -9.4838  -14.5354 O   0  0  0  0  0  0  0  0  0  0  0  0
   22.3362   -8.6387  -16.6479 N   0  0  0  0  0  0  0  0  0  0  0  0
   22.6332   -7.2658  -16.1962 C   0  0  1  0  0  0  0  0  0  0  0  0
   23.0747   -6.4915  -17.4170 C   0  0  0  0  0  0  0  0  0  0  0  0
   23.4491   -5.0935  -17.1203 C   0  0  0  0  0  0  0  0  0  0  0  0
   24.7087   -4.5388  -17.0710 C   0  0  0  0  0  0  0  0  0  0  0  0
   24.6104   -3.2213  -16.7526 N   0  0  0  0  0  0  0  0  0  0  0  0
   23.3050   -2.9627  -16.6063 C   0  0  0  0  0  0  0  0  0  0  0  0
   22.5871   -4.0792  -16.8240 N   0  0  0  0  0  0  0  0  0  0  0  0
   21.4523   -6.6501  -15.5767 C   0  0  0  0  0  0  0  0  0  0  0  0
   20.3094   -6.9847  -15.9568 O   0  0  0  0  0  0  0  0  0  0  0  0
   21.6173   -5.7118  -14.5836 O   0  0  0  0  0  0  0  0  0  0  0  0
  2  1  1  0
  2  3  1  0
  3  5  1  0
  3  4  1  1
  5  6  1  6
  5  7  1  0
  7  8  2  0
  9  7  1  0
  9 10  1  0
 10 11  1  1
 12 11  1  0
 13 14  2  0
 13 10  1  0
 15 13  1  0
 16 15  1  0
 16 17  1  6
 18 22  1  0
 18 17  1  0
 19 18  2  0
 20 19  1  0
 20 21  1  0
 21 22  2  0
 23 16  1  0
 24 23  2  0
 25 23  1  0
M  END
$$$$
