ICH.pdb
     RDKit          3D

 25 25  0  0  1  0  0  0  0  0999 V2000
   17.8117  -14.9992  -18.6547 C   0  0  0  0  0  0  0  0  0  0  0  0
   18.0413  -14.6188  -17.2079 C   0  0  0  0  0  0  0  0  0  0  0  0
   17.5686  -13.1941  -17.0432 C   0  0  2  0  0  0  0  0  0  0  0  0
   18.3950  -12.3321  -17.9836 C   0  0  0  0  0  0  0  0  0  0  0  0
   17.7958  -12.6761  -15.6434 C   0  0  2  0  0  0  0  0  0  0  0  0
   17.0227  -13.4428  -14.6992 N   0  0  0  0  0  0  0  0  0  0  0  0
   17.3565  -11.2358  -15.6508 C   0  0  0  0  0  0  0  0  0  0  0  0
   17.9075  -10.3993  -16.4059 O   0  0  0  0  0  0  0  0  0  0  0  0
   16.3098  -10.7805  -14.8076 N   0  0  0  0  0  0  0  0  0  0  0  0
   15.8077   -9.4203  -14.8179 C   0  0  1  0  0  0  0  0  0  0  0  0
   14.5114   -9.3495  -14.0308 C   0  0  0  0  0  0  0  0  0  0  0  0
   13.9131   -7.6606  -13.9152 S   0  0  0  0  0  0  0  0  0  0  0  0
   16.7966   -8.4546  -14.3120 C   0  0  0  0  0  0  0  0  0  0  0  0
   17.6526   -8.8423  -13.4779 O   0  0  0  0  0  0  0  0  0  0  0  0
   16.8414   -7.0928  -14.7157 N   0  0  0  0  0  0  0  0  0  0  0  0
   17.8774   -6.1775  -14.2001 C   0  0  1  0  0  0  0  0  0  0  0  0
   19.1644   -6.5327  -14.9088 C   0  0  0  0  0  0  0  0  0  0  0  0
   20.2658   -5.5878  -14.6319 C   0  0  0  0  0  0  0  0  0  0  0  0
   21.2789   -5.7049  -13.7064 C   0  0  0  0  0  0  0  0  0  0  0  0
   22.0781   -4.6075  -13.7696 N   0  0  0  0  0  0  0  0  0  0  0  0
   21.5660   -3.8197  -14.7232 C   0  0  0  0  0  0  0  0  0  0  0  0
   20.4720   -4.3930  -15.2560 N   0  0  0  0  0  0  0  0  0  0  0  0
   17.5081   -4.7767  -14.4427 C   0  0  0  0  0  0  0  0  0  0  0  0
   16.5194   -4.5134  -15.1610 O   0  0  0  0  0  0  0  0  0  0  0  0
   18.2544   -3.7691  -13.8756 O   0  0  0  0  0  0  0  0  0  0  0  0
  2  1  1  0
  2  3  1  0
  3  5  1  0
  3  4  1  6
  5  6  1  1
  5  7  1  0
  7  8  2  0
  9  7  1  0
  9 10  1  0
 10 11  1  1
 12 11  1  0
 13 14  2  0
 13 10  1  0
 15 13  1  0
 16 15  1  0
 16 17  1  6
 18 22  1  0
 18 17  1  0
 19 18  2  0
 20 19  1  0
 20 21  1  0
 21 22  2  0
 23 16  1  0
 24 23  2  0
 25 23  1  0
M  END
$$$$
