ICH.pdb
     RDKit          3D

 25 25  0  0  1  0  0  0  0  0999 V2000
   21.2436  -16.4720  -17.6105 C   0  0  0  0  0  0  0  0  0  0  0  0
   21.3766  -16.6873  -16.1184 C   0  0  0  0  0  0  0  0  0  0  0  0
   21.4073  -15.3220  -15.4738 C   0  0  2  0  0  0  0  0  0  0  0  0
   20.1599  -14.5806  -15.9262 C   0  0  0  0  0  0  0  0  0  0  0  0
   22.5989  -14.5084  -15.9182 C   0  0  2  0  0  0  0  0  0  0  0  0
   23.8211  -15.1942  -15.5821 N   0  0  0  0  0  0  0  0  0  0  0  0
   22.5057  -13.1931  -15.1909 C   0  0  0  0  0  0  0  0  0  0  0  0
   22.5440  -13.1471  -13.9379 O   0  0  0  0  0  0  0  0  0  0  0  0
   22.3721  -11.9691  -15.8963 N   0  0  0  0  0  0  0  0  0  0  0  0
   22.1931  -10.6856  -15.2459 C   0  0  1  0  0  0  0  0  0  0  0  0
   23.4163   -9.8185  -15.4838 C   0  0  0  0  0  0  0  0  0  0  0  0
   23.2237   -8.2017  -14.7269 S   0  0  0  0  0  0  0  0  0  0  0  0
   20.9609  -10.0061  -15.6780 C   0  0  0  0  0  0  0  0  0  0  0  0
   20.6804   -9.9776  -16.9023 O   0  0  0  0  0  0  0  0  0  0  0  0
   20.0584   -9.3726  -14.7815 N   0  0  0  0  0  0  0  0  0  0  0  0
   18.9077   -8.5950  -15.2795 C   0  0  1  0  0  0  0  0  0  0  0  0
   17.6935   -9.0785  -14.5199 C   0  0  0  0  0  0  0  0  0  0  0  0
   17.1449  -10.3480  -15.0391 C   0  0  0  0  0  0  0  0  0  0  0  0
   17.5806  -11.0903  -16.1142 C   0  0  0  0  0  0  0  0  0  0  0  0
   16.7899  -12.1864  -16.2571 N   0  0  0  0  0  0  0  0  0  0  0  0
   15.8749  -12.1238  -15.2819 C   0  0  0  0  0  0  0  0  0  0  0  0
   16.0716  -11.0221  -14.5357 N   0  0  0  0  0  0  0  0  0  0  0  0
   19.1201   -7.1556  -15.0780 C   0  0  0  0  0  0  0  0  0  0  0  0
   20.1420   -6.7596  -14.4767 O   0  0  0  0  0  0  0  0  0  0  0  0
   18.1918   -6.2584  -15.5546 O   0  0  0  0  0  0  0  0  0  0  0  0
  2  1  1  0
  2  3  1  0
  3  5  1  0
  3  4  1  6
  5  6  1  1
  5  7  1  0
  7  8  2  0
  9  7  1  0
  9 10  1  0
 10 11  1  6
 12 11  1  0
 13 14  2  0
 13 10  1  0
 15 13  1  0
 16 15  1  0
 16 17  1  1
 18 22  1  0
 18 17  1  0
 19 18  2  0
 20 19  1  0
 20 21  1  0
 21 22  2  0
 23 16  1  0
 24 23  2  0
 25 23  1  0
M  END
$$$$
