ICH.pdb
     RDKit          3D

 25 25  0  0  1  0  0  0  0  0999 V2000
   22.6265  -12.7604  -21.2050 C   0  0  0  0  0  0  0  0  0  0  0  0
   22.8447  -13.1830  -19.7683 C   0  0  0  0  0  0  0  0  0  0  0  0
   22.1448  -12.1683  -18.8960 C   0  0  2  0  0  0  0  0  0  0  0  0
   22.8268  -10.8292  -19.1242 C   0  0  0  0  0  0  0  0  0  0  0  0
   22.2741  -12.4932  -17.4272 C   0  0  2  0  0  0  0  0  0  0  0  0
   21.7900  -13.8260  -17.1695 N   0  0  0  0  0  0  0  0  0  0  0  0
   21.4446  -11.4715  -16.6953 C   0  0  0  0  0  0  0  0  0  0  0  0
   20.2054  -11.4001  -16.8764 O   0  0  0  0  0  0  0  0  0  0  0  0
   22.0354  -10.5608  -15.7813 N   0  0  0  0  0  0  0  0  0  0  0  0
   21.2932   -9.5231  -15.0924 C   0  0  1  0  0  0  0  0  0  0  0  0
   21.6819   -9.5068  -13.6250 C   0  0  0  0  0  0  0  0  0  0  0  0
   20.7677   -8.2509  -12.7246 S   0  0  0  0  0  0  0  0  0  0  0  0
   21.4756   -8.1999  -15.7109 C   0  0  0  0  0  0  0  0  0  0  0  0
   22.6406   -7.8021  -15.9619 O   0  0  0  0  0  0  0  0  0  0  0  0
   20.3988   -7.3347  -16.0452 N   0  0  0  0  0  0  0  0  0  0  0  0
   20.6446   -5.9817  -16.5799 C   0  0  1  0  0  0  0  0  0  0  0  0
   20.1020   -5.9657  -17.9907 C   0  0  0  0  0  0  0  0  0  0  0  0
   20.3019   -4.6748  -18.6806 C   0  0  0  0  0  0  0  0  0  0  0  0
   19.4867   -3.5648  -18.6685 C   0  0  0  0  0  0  0  0  0  0  0  0
   20.0343   -2.5930  -19.4449 N   0  0  0  0  0  0  0  0  0  0  0  0
   21.1756   -3.0951  -19.9324 C   0  0  0  0  0  0  0  0  0  0  0  0
   21.3555   -4.3502  -19.4832 N   0  0  0  0  0  0  0  0  0  0  0  0
   19.9905   -4.9622  -15.7492 C   0  0  0  0  0  0  0  0  0  0  0  0
   19.0415   -5.2879  -15.0035 O   0  0  0  0  0  0  0  0  0  0  0  0
   20.4305   -3.6592  -15.8002 O   0  0  0  0  0  0  0  0  0  0  0  0
  2  1  1  0
  2  3  1  0
  3  5  1  0
  3  4  1  1
  5  6  1  6
  5  7  1  0
  7  8  2  0
  9  7  1  0
  9 10  1  0
 10 11  1  1
 12 11  1  0
 13 14  2  0
 13 10  1  0
 15 13  1  0
 16 15  1  0
 16 17  1  6
 18 22  1  0
 18 17  1  0
 19 18  2  0
 20 19  1  0
 20 21  1  0
 21 22  2  0
 23 16  1  0
 24 23  2  0
 25 23  1  0
M  END
$$$$
