ICH.pdb
     RDKit          3D

 25 25  0  0  1  0  0  0  0  0999 V2000
   18.0306  -14.8616  -18.3076 C   0  0  0  0  0  0  0  0  0  0  0  0
   19.1581  -15.2847  -17.3909 C   0  0  0  0  0  0  0  0  0  0  0  0
   20.4399  -15.1685  -18.1809 C   0  0  2  0  0  0  0  0  0  0  0  0
   20.3281  -16.1148  -19.3652 C   0  0  0  0  0  0  0  0  0  0  0  0
   21.6452  -15.5949  -17.3780 C   0  0  2  0  0  0  0  0  0  0  0  0
   21.3907  -16.8593  -16.7348 N   0  0  0  0  0  0  0  0  0  0  0  0
   21.8761  -14.5120  -16.3575 C   0  0  0  0  0  0  0  0  0  0  0  0
   21.2700  -14.5235  -15.2592 O   0  0  0  0  0  0  0  0  0  0  0  0
   22.7826  -13.4484  -16.6041 N   0  0  0  0  0  0  0  0  0  0  0  0
   22.9813  -12.3383  -15.6928 C   0  0  1  0  0  0  0  0  0  0  0  0
   24.4667  -12.0656  -15.5378 C   0  0  0  0  0  0  0  0  0  0  0  0
   24.7602  -10.6600  -14.4599 S   0  0  0  0  0  0  0  0  0  0  0  0
   22.2549  -11.1300  -16.1157 C   0  0  0  0  0  0  0  0  0  0  0  0
   22.3299  -10.7649  -17.3156 O   0  0  0  0  0  0  0  0  0  0  0  0
   21.4638  -10.3419  -15.2367 N   0  0  0  0  0  0  0  0  0  0  0  0
   20.7799   -9.1234  -15.7105 C   0  0  1  0  0  0  0  0  0  0  0  0
   19.4468   -9.0678  -15.0000 C   0  0  0  0  0  0  0  0  0  0  0  0
   18.6628   -7.8571  -15.3192 C   0  0  0  0  0  0  0  0  0  0  0  0
   18.6708   -6.6400  -14.6748 C   0  0  0  0  0  0  0  0  0  0  0  0
   17.7928   -5.8001  -15.2837 N   0  0  0  0  0  0  0  0  0  0  0  0
   17.2472   -6.4889  -16.2937 C   0  0  0  0  0  0  0  0  0  0  0  0
   17.7587   -7.7324  -16.3324 N   0  0  0  0  0  0  0  0  0  0  0  0
   21.5823   -7.9266  -15.4258 C   0  0  0  0  0  0  0  0  0  0  0  0
   22.4025   -7.9421  -14.4825 O   0  0  0  0  0  0  0  0  0  0  0  0
   21.4230   -6.8011  -16.2016 O   0  0  0  0  0  0  0  0  0  0  0  0
  2  1  1  0
  2  3  1  0
  3  5  1  0
  3  4  1  6
  5  6  1  1
  5  7  1  0
  7  8  2  0
  9  7  1  0
  9 10  1  0
 10 11  1  6
 12 11  1  0
 13 14  2  0
 13 10  1  0
 15 13  1  0
 16 15  1  0
 16 17  1  1
 18 22  1  0
 18 17  1  0
 19 18  2  0
 20 19  1  0
 20 21  1  0
 21 22  2  0
 23 16  1  0
 24 23  2  0
 25 23  1  0
M  END
$$$$
