RSP.pdb
     RDKit          3D

 25 25  0  0  1  0  0  0  0  0999 V2000
    9.2275  -11.4837   18.7498 N   0  0  0  0  0  0  0  0  0  0  0  0
    9.3317  -12.8171   18.2758 C   0  0  0  0  0  0  0  0  0  0  0  0
   10.4863  -13.1784   17.7778 N   0  0  0  0  0  0  0  0  0  0  0  0
    8.2824  -13.7441   18.3150 N   0  0  0  0  0  0  0  0  0  0  0  0
    7.0765  -13.4712   19.0767 C   0  0  0  0  0  0  0  0  0  0  0  0
    6.7726  -14.6820   19.8813 C   0  0  0  0  0  0  0  0  0  0  0  0
    7.9477  -15.4946   20.2627 C   0  0  0  0  0  0  0  0  0  0  0  0
    7.6645  -16.7782   20.9549 C   0  0  2  0  0  0  0  0  0  0  0  0
    6.8987  -17.7361   20.2347 N   0  0  0  0  0  0  0  0  0  0  0  0
    7.0263  -16.4290   22.2745 C   0  0  0  0  0  0  0  0  0  0  0  0
    5.8157  -16.0934   22.3379 O   0  0  0  0  0  0  0  0  0  0  0  0
   10.6921  -14.1130   17.4094 O   0  0  0  0  0  0  0  0  0  0  0  0
    7.9095  -18.1834   26.0264 C   0  0  0  0  0  0  0  0  0  0  0  0
    6.7925  -17.5444   25.4888 C   0  0  1  0  0  0  0  0  0  0  0  0
    7.1879  -16.2499   24.7934 N   0  0  0  0  0  0  0  0  0  0  0  0
    7.7436  -16.4588   23.5005 C   0  0  0  0  0  0  0  0  0  0  0  0
    8.0533  -15.4103   25.6186 O   0  0  0  0  0  0  0  0  0  0  0  0
    9.2786  -15.3496   25.1981 N   0  0  0  0  0  0  0  0  0  0  0  0
    7.7563  -14.6786   26.7755 C   0  0  0  0  0  0  0  0  0  0  0  0
    6.6080  -14.5663   27.6262 C   0  0  0  0  0  0  0  0  0  0  0  0
    6.7042  -13.1845   28.2895 C   0  0  0  0  0  0  0  0  0  0  0  0
    7.9030  -12.5422   27.6091 C   0  0  1  0  0  0  0  0  0  0  0  0
    8.7553  -13.7720   27.3831 C   0  0  0  0  0  0  0  0  0  0  0  0
    9.2059  -14.2670   28.6935 O   0  0  0  0  0  0  0  0  0  0  0  0
   10.1166  -13.6803   29.5284 O   0  0  0  0  0  0  0  0  0  0  0  0
  1  2  1  0
  2  4  1  0
  3  2  2  0
  4  5  1  0
  6  7  1  0
  6  5  1  0
  7  8  1  0
  8  9  1  6
 10  8  1  0
 10 11  2  0
 14 13  1  6
 13 12  1  0
 14 15  1  0
 15 10  1  0
 16 14  1  0
 17 16  2  0
 18 19  1  0
 18 16  1  0
 20 19  1  0
 21 20  1  0
 22 21  1  0
 22 18  1  0
 22 23  1  1
 24 23  1  0
 25 23  2  0
M  END
$$$$
