RSP.pdb
     RDKit          3D

 25 25  0  0  1  0  0  0  0  0999 V2000
    8.7022  -11.7844   19.4812 N   0  0  0  0  0  0  0  0  0  0  0  0
    9.2660  -12.8655   18.7553 C   0  0  0  0  0  0  0  0  0  0  0  0
   10.5639  -13.0126   18.8279 N   0  0  0  0  0  0  0  0  0  0  0  0
    8.5171  -13.7625   17.9829 N   0  0  0  0  0  0  0  0  0  0  0  0
    7.5287  -14.6298   18.5991 C   0  0  0  0  0  0  0  0  0  0  0  0
    8.2539  -15.7797   19.1970 C   0  0  0  0  0  0  0  0  0  0  0  0
    8.1384  -15.9004   20.6662 C   0  0  0  0  0  0  0  0  0  0  0  0
    7.2928  -17.0125   21.1715 C   0  0  2  0  0  0  0  0  0  0  0  0
    6.1619  -17.3632   20.3835 N   0  0  0  0  0  0  0  0  0  0  0  0
    6.9028  -16.6556   22.5826 C   0  0  0  0  0  0  0  0  0  0  0  0
    5.8842  -15.9547   22.8136 O   0  0  0  0  0  0  0  0  0  0  0  0
   11.1052  -13.6747   18.2619 O   0  0  0  0  0  0  0  0  0  0  0  0
    7.6125  -18.9627   25.9342 C   0  0  0  0  0  0  0  0  0  0  0  0
    6.7550  -17.8653   25.8622 C   0  0  1  0  0  0  0  0  0  0  0  0
    7.3857  -16.7328   25.0653 N   0  0  0  0  0  0  0  0  0  0  0  0
    7.6507  -17.0834   23.7122 C   0  0  0  0  0  0  0  0  0  0  0  0
    8.5706  -16.1792   25.7167 O   0  0  0  0  0  0  0  0  0  0  0  0
    9.6793  -16.4429   25.0975 N   0  0  0  0  0  0  0  0  0  0  0  0
    8.6792  -15.4223   26.8902 C   0  0  0  0  0  0  0  0  0  0  0  0
    7.7459  -14.9453   27.8681 C   0  0  0  0  0  0  0  0  0  0  0  0
    8.3884  -13.6999   28.4965 C   0  0  0  0  0  0  0  0  0  0  0  0
    9.6487  -13.4909   27.6715 C   0  0  1  0  0  0  0  0  0  0  0  0
    9.9924  -14.9321   27.3640 C   0  0  0  0  0  0  0  0  0  0  0  0
   10.3918  -15.5880   28.6191 O   0  0  0  0  0  0  0  0  0  0  0  0
   11.5153  -15.3398   29.3586 O   0  0  0  0  0  0  0  0  0  0  0  0
  1  2  1  0
  2  4  1  0
  3  2  2  0
  4  5  1  0
  6  7  1  0
  6  5  1  0
  7  8  1  0
  8  9  1  6
 10  8  1  0
 10 11  2  0
 14 13  1  6
 13 12  1  0
 14 15  1  0
 15 10  1  0
 16 14  1  0
 17 16  2  0
 18 19  1  0
 18 16  1  0
 20 19  1  0
 21 20  1  0
 22 21  1  0
 22 18  1  0
 22 23  1  1
 24 23  1  0
 25 23  2  0
M  END
$$$$
