RSP.pdb
     RDKit          3D

 25 25  0  0  1  0  0  0  0  0999 V2000
    8.1533  -19.4742   18.5102 N   0  0  0  0  0  0  0  0  0  0  0  0
    8.0288  -18.8383   17.2477 C   0  0  0  0  0  0  0  0  0  0  0  0
    7.5356  -19.5558   16.2712 N   0  0  0  0  0  0  0  0  0  0  0  0
    8.3993  -17.5100   17.0025 N   0  0  0  0  0  0  0  0  0  0  0  0
    9.0221  -16.7075   18.0402 C   0  0  0  0  0  0  0  0  0  0  0  0
    7.9670  -16.3497   19.0222 C   0  0  0  0  0  0  0  0  0  0  0  0
    8.4202  -15.5152   20.1557 C   0  0  0  0  0  0  0  0  0  0  0  0
    9.2067  -16.2065   21.2096 C   0  0  2  0  0  0  0  0  0  0  0  0
    9.0736  -17.6206   21.2810 N   0  0  0  0  0  0  0  0  0  0  0  0
    8.8570  -15.5446   22.5174 C   0  0  0  0  0  0  0  0  0  0  0  0
    9.0722  -14.3186   22.6988 O   0  0  0  0  0  0  0  0  0  0  0  0
    7.3423  -19.1987   15.3295 O   0  0  0  0  0  0  0  0  0  0  0  0
    6.8293  -17.6558   25.7148 C   0  0  0  0  0  0  0  0  0  0  0  0
    6.7245  -16.2808   25.5067 C   0  0  1  0  0  0  0  0  0  0  0  0
    8.0002  -15.7244   24.8916 N   0  0  0  0  0  0  0  0  0  0  0  0
    8.2744  -16.2557   23.6006 C   0  0  0  0  0  0  0  0  0  0  0  0
    9.1540  -15.8517   25.7789 O   0  0  0  0  0  0  0  0  0  0  0  0
   10.1497  -16.4954   25.2533 N   0  0  0  0  0  0  0  0  0  0  0  0
    9.3346  -15.3900   27.0890 C   0  0  0  0  0  0  0  0  0  0  0  0
    8.4915  -14.7448   28.0521 C   0  0  0  0  0  0  0  0  0  0  0  0
    9.4305  -13.9637   28.9831 C   0  0  0  0  0  0  0  0  0  0  0  0
   10.7985  -14.1381   28.3422 C   0  0  1  0  0  0  0  0  0  0  0  0
   10.6373  -15.5321   27.7759 C   0  0  0  0  0  0  0  0  0  0  0  0
   10.5539  -16.4786   28.8995 O   0  0  0  0  0  0  0  0  0  0  0  0
   11.5622  -16.8409   29.7497 O   0  0  0  0  0  0  0  0  0  0  0  0
  1  2  1  0
  2  4  1  0
  3  2  2  0
  4  5  1  0
  6  7  1  0
  6  5  1  0
  7  8  1  0
  8  9  1  1
 10  8  1  0
 10 11  2  0
 14 13  1  6
 13 12  1  0
 14 15  1  0
 15 10  1  0
 16 14  1  0
 17 16  2  0
 18 19  1  0
 18 16  1  0
 20 19  1  0
 21 20  1  0
 22 21  1  0
 22 18  1  0
 22 23  1  1
 24 23  1  0
 25 23  2  0
M  END
$$$$
