RSP.pdb
     RDKit          3D

 25 25  0  0  1  0  0  0  0  0999 V2000
    7.8255  -12.2909   16.8363 N   0  0  0  0  0  0  0  0  0  0  0  0
    8.1790  -13.6640   16.7789 C   0  0  0  0  0  0  0  0  0  0  0  0
    7.9787  -14.2783   15.6413 N   0  0  0  0  0  0  0  0  0  0  0  0
    8.7201  -14.3768   17.8564 N   0  0  0  0  0  0  0  0  0  0  0  0
    8.0479  -15.5506   18.3847 C   0  0  0  0  0  0  0  0  0  0  0  0
    6.8981  -15.0791   19.1979 C   0  0  0  0  0  0  0  0  0  0  0  0
    7.2535  -14.4911   20.5073 C   0  0  0  0  0  0  0  0  0  0  0  0
    8.2421  -15.2443   21.3213 C   0  0  2  0  0  0  0  0  0  0  0  0
    8.4893  -16.5917   20.9390 N   0  0  0  0  0  0  0  0  0  0  0  0
    7.7915  -15.1431   22.7556 C   0  0  0  0  0  0  0  0  0  0  0  0
    6.6619  -14.6722   23.0462 O   0  0  0  0  0  0  0  0  0  0  0  0
    8.1056  -15.2855   15.4959 O   0  0  0  0  0  0  0  0  0  0  0  0
    7.2579  -17.6857   25.3492 C   0  0  0  0  0  0  0  0  0  0  0  0
    7.0196  -16.3277   25.5594 C   0  0  1  0  0  0  0  0  0  0  0  0
    8.2500  -15.4998   25.2185 N   0  0  0  0  0  0  0  0  0  0  0  0
    8.6032  -15.5669   23.8420 C   0  0  0  0  0  0  0  0  0  0  0  0
    9.3900  -15.8068   26.0792 O   0  0  0  0  0  0  0  0  0  0  0  0
   10.3208  -16.4914   25.4901 N   0  0  0  0  0  0  0  0  0  0  0  0
    9.6164  -15.4767   27.4215 C   0  0  0  0  0  0  0  0  0  0  0  0
    8.8333  -14.8566   28.4495 C   0  0  0  0  0  0  0  0  0  0  0  0
    9.8372  -14.2333   29.4305 C   0  0  0  0  0  0  0  0  0  0  0  0
   11.1824  -14.4537   28.7563 C   0  0  1  0  0  0  0  0  0  0  0  0
   10.9102  -15.7765   28.0737 C   0  0  0  0  0  0  0  0  0  0  0  0
   10.7639  -16.8088   29.1121 O   0  0  0  0  0  0  0  0  0  0  0  0
   11.7423  -17.2970   29.9338 O   0  0  0  0  0  0  0  0  0  0  0  0
  1  2  1  0
  2  4  1  0
  3  2  2  0
  4  5  1  0
  6  7  1  0
  6  5  1  0
  7  8  1  0
  8  9  1  6
 10  8  1  0
 10 11  2  0
 14 13  1  6
 13 12  1  0
 14 15  1  0
 15 10  1  0
 16 14  1  0
 17 16  2  0
 18 19  1  0
 18 16  1  0
 20 19  1  0
 21 20  1  0
 22 21  1  0
 22 18  1  0
 22 23  1  1
 24 23  1  0
 25 23  2  0
M  END
$$$$
