RSP.pdb
     RDKit          3D

 25 25  0  0  1  0  0  0  0  0999 V2000
    7.2743  -13.2791   17.0541 N   0  0  0  0  0  0  0  0  0  0  0  0
    7.9730  -13.0485   18.2675 C   0  0  0  0  0  0  0  0  0  0  0  0
    7.9194  -11.8373   18.7589 N   0  0  0  0  0  0  0  0  0  0  0  0
    8.7000  -14.0329   18.9491 N   0  0  0  0  0  0  0  0  0  0  0  0
    8.6624  -15.4187   18.5170 C   0  0  0  0  0  0  0  0  0  0  0  0
    8.7224  -16.2681   19.7339 C   0  0  0  0  0  0  0  0  0  0  0  0
   10.0822  -16.5238   20.2555 C   0  0  0  0  0  0  0  0  0  0  0  0
   10.1726  -17.3717   21.4720 C   0  0  2  0  0  0  0  0  0  0  0  0
    9.5357  -18.6420   21.4132 N   0  0  0  0  0  0  0  0  0  0  0  0
    9.6599  -16.5411   22.6199 C   0  0  0  0  0  0  0  0  0  0  0  0
    9.9473  -15.3200   22.7127 O   0  0  0  0  0  0  0  0  0  0  0  0
    8.4349  -11.5247   19.5885 O   0  0  0  0  0  0  0  0  0  0  0  0
    7.2245  -18.1913   25.8785 C   0  0  0  0  0  0  0  0  0  0  0  0
    7.0479  -16.9252   25.3211 C   0  0  1  0  0  0  0  0  0  0  0  0
    8.3629  -16.3773   24.7865 N   0  0  0  0  0  0  0  0  0  0  0  0
    8.8369  -17.0809   23.6444 C   0  0  0  0  0  0  0  0  0  0  0  0
    9.3918  -16.2783   25.8192 O   0  0  0  0  0  0  0  0  0  0  0  0
   10.4761  -16.9336   25.5420 N   0  0  0  0  0  0  0  0  0  0  0  0
    9.3749  -15.5934   27.0409 C   0  0  0  0  0  0  0  0  0  0  0  0
    8.3618  -14.9265   27.8050 C   0  0  0  0  0  0  0  0  0  0  0  0
    9.0940  -13.8844   28.6632 C   0  0  0  0  0  0  0  0  0  0  0  0
   10.5331  -13.9669   28.1785 C   0  0  1  0  0  0  0  0  0  0  0  0
   10.6053  -15.4420   27.8485 C   0  0  0  0  0  0  0  0  0  0  0  0
   10.5207  -16.1998   29.1070 O   0  0  0  0  0  0  0  0  0  0  0  0
   11.4756  -16.2890   30.0822 O   0  0  0  0  0  0  0  0  0  0  0  0
  1  2  1  0
  2  4  1  0
  3  2  2  0
  4  5  1  0
  6  7  1  0
  6  5  1  0
  7  8  1  0
  8  9  1  6
 10  8  1  0
 10 11  2  0
 14 13  1  6
 13 12  1  0
 14 15  1  0
 15 10  1  0
 16 14  1  0
 17 16  2  0
 18 19  1  0
 18 16  1  0
 20 19  1  0
 21 20  1  0
 22 21  1  0
 22 18  1  0
 22 23  1  1
 24 23  1  0
 25 23  2  0
M  END
$$$$
