SHE.pdb
     RDKit          3D

 26 26  0  0  1  0  0  0  0  0999 V2000
   20.8595  -12.3934  -19.4527 O   0  0  0  0  0  0  0  0  0  0  0  0
   20.5394  -11.0519  -19.5654 C   0  0  0  0  0  0  0  0  0  0  0  0
   21.6244  -10.1683  -18.9338 C   0  0  2  0  0  0  0  0  0  0  0  0
   22.6202  -11.0711  -18.4105 N   0  0  0  0  0  0  0  0  0  0  0  0
   20.9371   -9.3924  -17.8680 C   0  0  0  0  0  0  0  0  0  0  0  0
   20.2360   -8.4223  -18.2283 O   0  0  0  0  0  0  0  0  0  0  0  0
   21.0304   -9.6855  -16.4900 N   0  0  0  0  0  0  0  0  0  0  0  0
   20.3549   -8.8835  -15.4684 C   0  0  1  0  0  0  0  0  0  0  0  0
   19.9859   -9.8039  -14.3172 C   0  0  0  0  0  0  0  0  0  0  0  0
   18.7601  -10.5745  -14.5729 C   0  0  0  0  0  0  0  0  0  0  0  0
   17.9816  -10.4828  -15.7062 C   0  0  0  0  0  0  0  0  0  0  0  0
   16.9376  -11.3374  -15.5929 N   0  0  0  0  0  0  0  0  0  0  0  0
   17.0582  -11.9664  -14.3902 C   0  0  0  0  0  0  0  0  0  0  0  0
   18.1742  -11.4877  -13.7848 N   0  0  0  0  0  0  0  0  0  0  0  0
   21.2630   -7.8181  -14.9545 C   0  0  0  0  0  0  0  0  0  0  0  0
   22.5066   -7.9818  -15.0404 O   0  0  0  0  0  0  0  0  0  0  0  0
   20.7967   -6.6228  -14.3703 N   0  0  0  0  0  0  0  0  0  0  0  0
   21.6097   -5.3968  -14.2746 C   0  0  1  0  0  0  0  0  0  0  0  0
   22.1052   -5.0871  -15.6513 C   0  0  0  0  0  0  0  0  0  0  0  0
   22.7947   -3.7651  -15.7978 C   0  0  0  0  0  0  0  0  0  0  0  0
   23.2410   -3.5798  -17.2275 C   0  0  0  0  0  0  0  0  0  0  0  0
   23.7306   -4.5098  -17.9042 O   0  0  0  0  0  0  0  0  0  0  0  0
   20.7286   -4.3482  -13.7360 C   0  0  0  0  0  0  0  0  0  0  0  0
   21.2159   -3.2881  -13.2896 O   0  0  0  0  0  0  0  0  0  0  0  0
   23.1013   -2.3287  -17.8096 O   0  0  0  0  0  0  0  0  0  0  0  0
   19.3572   -4.5029  -13.7098 O   0  0  0  0  0  0  0  0  0  0  0  0
  1  2  1  0
  2  3  1  0
  3  5  1  0
  3  4  1  1
  5  6  2  0
  7  8  1  0
  7  5  1  0
  8  9  1  1
  9 10  1  0
 10 11  2  0
 11 12  1  0
 13 12  1  0
 14 10  1  0
 14 13  2  0
 15 16  2  0
 15  8  1  0
 17 15  1  0
 18 17  1  0
 18 23  1  0
 18 19  1  6
 20 21  1  0
 20 19  1  0
 21 25  1  0
 22 21  2  0
 23 26  1  0
 24 23  2  0
M  END
$$$$
