SHE.pdb
     RDKit          3D

 26 26  0  0  1  0  0  0  0  0999 V2000
   17.9003   -8.8054  -18.7411 O   0  0  0  0  0  0  0  0  0  0  0  0
   18.9298   -9.4046  -19.4451 C   0  0  0  0  0  0  0  0  0  0  0  0
   19.7175  -10.3765  -18.5552 C   0  0  2  0  0  0  0  0  0  0  0  0
   18.7424  -11.2683  -17.9770 N   0  0  0  0  0  0  0  0  0  0  0  0
   20.3932   -9.5284  -17.5381 C   0  0  0  0  0  0  0  0  0  0  0  0
   19.8587   -9.4515  -16.4107 O   0  0  0  0  0  0  0  0  0  0  0  0
   21.5889   -8.8142  -17.7705 N   0  0  0  0  0  0  0  0  0  0  0  0
   22.2422   -8.0160  -16.7318 C   0  0  1  0  0  0  0  0  0  0  0  0
   23.7297   -8.3232  -16.7697 C   0  0  0  0  0  0  0  0  0  0  0  0
   24.0559   -9.6373  -16.1966 C   0  0  0  0  0  0  0  0  0  0  0  0
   23.1644  -10.4749  -15.5623 C   0  0  0  0  0  0  0  0  0  0  0  0
   23.8171  -11.5932  -15.1665 N   0  0  0  0  0  0  0  0  0  0  0  0
   25.1176  -11.4603  -15.5509 C   0  0  0  0  0  0  0  0  0  0  0  0
   25.2421  -10.2626  -16.1763 N   0  0  0  0  0  0  0  0  0  0  0  0
   22.0494   -6.5603  -16.9916 C   0  0  0  0  0  0  0  0  0  0  0  0
   22.0626   -6.1447  -18.1782 O   0  0  0  0  0  0  0  0  0  0  0  0
   21.8508   -5.6134  -15.9663 N   0  0  0  0  0  0  0  0  0  0  0  0
   21.6437   -4.1760  -16.2198 C   0  0  1  0  0  0  0  0  0  0  0  0
   20.4470   -3.7559  -15.4273 C   0  0  0  0  0  0  0  0  0  0  0  0
   20.1048   -2.2999  -15.5136 C   0  0  0  0  0  0  0  0  0  0  0  0
   18.7654   -2.0528  -14.8638 C   0  0  0  0  0  0  0  0  0  0  0  0
   18.0839   -2.9713  -14.3593 O   0  0  0  0  0  0  0  0  0  0  0  0
   22.8765   -3.4919  -15.7975 C   0  0  0  0  0  0  0  0  0  0  0  0
   23.5438   -3.9369  -14.8398 O   0  0  0  0  0  0  0  0  0  0  0  0
   18.2748   -0.7560  -14.8266 O   0  0  0  0  0  0  0  0  0  0  0  0
   23.3256   -2.3551  -16.4390 O   0  0  0  0  0  0  0  0  0  0  0  0
  1  2  1  0
  2  3  1  0
  3  5  1  0
  3  4  1  1
  5  6  2  0
  7  8  1  0
  7  5  1  0
  8  9  1  6
  9 10  1  0
 10 11  2  0
 11 12  1  0
 13 12  1  0
 14 10  1  0
 14 13  2  0
 15 16  2  0
 15  8  1  0
 17 15  1  0
 18 17  1  0
 18 23  1  0
 18 19  1  1
 20 21  1  0
 20 19  1  0
 21 25  1  0
 22 21  2  0
 23 26  1  0
 24 23  2  0
M  END
$$$$
