SHE.pdb
     RDKit          3D

 26 26  0  0  1  0  0  0  0  0999 V2000
   16.8461  -12.0879  -12.4533 O   0  0  0  0  0  0  0  0  0  0  0  0
   16.3953  -10.8033  -12.2062 C   0  0  0  0  0  0  0  0  0  0  0  0
   15.5680  -10.7453  -10.9142 C   0  0  2  0  0  0  0  0  0  0  0  0
   14.3449  -11.4581  -11.1907 N   0  0  0  0  0  0  0  0  0  0  0  0
   15.3420   -9.2999  -10.6493 C   0  0  0  0  0  0  0  0  0  0  0  0
   14.5910   -8.6845  -11.4366 O   0  0  0  0  0  0  0  0  0  0  0  0
   15.9201   -8.5924   -9.5728 N   0  0  0  0  0  0  0  0  0  0  0  0
   15.7439   -7.1500   -9.3953 C   0  0  1  0  0  0  0  0  0  0  0  0
   15.4432   -6.8907   -7.9287 C   0  0  0  0  0  0  0  0  0  0  0  0
   14.0410   -7.1591   -7.5774 C   0  0  0  0  0  0  0  0  0  0  0  0
   13.0695   -7.5981   -8.4505 C   0  0  0  0  0  0  0  0  0  0  0  0
   11.9028   -7.7352   -7.7772 N   0  0  0  0  0  0  0  0  0  0  0  0
   12.1390   -7.3833   -6.4822 C   0  0  0  0  0  0  0  0  0  0  0  0
   13.4467   -7.0358   -6.3816 N   0  0  0  0  0  0  0  0  0  0  0  0
   16.9922   -6.4213   -9.7619 C   0  0  0  0  0  0  0  0  0  0  0  0
   18.0034   -6.5318   -9.0228 O   0  0  0  0  0  0  0  0  0  0  0  0
   17.1013   -5.6053  -10.9062 N   0  0  0  0  0  0  0  0  0  0  0  0
   18.3846   -5.0825  -11.4093 C   0  0  1  0  0  0  0  0  0  0  0  0
   19.2198   -6.2610  -11.7969 C   0  0  0  0  0  0  0  0  0  0  0  0
   20.5014   -5.9303  -12.4989 C   0  0  0  0  0  0  0  0  0  0  0  0
   21.2551   -7.2008  -12.8072 C   0  0  0  0  0  0  0  0  0  0  0  0
   20.8128   -8.3324  -12.5130 O   0  0  0  0  0  0  0  0  0  0  0  0
   18.0654   -4.2095  -12.5504 C   0  0  0  0  0  0  0  0  0  0  0  0
   17.0076   -4.3790  -13.1929 O   0  0  0  0  0  0  0  0  0  0  0  0
   22.4850   -7.1058  -13.4413 O   0  0  0  0  0  0  0  0  0  0  0  0
   18.9132   -3.1914  -12.9379 O   0  0  0  0  0  0  0  0  0  0  0  0
  1  2  1  0
  2  3  1  0
  3  5  1  0
  3  4  1  6
  5  6  2  0
  7  8  1  0
  7  5  1  0
  8  9  1  1
  9 10  1  0
 10 11  2  0
 11 12  1  0
 13 12  1  0
 14 10  1  0
 14 13  2  0
 15 16  2  0
 15  8  1  0
 17 15  1  0
 18 17  1  0
 18 23  1  0
 18 19  1  6
 20 21  1  0
 20 19  1  0
 21 25  1  0
 22 21  2  0
 23 26  1  0
 24 23  2  0
M  END
$$$$
