SHE.pdb
     RDKit          3D

 26 26  0  0  1  0  0  0  0  0999 V2000
   36.4565   -9.1820   -7.4426 O   0  0  0  0  0  0  0  0  0  0  0  0
   37.0689   -9.6055   -8.6089 C   0  0  0  0  0  0  0  0  0  0  0  0
   38.4447  -10.2224   -8.3199 C   0  0  2  0  0  0  0  0  0  0  0  0
   38.3083  -10.9373   -7.0746 N   0  0  0  0  0  0  0  0  0  0  0  0
   39.3845   -9.0745   -8.2222 C   0  0  0  0  0  0  0  0  0  0  0  0
   39.7535   -8.7329   -7.0778 O   0  0  0  0  0  0  0  0  0  0  0  0
   39.8775   -8.3579   -9.3345 N   0  0  0  0  0  0  0  0  0  0  0  0
   40.7879   -7.2200   -9.1956 C   0  0  1  0  0  0  0  0  0  0  0  0
   41.8444   -7.3287  -10.2822 C   0  0  0  0  0  0  0  0  0  0  0  0
   42.8374   -8.3781  -10.0097 C   0  0  0  0  0  0  0  0  0  0  0  0
   43.8742   -8.2809   -9.1072 C   0  0  0  0  0  0  0  0  0  0  0  0
   44.5814   -9.4354   -9.1239 N   0  0  0  0  0  0  0  0  0  0  0  0
   43.9911  -10.2585  -10.0354 C   0  0  0  0  0  0  0  0  0  0  0  0
   42.9312   -9.5959  -10.5634 N   0  0  0  0  0  0  0  0  0  0  0  0
   40.0513   -5.9357   -9.3739 C   0  0  0  0  0  0  0  0  0  0  0  0
   39.1506   -5.8645  -10.2483 O   0  0  0  0  0  0  0  0  0  0  0  0
   40.3135   -4.7831   -8.6058 N   0  0  0  0  0  0  0  0  0  0  0  0
   39.4739   -3.5721   -8.6494 C   0  0  1  0  0  0  0  0  0  0  0  0
   39.6440   -2.8697   -7.3400 C   0  0  0  0  0  0  0  0  0  0  0  0
   38.9795   -1.5303   -7.2445 C   0  0  0  0  0  0  0  0  0  0  0  0
   39.1920   -0.9541   -5.8660 C   0  0  0  0  0  0  0  0  0  0  0  0
   39.7704   -1.5861   -4.9557 O   0  0  0  0  0  0  0  0  0  0  0  0
   39.9466   -2.7727   -9.7912 C   0  0  0  0  0  0  0  0  0  0  0  0
   41.1242   -2.8872  -10.1919 O   0  0  0  0  0  0  0  0  0  0  0  0
   38.7266    0.3255   -5.6025 O   0  0  0  0  0  0  0  0  0  0  0  0
   39.1137   -1.8865  -10.4441 O   0  0  0  0  0  0  0  0  0  0  0  0
  1  2  1  0
  2  3  1  0
  3  5  1  0
  3  4  1  1
  5  6  2  0
  7  8  1  0
  7  5  1  0
  8  9  1  6
  9 10  1  0
 10 11  2  0
 11 12  1  0
 13 12  1  0
 14 10  1  0
 14 13  2  0
 15 16  2  0
 15  8  1  0
 17 15  1  0
 18 17  1  0
 18 23  1  0
 18 19  1  1
 20 21  1  0
 20 19  1  0
 21 25  1  0
 22 21  2  0
 23 26  1  0
 24 23  2  0
M  END
$$$$
