SHE.pdb
     RDKit          3D

 26 26  0  0  1  0  0  0  0  0999 V2000
   24.7051  -10.2039  -19.3636 O   0  0  0  0  0  0  0  0  0  0  0  0
   23.5653   -9.5781  -18.8905 C   0  0  0  0  0  0  0  0  0  0  0  0
   22.6549  -10.5692  -18.1518 C   0  0  2  0  0  0  0  0  0  0  0  0
   22.0374  -11.3809  -19.1718 N   0  0  0  0  0  0  0  0  0  0  0  0
   21.6730   -9.7338  -17.4113 C   0  0  0  0  0  0  0  0  0  0  0  0
   20.7522   -9.2097  -18.0747 O   0  0  0  0  0  0  0  0  0  0  0  0
   21.7210   -9.5022  -16.0193 N   0  0  0  0  0  0  0  0  0  0  0  0
   20.7034   -8.7181  -15.3174 C   0  0  1  0  0  0  0  0  0  0  0  0
   20.2441   -9.5182  -14.1102 C   0  0  0  0  0  0  0  0  0  0  0  0
   19.2178  -10.5166  -14.4440 C   0  0  0  0  0  0  0  0  0  0  0  0
   18.6746  -10.7154  -15.6948 C   0  0  0  0  0  0  0  0  0  0  0  0
   17.7635  -11.7144  -15.6248 N   0  0  0  0  0  0  0  0  0  0  0  0
   17.7327  -12.1443  -14.3321 C   0  0  0  0  0  0  0  0  0  0  0  0
   18.6254  -11.4022  -13.6297 N   0  0  0  0  0  0  0  0  0  0  0  0
   21.2743   -7.4248  -14.8428 C   0  0  0  0  0  0  0  0  0  0  0  0
   22.5063   -7.3530  -14.6018 O   0  0  0  0  0  0  0  0  0  0  0  0
   20.4982   -6.2643  -14.6475 N   0  0  0  0  0  0  0  0  0  0  0  0
   21.0783   -4.9177  -14.4950 C   0  0  1  0  0  0  0  0  0  0  0  0
   21.9473   -4.6737  -15.6874 C   0  0  0  0  0  0  0  0  0  0  0  0
   22.5328   -3.2976  -15.7782 C   0  0  0  0  0  0  0  0  0  0  0  0
   23.3605   -3.1788  -17.0345 C   0  0  0  0  0  0  0  0  0  0  0  0
   22.9378   -2.6143  -18.0665 O   0  0  0  0  0  0  0  0  0  0  0  0
   19.9478   -3.9791  -14.4113 C   0  0  0  0  0  0  0  0  0  0  0  0
   18.8390   -4.2883  -14.8965 O   0  0  0  0  0  0  0  0  0  0  0  0
   24.6385   -3.7177  -17.0407 O   0  0  0  0  0  0  0  0  0  0  0  0
   20.0776   -2.7474  -13.8017 O   0  0  0  0  0  0  0  0  0  0  0  0
  1  2  1  0
  2  3  1  0
  3  5  1  0
  3  4  1  6
  5  6  2  0
  7  8  1  0
  7  5  1  0
  8  9  1  1
  9 10  1  0
 10 11  2  0
 11 12  1  0
 13 12  1  0
 14 10  1  0
 14 13  2  0
 15 16  2  0
 15  8  1  0
 17 15  1  0
 18 17  1  0
 18 23  1  0
 18 19  1  6
 20 21  1  0
 20 19  1  0
 21 25  1  0
 22 21  2  0
 23 26  1  0
 24 23  2  0
M  END
$$$$
