SHE.pdb
     RDKit          3D

 26 26  0  0  1  0  0  0  0  0999 V2000
   19.0253  -12.5483  -16.9171 O   0  0  0  0  0  0  0  0  0  0  0  0
   19.9232  -11.7227  -16.2639 C   0  0  0  0  0  0  0  0  0  0  0  0
   21.3391  -11.8813  -16.8358 C   0  0  2  0  0  0  0  0  0  0  0  0
   21.7988  -13.1804  -16.4097 N   0  0  0  0  0  0  0  0  0  0  0  0
   22.1339  -10.7707  -16.2483 C   0  0  0  0  0  0  0  0  0  0  0  0
   21.9022  -10.4688  -15.0576 O   0  0  0  0  0  0  0  0  0  0  0  0
   23.1227  -10.0472  -16.9501 N   0  0  0  0  0  0  0  0  0  0  0  0
   23.9706   -9.0446  -16.3029 C   0  0  1  0  0  0  0  0  0  0  0  0
   25.3800   -9.1985  -16.8492 C   0  0  0  0  0  0  0  0  0  0  0  0
   26.0783  -10.3720  -16.3043 C   0  0  0  0  0  0  0  0  0  0  0  0
   25.5779  -11.2236  -15.3436 C   0  0  0  0  0  0  0  0  0  0  0  0
   26.4947  -12.1870  -15.0892 N   0  0  0  0  0  0  0  0  0  0  0  0
   27.5709  -11.9426  -15.8885 C   0  0  0  0  0  0  0  0  0  0  0  0
   27.2972  -10.8333  -16.6203 N   0  0  0  0  0  0  0  0  0  0  0  0
   23.4861   -7.6692  -16.6151 C   0  0  0  0  0  0  0  0  0  0  0  0
   23.2870   -7.3495  -17.8147 O   0  0  0  0  0  0  0  0  0  0  0  0
   23.2362   -6.6964  -15.6260 N   0  0  0  0  0  0  0  0  0  0  0  0
   22.5942   -5.3997  -15.9086 C   0  0  1  0  0  0  0  0  0  0  0  0
   21.1991   -5.6878  -16.3640 C   0  0  0  0  0  0  0  0  0  0  0  0
   20.3351   -6.3926  -15.3634 C   0  0  0  0  0  0  0  0  0  0  0  0
   18.9321   -6.5218  -15.9042 C   0  0  0  0  0  0  0  0  0  0  0  0
   18.1334   -5.5608  -15.9361 O   0  0  0  0  0  0  0  0  0  0  0  0
   22.6376   -4.6266  -14.6570 C   0  0  0  0  0  0  0  0  0  0  0  0
   23.1353   -5.1285  -13.6270 O   0  0  0  0  0  0  0  0  0  0  0  0
   18.5164   -7.7553  -16.3833 O   0  0  0  0  0  0  0  0  0  0  0  0
   22.1377   -3.3418  -14.5862 O   0  0  0  0  0  0  0  0  0  0  0  0
  1  2  1  0
  2  3  1  0
  3  5  1  0
  3  4  1  1
  5  6  2  0
  7  8  1  0
  7  5  1  0
  8  9  1  6
  9 10  1  0
 10 11  2  0
 11 12  1  0
 13 12  1  0
 14 10  1  0
 14 13  2  0
 15 16  2  0
 15  8  1  0
 17 15  1  0
 18 17  1  0
 18 23  1  0
 18 19  1  1
 20 21  1  0
 20 19  1  0
 21 25  1  0
 22 21  2  0
 23 26  1  0
 24 23  2  0
M  END
$$$$
