FRF.pdb
     RDKit          3D

 34 35  0  0  1  0  0  0  0  0999 V2000
   30.4659   -9.3593  -20.1834 N   0  0  0  0  0  0  0  0  0  0  0  0
   29.7299  -10.4618  -19.5977 C   0  0  1  0  0  0  0  0  0  0  0  0
   30.3066  -10.7055  -18.2277 C   0  0  0  0  0  0  0  0  0  0  0  0
   31.5863  -11.3844  -18.2474 C   0  0  0  0  0  0  0  0  0  0  0  0
   31.6615  -12.7238  -18.5413 C   0  0  0  0  0  0  0  0  0  0  0  0
   32.8678  -13.4070  -18.5699 C   0  0  0  0  0  0  0  0  0  0  0  0
   34.0303  -12.7248  -18.2954 C   0  0  0  0  0  0  0  0  0  0  0  0
   33.9897  -11.3872  -17.9983 C   0  0  0  0  0  0  0  0  0  0  0  0
   32.7707  -10.7351  -17.9781 C   0  0  0  0  0  0  0  0  0  0  0  0
   28.3200  -10.1210  -19.5962 C   0  0  0  0  0  0  0  0  0  0  0  0
   27.9584   -8.9251  -19.4546 O   0  0  0  0  0  0  0  0  0  0  0  0
   21.3246  -13.2460  -23.7803 N   0  0  0  0  0  0  0  0  0  0  0  0
   20.7774  -12.1811  -23.0345 C   0  0  0  0  0  0  0  0  0  0  0  0
   19.5371  -11.8379  -23.2790 N   0  0  0  0  0  0  0  0  0  0  0  0
   21.5533  -11.5149  -22.0580 N   0  0  0  0  0  0  0  0  0  0  0  0
   22.9077  -11.8940  -21.8429 C   0  0  0  0  0  0  0  0  0  0  0  0
   23.6047  -11.0410  -20.8041 C   0  0  0  0  0  0  0  0  0  0  0  0
   25.0542  -11.4458  -20.7746 C   0  0  0  0  0  0  0  0  0  0  0  0
   25.8629  -10.6620  -19.7784 C   0  0  2  0  0  0  0  0  0  0  0  0
   27.2525  -11.0622  -19.7479 N   0  0  0  0  0  0  0  0  0  0  0  0
   25.3177  -10.7434  -18.4091 C   0  0  0  0  0  0  0  0  0  0  0  0
   25.5820  -11.7655  -17.7261 O   0  0  0  0  0  0  0  0  0  0  0  0
   19.0806  -11.0555  -22.7790 N   0  0  0  0  0  0  0  0  0  0  0  0
   24.5207   -9.7565  -17.8104 C   0  0  2  0  0  0  0  0  0  0  0  0
   24.1270   -9.8693  -16.4247 C   0  0  0  0  0  0  0  0  0  0  0  0
   25.1169   -9.1507  -15.5271 C   0  0  0  0  0  0  0  0  0  0  0  0
   25.0771   -7.6954  -15.7824 C   0  0  0  0  0  0  0  0  0  0  0  0
   24.2161   -6.8565  -15.0781 C   0  0  0  0  0  0  0  0  0  0  0  0
   24.1566   -5.5041  -15.2757 C   0  0  0  0  0  0  0  0  0  0  0  0
   24.9651   -4.9095  -16.2001 C   0  0  0  0  0  0  0  0  0  0  0  0
   25.8380   -5.6913  -16.9270 C   0  0  0  0  0  0  0  0  0  0  0  0
   25.8847   -7.0530  -16.7147 C   0  0  0  0  0  0  0  0  0  0  0  0
   22.7448   -9.4142  -16.2807 O   0  0  0  0  0  0  0  0  0  0  0  0
   22.1669   -8.8945  -17.2895 O   0  0  0  0  0  0  0  0  0  0  0  0
  2  1  1  1
  2  3  1  0
  3  4  1  0
  4  5  2  0
  4  9  1  0
  5  6  1  0
  6  7  2  0
  8  7  1  0
  9  8  2  0
 10 20  1  0
 10  2  1  0
 11 10  2  0
 13 12  1  0
 13 15  1  0
 14 13  2  0
 16 15  1  0
 16 17  1  0
 17 18  1  0
 19 18  1  6
 19 21  1  0
 19 20  1  0
 21 23  1  0
 22 21  2  0
 23 24  1  0
 24 32  1  0
 24 25  1  6
 25 26  1  0
 26 27  2  0
 27 28  1  0
 29 28  2  0
 30 29  1  0
 31 26  1  0
 31 30  2  0
 32 34  1  0
 33 32  2  0
M  END
$$$$
