FRF.pdb
     RDKit          3D

 34 35  0  0  1  0  0  0  0  0999 V2000
   25.1196  -17.8471  -15.3637 N   0  0  0  0  0  0  0  0  0  0  0  0
   26.2929  -18.3527  -14.6797 C   0  0  1  0  0  0  0  0  0  0  0  0
   27.1040  -17.1605  -14.2442 C   0  0  0  0  0  0  0  0  0  0  0  0
   27.7178  -16.4419  -15.3423 C   0  0  0  0  0  0  0  0  0  0  0  0
   28.6435  -17.0575  -16.1488 C   0  0  0  0  0  0  0  0  0  0  0  0
   29.2515  -16.4020  -17.2086 C   0  0  0  0  0  0  0  0  0  0  0  0
   28.9198  -15.0919  -17.4648 C   0  0  0  0  0  0  0  0  0  0  0  0
   27.9994  -14.4486  -16.6786 C   0  0  0  0  0  0  0  0  0  0  0  0
   27.4111  -15.1302  -15.6293 C   0  0  0  0  0  0  0  0  0  0  0  0
   25.8556  -19.2035  -13.5893 C   0  0  0  0  0  0  0  0  0  0  0  0
   24.8654  -18.8740  -12.8879 O   0  0  0  0  0  0  0  0  0  0  0  0
   21.3760  -23.4794  -13.2751 N   0  0  0  0  0  0  0  0  0  0  0  0
   22.1049  -24.1844  -14.2554 C   0  0  0  0  0  0  0  0  0  0  0  0
   21.6771  -24.1290  -15.4924 N   0  0  0  0  0  0  0  0  0  0  0  0
   23.2575  -24.9227  -13.9009 N   0  0  0  0  0  0  0  0  0  0  0  0
   24.2109  -24.3684  -13.0019 C   0  0  0  0  0  0  0  0  0  0  0  0
   24.9450  -23.1755  -13.5770 C   0  0  0  0  0  0  0  0  0  0  0  0
   26.0026  -22.7661  -12.5870 C   0  0  0  0  0  0  0  0  0  0  0  0
   25.9215  -21.3133  -12.2081 C   0  0  2  0  0  0  0  0  0  0  0  0
   26.4744  -20.4401  -13.2199 N   0  0  0  0  0  0  0  0  0  0  0  0
   26.5809  -21.0208  -10.9202 C   0  0  0  0  0  0  0  0  0  0  0  0
   27.8332  -21.1156  -10.8610 O   0  0  0  0  0  0  0  0  0  0  0  0
   22.1165  -24.6863  -16.2452 N   0  0  0  0  0  0  0  0  0  0  0  0
   25.9070  -20.6422   -9.7496 C   0  0  2  0  0  0  0  0  0  0  0  0
   26.5283  -20.8102   -8.4560 C   0  0  0  0  0  0  0  0  0  0  0  0
   27.3813  -19.6037   -8.1114 C   0  0  0  0  0  0  0  0  0  0  0  0
   27.8867  -19.7124   -6.7267 C   0  0  0  0  0  0  0  0  0  0  0  0
   28.8706  -20.6365   -6.3817 C   0  0  0  0  0  0  0  0  0  0  0  0
   29.3734  -20.7610   -5.1156 C   0  0  0  0  0  0  0  0  0  0  0  0
   28.9137  -19.9581   -4.1127 C   0  0  0  0  0  0  0  0  0  0  0  0
   27.9394  -19.0244   -4.3966 C   0  0  0  0  0  0  0  0  0  0  0  0
   27.4440  -18.9126   -5.6786 C   0  0  0  0  0  0  0  0  0  0  0  0
   25.4975  -21.1200   -7.4660 O   0  0  0  0  0  0  0  0  0  0  0  0
   24.2879  -20.8259   -7.7345 O   0  0  0  0  0  0  0  0  0  0  0  0
  2  1  1  1
  2  3  1  0
  3  4  1  0
  4  5  2  0
  4  9  1  0
  5  6  1  0
  6  7  2  0
  8  7  1  0
  9  8  2  0
 10 20  1  0
 10  2  1  0
 11 10  2  0
 13 12  1  0
 13 15  1  0
 14 13  2  0
 16 15  1  0
 16 17  1  0
 17 18  1  0
 19 18  1  6
 19 21  1  0
 19 20  1  0
 21 23  1  0
 22 21  2  0
 23 24  1  0
 24 32  1  0
 24 25  1  6
 25 26  1  0
 26 27  2  0
 27 28  1  0
 29 28  2  0
 30 29  1  0
 31 26  1  0
 31 30  2  0
 32 34  1  0
 33 32  2  0
M  END
$$$$
