FRF.pdb
     RDKit          3D

 34 35  0  0  1  0  0  0  0  0999 V2000
   28.1142  -19.9806  -17.4947 N   0  0  0  0  0  0  0  0  0  0  0  0
   27.5417  -19.0014  -16.5926 C   0  0  1  0  0  0  0  0  0  0  0  0
   27.0939  -17.8318  -17.4294 C   0  0  0  0  0  0  0  0  0  0  0  0
   28.1862  -17.0975  -18.0349 C   0  0  0  0  0  0  0  0  0  0  0  0
   28.4730  -17.2473  -19.3696 C   0  0  0  0  0  0  0  0  0  0  0  0
   29.5098  -16.5613  -19.9836 C   0  0  0  0  0  0  0  0  0  0  0  0
   30.2794  -15.7012  -19.2353 C   0  0  0  0  0  0  0  0  0  0  0  0
   30.0194  -15.5291  -17.9004 C   0  0  0  0  0  0  0  0  0  0  0  0
   28.9782  -16.2280  -17.3181 C   0  0  0  0  0  0  0  0  0  0  0  0
   26.4752  -19.6382  -15.8435 C   0  0  0  0  0  0  0  0  0  0  0  0
   25.7525  -20.5105  -16.3891 O   0  0  0  0  0  0  0  0  0  0  0  0
   24.5949  -22.0478   -8.8420 N   0  0  0  0  0  0  0  0  0  0  0  0
   23.9410  -20.8181   -9.0651 C   0  0  0  0  0  0  0  0  0  0  0  0
   22.6910  -20.7135   -8.6875 N   0  0  0  0  0  0  0  0  0  0  0  0
   24.6241  -19.7420   -9.6771 N   0  0  0  0  0  0  0  0  0  0  0  0
   25.9637  -19.9106  -10.1261 C   0  0  0  0  0  0  0  0  0  0  0  0
   26.0537  -20.3531  -11.5714 C   0  0  0  0  0  0  0  0  0  0  0  0
   24.9779  -19.6336  -12.3399 C   0  0  0  0  0  0  0  0  0  0  0  0
   25.0078  -19.9334  -13.8130 C   0  0  2  0  0  0  0  0  0  0  0  0
   26.1536  -19.3534  -14.4783 N   0  0  0  0  0  0  0  0  0  0  0  0
   23.7837  -19.4936  -14.5109 C   0  0  0  0  0  0  0  0  0  0  0  0
   23.8081  -18.3885  -15.1100 O   0  0  0  0  0  0  0  0  0  0  0  0
   22.1390  -19.8567   -8.8655 N   0  0  0  0  0  0  0  0  0  0  0  0
   22.5870  -20.2241  -14.5544 C   0  0  1  0  0  0  0  0  0  0  0  0
   21.5070  -19.8158  -15.4231 C   0  0  0  0  0  0  0  0  0  0  0  0
   22.0045  -19.6300  -16.8443 C   0  0  0  0  0  0  0  0  0  0  0  0
   21.5346  -18.3378  -17.3867 C   0  0  0  0  0  0  0  0  0  0  0  0
   20.9332  -18.2505  -18.6404 C   0  0  0  0  0  0  0  0  0  0  0  0
   20.4744  -17.0772  -19.1734 C   0  0  0  0  0  0  0  0  0  0  0  0
   20.5936  -15.9124  -18.4728 C   0  0  0  0  0  0  0  0  0  0  0  0
   21.1810  -15.9390  -17.2255 C   0  0  0  0  0  0  0  0  0  0  0  0
   21.6379  -17.1308  -16.7037 C   0  0  0  0  0  0  0  0  0  0  0  0
   20.4020  -20.7648  -15.2924 O   0  0  0  0  0  0  0  0  0  0  0  0
   20.6585  -21.9461  -14.8916 O   0  0  0  0  0  0  0  0  0  0  0  0
  2  1  1  6
  2  3  1  0
  3  4  1  0
  4  5  2  0
  4  9  1  0
  5  6  1  0
  6  7  2  0
  8  7  1  0
  9  8  2  0
 10 20  1  0
 10  2  1  0
 11 10  2  0
 13 12  1  0
 13 15  1  0
 14 13  2  0
 16 15  1  0
 16 17  1  0
 17 18  1  0
 19 18  1  1
 19 21  1  0
 19 20  1  0
 21 23  1  0
 22 21  2  0
 23 24  1  0
 24 32  1  0
 24 25  1  6
 25 26  1  0
 26 27  2  0
 27 28  1  0
 29 28  2  0
 30 29  1  0
 31 26  1  0
 31 30  2  0
 32 34  1  0
 33 32  2  0
M  END
$$$$
