FRF.pdb
     RDKit          3D

 34 35  0  0  1  0  0  0  0  0999 V2000
   31.4733  -27.7903  -22.6299 N   0  0  0  0  0  0  0  0  0  0  0  0
   31.8116  -27.4331  -21.2667 C   0  0  1  0  0  0  0  0  0  0  0  0
   30.5367  -27.0052  -20.5881 C   0  0  0  0  0  0  0  0  0  0  0  0
   30.0078  -25.7499  -21.0818 C   0  0  0  0  0  0  0  0  0  0  0  0
   28.8552  -25.7233  -21.8280 C   0  0  0  0  0  0  0  0  0  0  0  0
   28.3192  -24.5417  -22.3168 C   0  0  0  0  0  0  0  0  0  0  0  0
   28.9595  -23.3543  -22.0482 C   0  0  0  0  0  0  0  0  0  0  0  0
   30.1121  -23.3464  -21.3063 C   0  0  0  0  0  0  0  0  0  0  0  0
   30.6208  -24.5419  -20.8333 C   0  0  0  0  0  0  0  0  0  0  0  0
   32.4627  -28.5699  -20.6441 C   0  0  0  0  0  0  0  0  0  0  0  0
   32.1296  -29.7406  -20.9596 O   0  0  0  0  0  0  0  0  0  0  0  0
   39.8662  -30.9981  -16.0723 N   0  0  0  0  0  0  0  0  0  0  0  0
   39.7619  -30.8703  -17.4732 C   0  0  0  0  0  0  0  0  0  0  0  0
   40.7868  -31.2436  -18.1987 N   0  0  0  0  0  0  0  0  0  0  0  0
   38.5842  -30.3549  -18.0618 N   0  0  0  0  0  0  0  0  0  0  0  0
   37.4652  -30.0252  -17.2472 C   0  0  0  0  0  0  0  0  0  0  0  0
   36.1481  -30.4895  -17.8323 C   0  0  0  0  0  0  0  0  0  0  0  0
   35.4902  -29.3019  -18.4826 C   0  0  0  0  0  0  0  0  0  0  0  0
   34.1854  -29.6439  -19.1467 C   0  0  2  0  0  0  0  0  0  0  0  0
   33.4967  -28.4796  -19.6587 N   0  0  0  0  0  0  0  0  0  0  0  0
   33.2676  -30.3826  -18.2573 C   0  0  0  0  0  0  0  0  0  0  0  0
   32.9405  -29.8475  -17.1675 O   0  0  0  0  0  0  0  0  0  0  0  0
   40.7567  -31.2253  -19.2327 N   0  0  0  0  0  0  0  0  0  0  0  0
   32.7301  -31.6466  -18.5417 C   0  0  1  0  0  0  0  0  0  0  0  0
   31.6522  -32.1842  -17.7437 C   0  0  0  0  0  0  0  0  0  0  0  0
   30.5876  -31.1302  -17.5028 C   0  0  0  0  0  0  0  0  0  0  0  0
   29.4206  -31.7276  -16.8204 C   0  0  0  0  0  0  0  0  0  0  0  0
   29.4402  -32.0068  -15.4556 C   0  0  0  0  0  0  0  0  0  0  0  0
   28.3782  -32.5481  -14.7843 C   0  0  0  0  0  0  0  0  0  0  0  0
   27.2242  -32.8433  -15.4496 C   0  0  0  0  0  0  0  0  0  0  0  0
   27.1479  -32.5878  -16.8026 C   0  0  0  0  0  0  0  0  0  0  0  0
   28.2281  -32.0418  -17.4633 C   0  0  0  0  0  0  0  0  0  0  0  0
   31.1552  -33.4078  -18.3718 O   0  0  0  0  0  0  0  0  0  0  0  0
   30.3833  -34.1662  -17.7004 O   0  0  0  0  0  0  0  0  0  0  0  0
  2  1  1  6
  2  3  1  0
  3  4  1  0
  4  5  2  0
  4  9  1  0
  5  6  1  0
  6  7  2  0
  8  7  1  0
  9  8  2  0
 10 20  1  0
 10  2  1  0
 11 10  2  0
 13 12  1  0
 13 15  1  0
 14 13  2  0
 16 15  1  0
 16 17  1  0
 17 18  1  0
 19 18  1  1
 19 21  1  0
 19 20  1  0
 21 23  1  0
 22 21  2  0
 23 24  1  0
 24 32  1  0
 24 25  1  6
 25 26  1  0
 26 27  2  0
 27 28  1  0
 29 28  2  0
 30 29  1  0
 31 26  1  0
 31 30  2  0
 32 34  1  0
 33 32  2  0
M  END
$$$$
