FRF.pdb
     RDKit          3D

 34 35  0  0  1  0  0  0  0  0999 V2000
   27.2037  -19.0575  -17.1703 N   0  0  0  0  0  0  0  0  0  0  0  0
   27.1380  -18.4676  -15.8483 C   0  0  1  0  0  0  0  0  0  0  0  0
   26.0811  -17.3953  -15.8902 C   0  0  0  0  0  0  0  0  0  0  0  0
   26.6113  -16.0635  -16.1002 C   0  0  0  0  0  0  0  0  0  0  0  0
   26.6227  -15.5066  -17.3555 C   0  0  0  0  0  0  0  0  0  0  0  0
   27.1215  -14.2352  -17.5948 C   0  0  0  0  0  0  0  0  0  0  0  0
   27.6227  -13.5036  -16.5433 C   0  0  0  0  0  0  0  0  0  0  0  0
   27.6260  -14.0306  -15.2779 C   0  0  0  0  0  0  0  0  0  0  0  0
   27.1213  -15.3013  -15.0726 C   0  0  0  0  0  0  0  0  0  0  0  0
   26.8750  -19.5232  -14.8889 C   0  0  0  0  0  0  0  0  0  0  0  0
   26.1291  -20.4871  -15.1978 O   0  0  0  0  0  0  0  0  0  0  0  0
   31.3757  -23.4831  -10.1765 N   0  0  0  0  0  0  0  0  0  0  0  0
   30.8735  -22.5303   -9.2657 C   0  0  0  0  0  0  0  0  0  0  0  0
   31.5309  -22.3483   -8.1474 N   0  0  0  0  0  0  0  0  0  0  0  0
   29.6981  -21.8025   -9.5627 N   0  0  0  0  0  0  0  0  0  0  0  0
   28.5341  -22.4826  -10.0178 C   0  0  0  0  0  0  0  0  0  0  0  0
   27.3813  -21.5485  -10.3197 C   0  0  0  0  0  0  0  0  0  0  0  0
   27.8480  -20.5633  -11.3577 C   0  0  0  0  0  0  0  0  0  0  0  0
   26.9885  -20.5585  -12.5914 C   0  0  2  0  0  0  0  0  0  0  0  0
   27.4097  -19.5726  -13.5623 N   0  0  0  0  0  0  0  0  0  0  0  0
   25.5590  -20.3452  -12.2913 C   0  0  0  0  0  0  0  0  0  0  0  0
   25.2405  -19.3362  -11.6120 O   0  0  0  0  0  0  0  0  0  0  0  0
   31.2429  -21.6332   -7.4574 N   0  0  0  0  0  0  0  0  0  0  0  0
   24.5230  -21.1923  -12.7118 C   0  0  1  0  0  0  0  0  0  0  0  0
   23.1427  -20.8476  -12.4598 C   0  0  0  0  0  0  0  0  0  0  0  0
   22.7583  -19.5903  -13.2172 C   0  0  0  0  0  0  0  0  0  0  0  0
   21.3156  -19.3142  -13.0528 C   0  0  0  0  0  0  0  0  0  0  0  0
   20.3691  -19.8448  -13.9267 C   0  0  0  0  0  0  0  0  0  0  0  0
   19.0249  -19.6233  -13.8029 C   0  0  0  0  0  0  0  0  0  0  0  0
   18.5478  -18.8494  -12.7854 C   0  0  0  0  0  0  0  0  0  0  0  0
   19.4395  -18.2979  -11.8897 C   0  0  0  0  0  0  0  0  0  0  0  0
   20.7913  -18.5317  -12.0297 C   0  0  0  0  0  0  0  0  0  0  0  0
   22.2987  -22.0060  -12.7505 O   0  0  0  0  0  0  0  0  0  0  0  0
   22.6559  -22.8016  -13.6784 O   0  0  0  0  0  0  0  0  0  0  0  0
  2  1  1  6
  2  3  1  0
  3  4  1  0
  4  5  2  0
  4  9  1  0
  5  6  1  0
  6  7  2  0
  8  7  1  0
  9  8  2  0
 10 20  1  0
 10  2  1  0
 11 10  2  0
 13 12  1  0
 13 15  1  0
 14 13  2  0
 16 15  1  0
 16 17  1  0
 17 18  1  0
 19 18  1  1
 19 21  1  0
 19 20  1  0
 21 23  1  0
 22 21  2  0
 23 24  1  0
 24 32  1  0
 24 25  1  1
 25 26  1  0
 26 27  2  0
 27 28  1  0
 29 28  2  0
 30 29  1  0
 31 26  1  0
 31 30  2  0
 32 34  1  0
 33 32  2  0
M  END
$$$$
