FRF.pdb
     RDKit          3D

 34 35  0  0  1  0  0  0  0  0999 V2000
   26.8522  -17.1848  -21.1820 N   0  0  0  0  0  0  0  0  0  0  0  0
   26.7657  -17.8660  -19.9058 C   0  0  1  0  0  0  0  0  0  0  0  0
   27.0780  -16.8519  -18.8367 C   0  0  0  0  0  0  0  0  0  0  0  0
   28.4495  -16.3856  -18.8597 C   0  0  0  0  0  0  0  0  0  0  0  0
   29.4859  -17.2527  -18.6143 C   0  0  0  0  0  0  0  0  0  0  0  0
   30.8104  -16.8429  -18.6282 C   0  0  0  0  0  0  0  0  0  0  0  0
   31.1010  -15.5254  -18.8960 C   0  0  0  0  0  0  0  0  0  0  0  0
   30.0896  -14.6343  -19.1452 C   0  0  0  0  0  0  0  0  0  0  0  0
   28.7791  -15.0747  -19.1240 C   0  0  0  0  0  0  0  0  0  0  0  0
   25.4475  -18.4606  -19.7932 C   0  0  0  0  0  0  0  0  0  0  0  0
   24.4255  -17.7962  -20.1017 O   0  0  0  0  0  0  0  0  0  0  0  0
   21.1294  -21.2089  -22.9443 N   0  0  0  0  0  0  0  0  0  0  0  0
   20.1034  -21.6308  -22.0732 C   0  0  0  0  0  0  0  0  0  0  0  0
   18.9621  -21.9938  -22.6041 N   0  0  0  0  0  0  0  0  0  0  0  0
   20.3133  -21.6563  -20.6752 N   0  0  0  0  0  0  0  0  0  0  0  0
   21.5634  -21.2452  -20.1341 C   0  0  0  0  0  0  0  0  0  0  0  0
   22.6304  -22.3156  -20.2261 C   0  0  0  0  0  0  0  0  0  0  0  0
   23.8292  -21.8369  -19.4516 C   0  0  0  0  0  0  0  0  0  0  0  0
   23.8536  -20.3445  -19.2702 C   0  0  2  0  0  0  0  0  0  0  0  0
   25.1892  -19.7943  -19.3429 N   0  0  0  0  0  0  0  0  0  0  0  0
   23.2331  -19.9125  -18.0023 C   0  0  0  0  0  0  0  0  0  0  0  0
   23.7157  -20.3511  -16.9273 O   0  0  0  0  0  0  0  0  0  0  0  0
   18.1681  -22.3115  -22.0218 N   0  0  0  0  0  0  0  0  0  0  0  0
   22.1368  -19.0424  -17.9092 C   0  0  2  0  0  0  0  0  0  0  0  0
   21.6457  -18.6131  -16.6200 C   0  0  0  0  0  0  0  0  0  0  0  0
   21.7390  -17.1045  -16.4872 C   0  0  0  0  0  0  0  0  0  0  0  0
   20.8472  -16.4480  -17.4662 C   0  0  0  0  0  0  0  0  0  0  0  0
   19.5719  -16.0135  -17.1116 C   0  0  0  0  0  0  0  0  0  0  0  0
   18.7207  -15.3917  -17.9835 C   0  0  0  0  0  0  0  0  0  0  0  0
   19.1033  -15.1677  -19.2739 C   0  0  0  0  0  0  0  0  0  0  0  0
   20.3557  -15.5768  -19.6809 C   0  0  0  0  0  0  0  0  0  0  0  0
   21.2009  -16.2020  -18.7885 C   0  0  0  0  0  0  0  0  0  0  0  0
   20.3020  -19.1525  -16.4152 O   0  0  0  0  0  0  0  0  0  0  0  0
   19.7071  -19.6952  -17.4019 O   0  0  0  0  0  0  0  0  0  0  0  0
  2  1  1  6
  2  3  1  0
  3  4  1  0
  4  5  2  0
  4  9  1  0
  5  6  1  0
  6  7  2  0
  8  7  1  0
  9  8  2  0
 10 20  1  0
 10  2  1  0
 11 10  2  0
 13 12  1  0
 13 15  1  0
 14 13  2  0
 16 15  1  0
 16 17  1  0
 17 18  1  0
 19 18  1  1
 19 21  1  0
 19 20  1  0
 21 23  1  0
 22 21  2  0
 23 24  1  0
 24 32  1  0
 24 25  1  6
 25 26  1  0
 26 27  2  0
 27 28  1  0
 29 28  2  0
 30 29  1  0
 31 26  1  0
 31 30  2  0
 32 34  1  0
 33 32  2  0
M  END
$$$$
