FRF.pdb
     RDKit          3D

 34 35  0  0  1  0  0  0  0  0999 V2000
   24.9133  -20.9033  -22.3632 N   0  0  0  0  0  0  0  0  0  0  0  0
   23.5781  -20.3915  -22.1270 C   0  0  1  0  0  0  0  0  0  0  0  0
   22.9855  -20.0541  -23.4700 C   0  0  0  0  0  0  0  0  0  0  0  0
   23.7859  -19.1261  -24.2426 C   0  0  0  0  0  0  0  0  0  0  0  0
   24.4572  -19.5487  -25.3638 C   0  0  0  0  0  0  0  0  0  0  0  0
   25.2322  -18.6897  -26.1280 C   0  0  0  0  0  0  0  0  0  0  0  0
   25.3352  -17.3698  -25.7549 C   0  0  0  0  0  0  0  0  0  0  0  0
   24.6777  -16.9160  -24.6410 C   0  0  0  0  0  0  0  0  0  0  0  0
   23.9128  -17.7981  -23.9003 C   0  0  0  0  0  0  0  0  0  0  0  0
   22.8317  -21.3876  -21.3821 C   0  0  0  0  0  0  0  0  0  0  0  0
   21.5768  -21.3293  -21.3299 O   0  0  0  0  0  0  0  0  0  0  0  0
   19.5720  -25.5445  -18.4051 N   0  0  0  0  0  0  0  0  0  0  0  0
   19.7951  -26.9337  -18.5056 C   0  0  0  0  0  0  0  0  0  0  0  0
   18.9392  -27.7339  -17.9199 N   0  0  0  0  0  0  0  0  0  0  0  0
   20.9099  -27.4324  -19.2182 N   0  0  0  0  0  0  0  0  0  0  0  0
   21.8308  -26.5320  -19.8229 C   0  0  0  0  0  0  0  0  0  0  0  0
   22.5861  -25.6906  -18.8158 C   0  0  0  0  0  0  0  0  0  0  0  0
   23.4031  -24.6831  -19.5797 C   0  0  0  0  0  0  0  0  0  0  0  0
   22.6232  -23.4510  -19.9461 C   0  0  2  0  0  0  0  0  0  0  0  0
   23.4170  -22.4810  -20.6679 N   0  0  0  0  0  0  0  0  0  0  0  0
   22.0180  -22.7880  -18.7742 C   0  0  0  0  0  0  0  0  0  0  0  0
   22.7801  -22.1888  -17.9736 O   0  0  0  0  0  0  0  0  0  0  0  0
   19.0348  -28.7629  -17.9696 N   0  0  0  0  0  0  0  0  0  0  0  0
   20.6450  -22.7780  -18.4871 C   0  0  2  0  0  0  0  0  0  0  0  0
   20.1459  -22.1183  -17.3025 C   0  0  0  0  0  0  0  0  0  0  0  0
   19.6458  -20.7252  -17.6362 C   0  0  0  0  0  0  0  0  0  0  0  0
   18.4448  -20.8040  -18.4941 C   0  0  0  0  0  0  0  0  0  0  0  0
   18.4990  -20.4957  -19.8517 C   0  0  0  0  0  0  0  0  0  0  0  0
   17.4142  -20.5670  -20.6821 C   0  0  0  0  0  0  0  0  0  0  0  0
   16.2008  -20.9555  -20.1939 C   0  0  0  0  0  0  0  0  0  0  0  0
   16.0881  -21.2731  -18.8567 C   0  0  0  0  0  0  0  0  0  0  0  0
   17.1922  -21.1956  -18.0342 C   0  0  0  0  0  0  0  0  0  0  0  0
   19.1510  -22.9760  -16.6596 O   0  0  0  0  0  0  0  0  0  0  0  0
   18.8525  -24.0829  -17.2140 O   0  0  0  0  0  0  0  0  0  0  0  0
  2  1  1  6
  2  3  1  0
  3  4  1  0
  4  5  2  0
  4  9  1  0
  5  6  1  0
  6  7  2  0
  8  7  1  0
  9  8  2  0
 10 20  1  0
 10  2  1  0
 11 10  2  0
 13 12  1  0
 13 15  1  0
 14 13  2  0
 16 15  1  0
 16 17  1  0
 17 18  1  0
 19 18  1  1
 19 21  1  0
 19 20  1  0
 21 23  1  0
 22 21  2  0
 23 24  1  0
 24 32  1  0
 24 25  1  6
 25 26  1  0
 26 27  2  0
 27 28  1  0
 29 28  2  0
 30 29  1  0
 31 26  1  0
 31 30  2  0
 32 34  1  0
 33 32  2  0
M  END
$$$$
