FRF.pdb
     RDKit          3D

 34 35  0  0  1  0  0  0  0  0999 V2000
   24.9211  -21.3039   -7.1529 N   0  0  0  0  0  0  0  0  0  0  0  0
   25.6337  -20.3894   -8.0225 C   0  0  1  0  0  0  0  0  0  0  0  0
   27.1046  -20.5771   -7.7583 C   0  0  0  0  0  0  0  0  0  0  0  0
   27.5808  -19.8682   -6.5880 C   0  0  0  0  0  0  0  0  0  0  0  0
   28.1003  -20.5557   -5.5186 C   0  0  0  0  0  0  0  0  0  0  0  0
   28.5657  -19.9117   -4.3823 C   0  0  0  0  0  0  0  0  0  0  0  0
   28.5073  -18.5389   -4.3194 C   0  0  0  0  0  0  0  0  0  0  0  0
   27.9944  -17.8229   -5.3698 C   0  0  0  0  0  0  0  0  0  0  0  0
   27.5385  -18.4951   -6.4887 C   0  0  0  0  0  0  0  0  0  0  0  0
   25.2375  -20.6579   -9.3918 C   0  0  0  0  0  0  0  0  0  0  0  0
   25.2771  -21.8307   -9.8433 O   0  0  0  0  0  0  0  0  0  0  0  0
   22.7289  -23.4212  -14.7826 N   0  0  0  0  0  0  0  0  0  0  0  0
   21.9263  -22.3013  -15.0845 C   0  0  0  0  0  0  0  0  0  0  0  0
   20.6275  -22.4701  -15.1121 N   0  0  0  0  0  0  0  0  0  0  0  0
   22.5171  -21.0437  -15.3466 N   0  0  0  0  0  0  0  0  0  0  0  0
   23.3490  -20.4291  -14.3695 C   0  0  0  0  0  0  0  0  0  0  0  0
   22.5694  -19.8356  -13.2151 C   0  0  0  0  0  0  0  0  0  0  0  0
   23.5376  -19.0728  -12.3510 C   0  0  0  0  0  0  0  0  0  0  0  0
   24.5836  -19.9520  -11.7236 C   0  0  2  0  0  0  0  0  0  0  0  0
   24.7848  -19.6670  -10.3200 N   0  0  0  0  0  0  0  0  0  0  0  0
   25.8862  -19.8721  -12.4133 C   0  0  0  0  0  0  0  0  0  0  0  0
   26.7301  -19.0413  -11.9908 O   0  0  0  0  0  0  0  0  0  0  0  0
   19.9819  -21.6892  -15.3216 N   0  0  0  0  0  0  0  0  0  0  0  0
   26.2535  -20.6611  -13.5134 C   0  0  2  0  0  0  0  0  0  0  0  0
   27.5764  -20.5566  -14.0849 C   0  0  0  0  0  0  0  0  0  0  0  0
   28.4092  -21.7750  -13.7325 C   0  0  0  0  0  0  0  0  0  0  0  0
   29.1135  -21.5608  -12.4509 C   0  0  0  0  0  0  0  0  0  0  0  0
   28.8243  -22.3284  -11.3247 C   0  0  0  0  0  0  0  0  0  0  0  0
   29.4607  -22.1702  -10.1241 C   0  0  0  0  0  0  0  0  0  0  0  0
   30.4332  -21.2237   -9.9825 C   0  0  0  0  0  0  0  0  0  0  0  0
   30.7612  -20.4344  -11.0646 C   0  0  0  0  0  0  0  0  0  0  0  0
   30.1095  -20.6077  -12.2674 C   0  0  0  0  0  0  0  0  0  0  0  0
   27.4597  -20.3030  -15.5204 O   0  0  0  0  0  0  0  0  0  0  0  0
   26.3659  -20.5959  -16.1031 O   0  0  0  0  0  0  0  0  0  0  0  0
  2  1  1  1
  2  3  1  0
  3  4  1  0
  4  5  2  0
  4  9  1  0
  5  6  1  0
  6  7  2  0
  8  7  1  0
  9  8  2  0
 10 20  1  0
 10  2  1  0
 11 10  2  0
 13 12  1  0
 13 15  1  0
 14 13  2  0
 16 15  1  0
 16 17  1  0
 17 18  1  0
 19 18  1  6
 19 21  1  0
 19 20  1  0
 21 23  1  0
 22 21  2  0
 23 24  1  0
 24 32  1  0
 24 25  1  1
 25 26  1  0
 26 27  2  0
 27 28  1  0
 29 28  2  0
 30 29  1  0
 31 26  1  0
 31 30  2  0
 32 34  1  0
 33 32  2  0
M  END
$$$$
