GKG.pdb
     RDKit          3D

 18 17  0  0  1  0  0  0  0  0999 V2000
   26.2928  -31.2038  -19.1667 N   0  0  0  0  0  0  0  0  0  0  0  0
   26.6257  -30.7481  -17.8475 C   0  0  0  0  0  0  0  0  0  0  0  0
   26.6731  -29.2695  -17.7455 C   0  0  0  0  0  0  0  0  0  0  0  0
   26.6613  -28.6285  -18.8312 O   0  0  0  0  0  0  0  0  0  0  0  0
   26.7290  -28.5652  -16.5272 N   0  0  0  0  0  0  0  0  0  0  0  0
   26.7300  -27.0985  -16.5461 C   0  0  1  0  0  0  0  0  0  0  0  0
   25.8428  -26.5861  -15.4407 C   0  0  0  0  0  0  0  0  0  0  0  0
   24.6433  -25.8944  -15.9643 C   0  0  0  0  0  0  0  0  0  0  0  0
   25.0119  -24.6088  -16.7131 C   0  0  0  0  0  0  0  0  0  0  0  0
   23.6953  -24.0044  -17.1677 C   0  0  0  0  0  0  0  0  0  0  0  0
   23.8775  -22.8179  -17.9642 N   0  0  0  0  0  0  0  0  0  0  0  0
   28.0920  -26.5792  -16.3968 C   0  0  0  0  0  0  0  0  0  0  0  0
   28.8417  -26.9933  -15.4958 O   0  0  0  0  0  0  0  0  0  0  0  0
   28.6437  -25.5739  -17.2663 N   0  0  0  0  0  0  0  0  0  0  0  0
   30.0107  -25.1152  -17.0692 C   0  0  0  0  0  0  0  0  0  0  0  0
   30.9531  -25.7946  -17.9729 C   0  0  0  0  0  0  0  0  0  0  0  0
   31.1660  -25.2777  -19.0944 O   0  0  0  0  0  0  0  0  0  0  0  0
   31.5847  -26.9724  -17.5902 O   0  0  0  0  0  0  0  0  0  0  0  0
  2  1  1  0
  3  2  1  0
  4  3  2  0
  5  3  1  0
  6  5  1  0
  6  7  1  1
  8  7  1  0
  9  8  1  0
 10  9  1  0
 11 10  1  0
 12  6  1  0
 12 14  1  0
 13 12  2  0
 15 14  1  0
 15 16  1  0
 16 18  1  0
 17 16  2  0
M  END
$$$$
