GKG.pdb
     RDKit          3D

 18 17  0  0  1  0  0  0  0  0999 V2000
   23.5558  -16.9477  -18.5264 N   0  0  0  0  0  0  0  0  0  0  0  0
   24.1311  -16.7204  -17.2318 C   0  0  0  0  0  0  0  0  0  0  0  0
   24.3554  -17.9753  -16.4745 C   0  0  0  0  0  0  0  0  0  0  0  0
   23.9187  -19.0359  -16.9982 O   0  0  0  0  0  0  0  0  0  0  0  0
   25.0151  -18.0384  -15.2318 N   0  0  0  0  0  0  0  0  0  0  0  0
   25.1279  -19.3294  -14.5445 C   0  0  1  0  0  0  0  0  0  0  0  0
   26.4399  -19.3862  -13.8048 C   0  0  0  0  0  0  0  0  0  0  0  0
   27.5830  -19.6230  -14.7152 C   0  0  0  0  0  0  0  0  0  0  0  0
   27.6275  -21.0752  -15.2035 C   0  0  0  0  0  0  0  0  0  0  0  0
   28.8009  -21.1515  -16.1640 C   0  0  0  0  0  0  0  0  0  0  0  0
   28.9294  -22.4485  -16.7777 N   0  0  0  0  0  0  0  0  0  0  0  0
   24.0068  -19.5248  -13.6216 C   0  0  0  0  0  0  0  0  0  0  0  0
   23.5790  -18.5891  -12.9239 O   0  0  0  0  0  0  0  0  0  0  0  0
   23.3375  -20.7890  -13.4631 N   0  0  0  0  0  0  0  0  0  0  0  0
   22.2045  -20.9013  -12.5568 C   0  0  0  0  0  0  0  0  0  0  0  0
   20.9304  -21.0232  -13.2837 C   0  0  0  0  0  0  0  0  0  0  0  0
   20.9613  -20.9651  -14.5350 O   0  0  0  0  0  0  0  0  0  0  0  0
   19.7329  -21.1972  -12.5994 O   0  0  0  0  0  0  0  0  0  0  0  0
  2  1  1  0
  3  2  1  0
  4  3  2  0
  5  3  1  0
  6  5  1  0
  6  7  1  1
  8  7  1  0
  9  8  1  0
 10  9  1  0
 11 10  1  0
 12  6  1  0
 12 14  1  0
 13 12  2  0
 15 14  1  0
 15 16  1  0
 16 18  1  0
 17 16  2  0
M  END
$$$$
