GKG.pdb
     RDKit          3D

 18 17  0  0  1  0  0  0  0  0999 V2000
   16.8714  -12.3541  -15.2617 N   0  0  0  0  0  0  0  0  0  0  0  0
   17.3039  -11.2566  -16.0784 C   0  0  0  0  0  0  0  0  0  0  0  0
   18.6475  -10.7550  -15.7019 C   0  0  0  0  0  0  0  0  0  0  0  0
   19.0954  -11.1267  -14.5834 O   0  0  0  0  0  0  0  0  0  0  0  0
   19.4269   -9.9061  -16.5114 N   0  0  0  0  0  0  0  0  0  0  0  0
   20.7640   -9.5101  -16.0564 C   0  0  1  0  0  0  0  0  0  0  0  0
   21.7100   -9.5132  -17.2298 C   0  0  0  0  0  0  0  0  0  0  0  0
   22.2140  -10.8711  -17.5356 C   0  0  0  0  0  0  0  0  0  0  0  0
   23.0649  -10.8861  -18.8104 C   0  0  0  0  0  0  0  0  0  0  0  0
   23.3900  -12.3461  -19.0719 C   0  0  0  0  0  0  0  0  0  0  0  0
   24.1699  -12.5329  -20.2688 N   0  0  0  0  0  0  0  0  0  0  0  0
   20.7268   -8.1873  -15.4275 C   0  0  0  0  0  0  0  0  0  0  0  0
   19.9706   -7.2961  -15.8511 O   0  0  0  0  0  0  0  0  0  0  0  0
   21.5473   -7.8364  -14.2984 N   0  0  0  0  0  0  0  0  0  0  0  0
   21.4129   -6.5240  -13.6840 C   0  0  0  0  0  0  0  0  0  0  0  0
   22.0926   -5.4794  -14.4670 C   0  0  0  0  0  0  0  0  0  0  0  0
   22.1652   -4.3301  -13.9730 O   0  0  0  0  0  0  0  0  0  0  0  0
   22.6356   -5.7633  -15.7149 O   0  0  0  0  0  0  0  0  0  0  0  0
  2  1  1  0
  3  2  1  0
  4  3  2  0
  5  3  1  0
  6  5  1  0
  6  7  1  6
  8  7  1  0
  9  8  1  0
 10  9  1  0
 11 10  1  0
 12  6  1  0
 12 14  1  0
 13 12  2  0
 15 14  1  0
 15 16  1  0
 16 18  1  0
 17 16  2  0
M  END
$$$$
