VML.pdb
     RDKit          3D

 24 23  0  0  1  0  0  0  0  0999 V2000
   16.0427  -13.0973  -16.9967 C   0  0  0  0  0  0  0  0  0  0  0  0
   17.5454  -13.2500  -17.0890 C   0  0  2  0  0  0  0  0  0  0  0  0
   17.8861  -14.7045  -16.8930 C   0  0  0  0  0  0  0  0  0  0  0  0
   18.2058  -12.3627  -16.0400 C   0  0  2  0  0  0  0  0  0  0  0  0
   17.9224  -12.9316  -14.7604 N   0  0  0  0  0  0  0  0  0  0  0  0
   17.7692  -10.9590  -16.1671 C   0  0  0  0  0  0  0  0  0  0  0  0
   18.0352  -10.3343  -17.2247 O   0  0  0  0  0  0  0  0  0  0  0  0
   11.2229   -9.6544  -16.0122 C   0  0  0  0  0  0  0  0  0  0  0  0
   12.5331   -9.0175  -14.9144 S   0  0  0  0  0  0  0  0  0  0  0  0
   14.1773   -9.2205  -15.6931 C   0  0  0  0  0  0  0  0  0  0  0  0
   15.2468   -8.7681  -14.7452 C   0  0  0  0  0  0  0  0  0  0  0  0
   16.6164   -8.8877  -15.3822 C   0  0  2  0  0  0  0  0  0  0  0  0
   17.0680  -10.2906  -15.1549 N   0  0  0  0  0  0  0  0  0  0  0  0
   17.6030   -8.0479  -14.6992 C   0  0  0  0  0  0  0  0  0  0  0  0
   18.0120   -8.3255  -13.5171 O   0  0  0  0  0  0  0  0  0  0  0  0
   22.7164   -5.2778  -15.3007 C   0  0  0  0  0  0  0  0  0  0  0  0
   21.4730   -5.2424  -14.3823 C   0  0  2  0  0  0  0  0  0  0  0  0
   21.9195   -5.7175  -13.0153 C   0  0  0  0  0  0  0  0  0  0  0  0
   20.5225   -6.2419  -14.9847 C   0  0  0  0  0  0  0  0  0  0  0  0
   19.1408   -6.0576  -14.4640 C   0  0  2  0  0  0  0  0  0  0  0  0
   18.2006   -6.8733  -15.2556 N   0  0  0  0  0  0  0  0  0  0  0  0
   18.6731   -4.6748  -14.3822 C   0  0  0  0  0  0  0  0  0  0  0  0
   17.6835   -4.2267  -15.2754 O   0  0  0  0  0  0  0  0  0  0  0  0
   19.1057   -3.8557  -13.5544 O   0  0  0  0  0  0  0  0  0  0  0  0
  2  1  1  1
  3  2  1  0
  4  5  1  1
  4  6  1  0
  4  2  1  0
  6  7  2  0
  9  8  1  0
 10  9  1  0
 11 10  1  0
 12 11  1  1
 12 14  1  0
 13  6  1  0
 13 12  1  0
 14 21  1  0
 14 15  2  0
 17 16  1  6
 17 19  1  0
 18 17  1  0
 20 19  1  6
 20 22  1  0
 21 20  1  0
 22 24  2  0
 22 23  1  0
M  END
$$$$
