VML.pdb
     RDKit          3D

 24 23  0  0  1  0  0  0  0  0999 V2000
   27.9757  -18.4558  -14.4765 C   0  0  0  0  0  0  0  0  0  0  0  0
   27.6545  -18.7739  -15.9207 C   0  0  2  0  0  0  0  0  0  0  0  0
   28.1260  -17.6254  -16.7743 C   0  0  0  0  0  0  0  0  0  0  0  0
   26.1554  -19.0117  -16.0612 C   0  0  2  0  0  0  0  0  0  0  0  0
   25.5012  -17.7644  -15.8213 N   0  0  0  0  0  0  0  0  0  0  0  0
   25.6945  -20.0957  -15.1724 C   0  0  0  0  0  0  0  0  0  0  0  0
   26.1062  -21.2652  -15.3781 O   0  0  0  0  0  0  0  0  0  0  0  0
   25.3370  -20.3521   -8.8386 C   0  0  0  0  0  0  0  0  0  0  0  0
   26.8022  -20.6112   -9.8938 S   0  0  0  0  0  0  0  0  0  0  0  0
   26.2964  -21.0626  -11.5942 C   0  0  0  0  0  0  0  0  0  0  0  0
   24.8732  -20.6526  -11.8257 C   0  0  0  0  0  0  0  0  0  0  0  0
   24.4290  -21.0180  -13.2275 C   0  0  2  0  0  0  0  0  0  0  0  0
   24.8141  -19.8756  -14.1051 N   0  0  0  0  0  0  0  0  0  0  0  0
   22.9702  -21.1060  -13.3242 C   0  0  0  0  0  0  0  0  0  0  0  0
   22.2304  -20.0651  -13.2206 O   0  0  0  0  0  0  0  0  0  0  0  0
   18.3768  -22.2457  -10.6520 C   0  0  0  0  0  0  0  0  0  0  0  0
   18.7435  -22.4584  -12.1390 C   0  0  2  0  0  0  0  0  0  0  0  0
   18.2295  -23.8285  -12.5294 C   0  0  0  0  0  0  0  0  0  0  0  0
   20.2483  -22.4505  -12.1680 C   0  0  0  0  0  0  0  0  0  0  0  0
   20.7627  -22.3117  -13.5574 C   0  0  2  0  0  0  0  0  0  0  0  0
   22.2377  -22.3153  -13.5418 N   0  0  0  0  0  0  0  0  0  0  0  0
   20.2629  -21.1600  -14.3066 C   0  0  0  0  0  0  0  0  0  0  0  0
   20.9703  -19.9454  -14.2587 O   0  0  0  0  0  0  0  0  0  0  0  0
   19.2305  -21.1906  -14.9970 O   0  0  0  0  0  0  0  0  0  0  0  0
  2  1  1  1
  3  2  1  0
  4  5  1  1
  4  6  1  0
  4  2  1  0
  6  7  2  0
  9  8  1  0
 10  9  1  0
 11 10  1  0
 12 11  1  1
 12 14  1  0
 13  6  1  0
 13 12  1  0
 14 21  1  0
 14 15  2  0
 17 16  1  1
 17 19  1  0
 18 17  1  0
 20 19  1  1
 20 22  1  0
 21 20  1  0
 22 24  2  0
 22 23  1  0
M  END
$$$$
