VML.pdb
     RDKit          3D

 24 23  0  0  1  0  0  0  0  0999 V2000
   25.8086  -18.6928  -16.0662 C   0  0  0  0  0  0  0  0  0  0  0  0
   27.0245  -18.3140  -15.2488 C   0  0  2  0  0  0  0  0  0  0  0  0
   27.9125  -17.4418  -16.0979 C   0  0  0  0  0  0  0  0  0  0  0  0
   27.7376  -19.5816  -14.7923 C   0  0  2  0  0  0  0  0  0  0  0  0
   28.1237  -20.3000  -15.9654 N   0  0  0  0  0  0  0  0  0  0  0  0
   26.8987  -20.3716  -13.8707 C   0  0  0  0  0  0  0  0  0  0  0  0
   26.2351  -21.3353  -14.3295 O   0  0  0  0  0  0  0  0  0  0  0  0
   26.5082  -19.2979   -7.3449 C   0  0  0  0  0  0  0  0  0  0  0  0
   25.8980  -21.0062   -7.5360 S   0  0  0  0  0  0  0  0  0  0  0  0
   25.3500  -21.3029   -9.2572 C   0  0  0  0  0  0  0  0  0  0  0  0
   26.2370  -20.5567  -10.2077 C   0  0  0  0  0  0  0  0  0  0  0  0
   25.9101  -20.9153  -11.6431 C   0  0  2  0  0  0  0  0  0  0  0  0
   26.8102  -20.0919  -12.5007 N   0  0  0  0  0  0  0  0  0  0  0  0
   24.5508  -20.5064  -12.0040 C   0  0  0  0  0  0  0  0  0  0  0  0
   24.2547  -19.2759  -12.2040 O   0  0  0  0  0  0  0  0  0  0  0  0
   20.7897  -21.4252  -16.1923 C   0  0  0  0  0  0  0  0  0  0  0  0
   20.8179  -20.7636  -14.7951 C   0  0  2  0  0  0  0  0  0  0  0  0
   20.8234  -19.2652  -15.0156 C   0  0  0  0  0  0  0  0  0  0  0  0
   22.1277  -21.1955  -14.1924 C   0  0  0  0  0  0  0  0  0  0  0  0
   22.1673  -20.9228  -12.7301 C   0  0  2  0  0  0  0  0  0  0  0  0
   23.4466  -21.4002  -12.1721 N   0  0  0  0  0  0  0  0  0  0  0  0
   21.0445  -21.4496  -11.9560 C   0  0  0  0  0  0  0  0  0  0  0  0
   21.2968  -22.3009  -10.8655 O   0  0  0  0  0  0  0  0  0  0  0  0
   19.8573  -21.1846  -12.2086 O   0  0  0  0  0  0  0  0  0  0  0  0
  2  1  1  6
  3  2  1  0
  4  5  1  6
  4  6  1  0
  4  2  1  0
  6  7  2  0
  9  8  1  0
 10  9  1  0
 11 10  1  0
 12 11  1  1
 12 14  1  0
 13  6  1  0
 13 12  1  0
 14 21  1  0
 14 15  2  0
 17 16  1  6
 17 19  1  0
 18 17  1  0
 20 19  1  6
 20 22  1  0
 21 20  1  0
 22 24  2  0
 22 23  1  0
M  END
$$$$
