VML.pdb
     RDKit          3D

 24 23  0  0  1  0  0  0  0  0999 V2000
   25.4856  -20.1532  -16.1758 C   0  0  0  0  0  0  0  0  0  0  0  0
   26.9459  -19.8213  -15.9578 C   0  0  2  0  0  0  0  0  0  0  0  0
   27.7244  -20.3039  -17.1541 C   0  0  0  0  0  0  0  0  0  0  0  0
   27.4219  -20.4747  -14.6655 C   0  0  2  0  0  0  0  0  0  0  0  0
   27.2762  -21.8873  -14.8227 N   0  0  0  0  0  0  0  0  0  0  0  0
   26.7049  -19.9384  -13.4927 C   0  0  0  0  0  0  0  0  0  0  0  0
   26.6661  -18.6938  -13.3222 O   0  0  0  0  0  0  0  0  0  0  0  0
   21.0658  -21.5258  -11.0702 C   0  0  0  0  0  0  0  0  0  0  0  0
   21.3717  -20.4517  -12.5125 S   0  0  0  0  0  0  0  0  0  0  0  0
   23.1335  -19.9600  -12.5838 C   0  0  0  0  0  0  0  0  0  0  0  0
   23.8999  -20.6605  -11.5026 C   0  0  0  0  0  0  0  0  0  0  0  0
   25.3201  -20.1382  -11.4245 C   0  0  2  0  0  0  0  0  0  0  0  0
   26.0631  -20.7609  -12.5576 N   0  0  0  0  0  0  0  0  0  0  0  0
   25.9993  -20.6043  -10.2134 C   0  0  0  0  0  0  0  0  0  0  0  0
   26.3117  -21.8368  -10.0556 O   0  0  0  0  0  0  0  0  0  0  0  0
   27.9716  -18.6267   -4.7218 C   0  0  0  0  0  0  0  0  0  0  0  0
   27.6702  -19.8777   -5.5790 C   0  0  2  0  0  0  0  0  0  0  0  0
   28.9357  -20.7092   -5.6079 C   0  0  0  0  0  0  0  0  0  0  0  0
   27.3814  -19.3397   -6.9547 C   0  0  0  0  0  0  0  0  0  0  0  0
   26.6774  -20.3470   -7.7936 C   0  0  2  0  0  0  0  0  0  0  0  0
   26.3794  -19.7677   -9.1171 N   0  0  0  0  0  0  0  0  0  0  0  0
   25.4708  -20.9286   -7.2076 C   0  0  0  0  0  0  0  0  0  0  0  0
   25.5681  -22.1212   -6.4685 O   0  0  0  0  0  0  0  0  0  0  0  0
   24.3425  -20.4223   -7.3253 O   0  0  0  0  0  0  0  0  0  0  0  0
  2  1  1  6
  3  2  1  0
  4  5  1  6
  4  6  1  0
  4  2  1  0
  6  7  2  0
  9  8  1  0
 10  9  1  0
 11 10  1  0
 12 11  1  1
 12 14  1  0
 13  6  1  0
 13 12  1  0
 14 21  1  0
 14 15  2  0
 17 16  1  1
 17 19  1  0
 18 17  1  0
 20 19  1  1
 20 22  1  0
 21 20  1  0
 22 24  2  0
 22 23  1  0
M  END
$$$$
