VML.pdb
     RDKit          3D

 24 23  0  0  1  0  0  0  0  0999 V2000
   23.5544  -11.7174  -20.8905 C   0  0  0  0  0  0  0  0  0  0  0  0
   24.9197  -11.7815  -20.2411 C   0  0  2  0  0  0  0  0  0  0  0  0
   25.8997  -12.3183  -21.2518 C   0  0  0  0  0  0  0  0  0  0  0  0
   24.8435  -12.6599  -18.9976 C   0  0  2  0  0  0  0  0  0  0  0  0
   24.5746  -13.9938  -19.4332 N   0  0  0  0  0  0  0  0  0  0  0  0
   23.8513  -12.1469  -18.0334 C   0  0  0  0  0  0  0  0  0  0  0  0
   22.6566  -12.5240  -18.1338 O   0  0  0  0  0  0  0  0  0  0  0  0
   19.8946  -10.7535  -12.5729 C   0  0  0  0  0  0  0  0  0  0  0  0
   21.1185  -11.3349  -13.7940 S   0  0  0  0  0  0  0  0  0  0  0  0
   22.6386  -10.3183  -13.7127 C   0  0  0  0  0  0  0  0  0  0  0  0
   23.6453  -10.8313  -14.6978 C   0  0  0  0  0  0  0  0  0  0  0  0
   23.1124  -10.7326  -16.1128 C   0  0  2  0  0  0  0  0  0  0  0  0
   24.1859  -11.2541  -17.0069 N   0  0  0  0  0  0  0  0  0  0  0  0
   22.9145   -9.3389  -16.5175 C   0  0  0  0  0  0  0  0  0  0  0  0
   23.9021   -8.5312  -16.6348 O   0  0  0  0  0  0  0  0  0  0  0  0
   18.8997   -5.5880  -19.2323 C   0  0  0  0  0  0  0  0  0  0  0  0
   20.2505   -5.6703  -18.4845 C   0  0  2  0  0  0  0  0  0  0  0  0
   21.3333   -5.3382  -19.4899 C   0  0  0  0  0  0  0  0  0  0  0  0
   20.3691   -7.1106  -18.0638 C   0  0  0  0  0  0  0  0  0  0  0  0
   21.5455   -7.3210  -17.1773 C   0  0  2  0  0  0  0  0  0  0  0  0
   21.6471   -8.7486  -16.8202 N   0  0  0  0  0  0  0  0  0  0  0  0
   21.5908   -6.4896  -15.9755 C   0  0  0  0  0  0  0  0  0  0  0  0
   22.2115   -5.2289  -16.0311 O   0  0  0  0  0  0  0  0  0  0  0  0
   21.1037   -6.8368  -14.8866 O   0  0  0  0  0  0  0  0  0  0  0  0
  2  1  1  6
  3  2  1  0
  4  5  1  6
  4  6  1  0
  4  2  1  0
  6  7  2  0
  9  8  1  0
 10  9  1  0
 11 10  1  0
 12 11  1  1
 12 14  1  0
 13  6  1  0
 13 12  1  0
 14 21  1  0
 14 15  2  0
 17 16  1  6
 17 19  1  0
 18 17  1  0
 20 19  1  1
 20 22  1  0
 21 20  1  0
 22 24  2  0
 22 23  1  0
M  END
$$$$
