WYV.pdb
     RDKit          3D

 34 36  0  0  1  0  0  0  0  0999 V2000
   27.9223  -18.4212   -8.7483 N   0  0  0  0  0  0  0  0  0  0  0  0
   27.2006  -19.6694   -8.5586 C   0  0  1  0  0  0  0  0  0  0  0  0
   26.4423  -19.6028   -7.2359 C   0  0  0  0  0  0  0  0  0  0  0  0
   27.2989  -19.2966   -6.0906 C   0  0  0  0  0  0  0  0  0  0  0  0
   27.2190  -18.2309   -5.2135 C   0  0  0  0  0  0  0  0  0  0  0  0
   28.2075  -18.3488   -4.3217 N   0  0  0  0  0  0  0  0  0  0  0  0
   28.9453  -19.4414   -4.5588 C   0  0  0  0  0  0  0  0  0  0  0  0
   30.0521  -19.9628   -3.9079 C   0  0  0  0  0  0  0  0  0  0  0  0
   30.6101  -21.1353   -4.3958 C   0  0  0  0  0  0  0  0  0  0  0  0
   30.0700  -21.7463   -5.4901 C   0  0  0  0  0  0  0  0  0  0  0  0
   28.9626  -21.2179   -6.1355 C   0  0  0  0  0  0  0  0  0  0  0  0
   28.3911  -20.0507   -5.6660 C   0  0  0  0  0  0  0  0  0  0  0  0
   26.1187  -19.7482   -9.6043 C   0  0  0  0  0  0  0  0  0  0  0  0
   25.5397  -18.7018  -10.0028 O   0  0  0  0  0  0  0  0  0  0  0  0
   29.4866  -19.9114  -15.7091 O   0  0  0  0  0  0  0  0  0  0  0  0
   28.5061  -20.4521  -14.8660 C   0  0  0  0  0  0  0  0  0  0  0  0
   28.8804  -21.1947  -13.7713 C   0  0  0  0  0  0  0  0  0  0  0  0
   27.9400  -21.7496  -12.9077 C   0  0  0  0  0  0  0  0  0  0  0  0
   26.6043  -21.5450  -13.1624 C   0  0  0  0  0  0  0  0  0  0  0  0
   25.5803  -22.1305  -12.2696 C   0  0  0  0  0  0  0  0  0  0  0  0
   24.9318  -21.1608  -11.3406 C   0  0  2  0  0  0  0  0  0  0  0  0
   25.7255  -20.9872  -10.1647 N   0  0  0  0  0  0  0  0  0  0  0  0
   23.4929  -21.3149  -11.1597 C   0  0  0  0  0  0  0  0  0  0  0  0
   23.0726  -22.0007  -10.1958 O   0  0  0  0  0  0  0  0  0  0  0  0
   26.1900  -20.7907  -14.2731 C   0  0  0  0  0  0  0  0  0  0  0  0
   27.1548  -20.2626  -15.0983 C   0  0  0  0  0  0  0  0  0  0  0  0
   20.9299  -18.4555  -11.3188 C   0  0  0  0  0  0  0  0  0  0  0  0
   20.3542  -19.6631  -12.0080 C   0  0  1  0  0  0  0  0  0  0  0  0
   20.3707  -19.3888  -13.4877 C   0  0  0  0  0  0  0  0  0  0  0  0
   21.1324  -20.8964  -11.7189 C   0  0  2  0  0  0  0  0  0  0  0  0
   22.5386  -20.7307  -12.0246 N   0  0  0  0  0  0  0  0  0  0  0  0
   20.5782  -22.1304  -12.3634 C   0  0  0  0  0  0  0  0  0  0  0  0
   19.3446  -22.6515  -11.9639 O   0  0  0  0  0  0  0  0  0  0  0  0
   21.1616  -22.7581  -13.2724 O   0  0  0  0  0  0  0  0  0  0  0  0
  2  1  1  6
  3  4  1  0
  3  2  1  0
  4  5  2  0
  6  5  1  0
  7  6  1  0
  8  7  2  0
  9  8  1  0
 10  9  2  0
 10 11  1  0
 11 12  2  0
 12  7  1  0
 12  4  1  0
 13 14  2  0
 13  2  1  0
 15 16  1  0
 16 17  2  0
 17 18  1  0
 19 20  1  0
 19 18  2  0
 21 20  1  1
 21 22  1  0
 22 13  1  0
 23 21  1  0
 24 23  2  0
 25 19  1  0
 26 25  2  0
 26 16  1  0
 28 27  1  1
 28 30  1  0
 28 29  1  0
 30 31  1  6
 31 23  1  0
 32 33  1  0
 32 30  1  0
 34 32  2  0
M  END
$$$$
