WYV.pdb
     RDKit          3D

 34 36  0  0  1  0  0  0  0  0999 V2000
   26.4794  -19.2939  -16.3420 N   0  0  0  0  0  0  0  0  0  0  0  0
   25.9481  -19.7114  -15.0542 C   0  0  1  0  0  0  0  0  0  0  0  0
   26.5423  -18.8223  -13.9656 C   0  0  0  0  0  0  0  0  0  0  0  0
   27.9103  -19.1885  -13.5995 C   0  0  0  0  0  0  0  0  0  0  0  0
   29.0998  -18.6925  -14.1000 C   0  0  0  0  0  0  0  0  0  0  0  0
   30.1063  -19.3161  -13.4798 N   0  0  0  0  0  0  0  0  0  0  0  0
   29.6487  -20.2052  -12.5885 C   0  0  0  0  0  0  0  0  0  0  0  0
   30.3088  -21.0668  -11.7269 C   0  0  0  0  0  0  0  0  0  0  0  0
   29.5482  -21.8844  -10.9039 C   0  0  0  0  0  0  0  0  0  0  0  0
   28.1856  -21.8285  -10.9549 C   0  0  0  0  0  0  0  0  0  0  0  0
   27.5330  -20.9637  -11.8199 C   0  0  0  0  0  0  0  0  0  0  0  0
   28.2715  -20.1405  -12.6483 C   0  0  0  0  0  0  0  0  0  0  0  0
   24.4752  -19.3948  -15.0306 C   0  0  0  0  0  0  0  0  0  0  0  0
   24.0191  -18.4317  -15.7038 O   0  0  0  0  0  0  0  0  0  0  0  0
   16.1713  -18.5193  -16.0532 O   0  0  0  0  0  0  0  0  0  0  0  0
   17.5214  -18.8821  -15.9530 C   0  0  0  0  0  0  0  0  0  0  0  0
   17.8609  -20.1939  -15.7204 C   0  0  0  0  0  0  0  0  0  0  0  0
   19.1888  -20.5979  -15.6142 C   0  0  0  0  0  0  0  0  0  0  0  0
   20.1811  -19.6552  -15.7470 C   0  0  0  0  0  0  0  0  0  0  0  0
   21.6016  -20.0510  -15.6286 C   0  0  0  0  0  0  0  0  0  0  0  0
   22.1483  -20.0129  -14.2416 C   0  0  2  0  0  0  0  0  0  0  0  0
   23.5696  -20.1627  -14.2599 N   0  0  0  0  0  0  0  0  0  0  0  0
   21.4080  -20.7752  -13.2428 C   0  0  0  0  0  0  0  0  0  0  0  0
   21.4143  -22.0288  -13.3089 O   0  0  0  0  0  0  0  0  0  0  0  0
   19.8664  -18.3067  -15.9852 C   0  0  0  0  0  0  0  0  0  0  0  0
   18.5407  -17.9545  -16.0820 C   0  0  0  0  0  0  0  0  0  0  0  0
   20.0397  -19.1643   -9.5371 C   0  0  0  0  0  0  0  0  0  0  0  0
   20.4473  -20.5864   -9.8127 C   0  0  1  0  0  0  0  0  0  0  0  0
   19.7523  -21.4589   -8.8025 C   0  0  0  0  0  0  0  0  0  0  0  0
   20.0772  -21.0185  -11.1862 C   0  0  2  0  0  0  0  0  0  0  0  0
   20.6729  -20.1695  -12.1974 N   0  0  0  0  0  0  0  0  0  0  0  0
   18.6015  -21.1653  -11.4007 C   0  0  0  0  0  0  0  0  0  0  0  0
   17.8754  -22.1460  -10.7196 O   0  0  0  0  0  0  0  0  0  0  0  0
   17.9401  -20.4447  -12.1779 O   0  0  0  0  0  0  0  0  0  0  0  0
  2  1  1  6
  3  4  1  0
  3  2  1  0
  4  5  2  0
  6  5  1  0
  7  6  1  0
  8  7  2  0
  9  8  1  0
 10  9  2  0
 10 11  1  0
 11 12  2  0
 12  7  1  0
 12  4  1  0
 13 14  2  0
 13  2  1  0
 15 16  1  0
 16 17  2  0
 17 18  1  0
 19 20  1  0
 19 18  2  0
 21 20  1  6
 21 22  1  0
 22 13  1  0
 23 21  1  0
 24 23  2  0
 25 19  1  0
 26 25  2  0
 26 16  1  0
 28 27  1  1
 28 30  1  0
 28 29  1  0
 30 31  1  6
 31 23  1  0
 32 33  1  0
 32 30  1  0
 34 32  2  0
M  END
$$$$
