WYV.pdb
     RDKit          3D

 34 36  0  0  1  0  0  0  0  0999 V2000
   26.1225  -22.7386  -11.9212 N   0  0  0  0  0  0  0  0  0  0  0  0
   25.4909  -21.6400  -11.2079 C   0  0  1  0  0  0  0  0  0  0  0  0
   26.3877  -20.4092  -11.3073 C   0  0  0  0  0  0  0  0  0  0  0  0
   27.5591  -20.4724  -10.4338 C   0  0  0  0  0  0  0  0  0  0  0  0
   28.8864  -20.6434  -10.7809 C   0  0  0  0  0  0  0  0  0  0  0  0
   29.6146  -20.6435   -9.6601 N   0  0  0  0  0  0  0  0  0  0  0  0
   28.8398  -20.4807   -8.5796 C   0  0  0  0  0  0  0  0  0  0  0  0
   29.1459  -20.4164   -7.2296 C   0  0  0  0  0  0  0  0  0  0  0  0
   28.1075  -20.2359   -6.3276 C   0  0  0  0  0  0  0  0  0  0  0  0
   26.8232  -20.1265   -6.7760 C   0  0  0  0  0  0  0  0  0  0  0  0
   26.5255  -20.1920   -8.1285 C   0  0  0  0  0  0  0  0  0  0  0  0
   27.5448  -20.3714   -9.0441 C   0  0  0  0  0  0  0  0  0  0  0  0
   24.2422  -21.2521  -11.9565 C   0  0  0  0  0  0  0  0  0  0  0  0
   24.0649  -21.6373  -13.1436 O   0  0  0  0  0  0  0  0  0  0  0  0
   19.3370  -24.2514   -7.4312 O   0  0  0  0  0  0  0  0  0  0  0  0
   19.7579  -23.1739   -8.2226 C   0  0  0  0  0  0  0  0  0  0  0  0
   19.2283  -23.0018   -9.4796 C   0  0  0  0  0  0  0  0  0  0  0  0
   19.6175  -21.9456  -10.2988 C   0  0  0  0  0  0  0  0  0  0  0  0
   20.5557  -21.0553   -9.8317 C   0  0  0  0  0  0  0  0  0  0  0  0
   20.9980  -19.9287  -10.6822 C   0  0  0  0  0  0  0  0  0  0  0  0
   21.8944  -20.3111  -11.8110 C   0  0  2  0  0  0  0  0  0  0  0  0
   23.2414  -20.4526  -11.3543 N   0  0  0  0  0  0  0  0  0  0  0  0
   21.6846  -19.5942  -13.0636 C   0  0  0  0  0  0  0  0  0  0  0  0
   21.9407  -18.3661  -13.1101 O   0  0  0  0  0  0  0  0  0  0  0  0
   21.1156  -21.2043   -8.5516 C   0  0  0  0  0  0  0  0  0  0  0  0
   20.7007  -22.2631   -7.7784 C   0  0  0  0  0  0  0  0  0  0  0  0
   23.1667  -19.9332  -16.4203 C   0  0  0  0  0  0  0  0  0  0  0  0
   21.6731  -19.9265  -16.6042 C   0  0  1  0  0  0  0  0  0  0  0  0
   21.2437  -21.3460  -16.8606 C   0  0  0  0  0  0  0  0  0  0  0  0
   20.9645  -19.3972  -15.4093 C   0  0  2  0  0  0  0  0  0  0  0  0
   21.1985  -20.2157  -14.2373 N   0  0  0  0  0  0  0  0  0  0  0  0
   19.5002  -19.1629  -15.6247 C   0  0  0  0  0  0  0  0  0  0  0  0
   18.5492  -19.8237  -14.8426 O   0  0  0  0  0  0  0  0  0  0  0  0
   19.0436  -18.3861  -16.4900 O   0  0  0  0  0  0  0  0  0  0  0  0
  2  1  1  6
  3  4  1  0
  3  2  1  0
  4  5  2  0
  6  5  1  0
  7  6  1  0
  8  7  2  0
  9  8  1  0
 10  9  2  0
 10 11  1  0
 11 12  2  0
 12  7  1  0
 12  4  1  0
 13 14  2  0
 13  2  1  0
 15 16  1  0
 16 17  2  0
 17 18  1  0
 19 20  1  0
 19 18  2  0
 21 20  1  1
 21 22  1  0
 22 13  1  0
 23 21  1  0
 24 23  2  0
 25 19  1  0
 26 25  2  0
 26 16  1  0
 28 27  1  1
 28 30  1  0
 28 29  1  0
 30 31  1  1
 31 23  1  0
 32 33  1  0
 32 30  1  0
 34 32  2  0
M  END
$$$$
