WDC.pdb
     RDKit          3D

 29 30  0  0  1  0  0  0  0  0999 V2000
    6.8706  -17.6371   24.3382 N   0  0  0  0  0  0  0  0  0  0  0  0
    7.9645  -16.7443   24.1306 C   0  0  1  0  0  0  0  0  0  0  0  0
    8.3095  -15.8922   25.3368 C   0  0  0  0  0  0  0  0  0  0  0  0
    7.1631  -15.0375   25.7406 C   0  0  0  0  0  0  0  0  0  0  0  0
    5.8866  -15.4522   26.1081 C   0  0  0  0  0  0  0  0  0  0  0  0
    5.1335  -14.3752   26.3706 N   0  0  0  0  0  0  0  0  0  0  0  0
    5.8469  -13.2325   26.1970 C   0  0  0  0  0  0  0  0  0  0  0  0
    5.5438  -11.8972   26.3396 C   0  0  0  0  0  0  0  0  0  0  0  0
    6.4791  -10.9255   26.1009 C   0  0  0  0  0  0  0  0  0  0  0  0
    7.7407  -11.3131   25.7119 C   0  0  0  0  0  0  0  0  0  0  0  0
    8.0355  -12.6540   25.5714 C   0  0  0  0  0  0  0  0  0  0  0  0
    7.1158  -13.6614   25.8030 C   0  0  0  0  0  0  0  0  0  0  0  0
    9.2038  -17.4766   23.6821 C   0  0  0  0  0  0  0  0  0  0  0  0
    9.2793  -18.7098   23.9892 O   0  0  0  0  0  0  0  0  0  0  0  0
   10.2419  -16.8571   22.9572 N   0  0  0  0  0  0  0  0  0  0  0  0
   11.5647  -17.5107   23.0111 C   0  0  1  0  0  0  0  0  0  0  0  0
   12.3953  -16.6804   22.0313 C   0  0  0  0  0  0  0  0  0  0  0  0
   12.0768  -16.8407   20.6371 C   0  0  0  0  0  0  0  0  0  0  0  0
   11.8014  -15.8949   19.8812 O   0  0  0  0  0  0  0  0  0  0  0  0
   12.1572  -17.3437   24.3511 C   0  0  0  0  0  0  0  0  0  0  0  0
   12.7848  -16.2934   24.6044 O   0  0  0  0  0  0  0  0  0  0  0  0
   12.0805  -18.1428   20.1118 O   0  0  0  0  0  0  0  0  0  0  0  0
   12.0723  -18.2941   25.4046 N   0  0  0  0  0  0  0  0  0  0  0  0
   12.6363  -17.9803   26.6945 C   0  0  1  0  0  0  0  0  0  0  0  0
   12.0461  -16.6673   27.2228 C   0  0  0  0  0  0  0  0  0  0  0  0
   10.3339  -16.9024   27.7398 S   0  0  0  0  0  0  0  0  0  0  0  0
   12.4832  -19.0582   27.6878 C   0  0  0  0  0  0  0  0  0  0  0  0
   13.1255  -19.0695   28.9029 O   0  0  0  0  0  0  0  0  0  0  0  0
   11.7299  -20.0279   27.4290 O   0  0  0  0  0  0  0  0  0  0  0  0
  2  1  1  1
  2  3  1  0
  2 13  1  0
  3  4  1  0
  4 12  1  0
  5  4  2  0
  5  6  1  0
  6  7  1  0
  7  8  1  0
  8  9  2  0
 10  9  1  0
 11 10  2  0
 12  7  2  0
 12 11  1  0
 13 15  1  0
 13 14  2  0
 15 16  1  0
 16 20  1  0
 16 17  1  6
 17 18  1  0
 18 22  1  0
 19 18  2  0
 20 21  2  0
 23 20  1  0
 23 24  1  0
 24 27  1  0
 24 25  1  1
 26 25  1  0
 27 28  1  0
 29 27  2  0
M  END
$$$$
