WDC.pdb
     RDKit          3D

 29 30  0  0  1  0  0  0  0  0999 V2000
    6.9495  -17.8398   23.4782 N   0  0  0  0  0  0  0  0  0  0  0  0
    7.8484  -16.9793   22.7795 C   0  0  1  0  0  0  0  0  0  0  0  0
    7.4577  -15.5143   22.8104 C   0  0  0  0  0  0  0  0  0  0  0  0
    7.0003  -15.1052   24.1637 C   0  0  0  0  0  0  0  0  0  0  0  0
    6.3935  -15.9032   25.1289 C   0  0  0  0  0  0  0  0  0  0  0  0
    6.1051  -15.1528   26.2011 N   0  0  0  0  0  0  0  0  0  0  0  0
    6.4922  -13.8652   26.0084 C   0  0  0  0  0  0  0  0  0  0  0  0
    6.4277  -12.7314   26.7866 C   0  0  0  0  0  0  0  0  0  0  0  0
    6.9128  -11.5317   26.3382 C   0  0  0  0  0  0  0  0  0  0  0  0
    7.4718  -11.4803   25.0820 C   0  0  0  0  0  0  0  0  0  0  0  0
    7.5321  -12.6219   24.3088 C   0  0  0  0  0  0  0  0  0  0  0  0
    7.0514  -13.8493   24.7292 C   0  0  0  0  0  0  0  0  0  0  0  0
    9.2606  -17.1166   23.2895 C   0  0  0  0  0  0  0  0  0  0  0  0
    9.4729  -18.0432   24.1364 O   0  0  0  0  0  0  0  0  0  0  0  0
   10.3139  -16.2798   22.8688 N   0  0  0  0  0  0  0  0  0  0  0  0
   11.6604  -16.6080   23.3780 C   0  0  1  0  0  0  0  0  0  0  0  0
   12.5723  -15.7265   22.5233 C   0  0  0  0  0  0  0  0  0  0  0  0
   13.0108  -16.2919   21.2748 C   0  0  0  0  0  0  0  0  0  0  0  0
   13.1554  -17.5104   21.0845 O   0  0  0  0  0  0  0  0  0  0  0  0
   11.7942  -16.1633   24.7776 C   0  0  0  0  0  0  0  0  0  0  0  0
   12.2661  -15.0291   25.0056 O   0  0  0  0  0  0  0  0  0  0  0  0
   13.2879  -15.4086   20.2192 O   0  0  0  0  0  0  0  0  0  0  0  0
   11.4220  -16.9290   25.9157 N   0  0  0  0  0  0  0  0  0  0  0  0
   11.4009  -16.3073   27.2171 C   0  0  1  0  0  0  0  0  0  0  0  0
   10.4845  -15.0779   27.1992 C   0  0  0  0  0  0  0  0  0  0  0  0
   10.9234  -13.9384   28.5272 S   0  0  0  0  0  0  0  0  0  0  0  0
   11.0230  -17.2240   28.3074 C   0  0  0  0  0  0  0  0  0  0  0  0
   10.5390  -18.4936   28.1000 O   0  0  0  0  0  0  0  0  0  0  0  0
   11.1420  -16.8435   29.4972 O   0  0  0  0  0  0  0  0  0  0  0  0
  2  1  1  1
  2  3  1  0
  2 13  1  0
  3  4  1  0
  4 12  1  0
  5  4  2  0
  5  6  1  0
  6  7  1  0
  7  8  1  0
  8  9  2  0
 10  9  1  0
 11 10  2  0
 12  7  2  0
 12 11  1  0
 13 15  1  0
 13 14  2  0
 15 16  1  0
 16 20  1  0
 16 17  1  6
 17 18  1  0
 18 22  1  0
 19 18  2  0
 20 21  2  0
 23 20  1  0
 23 24  1  0
 24 27  1  0
 24 25  1  6
 26 25  1  0
 27 28  1  0
 29 27  2  0
M  END
$$$$
