WDC.pdb
     RDKit          3D

 29 30  0  0  1  0  0  0  0  0999 V2000
    7.1064  -17.3237   23.3841 N   0  0  0  0  0  0  0  0  0  0  0  0
    8.1499  -16.6162   22.7153 C   0  0  1  0  0  0  0  0  0  0  0  0
    8.0945  -15.1112   22.8935 C   0  0  0  0  0  0  0  0  0  0  0  0
    7.2763  -14.7366   24.0759 C   0  0  0  0  0  0  0  0  0  0  0  0
    6.5371  -15.5837   24.8962 C   0  0  0  0  0  0  0  0  0  0  0  0
    5.9152  -14.8550   25.8333 N   0  0  0  0  0  0  0  0  0  0  0  0
    6.2001  -13.5350   25.6874 C   0  0  0  0  0  0  0  0  0  0  0  0
    5.8262  -12.4045   26.3783 C   0  0  0  0  0  0  0  0  0  0  0  0
    6.2780  -11.1645   26.0123 C   0  0  0  0  0  0  0  0  0  0  0  0
    7.1217  -11.0688   24.9296 C   0  0  0  0  0  0  0  0  0  0  0  0
    7.4911  -12.2075   24.2429 C   0  0  0  0  0  0  0  0  0  0  0  0
    7.0534  -13.4749   24.5840 C   0  0  0  0  0  0  0  0  0  0  0  0
    9.5128  -17.1057   23.1353 C   0  0  0  0  0  0  0  0  0  0  0  0
   10.0306  -18.0273   22.4259 O   0  0  0  0  0  0  0  0  0  0  0  0
   10.2048  -16.5890   24.2492 N   0  0  0  0  0  0  0  0  0  0  0  0
   11.6503  -16.8812   24.3211 C   0  0  1  0  0  0  0  0  0  0  0  0
   12.2104  -16.1303   23.1121 C   0  0  0  0  0  0  0  0  0  0  0  0
   13.5541  -16.4684   22.7236 C   0  0  0  0  0  0  0  0  0  0  0  0
   14.0614  -17.5873   22.9037 O   0  0  0  0  0  0  0  0  0  0  0  0
   12.2299  -16.2718   25.5323 C   0  0  0  0  0  0  0  0  0  0  0  0
   13.4472  -16.4331   25.7630 O   0  0  0  0  0  0  0  0  0  0  0  0
   14.3264  -15.4708   22.1074 O   0  0  0  0  0  0  0  0  0  0  0  0
   11.5084  -15.4967   26.4805 N   0  0  0  0  0  0  0  0  0  0  0  0
   11.7384  -15.6999   27.8899 C   0  0  1  0  0  0  0  0  0  0  0  0
   11.0536  -14.5932   28.7009 C   0  0  0  0  0  0  0  0  0  0  0  0
    9.6111  -13.9606   27.8217 S   0  0  0  0  0  0  0  0  0  0  0  0
   11.3285  -17.0306   28.3729 C   0  0  0  0  0  0  0  0  0  0  0  0
   11.6886  -17.5391   29.5979 O   0  0  0  0  0  0  0  0  0  0  0  0
   10.6114  -17.7545   27.6404 O   0  0  0  0  0  0  0  0  0  0  0  0
  2  1  1  1
  2  3  1  0
  2 13  1  0
  3  4  1  0
  4 12  1  0
  5  4  2  0
  5  6  1  0
  6  7  1  0
  7  8  1  0
  8  9  2  0
 10  9  1  0
 11 10  2  0
 12  7  2  0
 12 11  1  0
 13 15  1  0
 13 14  2  0
 15 16  1  0
 16 20  1  0
 16 17  1  6
 17 18  1  0
 18 22  1  0
 19 18  2  0
 20 21  2  0
 23 20  1  0
 23 24  1  0
 24 27  1  0
 24 25  1  1
 26 25  1  0
 27 28  1  0
 29 27  2  0
M  END
$$$$
