WDC.pdb
     RDKit          3D

 29 30  0  0  1  0  0  0  0  0999 V2000
    6.7007  -17.2759   23.4261 N   0  0  0  0  0  0  0  0  0  0  0  0
    7.8543  -16.4357   23.4372 C   0  0  1  0  0  0  0  0  0  0  0  0
    8.2506  -15.9416   24.8152 C   0  0  0  0  0  0  0  0  0  0  0  0
    7.2022  -15.0640   25.3970 C   0  0  0  0  0  0  0  0  0  0  0  0
    5.9538  -15.4436   25.8810 C   0  0  0  0  0  0  0  0  0  0  0  0
    5.2920  -14.3531   26.2917 N   0  0  0  0  0  0  0  0  0  0  0  0
    6.0409  -13.2350   26.1077 C   0  0  0  0  0  0  0  0  0  0  0  0
    5.8260  -11.8996   26.3641 C   0  0  0  0  0  0  0  0  0  0  0  0
    6.7790  -10.9579   26.0801 C   0  0  0  0  0  0  0  0  0  0  0  0
    7.9680  -11.3760   25.5281 C   0  0  0  0  0  0  0  0  0  0  0  0
    8.1746  -12.7167   25.2744 C   0  0  0  0  0  0  0  0  0  0  0  0
    7.2344  -13.6943   25.5474 C   0  0  0  0  0  0  0  0  0  0  0  0
    9.0428  -17.1129   22.8031 C   0  0  0  0  0  0  0  0  0  0  0  0
    9.0788  -18.3836   22.8732 O   0  0  0  0  0  0  0  0  0  0  0  0
   10.0759  -16.4046   22.1570 N   0  0  0  0  0  0  0  0  0  0  0  0
   11.3621  -17.1123   21.9993 C   0  0  1  0  0  0  0  0  0  0  0  0
   12.1525  -16.1819   21.0780 C   0  0  0  0  0  0  0  0  0  0  0  0
   11.8133  -16.2368   19.6806 C   0  0  0  0  0  0  0  0  0  0  0  0
   11.3501  -17.2455   19.1241 O   0  0  0  0  0  0  0  0  0  0  0  0
   12.0706  -17.1678   23.2914 C   0  0  0  0  0  0  0  0  0  0  0  0
   12.5679  -16.1173   23.7501 O   0  0  0  0  0  0  0  0  0  0  0  0
   12.0215  -15.0804   18.9120 O   0  0  0  0  0  0  0  0  0  0  0  0
   12.2385  -18.3385   24.0798 N   0  0  0  0  0  0  0  0  0  0  0  0
   12.9209  -18.2520   25.3476 C   0  0  1  0  0  0  0  0  0  0  0  0
   12.2389  -17.2111   26.2436 C   0  0  0  0  0  0  0  0  0  0  0  0
   10.6103  -17.7881   26.7623 S   0  0  0  0  0  0  0  0  0  0  0  0
   13.0413  -19.5438   26.0467 C   0  0  0  0  0  0  0  0  0  0  0  0
   13.7886  -19.7252   27.1860 O   0  0  0  0  0  0  0  0  0  0  0  0
   12.4363  -20.5451   25.5929 O   0  0  0  0  0  0  0  0  0  0  0  0
  2  1  1  1
  2  3  1  0
  2 13  1  0
  3  4  1  0
  4 12  1  0
  5  4  2  0
  5  6  1  0
  6  7  1  0
  7  8  1  0
  8  9  2  0
 10  9  1  0
 11 10  2  0
 12  7  2  0
 12 11  1  0
 13 15  1  0
 13 14  2  0
 15 16  1  0
 16 20  1  0
 16 17  1  6
 17 18  1  0
 18 22  1  0
 19 18  2  0
 20 21  2  0
 23 20  1  0
 23 24  1  0
 24 27  1  0
 24 25  1  1
 26 25  1  0
 27 28  1  0
 29 27  2  0
M  END
$$$$
