WDC.pdb
     RDKit          3D

 29 30  0  0  1  0  0  0  0  0999 V2000
    6.9795  -17.1983   23.6691 N   0  0  0  0  0  0  0  0  0  0  0  0
    8.1493  -16.3849   23.7510 C   0  0  1  0  0  0  0  0  0  0  0  0
    8.4265  -15.8315   25.1356 C   0  0  0  0  0  0  0  0  0  0  0  0
    7.3007  -14.9893   25.6164 C   0  0  0  0  0  0  0  0  0  0  0  0
    6.0427  -15.4152   26.0318 C   0  0  0  0  0  0  0  0  0  0  0  0
    5.3033  -14.3466   26.3593 N   0  0  0  0  0  0  0  0  0  0  0  0
    6.0082  -13.1988   26.1843 C   0  0  0  0  0  0  0  0  0  0  0  0
    5.7127  -11.8683   26.3781 C   0  0  0  0  0  0  0  0  0  0  0  0
    6.6361  -10.8895   26.1228 C   0  0  0  0  0  0  0  0  0  0  0  0
    7.8779  -11.2650   25.6644 C   0  0  0  0  0  0  0  0  0  0  0  0
    8.1652  -12.6013   25.4729 C   0  0  0  0  0  0  0  0  0  0  0  0
    7.2570  -13.6155   25.7193 C   0  0  0  0  0  0  0  0  0  0  0  0
    9.3737  -17.1197   23.2671 C   0  0  0  0  0  0  0  0  0  0  0  0
    9.4209  -18.3688   23.5083 O   0  0  0  0  0  0  0  0  0  0  0  0
   10.4278  -16.4858   22.5788 N   0  0  0  0  0  0  0  0  0  0  0  0
   11.7380  -17.1659   22.6088 C   0  0  1  0  0  0  0  0  0  0  0  0
   12.6633  -16.1532   21.9323 C   0  0  0  0  0  0  0  0  0  0  0  0
   12.7027  -16.1933   20.4944 C   0  0  0  0  0  0  0  0  0  0  0  0
   12.9987  -15.2168   19.7869 O   0  0  0  0  0  0  0  0  0  0  0  0
   12.1936  -17.3251   24.0022 C   0  0  0  0  0  0  0  0  0  0  0  0
   12.5126  -16.3059   24.6506 O   0  0  0  0  0  0  0  0  0  0  0  0
   12.3872  -17.4085   19.8660 O   0  0  0  0  0  0  0  0  0  0  0  0
   12.3011  -18.5652   24.6884 N   0  0  0  0  0  0  0  0  0  0  0  0
   12.9362  -18.6106   25.9827 C   0  0  1  0  0  0  0  0  0  0  0  0
   11.8850  -18.8236   27.0786 C   0  0  0  0  0  0  0  0  0  0  0  0
   10.2597  -18.2807   26.5147 S   0  0  0  0  0  0  0  0  0  0  0  0
   14.0070  -19.6182   26.0839 C   0  0  0  0  0  0  0  0  0  0  0  0
   14.7736  -19.8027   27.2096 O   0  0  0  0  0  0  0  0  0  0  0  0
   14.2478  -20.3578   25.0991 O   0  0  0  0  0  0  0  0  0  0  0  0
  2  1  1  1
  2  3  1  0
  2 13  1  0
  3  4  1  0
  4 12  1  0
  5  4  2  0
  5  6  1  0
  6  7  1  0
  7  8  1  0
  8  9  2  0
 10  9  1  0
 11 10  2  0
 12  7  2  0
 12 11  1  0
 13 15  1  0
 13 14  2  0
 15 16  1  0
 16 20  1  0
 16 17  1  6
 17 18  1  0
 18 22  1  0
 19 18  2  0
 20 21  2  0
 23 20  1  0
 23 24  1  0
 24 27  1  0
 24 25  1  1
 26 25  1  0
 27 28  1  0
 29 27  2  0
M  END
$$$$
