WDC.pdb
     RDKit          3D

 29 30  0  0  1  0  0  0  0  0999 V2000
    6.6773  -17.5268   23.9210 N   0  0  0  0  0  0  0  0  0  0  0  0
    7.7609  -16.6608   23.5853 C   0  0  1  0  0  0  0  0  0  0  0  0
    8.3244  -15.8852   24.7605 C   0  0  0  0  0  0  0  0  0  0  0  0
    7.2932  -15.0091   25.3744 C   0  0  0  0  0  0  0  0  0  0  0  0
    6.0269  -15.3764   25.8195 C   0  0  0  0  0  0  0  0  0  0  0  0
    5.3909  -14.2901   26.2794 N   0  0  0  0  0  0  0  0  0  0  0  0
    6.1750  -13.1868   26.1668 C   0  0  0  0  0  0  0  0  0  0  0  0
    5.9953  -11.8613   26.4921 C   0  0  0  0  0  0  0  0  0  0  0  0
    6.9798  -10.9347   26.2729 C   0  0  0  0  0  0  0  0  0  0  0  0
    8.1645  -11.3581   25.7157 C   0  0  0  0  0  0  0  0  0  0  0  0
    8.3357  -12.6889   25.3926 C   0  0  0  0  0  0  0  0  0  0  0  0
    7.3632  -13.6510   25.5991 C   0  0  0  0  0  0  0  0  0  0  0  0
    8.8842  -17.4089   22.9131 C   0  0  0  0  0  0  0  0  0  0  0  0
    8.9524  -18.6596   23.1411 O   0  0  0  0  0  0  0  0  0  0  0  0
    9.8250  -16.7855   22.0687 N   0  0  0  0  0  0  0  0  0  0  0  0
   11.1639  -17.4043   22.0029 C   0  0  1  0  0  0  0  0  0  0  0  0
   11.9386  -16.4453   21.0977 C   0  0  0  0  0  0  0  0  0  0  0  0
   12.2307  -16.9227   19.7720 C   0  0  0  0  0  0  0  0  0  0  0  0
   11.9107  -16.3167   18.7366 O   0  0  0  0  0  0  0  0  0  0  0  0
   11.8006  -17.3749   23.3327 C   0  0  0  0  0  0  0  0  0  0  0  0
   12.4622  -16.3669   23.6604 O   0  0  0  0  0  0  0  0  0  0  0  0
   12.9157  -18.1425   19.6532 O   0  0  0  0  0  0  0  0  0  0  0  0
   11.7231  -18.4160   24.2972 N   0  0  0  0  0  0  0  0  0  0  0  0
   12.4981  -18.3228   25.5102 C   0  0  1  0  0  0  0  0  0  0  0  0
   11.7018  -17.5785   26.5887 C   0  0  0  0  0  0  0  0  0  0  0  0
   10.1823  -18.4668   26.9839 S   0  0  0  0  0  0  0  0  0  0  0  0
   12.9700  -19.6245   26.0150 C   0  0  0  0  0  0  0  0  0  0  0  0
   12.5866  -20.8316   25.4810 O   0  0  0  0  0  0  0  0  0  0  0  0
   13.7657  -19.6540   26.9850 O   0  0  0  0  0  0  0  0  0  0  0  0
  2  1  1  1
  2  3  1  0
  2 13  1  0
  3  4  1  0
  4 12  1  0
  5  4  2  0
  5  6  1  0
  6  7  1  0
  7  8  1  0
  8  9  2  0
 10  9  1  0
 11 10  2  0
 12  7  2  0
 12 11  1  0
 13 15  1  0
 13 14  2  0
 15 16  1  0
 16 20  1  0
 16 17  1  6
 17 18  1  0
 18 22  1  0
 19 18  2  0
 20 21  2  0
 23 20  1  0
 23 24  1  0
 24 27  1  0
 24 25  1  1
 26 25  1  0
 27 28  1  0
 29 27  2  0
M  END
$$$$
