WDC.pdb
     RDKit          3D

 29 30  0  0  1  0  0  0  0  0999 V2000
    7.0979  -17.4294   24.0421 N   0  0  0  0  0  0  0  0  0  0  0  0
    8.1565  -16.4763   24.1306 C   0  0  1  0  0  0  0  0  0  0  0  0
    8.3197  -15.8537   25.5038 C   0  0  0  0  0  0  0  0  0  0  0  0
    7.1636  -14.9846   25.8442 C   0  0  0  0  0  0  0  0  0  0  0  0
    5.8943  -15.3854   26.2503 C   0  0  0  0  0  0  0  0  0  0  0  0
    5.1279  -14.3008   26.4301 N   0  0  0  0  0  0  0  0  0  0  0  0
    5.8250  -13.1663   26.1621 C   0  0  0  0  0  0  0  0  0  0  0  0
    5.5045  -11.8280   26.1994 C   0  0  0  0  0  0  0  0  0  0  0  0
    6.4255  -10.8663   25.8790 C   0  0  0  0  0  0  0  0  0  0  0  0
    7.6906  -11.2671   25.5156 C   0  0  0  0  0  0  0  0  0  0  0  0
    8.0029  -12.6109   25.4809 C   0  0  0  0  0  0  0  0  0  0  0  0
    7.0979  -13.6086   25.7969 C   0  0  0  0  0  0  0  0  0  0  0  0
    9.4762  -17.0685   23.7053 C   0  0  0  0  0  0  0  0  0  0  0  0
    9.6169  -18.3231   23.8693 O   0  0  0  0  0  0  0  0  0  0  0  0
   10.5193  -16.3003   23.1498 N   0  0  0  0  0  0  0  0  0  0  0  0
   11.8350  -16.9604   23.0345 C   0  0  1  0  0  0  0  0  0  0  0  0
   12.5762  -16.0709   22.0352 C   0  0  0  0  0  0  0  0  0  0  0  0
   13.8464  -16.5624   21.5706 C   0  0  0  0  0  0  0  0  0  0  0  0
   14.3481  -17.6345   21.9457 O   0  0  0  0  0  0  0  0  0  0  0  0
   12.5542  -16.8828   24.3195 C   0  0  0  0  0  0  0  0  0  0  0  0
   13.0646  -15.7939   24.6581 O   0  0  0  0  0  0  0  0  0  0  0  0
   14.5497  -15.7791   20.6417 O   0  0  0  0  0  0  0  0  0  0  0  0
   12.7185  -17.9630   25.2286 N   0  0  0  0  0  0  0  0  0  0  0  0
   12.6397  -17.7183   26.6479 C   0  0  1  0  0  0  0  0  0  0  0  0
   11.3476  -16.9631   26.9817 C   0  0  0  0  0  0  0  0  0  0  0  0
   11.7208  -15.3388   27.6722 S   0  0  0  0  0  0  0  0  0  0  0  0
   12.7588  -18.9368   27.4683 C   0  0  0  0  0  0  0  0  0  0  0  0
   13.2321  -18.9416   28.7586 O   0  0  0  0  0  0  0  0  0  0  0  0
   12.4147  -20.0405   26.9802 O   0  0  0  0  0  0  0  0  0  0  0  0
  2  1  1  1
  2  3  1  0
  2 13  1  0
  3  4  1  0
  4 12  1  0
  5  4  2  0
  5  6  1  0
  6  7  1  0
  7  8  1  0
  8  9  2  0
 10  9  1  0
 11 10  2  0
 12  7  2  0
 12 11  1  0
 13 15  1  0
 13 14  2  0
 15 16  1  0
 16 20  1  0
 16 17  1  6
 17 18  1  0
 18 22  1  0
 19 18  2  0
 20 21  2  0
 23 20  1  0
 23 24  1  0
 24 27  1  0
 24 25  1  6
 26 25  1  0
 27 28  1  0
 29 27  2  0
M  END
$$$$
