WDC.pdb
     RDKit          3D

 29 30  0  0  1  0  0  0  0  0999 V2000
    7.3028  -17.2690   24.0114 N   0  0  0  0  0  0  0  0  0  0  0  0
    8.3528  -16.3025   24.0061 C   0  0  1  0  0  0  0  0  0  0  0  0
    8.5324  -15.5718   25.3229 C   0  0  0  0  0  0  0  0  0  0  0  0
    7.2923  -14.8541   25.7164 C   0  0  0  0  0  0  0  0  0  0  0  0
    6.0861  -15.4124   26.1284 C   0  0  0  0  0  0  0  0  0  0  0  0
    5.2050  -14.4302   26.3631 N   0  0  0  0  0  0  0  0  0  0  0  0
    5.7623  -13.2142   26.1272 C   0  0  0  0  0  0  0  0  0  0  0  0
    5.2922  -11.9238   26.2215 C   0  0  0  0  0  0  0  0  0  0  0  0
    6.0905  -10.8517   25.9228 C   0  0  0  0  0  0  0  0  0  0  0  0
    7.3849  -11.0912   25.5224 C   0  0  0  0  0  0  0  0  0  0  0  0
    7.8475  -12.3882   25.4305 C   0  0  0  0  0  0  0  0  0  0  0  0
    7.0692  -13.4939   25.7234 C   0  0  0  0  0  0  0  0  0  0  0  0
    9.6714  -16.9146   23.6060 C   0  0  0  0  0  0  0  0  0  0  0  0
    9.7775  -18.1762   23.7392 O   0  0  0  0  0  0  0  0  0  0  0  0
   10.7493  -16.1570   23.1051 N   0  0  0  0  0  0  0  0  0  0  0  0
   12.0414  -16.8585   22.9693 C   0  0  1  0  0  0  0  0  0  0  0  0
   12.7831  -16.0097   21.9355 C   0  0  0  0  0  0  0  0  0  0  0  0
   14.0358  -16.5378   21.4639 C   0  0  0  0  0  0  0  0  0  0  0  0
   14.5120  -17.6204   21.8419 O   0  0  0  0  0  0  0  0  0  0  0  0
   12.7950  -16.7799   24.2343 C   0  0  0  0  0  0  0  0  0  0  0  0
   13.6119  -15.8476   24.3907 O   0  0  0  0  0  0  0  0  0  0  0  0
   14.7521  -15.7794   20.5242 O   0  0  0  0  0  0  0  0  0  0  0  0
   12.6680  -17.6918   25.3172 N   0  0  0  0  0  0  0  0  0  0  0  0
   12.4686  -17.1875   26.6538 C   0  0  1  0  0  0  0  0  0  0  0  0
   11.3074  -16.1861   26.6718 C   0  0  0  0  0  0  0  0  0  0  0  0
   11.5717  -14.9287   27.9380 S   0  0  0  0  0  0  0  0  0  0  0  0
   12.2635  -18.2425   27.6623 C   0  0  0  0  0  0  0  0  0  0  0  0
   11.3016  -19.2185   27.5569 O   0  0  0  0  0  0  0  0  0  0  0  0
   12.9969  -18.2684   28.6802 O   0  0  0  0  0  0  0  0  0  0  0  0
  2  1  1  1
  2  3  1  0
  2 13  1  0
  3  4  1  0
  4 12  1  0
  5  4  2  0
  5  6  1  0
  6  7  1  0
  7  8  1  0
  8  9  2  0
 10  9  1  0
 11 10  2  0
 12  7  2  0
 12 11  1  0
 13 15  1  0
 13 14  2  0
 15 16  1  0
 16 20  1  0
 16 17  1  6
 17 18  1  0
 18 22  1  0
 19 18  2  0
 20 21  2  0
 23 20  1  0
 23 24  1  0
 24 27  1  0
 24 25  1  6
 26 25  1  0
 27 28  1  0
 29 27  2  0
M  END
$$$$
