WDC.pdb
     RDKit          3D

 29 30  0  0  1  0  0  0  0  0999 V2000
    6.7826  -17.5859   24.3085 N   0  0  0  0  0  0  0  0  0  0  0  0
    7.8862  -16.6903   24.1795 C   0  0  1  0  0  0  0  0  0  0  0  0
    8.2479  -15.9605   25.4588 C   0  0  0  0  0  0  0  0  0  0  0  0
    7.2100  -14.9616   25.8232 C   0  0  0  0  0  0  0  0  0  0  0  0
    5.9330  -15.2100   26.3175 C   0  0  0  0  0  0  0  0  0  0  0  0
    5.2946  -14.0444   26.4901 N   0  0  0  0  0  0  0  0  0  0  0  0
    6.0873  -13.0012   26.1321 C   0  0  0  0  0  0  0  0  0  0  0  0
    5.9090  -11.6362   26.1260 C   0  0  0  0  0  0  0  0  0  0  0  0
    6.9031  -10.7903   25.7111 C   0  0  0  0  0  0  0  0  0  0  0  0
    8.0960  -11.3363   25.2961 C   0  0  0  0  0  0  0  0  0  0  0  0
    8.2656  -12.7059   25.3055 C   0  0  0  0  0  0  0  0  0  0  0  0
    7.2836  -13.5893   25.7169 C   0  0  0  0  0  0  0  0  0  0  0  0
    9.1141  -17.3912   23.6558 C   0  0  0  0  0  0  0  0  0  0  0  0
    9.2158  -18.6332   23.9165 O   0  0  0  0  0  0  0  0  0  0  0  0
   10.1148  -16.7343   22.9116 N   0  0  0  0  0  0  0  0  0  0  0  0
   11.4140  -17.4266   22.7985 C   0  0  1  0  0  0  0  0  0  0  0  0
   12.1696  -16.5694   21.7819 C   0  0  0  0  0  0  0  0  0  0  0  0
   11.9817  -16.9154   20.3978 C   0  0  0  0  0  0  0  0  0  0  0  0
   11.8083  -18.0776   19.9966 O   0  0  0  0  0  0  0  0  0  0  0  0
   12.1425  -17.3472   24.0780 C   0  0  0  0  0  0  0  0  0  0  0  0
   12.2175  -16.2440   24.6598 O   0  0  0  0  0  0  0  0  0  0  0  0
   11.9970  -15.8740   19.4563 O   0  0  0  0  0  0  0  0  0  0  0  0
   12.7791  -18.4420   24.7234 N   0  0  0  0  0  0  0  0  0  0  0  0
   12.9836  -18.4069   26.1508 C   0  0  1  0  0  0  0  0  0  0  0  0
   11.6655  -18.0831   26.8645 C   0  0  0  0  0  0  0  0  0  0  0  0
   11.9340  -17.8869   28.6375 S   0  0  0  0  0  0  0  0  0  0  0  0
   13.5832  -19.6381   26.6954 C   0  0  0  0  0  0  0  0  0  0  0  0
   14.2882  -19.6835   27.8744 O   0  0  0  0  0  0  0  0  0  0  0  0
   13.4544  -20.7143   26.0630 O   0  0  0  0  0  0  0  0  0  0  0  0
  2  1  1  1
  2  3  1  0
  2 13  1  0
  3  4  1  0
  4 12  1  0
  5  4  2  0
  5  6  1  0
  6  7  1  0
  7  8  1  0
  8  9  2  0
 10  9  1  0
 11 10  2  0
 12  7  2  0
 12 11  1  0
 13 15  1  0
 13 14  2  0
 15 16  1  0
 16 20  1  0
 16 17  1  6
 17 18  1  0
 18 22  1  0
 19 18  2  0
 20 21  2  0
 23 20  1  0
 23 24  1  0
 24 27  1  0
 24 25  1  1
 26 25  1  0
 27 28  1  0
 29 27  2  0
M  END
$$$$
