KPC.pdb
     RDKit          3D

 23 23  0  0  1  0  0  0  0  0999 V2000
   26.2372  -24.0322  -15.6474 N   0  0  0  0  0  0  0  0  0  0  0  0
   26.4006  -22.8108  -14.8121 C   0  0  1  0  0  0  0  0  0  0  0  0
   26.7136  -21.7182  -15.7510 C   0  0  0  0  0  0  0  0  0  0  0  0
   28.0221  -21.5815  -16.3929 C   0  0  0  0  0  0  0  0  0  0  0  0
   28.7217  -22.6842  -17.0507 C   0  0  0  0  0  0  0  0  0  0  0  0
   30.0400  -22.3943  -17.6633 C   0  0  0  0  0  0  0  0  0  0  0  0
   30.5855  -23.6580  -18.2627 N   0  0  0  0  0  0  0  0  0  0  0  0
   25.1434  -22.6222  -14.0848 C   0  0  0  0  0  0  0  0  0  0  0  0
   24.1270  -23.2648  -14.5102 O   0  0  0  0  0  0  0  0  0  0  0  0
   24.9978  -21.7814  -12.9583 N   0  0  0  0  0  0  0  0  0  0  0  0
   25.9676  -20.9260  -12.3711 C   0  0  0  0  0  0  0  0  0  0  0  0
   25.3798  -20.5365  -11.0186 C   0  0  0  0  0  0  0  0  0  0  0  0
   24.2662  -21.5574  -10.7968 C   0  0  0  0  0  0  0  0  0  0  0  0
   23.7665  -21.6467  -12.2251 C   0  0  1  0  0  0  0  0  0  0  0  0
   23.1251  -20.3758  -12.6498 C   0  0  0  0  0  0  0  0  0  0  0  0
   23.7919  -19.4597  -13.1716 O   0  0  0  0  0  0  0  0  0  0  0  0
   21.7281  -20.1819  -12.4664 N   0  0  0  0  0  0  0  0  0  0  0  0
   20.8291  -19.7541  -13.5052 C   0  0  1  0  0  0  0  0  0  0  0  0
   20.9187  -20.6943  -14.6720 C   0  0  0  0  0  0  0  0  0  0  0  0
   19.7674  -20.1499  -15.9453 S   0  0  0  0  0  0  0  0  0  0  0  0
   19.4332  -19.6569  -13.0161 C   0  0  0  0  0  0  0  0  0  0  0  0
   18.7366  -18.4765  -13.1573 O   0  0  0  0  0  0  0  0  0  0  0  0
   18.8932  -20.6540  -12.4746 O   0  0  0  0  0  0  0  0  0  0  0  0
  2  1  1  6
  3  2  1  0
  4  3  1  0
  5  6  1  0
  5  4  1  0
  7  6  1  0
  8 10  1  0
  8  2  1  0
  9  8  2  0
 10 11  1  0
 12 11  1  0
 13 14  1  0
 13 12  1  0
 14 10  1  0
 15 17  1  0
 14 15  1  6
 16 15  2  0
 18 17  1  0
 18 21  1  0
 18 19  1  6
 20 19  1  0
 21 22  1  0
 23 21  2  0
M  END
$$$$
