KPC.pdb
     RDKit          3D

 23 23  0  0  1  0  0  0  0  0999 V2000
   20.2855  -12.9852  -16.3434 N   0  0  0  0  0  0  0  0  0  0  0  0
   20.1090  -11.7282  -17.1213 C   0  0  1  0  0  0  0  0  0  0  0  0
   18.6893  -11.3591  -16.9757 C   0  0  0  0  0  0  0  0  0  0  0  0
   17.6120  -12.3503  -16.9889 C   0  0  0  0  0  0  0  0  0  0  0  0
   16.8821  -12.7705  -15.7935 C   0  0  0  0  0  0  0  0  0  0  0  0
   15.7632  -13.7263  -15.9714 C   0  0  0  0  0  0  0  0  0  0  0  0
   15.2410  -14.1197  -14.6201 N   0  0  0  0  0  0  0  0  0  0  0  0
   21.0356  -10.7450  -16.5557 C   0  0  0  0  0  0  0  0  0  0  0  0
   21.3967  -10.9201  -15.3450 O   0  0  0  0  0  0  0  0  0  0  0  0
   21.5413   -9.6325  -17.2655 N   0  0  0  0  0  0  0  0  0  0  0  0
   21.2254   -9.2176  -18.5865 C   0  0  0  0  0  0  0  0  0  0  0  0
   22.2940   -8.1884  -18.9406 C   0  0  0  0  0  0  0  0  0  0  0  0
   23.3799   -8.4136  -17.8911 C   0  0  0  0  0  0  0  0  0  0  0  0
   22.4793   -8.6958  -16.7048 C   0  0  1  0  0  0  0  0  0  0  0  0
   21.7213   -7.4821  -16.3056 C   0  0  0  0  0  0  0  0  0  0  0  0
   20.6238   -7.2056  -16.8301 O   0  0  0  0  0  0  0  0  0  0  0  0
   22.2398   -6.6085  -15.3102 N   0  0  0  0  0  0  0  0  0  0  0  0
   21.5165   -5.4939  -14.7581 C   0  0  1  0  0  0  0  0  0  0  0  0
   21.0483   -5.8299  -13.3719 C   0  0  0  0  0  0  0  0  0  0  0  0
   20.1547   -4.4166  -12.7031 S   0  0  0  0  0  0  0  0  0  0  0  0
   22.3362   -4.2589  -14.7497 C   0  0  0  0  0  0  0  0  0  0  0  0
   21.7647   -3.0530  -15.0928 O   0  0  0  0  0  0  0  0  0  0  0  0
   23.5497   -4.3200  -14.4290 O   0  0  0  0  0  0  0  0  0  0  0  0
  2  1  1  1
  3  2  1  0
  4  3  1  0
  5  6  1  0
  5  4  1  0
  7  6  1  0
  8 10  1  0
  8  2  1  0
  9  8  2  0
 10 11  1  0
 12 11  1  0
 13 14  1  0
 13 12  1  0
 14 10  1  0
 15 17  1  0
 14 15  1  6
 16 15  2  0
 18 17  1  0
 18 21  1  0
 18 19  1  1
 20 19  1  0
 21 22  1  0
 23 21  2  0
M  END
$$$$
