KPC.pdb
     RDKit          3D

 23 23  0  0  1  0  0  0  0  0999 V2000
   19.0882  -11.8638  -16.8240 N   0  0  0  0  0  0  0  0  0  0  0  0
   18.3454  -10.5840  -16.9867 C   0  0  1  0  0  0  0  0  0  0  0  0
   17.3644  -10.5438  -15.8871 C   0  0  0  0  0  0  0  0  0  0  0  0
   16.3154  -11.5527  -15.7296 C   0  0  0  0  0  0  0  0  0  0  0  0
   16.0415  -12.2481  -14.4727 C   0  0  0  0  0  0  0  0  0  0  0  0
   14.6620  -12.1779  -13.9346 C   0  0  0  0  0  0  0  0  0  0  0  0
   14.5766  -13.0339  -12.7043 N   0  0  0  0  0  0  0  0  0  0  0  0
   19.3370   -9.5074  -16.9328 C   0  0  0  0  0  0  0  0  0  0  0  0
   20.5207   -9.8283  -16.5822 O   0  0  0  0  0  0  0  0  0  0  0  0
   19.0583   -8.1569  -17.2417 N   0  0  0  0  0  0  0  0  0  0  0  0
   17.8219   -7.5867  -17.6456 C   0  0  0  0  0  0  0  0  0  0  0  0
   18.1805   -6.1965  -18.1606 C   0  0  0  0  0  0  0  0  0  0  0  0
   19.6920   -6.2623  -18.3671 C   0  0  0  0  0  0  0  0  0  0  0  0
   20.0393   -7.1070  -17.1573 C   0  0  1  0  0  0  0  0  0  0  0  0
   19.7960   -6.3623  -15.8950 C   0  0  0  0  0  0  0  0  0  0  0  0
   18.8726   -6.6878  -15.1220 O   0  0  0  0  0  0  0  0  0  0  0  0
   20.6194   -5.2567  -15.5450 N   0  0  0  0  0  0  0  0  0  0  0  0
   20.9258   -4.8747  -14.1921 C   0  0  1  0  0  0  0  0  0  0  0  0
   21.5171   -6.0424  -13.4571 C   0  0  0  0  0  0  0  0  0  0  0  0
   21.9394   -5.5220  -11.7855 S   0  0  0  0  0  0  0  0  0  0  0  0
   21.8398   -3.7086  -14.1458 C   0  0  0  0  0  0  0  0  0  0  0  0
   21.6437   -2.7191  -13.2070 O   0  0  0  0  0  0  0  0  0  0  0  0
   22.7895   -3.6299  -14.9648 O   0  0  0  0  0  0  0  0  0  0  0  0
  2  1  1  1
  3  2  1  0
  4  3  1  0
  5  6  1  0
  5  4  1  0
  7  6  1  0
  8 10  1  0
  8  2  1  0
  9  8  2  0
 10 11  1  0
 12 11  1  0
 13 14  1  0
 13 12  1  0
 14 10  1  0
 15 17  1  0
 14 15  1  1
 16 15  2  0
 18 17  1  0
 18 21  1  0
 18 19  1  6
 20 19  1  0
 21 22  1  0
 23 21  2  0
M  END
$$$$
