KPC.pdb
     RDKit          3D

 23 23  0  0  1  0  0  0  0  0999 V2000
   26.1208  -18.7513  -18.2037 N   0  0  0  0  0  0  0  0  0  0  0  0
   26.8095  -18.3717  -16.9396 C   0  0  1  0  0  0  0  0  0  0  0  0
   26.2660  -17.0540  -16.5635 C   0  0  0  0  0  0  0  0  0  0  0  0
   24.8307  -16.7658  -16.5585 C   0  0  0  0  0  0  0  0  0  0  0  0
   23.8511  -17.5394  -15.7970 C   0  0  0  0  0  0  0  0  0  0  0  0
   22.4263  -17.1459  -15.9096 C   0  0  0  0  0  0  0  0  0  0  0  0
   21.5961  -18.0864  -15.0851 N   0  0  0  0  0  0  0  0  0  0  0  0
   26.5233  -19.4280  -15.9662 C   0  0  0  0  0  0  0  0  0  0  0  0
   25.5427  -20.2019  -16.2240 O   0  0  0  0  0  0  0  0  0  0  0  0
   27.2606  -19.6319  -14.7780 N   0  0  0  0  0  0  0  0  0  0  0  0
   28.3163  -18.8394  -14.2540 C   0  0  0  0  0  0  0  0  0  0  0  0
   28.9480  -19.6988  -13.1636 C   0  0  0  0  0  0  0  0  0  0  0  0
   28.4158  -21.1011  -13.4496 C   0  0  0  0  0  0  0  0  0  0  0  0
   27.0099  -20.7182  -13.8675 C   0  0  1  0  0  0  0  0  0  0  0  0
   26.2377  -20.1761  -12.7200 C   0  0  0  0  0  0  0  0  0  0  0  0
   26.2149  -18.9525  -12.4783 O   0  0  0  0  0  0  0  0  0  0  0  0
   25.5057  -21.0517  -11.8713 N   0  0  0  0  0  0  0  0  0  0  0  0
   24.7702  -20.6236  -10.7111 C   0  0  1  0  0  0  0  0  0  0  0  0
   23.4057  -21.2494  -10.7164 C   0  0  0  0  0  0  0  0  0  0  0  0
   22.5465  -20.7803   -9.2048 S   0  0  0  0  0  0  0  0  0  0  0  0
   25.4901  -20.9462   -9.4562 C   0  0  0  0  0  0  0  0  0  0  0  0
   25.5931  -19.9993   -8.4605 O   0  0  0  0  0  0  0  0  0  0  0  0
   26.0030  -22.0839   -9.3083 O   0  0  0  0  0  0  0  0  0  0  0  0
  2  1  1  6
  3  2  1  0
  4  3  1  0
  5  6  1  0
  5  4  1  0
  7  6  1  0
  8 10  1  0
  8  2  1  0
  9  8  2  0
 10 11  1  0
 12 11  1  0
 13 14  1  0
 13 12  1  0
 14 10  1  0
 15 17  1  0
 14 15  1  1
 16 15  2  0
 18 17  1  0
 18 21  1  0
 18 19  1  1
 20 19  1  0
 21 22  1  0
 23 21  2  0
M  END
$$$$
