KPC.pdb
     RDKit          3D

 23 23  0  0  1  0  0  0  0  0999 V2000
   22.1956  -20.3517  -13.8267 N   0  0  0  0  0  0  0  0  0  0  0  0
   23.4646  -20.5481  -14.5800 C   0  0  1  0  0  0  0  0  0  0  0  0
   23.0958  -21.2701  -15.8112 C   0  0  0  0  0  0  0  0  0  0  0  0
   23.9970  -22.2182  -16.4687 C   0  0  0  0  0  0  0  0  0  0  0  0
   24.5755  -23.3833  -15.8009 C   0  0  0  0  0  0  0  0  0  0  0  0
   25.5680  -24.1857  -16.5549 C   0  0  0  0  0  0  0  0  0  0  0  0
   26.1800  -25.1963  -15.6287 N   0  0  0  0  0  0  0  0  0  0  0  0
   24.0255  -19.2170  -14.8218 C   0  0  0  0  0  0  0  0  0  0  0  0
   23.1969  -18.2605  -14.9816 O   0  0  0  0  0  0  0  0  0  0  0  0
   25.4097  -18.9400  -14.8873 N   0  0  0  0  0  0  0  0  0  0  0  0
   26.4937  -19.8274  -14.6537 C   0  0  0  0  0  0  0  0  0  0  0  0
   27.7185  -18.9267  -14.5302 C   0  0  0  0  0  0  0  0  0  0  0  0
   27.1281  -17.5356  -14.3108 C   0  0  0  0  0  0  0  0  0  0  0  0
   25.9431  -17.6529  -15.2487 C   0  0  1  0  0  0  0  0  0  0  0  0
   26.3851  -17.7290  -16.6651 C   0  0  0  0  0  0  0  0  0  0  0  0
   26.4409  -18.8209  -17.2655 O   0  0  0  0  0  0  0  0  0  0  0  0
   26.7548  -16.5472  -17.3648 N   0  0  0  0  0  0  0  0  0  0  0  0
   26.2056  -16.1565  -18.6360 C   0  0  1  0  0  0  0  0  0  0  0  0
   24.7140  -16.0277  -18.5258 C   0  0  0  0  0  0  0  0  0  0  0  0
   24.0591  -15.4921  -20.1156 S   0  0  0  0  0  0  0  0  0  0  0  0
   26.8061  -14.8935  -19.1274 C   0  0  0  0  0  0  0  0  0  0  0  0
   27.1762  -14.7779  -20.4496 O   0  0  0  0  0  0  0  0  0  0  0  0
   26.9741  -13.9345  -18.3330 O   0  0  0  0  0  0  0  0  0  0  0  0
  2  1  1  1
  3  2  1  0
  4  3  1  0
  5  6  1  0
  5  4  1  0
  7  6  1  0
  8 10  1  0
  8  2  1  0
  9  8  2  0
 10 11  1  0
 12 11  1  0
 13 14  1  0
 13 12  1  0
 14 10  1  0
 15 17  1  0
 14 15  1  6
 16 15  2  0
 18 17  1  0
 18 21  1  0
 18 19  1  1
 20 19  1  0
 21 22  1  0
 23 21  2  0
M  END
$$$$
