KPC.pdb
     RDKit          3D

 23 23  0  0  1  0  0  0  0  0999 V2000
   23.6961  -13.9538  -18.1239 N   0  0  0  0  0  0  0  0  0  0  0  0
   24.3810  -12.6826  -18.4858 C   0  0  1  0  0  0  0  0  0  0  0  0
   23.7402  -12.2184  -19.7297 C   0  0  0  0  0  0  0  0  0  0  0  0
   23.7097  -13.0271  -20.9497 C   0  0  0  0  0  0  0  0  0  0  0  0
   23.0597  -14.3338  -21.0401 C   0  0  0  0  0  0  0  0  0  0  0  0
   23.1005  -15.0332  -22.3465 C   0  0  0  0  0  0  0  0  0  0  0  0
   22.4555  -16.3805  -22.1964 N   0  0  0  0  0  0  0  0  0  0  0  0
   24.2058  -11.7686  -17.3549 C   0  0  0  0  0  0  0  0  0  0  0  0
   23.1938  -11.9652  -16.6038 O   0  0  0  0  0  0  0  0  0  0  0  0
   25.0807  -10.6997  -17.0566 N   0  0  0  0  0  0  0  0  0  0  0  0
   26.1808  -10.2274  -17.8207 C   0  0  0  0  0  0  0  0  0  0  0  0
   26.9475   -9.3064  -16.8770 C   0  0  0  0  0  0  0  0  0  0  0  0
   26.4028   -9.6635  -15.4959 C   0  0  0  0  0  0  0  0  0  0  0  0
   24.9528   -9.8760  -15.8832 C   0  0  1  0  0  0  0  0  0  0  0  0
   24.3146   -8.5993  -16.2953 C   0  0  0  0  0  0  0  0  0  0  0  0
   24.4173   -8.1746  -17.4637 O   0  0  0  0  0  0  0  0  0  0  0  0
   23.5699   -7.8344  -15.3555 N   0  0  0  0  0  0  0  0  0  0  0  0
   22.8145   -6.6566  -15.6910 C   0  0  1  0  0  0  0  0  0  0  0  0
   21.3524   -6.9917  -15.7498 C   0  0  0  0  0  0  0  0  0  0  0  0
   20.8664   -7.7437  -14.1873 S   0  0  0  0  0  0  0  0  0  0  0  0
   23.0618   -5.5551  -14.7303 C   0  0  0  0  0  0  0  0  0  0  0  0
   22.5133   -4.3113  -14.9556 O   0  0  0  0  0  0  0  0  0  0  0  0
   23.7717   -5.7634  -13.7146 O   0  0  0  0  0  0  0  0  0  0  0  0
  2  1  1  1
  3  2  1  0
  4  3  1  0
  5  6  1  0
  5  4  1  0
  7  6  1  0
  8 10  1  0
  8  2  1  0
  9  8  2  0
 10 11  1  0
 12 11  1  0
 13 14  1  0
 13 12  1  0
 14 10  1  0
 15 17  1  0
 14 15  1  6
 16 15  2  0
 18 17  1  0
 18 21  1  0
 18 19  1  1
 20 19  1  0
 21 22  1  0
 23 21  2  0
M  END
$$$$
