KPC.pdb
     RDKit          3D

 23 23  0  0  1  0  0  0  0  0999 V2000
   21.2928  -17.7211  -16.8795 N   0  0  0  0  0  0  0  0  0  0  0  0
   22.3357  -17.1770  -15.9672 C   0  0  1  0  0  0  0  0  0  0  0  0
   21.9598  -17.6219  -14.6130 C   0  0  0  0  0  0  0  0  0  0  0  0
   21.7747  -19.0331  -14.2702 C   0  0  0  0  0  0  0  0  0  0  0  0
   22.8732  -19.9922  -14.1627 C   0  0  0  0  0  0  0  0  0  0  0  0
   22.5372  -21.3814  -13.7695 C   0  0  0  0  0  0  0  0  0  0  0  0
   22.3449  -22.2043  -15.0103 N   0  0  0  0  0  0  0  0  0  0  0  0
   23.6212  -17.7072  -16.4272 C   0  0  0  0  0  0  0  0  0  0  0  0
   23.5853  -18.6175  -17.3200 O   0  0  0  0  0  0  0  0  0  0  0  0
   24.8763  -17.2734  -15.9437 N   0  0  0  0  0  0  0  0  0  0  0  0
   25.1444  -16.4305  -14.8326 C   0  0  0  0  0  0  0  0  0  0  0  0
   26.6094  -16.0342  -14.9853 C   0  0  0  0  0  0  0  0  0  0  0  0
   26.9352  -16.3914  -16.4337 C   0  0  0  0  0  0  0  0  0  0  0  0
   26.1301  -17.6723  -16.5273 C   0  0  1  0  0  0  0  0  0  0  0  0
   26.7106  -18.7352  -15.6669 C   0  0  0  0  0  0  0  0  0  0  0  0
   26.3932  -18.8370  -14.4648 O   0  0  0  0  0  0  0  0  0  0  0  0
   27.6457  -19.6618  -16.2052 N   0  0  0  0  0  0  0  0  0  0  0  0
   27.5647  -21.0871  -16.0255 C   0  0  1  0  0  0  0  0  0  0  0  0
   26.2834  -21.6005  -16.6157 C   0  0  0  0  0  0  0  0  0  0  0  0
   26.1775  -23.3735  -16.3187 S   0  0  0  0  0  0  0  0  0  0  0  0
   28.7313  -21.7815  -16.6206 C   0  0  0  0  0  0  0  0  0  0  0  0
   29.3949  -22.7504  -15.8998 O   0  0  0  0  0  0  0  0  0  0  0  0
   29.1082  -21.4813  -17.7811 O   0  0  0  0  0  0  0  0  0  0  0  0
  2  1  1  6
  3  2  1  0
  4  3  1  0
  5  6  1  0
  5  4  1  0
  7  6  1  0
  8 10  1  0
  8  2  1  0
  9  8  2  0
 10 11  1  0
 12 11  1  0
 13 14  1  0
 13 12  1  0
 14 10  1  0
 15 17  1  0
 14 15  1  1
 16 15  2  0
 18 17  1  0
 18 21  1  0
 18 19  1  6
 20 19  1  0
 21 22  1  0
 23 21  2  0
M  END
$$$$
