CYC.pdb
     RDKit          3D

 25 25  0  0  1  0  0  0  0  0999 V2000
   10.7831  -16.8147   18.6794 N   0  0  0  0  0  0  0  0  0  0  0  0
    9.5675  -17.1035   19.4165 C   0  0  1  0  0  0  0  0  0  0  0  0
    9.4400  -18.5833   19.6270 C   0  0  0  0  0  0  0  0  0  0  0  0
   10.2909  -19.1048   21.1120 S   0  0  0  0  0  0  0  0  0  0  0  0
    9.5564  -16.4272   20.7214 C   0  0  0  0  0  0  0  0  0  0  0  0
   10.6972  -16.1920   21.2481 O   0  0  0  0  0  0  0  0  0  0  0  0
    7.0012  -11.8529   27.7800 O   0  0  0  0  0  0  0  0  0  0  0  0
    7.0298  -12.5639   26.5775 C   0  0  0  0  0  0  0  0  0  0  0  0
    7.6577  -12.0100   25.4980 C   0  0  0  0  0  0  0  0  0  0  0  0
    7.6918  -12.7072   24.3002 C   0  0  0  0  0  0  0  0  0  0  0  0
    7.0986  -13.9446   24.2010 C   0  0  0  0  0  0  0  0  0  0  0  0
    7.1073  -14.7108   22.9584 C   0  0  0  0  0  0  0  0  0  0  0  0
    8.4292  -15.2945   22.5821 C   0  0  2  0  0  0  0  0  0  0  0  0
    8.3657  -16.0543   21.3680 N   0  0  0  0  0  0  0  0  0  0  0  0
    8.8184  -16.2704   23.6688 C   0  0  0  0  0  0  0  0  0  0  0  0
    8.3327  -17.4249   23.7176 O   0  0  0  0  0  0  0  0  0  0  0  0
    6.4750  -14.4704   25.3116 C   0  0  0  0  0  0  0  0  0  0  0  0
    6.4331  -13.7907   26.5063 C   0  0  0  0  0  0  0  0  0  0  0  0
    9.7502  -15.9142   24.6756 N   0  0  0  0  0  0  0  0  0  0  0  0
   10.2235  -16.8081   25.6857 C   0  0  1  0  0  0  0  0  0  0  0  0
   11.7102  -17.0325   25.6556 C   0  0  0  0  0  0  0  0  0  0  0  0
   12.1344  -18.1478   27.0263 S   0  0  0  0  0  0  0  0  0  0  0  0
    9.8420  -16.3543   27.0466 C   0  0  0  0  0  0  0  0  0  0  0  0
   10.0813  -17.1959   28.1387 O   0  0  0  0  0  0  0  0  0  0  0  0
    9.3168  -15.2499   27.2457 O   0  0  0  0  0  0  0  0  0  0  0  0
  2  1  1  1
  2  3  1  0
  3  4  1  0
  5  6  2  0
  5  2  1  0
  7  8  1  0
  8 18  2  0
  8  9  1  0
  9 10  2  0
 10 11  1  0
 11 12  1  0
 13 12  1  1
 13 15  1  0
 13 14  1  0
 14  5  1  0
 15 19  1  0
 16 15  2  0
 17 11  2  0
 18 17  1  0
 19 20  1  0
 20 23  1  0
 21 22  1  0
 20 21  1  1
 23 25  2  0
 23 24  1  0
M  END
$$$$
