CYC.pdb
     RDKit          3D

 25 25  0  0  1  0  0  0  0  0999 V2000
    7.6229  -20.9035   27.1818 N   0  0  0  0  0  0  0  0  0  0  0  0
    7.7830  -20.1165   25.9737 C   0  0  1  0  0  0  0  0  0  0  0  0
    6.7184  -20.4839   24.9829 C   0  0  0  0  0  0  0  0  0  0  0  0
    7.3741  -21.5150   23.6758 S   0  0  0  0  0  0  0  0  0  0  0  0
    7.7042  -18.6762   26.2558 C   0  0  0  0  0  0  0  0  0  0  0  0
    6.8076  -18.3099   27.0901 O   0  0  0  0  0  0  0  0  0  0  0  0
   11.7429  -16.3333   31.3959 O   0  0  0  0  0  0  0  0  0  0  0  0
   11.2398  -16.1676   30.1030 C   0  0  0  0  0  0  0  0  0  0  0  0
   10.5619  -15.0207   29.8004 C   0  0  0  0  0  0  0  0  0  0  0  0
   10.0586  -14.8463   28.5205 C   0  0  0  0  0  0  0  0  0  0  0  0
   10.2406  -15.8197   27.5653 C   0  0  0  0  0  0  0  0  0  0  0  0
    9.7240  -15.6790   26.2072 C   0  0  0  0  0  0  0  0  0  0  0  0
    8.4128  -16.3475   25.9547 C   0  0  2  0  0  0  0  0  0  0  0  0
    8.5594  -17.7405   25.6490 N   0  0  0  0  0  0  0  0  0  0  0  0
    7.8089  -15.7086   24.7251 C   0  0  0  0  0  0  0  0  0  0  0  0
    7.9321  -16.2261   23.5901 O   0  0  0  0  0  0  0  0  0  0  0  0
   10.9297  -16.9627   27.9083 C   0  0  0  0  0  0  0  0  0  0  0  0
   11.4347  -17.1496   29.1735 C   0  0  0  0  0  0  0  0  0  0  0  0
    7.0788  -14.4969   24.8113 N   0  0  0  0  0  0  0  0  0  0  0  0
    6.6114  -13.7577   23.6805 C   0  0  1  0  0  0  0  0  0  0  0  0
    5.9905  -12.4334   24.0300 C   0  0  0  0  0  0  0  0  0  0  0  0
    6.0684  -12.2391   25.8352 S   0  0  0  0  0  0  0  0  0  0  0  0
    7.6914  -13.5256   22.6887 C   0  0  0  0  0  0  0  0  0  0  0  0
    7.3560  -13.0696   21.4089 O   0  0  0  0  0  0  0  0  0  0  0  0
    8.8839  -13.7240   22.9602 O   0  0  0  0  0  0  0  0  0  0  0  0
  2  1  1  1
  2  3  1  0
  3  4  1  0
  5  6  2  0
  5  2  1  0
  7  8  1  0
  8 18  2  0
  8  9  1  0
  9 10  2  0
 10 11  1  0
 11 12  1  0
 13 12  1  6
 13 15  1  0
 13 14  1  0
 14  5  1  0
 15 19  1  0
 16 15  2  0
 17 11  2  0
 18 17  1  0
 19 20  1  0
 20 23  1  0
 21 22  1  0
 20 21  1  1
 23 25  2  0
 23 24  1  0
M  END
$$$$
