CYC.pdb
     RDKit          3D

 25 25  0  0  1  0  0  0  0  0999 V2000
    8.3041  -12.5615   19.5126 N   0  0  0  0  0  0  0  0  0  0  0  0
    7.6925  -13.7495   20.0775 C   0  0  1  0  0  0  0  0  0  0  0  0
    7.7549  -14.8737   19.0863 C   0  0  0  0  0  0  0  0  0  0  0  0
    6.9142  -16.3292   19.6997 S   0  0  0  0  0  0  0  0  0  0  0  0
    8.3637  -14.1617   21.3185 C   0  0  0  0  0  0  0  0  0  0  0  0
    9.6185  -13.9282   21.3890 O   0  0  0  0  0  0  0  0  0  0  0  0
    6.1553  -10.4046   27.1655 O   0  0  0  0  0  0  0  0  0  0  0  0
    6.4959  -11.6200   26.5663 C   0  0  0  0  0  0  0  0  0  0  0  0
    7.6961  -12.1948   26.8754 C   0  0  0  0  0  0  0  0  0  0  0  0
    8.0438  -13.4007   26.2864 C   0  0  0  0  0  0  0  0  0  0  0  0
    7.1876  -14.0113   25.3992 C   0  0  0  0  0  0  0  0  0  0  0  0
    7.5156  -15.2787   24.7532 C   0  0  0  0  0  0  0  0  0  0  0  0
    8.3989  -15.1698   23.5541 C   0  0  2  0  0  0  0  0  0  0  0  0
    7.6780  -14.7805   22.3776 N   0  0  0  0  0  0  0  0  0  0  0  0
    8.9506  -16.5485   23.2721 C   0  0  0  0  0  0  0  0  0  0  0  0
    8.4329  -17.2980   22.4111 O   0  0  0  0  0  0  0  0  0  0  0  0
    5.9859  -13.4008   25.1126 C   0  0  0  0  0  0  0  0  0  0  0  0
    5.6274  -12.2050   25.6890 C   0  0  0  0  0  0  0  0  0  0  0  0
   10.0774  -17.0455   23.9736 N   0  0  0  0  0  0  0  0  0  0  0  0
   11.0610  -17.9123   23.4039 C   0  0  1  0  0  0  0  0  0  0  0  0
   11.6479  -17.4072   22.1148 C   0  0  0  0  0  0  0  0  0  0  0  0
   12.8152  -18.6591   21.5043 S   0  0  0  0  0  0  0  0  0  0  0  0
   12.1699  -18.1866   24.3520 C   0  0  0  0  0  0  0  0  0  0  0  0
   12.5902  -17.1742   25.2218 O   0  0  0  0  0  0  0  0  0  0  0  0
   12.7362  -19.2877   24.3967 O   0  0  0  0  0  0  0  0  0  0  0  0
  2  1  1  6
  2  3  1  0
  3  4  1  0
  5  6  2  0
  5  2  1  0
  7  8  1  0
  8 18  2  0
  8  9  1  0
  9 10  2  0
 10 11  1  0
 11 12  1  0
 13 12  1  1
 13 15  1  0
 13 14  1  0
 14  5  1  0
 15 19  1  0
 16 15  2  0
 17 11  2  0
 18 17  1  0
 19 20  1  0
 20 23  1  0
 21 22  1  0
 20 21  1  6
 23 25  2  0
 23 24  1  0
M  END
$$$$
