CYC.pdb
     RDKit          3D

 25 25  0  0  1  0  0  0  0  0999 V2000
    6.8970  -16.9198   19.6089 N   0  0  0  0  0  0  0  0  0  0  0  0
    6.6680  -17.4928   20.9218 C   0  0  1  0  0  0  0  0  0  0  0  0
    6.9976  -18.9561   20.9023 C   0  0  0  0  0  0  0  0  0  0  0  0
    5.6471  -19.9182   20.2299 S   0  0  0  0  0  0  0  0  0  0  0  0
    7.4828  -16.8277   21.9485 C   0  0  0  0  0  0  0  0  0  0  0  0
    8.6306  -16.4057   21.5761 O   0  0  0  0  0  0  0  0  0  0  0  0
   10.3901  -13.6319   29.5996 O   0  0  0  0  0  0  0  0  0  0  0  0
    9.5869  -14.1211   28.5662 C   0  0  0  0  0  0  0  0  0  0  0  0
    9.0436  -13.2370   27.6776 C   0  0  0  0  0  0  0  0  0  0  0  0
    8.2451  -13.7118   26.6486 C   0  0  0  0  0  0  0  0  0  0  0  0
    8.0029  -15.0605   26.5247 C   0  0  0  0  0  0  0  0  0  0  0  0
    7.1652  -15.6028   25.4593 C   0  0  0  0  0  0  0  0  0  0  0  0
    7.8980  -16.0249   24.2286 C   0  0  2  0  0  0  0  0  0  0  0  0
    7.0392  -16.6583   23.2711 N   0  0  0  0  0  0  0  0  0  0  0  0
    8.9103  -17.0690   24.6407 C   0  0  0  0  0  0  0  0  0  0  0  0
    8.5633  -18.2350   24.9427 O   0  0  0  0  0  0  0  0  0  0  0  0
    8.5685  -15.9211   27.4403 C   0  0  0  0  0  0  0  0  0  0  0  0
    9.3626  -15.4649   28.4661 C   0  0  0  0  0  0  0  0  0  0  0  0
   10.2936  -16.7663   24.7008 N   0  0  0  0  0  0  0  0  0  0  0  0
   11.3281  -17.7483   24.7955 C   0  0  1  0  0  0  0  0  0  0  0  0
   12.3801  -17.6331   23.7270 C   0  0  0  0  0  0  0  0  0  0  0  0
   12.8986  -15.8936   23.6391 S   0  0  0  0  0  0  0  0  0  0  0  0
   11.9962  -17.7195   26.1208 C   0  0  0  0  0  0  0  0  0  0  0  0
   11.6438  -16.7261   27.0412 O   0  0  0  0  0  0  0  0  0  0  0  0
   12.8589  -18.5505   26.4378 O   0  0  0  0  0  0  0  0  0  0  0  0
  2  1  1  6
  2  3  1  0
  3  4  1  0
  5  6  2  0
  5  2  1  0
  7  8  1  0
  8 18  2  0
  8  9  1  0
  9 10  2  0
 10 11  1  0
 11 12  1  0
 13 12  1  1
 13 15  1  0
 13 14  1  0
 14  5  1  0
 15 19  1  0
 16 15  2  0
 17 11  2  0
 18 17  1  0
 19 20  1  0
 20 23  1  0
 21 22  1  0
 20 21  1  6
 23 25  2  0
 23 24  1  0
M  END
$$$$
