CYC.pdb
     RDKit          3D

 25 25  0  0  1  0  0  0  0  0999 V2000
    4.8328  -19.0813   20.2751 N   0  0  0  0  0  0  0  0  0  0  0  0
    4.6504  -18.1120   21.3389 C   0  0  1  0  0  0  0  0  0  0  0  0
    3.9006  -18.7404   22.4761 C   0  0  0  0  0  0  0  0  0  0  0  0
    2.1376  -18.7424   22.1705 S   0  0  0  0  0  0  0  0  0  0  0  0
    5.9392  -17.6052   21.8315 C   0  0  0  0  0  0  0  0  0  0  0  0
    6.8785  -18.4642   21.9501 O   0  0  0  0  0  0  0  0  0  0  0  0
    8.9412  -12.9397   17.0853 O   0  0  0  0  0  0  0  0  0  0  0  0
    8.6239  -13.2937   18.3992 C   0  0  0  0  0  0  0  0  0  0  0  0
    9.5847  -13.8762   19.1763 C   0  0  0  0  0  0  0  0  0  0  0  0
    9.2803  -14.2313   20.4813 C   0  0  0  0  0  0  0  0  0  0  0  0
    8.0223  -13.9988   20.9877 C   0  0  0  0  0  0  0  0  0  0  0  0
    7.6579  -14.3605   22.3542 C   0  0  0  0  0  0  0  0  0  0  0  0
    7.4403  -15.8192   22.5880 C   0  0  2  0  0  0  0  0  0  0  0  0
    6.1431  -16.2540   22.1594 N   0  0  0  0  0  0  0  0  0  0  0  0
    7.4891  -16.0502   24.0810 C   0  0  0  0  0  0  0  0  0  0  0  0
    6.5173  -15.7666   24.8201 O   0  0  0  0  0  0  0  0  0  0  0  0
    7.0799  -13.4092   20.1734 C   0  0  0  0  0  0  0  0  0  0  0  0
    7.3672  -13.0515   18.8771 C   0  0  0  0  0  0  0  0  0  0  0  0
    8.6396  -16.5978   24.7015 N   0  0  0  0  0  0  0  0  0  0  0  0
    8.6759  -17.0766   26.0480 C   0  0  1  0  0  0  0  0  0  0  0  0
    7.6577  -18.1426   26.3454 C   0  0  0  0  0  0  0  0  0  0  0  0
    7.8444  -18.6224   28.0882 S   0  0  0  0  0  0  0  0  0  0  0  0
   10.0192  -17.5916   26.4142 C   0  0  0  0  0  0  0  0  0  0  0  0
   11.0343  -17.5959   25.4510 O   0  0  0  0  0  0  0  0  0  0  0  0
   10.2697  -18.0190   27.5499 O   0  0  0  0  0  0  0  0  0  0  0  0
  2  1  1  6
  2  3  1  0
  3  4  1  0
  5  6  2  0
  5  2  1  0
  7  8  1  0
  8 18  2  0
  8  9  1  0
  9 10  2  0
 10 11  1  0
 11 12  1  0
 13 12  1  1
 13 15  1  0
 13 14  1  0
 14  5  1  0
 15 19  1  0
 16 15  2  0
 17 11  2  0
 18 17  1  0
 19 20  1  0
 20 23  1  0
 21 22  1  0
 20 21  1  6
 23 25  2  0
 23 24  1  0
M  END
$$$$
