LEL.pdb
     RDKit          3D

 26 25  0  0  1  0  0  0  0  0999 V2000
    7.0232  -12.2258   20.2175 C   0  0  0  0  0  0  0  0  0  0  0  0
    7.7065  -13.5331   19.9330 C   0  0  1  0  0  0  0  0  0  0  0  0
    8.9663  -13.3716   19.1225 C   0  0  0  0  0  0  0  0  0  0  0  0
    8.0168  -14.2350   21.2618 C   0  0  0  0  0  0  0  0  0  0  0  0
    8.6354  -15.5643   20.8979 C   0  0  2  0  0  0  0  0  0  0  0  0
    7.7333  -16.3628   20.1285 N   0  0  0  0  0  0  0  0  0  0  0  0
    9.1735  -16.2898   22.0581 C   0  0  0  0  0  0  0  0  0  0  0  0
    8.4933  -17.0204   22.8042 O   0  0  0  0  0  0  0  0  0  0  0  0
   10.5555  -16.1509   22.3491 N   0  0  0  0  0  0  0  0  0  0  0  0
   11.1973  -16.8432   23.4870 C   0  0  1  0  0  0  0  0  0  0  0  0
   12.6491  -16.9092   23.1445 C   0  0  0  0  0  0  0  0  0  0  0  0
   13.4618  -17.5784   24.1842 C   0  0  0  0  0  0  0  0  0  0  0  0
   14.9003  -17.6394   23.7073 C   0  0  0  0  0  0  0  0  0  0  0  0
   15.4418  -18.7502   23.5873 O   0  0  0  0  0  0  0  0  0  0  0  0
   10.9663  -16.0155   24.6744 C   0  0  0  0  0  0  0  0  0  0  0  0
   11.5971  -14.9393   24.8367 O   0  0  0  0  0  0  0  0  0  0  0  0
   15.6193  -16.4979   23.4049 O   0  0  0  0  0  0  0  0  0  0  0  0
    7.1747  -12.9686   26.4748 C   0  0  0  0  0  0  0  0  0  0  0  0
    8.5524  -13.5740   26.4200 C   0  0  1  0  0  0  0  0  0  0  0  0
    9.5076  -12.7274   27.2778 C   0  0  0  0  0  0  0  0  0  0  0  0
    8.6049  -14.9505   26.9616 C   0  0  0  0  0  0  0  0  0  0  0  0
    9.9280  -15.6445   26.9294 C   0  0  2  0  0  0  0  0  0  0  0  0
   10.0333  -16.3875   25.6625 N   0  0  0  0  0  0  0  0  0  0  0  0
   10.2476  -16.4943   28.0582 C   0  0  0  0  0  0  0  0  0  0  0  0
   10.3973  -16.0323   29.2080 O   0  0  0  0  0  0  0  0  0  0  0  0
   10.3977  -17.8652   27.8949 O   0  0  0  0  0  0  0  0  0  0  0  0
  2  1  1  1
  2  3  1  0
  4  5  1  0
  4  2  1  0
  5  6  1  1
  7  5  1  0
  8  7  2  0
  9  7  1  0
 10  9  1  0
 10 11  1  6
 11 12  1  0
 12 13  1  0
 13 14  2  0
 13 17  1  0
 15 16  2  0
 15 10  1  0
 19 18  1  1
 19 21  1  0
 20 19  1  0
 22 21  1  1
 22 23  1  0
 23 15  1  0
 24 22  1  0
 25 24  2  0
 26 24  1  0
M  END
$$$$
