LEL.pdb
     RDKit          3D

 26 25  0  0  1  0  0  0  0  0999 V2000
    7.3835  -12.0325   19.1170 C   0  0  0  0  0  0  0  0  0  0  0  0
    7.9818  -13.3999   18.9473 C   0  0  1  0  0  0  0  0  0  0  0  0
    9.3770  -13.3627   18.3796 C   0  0  0  0  0  0  0  0  0  0  0  0
    7.9797  -14.1188   20.3030 C   0  0  0  0  0  0  0  0  0  0  0  0
    8.4753  -15.5202   20.0339 C   0  0  2  0  0  0  0  0  0  0  0  0
    7.6303  -16.1990   19.1020 N   0  0  0  0  0  0  0  0  0  0  0  0
    8.6967  -16.3016   21.2596 C   0  0  0  0  0  0  0  0  0  0  0  0
    7.7838  -16.7943   21.9504 O   0  0  0  0  0  0  0  0  0  0  0  0
   10.0344  -16.5096   21.6853 N   0  0  0  0  0  0  0  0  0  0  0  0
   10.3626  -17.1836   22.9597 C   0  0  1  0  0  0  0  0  0  0  0  0
   11.7954  -17.5862   22.8387 C   0  0  0  0  0  0  0  0  0  0  0  0
   12.3339  -18.1966   24.0743 C   0  0  0  0  0  0  0  0  0  0  0  0
   13.7934  -18.5407   23.8462 C   0  0  0  0  0  0  0  0  0  0  0  0
   14.5597  -18.5647   24.8227 O   0  0  0  0  0  0  0  0  0  0  0  0
   10.1742  -16.1952   24.0254 C   0  0  0  0  0  0  0  0  0  0  0  0
   10.8436  -15.1301   24.0358 O   0  0  0  0  0  0  0  0  0  0  0  0
   14.2892  -18.8263   22.5876 O   0  0  0  0  0  0  0  0  0  0  0  0
    8.4787  -12.4331   26.9525 C   0  0  0  0  0  0  0  0  0  0  0  0
    7.4711  -13.5416   26.7986 C   0  0  1  0  0  0  0  0  0  0  0  0
    6.1410  -12.9467   26.3066 C   0  0  0  0  0  0  0  0  0  0  0  0
    7.8736  -14.5594   25.8022 C   0  0  0  0  0  0  0  0  0  0  0  0
    9.0637  -15.4010   26.1317 C   0  0  2  0  0  0  0  0  0  0  0  0
    9.2406  -16.3965   25.0612 N   0  0  0  0  0  0  0  0  0  0  0  0
    9.0766  -16.0322   27.4354 C   0  0  0  0  0  0  0  0  0  0  0  0
    9.3815  -15.4018   28.4687 O   0  0  0  0  0  0  0  0  0  0  0  0
    8.7450  -17.3732   27.5786 O   0  0  0  0  0  0  0  0  0  0  0  0
  2  1  1  1
  2  3  1  0
  4  5  1  0
  4  2  1  0
  5  6  1  6
  7  5  1  0
  8  7  2  0
  9  7  1  0
 10  9  1  0
 10 11  1  6
 11 12  1  0
 12 13  1  0
 13 14  2  0
 13 17  1  0
 15 16  2  0
 15 10  1  0
 19 18  1  6
 19 21  1  0
 20 19  1  0
 22 21  1  6
 22 23  1  0
 23 15  1  0
 24 22  1  0
 25 24  2  0
 26 24  1  0
M  END
$$$$
