LEL.pdb
     RDKit          3D

 26 25  0  0  1  0  0  0  0  0999 V2000
    7.2350  -12.1984   18.9105 C   0  0  0  0  0  0  0  0  0  0  0  0
    7.7017  -13.6243   18.8362 C   0  0  1  0  0  0  0  0  0  0  0  0
    9.0482  -13.7666   18.1755 C   0  0  0  0  0  0  0  0  0  0  0  0
    7.7412  -14.2123   20.2531 C   0  0  0  0  0  0  0  0  0  0  0  0
    8.0525  -15.6812   20.0876 C   0  0  2  0  0  0  0  0  0  0  0  0
    7.0466  -16.3407   19.3152 N   0  0  0  0  0  0  0  0  0  0  0  0
    8.3157  -16.3647   21.3626 C   0  0  0  0  0  0  0  0  0  0  0  0
    7.4321  -16.8703   22.0815 O   0  0  0  0  0  0  0  0  0  0  0  0
    9.6610  -16.4559   21.8050 N   0  0  0  0  0  0  0  0  0  0  0  0
   10.0212  -16.9922   23.1349 C   0  0  1  0  0  0  0  0  0  0  0  0
   11.3997  -17.5448   22.9805 C   0  0  0  0  0  0  0  0  0  0  0  0
   11.9522  -18.0892   24.2406 C   0  0  0  0  0  0  0  0  0  0  0  0
   13.3386  -18.6379   23.9623 C   0  0  0  0  0  0  0  0  0  0  0  0
   13.7354  -19.6149   24.6176 O   0  0  0  0  0  0  0  0  0  0  0  0
   10.0005  -15.8633   24.0695 C   0  0  0  0  0  0  0  0  0  0  0  0
   10.4351  -14.7355   23.7203 O   0  0  0  0  0  0  0  0  0  0  0  0
   14.1662  -18.0821   23.0045 O   0  0  0  0  0  0  0  0  0  0  0  0
    6.8952  -11.9177   26.1154 C   0  0  0  0  0  0  0  0  0  0  0  0
    8.0285  -12.7510   26.6529 C   0  0  1  0  0  0  0  0  0  0  0  0
    7.6639  -13.2453   28.0627 C   0  0  0  0  0  0  0  0  0  0  0  0
    8.3008  -13.9569   25.8390 C   0  0  0  0  0  0  0  0  0  0  0  0
    9.4177  -14.8426   26.2874 C   0  0  2  0  0  0  0  0  0  0  0  0
    9.4909  -15.9970   25.3762 N   0  0  0  0  0  0  0  0  0  0  0  0
    9.3953  -15.2729   27.6704 C   0  0  0  0  0  0  0  0  0  0  0  0
    9.9533  -14.6159   28.5731 O   0  0  0  0  0  0  0  0  0  0  0  0
    8.7436  -16.4424   28.0398 O   0  0  0  0  0  0  0  0  0  0  0  0
  2  1  1  1
  2  3  1  0
  4  5  1  0
  4  2  1  0
  5  6  1  1
  7  5  1  0
  8  7  2  0
  9  7  1  0
 10  9  1  0
 10 11  1  6
 11 12  1  0
 12 13  1  0
 13 14  2  0
 13 17  1  0
 15 16  2  0
 15 10  1  0
 19 18  1  6
 19 21  1  0
 20 19  1  0
 22 21  1  6
 22 23  1  0
 23 15  1  0
 24 22  1  0
 25 24  2  0
 26 24  1  0
M  END
$$$$
