LEL.pdb
     RDKit          3D

 26 25  0  0  1  0  0  0  0  0999 V2000
    7.0037  -12.1792   19.0250 C   0  0  0  0  0  0  0  0  0  0  0  0
    7.7709  -13.4649   18.9031 C   0  0  1  0  0  0  0  0  0  0  0  0
    9.2508  -13.2491   18.7198 C   0  0  0  0  0  0  0  0  0  0  0  0
    7.5101  -14.3232   20.1480 C   0  0  0  0  0  0  0  0  0  0  0  0
    8.3158  -15.5873   19.9606 C   0  0  2  0  0  0  0  0  0  0  0  0
    7.7070  -16.4527   18.9995 N   0  0  0  0  0  0  0  0  0  0  0  0
    8.6133  -16.2772   21.2246 C   0  0  0  0  0  0  0  0  0  0  0  0
    7.7867  -16.9578   21.8623 O   0  0  0  0  0  0  0  0  0  0  0  0
    9.9249  -16.1625   21.7542 N   0  0  0  0  0  0  0  0  0  0  0  0
   10.3288  -16.8210   23.0149 C   0  0  1  0  0  0  0  0  0  0  0  0
   11.7768  -17.1449   22.8479 C   0  0  0  0  0  0  0  0  0  0  0  0
   12.0092  -18.3958   22.0926 C   0  0  0  0  0  0  0  0  0  0  0  0
   13.5049  -18.5972   21.9411 C   0  0  0  0  0  0  0  0  0  0  0  0
   13.9400  -19.0477   20.8692 O   0  0  0  0  0  0  0  0  0  0  0  0
   10.1203  -15.8471   24.0901 C   0  0  0  0  0  0  0  0  0  0  0  0
   10.2602  -14.6157   23.8740 O   0  0  0  0  0  0  0  0  0  0  0  0
   14.3903  -18.2942   22.9588 O   0  0  0  0  0  0  0  0  0  0  0  0
    9.0799  -12.1785   27.0749 C   0  0  0  0  0  0  0  0  0  0  0  0
    8.0111  -13.2036   26.8020 C   0  0  1  0  0  0  0  0  0  0  0  0
    6.8202  -12.5165   26.1131 C   0  0  0  0  0  0  0  0  0  0  0  0
    8.4592  -14.2838   25.8946 C   0  0  0  0  0  0  0  0  0  0  0  0
    9.4513  -15.2607   26.4373 C   0  0  2  0  0  0  0  0  0  0  0  0
    9.7517  -16.2501   25.3889 N   0  0  0  0  0  0  0  0  0  0  0  0
    9.1106  -15.9130   27.6850 C   0  0  0  0  0  0  0  0  0  0  0  0
    8.4421  -16.9666   27.7156 O   0  0  0  0  0  0  0  0  0  0  0  0
    9.5229  -15.3814   28.9000 O   0  0  0  0  0  0  0  0  0  0  0  0
  2  1  1  1
  2  3  1  0
  4  5  1  0
  4  2  1  0
  5  6  1  6
  7  5  1  0
  8  7  2  0
  9  7  1  0
 10  9  1  0
 10 11  1  6
 11 12  1  0
 12 13  1  0
 13 14  2  0
 13 17  1  0
 15 16  2  0
 15 10  1  0
 19 18  1  6
 19 21  1  0
 20 19  1  0
 22 21  1  6
 22 23  1  0
 23 15  1  0
 24 22  1  0
 25 24  2  0
 26 24  1  0
M  END
$$$$
