LEL.pdb
     RDKit          3D

 26 25  0  0  1  0  0  0  0  0999 V2000
    7.5316  -11.7526   19.3720 C   0  0  0  0  0  0  0  0  0  0  0  0
    7.8260  -13.2234   19.2893 C   0  0  1  0  0  0  0  0  0  0  0  0
    9.1338  -13.5216   18.6032 C   0  0  0  0  0  0  0  0  0  0  0  0
    7.8229  -13.8146   20.7053 C   0  0  0  0  0  0  0  0  0  0  0  0
    7.9979  -15.3056   20.5362 C   0  0  2  0  0  0  0  0  0  0  0  0
    6.8974  -15.8797   19.8272 N   0  0  0  0  0  0  0  0  0  0  0  0
    8.2732  -16.0036   21.8008 C   0  0  0  0  0  0  0  0  0  0  0  0
    7.3963  -16.5155   22.5233 O   0  0  0  0  0  0  0  0  0  0  0  0
    9.6229  -16.1019   22.2280 N   0  0  0  0  0  0  0  0  0  0  0  0
   10.0164  -16.8564   23.4371 C   0  0  1  0  0  0  0  0  0  0  0  0
   11.3898  -17.3700   23.1555 C   0  0  0  0  0  0  0  0  0  0  0  0
   11.9226  -18.2278   24.2371 C   0  0  0  0  0  0  0  0  0  0  0  0
   13.2979  -18.7203   23.8292 C   0  0  0  0  0  0  0  0  0  0  0  0
   13.5267  -19.9403   23.8574 O   0  0  0  0  0  0  0  0  0  0  0  0
   10.0209  -15.9038   24.5510 C   0  0  0  0  0  0  0  0  0  0  0  0
   10.8464  -14.9550   24.5781 O   0  0  0  0  0  0  0  0  0  0  0  0
   14.2967  -17.8519   23.4295 O   0  0  0  0  0  0  0  0  0  0  0  0
    5.9249  -13.2966   26.0350 C   0  0  0  0  0  0  0  0  0  0  0  0
    7.3837  -13.6415   25.8918 C   0  0  1  0  0  0  0  0  0  0  0  0
    8.2082  -12.3434   25.8821 C   0  0  0  0  0  0  0  0  0  0  0  0
    7.8999  -14.4623   27.0102 C   0  0  0  0  0  0  0  0  0  0  0  0
    9.2126  -15.1458   26.8033 C   0  0  2  0  0  0  0  0  0  0  0  0
    9.1051  -16.0106   25.6164 N   0  0  0  0  0  0  0  0  0  0  0  0
    9.7537  -15.8762   27.9311 C   0  0  0  0  0  0  0  0  0  0  0  0
   10.0559  -15.3069   29.0001 O   0  0  0  0  0  0  0  0  0  0  0  0
    9.9541  -17.2486   27.8583 O   0  0  0  0  0  0  0  0  0  0  0  0
  2  1  1  1
  2  3  1  0
  4  5  1  0
  4  2  1  0
  5  6  1  1
  7  5  1  0
  8  7  2  0
  9  7  1  0
 10  9  1  0
 10 11  1  6
 11 12  1  0
 12 13  1  0
 13 14  2  0
 13 17  1  0
 15 16  2  0
 15 10  1  0
 19 18  1  1
 19 21  1  0
 20 19  1  0
 22 21  1  1
 22 23  1  0
 23 15  1  0
 24 22  1  0
 25 24  2  0
 26 24  1  0
M  END
$$$$
