LEL.pdb
     RDKit          3D

 26 25  0  0  1  0  0  0  0  0999 V2000
    7.2515  -12.6743   17.4982 C   0  0  0  0  0  0  0  0  0  0  0  0
    8.1863  -13.6156   18.2030 C   0  0  1  0  0  0  0  0  0  0  0  0
    9.3367  -12.9082   18.8711 C   0  0  0  0  0  0  0  0  0  0  0  0
    7.3932  -14.4296   19.2342 C   0  0  0  0  0  0  0  0  0  0  0  0
    8.4181  -15.1776   20.0540 C   0  0  2  0  0  0  0  0  0  0  0  0
    8.9315  -16.3043   19.3397 N   0  0  0  0  0  0  0  0  0  0  0  0
    7.9353  -15.5389   21.3951 C   0  0  0  0  0  0  0  0  0  0  0  0
    7.1526  -14.8415   22.0690 O   0  0  0  0  0  0  0  0  0  0  0  0
    8.3882  -16.7593   21.9605 N   0  0  0  0  0  0  0  0  0  0  0  0
    7.8868  -17.2642   23.2565 C   0  0  1  0  0  0  0  0  0  0  0  0
    8.4409  -18.6446   23.3864 C   0  0  0  0  0  0  0  0  0  0  0  0
    8.2144  -19.2385   24.7226 C   0  0  0  0  0  0  0  0  0  0  0  0
    7.0318  -20.1843   24.6361 C   0  0  0  0  0  0  0  0  0  0  0  0
    6.8811  -20.8571   23.6035 O   0  0  0  0  0  0  0  0  0  0  0  0
    8.4184  -16.3760   24.2942 C   0  0  0  0  0  0  0  0  0  0  0  0
    9.6415  -16.0829   24.3205 O   0  0  0  0  0  0  0  0  0  0  0  0
    6.1236  -20.3158   25.6701 O   0  0  0  0  0  0  0  0  0  0  0  0
    8.5970  -11.7352   26.6816 C   0  0  0  0  0  0  0  0  0  0  0  0
    7.4005  -12.5267   27.1393 C   0  0  1  0  0  0  0  0  0  0  0  0
    6.1619  -11.6152   27.1301 C   0  0  0  0  0  0  0  0  0  0  0  0
    7.0887  -13.6730   26.2564 C   0  0  0  0  0  0  0  0  0  0  0  0
    8.0861  -14.7847   26.2068 C   0  0  2  0  0  0  0  0  0  0  0  0
    7.5860  -15.8180   25.2846 N   0  0  0  0  0  0  0  0  0  0  0  0
    8.4800  -15.3659   27.4738 C   0  0  0  0  0  0  0  0  0  0  0  0
    7.9987  -16.4428   27.8819 O   0  0  0  0  0  0  0  0  0  0  0  0
    9.4173  -14.7368   28.2829 O   0  0  0  0  0  0  0  0  0  0  0  0
  2  1  1  1
  2  3  1  0
  4  5  1  0
  4  2  1  0
  5  6  1  6
  7  5  1  0
  8  7  2  0
  9  7  1  0
 10  9  1  0
 10 11  1  1
 11 12  1  0
 12 13  1  0
 13 14  2  0
 13 17  1  0
 15 16  2  0
 15 10  1  0
 19 18  1  6
 19 21  1  0
 20 19  1  0
 22 21  1  1
 22 23  1  0
 23 15  1  0
 24 22  1  0
 25 24  2  0
 26 24  1  0
M  END
$$$$
