LWM.pdb
     RDKit          3D

 31 32  0  0  1  0  0  0  0  0999 V2000
    7.9656  -12.4908   17.7738 C   0  0  0  0  0  0  0  0  0  0  0  0
    8.3031  -13.8570   18.2921 C   0  0  1  0  0  0  0  0  0  0  0  0
    7.7727  -14.8894   17.3328 C   0  0  0  0  0  0  0  0  0  0  0  0
    9.7595  -14.0346   18.5917 C   0  0  0  0  0  0  0  0  0  0  0  0
    9.9831  -15.3319   19.3082 C   0  0  2  0  0  0  0  0  0  0  0  0
    9.1993  -16.4048   18.7278 N   0  0  0  0  0  0  0  0  0  0  0  0
    9.8037  -15.2241   20.7645 C   0  0  0  0  0  0  0  0  0  0  0  0
   10.5240  -14.4022   21.3847 O   0  0  0  0  0  0  0  0  0  0  0  0
    8.8730  -15.9827   21.5252 N   0  0  0  0  0  0  0  0  0  0  0  0
    8.6352  -15.7380   22.9099 C   0  0  1  0  0  0  0  0  0  0  0  0
    7.1667  -15.9621   23.1891 C   0  0  0  0  0  0  0  0  0  0  0  0
    6.7906  -15.4628   24.5539 C   0  0  0  0  0  0  0  0  0  0  0  0
    6.3233  -16.1993   25.6227 C   0  0  0  0  0  0  0  0  0  0  0  0
    6.1017  -15.3802   26.6661 N   0  0  0  0  0  0  0  0  0  0  0  0
    6.4045  -14.1073   26.3391 C   0  0  0  0  0  0  0  0  0  0  0  0
    6.3533  -12.9205   27.0396 C   0  0  0  0  0  0  0  0  0  0  0  0
    6.7390  -11.7548   26.4160 C   0  0  0  0  0  0  0  0  0  0  0  0
    7.1681  -11.8195   25.0945 C   0  0  0  0  0  0  0  0  0  0  0  0
    7.2195  -13.0053   24.3933 C   0  0  0  0  0  0  0  0  0  0  0  0
    6.8351  -14.1621   25.0176 C   0  0  0  0  0  0  0  0  0  0  0  0
    9.5270  -16.4839   23.8105 C   0  0  0  0  0  0  0  0  0  0  0  0
   10.0860  -17.5553   23.3956 O   0  0  0  0  0  0  0  0  0  0  0  0
    9.5687  -13.4583   29.0527 C   0  0  0  0  0  0  0  0  0  0  0  0
   10.4534  -14.9802   29.5230 S   0  0  0  0  0  0  0  0  0  0  0  0
   10.2303  -16.1669   28.1479 C   0  0  0  0  0  0  0  0  0  0  0  0
   11.2906  -15.9057   27.1011 C   0  0  0  0  0  0  0  0  0  0  0  0
   10.9890  -16.6601   25.8200 C   0  0  2  0  0  0  0  0  0  0  0  0
    9.8316  -16.1049   25.1459 N   0  0  0  0  0  0  0  0  0  0  0  0
   10.6504  -18.0581   26.2000 C   0  0  0  0  0  0  0  0  0  0  0  0
   11.5957  -18.9301   26.7266 O   0  0  0  0  0  0  0  0  0  0  0  0
    9.4880  -18.5182   26.0620 O   0  0  0  0  0  0  0  0  0  0  0  0
  2  1  1  6
  2  3  1  0
  4  2  1  0
  5  4  1  0
  5  6  1  6
  7  8  2  0
  7  5  1  0
  9  7  1  0
 10  9  1  0
 10 11  1  1
 12 11  1  0
 12 13  2  0
 14 13  1  0
 15 20  2  0
 15 14  1  0
 16 15  1  0
 17 18  1  0
 17 16  2  0
 18 19  2  0
 19 20  1  0
 20 12  1  0
 21 10  1  0
 21 28  1  0
 22 21  2  0
 23 24  1  0
 25 24  1  0
 25 26  1  0
 27 26  1  1
 27 28  1  0
 27 29  1  0
 29 31  2  0
 29 30  1  0
M  END
$$$$
