LWM.pdb
     RDKit          3D

 31 32  0  0  1  0  0  0  0  0999 V2000
    9.3011  -24.6412   22.4397 C   0  0  0  0  0  0  0  0  0  0  0  0
    8.1985  -23.6476   22.6544 C   0  0  1  0  0  0  0  0  0  0  0  0
    7.6508  -23.8171   24.0467 C   0  0  0  0  0  0  0  0  0  0  0  0
    8.6046  -22.2374   22.3562 C   0  0  0  0  0  0  0  0  0  0  0  0
    7.4773  -21.3003   22.6681 C   0  0  2  0  0  0  0  0  0  0  0  0
    6.3568  -21.4942   21.7685 N   0  0  0  0  0  0  0  0  0  0  0  0
    7.9024  -19.8940   22.7473 C   0  0  0  0  0  0  0  0  0  0  0  0
    8.5753  -19.4303   21.7927 O   0  0  0  0  0  0  0  0  0  0  0  0
    7.6077  -19.0173   23.8266 N   0  0  0  0  0  0  0  0  0  0  0  0
    8.0053  -17.6478   23.8317 C   0  0  1  0  0  0  0  0  0  0  0  0
    6.7812  -16.7960   24.0779 C   0  0  0  0  0  0  0  0  0  0  0  0
    7.0898  -15.3374   23.9032 C   0  0  0  0  0  0  0  0  0  0  0  0
    7.7727  -14.7378   22.8653 C   0  0  0  0  0  0  0  0  0  0  0  0
    7.8386  -13.4120   23.0814 N   0  0  0  0  0  0  0  0  0  0  0  0
    7.2205  -13.0912   24.2365 C   0  0  0  0  0  0  0  0  0  0  0  0
    7.0155  -11.8946   24.8906 C   0  0  0  0  0  0  0  0  0  0  0  0
    6.3289  -11.8903   26.0844 C   0  0  0  0  0  0  0  0  0  0  0  0
    5.8655  -13.1011   26.5881 C   0  0  0  0  0  0  0  0  0  0  0  0
    6.0699  -14.2978   25.9350 C   0  0  0  0  0  0  0  0  0  0  0  0
    6.7532  -14.2974   24.7481 C   0  0  0  0  0  0  0  0  0  0  0  0
    9.1215  -17.3528   24.7426 C   0  0  0  0  0  0  0  0  0  0  0  0
    9.1376  -17.8777   25.9073 O   0  0  0  0  0  0  0  0  0  0  0  0
    9.6702  -13.0492   28.8620 C   0  0  0  0  0  0  0  0  0  0  0  0
   10.3527  -14.6903   29.2631 S   0  0  0  0  0  0  0  0  0  0  0  0
   11.3291  -15.2254   27.8108 C   0  0  0  0  0  0  0  0  0  0  0  0
   10.3807  -15.5531   26.6789 C   0  0  0  0  0  0  0  0  0  0  0  0
   11.1340  -16.0777   25.4711 C   0  0  2  0  0  0  0  0  0  0  0  0
   10.2203  -16.5071   24.4305 N   0  0  0  0  0  0  0  0  0  0  0  0
   11.8957  -17.2770   25.9126 C   0  0  0  0  0  0  0  0  0  0  0  0
   11.6324  -18.5456   25.4102 O   0  0  0  0  0  0  0  0  0  0  0  0
   12.8175  -17.1987   26.7646 O   0  0  0  0  0  0  0  0  0  0  0  0
  2  1  1  1
  2  3  1  0
  4  2  1  0
  5  4  1  0
  5  6  1  6
  7  8  2  0
  7  5  1  0
  9  7  1  0
 10  9  1  0
 10 11  1  1
 12 11  1  0
 12 13  2  0
 14 13  1  0
 15 20  2  0
 15 14  1  0
 16 15  1  0
 17 18  1  0
 17 16  2  0
 18 19  2  0
 19 20  1  0
 20 12  1  0
 21 10  1  0
 21 28  1  0
 22 21  2  0
 23 24  1  0
 25 24  1  0
 25 26  1  0
 27 26  1  1
 27 28  1  0
 27 29  1  0
 29 31  2  0
 29 30  1  0
M  END
$$$$
