LWM.pdb
     RDKit          3D

 31 32  0  0  1  0  0  0  0  0999 V2000
    7.2920  -12.5742   19.2065 C   0  0  0  0  0  0  0  0  0  0  0  0
    7.7738  -13.9505   19.5570 C   0  0  1  0  0  0  0  0  0  0  0  0
    8.3659  -14.5896   18.3289 C   0  0  0  0  0  0  0  0  0  0  0  0
    8.7038  -13.9722   20.7305 C   0  0  0  0  0  0  0  0  0  0  0  0
    9.0304  -15.3870   21.1023 C   0  0  2  0  0  0  0  0  0  0  0  0
    7.9368  -16.2870   20.7917 N   0  0  0  0  0  0  0  0  0  0  0  0
    9.4993  -15.5243   22.4900 C   0  0  0  0  0  0  0  0  0  0  0  0
   10.4344  -14.7756   22.8697 O   0  0  0  0  0  0  0  0  0  0  0  0
    8.9719  -16.4438   23.4369 N   0  0  0  0  0  0  0  0  0  0  0  0
    9.4557  -16.5268   24.7759 C   0  0  1  0  0  0  0  0  0  0  0  0
    8.2780  -16.7524   25.6961 C   0  0  0  0  0  0  0  0  0  0  0  0
    7.3775  -15.5519   25.7306 C   0  0  0  0  0  0  0  0  0  0  0  0
    6.0531  -15.4792   25.3512 C   0  0  0  0  0  0  0  0  0  0  0  0
    5.6047  -14.2247   25.5343 N   0  0  0  0  0  0  0  0  0  0  0  0
    6.5851  -13.4407   26.0275 C   0  0  0  0  0  0  0  0  0  0  0  0
    6.6337  -12.1084   26.3802 C   0  0  0  0  0  0  0  0  0  0  0  0
    7.8105  -11.5845   26.8672 C   0  0  0  0  0  0  0  0  0  0  0  0
    8.9125  -12.4250   26.9854 C   0  0  0  0  0  0  0  0  0  0  0  0
    8.8650  -13.7569   26.6331 C   0  0  0  0  0  0  0  0  0  0  0  0
    7.6925  -14.2735   26.1493 C   0  0  0  0  0  0  0  0  0  0  0  0
   10.5423  -17.5006   24.9596 C   0  0  0  0  0  0  0  0  0  0  0  0
   10.4098  -18.6845   24.4979 O   0  0  0  0  0  0  0  0  0  0  0  0
   16.9523  -17.1180   24.4807 C   0  0  0  0  0  0  0  0  0  0  0  0
   16.8514  -18.0749   26.0280 S   0  0  0  0  0  0  0  0  0  0  0  0
   15.1753  -18.8071   26.0877 C   0  0  0  0  0  0  0  0  0  0  0  0
   14.1581  -17.7202   25.8192 C   0  0  0  0  0  0  0  0  0  0  0  0
   12.7491  -18.2822   25.8115 C   0  0  2  0  0  0  0  0  0  0  0  0
   11.7675  -17.2312   25.6276 N   0  0  0  0  0  0  0  0  0  0  0  0
   12.5064  -18.8840   27.1504 C   0  0  0  0  0  0  0  0  0  0  0  0
   13.0310  -20.1192   27.5112 O   0  0  0  0  0  0  0  0  0  0  0  0
   11.8123  -18.3007   28.0220 O   0  0  0  0  0  0  0  0  0  0  0  0
  2  1  1  6
  2  3  1  0
  4  2  1  0
  5  4  1  0
  5  6  1  1
  7  8  2  0
  7  5  1  0
  9  7  1  0
 10  9  1  0
 10 11  1  1
 12 11  1  0
 12 13  2  0
 14 13  1  0
 15 20  2  0
 15 14  1  0
 16 15  1  0
 17 18  1  0
 17 16  2  0
 18 19  2  0
 19 20  1  0
 20 12  1  0
 21 10  1  0
 21 28  1  0
 22 21  2  0
 23 24  1  0
 25 24  1  0
 25 26  1  0
 27 26  1  1
 27 28  1  0
 27 29  1  0
 29 31  2  0
 29 30  1  0
M  END
$$$$
