LWM.pdb
     RDKit          3D

 31 32  0  0  1  0  0  0  0  0999 V2000
    7.0888  -12.0763   19.6417 C   0  0  0  0  0  0  0  0  0  0  0  0
    7.5242  -13.4976   19.8401 C   0  0  1  0  0  0  0  0  0  0  0  0
    8.4224  -13.8983   18.6999 C   0  0  0  0  0  0  0  0  0  0  0  0
    8.1403  -13.7472   21.1819 C   0  0  0  0  0  0  0  0  0  0  0  0
    8.4676  -15.2018   21.3354 C   0  0  2  0  0  0  0  0  0  0  0  0
    7.3199  -16.0407   21.0501 N   0  0  0  0  0  0  0  0  0  0  0  0
    9.0920  -15.5183   22.6294 C   0  0  0  0  0  0  0  0  0  0  0  0
   10.1210  -14.8755   22.9567 O   0  0  0  0  0  0  0  0  0  0  0  0
    8.6167  -16.5003   23.5405 N   0  0  0  0  0  0  0  0  0  0  0  0
    9.2580  -16.7633   24.7868 C   0  0  1  0  0  0  0  0  0  0  0  0
    8.1983  -16.8432   25.8616 C   0  0  0  0  0  0  0  0  0  0  0  0
    7.3168  -15.6282   25.8471 C   0  0  0  0  0  0  0  0  0  0  0  0
    5.9988  -15.5466   25.4478 C   0  0  0  0  0  0  0  0  0  0  0  0
    5.5683  -14.2800   25.5862 N   0  0  0  0  0  0  0  0  0  0  0  0
    6.5547  -13.4966   26.0682 C   0  0  0  0  0  0  0  0  0  0  0  0
    6.6202  -12.1549   26.3804 C   0  0  0  0  0  0  0  0  0  0  0  0
    7.7989  -11.6348   26.8669 C   0  0  0  0  0  0  0  0  0  0  0  0
    8.8855  -12.4884   27.0257 C   0  0  0  0  0  0  0  0  0  0  0  0
    8.8211  -13.8297   26.7139 C   0  0  0  0  0  0  0  0  0  0  0  0
    7.6469  -14.3426   26.2305 C   0  0  0  0  0  0  0  0  0  0  0  0
   10.1604  -17.9242   24.7614 C   0  0  0  0  0  0  0  0  0  0  0  0
   10.1180  -18.7316   23.7722 O   0  0  0  0  0  0  0  0  0  0  0  0
   15.4465  -15.9870   23.5512 C   0  0  0  0  0  0  0  0  0  0  0  0
   14.4101  -16.8588   22.3323 S   0  0  0  0  0  0  0  0  0  0  0  0
   13.5207  -18.1751   23.2408 C   0  0  0  0  0  0  0  0  0  0  0  0
   13.1974  -17.6754   24.6314 C   0  0  0  0  0  0  0  0  0  0  0  0
   12.4281  -18.7182   25.4202 C   0  0  2  0  0  0  0  0  0  0  0  0
   11.1071  -18.2369   25.7743 N   0  0  0  0  0  0  0  0  0  0  0  0
   13.1697  -18.9475   26.6895 C   0  0  0  0  0  0  0  0  0  0  0  0
   14.3474  -19.6837   26.7343 O   0  0  0  0  0  0  0  0  0  0  0  0
   12.7638  -18.4838   27.7859 O   0  0  0  0  0  0  0  0  0  0  0  0
  2  1  1  6
  2  3  1  0
  4  2  1  0
  5  4  1  0
  5  6  1  1
  7  8  2  0
  7  5  1  0
  9  7  1  0
 10  9  1  0
 10 11  1  1
 12 11  1  0
 12 13  2  0
 14 13  1  0
 15 20  2  0
 15 14  1  0
 16 15  1  0
 17 18  1  0
 17 16  2  0
 18 19  2  0
 19 20  1  0
 20 12  1  0
 21 10  1  0
 21 28  1  0
 22 21  2  0
 23 24  1  0
 25 24  1  0
 25 26  1  0
 27 26  1  6
 27 28  1  0
 27 29  1  0
 29 31  2  0
 29 30  1  0
M  END
$$$$
