LWM.pdb
     RDKit          3D

 31 32  0  0  1  0  0  0  0  0999 V2000
    7.7967  -13.1417   16.6363 C   0  0  0  0  0  0  0  0  0  0  0  0
    8.3972  -14.2949   17.3836 C   0  0  1  0  0  0  0  0  0  0  0  0
    9.5547  -14.8423   16.5913 C   0  0  0  0  0  0  0  0  0  0  0  0
    8.7653  -13.9593   18.7958 C   0  0  0  0  0  0  0  0  0  0  0  0
    9.3390  -15.1640   19.4784 C   0  0  2  0  0  0  0  0  0  0  0  0
    8.7362  -16.3904   18.9935 N   0  0  0  0  0  0  0  0  0  0  0  0
    9.3119  -15.0620   20.9459 C   0  0  0  0  0  0  0  0  0  0  0  0
    9.8208  -14.0407   21.4721 O   0  0  0  0  0  0  0  0  0  0  0  0
    8.7512  -16.0359   21.8162 N   0  0  0  0  0  0  0  0  0  0  0  0
    8.5505  -15.7953   23.2074 C   0  0  1  0  0  0  0  0  0  0  0  0
    7.2689  -16.4763   23.6298 C   0  0  0  0  0  0  0  0  0  0  0  0
    6.4516  -15.5900   24.5241 C   0  0  0  0  0  0  0  0  0  0  0  0
    5.2358  -15.8739   25.1109 C   0  0  0  0  0  0  0  0  0  0  0  0
    4.8335  -14.8166   25.8381 N   0  0  0  0  0  0  0  0  0  0  0  0
    5.7400  -13.8207   25.7637 C   0  0  0  0  0  0  0  0  0  0  0  0
    5.7951  -12.5583   26.3162 C   0  0  0  0  0  0  0  0  0  0  0  0
    6.8806  -11.7542   26.0481 C   0  0  0  0  0  0  0  0  0  0  0  0
    7.8863  -12.2495   25.2248 C   0  0  0  0  0  0  0  0  0  0  0  0
    7.8321  -13.5111   24.6720 C   0  0  0  0  0  0  0  0  0  0  0  0
    6.7508  -14.3073   24.9414 C   0  0  0  0  0  0  0  0  0  0  0  0
    9.7069  -16.1424   24.0470 C   0  0  0  0  0  0  0  0  0  0  0  0
   10.5758  -16.9701   23.6086 O   0  0  0  0  0  0  0  0  0  0  0  0
   10.3752  -14.6707   30.1986 C   0  0  0  0  0  0  0  0  0  0  0  0
   12.0207  -15.4437   30.0769 S   0  0  0  0  0  0  0  0  0  0  0  0
   12.1824  -16.0751   28.3669 C   0  0  0  0  0  0  0  0  0  0  0  0
   11.0389  -15.5347   27.5370 C   0  0  0  0  0  0  0  0  0  0  0  0
   11.0768  -16.0937   26.1273 C   0  0  2  0  0  0  0  0  0  0  0  0
    9.9506  -15.6206   25.3463 N   0  0  0  0  0  0  0  0  0  0  0  0
   10.9497  -17.5722   26.2349 C   0  0  0  0  0  0  0  0  0  0  0  0
   12.0588  -18.4090   26.2617 O   0  0  0  0  0  0  0  0  0  0  0  0
    9.8279  -18.1363   26.3071 O   0  0  0  0  0  0  0  0  0  0  0  0
  2  1  1  6
  2  3  1  0
  4  2  1  0
  5  4  1  0
  5  6  1  1
  7  8  2  0
  7  5  1  0
  9  7  1  0
 10  9  1  0
 10 11  1  1
 12 11  1  0
 12 13  2  0
 14 13  1  0
 15 20  2  0
 15 14  1  0
 16 15  1  0
 17 18  1  0
 17 16  2  0
 18 19  2  0
 19 20  1  0
 20 12  1  0
 21 10  1  0
 21 28  1  0
 22 21  2  0
 23 24  1  0
 25 24  1  0
 25 26  1  0
 27 26  1  1
 27 28  1  0
 27 29  1  0
 29 31  2  0
 29 30  1  0
M  END
$$$$
