LWM.pdb
     RDKit          3D

 31 32  0  0  1  0  0  0  0  0999 V2000
    7.9935  -12.2858   17.5923 C   0  0  0  0  0  0  0  0  0  0  0  0
    8.5070  -13.6116   18.0695 C   0  0  1  0  0  0  0  0  0  0  0  0
    9.3317  -14.2393   16.9772 C   0  0  0  0  0  0  0  0  0  0  0  0
    9.2353  -13.5303   19.3754 C   0  0  0  0  0  0  0  0  0  0  0  0
    9.5368  -14.9079   19.8832 C   0  0  2  0  0  0  0  0  0  0  0  0
    8.6707  -15.9015   19.2790 N   0  0  0  0  0  0  0  0  0  0  0  0
    9.5529  -14.9896   21.3521 C   0  0  0  0  0  0  0  0  0  0  0  0
   10.3509  -14.2427   21.9721 O   0  0  0  0  0  0  0  0  0  0  0  0
    8.7304  -15.8533   22.1252 N   0  0  0  0  0  0  0  0  0  0  0  0
    8.7013  -15.8107   23.5504 C   0  0  1  0  0  0  0  0  0  0  0  0
    7.4412  -16.4987   24.0231 C   0  0  0  0  0  0  0  0  0  0  0  0
    6.5925  -15.5733   24.8457 C   0  0  0  0  0  0  0  0  0  0  0  0
    5.3665  -15.8390   25.4197 C   0  0  0  0  0  0  0  0  0  0  0  0
    4.9346  -14.7470   26.0751 N   0  0  0  0  0  0  0  0  0  0  0  0
    5.8308  -13.7452   25.9643 C   0  0  0  0  0  0  0  0  0  0  0  0
    5.8579  -12.4525   26.4440 C   0  0  0  0  0  0  0  0  0  0  0  0
    6.9399  -11.6510   26.1550 C   0  0  0  0  0  0  0  0  0  0  0  0
    7.9706  -12.1795   25.3850 C   0  0  0  0  0  0  0  0  0  0  0  0
    7.9445  -13.4714   24.9050 C   0  0  0  0  0  0  0  0  0  0  0  0
    6.8665  -14.2650   25.1949 C   0  0  0  0  0  0  0  0  0  0  0  0
    9.9250  -16.3185   24.1887 C   0  0  0  0  0  0  0  0  0  0  0  0
   10.6774  -17.1291   23.5491 O   0  0  0  0  0  0  0  0  0  0  0  0
   10.9960  -15.3898   30.3924 C   0  0  0  0  0  0  0  0  0  0  0  0
   11.4019  -14.0096   29.2743 S   0  0  0  0  0  0  0  0  0  0  0  0
   11.1013  -14.6047   27.5700 C   0  0  0  0  0  0  0  0  0  0  0  0
   12.0041  -15.7881   27.3001 C   0  0  0  0  0  0  0  0  0  0  0  0
   11.6100  -16.4923   26.0155 C   0  0  2  0  0  0  0  0  0  0  0  0
   10.3583  -15.9750   25.4980 N   0  0  0  0  0  0  0  0  0  0  0  0
   11.3920  -17.9262   26.3470 C   0  0  0  0  0  0  0  0  0  0  0  0
   10.1331  -18.5127   26.2972 O   0  0  0  0  0  0  0  0  0  0  0  0
   12.3404  -18.6779   26.6893 O   0  0  0  0  0  0  0  0  0  0  0  0
  2  1  1  6
  2  3  1  0
  4  2  1  0
  5  4  1  0
  5  6  1  6
  7  8  2  0
  7  5  1  0
  9  7  1  0
 10  9  1  0
 10 11  1  1
 12 11  1  0
 12 13  2  0
 14 13  1  0
 15 20  2  0
 15 14  1  0
 16 15  1  0
 17 18  1  0
 17 16  2  0
 18 19  2  0
 19 20  1  0
 20 12  1  0
 21 10  1  0
 21 28  1  0
 22 21  2  0
 23 24  1  0
 25 24  1  0
 25 26  1  0
 27 26  1  1
 27 28  1  0
 27 29  1  0
 29 31  2  0
 29 30  1  0
M  END
$$$$
