LWM.pdb
     RDKit          3D

 31 32  0  0  1  0  0  0  0  0999 V2000
    7.3809  -12.9401   17.3859 C   0  0  0  0  0  0  0  0  0  0  0  0
    7.9351  -14.2067   17.9669 C   0  0  1  0  0  0  0  0  0  0  0  0
    8.7883  -14.8885   16.9303 C   0  0  0  0  0  0  0  0  0  0  0  0
    8.6511  -13.9998   19.2657 C   0  0  0  0  0  0  0  0  0  0  0  0
    9.1083  -15.3165   19.8168 C   0  0  2  0  0  0  0  0  0  0  0  0
    8.2306  -16.3981   19.4139 N   0  0  0  0  0  0  0  0  0  0  0  0
    9.3367  -15.2847   21.2699 C   0  0  0  0  0  0  0  0  0  0  0  0
   10.1703  -14.4562   21.7143 O   0  0  0  0  0  0  0  0  0  0  0  0
    8.6825  -16.1241   22.2121 N   0  0  0  0  0  0  0  0  0  0  0  0
    8.7945  -15.9282   23.6202 C   0  0  1  0  0  0  0  0  0  0  0  0
    7.6142  -16.5935   24.2903 C   0  0  0  0  0  0  0  0  0  0  0  0
    6.7641  -15.5905   25.0146 C   0  0  0  0  0  0  0  0  0  0  0  0
    5.5794  -15.8156   25.6846 C   0  0  0  0  0  0  0  0  0  0  0  0
    5.1299  -14.6567   26.1979 N   0  0  0  0  0  0  0  0  0  0  0  0
    5.9740  -13.6487   25.8971 C   0  0  0  0  0  0  0  0  0  0  0  0
    5.9654  -12.2998   26.1837 C   0  0  0  0  0  0  0  0  0  0  0  0
    6.9956  -11.5089   25.7259 C   0  0  0  0  0  0  0  0  0  0  0  0
    8.0121  -12.1048   24.9868 C   0  0  0  0  0  0  0  0  0  0  0  0
    8.0216  -13.4531   24.6997 C   0  0  0  0  0  0  0  0  0  0  0  0
    6.9951  -14.2358   25.1571 C   0  0  0  0  0  0  0  0  0  0  0  0
   10.0938  -16.3319   24.1785 C   0  0  0  0  0  0  0  0  0  0  0  0
   10.8075  -17.1877   23.5536 O   0  0  0  0  0  0  0  0  0  0  0  0
   10.1818  -13.9750   30.4384 C   0  0  0  0  0  0  0  0  0  0  0  0
   11.6742  -14.3193   29.4514 S   0  0  0  0  0  0  0  0  0  0  0  0
   11.1729  -15.4707   28.1202 C   0  0  0  0  0  0  0  0  0  0  0  0
   12.3274  -15.6350   27.1567 C   0  0  0  0  0  0  0  0  0  0  0  0
   11.8909  -16.3698   25.9034 C   0  0  2  0  0  0  0  0  0  0  0  0
   10.6432  -15.8369   25.3921 N   0  0  0  0  0  0  0  0  0  0  0  0
   11.6425  -17.7860   26.2858 C   0  0  0  0  0  0  0  0  0  0  0  0
   12.6796  -18.6745   26.5429 O   0  0  0  0  0  0  0  0  0  0  0  0
   10.4776  -18.2474   26.3949 O   0  0  0  0  0  0  0  0  0  0  0  0
  2  1  1  6
  2  3  1  0
  4  2  1  0
  5  4  1  0
  5  6  1  1
  7  8  2  0
  7  5  1  0
  9  7  1  0
 10  9  1  0
 10 11  1  1
 12 11  1  0
 12 13  2  0
 14 13  1  0
 15 20  2  0
 15 14  1  0
 16 15  1  0
 17 18  1  0
 17 16  2  0
 18 19  2  0
 19 20  1  0
 20 12  1  0
 21 10  1  0
 21 28  1  0
 22 21  2  0
 23 24  1  0
 25 24  1  0
 25 26  1  0
 27 26  1  1
 27 28  1  0
 27 29  1  0
 29 31  2  0
 29 30  1  0
M  END
$$$$
