ANP.pdb
     RDKit          3D

 21 21  0  0  1  0  0  0  0  0999 V2000
   31.3023  -22.2514  -10.3113 C   0  0  0  0  0  0  0  0  0  0  0  0
   29.9933  -21.9549  -11.0347 C   0  0  2  0  0  0  0  0  0  0  0  0
   30.2442  -21.3576  -12.3235 N   0  0  0  0  0  0  0  0  0  0  0  0
   29.1823  -21.0272  -10.1858 C   0  0  0  0  0  0  0  0  0  0  0  0
   29.4366  -19.7967  -10.1571 O   0  0  0  0  0  0  0  0  0  0  0  0
   25.1714  -21.3742  -10.6865 N   0  0  0  0  0  0  0  0  0  0  0  0
   25.3774  -20.4798   -9.5936 C   0  0  0  0  0  0  0  0  0  0  0  0
   25.0094  -19.2669   -9.6411 O   0  0  0  0  0  0  0  0  0  0  0  0
   26.0319  -20.9463   -8.3621 C   0  0  0  0  0  0  0  0  0  0  0  0
   27.5337  -20.6758   -8.3852 C   0  0  2  0  0  0  0  0  0  0  0  0
   28.1062  -21.5010   -9.3898 N   0  0  0  0  0  0  0  0  0  0  0  0
   28.0640  -20.8017   -7.0306 C   0  0  0  0  0  0  0  0  0  0  0  0
   28.4655  -21.9942   -6.7526 O   0  0  0  0  0  0  0  0  0  0  0  0
   28.1840  -19.8210   -6.0351 N   0  0  0  0  0  0  0  0  0  0  0  0
   27.8090  -18.4362   -5.9235 C   0  0  0  0  0  0  0  0  0  0  0  0
   29.1909  -17.8455   -5.6009 C   0  0  0  0  0  0  0  0  0  0  0  0
   29.5712  -18.7633   -4.4303 C   0  0  0  0  0  0  0  0  0  0  0  0
   28.7944  -20.0473   -4.7099 C   0  0  1  0  0  0  0  0  0  0  0  0
   27.7649  -20.3264   -3.7079 C   0  0  0  0  0  0  0  0  0  0  0  0
   26.5457  -20.2032   -3.9576 O   0  0  0  0  0  0  0  0  0  0  0  0
   28.1453  -20.7382   -2.4461 O   0  0  0  0  0  0  0  0  0  0  0  0
  2  4  1  0
  2  1  1  1
  3  2  1  0
  4  5  2  0
  7  6  1  0
  8  7  2  0
  9  7  1  0
 10  9  1  1
 11 10  1  0
 11  4  1  0
 12 14  1  0
 12 10  1  0
 13 12  2  0
 14 18  1  0
 15 16  1  0
 15 14  1  0
 16 17  1  0
 17 18  1  0
 18 19  1  1
 19 20  2  0
 19 21  1  0
M  END
$$$$
