ANP.pdb
     RDKit          3D

 21 21  0  0  1  0  0  0  0  0999 V2000
   35.7004  -21.7340  -20.8719 C   0  0  0  0  0  0  0  0  0  0  0  0
   34.3170  -21.0948  -20.8246 C   0  0  2  0  0  0  0  0  0  0  0  0
   34.4189  -19.6580  -20.7481 N   0  0  0  0  0  0  0  0  0  0  0  0
   33.5909  -21.6245  -19.6283 C   0  0  0  0  0  0  0  0  0  0  0  0
   34.0391  -21.4338  -18.4697 O   0  0  0  0  0  0  0  0  0  0  0  0
   28.7906  -24.2658  -17.4932 N   0  0  0  0  0  0  0  0  0  0  0  0
   29.5461  -23.0550  -17.4992 C   0  0  0  0  0  0  0  0  0  0  0  0
   29.6297  -22.3116  -16.4748 O   0  0  0  0  0  0  0  0  0  0  0  0
   30.2606  -22.6284  -18.7116 C   0  0  0  0  0  0  0  0  0  0  0  0
   31.7546  -22.9256  -18.6190 C   0  0  2  0  0  0  0  0  0  0  0  0
   32.3804  -22.3548  -19.7595 N   0  0  0  0  0  0  0  0  0  0  0  0
   31.9455  -24.3556  -18.3940 C   0  0  0  0  0  0  0  0  0  0  0  0
   32.2542  -25.0003  -19.4663 O   0  0  0  0  0  0  0  0  0  0  0  0
   31.8375  -25.0833  -17.1999 N   0  0  0  0  0  0  0  0  0  0  0  0
   31.4190  -24.7759  -15.8578 C   0  0  0  0  0  0  0  0  0  0  0  0
   32.6922  -25.2064  -15.1120 C   0  0  0  0  0  0  0  0  0  0  0  0
   32.8419  -26.6176  -15.6980 C   0  0  0  0  0  0  0  0  0  0  0  0
   32.1661  -26.5162  -17.0630 C   0  0  1  0  0  0  0  0  0  0  0  0
   30.9581  -27.3356  -17.1691 C   0  0  0  0  0  0  0  0  0  0  0  0
   29.8132  -26.8325  -17.1670 O   0  0  0  0  0  0  0  0  0  0  0  0
   31.0800  -28.7069  -17.2744 O   0  0  0  0  0  0  0  0  0  0  0  0
  2  4  1  0
  2  1  1  1
  3  2  1  0
  4  5  2  0
  7  6  1  0
  8  7  2  0
  9  7  1  0
 10  9  1  6
 11 10  1  0
 11  4  1  0
 12 14  1  0
 12 10  1  0
 13 12  2  0
 14 18  1  0
 15 16  1  0
 15 14  1  0
 16 17  1  0
 17 18  1  0
 18 19  1  1
 19 20  2  0
 19 21  1  0
M  END
$$$$
