ANP.pdb
     RDKit          3D

 21 21  0  0  1  0  0  0  0  0999 V2000
   17.5665  -11.0953  -16.9951 C   0  0  0  0  0  0  0  0  0  0  0  0
   17.9047  -11.2848  -15.5206 C   0  0  2  0  0  0  0  0  0  0  0  0
   16.8904  -12.0686  -14.8590 N   0  0  0  0  0  0  0  0  0  0  0  0
   18.0120   -9.9359  -14.8818 C   0  0  0  0  0  0  0  0  0  0  0  0
   17.7724   -8.8931  -15.5414 O   0  0  0  0  0  0  0  0  0  0  0  0
   17.0204   -7.6093   -9.7634 N   0  0  0  0  0  0  0  0  0  0  0  0
   17.2592   -8.5812  -10.7809 C   0  0  0  0  0  0  0  0  0  0  0  0
   16.3565   -9.3850  -11.1657 O   0  0  0  0  0  0  0  0  0  0  0  0
   18.5788   -8.6797  -11.4223 C   0  0  0  0  0  0  0  0  0  0  0  0
   18.4850   -8.4978  -12.9346 C   0  0  2  0  0  0  0  0  0  0  0  0
   18.3850   -9.7884  -13.5198 N   0  0  0  0  0  0  0  0  0  0  0  0
   19.5789   -7.6407  -13.3828 C   0  0  0  0  0  0  0  0  0  0  0  0
   20.6251   -8.3012  -13.7428 O   0  0  0  0  0  0  0  0  0  0  0  0
   19.6267   -6.2414  -13.4651 N   0  0  0  0  0  0  0  0  0  0  0  0
   18.7094   -5.1745  -13.1631 C   0  0  0  0  0  0  0  0  0  0  0  0
   18.6832   -4.4926  -14.5404 C   0  0  0  0  0  0  0  0  0  0  0  0
   20.1955   -4.3346  -14.7532 C   0  0  0  0  0  0  0  0  0  0  0  0
   20.7972   -5.4723  -13.9324 C   0  0  1  0  0  0  0  0  0  0  0  0
   21.5940   -5.0040  -12.7976 C   0  0  0  0  0  0  0  0  0  0  0  0
   21.1826   -5.0859  -11.6195 O   0  0  0  0  0  0  0  0  0  0  0  0
   22.8389   -4.4532  -13.0287 O   0  0  0  0  0  0  0  0  0  0  0  0
  2  4  1  0
  2  1  1  6
  3  2  1  0
  4  5  2  0
  7  6  1  0
  8  7  2  0
  9  7  1  0
 10  9  1  1
 11 10  1  0
 11  4  1  0
 12 14  1  0
 12 10  1  0
 13 12  2  0
 14 18  1  0
 15 16  1  0
 15 14  1  0
 16 17  1  0
 17 18  1  0
 18 19  1  1
 19 20  2  0
 19 21  1  0
M  END
$$$$
