ANP.pdb
     RDKit          3D

 21 21  0  0  1  0  0  0  0  0999 V2000
   28.3694  -19.5230  -15.8545 C   0  0  0  0  0  0  0  0  0  0  0  0
   27.3371  -20.5533  -15.4100 C   0  0  2  0  0  0  0  0  0  0  0  0
   26.3750  -20.7989  -16.4562 N   0  0  0  0  0  0  0  0  0  0  0  0
   26.6478  -20.0360  -14.1867 C   0  0  0  0  0  0  0  0  0  0  0  0
   27.0583  -18.9974  -13.6101 O   0  0  0  0  0  0  0  0  0  0  0  0
   23.9380  -18.5114  -14.4079 N   0  0  0  0  0  0  0  0  0  0  0  0
   22.9692  -19.2768  -13.6922 C   0  0  0  0  0  0  0  0  0  0  0  0
   21.7254  -19.1574  -13.9110 O   0  0  0  0  0  0  0  0  0  0  0  0
   23.3916  -20.2408  -12.6653 C   0  0  0  0  0  0  0  0  0  0  0  0
   24.9025  -20.2116  -12.4527 C   0  0  2  0  0  0  0  0  0  0  0  0
   25.5155  -20.6951  -13.6396 N   0  0  0  0  0  0  0  0  0  0  0  0
   25.2240  -20.8970  -11.2042 C   0  0  0  0  0  0  0  0  0  0  0  0
   25.5457  -22.1334  -11.3734 O   0  0  0  0  0  0  0  0  0  0  0  0
   25.2245  -20.3928   -9.8954 N   0  0  0  0  0  0  0  0  0  0  0  0
   25.0002  -19.0996   -9.3054 C   0  0  0  0  0  0  0  0  0  0  0  0
   26.3293  -18.9556   -8.5467 C   0  0  0  0  0  0  0  0  0  0  0  0
   26.3160  -20.2935   -7.7937 C   0  0  0  0  0  0  0  0  0  0  0  0
   25.4793  -21.2042   -8.6886 C   0  0  1  0  0  0  0  0  0  0  0  0
   24.2195  -21.6190   -8.0697 C   0  0  0  0  0  0  0  0  0  0  0  0
   23.1167  -21.1583   -8.4375 O   0  0  0  0  0  0  0  0  0  0  0  0
   24.2433  -22.5468   -7.0474 O   0  0  0  0  0  0  0  0  0  0  0  0
  2  4  1  0
  2  1  1  6
  3  2  1  0
  4  5  2  0
  7  6  1  0
  8  7  2  0
  9  7  1  0
 10  9  1  6
 11 10  1  0
 11  4  1  0
 12 14  1  0
 12 10  1  0
 13 12  2  0
 14 18  1  0
 15 16  1  0
 15 14  1  0
 16 17  1  0
 17 18  1  0
 18 19  1  1
 19 20  2  0
 19 21  1  0
M  END
$$$$
