ANP.pdb
     RDKit          3D

 21 21  0  0  1  0  0  0  0  0999 V2000
   17.4629  -12.7328  -16.6402 C   0  0  0  0  0  0  0  0  0  0  0  0
   17.3681  -11.2365  -16.9174 C   0  0  2  0  0  0  0  0  0  0  0  0
   17.1906  -10.9868  -18.3269 N   0  0  0  0  0  0  0  0  0  0  0  0
   18.6244  -10.5842  -16.4324 C   0  0  0  0  0  0  0  0  0  0  0  0
   18.9459  -10.6348  -15.2184 O   0  0  0  0  0  0  0  0  0  0  0  0
   22.4594  -11.2229  -16.9688 N   0  0  0  0  0  0  0  0  0  0  0  0
   22.5657  -10.1957  -17.9538 C   0  0  0  0  0  0  0  0  0  0  0  0
   23.4577  -10.2207  -18.8553 O   0  0  0  0  0  0  0  0  0  0  0  0
   21.6295   -9.0617  -17.9520 C   0  0  0  0  0  0  0  0  0  0  0  0
   20.6105   -9.1743  -16.8215 C   0  0  2  0  0  0  0  0  0  0  0  0
   19.4898   -9.8914  -17.3196 N   0  0  0  0  0  0  0  0  0  0  0  0
   20.3644   -7.8473  -16.2643 C   0  0  0  0  0  0  0  0  0  0  0  0
   19.3050   -7.2874  -16.7383 O   0  0  0  0  0  0  0  0  0  0  0  0
   21.1121   -7.1366  -15.3140 N   0  0  0  0  0  0  0  0  0  0  0  0
   22.3389   -7.3767  -14.6011 C   0  0  0  0  0  0  0  0  0  0  0  0
   21.8063   -7.2348  -13.1662 C   0  0  0  0  0  0  0  0  0  0  0  0
   21.1090   -5.8743  -13.3078 C   0  0  0  0  0  0  0  0  0  0  0  0
   20.7457   -5.8063  -14.7889 C   0  0  1  0  0  0  0  0  0  0  0  0
   21.4612   -4.7519  -15.5089 C   0  0  0  0  0  0  0  0  0  0  0  0
   22.4001   -5.0052  -16.2950 O   0  0  0  0  0  0  0  0  0  0  0  0
   21.0930   -3.4349  -15.3177 O   0  0  0  0  0  0  0  0  0  0  0  0
  2  4  1  0
  2  1  1  6
  3  2  1  0
  4  5  2  0
  7  6  1  0
  8  7  2  0
  9  7  1  0
 10  9  1  6
 11 10  1  0
 11  4  1  0
 12 14  1  0
 12 10  1  0
 13 12  2  0
 14 18  1  0
 15 16  1  0
 15 14  1  0
 16 17  1  0
 17 18  1  0
 18 19  1  6
 19 20  2  0
 19 21  1  0
M  END
$$$$
