ANP.pdb
     RDKit          3D

 21 21  0  0  1  0  0  0  0  0999 V2000
   20.6837  -13.0059  -19.5873 C   0  0  0  0  0  0  0  0  0  0  0  0
   21.7066  -11.9348  -19.2253 C   0  0  2  0  0  0  0  0  0  0  0  0
   22.6830  -12.4514  -18.2977 N   0  0  0  0  0  0  0  0  0  0  0  0
   20.9828  -10.7741  -18.6187 C   0  0  0  0  0  0  0  0  0  0  0  0
   20.1795  -10.0908  -19.3026 O   0  0  0  0  0  0  0  0  0  0  0  0
   18.4487   -8.6770  -13.7799 N   0  0  0  0  0  0  0  0  0  0  0  0
   18.6131   -8.7280  -15.1966 C   0  0  0  0  0  0  0  0  0  0  0  0
   18.1160   -7.8467  -15.9616 O   0  0  0  0  0  0  0  0  0  0  0  0
   19.3755   -9.8203  -15.8195 C   0  0  0  0  0  0  0  0  0  0  0  0
   20.4948   -9.2892  -16.7107 C   0  0  2  0  0  0  0  0  0  0  0  0
   21.1768  -10.4074  -17.2608 N   0  0  0  0  0  0  0  0  0  0  0  0
   21.2890   -8.3227  -15.9576 C   0  0  0  0  0  0  0  0  0  0  0  0
   22.1691   -8.8748  -15.1952 O   0  0  0  0  0  0  0  0  0  0  0  0
   21.2126   -6.9223  -15.9632 N   0  0  0  0  0  0  0  0  0  0  0  0
   20.3241   -5.9561  -16.5532 C   0  0  0  0  0  0  0  0  0  0  0  0
   21.3587   -5.1415  -17.3461 C   0  0  0  0  0  0  0  0  0  0  0  0
   22.3553   -4.8606  -16.2125 C   0  0  0  0  0  0  0  0  0  0  0  0
   22.1539   -6.0323  -15.2549 C   0  0  1  0  0  0  0  0  0  0  0  0
   21.6071   -5.6285  -13.9589 C   0  0  0  0  0  0  0  0  0  0  0  0
   22.2861   -4.9963  -13.1204 O   0  0  0  0  0  0  0  0  0  0  0  0
   20.3020   -5.9533  -13.6464 O   0  0  0  0  0  0  0  0  0  0  0  0
  2  4  1  0
  2  1  1  1
  3  2  1  0
  4  5  2  0
  7  6  1  0
  8  7  2  0
  9  7  1  0
 10  9  1  1
 11 10  1  0
 11  4  1  0
 12 14  1  0
 12 10  1  0
 13 12  2  0
 14 18  1  0
 15 16  1  0
 15 14  1  0
 16 17  1  0
 17 18  1  0
 18 19  1  1
 19 20  2  0
 19 21  1  0
M  END
$$$$
