ANP.pdb
     RDKit          3D

 21 21  0  0  1  0  0  0  0  0999 V2000
   14.1478  -11.0566  -14.7500 C   0  0  0  0  0  0  0  0  0  0  0  0
   15.6586  -11.0053  -14.5510 C   0  0  2  0  0  0  0  0  0  0  0  0
   16.0875  -12.0206  -13.6204 N   0  0  0  0  0  0  0  0  0  0  0  0
   16.0231   -9.6480  -14.0372 C   0  0  0  0  0  0  0  0  0  0  0  0
   15.8455   -8.6251  -14.7456 O   0  0  0  0  0  0  0  0  0  0  0  0
   18.4106   -6.7045   -9.4140 N   0  0  0  0  0  0  0  0  0  0  0  0
   17.2773   -6.8101  -10.2750 C   0  0  0  0  0  0  0  0  0  0  0  0
   16.5946   -5.7957  -10.6124 O   0  0  0  0  0  0  0  0  0  0  0  0
   16.8626   -8.1180  -10.8040 C   0  0  0  0  0  0  0  0  0  0  0  0
   17.0276   -8.1908  -12.3193 C   0  0  2  0  0  0  0  0  0  0  0  0
   16.5776   -9.4702  -12.7422 N   0  0  0  0  0  0  0  0  0  0  0  0
   18.3923   -7.8093  -12.6716 C   0  0  0  0  0  0  0  0  0  0  0  0
   19.2485   -8.7521  -12.4752 O   0  0  0  0  0  0  0  0  0  0  0  0
   18.8650   -6.5894  -13.1771 N   0  0  0  0  0  0  0  0  0  0  0  0
   18.2577   -5.3348  -13.5348 C   0  0  0  0  0  0  0  0  0  0  0  0
   18.7372   -5.2507  -14.9927 C   0  0  0  0  0  0  0  0  0  0  0  0
   20.2373   -5.4808  -14.7602 C   0  0  0  0  0  0  0  0  0  0  0  0
   20.2824   -6.3023  -13.4744 C   0  0  1  0  0  0  0  0  0  0  0  0
   20.9103   -5.5917  -12.3596 C   0  0  0  0  0  0  0  0  0  0  0  0
   20.2395   -5.0871  -11.4327 O   0  0  0  0  0  0  0  0  0  0  0  0
   22.2854   -5.4710  -12.3252 O   0  0  0  0  0  0  0  0  0  0  0  0
  2  4  1  0
  2  1  1  1
  3  2  1  0
  4  5  2  0
  7  6  1  0
  8  7  2  0
  9  7  1  0
 10  9  1  1
 11 10  1  0
 11  4  1  0
 12 14  1  0
 12 10  1  0
 13 12  2  0
 14 18  1  0
 15 16  1  0
 15 14  1  0
 16 17  1  0
 17 18  1  0
 18 19  1  1
 19 20  2  0
 19 21  1  0
M  END
$$$$
