TDI.pdb
     RDKit          3D

 24 23  0  0  1  0  0  0  0  0999 V2000
    8.4935  -12.6990   18.2757 C   0  0  0  0  0  0  0  0  0  0  0  0
    8.7128  -13.3269   19.6196 C   0  0  1  0  0  0  0  0  0  0  0  0
    8.6284  -12.3785   20.6087 O   0  0  0  0  0  0  0  0  0  0  0  0
    7.7297  -14.4683   19.8137 C   0  0  2  0  0  0  0  0  0  0  0  0
    6.3745  -14.0411   19.6016 N   0  0  0  0  0  0  0  0  0  0  0  0
    7.9149  -15.1257   21.1328 C   0  0  0  0  0  0  0  0  0  0  0  0
    7.0560  -14.9307   22.0309 O   0  0  0  0  0  0  0  0  0  0  0  0
    9.0166  -15.9701   21.4417 N   0  0  0  0  0  0  0  0  0  0  0  0
    9.1094  -16.6786   22.6924 C   0  0  1  0  0  0  0  0  0  0  0  0
   10.0630  -17.8298   22.5768 C   0  0  0  0  0  0  0  0  0  0  0  0
   10.2227  -18.5966   23.8174 C   0  0  0  0  0  0  0  0  0  0  0  0
   11.3825  -18.9811   24.1196 O   0  0  0  0  0  0  0  0  0  0  0  0
    9.4216  -15.7810   23.8303 C   0  0  0  0  0  0  0  0  0  0  0  0
   10.4563  -15.0710   23.7459 O   0  0  0  0  0  0  0  0  0  0  0  0
    9.2008  -18.9237   24.6695 O   0  0  0  0  0  0  0  0  0  0  0  0
    5.9587  -12.3708   25.9281 C   0  0  0  0  0  0  0  0  0  0  0  0
    7.1807  -13.0909   25.4102 C   0  0  0  0  0  0  0  0  0  0  0  0
    7.7204  -13.9854   26.5004 C   0  0  2  0  0  0  0  0  0  0  0  0
    8.1797  -13.0810   27.6269 C   0  0  0  0  0  0  0  0  0  0  0  0
    8.9152  -14.7840   26.0534 C   0  0  2  0  0  0  0  0  0  0  0  0
    8.6007  -15.7037   24.9881 N   0  0  0  0  0  0  0  0  0  0  0  0
    9.3917  -15.5645   27.2208 C   0  0  0  0  0  0  0  0  0  0  0  0
    9.1359  -16.8068   27.3294 O   0  0  0  0  0  0  0  0  0  0  0  0
   10.1286  -14.9347   28.2134 O   0  0  0  0  0  0  0  0  0  0  0  0
  2  1  1  6
  2  4  1  0
  2  3  1  0
  4  5  1  1
  6  8  1  0
  6  4  1  0
  7  6  2  0
  9  8  1  0
  9 13  1  0
  9 10  1  6
 11 15  1  0
 11 10  1  0
 12 11  2  0
 13 21  1  0
 14 13  2  0
 17 16  1  0
 18 17  1  0
 18 19  1  1
 20 18  1  0
 20 22  1  0
 20 21  1  6
 22 23  2  0
 22 24  1  0
M  END
$$$$
