TDI.pdb
     RDKit          3D

 24 23  0  0  1  0  0  0  0  0999 V2000
    8.7473  -12.4583   18.2054 C   0  0  0  0  0  0  0  0  0  0  0  0
    8.8022  -13.1434   19.5381 C   0  0  1  0  0  0  0  0  0  0  0  0
    8.1196  -12.4124   20.4787 O   0  0  0  0  0  0  0  0  0  0  0  0
    8.2779  -14.5624   19.4018 C   0  0  2  0  0  0  0  0  0  0  0  0
    6.9525  -14.5859   18.8481 N   0  0  0  0  0  0  0  0  0  0  0  0
    8.3656  -15.2992   20.6887 C   0  0  0  0  0  0  0  0  0  0  0  0
    7.3290  -15.4115   21.3924 O   0  0  0  0  0  0  0  0  0  0  0  0
    9.5640  -15.8901   21.1753 N   0  0  0  0  0  0  0  0  0  0  0  0
    9.6148  -16.5906   22.4329 C   0  0  1  0  0  0  0  0  0  0  0  0
   10.7361  -17.5861   22.4370 C   0  0  0  0  0  0  0  0  0  0  0  0
   10.9221  -18.2668   23.7233 C   0  0  0  0  0  0  0  0  0  0  0  0
   10.0197  -19.0601   24.0987 O   0  0  0  0  0  0  0  0  0  0  0  0
    9.6552  -15.6692   23.5936 C   0  0  0  0  0  0  0  0  0  0  0  0
   10.6337  -14.8839   23.6808 O   0  0  0  0  0  0  0  0  0  0  0  0
   12.0065  -18.1011   24.5443 O   0  0  0  0  0  0  0  0  0  0  0  0
    6.7037  -11.7174   26.7475 C   0  0  0  0  0  0  0  0  0  0  0  0
    7.5854  -12.9174   26.9980 C   0  0  0  0  0  0  0  0  0  0  0  0
    7.5294  -13.8259   25.7933 C   0  0  2  0  0  0  0  0  0  0  0  0
    6.3010  -14.6992   25.9551 C   0  0  0  0  0  0  0  0  0  0  0  0
    8.7202  -14.7422   25.7053 C   0  0  2  0  0  0  0  0  0  0  0  0
    8.6398  -15.6505   24.5882 N   0  0  0  0  0  0  0  0  0  0  0  0
    8.7627  -15.5391   26.9551 C   0  0  0  0  0  0  0  0  0  0  0  0
    8.9121  -14.9775   28.0877 O   0  0  0  0  0  0  0  0  0  0  0  0
    8.6380  -16.9195   26.8941 O   0  0  0  0  0  0  0  0  0  0  0  0
  2  1  1  6
  2  4  1  0
  2  3  1  0
  4  5  1  1
  6  8  1  0
  6  4  1  0
  7  6  2  0
  9  8  1  0
  9 13  1  0
  9 10  1  6
 11 15  1  0
 11 10  1  0
 12 11  2  0
 13 21  1  0
 14 13  2  0
 17 16  1  0
 18 17  1  0
 18 19  1  1
 20 18  1  0
 20 22  1  0
 20 21  1  6
 22 23  2  0
 22 24  1  0
M  END
$$$$
