TDI.pdb
     RDKit          3D

 24 23  0  0  1  0  0  0  0  0999 V2000
    9.3586  -12.9247   20.3592 C   0  0  0  0  0  0  0  0  0  0  0  0
    7.9512  -13.2979   20.0009 C   0  0  1  0  0  0  0  0  0  0  0  0
    7.5976  -12.7296   18.8021 O   0  0  0  0  0  0  0  0  0  0  0  0
    7.8114  -14.8103   19.9988 C   0  0  2  0  0  0  0  0  0  0  0  0
    6.5389  -15.2233   19.4754 N   0  0  0  0  0  0  0  0  0  0  0  0
    8.0819  -15.3820   21.3428 C   0  0  0  0  0  0  0  0  0  0  0  0
    7.1596  -15.3773   22.1982 O   0  0  0  0  0  0  0  0  0  0  0  0
    9.3341  -15.9392   21.7219 N   0  0  0  0  0  0  0  0  0  0  0  0
    9.5483  -16.5255   23.0201 C   0  0  1  0  0  0  0  0  0  0  0  0
   10.7100  -17.4728   22.9857 C   0  0  0  0  0  0  0  0  0  0  0  0
   10.5762  -18.5419   21.9899 C   0  0  0  0  0  0  0  0  0  0  0  0
   11.5773  -18.7971   21.2707 O   0  0  0  0  0  0  0  0  0  0  0  0
    9.6648  -15.5060   24.0900 C   0  0  0  0  0  0  0  0  0  0  0  0
   10.5486  -14.6209   23.9581 O   0  0  0  0  0  0  0  0  0  0  0  0
    9.4408  -19.2816   21.7869 O   0  0  0  0  0  0  0  0  0  0  0  0
    5.8910  -12.4333   25.9256 C   0  0  0  0  0  0  0  0  0  0  0  0
    7.1940  -13.0647   25.4968 C   0  0  0  0  0  0  0  0  0  0  0  0
    7.7891  -13.8043   26.6710 C   0  0  2  0  0  0  0  0  0  0  0  0
    8.1797  -12.7605   27.6986 C   0  0  0  0  0  0  0  0  0  0  0  0
    9.0384  -14.5595   26.3046 C   0  0  2  0  0  0  0  0  0  0  0  0
    8.8229  -15.5026   25.2352 N   0  0  0  0  0  0  0  0  0  0  0  0
    9.4762  -15.3074   27.5079 C   0  0  0  0  0  0  0  0  0  0  0  0
    9.9951  -14.7059   28.5027 O   0  0  0  0  0  0  0  0  0  0  0  0
    9.3196  -16.6850   27.5550 O   0  0  0  0  0  0  0  0  0  0  0  0
  2  1  1  6
  2  4  1  0
  2  3  1  0
  4  5  1  1
  6  8  1  0
  6  4  1  0
  7  6  2  0
  9  8  1  0
  9 13  1  0
  9 10  1  6
 11 15  1  0
 11 10  1  0
 12 11  2  0
 13 21  1  0
 14 13  2  0
 17 16  1  0
 18 17  1  0
 18 19  1  1
 20 18  1  0
 20 22  1  0
 20 21  1  6
 22 23  2  0
 22 24  1  0
M  END
$$$$
