TDI.pdb
     RDKit          3D

 24 23  0  0  1  0  0  0  0  0999 V2000
    9.4922  -14.0080   17.7818 C   0  0  0  0  0  0  0  0  0  0  0  0
    9.2453  -14.4037   19.2069 C   0  0  1  0  0  0  0  0  0  0  0  0
    9.9420  -13.5816   20.0577 O   0  0  0  0  0  0  0  0  0  0  0  0
    7.7516  -14.4051   19.4824 C   0  0  2  0  0  0  0  0  0  0  0  0
    7.1500  -13.1452   19.1441 N   0  0  0  0  0  0  0  0  0  0  0  0
    7.4580  -14.8143   20.8798 C   0  0  0  0  0  0  0  0  0  0  0  0
    6.9787  -13.9617   21.6709 O   0  0  0  0  0  0  0  0  0  0  0  0
    7.6892  -16.1254   21.3795 N   0  0  0  0  0  0  0  0  0  0  0  0
    7.2661  -16.5271   22.6964 C   0  0  1  0  0  0  0  0  0  0  0  0
    7.2982  -18.0204   22.8279 C   0  0  0  0  0  0  0  0  0  0  0  0
    6.9803  -18.5056   24.1756 C   0  0  0  0  0  0  0  0  0  0  0  0
    7.9189  -18.9996   24.8535 O   0  0  0  0  0  0  0  0  0  0  0  0
    8.0201  -15.8357   23.7694 C   0  0  0  0  0  0  0  0  0  0  0  0
    9.2738  -15.8047   23.6739 O   0  0  0  0  0  0  0  0  0  0  0  0
    5.7365  -18.4595   24.7483 O   0  0  0  0  0  0  0  0  0  0  0  0
    5.6375  -11.6458   26.4616 C   0  0  0  0  0  0  0  0  0  0  0  0
    6.5512  -12.5295   25.6465 C   0  0  0  0  0  0  0  0  0  0  0  0
    7.2960  -13.4551   26.5784 C   0  0  2  0  0  0  0  0  0  0  0  0
    8.2386  -12.5942   27.3960 C   0  0  0  0  0  0  0  0  0  0  0  0
    8.1372  -14.4622   25.8412 C   0  0  2  0  0  0  0  0  0  0  0  0
    7.3777  -15.2207   24.8783 N   0  0  0  0  0  0  0  0  0  0  0  0
    8.6907  -15.4016   26.8463 C   0  0  0  0  0  0  0  0  0  0  0  0
    8.0921  -16.4888   27.1293 O   0  0  0  0  0  0  0  0  0  0  0  0
    9.8801  -15.0948   27.4913 O   0  0  0  0  0  0  0  0  0  0  0  0
  2  1  1  6
  2  4  1  0
  2  3  1  0
  4  5  1  1
  6  8  1  0
  6  4  1  0
  7  6  2  0
  9  8  1  0
  9 13  1  0
  9 10  1  6
 11 15  1  0
 11 10  1  0
 12 11  2  0
 13 21  1  0
 14 13  2  0
 17 16  1  0
 18 17  1  0
 18 19  1  1
 20 18  1  0
 20 22  1  0
 20 21  1  6
 22 23  2  0
 22 24  1  0
M  END
$$$$
