TDI.pdb
     RDKit          3D

 24 23  0  0  1  0  0  0  0  0999 V2000
    7.6196  -12.5112   17.8182 C   0  0  0  0  0  0  0  0  0  0  0  0
    7.5028  -13.6377   18.8010 C   0  0  1  0  0  0  0  0  0  0  0  0
    7.3846  -14.8360   18.1412 O   0  0  0  0  0  0  0  0  0  0  0  0
    8.6851  -13.6052   19.7539 C   0  0  2  0  0  0  0  0  0  0  0  0
    9.9288  -13.7976   19.0610 N   0  0  0  0  0  0  0  0  0  0  0  0
    8.5071  -14.5663   20.8724 C   0  0  0  0  0  0  0  0  0  0  0  0
    7.4736  -14.4801   21.5843 O   0  0  0  0  0  0  0  0  0  0  0  0
    9.4455  -15.5871   21.1878 N   0  0  0  0  0  0  0  0  0  0  0  0
    9.3277  -16.3931   22.3758 C   0  0  1  0  0  0  0  0  0  0  0  0
   10.2204  -17.5947   22.2884 C   0  0  0  0  0  0  0  0  0  0  0  0
    9.8862  -18.5049   21.1874 C   0  0  0  0  0  0  0  0  0  0  0  0
    8.6902  -18.8844   21.0876 O   0  0  0  0  0  0  0  0  0  0  0  0
    9.5346  -15.6079   23.6161 C   0  0  0  0  0  0  0  0  0  0  0  0
   10.6480  -15.0433   23.7698 O   0  0  0  0  0  0  0  0  0  0  0  0
   10.7818  -18.9709   20.2610 O   0  0  0  0  0  0  0  0  0  0  0  0
    6.8396  -11.7377   27.3012 C   0  0  0  0  0  0  0  0  0  0  0  0
    7.8968  -12.8141   27.2383 C   0  0  0  0  0  0  0  0  0  0  0  0
    7.6604  -13.6610   26.0108 C   0  0  2  0  0  0  0  0  0  0  0  0
    6.3790  -14.4353   26.2482 C   0  0  0  0  0  0  0  0  0  0  0  0
    8.7556  -14.6684   25.7847 C   0  0  2  0  0  0  0  0  0  0  0  0
    8.5303  -15.4792   24.6137 N   0  0  0  0  0  0  0  0  0  0  0  0
    8.7943  -15.5582   26.9704 C   0  0  0  0  0  0  0  0  0  0  0  0
    9.1397  -15.1157   28.1130 O   0  0  0  0  0  0  0  0  0  0  0  0
    8.4492  -16.8953   26.8372 O   0  0  0  0  0  0  0  0  0  0  0  0
  2  1  1  6
  2  4  1  0
  2  3  1  0
  4  5  1  6
  6  8  1  0
  6  4  1  0
  7  6  2  0
  9  8  1  0
  9 13  1  0
  9 10  1  6
 11 15  1  0
 11 10  1  0
 12 11  2  0
 13 21  1  0
 14 13  2  0
 17 16  1  0
 18 17  1  0
 18 19  1  1
 20 18  1  0
 20 22  1  0
 20 21  1  6
 22 23  2  0
 22 24  1  0
M  END
$$$$
