TDI.pdb
     RDKit          3D

 24 23  0  0  1  0  0  0  0  0999 V2000
    7.4006  -12.6427   20.2157 C   0  0  0  0  0  0  0  0  0  0  0  0
    8.4631  -13.4069   19.4837 C   0  0  1  0  0  0  0  0  0  0  0  0
    9.6913  -13.1821   20.0546 O   0  0  0  0  0  0  0  0  0  0  0  0
    8.0935  -14.8796   19.4441 C   0  0  2  0  0  0  0  0  0  0  0  0
    6.8576  -15.0963   18.7446 N   0  0  0  0  0  0  0  0  0  0  0  0
    8.0838  -15.4734   20.8056 C   0  0  0  0  0  0  0  0  0  0  0  0
    6.9855  -15.5825   21.4093 O   0  0  0  0  0  0  0  0  0  0  0  0
    9.2542  -15.9298   21.4719 N   0  0  0  0  0  0  0  0  0  0  0  0
    9.1987  -16.5750   22.7586 C   0  0  1  0  0  0  0  0  0  0  0  0
   10.0869  -17.7828   22.7814 C   0  0  0  0  0  0  0  0  0  0  0  0
   10.1266  -18.4672   24.0786 C   0  0  0  0  0  0  0  0  0  0  0  0
   10.7432  -17.9000   25.0181 O   0  0  0  0  0  0  0  0  0  0  0  0
    9.4686  -15.6374   23.8748 C   0  0  0  0  0  0  0  0  0  0  0  0
   10.5019  -14.9243   23.8002 O   0  0  0  0  0  0  0  0  0  0  0  0
    9.5412  -19.6781   24.3402 O   0  0  0  0  0  0  0  0  0  0  0  0
    6.0117  -12.1103   25.8134 C   0  0  0  0  0  0  0  0  0  0  0  0
    7.2403  -12.8553   25.3490 C   0  0  0  0  0  0  0  0  0  0  0  0
    7.7054  -13.7705   26.4562 C   0  0  2  0  0  0  0  0  0  0  0  0
    8.1289  -12.8858   27.6121 C   0  0  0  0  0  0  0  0  0  0  0  0
    8.9026  -14.5926   26.0612 C   0  0  2  0  0  0  0  0  0  0  0  0
    8.6095  -15.5258   25.0016 N   0  0  0  0  0  0  0  0  0  0  0  0
    9.3304  -15.3596   27.2561 C   0  0  0  0  0  0  0  0  0  0  0  0
    9.9737  -14.7992   28.2009 O   0  0  0  0  0  0  0  0  0  0  0  0
    9.0269  -16.7101   27.3503 O   0  0  0  0  0  0  0  0  0  0  0  0
  2  1  1  1
  2  4  1  0
  2  3  1  0
  4  5  1  1
  6  8  1  0
  6  4  1  0
  7  6  2  0
  9  8  1  0
  9 13  1  0
  9 10  1  6
 11 15  1  0
 11 10  1  0
 12 11  2  0
 13 21  1  0
 14 13  2  0
 17 16  1  0
 18 17  1  0
 18 19  1  1
 20 18  1  0
 20 22  1  0
 20 21  1  6
 22 23  2  0
 22 24  1  0
M  END
$$$$
