TDI.pdb
     RDKit          3D

 24 23  0  0  1  0  0  0  0  0999 V2000
    8.9846  -12.4467   19.9043 C   0  0  0  0  0  0  0  0  0  0  0  0
    8.0029  -13.1991   19.0565 C   0  0  1  0  0  0  0  0  0  0  0  0
    7.9335  -12.6454   17.8020 O   0  0  0  0  0  0  0  0  0  0  0  0
    8.3777  -14.6708   19.0299 C   0  0  2  0  0  0  0  0  0  0  0  0
    7.5400  -15.4139   18.1300 N   0  0  0  0  0  0  0  0  0  0  0  0
    8.3931  -15.2515   20.3970 C   0  0  0  0  0  0  0  0  0  0  0  0
    7.2977  -15.5485   20.9396 O   0  0  0  0  0  0  0  0  0  0  0  0
    9.5847  -15.4932   21.1343 N   0  0  0  0  0  0  0  0  0  0  0  0
    9.5724  -16.1670   22.4074 C   0  0  1  0  0  0  0  0  0  0  0  0
   10.7308  -17.1129   22.5146 C   0  0  0  0  0  0  0  0  0  0  0  0
   10.8228  -17.7961   23.8097 C   0  0  0  0  0  0  0  0  0  0  0  0
    9.7687  -18.2988   24.2796 O   0  0  0  0  0  0  0  0  0  0  0  0
    9.4893  -15.2230   23.5474 C   0  0  0  0  0  0  0  0  0  0  0  0
   10.3459  -14.3040   23.6070 O   0  0  0  0  0  0  0  0  0  0  0  0
   11.9726  -17.9260   24.5435 O   0  0  0  0  0  0  0  0  0  0  0  0
    7.2459  -11.4162   26.3643 C   0  0  0  0  0  0  0  0  0  0  0  0
    6.9398  -12.7905   26.9100 C   0  0  0  0  0  0  0  0  0  0  0  0
    7.0246  -13.7939   25.7848 C   0  0  2  0  0  0  0  0  0  0  0  0
    6.1130  -14.9480   26.1523 C   0  0  0  0  0  0  0  0  0  0  0  0
    8.4105  -14.3559   25.6156 C   0  0  2  0  0  0  0  0  0  0  0  0
    8.4893  -15.3268   24.5523 N   0  0  0  0  0  0  0  0  0  0  0  0
    8.7793  -15.0230   26.8876 C   0  0  0  0  0  0  0  0  0  0  0  0
    8.9031  -14.3583   27.9662 O   0  0  0  0  0  0  0  0  0  0  0  0
    8.9939  -16.3934   26.9073 O   0  0  0  0  0  0  0  0  0  0  0  0
  2  1  1  1
  2  4  1  0
  2  3  1  0
  4  5  1  6
  6  8  1  0
  6  4  1  0
  7  6  2  0
  9  8  1  0
  9 13  1  0
  9 10  1  1
 11 15  1  0
 11 10  1  0
 12 11  2  0
 13 21  1  0
 14 13  2  0
 17 16  1  0
 18 17  1  0
 18 19  1  1
 20 18  1  0
 20 22  1  0
 20 21  1  6
 22 23  2  0
 22 24  1  0
M  END
$$$$
