TDI.pdb
     RDKit          3D

 24 23  0  0  1  0  0  0  0  0999 V2000
    8.0940  -13.1509   19.2329 C   0  0  0  0  0  0  0  0  0  0  0  0
    8.5393  -13.8174   20.5002 C   0  0  1  0  0  0  0  0  0  0  0  0
    8.4064  -12.9585   21.5630 O   0  0  0  0  0  0  0  0  0  0  0  0
    7.7691  -15.1126   20.6908 C   0  0  2  0  0  0  0  0  0  0  0  0
    6.3522  -14.9081   20.5712 N   0  0  0  0  0  0  0  0  0  0  0  0
    8.1379  -15.7807   21.9652 C   0  0  0  0  0  0  0  0  0  0  0  0
    7.2995  -15.7983   22.9028 O   0  0  0  0  0  0  0  0  0  0  0  0
    9.3948  -16.4070   22.1887 N   0  0  0  0  0  0  0  0  0  0  0  0
    9.7433  -16.9899   23.4590 C   0  0  1  0  0  0  0  0  0  0  0  0
   10.8382  -18.0006   23.2928 C   0  0  0  0  0  0  0  0  0  0  0  0
   11.1722  -18.7235   24.5250 C   0  0  0  0  0  0  0  0  0  0  0  0
   11.2797  -18.0515   25.5840 O   0  0  0  0  0  0  0  0  0  0  0  0
   10.0518  -15.9667   24.4865 C   0  0  0  0  0  0  0  0  0  0  0  0
   11.0095  -15.1836   24.2601 O   0  0  0  0  0  0  0  0  0  0  0  0
   11.3754  -20.0762   24.6055 O   0  0  0  0  0  0  0  0  0  0  0  0
    6.4153  -12.7218   26.3535 C   0  0  0  0  0  0  0  0  0  0  0  0
    7.6881  -13.3763   25.8718 C   0  0  0  0  0  0  0  0  0  0  0  0
    8.3771  -14.0295   27.0459 C   0  0  2  0  0  0  0  0  0  0  0  0
    8.8325  -12.9150   27.9670 C   0  0  0  0  0  0  0  0  0  0  0  0
    9.6033  -14.8018   26.6392 C   0  0  2  0  0  0  0  0  0  0  0  0
    9.3102  -15.8502   25.6935 N   0  0  0  0  0  0  0  0  0  0  0  0
   10.1675  -15.4194   27.8636 C   0  0  0  0  0  0  0  0  0  0  0  0
   10.7678  -14.7154   28.7379 O   0  0  0  0  0  0  0  0  0  0  0  0
   10.0413  -16.7864   28.0639 O   0  0  0  0  0  0  0  0  0  0  0  0
  2  1  1  6
  2  4  1  0
  2  3  1  0
  4  5  1  1
  6  8  1  0
  6  4  1  0
  7  6  2  0
  9  8  1  0
  9 13  1  0
  9 10  1  6
 11 15  1  0
 11 10  1  0
 12 11  2  0
 13 21  1  0
 14 13  2  0
 17 16  1  0
 18 17  1  0
 18 19  1  1
 20 18  1  0
 20 22  1  0
 20 21  1  6
 22 23  2  0
 22 24  1  0
M  END
$$$$
