TDI.pdb
     RDKit          3D

 24 23  0  0  1  0  0  0  0  0999 V2000
    8.1697  -12.6507   18.8753 C   0  0  0  0  0  0  0  0  0  0  0  0
    8.4182  -13.4076   20.1457 C   0  0  1  0  0  0  0  0  0  0  0  0
    7.9905  -12.6779   21.2271 O   0  0  0  0  0  0  0  0  0  0  0  0
    7.7596  -14.7736   20.0603 C   0  0  2  0  0  0  0  0  0  0  0  0
    6.3811  -14.6729   19.6689 N   0  0  0  0  0  0  0  0  0  0  0  0
    7.9344  -15.5400   21.3207 C   0  0  0  0  0  0  0  0  0  0  0  0
    6.9363  -15.7114   22.0669 O   0  0  0  0  0  0  0  0  0  0  0  0
    9.1755  -16.0960   21.7362 N   0  0  0  0  0  0  0  0  0  0  0  0
    9.3396  -16.7234   23.0224 C   0  0  1  0  0  0  0  0  0  0  0  0
   10.3307  -17.8454   22.9392 C   0  0  0  0  0  0  0  0  0  0  0  0
   10.6571  -18.4479   24.2365 C   0  0  0  0  0  0  0  0  0  0  0  0
    9.6990  -18.7830   24.9810 O   0  0  0  0  0  0  0  0  0  0  0  0
    9.6588  -15.7479   24.0922 C   0  0  0  0  0  0  0  0  0  0  0  0
   10.6678  -15.0147   23.9303 O   0  0  0  0  0  0  0  0  0  0  0  0
   11.9287  -18.6717   24.6951 O   0  0  0  0  0  0  0  0  0  0  0  0
    6.4409  -12.1060   26.0835 C   0  0  0  0  0  0  0  0  0  0  0  0
    7.6029  -12.9344   25.5896 C   0  0  0  0  0  0  0  0  0  0  0  0
    8.1010  -13.8020   26.7205 C   0  0  2  0  0  0  0  0  0  0  0  0
    8.6242  -12.8697   27.7953 C   0  0  0  0  0  0  0  0  0  0  0  0
    9.2425  -14.6913   26.3064 C   0  0  2  0  0  0  0  0  0  0  0  0
    8.8722  -15.6224   25.2694 N   0  0  0  0  0  0  0  0  0  0  0  0
    9.6624  -15.4629   27.5010 C   0  0  0  0  0  0  0  0  0  0  0  0
    9.2451  -16.6496   27.6968 O   0  0  0  0  0  0  0  0  0  0  0  0
   10.5239  -14.8864   28.4231 O   0  0  0  0  0  0  0  0  0  0  0  0
  2  1  1  6
  2  4  1  0
  2  3  1  0
  4  5  1  1
  6  8  1  0
  6  4  1  0
  7  6  2  0
  9  8  1  0
  9 13  1  0
  9 10  1  6
 11 15  1  0
 11 10  1  0
 12 11  2  0
 13 21  1  0
 14 13  2  0
 17 16  1  0
 18 17  1  0
 18 19  1  1
 20 18  1  0
 20 22  1  0
 20 21  1  6
 22 23  2  0
 22 24  1  0
M  END
$$$$
