TDI.pdb
     RDKit          3D

 24 23  0  0  1  0  0  0  0  0999 V2000
    7.6749  -12.8314   17.6235 C   0  0  0  0  0  0  0  0  0  0  0  0
    7.4797  -13.7841   18.7649 C   0  0  1  0  0  0  0  0  0  0  0  0
    7.3586  -15.0695   18.2979 O   0  0  0  0  0  0  0  0  0  0  0  0
    8.6160  -13.6244   19.7600 C   0  0  2  0  0  0  0  0  0  0  0  0
    9.8874  -13.9292   19.1648 N   0  0  0  0  0  0  0  0  0  0  0  0
    8.3685  -14.4092   20.9967 C   0  0  0  0  0  0  0  0  0  0  0  0
    7.3143  -14.1936   21.6482 O   0  0  0  0  0  0  0  0  0  0  0  0
    9.2621  -15.3988   21.4910 N   0  0  0  0  0  0  0  0  0  0  0  0
    8.9618  -16.1841   22.6606 C   0  0  1  0  0  0  0  0  0  0  0  0
    9.5636  -17.5526   22.5456 C   0  0  0  0  0  0  0  0  0  0  0  0
    9.1746  -18.2728   21.3280 C   0  0  0  0  0  0  0  0  0  0  0  0
    7.9874  -18.6835   21.2480 O   0  0  0  0  0  0  0  0  0  0  0  0
    9.3334  -15.4927   23.9182 C   0  0  0  0  0  0  0  0  0  0  0  0
   10.5424  -15.1859   24.0795 O   0  0  0  0  0  0  0  0  0  0  0  0
   10.0101  -18.5301   20.2730 O   0  0  0  0  0  0  0  0  0  0  0  0
    5.8495  -12.3953   27.1984 C   0  0  0  0  0  0  0  0  0  0  0  0
    6.5219  -13.5608   26.5130 C   0  0  0  0  0  0  0  0  0  0  0  0
    8.0117  -13.3170   26.4820 C   0  0  2  0  0  0  0  0  0  0  0  0
    8.2737  -12.3230   25.3678 C   0  0  0  0  0  0  0  0  0  0  0  0
    8.7940  -14.5625   26.1624 C   0  0  2  0  0  0  0  0  0  0  0  0
    8.3806  -15.1746   24.9239 N   0  0  0  0  0  0  0  0  0  0  0  0
    8.5624  -15.5289   27.2630 C   0  0  0  0  0  0  0  0  0  0  0  0
    7.9052  -16.6016   27.0681 O   0  0  0  0  0  0  0  0  0  0  0  0
    9.0684  -15.2641   28.5273 O   0  0  0  0  0  0  0  0  0  0  0  0
  2  1  1  6
  2  4  1  0
  2  3  1  0
  4  5  1  6
  6  8  1  0
  6  4  1  0
  7  6  2  0
  9  8  1  0
  9 13  1  0
  9 10  1  6
 11 15  1  0
 11 10  1  0
 12 11  2  0
 13 21  1  0
 14 13  2  0
 17 16  1  0
 18 17  1  0
 18 19  1  6
 20 18  1  0
 20 22  1  0
 20 21  1  6
 22 23  2  0
 22 24  1  0
M  END
$$$$
