TDI.pdb
     RDKit          3D

 24 23  0  0  1  0  0  0  0  0999 V2000
    7.3637  -13.0012   19.9884 C   0  0  0  0  0  0  0  0  0  0  0  0
    8.4404  -13.7767   19.2900 C   0  0  1  0  0  0  0  0  0  0  0  0
    9.6775  -13.3871   19.7405 O   0  0  0  0  0  0  0  0  0  0  0  0
    8.1915  -15.2645   19.4674 C   0  0  2  0  0  0  0  0  0  0  0  0
    6.9551  -15.6704   18.8590 N   0  0  0  0  0  0  0  0  0  0  0  0
    8.2753  -15.6620   20.8962 C   0  0  0  0  0  0  0  0  0  0  0  0
    7.2469  -15.5589   21.6133 O   0  0  0  0  0  0  0  0  0  0  0  0
    9.4610  -16.1568   21.5057 N   0  0  0  0  0  0  0  0  0  0  0  0
    9.4957  -16.5715   22.8847 C   0  0  1  0  0  0  0  0  0  0  0  0
   10.5683  -17.5969   23.1000 C   0  0  0  0  0  0  0  0  0  0  0  0
   10.0863  -18.9816   23.0475 C   0  0  0  0  0  0  0  0  0  0  0  0
    8.8499  -19.1739   23.1847 O   0  0  0  0  0  0  0  0  0  0  0  0
    9.5959  -15.4248   23.8189 C   0  0  0  0  0  0  0  0  0  0  0  0
   10.5754  -14.6474   23.6849 O   0  0  0  0  0  0  0  0  0  0  0  0
   10.8848  -20.0792   22.8602 O   0  0  0  0  0  0  0  0  0  0  0  0
    5.9011  -12.2605   27.2313 C   0  0  0  0  0  0  0  0  0  0  0  0
    6.5993  -13.5158   26.7656 C   0  0  0  0  0  0  0  0  0  0  0  0
    7.7031  -13.1353   25.8081 C   0  0  2  0  0  0  0  0  0  0  0  0
    7.0999  -13.1315   24.4174 C   0  0  0  0  0  0  0  0  0  0  0  0
    8.8315  -14.1313   25.8027 C   0  0  2  0  0  0  0  0  0  0  0  0
    8.6355  -15.1863   24.8393 N   0  0  0  0  0  0  0  0  0  0  0  0
    8.8975  -14.7375   27.1544 C   0  0  0  0  0  0  0  0  0  0  0  0
    9.2588  -14.0524   28.1648 O   0  0  0  0  0  0  0  0  0  0  0  0
    8.5609  -16.0724   27.3257 O   0  0  0  0  0  0  0  0  0  0  0  0
  2  1  1  1
  2  4  1  0
  2  3  1  0
  4  5  1  1
  6  8  1  0
  6  4  1  0
  7  6  2  0
  9  8  1  0
  9 13  1  0
  9 10  1  6
 11 15  1  0
 11 10  1  0
 12 11  2  0
 13 21  1  0
 14 13  2  0
 17 16  1  0
 18 17  1  0
 18 19  1  6
 20 18  1  0
 20 22  1  0
 20 21  1  6
 22 23  2  0
 22 24  1  0
M  END
$$$$
