TDI.pdb
     RDKit          3D

 24 23  0  0  1  0  0  0  0  0999 V2000
    8.2680  -12.7566   18.3397 C   0  0  0  0  0  0  0  0  0  0  0  0
    8.4970  -13.3759   19.6860 C   0  0  1  0  0  0  0  0  0  0  0  0
    7.9544  -12.5888   20.6715 O   0  0  0  0  0  0  0  0  0  0  0  0
    7.9467  -14.7916   19.6944 C   0  0  2  0  0  0  0  0  0  0  0  0
    6.5739  -14.8281   19.2729 N   0  0  0  0  0  0  0  0  0  0  0  0
    8.1506  -15.4452   21.0126 C   0  0  0  0  0  0  0  0  0  0  0  0
    7.1837  -15.5006   21.8154 O   0  0  0  0  0  0  0  0  0  0  0  0
    9.3861  -16.0169   21.4231 N   0  0  0  0  0  0  0  0  0  0  0  0
    9.5686  -16.5810   22.7359 C   0  0  1  0  0  0  0  0  0  0  0  0
   10.7349  -17.5232   22.7475 C   0  0  0  0  0  0  0  0  0  0  0  0
   10.5872  -18.6636   21.8363 C   0  0  0  0  0  0  0  0  0  0  0  0
    9.5784  -19.4016   21.9853 O   0  0  0  0  0  0  0  0  0  0  0  0
    9.6526  -15.5436   23.7917 C   0  0  0  0  0  0  0  0  0  0  0  0
   10.5557  -14.6749   23.6849 O   0  0  0  0  0  0  0  0  0  0  0  0
   11.4676  -18.9823   20.8360 O   0  0  0  0  0  0  0  0  0  0  0  0
    6.8130  -11.5550   27.0467 C   0  0  0  0  0  0  0  0  0  0  0  0
    7.8842  -12.6103   27.1859 C   0  0  0  0  0  0  0  0  0  0  0  0
    7.7268  -13.6172   26.0718 C   0  0  2  0  0  0  0  0  0  0  0  0
    6.5375  -14.4874   26.4275 C   0  0  0  0  0  0  0  0  0  0  0  0
    8.9206  -14.5245   25.9406 C   0  0  2  0  0  0  0  0  0  0  0  0
    8.7592  -15.5060   24.8966 N   0  0  0  0  0  0  0  0  0  0  0  0
    9.0837  -15.2358   27.2315 C   0  0  0  0  0  0  0  0  0  0  0  0
    9.3829  -14.6051   28.2961 O   0  0  0  0  0  0  0  0  0  0  0  0
    8.9084  -16.6110   27.2848 O   0  0  0  0  0  0  0  0  0  0  0  0
  2  1  1  6
  2  4  1  0
  2  3  1  0
  4  5  1  1
  6  8  1  0
  6  4  1  0
  7  6  2  0
  9  8  1  0
  9 13  1  0
  9 10  1  6
 11 15  1  0
 11 10  1  0
 12 11  2  0
 13 21  1  0
 14 13  2  0
 17 16  1  0
 18 17  1  0
 18 19  1  1
 20 18  1  0
 20 22  1  0
 20 21  1  6
 22 23  2  0
 22 24  1  0
M  END
$$$$
