DYD.pdb
     RDKit          3D

 29 29  0  0  1  0  0  0  0  0999 V2000
   21.6940  -11.3972  -17.6311 N   0  0  0  0  0  0  0  0  0  0  0  0
   20.5931  -11.0876  -18.4971 C   0  0  1  0  0  0  0  0  0  0  0  0
   20.0261  -12.3773  -19.0845 C   0  0  0  0  0  0  0  0  0  0  0  0
   21.0969  -13.1397  -19.7709 C   0  0  0  0  0  0  0  0  0  0  0  0
   21.8247  -12.5743  -20.6086 O   0  0  0  0  0  0  0  0  0  0  0  0
   19.4838  -10.4311  -17.7527 C   0  0  0  0  0  0  0  0  0  0  0  0
   18.4598  -10.0712  -18.3883 O   0  0  0  0  0  0  0  0  0  0  0  0
   21.2519  -14.4792  -19.4492 O   0  0  0  0  0  0  0  0  0  0  0  0
   15.5100  -15.2285  -15.7522 O   0  0  0  0  0  0  0  0  0  0  0  0
   16.2276  -14.0836  -15.4197 C   0  0  0  0  0  0  0  0  0  0  0  0
   17.5962  -14.1231  -15.2545 C   0  0  0  0  0  0  0  0  0  0  0  0
   18.2544  -12.9490  -14.9234 C   0  0  0  0  0  0  0  0  0  0  0  0
   17.5669  -11.7741  -14.7625 C   0  0  0  0  0  0  0  0  0  0  0  0
   18.2865  -10.5533  -14.4083 C   0  0  0  0  0  0  0  0  0  0  0  0
   18.5184   -9.6197  -15.5842 C   0  0  2  0  0  0  0  0  0  0  0  0
   19.6028  -10.2259  -16.3517 N   0  0  0  0  0  0  0  0  0  0  0  0
   18.9436   -8.2949  -15.1095 C   0  0  0  0  0  0  0  0  0  0  0  0
   18.1419   -7.5803  -14.4250 O   0  0  0  0  0  0  0  0  0  0  0  0
   16.1964  -11.7367  -14.9284 C   0  0  0  0  0  0  0  0  0  0  0  0
   15.5438  -12.8916  -15.2548 C   0  0  0  0  0  0  0  0  0  0  0  0
   20.2237   -7.7393  -15.3679 N   0  0  0  0  0  0  0  0  0  0  0  0
   20.5351   -6.3732  -14.9255 C   0  0  1  0  0  0  0  0  0  0  0  0
   21.6130   -6.4887  -13.9017 C   0  0  0  0  0  0  0  0  0  0  0  0
   22.1265   -5.2395  -13.3497 C   0  0  0  0  0  0  0  0  0  0  0  0
   21.6606   -4.6923  -12.3519 O   0  0  0  0  0  0  0  0  0  0  0  0
   20.9267   -5.5603  -16.1086 C   0  0  0  0  0  0  0  0  0  0  0  0
   21.1648   -6.1167  -17.2340 O   0  0  0  0  0  0  0  0  0  0  0  0
   23.2173   -4.5991  -13.9720 O   0  0  0  0  0  0  0  0  0  0  0  0
   21.0567   -4.1966  -16.0835 O   0  0  0  0  0  0  0  0  0  0  0  0
  2  1  1  1
  2  3  1  0
  4  3  1  0
  4  8  1  0
  5  4  2  0
  6  2  1  0
  6  7  2  0
  9 10  1  0
 10 20  2  0
 10 11  1  0
 11 12  2  0
 12 13  1  0
 13 14  1  0
 15 14  1  1
 15 16  1  0
 16  6  1  0
 17 15  1  0
 18 17  2  0
 19 13  2  0
 20 19  1  0
 21 17  1  0
 22 21  1  0
 22 23  1  1
 23 24  1  0
 24 28  1  0
 24 25  2  0
 26 22  1  0
 27 26  2  0
 29 26  1  0
M  END
$$$$
