DYD.pdb
     RDKit          3D

 29 29  0  0  1  0  0  0  0  0999 V2000
   13.9354  -11.6221  -11.7222 N   0  0  0  0  0  0  0  0  0  0  0  0
   15.1480  -10.8623  -11.8236 C   0  0  1  0  0  0  0  0  0  0  0  0
   15.6202  -10.8441  -13.2750 C   0  0  0  0  0  0  0  0  0  0  0  0
   16.3013  -12.1190  -13.6063 C   0  0  0  0  0  0  0  0  0  0  0  0
   16.3897  -13.0185  -12.7497 O   0  0  0  0  0  0  0  0  0  0  0  0
   14.9361   -9.4444  -11.4234 C   0  0  0  0  0  0  0  0  0  0  0  0
   13.8659   -8.8754  -11.7596 O   0  0  0  0  0  0  0  0  0  0  0  0
   16.8245  -12.2659  -14.8817 O   0  0  0  0  0  0  0  0  0  0  0  0
   11.1617   -7.1044   -6.0022 O   0  0  0  0  0  0  0  0  0  0  0  0
   12.3542   -7.1752   -6.7159 C   0  0  0  0  0  0  0  0  0  0  0  0
   12.7661   -8.3545   -7.3004 C   0  0  0  0  0  0  0  0  0  0  0  0
   13.9637   -8.3612   -7.9982 C   0  0  0  0  0  0  0  0  0  0  0  0
   14.7246   -7.2262   -8.1079 C   0  0  0  0  0  0  0  0  0  0  0  0
   15.9850   -7.2644   -8.8451 C   0  0  0  0  0  0  0  0  0  0  0  0
   15.8075   -7.3504  -10.3516 C   0  0  2  0  0  0  0  0  0  0  0  0
   15.9379   -8.7681  -10.6764 N   0  0  0  0  0  0  0  0  0  0  0  0
   16.8690   -6.5977  -11.0356 C   0  0  0  0  0  0  0  0  0  0  0  0
   17.9922   -7.1529  -11.2641 O   0  0  0  0  0  0  0  0  0  0  0  0
   14.3102   -6.0463   -7.5218 C   0  0  0  0  0  0  0  0  0  0  0  0
   13.1305   -6.0354   -6.8332 C   0  0  0  0  0  0  0  0  0  0  0  0
   16.7259   -5.2553  -11.4731 N   0  0  0  0  0  0  0  0  0  0  0  0
   17.6880   -4.6863  -12.4267 C   0  0  1  0  0  0  0  0  0  0  0  0
   17.7068   -5.5931  -13.6102 C   0  0  0  0  0  0  0  0  0  0  0  0
   18.4493   -5.1289  -14.7774 C   0  0  0  0  0  0  0  0  0  0  0  0
   19.5765   -4.6411  -14.7190 O   0  0  0  0  0  0  0  0  0  0  0  0
   17.2775   -3.2941  -12.7538 C   0  0  0  0  0  0  0  0  0  0  0  0
   18.0716   -2.5066  -13.3718 O   0  0  0  0  0  0  0  0  0  0  0  0
   17.8694   -5.2317  -16.0582 O   0  0  0  0  0  0  0  0  0  0  0  0
   16.0553   -2.7667  -12.4290 O   0  0  0  0  0  0  0  0  0  0  0  0
  2  1  1  6
  2  3  1  0
  4  3  1  0
  4  8  1  0
  5  4  2  0
  6  2  1  0
  6  7  2  0
  9 10  1  0
 10 20  2  0
 10 11  1  0
 11 12  2  0
 12 13  1  0
 13 14  1  0
 15 14  1  1
 15 16  1  0
 16  6  1  0
 17 15  1  0
 18 17  2  0
 19 13  2  0
 20 19  1  0
 21 17  1  0
 22 21  1  0
 22 23  1  6
 23 24  1  0
 24 28  1  0
 24 25  2  0
 26 22  1  0
 27 26  2  0
 29 26  1  0
M  END
$$$$
