DYD.pdb
     RDKit          3D

 29 29  0  0  1  0  0  0  0  0999 V2000
   25.8885   -6.5380  -17.3462 N   0  0  0  0  0  0  0  0  0  0  0  0
   25.8397   -6.7424  -18.7652 C   0  0  1  0  0  0  0  0  0  0  0  0
   26.0992   -5.4197  -19.4816 C   0  0  0  0  0  0  0  0  0  0  0  0
   24.8389   -4.6471  -19.5994 C   0  0  0  0  0  0  0  0  0  0  0  0
   23.7901   -5.0855  -19.0909 O   0  0  0  0  0  0  0  0  0  0  0  0
   26.8972   -7.6886  -19.2149 C   0  0  0  0  0  0  0  0  0  0  0  0
   27.0043   -7.9350  -20.4437 O   0  0  0  0  0  0  0  0  0  0  0  0
   24.8748   -3.4423  -20.2842 O   0  0  0  0  0  0  0  0  0  0  0  0
   34.3294  -12.3810  -18.3870 O   0  0  0  0  0  0  0  0  0  0  0  0
   33.2067  -11.5908  -18.1595 C   0  0  0  0  0  0  0  0  0  0  0  0
   32.1362  -12.0661  -17.4316 C   0  0  0  0  0  0  0  0  0  0  0  0
   31.0468  -11.2308  -17.2395 C   0  0  0  0  0  0  0  0  0  0  0  0
   31.0284   -9.9621  -17.7582 C   0  0  0  0  0  0  0  0  0  0  0  0
   29.8644   -9.1059  -17.5440 C   0  0  0  0  0  0  0  0  0  0  0  0
   28.8433   -9.1736  -18.6670 C   0  0  2  0  0  0  0  0  0  0  0  0
   27.7565   -8.2891  -18.2558 N   0  0  0  0  0  0  0  0  0  0  0  0
   28.3261  -10.5427  -18.8065 C   0  0  0  0  0  0  0  0  0  0  0  0
   27.6493  -11.0631  -17.8615 O   0  0  0  0  0  0  0  0  0  0  0  0
   32.1015   -9.4880  -18.4868 C   0  0  0  0  0  0  0  0  0  0  0  0
   33.1772  -10.3080  -18.6785 C   0  0  0  0  0  0  0  0  0  0  0  0
   28.5339  -11.3497  -19.9551 N   0  0  0  0  0  0  0  0  0  0  0  0
   28.0343  -12.7313  -19.9831 C   0  0  1  0  0  0  0  0  0  0  0  0
   27.1271  -12.8359  -21.1618 C   0  0  0  0  0  0  0  0  0  0  0  0
   26.5933  -14.1607  -21.4601 C   0  0  0  0  0  0  0  0  0  0  0  0
   26.8076  -15.1541  -20.7677 O   0  0  0  0  0  0  0  0  0  0  0  0
   29.1932  -13.6624  -20.0432 C   0  0  0  0  0  0  0  0  0  0  0  0
   29.1459  -14.8028  -19.4685 O   0  0  0  0  0  0  0  0  0  0  0  0
   25.7827  -14.3451  -22.5986 O   0  0  0  0  0  0  0  0  0  0  0  0
   30.3621  -13.3785  -20.6991 O   0  0  0  0  0  0  0  0  0  0  0  0
  2  1  1  1
  2  3  1  0
  4  3  1  0
  4  8  1  0
  5  4  2  0
  6  2  1  0
  6  7  2  0
  9 10  1  0
 10 20  2  0
 10 11  1  0
 11 12  2  0
 12 13  1  0
 13 14  1  0
 15 14  1  1
 15 16  1  0
 16  6  1  0
 17 15  1  0
 18 17  2  0
 19 13  2  0
 20 19  1  0
 21 17  1  0
 22 21  1  0
 22 23  1  6
 23 24  1  0
 24 28  1  0
 24 25  2  0
 26 22  1  0
 27 26  2  0
 29 26  1  0
M  END
$$$$
