DYD.pdb
     RDKit          3D

 29 29  0  0  1  0  0  0  0  0999 V2000
   44.5272  -11.9194   -9.6441 N   0  0  0  0  0  0  0  0  0  0  0  0
   43.6895  -12.0014  -10.8057 C   0  0  1  0  0  0  0  0  0  0  0  0
   43.4465  -13.4665  -11.1585 C   0  0  0  0  0  0  0  0  0  0  0  0
   44.7263  -14.1246  -11.5161 C   0  0  0  0  0  0  0  0  0  0  0  0
   45.2761  -14.8969  -10.7086 O   0  0  0  0  0  0  0  0  0  0  0  0
   42.3541  -11.3927  -10.5569 C   0  0  0  0  0  0  0  0  0  0  0  0
   41.4834  -11.4559  -11.4624 O   0  0  0  0  0  0  0  0  0  0  0  0
   45.2744  -13.8510  -12.7598 O   0  0  0  0  0  0  0  0  0  0  0  0
   35.8032   -8.0749   -5.6714 O   0  0  0  0  0  0  0  0  0  0  0  0
   37.0066   -8.6064   -6.1248 C   0  0  0  0  0  0  0  0  0  0  0  0
   37.2509   -9.9627   -6.0740 C   0  0  0  0  0  0  0  0  0  0  0  0
   38.4692  -10.4311   -6.5409 C   0  0  0  0  0  0  0  0  0  0  0  0
   39.4122   -9.5715   -7.0419 C   0  0  0  0  0  0  0  0  0  0  0  0
   40.6893  -10.0932   -7.5221 C   0  0  0  0  0  0  0  0  0  0  0  0
   40.7944  -10.1479   -9.0368 C   0  0  2  0  0  0  0  0  0  0  0  0
   42.0921  -10.7581   -9.3129 N   0  0  0  0  0  0  0  0  0  0  0  0
   40.7683   -8.7906   -9.6008 C   0  0  0  0  0  0  0  0  0  0  0  0
   41.7929   -8.0415   -9.4958 O   0  0  0  0  0  0  0  0  0  0  0  0
   39.1655   -8.2136   -7.0919 C   0  0  0  0  0  0  0  0  0  0  0  0
   37.9661   -7.7479   -6.6329 C   0  0  0  0  0  0  0  0  0  0  0  0
   39.6478   -8.2395  -10.2751 N   0  0  0  0  0  0  0  0  0  0  0  0
   39.6976   -6.8595  -10.7773 C   0  0  1  0  0  0  0  0  0  0  0  0
   40.2050   -6.9303  -12.1776 C   0  0  0  0  0  0  0  0  0  0  0  0
   41.6464   -6.7930  -12.3581 C   0  0  0  0  0  0  0  0  0  0  0  0
   42.2525   -7.2058  -13.3451 O   0  0  0  0  0  0  0  0  0  0  0  0
   38.3415   -6.2571  -10.6684 C   0  0  0  0  0  0  0  0  0  0  0  0
   37.2960   -6.9913  -10.6971 O   0  0  0  0  0  0  0  0  0  0  0  0
   42.4156   -6.1560  -11.3632 O   0  0  0  0  0  0  0  0  0  0  0  0
   38.1166   -4.9124  -10.5322 O   0  0  0  0  0  0  0  0  0  0  0  0
  2  1  1  1
  2  3  1  0
  4  3  1  0
  4  8  1  0
  5  4  2  0
  6  2  1  0
  6  7  2  0
  9 10  1  0
 10 20  2  0
 10 11  1  0
 11 12  2  0
 12 13  1  0
 13 14  1  0
 15 14  1  1
 15 16  1  0
 16  6  1  0
 17 15  1  0
 18 17  2  0
 19 13  2  0
 20 19  1  0
 21 17  1  0
 22 21  1  0
 22 23  1  6
 23 24  1  0
 24 28  1  0
 24 25  2  0
 26 22  1  0
 27 26  2  0
 29 26  1  0
M  END
$$$$
