DYD.pdb
     RDKit          3D

 29 29  0  0  1  0  0  0  0  0999 V2000
   40.4202  -10.9364  -10.1938 N   0  0  0  0  0  0  0  0  0  0  0  0
   40.4207   -9.5025  -10.1542 C   0  0  1  0  0  0  0  0  0  0  0  0
   38.9964   -8.9853  -10.3380 C   0  0  0  0  0  0  0  0  0  0  0  0
   38.5916   -9.0984  -11.7601 C   0  0  0  0  0  0  0  0  0  0  0  0
   39.4065   -9.5067  -12.6087 O   0  0  0  0  0  0  0  0  0  0  0  0
   40.8950   -8.9951   -8.8377 C   0  0  0  0  0  0  0  0  0  0  0  0
   40.4532   -9.5312   -7.7891 O   0  0  0  0  0  0  0  0  0  0  0  0
   37.2964   -8.7389  -12.0995 O   0  0  0  0  0  0  0  0  0  0  0  0
   46.0208  -12.6122   -7.3397 O   0  0  0  0  0  0  0  0  0  0  0  0
   45.4771  -11.3320   -7.3855 C   0  0  0  0  0  0  0  0  0  0  0  0
   44.9682  -10.7329   -6.2524 C   0  0  0  0  0  0  0  0  0  0  0  0
   44.4401   -9.4560   -6.3625 C   0  0  0  0  0  0  0  0  0  0  0  0
   44.4212   -8.7999   -7.5659 C   0  0  0  0  0  0  0  0  0  0  0  0
   43.8535   -7.4568   -7.6528 C   0  0  0  0  0  0  0  0  0  0  0  0
   42.3404   -7.4250   -7.5191 C   0  0  2  0  0  0  0  0  0  0  0  0
   41.8288   -7.9251   -8.7922 N   0  0  0  0  0  0  0  0  0  0  0  0
   41.8734   -6.0456   -7.3185 C   0  0  0  0  0  0  0  0  0  0  0  0
   41.7535   -5.2660   -8.3184 O   0  0  0  0  0  0  0  0  0  0  0  0
   44.9315   -9.4017   -8.6993 C   0  0  0  0  0  0  0  0  0  0  0  0
   45.4530  -10.6600   -8.5952 C   0  0  0  0  0  0  0  0  0  0  0  0
   41.5361   -5.5050   -6.0504 N   0  0  0  0  0  0  0  0  0  0  0  0
   41.1243   -4.0991   -5.9365 C   0  0  1  0  0  0  0  0  0  0  0  0
   40.4510   -3.9549   -4.6140 C   0  0  0  0  0  0  0  0  0  0  0  0
   39.9483   -2.6269   -4.2780 C   0  0  0  0  0  0  0  0  0  0  0  0
   40.0284   -1.6570   -5.0296 O   0  0  0  0  0  0  0  0  0  0  0  0
   42.3232   -3.2312   -6.0886 C   0  0  0  0  0  0  0  0  0  0  0  0
   42.2379   -2.0937   -6.6644 O   0  0  0  0  0  0  0  0  0  0  0  0
   39.3308   -2.4111   -3.0292 O   0  0  0  0  0  0  0  0  0  0  0  0
   43.5705   -3.5734   -5.6365 O   0  0  0  0  0  0  0  0  0  0  0  0
  2  1  1  1
  2  3  1  0
  4  3  1  0
  4  8  1  0
  5  4  2  0
  6  2  1  0
  6  7  2  0
  9 10  1  0
 10 20  2  0
 10 11  1  0
 11 12  2  0
 12 13  1  0
 13 14  1  0
 15 14  1  6
 15 16  1  0
 16  6  1  0
 17 15  1  0
 18 17  2  0
 19 13  2  0
 20 19  1  0
 21 17  1  0
 22 21  1  0
 22 23  1  1
 23 24  1  0
 24 28  1  0
 24 25  2  0
 26 22  1  0
 27 26  2  0
 29 26  1  0
M  END
$$$$
