DYD.pdb
     RDKit          3D

 29 29  0  0  1  0  0  0  0  0999 V2000
   23.6982  -12.2866  -18.9327 N   0  0  0  0  0  0  0  0  0  0  0  0
   24.0234  -11.3642  -17.8833 C   0  0  1  0  0  0  0  0  0  0  0  0
   25.2004  -10.4932  -18.3145 C   0  0  0  0  0  0  0  0  0  0  0  0
   26.4345  -11.3105  -18.4041 C   0  0  0  0  0  0  0  0  0  0  0  0
   26.3897  -12.5331  -18.1719 O   0  0  0  0  0  0  0  0  0  0  0  0
   22.8894  -10.4429  -17.5985 C   0  0  0  0  0  0  0  0  0  0  0  0
   22.0955  -10.1561  -18.5309 O   0  0  0  0  0  0  0  0  0  0  0  0
   27.6154  -10.6717  -18.7497 O   0  0  0  0  0  0  0  0  0  0  0  0
   17.3993  -13.6562  -17.2268 O   0  0  0  0  0  0  0  0  0  0  0  0
   18.2593  -12.7254  -16.6521 C   0  0  0  0  0  0  0  0  0  0  0  0
   19.4162  -13.1222  -16.0148 C   0  0  0  0  0  0  0  0  0  0  0  0
   20.2319  -12.1473  -15.4621 C   0  0  0  0  0  0  0  0  0  0  0  0
   19.9018  -10.8194  -15.5437 C   0  0  0  0  0  0  0  0  0  0  0  0
   20.7781   -9.8143  -14.9473 C   0  0  0  0  0  0  0  0  0  0  0  0
   21.6005   -9.0420  -15.9648 C   0  0  2  0  0  0  0  0  0  0  0  0
   22.7281   -9.9108  -16.2909 N   0  0  0  0  0  0  0  0  0  0  0  0
   22.1063   -7.7947  -15.3733 C   0  0  0  0  0  0  0  0  0  0  0  0
   22.9846   -7.8415  -14.4523 O   0  0  0  0  0  0  0  0  0  0  0  0
   18.7428  -10.4241  -16.1824 C   0  0  0  0  0  0  0  0  0  0  0  0
   17.9360  -11.3818  -16.7285 C   0  0  0  0  0  0  0  0  0  0  0  0
   21.6717   -6.5029  -15.7685 N   0  0  0  0  0  0  0  0  0  0  0  0
   22.2224   -5.3092  -15.1121 C   0  0  1  0  0  0  0  0  0  0  0  0
   21.8063   -4.1368  -15.9341 C   0  0  0  0  0  0  0  0  0  0  0  0
   22.2213   -2.8226  -15.4550 C   0  0  0  0  0  0  0  0  0  0  0  0
   22.9148   -2.6490  -14.4545 O   0  0  0  0  0  0  0  0  0  0  0  0
   21.7252   -5.2564  -13.7108 C   0  0  0  0  0  0  0  0  0  0  0  0
   20.5038   -5.5169  -13.4404 O   0  0  0  0  0  0  0  0  0  0  0  0
   21.8212   -1.6670  -16.1564 O   0  0  0  0  0  0  0  0  0  0  0  0
   22.5135   -4.9359  -12.6369 O   0  0  0  0  0  0  0  0  0  0  0  0
  2  1  1  6
  2  3  1  0
  4  3  1  0
  4  8  1  0
  5  4  2  0
  6  2  1  0
  6  7  2  0
  9 10  1  0
 10 20  2  0
 10 11  1  0
 11 12  2  0
 12 13  1  0
 13 14  1  0
 15 14  1  1
 15 16  1  0
 16  6  1  0
 17 15  1  0
 18 17  2  0
 19 13  2  0
 20 19  1  0
 21 17  1  0
 22 21  1  0
 22 23  1  6
 23 24  1  0
 24 28  1  0
 24 25  2  0
 26 22  1  0
 27 26  2  0
 29 26  1  0
M  END
$$$$
