DPS.pdb
     RDKit          3D

 22 22  0  0  1  0  0  0  0  0999 V2000
    9.9711  -16.6082   16.4737 N   0  0  0  0  0  0  0  0  0  0  0  0
    8.9167  -16.1021   17.3659 C   0  0  1  0  0  0  0  0  0  0  0  0
    7.9004  -17.2536   17.3735 C   0  0  0  0  0  0  0  0  0  0  0  0
    7.5042  -17.4771   15.9597 C   0  0  0  0  0  0  0  0  0  0  0  0
    8.0426  -16.8770   14.9905 O   0  0  0  0  0  0  0  0  0  0  0  0
    9.4486  -15.8425   18.7336 C   0  0  0  0  0  0  0  0  0  0  0  0
   10.2500  -16.6931   19.1662 O   0  0  0  0  0  0  0  0  0  0  0  0
    6.4972  -18.3841   15.6728 O   0  0  0  0  0  0  0  0  0  0  0  0
    9.0911  -14.7294   19.5021 N   0  0  0  0  0  0  0  0  0  0  0  0
    8.9406  -13.3539   18.9268 C   0  0  0  0  0  0  0  0  0  0  0  0
    7.5510  -13.0495   19.4251 C   0  0  0  0  0  0  0  0  0  0  0  0
    7.3812  -13.8729   20.7088 C   0  0  0  0  0  0  0  0  0  0  0  0
    8.7969  -14.4597   20.8606 C   0  0  1  0  0  0  0  0  0  0  0  0
    8.8535  -15.4935   21.8579 C   0  0  0  0  0  0  0  0  0  0  0  0
    7.9541  -16.2876   22.1217 O   0  0  0  0  0  0  0  0  0  0  0  0
   12.5480  -16.8874   22.9398 O   0  0  0  0  0  0  0  0  0  0  0  0
   11.3605  -17.6242   23.0792 C   0  0  0  0  0  0  0  0  0  0  0  0
   10.2452  -16.6974   23.5825 C   0  0  2  0  0  0  0  0  0  0  0  0
   10.0740  -15.6283   22.6340 N   0  0  0  0  0  0  0  0  0  0  0  0
   10.5568  -16.2399   24.9335 C   0  0  0  0  0  0  0  0  0  0  0  0
   10.7156  -15.0225   25.1676 O   0  0  0  0  0  0  0  0  0  0  0  0
   10.6823  -17.1347   25.9761 O   0  0  0  0  0  0  0  0  0  0  0  0
  2  1  1  6
  2  6  1  0
  2  3  1  0
  3  4  1  0
  4  5  2  0
  4  8  1  0
  6  7  2  0
  9  6  1  0
  9 13  1  0
 10  9  1  0
 11 10  1  0
 11 12  1  0
 12 13  1  0
 13 14  1  1
 14 15  2  0
 14 19  1  0
 16 17  1  0
 18 17  1  6
 18 20  1  0
 19 18  1  0
 20 22  1  0
 21 20  2  0
M  END
$$$$
