DPS.pdb
     RDKit          3D

 22 22  0  0  1  0  0  0  0  0999 V2000
    8.2349  -14.7011   15.9703 N   0  0  0  0  0  0  0  0  0  0  0  0
    9.1539  -15.7905   16.3344 C   0  0  1  0  0  0  0  0  0  0  0  0
   10.3854  -15.4972   15.4647 C   0  0  0  0  0  0  0  0  0  0  0  0
   10.2899  -16.3903   14.2818 C   0  0  0  0  0  0  0  0  0  0  0  0
    9.4865  -17.3594   14.2137 O   0  0  0  0  0  0  0  0  0  0  0  0
    9.4940  -15.7448   17.7847 C   0  0  0  0  0  0  0  0  0  0  0  0
   10.1585  -16.7099   18.2089 O   0  0  0  0  0  0  0  0  0  0  0  0
   11.1146  -16.1631   13.1922 O   0  0  0  0  0  0  0  0  0  0  0  0
    9.1081  -14.7033   18.6352 N   0  0  0  0  0  0  0  0  0  0  0  0
    8.7847  -13.3249   18.1443 C   0  0  0  0  0  0  0  0  0  0  0  0
    7.4232  -13.1728   18.7728 C   0  0  0  0  0  0  0  0  0  0  0  0
    7.4423  -14.0617   20.0235 C   0  0  0  0  0  0  0  0  0  0  0  0
    8.9126  -14.5196   20.0255 C   0  0  1  0  0  0  0  0  0  0  0  0
    9.1498  -15.5845   20.9616 C   0  0  0  0  0  0  0  0  0  0  0  0
    8.4746  -16.6044   21.0759 O   0  0  0  0  0  0  0  0  0  0  0  0
   12.9565  -15.9639   22.6924 O   0  0  0  0  0  0  0  0  0  0  0  0
   12.0429  -17.0059   22.4644 C   0  0  0  0  0  0  0  0  0  0  0  0
   10.6242  -16.5149   22.7839 C   0  0  2  0  0  0  0  0  0  0  0  0
   10.2836  -15.4636   21.8615 N   0  0  0  0  0  0  0  0  0  0  0  0
   10.5452  -16.1147   24.1858 C   0  0  0  0  0  0  0  0  0  0  0  0
   10.8019  -16.9355   25.0928 O   0  0  0  0  0  0  0  0  0  0  0  0
   10.1880  -14.8300   24.5396 O   0  0  0  0  0  0  0  0  0  0  0  0
  2  1  1  1
  2  6  1  0
  2  3  1  0
  3  4  1  0
  4  5  2  0
  4  8  1  0
  6  7  2  0
  9  6  1  0
  9 13  1  0
 10  9  1  0
 11 10  1  0
 11 12  1  0
 12 13  1  0
 13 14  1  1
 14 15  2  0
 14 19  1  0
 16 17  1  0
 18 17  1  6
 18 20  1  0
 19 18  1  0
 20 22  1  0
 21 20  2  0
M  END
$$$$
