DPS.pdb
     RDKit          3D

 22 22  0  0  1  0  0  0  0  0999 V2000
    9.7294  -17.2150   20.4953 N   0  0  0  0  0  0  0  0  0  0  0  0
   10.9194  -17.5255   21.3024 C   0  0  1  0  0  0  0  0  0  0  0  0
   12.0675  -17.0115   20.4211 C   0  0  0  0  0  0  0  0  0  0  0  0
   12.2623  -18.0213   19.3495 C   0  0  0  0  0  0  0  0  0  0  0  0
   11.7957  -17.8893   18.1858 O   0  0  0  0  0  0  0  0  0  0  0  0
   10.8826  -16.8127   22.6107 C   0  0  0  0  0  0  0  0  0  0  0  0
   11.9311  -16.8719   23.2816 O   0  0  0  0  0  0  0  0  0  0  0  0
   12.9884  -19.1689   19.6230 O   0  0  0  0  0  0  0  0  0  0  0  0
    9.7629  -16.1169   23.0791 N   0  0  0  0  0  0  0  0  0  0  0  0
    8.7293  -15.5255   22.1695 C   0  0  0  0  0  0  0  0  0  0  0  0
    7.5030  -16.1568   22.7773 C   0  0  0  0  0  0  0  0  0  0  0  0
    7.8505  -16.4022   24.2516 C   0  0  0  0  0  0  0  0  0  0  0  0
    9.2337  -15.7304   24.3342 C   0  0  1  0  0  0  0  0  0  0  0  0
    9.9164  -16.0391   25.5611 C   0  0  0  0  0  0  0  0  0  0  0  0
   10.3420  -17.1440   25.8883 O   0  0  0  0  0  0  0  0  0  0  0  0
    9.6644  -13.2441   28.5524 O   0  0  0  0  0  0  0  0  0  0  0  0
   10.9290  -13.8532   28.5053 C   0  0  0  0  0  0  0  0  0  0  0  0
   10.8206  -15.1887   27.7565 C   0  0  2  0  0  0  0  0  0  0  0  0
   10.1325  -14.9629   26.5125 N   0  0  0  0  0  0  0  0  0  0  0  0
   10.1777  -16.1823   28.6114 C   0  0  0  0  0  0  0  0  0  0  0  0
    9.0243  -16.5880   28.3519 O   0  0  0  0  0  0  0  0  0  0  0  0
   10.8240  -16.6932   29.7181 O   0  0  0  0  0  0  0  0  0  0  0  0
  2  1  1  6
  2  6  1  0
  2  3  1  0
  3  4  1  0
  4  5  2  0
  4  8  1  0
  6  7  2  0
  9  6  1  0
  9 13  1  0
 10  9  1  0
 11 10  1  0
 11 12  1  0
 12 13  1  0
 13 14  1  1
 14 15  2  0
 14 19  1  0
 16 17  1  0
 18 17  1  1
 18 20  1  0
 19 18  1  0
 20 22  1  0
 21 20  2  0
M  END
$$$$
