DPS.pdb
     RDKit          3D

 22 22  0  0  1  0  0  0  0  0999 V2000
    9.9514  -15.3603   14.9923 N   0  0  0  0  0  0  0  0  0  0  0  0
    9.0313  -15.4847   16.1331 C   0  0  1  0  0  0  0  0  0  0  0  0
    8.6267  -16.9655   16.0797 C   0  0  0  0  0  0  0  0  0  0  0  0
    7.9404  -17.1694   14.7784 C   0  0  0  0  0  0  0  0  0  0  0  0
    6.6957  -17.0379   14.6283 O   0  0  0  0  0  0  0  0  0  0  0  0
    9.7173  -15.1586   17.4153 C   0  0  0  0  0  0  0  0  0  0  0  0
   10.8357  -15.6853   17.5725 O   0  0  0  0  0  0  0  0  0  0  0  0
    8.6870  -17.5211   13.6658 O   0  0  0  0  0  0  0  0  0  0  0  0
    9.1684  -14.3221   18.3931 N   0  0  0  0  0  0  0  0  0  0  0  0
    8.5476  -12.9951   18.0781 C   0  0  0  0  0  0  0  0  0  0  0  0
    7.2154  -13.2010   18.7524 C   0  0  0  0  0  0  0  0  0  0  0  0
    7.4752  -14.2008   19.8872 C   0  0  0  0  0  0  0  0  0  0  0  0
    9.0064  -14.3399   19.7996 C   0  0  1  0  0  0  0  0  0  0  0  0
    9.5003  -15.4301   20.5959 C   0  0  0  0  0  0  0  0  0  0  0  0
    9.1838  -16.6107   20.4731 O   0  0  0  0  0  0  0  0  0  0  0  0
   12.9834  -16.7819   23.6842 O   0  0  0  0  0  0  0  0  0  0  0  0
   12.3833  -15.7250   22.9803 C   0  0  0  0  0  0  0  0  0  0  0  0
   10.9992  -16.1670   22.4855 C   0  0  2  0  0  0  0  0  0  0  0  0
   10.4599  -15.1308   21.6445 N   0  0  0  0  0  0  0  0  0  0  0  0
   10.1507  -16.4985   23.6264 C   0  0  0  0  0  0  0  0  0  0  0  0
   10.3840  -17.5166   24.3129 O   0  0  0  0  0  0  0  0  0  0  0  0
    9.0789  -15.7011   23.9711 O   0  0  0  0  0  0  0  0  0  0  0  0
  2  1  1  6
  2  6  1  0
  2  3  1  0
  3  4  1  0
  4  5  2  0
  4  8  1  0
  6  7  2  0
  9  6  1  0
  9 13  1  0
 10  9  1  0
 11 10  1  0
 11 12  1  0
 12 13  1  0
 13 14  1  6
 14 15  2  0
 14 19  1  0
 16 17  1  0
 18 17  1  1
 18 20  1  0
 19 18  1  0
 20 22  1  0
 21 20  2  0
M  END
$$$$
