DPS.pdb
     RDKit          3D

 22 22  0  0  1  0  0  0  0  0999 V2000
   10.2889  -15.2924   15.2946 N   0  0  0  0  0  0  0  0  0  0  0  0
    9.2289  -15.4180   16.3067 C   0  0  1  0  0  0  0  0  0  0  0  0
    8.7304  -16.8554   16.0959 C   0  0  0  0  0  0  0  0  0  0  0  0
    8.0807  -16.8859   14.7607 C   0  0  0  0  0  0  0  0  0  0  0  0
    8.6617  -16.5199   13.7035 O   0  0  0  0  0  0  0  0  0  0  0  0
    9.7734  -15.2317   17.6815 C   0  0  0  0  0  0  0  0  0  0  0  0
   10.7808  -15.9126   17.9545 O   0  0  0  0  0  0  0  0  0  0  0  0
    6.7746  -17.3347   14.6522 O   0  0  0  0  0  0  0  0  0  0  0  0
    9.2137  -14.3598   18.6214 N   0  0  0  0  0  0  0  0  0  0  0  0
    8.6887  -13.0022   18.2653 C   0  0  0  0  0  0  0  0  0  0  0  0
    7.3084  -13.1292   18.8574 C   0  0  0  0  0  0  0  0  0  0  0  0
    7.4421  -14.1348   20.0088 C   0  0  0  0  0  0  0  0  0  0  0  0
    8.9656  -14.3598   20.0155 C   0  0  1  0  0  0  0  0  0  0  0  0
    9.3481  -15.4708   20.8435 C   0  0  0  0  0  0  0  0  0  0  0  0
    8.8239  -16.5818   20.8424 O   0  0  0  0  0  0  0  0  0  0  0  0
   13.0629  -16.0962   21.8534 O   0  0  0  0  0  0  0  0  0  0  0  0
   12.3167  -16.1431   23.0423 C   0  0  0  0  0  0  0  0  0  0  0  0
   10.8301  -16.3153   22.7011 C   0  0  2  0  0  0  0  0  0  0  0  0
   10.4502  -15.2844   21.7712 N   0  0  0  0  0  0  0  0  0  0  0  0
   10.0400  -16.3192   23.9288 C   0  0  0  0  0  0  0  0  0  0  0  0
    9.2022  -15.4170   24.1441 O   0  0  0  0  0  0  0  0  0  0  0  0
   10.1987  -17.3120   24.8736 O   0  0  0  0  0  0  0  0  0  0  0  0
  2  1  1  6
  2  6  1  0
  2  3  1  0
  3  4  1  0
  4  5  2  0
  4  8  1  0
  6  7  2  0
  9  6  1  0
  9 13  1  0
 10  9  1  0
 11 10  1  0
 11 12  1  0
 12 13  1  0
 13 14  1  6
 14 15  2  0
 14 19  1  0
 16 17  1  0
 18 17  1  1
 18 20  1  0
 19 18  1  0
 20 22  1  0
 21 20  2  0
M  END
$$$$
