DPS.pdb
     RDKit          3D

 22 22  0  0  1  0  0  0  0  0999 V2000
   10.1556  -15.7708   15.4507 N   0  0  0  0  0  0  0  0  0  0  0  0
    9.0690  -15.6201   16.4307 C   0  0  1  0  0  0  0  0  0  0  0  0
    8.3112  -16.9497   16.3007 C   0  0  0  0  0  0  0  0  0  0  0  0
    7.8105  -17.0160   14.9040 C   0  0  0  0  0  0  0  0  0  0  0  0
    6.9119  -16.2529   14.4576 O   0  0  0  0  0  0  0  0  0  0  0  0
    9.6086  -15.4388   17.8081 C   0  0  0  0  0  0  0  0  0  0  0  0
   10.4869  -16.2540   18.1500 O   0  0  0  0  0  0  0  0  0  0  0  0
    8.3444  -17.9545   14.0361 O   0  0  0  0  0  0  0  0  0  0  0  0
    9.1783  -14.4320   18.6789 N   0  0  0  0  0  0  0  0  0  0  0  0
    8.9592  -13.0147   18.2445 C   0  0  0  0  0  0  0  0  0  0  0  0
    7.5477  -12.8392   18.7433 C   0  0  0  0  0  0  0  0  0  0  0  0
    7.4059  -13.7987   19.9324 C   0  0  0  0  0  0  0  0  0  0  0  0
    8.8499  -14.3203   20.0517 C   0  0  1  0  0  0  0  0  0  0  0  0
    8.9501  -15.4469   20.9391 C   0  0  0  0  0  0  0  0  0  0  0  0
    8.1226  -16.3476   21.0532 O   0  0  0  0  0  0  0  0  0  0  0  0
   12.6779  -16.6747   22.3491 O   0  0  0  0  0  0  0  0  0  0  0  0
   11.5231  -17.4665   22.2402 C   0  0  0  0  0  0  0  0  0  0  0  0
   10.3045  -16.6506   22.6932 C   0  0  2  0  0  0  0  0  0  0  0  0
   10.1267  -15.5483   21.7848 N   0  0  0  0  0  0  0  0  0  0  0  0
   10.4738  -16.2434   24.0850 C   0  0  0  0  0  0  0  0  0  0  0  0
   10.6047  -15.0355   24.3787 O   0  0  0  0  0  0  0  0  0  0  0  0
   10.4932  -17.1759   25.1016 O   0  0  0  0  0  0  0  0  0  0  0  0
  2  1  1  6
  2  6  1  0
  2  3  1  0
  3  4  1  0
  4  5  2  0
  4  8  1  0
  6  7  2  0
  9  6  1  0
  9 13  1  0
 10  9  1  0
 11 10  1  0
 11 12  1  0
 12 13  1  0
 13 14  1  6
 14 15  2  0
 14 19  1  0
 16 17  1  0
 18 17  1  6
 18 20  1  0
 19 18  1  0
 20 22  1  0
 21 20  2  0
M  END
$$$$
