DPS.pdb
     RDKit          3D

 22 22  0  0  1  0  0  0  0  0999 V2000
   10.2591  -15.6673   15.5013 N   0  0  0  0  0  0  0  0  0  0  0  0
    9.1723  -15.2813   16.4143 C   0  0  1  0  0  0  0  0  0  0  0  0
    8.1835  -16.4482   16.2734 C   0  0  0  0  0  0  0  0  0  0  0  0
    7.8679  -16.5624   14.8266 C   0  0  0  0  0  0  0  0  0  0  0  0
    7.8801  -15.5779   14.0393 O   0  0  0  0  0  0  0  0  0  0  0  0
    9.6653  -15.1579   17.8153 C   0  0  0  0  0  0  0  0  0  0  0  0
   10.6021  -15.9204   18.1217 O   0  0  0  0  0  0  0  0  0  0  0  0
    7.5426  -17.8013   14.2992 O   0  0  0  0  0  0  0  0  0  0  0  0
    9.1330  -14.2572   18.7440 N   0  0  0  0  0  0  0  0  0  0  0  0
    8.8142  -12.8317   18.4094 C   0  0  0  0  0  0  0  0  0  0  0  0
    7.3801  -12.8042   18.8727 C   0  0  0  0  0  0  0  0  0  0  0  0
    7.2824  -13.8604   19.9816 C   0  0  0  0  0  0  0  0  0  0  0  0
    8.7594  -14.2770   20.1096 C   0  0  1  0  0  0  0  0  0  0  0  0
    8.9243  -15.4574   20.9133 C   0  0  0  0  0  0  0  0  0  0  0  0
    8.1390  -16.4001   20.9752 O   0  0  0  0  0  0  0  0  0  0  0  0
   12.7620  -16.4583   22.2134 O   0  0  0  0  0  0  0  0  0  0  0  0
   11.7116  -17.3634   21.9901 C   0  0  0  0  0  0  0  0  0  0  0  0
   10.3988  -16.7515   22.4981 C   0  0  2  0  0  0  0  0  0  0  0  0
   10.1189  -15.5651   21.7327 N   0  0  0  0  0  0  0  0  0  0  0  0
   10.4892  -16.5152   23.9360 C   0  0  0  0  0  0  0  0  0  0  0  0
   10.6951  -17.4658   24.7210 O   0  0  0  0  0  0  0  0  0  0  0  0
   10.3503  -15.2458   24.4582 O   0  0  0  0  0  0  0  0  0  0  0  0
  2  1  1  6
  2  6  1  0
  2  3  1  0
  3  4  1  0
  4  5  2  0
  4  8  1  0
  6  7  2  0
  9  6  1  0
  9 13  1  0
 10  9  1  0
 11 10  1  0
 11 12  1  0
 12 13  1  0
 13 14  1  6
 14 15  2  0
 14 19  1  0
 16 17  1  0
 18 17  1  6
 18 20  1  0
 19 18  1  0
 20 22  1  0
 21 20  2  0
M  END
$$$$
