QSW.pdb
     RDKit          3D

 30 31  0  0  1  0  0  0  0  0999 V2000
    6.9722  -14.7643   15.7700 N   0  0  0  0  0  0  0  0  0  0  0  0
    8.0665  -14.1030   16.3630 C   0  0  0  0  0  0  0  0  0  0  0  0
    9.2388  -14.4123   16.0074 O   0  0  0  0  0  0  0  0  0  0  0  0
    7.8925  -13.0405   17.3997 C   0  0  0  0  0  0  0  0  0  0  0  0
    7.7424  -13.7460   18.7162 C   0  0  0  0  0  0  0  0  0  0  0  0
    9.0291  -13.8606   19.5140 C   0  0  2  0  0  0  0  0  0  0  0  0
   10.0286  -14.4748   18.6159 N   0  0  0  0  0  0  0  0  0  0  0  0
    8.7985  -14.8300   20.6181 C   0  0  0  0  0  0  0  0  0  0  0  0
    7.8875  -14.5899   21.4630 O   0  0  0  0  0  0  0  0  0  0  0  0
   11.4868  -17.8733   21.1827 O   0  0  0  0  0  0  0  0  0  0  0  0
   10.1844  -18.2474   21.5043 C   0  0  0  0  0  0  0  0  0  0  0  0
    9.4250  -16.9556   21.8347 C   0  0  2  0  0  0  0  0  0  0  0  0
    9.5430  -16.0116   20.7736 N   0  0  0  0  0  0  0  0  0  0  0  0
    9.9640  -16.5008   23.1222 C   0  0  0  0  0  0  0  0  0  0  0  0
   11.0526  -15.8162   23.0153 O   0  0  0  0  0  0  0  0  0  0  0  0
    9.3912  -16.7498   24.3897 N   0  0  0  0  0  0  0  0  0  0  0  0
   10.1374  -16.4045   25.5711 C   0  0  1  0  0  0  0  0  0  0  0  0
    9.8811  -14.9809   25.9947 C   0  0  0  0  0  0  0  0  0  0  0  0
    8.4730  -14.5907   26.1012 C   0  0  0  0  0  0  0  0  0  0  0  0
    7.4297  -15.5345   26.0199 C   0  0  0  0  0  0  0  0  0  0  0  0
    6.2658  -14.8875   26.1838 N   0  0  0  0  0  0  0  0  0  0  0  0
    6.4741  -13.5813   26.3683 C   0  0  0  0  0  0  0  0  0  0  0  0
    5.6187  -12.5281   26.5693 C   0  0  0  0  0  0  0  0  0  0  0  0
    6.1722  -11.2805   26.7167 C   0  0  0  0  0  0  0  0  0  0  0  0
    7.5174  -11.0226   26.6744 C   0  0  0  0  0  0  0  0  0  0  0  0
    8.3555  -12.1168   26.4680 C   0  0  0  0  0  0  0  0  0  0  0  0
    7.8386  -13.4061   26.3144 C   0  0  0  0  0  0  0  0  0  0  0  0
    9.9537  -17.4026   26.6244 C   0  0  0  0  0  0  0  0  0  0  0  0
    9.1418  -18.3756   26.5581 O   0  0  0  0  0  0  0  0  0  0  0  0
   10.6966  -17.3343   27.8006 O   0  0  0  0  0  0  0  0  0  0  0  0
  2  1  1  0
  3  2  2  0
  4  2  1  0
  5  6  1  0
  5  4  1  0
  6  8  1  0
  6  7  1  6
  8  9  2  0
 10 11  1  0
 12 11  1  6
 12 14  1  0
 13  8  1  0
 13 12  1  0
 14 15  2  0
 16 17  1  0
 16 14  1  0
 17 28  1  0
 17 18  1  1
 19 18  1  0
 20 19  2  0
 21 22  1  0
 21 20  1  0
 22 27  2  0
 23 22  1  0
 23 24  2  0
 24 25  1  0
 25 26  2  0
 27 19  1  0
 27 26  1  0
 28 29  2  0
 28 30  1  0
M  END
$$$$
