QSW.pdb
     RDKit          3D

 30 31  0  0  1  0  0  0  0  0999 V2000
    5.5657  -17.8652   18.9994 N   0  0  0  0  0  0  0  0  0  0  0  0
    6.6984  -17.1055   18.6438 C   0  0  0  0  0  0  0  0  0  0  0  0
    7.7158  -17.6961   18.1828 O   0  0  0  0  0  0  0  0  0  0  0  0
    6.7413  -15.6184   18.7882 C   0  0  0  0  0  0  0  0  0  0  0  0
    6.6058  -15.3256   20.2543 C   0  0  0  0  0  0  0  0  0  0  0  0
    7.8646  -14.7752   20.9006 C   0  0  2  0  0  0  0  0  0  0  0  0
    8.9262  -14.8362   19.8749 N   0  0  0  0  0  0  0  0  0  0  0  0
    8.2684  -15.7092   21.9852 C   0  0  0  0  0  0  0  0  0  0  0  0
    7.3987  -16.0862   22.8236 O   0  0  0  0  0  0  0  0  0  0  0  0
   12.2208  -16.4716   22.4697 O   0  0  0  0  0  0  0  0  0  0  0  0
   11.4591  -17.5737   22.8501 C   0  0  0  0  0  0  0  0  0  0  0  0
   10.0545  -17.0468   23.1731 C   0  0  2  0  0  0  0  0  0  0  0  0
    9.5760  -16.2032   22.1290 N   0  0  0  0  0  0  0  0  0  0  0  0
   10.1708  -16.3946   24.4832 C   0  0  0  0  0  0  0  0  0  0  0  0
   10.5285  -15.1565   24.4156 O   0  0  0  0  0  0  0  0  0  0  0  0
    9.9232  -17.0055   25.7330 N   0  0  0  0  0  0  0  0  0  0  0  0
   10.1557  -16.2500   26.9358 C   0  0  1  0  0  0  0  0  0  0  0  0
    8.8828  -16.0382   27.7146 C   0  0  0  0  0  0  0  0  0  0  0  0
    7.8332  -15.2814   27.0277 C   0  0  0  0  0  0  0  0  0  0  0  0
    6.7499  -15.9188   26.3905 C   0  0  0  0  0  0  0  0  0  0  0  0
    5.9452  -14.9719   25.8847 N   0  0  0  0  0  0  0  0  0  0  0  0
    6.4266  -13.7541   26.1474 C   0  0  0  0  0  0  0  0  0  0  0  0
    5.9755  -12.4958   25.8404 C   0  0  0  0  0  0  0  0  0  0  0  0
    6.7315  -11.4303   26.2621 C   0  0  0  0  0  0  0  0  0  0  0  0
    7.9023  -11.5445   26.9651 C   0  0  0  0  0  0  0  0  0  0  0  0
    8.3296  -12.8382   27.2583 C   0  0  0  0  0  0  0  0  0  0  0  0
    7.5925  -13.9538   26.8517 C   0  0  0  0  0  0  0  0  0  0  0  0
   11.2637  -16.8114   27.7083 C   0  0  0  0  0  0  0  0  0  0  0  0
   11.6735  -16.3486   28.8165 O   0  0  0  0  0  0  0  0  0  0  0  0
   11.9497  -17.9329   27.2482 O   0  0  0  0  0  0  0  0  0  0  0  0
  2  1  1  0
  3  2  2  0
  4  2  1  0
  5  6  1  0
  5  4  1  0
  6  8  1  0
  6  7  1  6
  8  9  2  0
 10 11  1  0
 12 11  1  6
 12 14  1  0
 13  8  1  0
 13 12  1  0
 14 15  2  0
 16 17  1  0
 16 14  1  0
 17 28  1  0
 17 18  1  1
 19 18  1  0
 20 19  2  0
 21 22  1  0
 21 20  1  0
 22 27  2  0
 23 22  1  0
 23 24  2  0
 24 25  1  0
 25 26  2  0
 27 19  1  0
 27 26  1  0
 28 29  2  0
 28 30  1  0
M  END
$$$$
