QSW.pdb
     RDKit          3D

 30 31  0  0  1  0  0  0  0  0999 V2000
   15.5102  -18.2047   18.0441 N   0  0  0  0  0  0  0  0  0  0  0  0
   14.6697  -17.2739   17.4009 C   0  0  0  0  0  0  0  0  0  0  0  0
   15.1756  -16.4399   16.5977 O   0  0  0  0  0  0  0  0  0  0  0  0
   13.1932  -17.2377   17.6306 C   0  0  0  0  0  0  0  0  0  0  0  0
   12.8794  -18.3557   18.5819 C   0  0  0  0  0  0  0  0  0  0  0  0
   11.3968  -18.5641   18.8341 C   0  0  2  0  0  0  0  0  0  0  0  0
   10.7092  -18.2906   17.5553 N   0  0  0  0  0  0  0  0  0  0  0  0
   10.9439  -17.5197   19.7911 C   0  0  0  0  0  0  0  0  0  0  0  0
   11.7741  -16.6500   20.1860 O   0  0  0  0  0  0  0  0  0  0  0  0
    7.1864  -17.7959   21.3554 O   0  0  0  0  0  0  0  0  0  0  0  0
    7.5827  -16.4720   21.1828 C   0  0  0  0  0  0  0  0  0  0  0  0
    9.1173  -16.4686   21.1873 C   0  0  2  0  0  0  0  0  0  0  0  0
    9.6299  -17.4437   20.2833 N   0  0  0  0  0  0  0  0  0  0  0  0
    9.5069  -16.6673   22.5886 C   0  0  0  0  0  0  0  0  0  0  0  0
   10.1623  -17.7597   22.7942 O   0  0  0  0  0  0  0  0  0  0  0  0
    9.2275  -15.7835   23.6551 N   0  0  0  0  0  0  0  0  0  0  0  0
    9.6367  -16.1469   24.9863 C   0  0  1  0  0  0  0  0  0  0  0  0
    9.3095  -15.0652   25.9837 C   0  0  0  0  0  0  0  0  0  0  0  0
    7.9666  -14.4887   25.8819 C   0  0  0  0  0  0  0  0  0  0  0  0
    6.8202  -15.2927   25.7231 C   0  0  0  0  0  0  0  0  0  0  0  0
    5.7459  -14.4895   25.6943 N   0  0  0  0  0  0  0  0  0  0  0  0
    6.1092  -13.2108   25.8243 C   0  0  0  0  0  0  0  0  0  0  0  0
    5.3900  -12.0433   25.8477 C   0  0  0  0  0  0  0  0  0  0  0  0
    6.0889  -10.8703   25.9895 C   0  0  0  0  0  0  0  0  0  0  0  0
    7.4521  -10.7931   26.1072 C   0  0  0  0  0  0  0  0  0  0  0  0
    8.1494  -11.9994   26.0787 C   0  0  0  0  0  0  0  0  0  0  0  0
    7.4812  -13.2189   25.9380 C   0  0  0  0  0  0  0  0  0  0  0  0
    9.1533  -17.4803   25.3438 C   0  0  0  0  0  0  0  0  0  0  0  0
    8.2030  -18.0813   24.7556 O   0  0  0  0  0  0  0  0  0  0  0  0
    9.7410  -18.1887   26.3893 O   0  0  0  0  0  0  0  0  0  0  0  0
  2  1  1  0
  3  2  2  0
  4  2  1  0
  5  6  1  0
  5  4  1  0
  6  8  1  0
  6  7  1  6
  8  9  2  0
 10 11  1  0
 12 11  1  1
 12 14  1  0
 13  8  1  0
 13 12  1  0
 14 15  2  0
 16 17  1  0
 16 14  1  0
 17 28  1  0
 17 18  1  1
 19 18  1  0
 20 19  2  0
 21 22  1  0
 21 20  1  0
 22 27  2  0
 23 22  1  0
 23 24  2  0
 24 25  1  0
 25 26  2  0
 27 19  1  0
 27 26  1  0
 28 29  2  0
 28 30  1  0
M  END
$$$$
