QSW.pdb
     RDKit          3D

 30 31  0  0  1  0  0  0  0  0999 V2000
   12.8504  -20.1134   19.5183 N   0  0  0  0  0  0  0  0  0  0  0  0
   12.6261  -20.3096   18.1407 C   0  0  0  0  0  0  0  0  0  0  0  0
   13.0736  -21.3533   17.5867 O   0  0  0  0  0  0  0  0  0  0  0  0
   11.8710  -19.3265   17.3055 C   0  0  0  0  0  0  0  0  0  0  0  0
   11.4306  -18.2280   18.2289 C   0  0  0  0  0  0  0  0  0  0  0  0
    9.9620  -18.2833   18.6103 C   0  0  2  0  0  0  0  0  0  0  0  0
    9.1950  -18.0775   17.3643 N   0  0  0  0  0  0  0  0  0  0  0  0
    9.6718  -17.1159   19.4848 C   0  0  0  0  0  0  0  0  0  0  0  0
   10.4555  -16.1226   19.4599 O   0  0  0  0  0  0  0  0  0  0  0  0
    6.0877  -16.4326   21.1636 O   0  0  0  0  0  0  0  0  0  0  0  0
    7.0556  -15.4629   21.4135 C   0  0  0  0  0  0  0  0  0  0  0  0
    8.4046  -16.1922   21.4677 C   0  0  2  0  0  0  0  0  0  0  0  0
    8.5614  -17.0543   20.3438 N   0  0  0  0  0  0  0  0  0  0  0  0
    8.4329  -16.8708   22.7692 C   0  0  0  0  0  0  0  0  0  0  0  0
    7.2615  -17.1432   23.2370 O   0  0  0  0  0  0  0  0  0  0  0  0
    9.5962  -17.2248   23.4890 N   0  0  0  0  0  0  0  0  0  0  0  0
   10.0016  -16.4081   24.6027 C   0  0  1  0  0  0  0  0  0  0  0  0
    9.6145  -14.9649   24.4042 C   0  0  0  0  0  0  0  0  0  0  0  0
    8.8063  -14.3688   25.4707 C   0  0  0  0  0  0  0  0  0  0  0  0
    8.6639  -14.9838   26.7307 C   0  0  0  0  0  0  0  0  0  0  0  0
    7.9005  -14.1924   27.4993 N   0  0  0  0  0  0  0  0  0  0  0  0
    7.5318  -13.0975   26.8293 C   0  0  0  0  0  0  0  0  0  0  0  0
    6.7609  -12.0173   27.1759 C   0  0  0  0  0  0  0  0  0  0  0  0
    6.5650  -11.0464   26.2253 C   0  0  0  0  0  0  0  0  0  0  0  0
    7.0872  -11.0891   24.9590 C   0  0  0  0  0  0  0  0  0  0  0  0
    7.8647  -12.2016   24.6427 C   0  0  0  0  0  0  0  0  0  0  0  0
    8.0936  -13.2147   25.5779 C   0  0  0  0  0  0  0  0  0  0  0  0
    9.5704  -16.9918   25.8726 C   0  0  0  0  0  0  0  0  0  0  0  0
   10.0544  -16.6852   27.0049 O   0  0  0  0  0  0  0  0  0  0  0  0
    8.5605  -17.9505   25.9035 O   0  0  0  0  0  0  0  0  0  0  0  0
  2  1  1  0
  3  2  2  0
  4  2  1  0
  5  6  1  0
  5  4  1  0
  6  8  1  0
  6  7  1  6
  8  9  2  0
 10 11  1  0
 12 11  1  6
 12 14  1  0
 13  8  1  0
 13 12  1  0
 14 15  2  0
 16 17  1  0
 16 14  1  0
 17 28  1  0
 17 18  1  6
 19 18  1  0
 20 19  2  0
 21 22  1  0
 21 20  1  0
 22 27  2  0
 23 22  1  0
 23 24  2  0
 24 25  1  0
 25 26  2  0
 27 19  1  0
 27 26  1  0
 28 29  2  0
 28 30  1  0
M  END
$$$$
