QSW.pdb
     RDKit          3D

 30 31  0  0  1  0  0  0  0  0999 V2000
   14.8212  -15.3282   17.7436 N   0  0  0  0  0  0  0  0  0  0  0  0
   14.4273  -14.6734   18.9279 C   0  0  0  0  0  0  0  0  0  0  0  0
   15.1458  -13.7390   19.3829 O   0  0  0  0  0  0  0  0  0  0  0  0
   13.1823  -15.0413   19.6687 C   0  0  0  0  0  0  0  0  0  0  0  0
   12.0608  -14.9969   18.6718 C   0  0  0  0  0  0  0  0  0  0  0  0
   11.2326  -16.2677   18.6059 C   0  0  2  0  0  0  0  0  0  0  0  0
   10.1971  -16.0430   17.5762 N   0  0  0  0  0  0  0  0  0  0  0  0
   10.5175  -16.4159   19.9014 C   0  0  0  0  0  0  0  0  0  0  0  0
    9.7517  -15.4855   20.2878 O   0  0  0  0  0  0  0  0  0  0  0  0
   11.3403  -19.6187   22.3690 O   0  0  0  0  0  0  0  0  0  0  0  0
    9.9853  -19.3109   22.2740 C   0  0  0  0  0  0  0  0  0  0  0  0
    9.8972  -17.8234   21.9077 C   0  0  2  0  0  0  0  0  0  0  0  0
   10.6452  -17.5460   20.7268 N   0  0  0  0  0  0  0  0  0  0  0  0
   10.3457  -17.0970   23.1019 C   0  0  0  0  0  0  0  0  0  0  0  0
   11.5722  -16.7011   23.0373 O   0  0  0  0  0  0  0  0  0  0  0  0
    9.5586  -16.8199   24.2422 N   0  0  0  0  0  0  0  0  0  0  0  0
   10.1794  -16.2001   25.3832 C   0  0  1  0  0  0  0  0  0  0  0  0
    9.7743  -14.7547   25.5202 C   0  0  0  0  0  0  0  0  0  0  0  0
    8.3508  -14.5119   25.7666 C   0  0  0  0  0  0  0  0  0  0  0  0
    7.3944  -15.5442   25.6910 C   0  0  0  0  0  0  0  0  0  0  0  0
    6.1946  -15.0269   25.9962 N   0  0  0  0  0  0  0  0  0  0  0  0
    6.2982  -13.7234   26.2681 C   0  0  0  0  0  0  0  0  0  0  0  0
    5.3708  -12.7756   26.6187 C   0  0  0  0  0  0  0  0  0  0  0  0
    5.8191  -11.4942   26.8223 C   0  0  0  0  0  0  0  0  0  0  0  0
    7.1269  -11.1045   26.6966 C   0  0  0  0  0  0  0  0  0  0  0  0
    8.0404  -12.0942   26.3386 C   0  0  0  0  0  0  0  0  0  0  0  0
    7.6316  -13.4131   26.1227 C   0  0  0  0  0  0  0  0  0  0  0  0
    9.9973  -17.0073   26.5893 C   0  0  0  0  0  0  0  0  0  0  0  0
   10.5165  -16.7418   27.7164 O   0  0  0  0  0  0  0  0  0  0  0  0
    9.2067  -18.1537   26.5601 O   0  0  0  0  0  0  0  0  0  0  0  0
  2  1  1  0
  3  2  2  0
  4  2  1  0
  5  6  1  0
  5  4  1  0
  6  8  1  0
  6  7  1  6
  8  9  2  0
 10 11  1  0
 12 11  1  1
 12 14  1  0
 13  8  1  0
 13 12  1  0
 14 15  2  0
 16 17  1  0
 16 14  1  0
 17 28  1  0
 17 18  1  1
 19 18  1  0
 20 19  2  0
 21 22  1  0
 21 20  1  0
 22 27  2  0
 23 22  1  0
 23 24  2  0
 24 25  1  0
 25 26  2  0
 27 19  1  0
 27 26  1  0
 28 29  2  0
 28 30  1  0
M  END
$$$$
