QSW.pdb
     RDKit          3D

 30 31  0  0  1  0  0  0  0  0999 V2000
   11.2647  -17.9873   15.4032 N   0  0  0  0  0  0  0  0  0  0  0  0
   11.6777  -16.8679   16.1534 C   0  0  0  0  0  0  0  0  0  0  0  0
   12.6480  -16.9873   16.9537 O   0  0  0  0  0  0  0  0  0  0  0  0
   11.0105  -15.5356   16.0349 C   0  0  0  0  0  0  0  0  0  0  0  0
   10.4849  -15.1961   17.3994 C   0  0  0  0  0  0  0  0  0  0  0  0
    9.0914  -15.7282   17.6826 C   0  0  2  0  0  0  0  0  0  0  0  0
    8.1440  -14.7828   17.0567 N   0  0  0  0  0  0  0  0  0  0  0  0
    8.8611  -15.6507   19.1498 C   0  0  0  0  0  0  0  0  0  0  0  0
    9.1762  -14.5899   19.7636 O   0  0  0  0  0  0  0  0  0  0  0  0
    7.6804  -18.9639   21.2897 O   0  0  0  0  0  0  0  0  0  0  0  0
    6.9089  -17.8333   21.5466 C   0  0  0  0  0  0  0  0  0  0  0  0
    7.7892  -16.6183   21.2248 C   0  0  2  0  0  0  0  0  0  0  0  0
    8.3041  -16.7013   19.8985 N   0  0  0  0  0  0  0  0  0  0  0  0
    8.8113  -16.5830   22.2779 C   0  0  0  0  0  0  0  0  0  0  0  0
    9.9756  -16.9752   21.8832 O   0  0  0  0  0  0  0  0  0  0  0  0
    8.6061  -16.1652   23.6120 N   0  0  0  0  0  0  0  0  0  0  0  0
    9.7092  -16.2156   24.5352 C   0  0  1  0  0  0  0  0  0  0  0  0
    9.5501  -15.2111   25.6476 C   0  0  0  0  0  0  0  0  0  0  0  0
    8.1808  -14.7608   25.9094 C   0  0  0  0  0  0  0  0  0  0  0  0
    7.1115  -15.6681   26.0493 C   0  0  0  0  0  0  0  0  0  0  0  0
    5.9987  -14.9666   26.3133 N   0  0  0  0  0  0  0  0  0  0  0  0
    6.2648  -13.6586   26.3570 C   0  0  0  0  0  0  0  0  0  0  0  0
    5.4734  -12.5612   26.5818 C   0  0  0  0  0  0  0  0  0  0  0  0
    6.0746  -11.3276   26.5474 C   0  0  0  0  0  0  0  0  0  0  0  0
    7.4076  -11.1248   26.3027 C   0  0  0  0  0  0  0  0  0  0  0  0
    8.1802  -12.2628   26.0784 C   0  0  0  0  0  0  0  0  0  0  0  0
    7.6131  -13.5399   26.1053 C   0  0  0  0  0  0  0  0  0  0  0  0
    9.9693  -17.5858   24.9758 C   0  0  0  0  0  0  0  0  0  0  0  0
    9.1741  -18.5593   24.8017 O   0  0  0  0  0  0  0  0  0  0  0  0
   11.1560  -17.9044   25.6319 O   0  0  0  0  0  0  0  0  0  0  0  0
  2  1  1  0
  3  2  2  0
  4  2  1  0
  5  6  1  0
  5  4  1  0
  6  8  1  0
  6  7  1  6
  8  9  2  0
 10 11  1  0
 12 11  1  1
 12 14  1  0
 13  8  1  0
 13 12  1  0
 14 15  2  0
 16 17  1  0
 16 14  1  0
 17 28  1  0
 17 18  1  1
 19 18  1  0
 20 19  2  0
 21 22  1  0
 21 20  1  0
 22 27  2  0
 23 22  1  0
 23 24  2  0
 24 25  1  0
 25 26  2  0
 27 19  1  0
 27 26  1  0
 28 29  2  0
 28 30  1  0
M  END
$$$$
