PEN.pdb
     RDKit          3D

 25 25  0  0  1  0  0  0  0  0999 V2000
    8.8586  -14.1896   18.6032 N   0  0  0  0  0  0  0  0  0  0  0  0
    7.4175  -14.1751   18.6606 C   0  0  0  0  0  0  0  0  0  0  0  0
    7.1792  -12.8592   19.4059 C   0  0  0  0  0  0  0  0  0  0  0  0
    8.2716  -12.8842   20.4576 C   0  0  0  0  0  0  0  0  0  0  0  0
    9.2674  -13.8592   19.9273 C   0  0  1  0  0  0  0  0  0  0  0  0
    9.3489  -15.0538   20.8361 C   0  0  0  0  0  0  0  0  0  0  0  0
    8.2531  -15.4840   21.3250 O   0  0  0  0  0  0  0  0  0  0  0  0
   10.5346  -15.7159   21.1771 N   0  0  0  0  0  0  0  0  0  0  0  0
   10.4857  -16.8517   22.0737 C   0  0  1  0  0  0  0  0  0  0  0  0
   11.3779  -17.9791   21.6589 C   0  0  0  0  0  0  0  0  0  0  0  0
   11.0885  -18.5268   20.2917 C   0  0  0  0  0  0  0  0  0  0  0  0
   12.0853  -19.5960   20.0154 C   0  0  0  0  0  0  0  0  0  0  0  0
   13.0436  -19.8299   20.8196 O   0  0  0  0  0  0  0  0  0  0  0  0
   10.9831  -16.3830   23.4112 C   0  0  0  0  0  0  0  0  0  0  0  0
   11.8135  -15.4667   23.4609 O   0  0  0  0  0  0  0  0  0  0  0  0
   12.0477  -20.4030   18.8842 O   0  0  0  0  0  0  0  0  0  0  0  0
   11.5843  -15.2979   28.5477 N   0  0  0  0  0  0  0  0  0  0  0  0
   10.2919  -15.6839   28.1358 C   0  0  0  0  0  0  0  0  0  0  0  0
    9.3521  -15.5179   28.9681 O   0  0  0  0  0  0  0  0  0  0  0  0
    9.9606  -16.2511   26.8410 C   0  0  0  0  0  0  0  0  0  0  0  0
   11.0786  -16.4549   25.8803 C   0  0  2  0  0  0  0  0  0  0  0  0
   10.5362  -16.9511   24.6196 N   0  0  0  0  0  0  0  0  0  0  0  0
   12.1360  -17.3711   26.3194 C   0  0  0  0  0  0  0  0  0  0  0  0
   12.1711  -18.7323   26.0812 O   0  0  0  0  0  0  0  0  0  0  0  0
   13.1100  -16.9063   26.9729 O   0  0  0  0  0  0  0  0  0  0  0  0
  2  1  1  0
  3  4  1  0
  3  2  1  0
  4  5  1  0
  5  1  1  0
  5  6  1  1
  7  6  2  0
  8  6  1  0
  9  8  1  0
  9 14  1  0
  9 10  1  6
 11 10  1  0
 12 11  1  0
 13 12  2  0
 14 15  2  0
 14 22  1  0
 16 12  1  0
 18 19  2  0
 18 17  1  0
 20 18  1  0
 21 20  1  1
 21 23  1  0
 22 21  1  0
 23 25  2  0
 23 24  1  0
M  END
$$$$
