PEN.pdb
     RDKit          3D

 25 25  0  0  1  0  0  0  0  0999 V2000
    7.9845  -14.5051   18.8916 N   0  0  0  0  0  0  0  0  0  0  0  0
    6.8667  -13.7774   19.4406 C   0  0  0  0  0  0  0  0  0  0  0  0
    7.5297  -12.4313   19.7443 C   0  0  0  0  0  0  0  0  0  0  0  0
    8.8784  -12.8549   20.2935 C   0  0  0  0  0  0  0  0  0  0  0  0
    9.0511  -14.2519   19.8015 C   0  0  1  0  0  0  0  0  0  0  0  0
    9.0753  -15.2050   20.9636 C   0  0  0  0  0  0  0  0  0  0  0  0
    7.9487  -15.5756   21.4309 O   0  0  0  0  0  0  0  0  0  0  0  0
   10.2395  -15.7054   21.5595 N   0  0  0  0  0  0  0  0  0  0  0  0
   10.1337  -16.6680   22.6357 C   0  0  1  0  0  0  0  0  0  0  0  0
   11.0685  -17.8279   22.4938 C   0  0  0  0  0  0  0  0  0  0  0  0
   10.6940  -18.7957   21.4095 C   0  0  0  0  0  0  0  0  0  0  0  0
   11.7722  -19.8173   21.3266 C   0  0  0  0  0  0  0  0  0  0  0  0
   11.6864  -20.9212   21.9543 O   0  0  0  0  0  0  0  0  0  0  0  0
   10.5196  -15.9607   23.9033 C   0  0  0  0  0  0  0  0  0  0  0  0
   11.4612  -15.1578   23.8857 O   0  0  0  0  0  0  0  0  0  0  0  0
   12.9292  -19.6491   20.5747 O   0  0  0  0  0  0  0  0  0  0  0  0
   10.5985  -13.8236   28.7475 N   0  0  0  0  0  0  0  0  0  0  0  0
    9.4213  -13.7869   27.9718 C   0  0  0  0  0  0  0  0  0  0  0  0
    8.4951  -13.0220   28.3725 O   0  0  0  0  0  0  0  0  0  0  0  0
    9.1937  -14.5522   26.7592 C   0  0  0  0  0  0  0  0  0  0  0  0
   10.2838  -15.4616   26.3129 C   0  0  2  0  0  0  0  0  0  0  0  0
    9.8449  -16.1784   25.1199 N   0  0  0  0  0  0  0  0  0  0  0  0
   10.7364  -16.4457   27.3013 C   0  0  0  0  0  0  0  0  0  0  0  0
   10.4836  -17.8040   27.2581 O   0  0  0  0  0  0  0  0  0  0  0  0
   11.4164  -16.0484   28.2869 O   0  0  0  0  0  0  0  0  0  0  0  0
  2  1  1  0
  3  4  1  0
  3  2  1  0
  4  5  1  0
  5  1  1  0
  5  6  1  1
  7  6  2  0
  8  6  1  0
  9  8  1  0
  9 14  1  0
  9 10  1  6
 11 10  1  0
 12 11  1  0
 13 12  2  0
 14 15  2  0
 14 22  1  0
 16 12  1  0
 18 19  2  0
 18 17  1  0
 20 18  1  0
 21 20  1  1
 21 23  1  0
 22 21  1  0
 23 25  2  0
 23 24  1  0
M  END
$$$$
