PEN.pdb
     RDKit          3D

 25 25  0  0  1  0  0  0  0  0999 V2000
    9.1430  -14.4764   19.3754 N   0  0  0  0  0  0  0  0  0  0  0  0
    7.8171  -14.6886   18.8489 C   0  0  0  0  0  0  0  0  0  0  0  0
    7.2861  -13.2528   18.8376 C   0  0  0  0  0  0  0  0  0  0  0  0
    7.8205  -12.7031   20.1461 C   0  0  0  0  0  0  0  0  0  0  0  0
    8.9444  -13.6188   20.4955 C   0  0  1  0  0  0  0  0  0  0  0  0
    8.6236  -14.3640   21.7609 C   0  0  0  0  0  0  0  0  0  0  0  0
    8.1943  -13.6757   22.7441 O   0  0  0  0  0  0  0  0  0  0  0  0
    8.7645  -15.7470   21.9286 N   0  0  0  0  0  0  0  0  0  0  0  0
    8.5082  -16.3390   23.2247 C   0  0  1  0  0  0  0  0  0  0  0  0
    7.3243  -17.2541   23.2400 C   0  0  0  0  0  0  0  0  0  0  0  0
    6.9808  -17.8442   21.9033 C   0  0  0  0  0  0  0  0  0  0  0  0
    5.9266  -18.8707   22.1226 C   0  0  0  0  0  0  0  0  0  0  0  0
    4.6912  -18.5655   22.0950 O   0  0  0  0  0  0  0  0  0  0  0  0
    9.7030  -17.1800   23.5726 C   0  0  0  0  0  0  0  0  0  0  0  0
   10.5866  -17.3563   22.7242 O   0  0  0  0  0  0  0  0  0  0  0  0
    6.2029  -20.2106   22.3686 O   0  0  0  0  0  0  0  0  0  0  0  0
   14.1732  -18.1161   26.4972 N   0  0  0  0  0  0  0  0  0  0  0  0
   13.5660  -18.1286   25.2244 C   0  0  0  0  0  0  0  0  0  0  0  0
   14.2311  -18.6433   24.2777 O   0  0  0  0  0  0  0  0  0  0  0  0
   12.2477  -17.6016   24.9207 C   0  0  0  0  0  0  0  0  0  0  0  0
   11.0864  -18.5075   25.1330 C   0  0  2  0  0  0  0  0  0  0  0  0
    9.8566  -17.7794   24.8374 N   0  0  0  0  0  0  0  0  0  0  0  0
   10.9679  -19.0866   26.4749 C   0  0  0  0  0  0  0  0  0  0  0  0
   11.7591  -20.0975   26.9876 O   0  0  0  0  0  0  0  0  0  0  0  0
   10.0763  -18.6450   27.2507 O   0  0  0  0  0  0  0  0  0  0  0  0
  2  1  1  0
  3  4  1  0
  3  2  1  0
  4  5  1  0
  5  1  1  0
  5  6  1  1
  7  6  2  0
  8  6  1  0
  9  8  1  0
  9 14  1  0
  9 10  1  6
 11 10  1  0
 12 11  1  0
 13 12  2  0
 14 15  2  0
 14 22  1  0
 16 12  1  0
 18 19  2  0
 18 17  1  0
 20 18  1  0
 21 20  1  1
 21 23  1  0
 22 21  1  0
 23 25  2  0
 23 24  1  0
M  END
$$$$
