PEN.pdb
     RDKit          3D

 25 25  0  0  1  0  0  0  0  0999 V2000
    7.9970  -14.5998   18.7658 N   0  0  0  0  0  0  0  0  0  0  0  0
    6.8127  -14.1875   19.4783 C   0  0  0  0  0  0  0  0  0  0  0  0
    7.1982  -12.7559   19.8597 C   0  0  0  0  0  0  0  0  0  0  0  0
    8.6564  -12.9090   20.2470 C   0  0  0  0  0  0  0  0  0  0  0  0
    9.0734  -14.1876   19.6032 C   0  0  1  0  0  0  0  0  0  0  0  0
    9.4242  -15.2011   20.6564 C   0  0  0  0  0  0  0  0  0  0  0  0
    8.5156  -16.0332   20.9833 O   0  0  0  0  0  0  0  0  0  0  0  0
   10.6674  -15.2892   21.2946 N   0  0  0  0  0  0  0  0  0  0  0  0
   10.9686  -16.4433   22.1153 C   0  0  1  0  0  0  0  0  0  0  0  0
   12.4332  -16.6476   22.3445 C   0  0  0  0  0  0  0  0  0  0  0  0
   12.7675  -17.8514   23.1765 C   0  0  0  0  0  0  0  0  0  0  0  0
   14.2496  -17.9295   23.2790 C   0  0  0  0  0  0  0  0  0  0  0  0
   14.9417  -16.9212   23.6316 O   0  0  0  0  0  0  0  0  0  0  0  0
   10.3546  -16.2009   23.4644 C   0  0  0  0  0  0  0  0  0  0  0  0
   10.4525  -15.0807   23.9814 O   0  0  0  0  0  0  0  0  0  0  0  0
   14.9756  -19.0825   23.0041 O   0  0  0  0  0  0  0  0  0  0  0  0
    7.1058  -15.5633   23.7325 N   0  0  0  0  0  0  0  0  0  0  0  0
    6.7621  -16.6535   24.5585 C   0  0  0  0  0  0  0  0  0  0  0  0
    5.5716  -17.0779   24.4807 O   0  0  0  0  0  0  0  0  0  0  0  0
    7.6623  -17.3204   25.4820 C   0  0  0  0  0  0  0  0  0  0  0  0
    9.0880  -16.8945   25.4708 C   0  0  2  0  0  0  0  0  0  0  0  0
    9.6664  -17.2078   24.1681 N   0  0  0  0  0  0  0  0  0  0  0  0
    9.9380  -17.4889   26.5074 C   0  0  0  0  0  0  0  0  0  0  0  0
    9.9020  -17.1773   27.8536 O   0  0  0  0  0  0  0  0  0  0  0  0
   10.7846  -18.3621   26.1720 O   0  0  0  0  0  0  0  0  0  0  0  0
  2  1  1  0
  3  4  1  0
  3  2  1  0
  4  5  1  0
  5  1  1  0
  5  6  1  1
  7  6  2  0
  8  6  1  0
  9  8  1  0
  9 14  1  0
  9 10  1  1
 11 10  1  0
 12 11  1  0
 13 12  2  0
 14 15  2  0
 14 22  1  0
 16 12  1  0
 18 19  2  0
 18 17  1  0
 20 18  1  0
 21 20  1  6
 21 23  1  0
 22 21  1  0
 23 25  2  0
 23 24  1  0
M  END
$$$$
