PEN.pdb
     RDKit          3D

 25 25  0  0  1  0  0  0  0  0999 V2000
    8.9872  -14.5349   19.2363 N   0  0  0  0  0  0  0  0  0  0  0  0
    7.6923  -14.6746   18.6167 C   0  0  0  0  0  0  0  0  0  0  0  0
    7.2949  -13.2044   18.4613 C   0  0  0  0  0  0  0  0  0  0  0  0
    7.7739  -12.6030   19.7686 C   0  0  0  0  0  0  0  0  0  0  0  0
    8.7805  -13.5804   20.2736 C   0  0  1  0  0  0  0  0  0  0  0  0
    8.2971  -14.1971   21.5564 C   0  0  0  0  0  0  0  0  0  0  0  0
    7.9264  -13.3983   22.4780 O   0  0  0  0  0  0  0  0  0  0  0  0
    8.2292  -15.5738   21.8026 N   0  0  0  0  0  0  0  0  0  0  0  0
    7.8739  -16.0462   23.1242 C   0  0  1  0  0  0  0  0  0  0  0  0
    7.4857  -17.4910   23.1579 C   0  0  0  0  0  0  0  0  0  0  0  0
    6.2009  -17.7701   23.8820 C   0  0  0  0  0  0  0  0  0  0  0  0
    5.8544  -19.1979   23.6489 C   0  0  0  0  0  0  0  0  0  0  0  0
    6.7564  -20.0921   23.5681 O   0  0  0  0  0  0  0  0  0  0  0  0
    9.0960  -15.9118   23.9869 C   0  0  0  0  0  0  0  0  0  0  0  0
    9.9566  -15.0733   23.6907 O   0  0  0  0  0  0  0  0  0  0  0  0
    4.5494  -19.6546   23.5047 O   0  0  0  0  0  0  0  0  0  0  0  0
   10.2669  -14.4952   28.7940 N   0  0  0  0  0  0  0  0  0  0  0  0
    9.2488  -14.1636   27.8761 C   0  0  0  0  0  0  0  0  0  0  0  0
    8.5549  -13.1370   28.1368 O   0  0  0  0  0  0  0  0  0  0  0  0
    8.9400  -14.9030   26.6654 C   0  0  0  0  0  0  0  0  0  0  0  0
    9.7892  -16.0846   26.3535 C   0  0  2  0  0  0  0  0  0  0  0  0
    9.3004  -16.7099   25.1289 N   0  0  0  0  0  0  0  0  0  0  0  0
    9.8603  -17.1109   27.3983 C   0  0  0  0  0  0  0  0  0  0  0  0
    9.2575  -18.3538   27.3475 O   0  0  0  0  0  0  0  0  0  0  0  0
   10.5207  -16.8674   28.4454 O   0  0  0  0  0  0  0  0  0  0  0  0
  2  1  1  0
  3  4  1  0
  3  2  1  0
  4  5  1  0
  5  1  1  0
  5  6  1  1
  7  6  2  0
  8  6  1  0
  9  8  1  0
  9 14  1  0
  9 10  1  6
 11 10  1  0
 12 11  1  0
 13 12  2  0
 14 15  2  0
 14 22  1  0
 16 12  1  0
 18 19  2  0
 18 17  1  0
 20 18  1  0
 21 20  1  1
 21 23  1  0
 22 21  1  0
 23 25  2  0
 23 24  1  0
M  END
$$$$
