PEN.pdb
     RDKit          3D

 25 25  0  0  1  0  0  0  0  0999 V2000
    8.0852  -14.4491   18.4226 N   0  0  0  0  0  0  0  0  0  0  0  0
    6.9342  -13.8763   19.0763 C   0  0  0  0  0  0  0  0  0  0  0  0
    7.5038  -12.5245   19.5146 C   0  0  0  0  0  0  0  0  0  0  0  0
    8.8973  -12.8998   19.9806 C   0  0  0  0  0  0  0  0  0  0  0  0
    9.1584  -14.2158   19.3300 C   0  0  1  0  0  0  0  0  0  0  0  0
    9.2913  -15.2871   20.3761 C   0  0  0  0  0  0  0  0  0  0  0  0
    8.2115  -15.7998   20.8187 O   0  0  0  0  0  0  0  0  0  0  0  0
   10.5079  -15.7522   20.8902 N   0  0  0  0  0  0  0  0  0  0  0  0
   10.5143  -16.8755   21.8035 C   0  0  1  0  0  0  0  0  0  0  0  0
   11.7702  -17.6870   21.7435 C   0  0  0  0  0  0  0  0  0  0  0  0
   11.7423  -18.9335   22.5793 C   0  0  0  0  0  0  0  0  0  0  0  0
   13.0547  -19.6144   22.4149 C   0  0  0  0  0  0  0  0  0  0  0  0
   13.1402  -20.7620   21.8711 O   0  0  0  0  0  0  0  0  0  0  0  0
   10.4328  -16.3166   23.1952 C   0  0  0  0  0  0  0  0  0  0  0  0
   11.2261  -15.4311   23.5391 O   0  0  0  0  0  0  0  0  0  0  0  0
   14.2603  -19.0628   22.8325 O   0  0  0  0  0  0  0  0  0  0  0  0
    7.8951  -14.8224   23.5121 N   0  0  0  0  0  0  0  0  0  0  0  0
    7.4365  -15.0685   24.8229 C   0  0  0  0  0  0  0  0  0  0  0  0
    6.2596  -14.6909   25.0981 O   0  0  0  0  0  0  0  0  0  0  0  0
    8.2045  -15.7170   25.8705 C   0  0  0  0  0  0  0  0  0  0  0  0
    9.5381  -16.2630   25.4989 C   0  0  2  0  0  0  0  0  0  0  0  0
    9.4803  -16.7654   24.1300 N   0  0  0  0  0  0  0  0  0  0  0  0
   10.0505  -17.3328   26.3611 C   0  0  0  0  0  0  0  0  0  0  0  0
   10.2494  -18.6467   25.9807 O   0  0  0  0  0  0  0  0  0  0  0  0
   10.3431  -17.0610   27.5578 O   0  0  0  0  0  0  0  0  0  0  0  0
  2  1  1  0
  3  4  1  0
  3  2  1  0
  4  5  1  0
  5  1  1  0
  5  6  1  1
  7  6  2  0
  8  6  1  0
  9  8  1  0
  9 14  1  0
  9 10  1  1
 11 10  1  0
 12 11  1  0
 13 12  2  0
 14 15  2  0
 14 22  1  0
 16 12  1  0
 18 19  2  0
 18 17  1  0
 20 18  1  0
 21 20  1  1
 21 23  1  0
 22 21  1  0
 23 25  2  0
 23 24  1  0
M  END
$$$$
