PEN.pdb
     RDKit          3D

 25 25  0  0  1  0  0  0  0  0999 V2000
    7.8875  -14.4691   18.2427 N   0  0  0  0  0  0  0  0  0  0  0  0
    6.8883  -13.7368   18.9815 C   0  0  0  0  0  0  0  0  0  0  0  0
    7.6456  -12.4372   19.2662 C   0  0  0  0  0  0  0  0  0  0  0  0
    9.0363  -12.9428   19.5985 C   0  0  0  0  0  0  0  0  0  0  0  0
    9.0781  -14.3118   19.0091 C   0  0  1  0  0  0  0  0  0  0  0  0
    9.2178  -15.3357   20.1008 C   0  0  0  0  0  0  0  0  0  0  0  0
    8.1426  -15.8550   20.5472 O   0  0  0  0  0  0  0  0  0  0  0  0
   10.4358  -15.7503   20.6531 N   0  0  0  0  0  0  0  0  0  0  0  0
   10.4700  -16.9132   21.5149 C   0  0  1  0  0  0  0  0  0  0  0  0
   11.7127  -17.7329   21.3632 C   0  0  0  0  0  0  0  0  0  0  0  0
   11.7818  -18.9262   22.2711 C   0  0  0  0  0  0  0  0  0  0  0  0
   13.0598  -19.6330   21.9880 C   0  0  0  0  0  0  0  0  0  0  0  0
   14.1385  -19.3116   22.5822 O   0  0  0  0  0  0  0  0  0  0  0  0
   10.4564  -16.4159   22.9321 C   0  0  0  0  0  0  0  0  0  0  0  0
   11.1883  -15.4693   23.2482 O   0  0  0  0  0  0  0  0  0  0  0  0
   13.1718  -20.6746   21.0743 O   0  0  0  0  0  0  0  0  0  0  0  0
    8.4735  -13.9505   24.1013 N   0  0  0  0  0  0  0  0  0  0  0  0
    7.7297  -14.7934   24.9530 C   0  0  0  0  0  0  0  0  0  0  0  0
    6.5239  -14.4712   25.1671 O   0  0  0  0  0  0  0  0  0  0  0  0
    8.2372  -15.9922   25.5958 C   0  0  0  0  0  0  0  0  0  0  0  0
    9.6256  -16.4094   25.2603 C   0  0  2  0  0  0  0  0  0  0  0  0
    9.6359  -16.9905   23.9217 N   0  0  0  0  0  0  0  0  0  0  0  0
   10.2430  -17.3672   26.1832 C   0  0  0  0  0  0  0  0  0  0  0  0
   10.7870  -17.0600   27.4163 O   0  0  0  0  0  0  0  0  0  0  0  0
   10.2972  -18.5830   25.8506 O   0  0  0  0  0  0  0  0  0  0  0  0
  2  1  1  0
  3  4  1  0
  3  2  1  0
  4  5  1  0
  5  1  1  0
  5  6  1  1
  7  6  2  0
  8  6  1  0
  9  8  1  0
  9 14  1  0
  9 10  1  6
 11 10  1  0
 12 11  1  0
 13 12  2  0
 14 15  2  0
 14 22  1  0
 16 12  1  0
 18 19  2  0
 18 17  1  0
 20 18  1  0
 21 20  1  1
 21 23  1  0
 22 21  1  0
 23 25  2  0
 23 24  1  0
M  END
$$$$
