PEN.pdb
     RDKit          3D

 25 25  0  0  1  0  0  0  0  0999 V2000
    8.1809  -14.5887   19.2678 N   0  0  0  0  0  0  0  0  0  0  0  0
    6.9214  -13.9434   18.9896 C   0  0  0  0  0  0  0  0  0  0  0  0
    7.2721  -12.4896   19.3169 C   0  0  0  0  0  0  0  0  0  0  0  0
    8.1230  -12.6380   20.5635 C   0  0  0  0  0  0  0  0  0  0  0  0
    8.5783  -14.0575   20.5286 C   0  0  1  0  0  0  0  0  0  0  0  0
    8.0011  -14.8096   21.6951 C   0  0  0  0  0  0  0  0  0  0  0  0
    6.9334  -14.3432   22.2123 O   0  0  0  0  0  0  0  0  0  0  0  0
    8.5527  -15.9734   22.2444 N   0  0  0  0  0  0  0  0  0  0  0  0
    7.9506  -16.5621   23.4221 C   0  0  1  0  0  0  0  0  0  0  0  0
    7.7089  -18.0336   23.2976 C   0  0  0  0  0  0  0  0  0  0  0  0
    7.1303  -18.6721   24.5265 C   0  0  0  0  0  0  0  0  0  0  0  0
    6.8725  -20.1028   24.2109 C   0  0  0  0  0  0  0  0  0  0  0  0
    5.6893  -20.5387   24.0384 O   0  0  0  0  0  0  0  0  0  0  0  0
    8.9218  -16.3828   24.5537 C   0  0  0  0  0  0  0  0  0  0  0  0
   10.1293  -16.2772   24.3039 O   0  0  0  0  0  0  0  0  0  0  0  0
    7.8805  -21.0515   24.0831 O   0  0  0  0  0  0  0  0  0  0  0  0
    9.8163  -13.0389   29.3380 N   0  0  0  0  0  0  0  0  0  0  0  0
   10.0506  -14.1904   28.5582 C   0  0  0  0  0  0  0  0  0  0  0  0
   11.1082  -14.8423   28.8029 O   0  0  0  0  0  0  0  0  0  0  0  0
    9.1781  -14.6808   27.5064 C   0  0  0  0  0  0  0  0  0  0  0  0
    9.4883  -16.0181   26.9322 C   0  0  2  0  0  0  0  0  0  0  0  0
    8.5067  -16.3296   25.8982 N   0  0  0  0  0  0  0  0  0  0  0  0
    9.5192  -17.1297   27.8881 C   0  0  0  0  0  0  0  0  0  0  0  0
    8.6811  -18.2288   27.8711 O   0  0  0  0  0  0  0  0  0  0  0  0
   10.3727  -17.1087   28.8170 O   0  0  0  0  0  0  0  0  0  0  0  0
  2  1  1  0
  3  4  1  0
  3  2  1  0
  4  5  1  0
  5  1  1  0
  5  6  1  1
  7  6  2  0
  8  6  1  0
  9  8  1  0
  9 14  1  0
  9 10  1  6
 11 10  1  0
 12 11  1  0
 13 12  2  0
 14 15  2  0
 14 22  1  0
 16 12  1  0
 18 19  2  0
 18 17  1  0
 20 18  1  0
 21 20  1  1
 21 23  1  0
 22 21  1  0
 23 25  2  0
 23 24  1  0
M  END
$$$$
