PEN.pdb
     RDKit          3D

 25 25  0  0  1  0  0  0  0  0999 V2000
    8.0038  -14.5780   18.4803 N   0  0  0  0  0  0  0  0  0  0  0  0
    6.8937  -13.9738   19.1751 C   0  0  0  0  0  0  0  0  0  0  0  0
    7.5020  -12.6209   19.5538 C   0  0  0  0  0  0  0  0  0  0  0  0
    8.9113  -13.0058   19.9608 C   0  0  0  0  0  0  0  0  0  0  0  0
    9.1228  -14.3400   19.3293 C   0  0  1  0  0  0  0  0  0  0  0  0
    9.2918  -15.3891   20.3924 C   0  0  0  0  0  0  0  0  0  0  0  0
    8.2415  -16.0068   20.7671 O   0  0  0  0  0  0  0  0  0  0  0  0
   10.5115  -15.7274   20.9912 N   0  0  0  0  0  0  0  0  0  0  0  0
   10.5848  -16.8851   21.8575 C   0  0  1  0  0  0  0  0  0  0  0  0
   11.8758  -17.6336   21.7464 C   0  0  0  0  0  0  0  0  0  0  0  0
   12.0230  -18.4296   20.4825 C   0  0  0  0  0  0  0  0  0  0  0  0
   13.4069  -18.9747   20.4531 C   0  0  0  0  0  0  0  0  0  0  0  0
   14.3928  -18.2559   20.0908 O   0  0  0  0  0  0  0  0  0  0  0  0
   10.4999  -16.3871   23.2720 C   0  0  0  0  0  0  0  0  0  0  0  0
   11.1284  -15.3709   23.5945 O   0  0  0  0  0  0  0  0  0  0  0  0
   13.7225  -20.2804   20.8109 O   0  0  0  0  0  0  0  0  0  0  0  0
    8.4539  -13.9957   24.3635 N   0  0  0  0  0  0  0  0  0  0  0  0
    7.6955  -14.8396   25.2012 C   0  0  0  0  0  0  0  0  0  0  0  0
    6.5023  -14.4884   25.4388 O   0  0  0  0  0  0  0  0  0  0  0  0
    8.1749  -16.0696   25.8053 C   0  0  0  0  0  0  0  0  0  0  0  0
    9.5995  -16.4322   25.5737 C   0  0  2  0  0  0  0  0  0  0  0  0
    9.7260  -17.0377   24.2520 N   0  0  0  0  0  0  0  0  0  0  0  0
   10.1920  -17.3445   26.5571 C   0  0  0  0  0  0  0  0  0  0  0  0
   10.7728  -16.9699   27.7542 O   0  0  0  0  0  0  0  0  0  0  0  0
   10.1864  -18.5831   26.3174 O   0  0  0  0  0  0  0  0  0  0  0  0
  2  1  1  0
  3  4  1  0
  3  2  1  0
  4  5  1  0
  5  1  1  0
  5  6  1  1
  7  6  2  0
  8  6  1  0
  9  8  1  0
  9 14  1  0
  9 10  1  1
 11 10  1  0
 12 11  1  0
 13 12  2  0
 14 15  2  0
 14 22  1  0
 16 12  1  0
 18 19  2  0
 18 17  1  0
 20 18  1  0
 21 20  1  1
 21 23  1  0
 22 21  1  0
 23 25  2  0
 23 24  1  0
M  END
$$$$
