SPS.pdb
     RDKit          3D

 20 20  0  0  1  0  0  0  0  0999 V2000
   16.3070  -11.2371  -18.1646 O   0  0  0  0  0  0  0  0  0  0  0  0
   17.3974  -10.5756  -17.5994 C   0  0  0  0  0  0  0  0  0  0  0  0
   18.5113  -10.5715  -18.6205 C   0  0  2  0  0  0  0  0  0  0  0  0
   18.9007  -11.9075  -18.9333 N   0  0  0  0  0  0  0  0  0  0  0  0
   19.6288   -9.6883  -18.2260 C   0  0  0  0  0  0  0  0  0  0  0  0
   20.5607  -10.2003  -17.5590 O   0  0  0  0  0  0  0  0  0  0  0  0
   19.7118   -8.3147  -18.5508 N   0  0  0  0  0  0  0  0  0  0  0  0
   18.7216   -7.6249  -19.3537 C   0  0  0  0  0  0  0  0  0  0  0  0
   19.2308   -6.2093  -19.5170 C   0  0  0  0  0  0  0  0  0  0  0  0
   20.6815   -6.2454  -19.1643 C   0  0  0  0  0  0  0  0  0  0  0  0
   20.7467   -7.3976  -18.1606 C   0  0  1  0  0  0  0  0  0  0  0  0
   20.4943   -6.8020  -16.8194 C   0  0  0  0  0  0  0  0  0  0  0  0
   19.3230   -6.4671  -16.5185 O   0  0  0  0  0  0  0  0  0  0  0  0
   21.1231   -8.3769  -13.7133 O   0  0  0  0  0  0  0  0  0  0  0  0
   21.8266   -7.1914  -13.5084 C   0  0  0  0  0  0  0  0  0  0  0  0
   21.3300   -6.1644  -14.5285 C   0  0  2  0  0  0  0  0  0  0  0  0
   21.5332   -6.6007  -15.8713 N   0  0  0  0  0  0  0  0  0  0  0  0
   21.9094   -4.8284  -14.2536 C   0  0  0  0  0  0  0  0  0  0  0  0
   21.6315   -4.2834  -13.1593 O   0  0  0  0  0  0  0  0  0  0  0  0
   22.7356   -4.1459  -15.1256 O   0  0  0  0  0  0  0  0  0  0  0  0
  2  1  1  0
  3  2  1  0
  3  4  1  1
  5  7  1  0
  5  3  1  0
  6  5  2  0
  7  8  1  0
  9  8  1  0
 10 11  1  0
 10  9  1  0
 11  7  1  0
 11 12  1  1
 12 17  1  0
 13 12  2  0
 16 15  1  1
 15 14  1  0
 16 18  1  0
 17 16  1  0
 18 20  1  0
 19 18  2  0
M  END
$$$$
