SPS.pdb
     RDKit          3D

 20 20  0  0  1  0  0  0  0  0999 V2000
   21.0593  -12.1950  -19.5377 O   0  0  0  0  0  0  0  0  0  0  0  0
   20.4108  -11.3165  -18.6696 C   0  0  0  0  0  0  0  0  0  0  0  0
   20.2853  -12.0042  -17.3298 C   0  0  2  0  0  0  0  0  0  0  0  0
   19.1163  -12.8209  -17.3005 N   0  0  0  0  0  0  0  0  0  0  0  0
   20.3936  -11.0557  -16.2016 C   0  0  0  0  0  0  0  0  0  0  0  0
   19.3485  -10.4562  -15.8499 O   0  0  0  0  0  0  0  0  0  0  0  0
   21.5912  -10.7846  -15.5006 N   0  0  0  0  0  0  0  0  0  0  0  0
   22.8264  -11.5093  -15.7242 C   0  0  0  0  0  0  0  0  0  0  0  0
   23.8201  -10.9564  -14.7259 C   0  0  0  0  0  0  0  0  0  0  0  0
   23.0161  -10.2383  -13.6923 C   0  0  0  0  0  0  0  0  0  0  0  0
   21.7893   -9.7866  -14.4861 C   0  0  1  0  0  0  0  0  0  0  0  0
   22.1283   -8.4567  -15.0638 C   0  0  0  0  0  0  0  0  0  0  0  0
   22.8830   -8.4082  -16.0650 O   0  0  0  0  0  0  0  0  0  0  0  0
   19.5449   -5.4068  -14.7035 O   0  0  0  0  0  0  0  0  0  0  0  0
   20.5152   -5.4046  -15.7039 C   0  0  0  0  0  0  0  0  0  0  0  0
   21.8116   -5.9565  -15.1065 C   0  0  2  0  0  0  0  0  0  0  0  0
   21.6267   -7.2436  -14.5201 N   0  0  0  0  0  0  0  0  0  0  0  0
   22.4230   -4.9743  -14.1804 C   0  0  0  0  0  0  0  0  0  0  0  0
   22.5000   -5.2820  -12.9675 O   0  0  0  0  0  0  0  0  0  0  0  0
   22.9131   -3.7421  -14.5682 O   0  0  0  0  0  0  0  0  0  0  0  0
  2  1  1  0
  3  2  1  0
  3  4  1  6
  5  7  1  0
  5  3  1  0
  6  5  2  0
  7  8  1  0
  9  8  1  0
 10 11  1  0
 10  9  1  0
 11  7  1  0
 11 12  1  6
 12 17  1  0
 13 12  2  0
 16 15  1  1
 15 14  1  0
 16 18  1  0
 17 16  1  0
 18 20  1  0
 19 18  2  0
M  END
$$$$
