SPS.pdb
     RDKit          3D

 20 20  0  0  1  0  0  0  0  0999 V2000
   16.1241  -11.4881  -15.9518 O   0  0  0  0  0  0  0  0  0  0  0  0
   17.1446  -10.5678  -15.7113 C   0  0  0  0  0  0  0  0  0  0  0  0
   18.4324  -11.1648  -16.2298 C   0  0  2  0  0  0  0  0  0  0  0  0
   18.6963  -12.4088  -15.5839 N   0  0  0  0  0  0  0  0  0  0  0  0
   19.5541  -10.2037  -16.1810 C   0  0  0  0  0  0  0  0  0  0  0  0
   20.2946  -10.2325  -15.1679 O   0  0  0  0  0  0  0  0  0  0  0  0
   19.8418   -9.2624  -17.1961 N   0  0  0  0  0  0  0  0  0  0  0  0
   19.0447   -9.1188  -18.3981 C   0  0  0  0  0  0  0  0  0  0  0  0
   19.7383   -8.0656  -19.2344 C   0  0  0  0  0  0  0  0  0  0  0  0
   21.1220   -7.9435  -18.6861 C   0  0  0  0  0  0  0  0  0  0  0  0
   20.9276   -8.3217  -17.2169 C   0  0  1  0  0  0  0  0  0  0  0  0
   20.5934   -7.0608  -16.4987 C   0  0  0  0  0  0  0  0  0  0  0  0
   19.4601   -6.5504  -16.6706 O   0  0  0  0  0  0  0  0  0  0  0  0
   22.5915   -6.0122  -13.0369 O   0  0  0  0  0  0  0  0  0  0  0  0
   21.2848   -5.6181  -13.3192 C   0  0  0  0  0  0  0  0  0  0  0  0
   21.2020   -5.2897  -14.8116 C   0  0  2  0  0  0  0  0  0  0  0  0
   21.5132   -6.4179  -15.6272 N   0  0  0  0  0  0  0  0  0  0  0  0
   22.0163   -4.0939  -15.1323 C   0  0  0  0  0  0  0  0  0  0  0  0
   23.0236   -4.2496  -15.8624 O   0  0  0  0  0  0  0  0  0  0  0  0
   21.7366   -2.8192  -14.6784 O   0  0  0  0  0  0  0  0  0  0  0  0
  2  1  1  0
  3  2  1  0
  3  4  1  1
  5  7  1  0
  5  3  1  0
  6  5  2  0
  7  8  1  0
  9  8  1  0
 10 11  1  0
 10  9  1  0
 11  7  1  0
 11 12  1  1
 12 17  1  0
 13 12  2  0
 16 15  1  1
 15 14  1  0
 16 18  1  0
 17 16  1  0
 18 20  1  0
 19 18  2  0
M  END
$$$$
