SPS.pdb
     RDKit          3D

 20 20  0  0  1  0  0  0  0  0999 V2000
   19.8651  -12.1467  -19.6032 O   0  0  0  0  0  0  0  0  0  0  0  0
   19.6842  -11.2663  -18.5363 C   0  0  0  0  0  0  0  0  0  0  0  0
   20.0871  -11.9888  -17.2717 C   0  0  2  0  0  0  0  0  0  0  0  0
   19.0582  -12.8903  -16.8678 N   0  0  0  0  0  0  0  0  0  0  0  0
   20.5311  -11.0582  -16.2128 C   0  0  0  0  0  0  0  0  0  0  0  0
   19.6600  -10.6353  -15.4142 O   0  0  0  0  0  0  0  0  0  0  0  0
   21.8647  -10.6191  -16.0457 N   0  0  0  0  0  0  0  0  0  0  0  0
   22.9646  -11.0817  -16.8685 C   0  0  0  0  0  0  0  0  0  0  0  0
   24.2080  -10.4262  -16.3084 C   0  0  0  0  0  0  0  0  0  0  0  0
   23.8464   -9.9478  -14.9408 C   0  0  0  0  0  0  0  0  0  0  0  0
   22.3468   -9.6775  -15.0733 C   0  0  1  0  0  0  0  0  0  0  0  0
   22.2127   -8.2695  -15.5389 C   0  0  0  0  0  0  0  0  0  0  0  0
   22.4051   -8.0141  -16.7522 O   0  0  0  0  0  0  0  0  0  0  0  0
   19.7109   -5.6525  -13.6699 O   0  0  0  0  0  0  0  0  0  0  0  0
   20.1181   -5.5299  -14.9971 C   0  0  0  0  0  0  0  0  0  0  0  0
   21.6090   -5.8682  -15.0674 C   0  0  2  0  0  0  0  0  0  0  0  0
   21.8750   -7.2081  -14.6568 N   0  0  0  0  0  0  0  0  0  0  0  0
   22.4112   -4.8613  -14.3335 C   0  0  0  0  0  0  0  0  0  0  0  0
   22.4278   -3.6889  -14.7772 O   0  0  0  0  0  0  0  0  0  0  0  0
   23.1415   -5.1321  -13.1923 O   0  0  0  0  0  0  0  0  0  0  0  0
  2  1  1  0
  3  2  1  0
  3  4  1  1
  5  7  1  0
  5  3  1  0
  6  5  2  0
  7  8  1  0
  9  8  1  0
 10 11  1  0
 10  9  1  0
 11  7  1  0
 11 12  1  6
 12 17  1  0
 13 12  2  0
 16 15  1  1
 15 14  1  0
 16 18  1  0
 17 16  1  0
 18 20  1  0
 19 18  2  0
M  END
$$$$
