SPS.pdb
     RDKit          3D

 20 20  0  0  1  0  0  0  0  0999 V2000
   19.6667   -8.0074  -17.5648 O   0  0  0  0  0  0  0  0  0  0  0  0
   18.7990   -8.8855  -16.9151 C   0  0  0  0  0  0  0  0  0  0  0  0
   19.2824   -9.0389  -15.4915 C   0  0  2  0  0  0  0  0  0  0  0  0
   18.6169  -10.1298  -14.8579 N   0  0  0  0  0  0  0  0  0  0  0  0
   19.2200   -7.7682  -14.7394 C   0  0  0  0  0  0  0  0  0  0  0  0
   18.1103   -7.4395  -14.2535 O   0  0  0  0  0  0  0  0  0  0  0  0
   20.3233   -6.9078  -14.5354 N   0  0  0  0  0  0  0  0  0  0  0  0
   21.6760   -7.2383  -14.9378 C   0  0  0  0  0  0  0  0  0  0  0  0
   22.5421   -6.0891  -14.4699 C   0  0  0  0  0  0  0  0  0  0  0  0
   21.7355   -5.3457  -13.4566 C   0  0  0  0  0  0  0  0  0  0  0  0
   20.3021   -5.6096  -13.9201 C   0  0  1  0  0  0  0  0  0  0  0  0
   19.9689   -4.5317  -14.8918 C   0  0  0  0  0  0  0  0  0  0  0  0
   20.4563   -4.5885  -16.0467 O   0  0  0  0  0  0  0  0  0  0  0  0
   16.7560   -2.1030  -14.1035 O   0  0  0  0  0  0  0  0  0  0  0  0
   17.1201   -2.3231  -15.4306 C   0  0  0  0  0  0  0  0  0  0  0  0
   18.6422   -2.4723  -15.4849 C   0  0  2  0  0  0  0  0  0  0  0  0
   19.1195   -3.4435  -14.5556 N   0  0  0  0  0  0  0  0  0  0  0  0
   19.3044   -1.1540  -15.3449 C   0  0  0  0  0  0  0  0  0  0  0  0
   20.0043   -0.9556  -14.3239 O   0  0  0  0  0  0  0  0  0  0  0  0
   19.1999   -0.1305  -16.2671 O   0  0  0  0  0  0  0  0  0  0  0  0
  2  1  1  0
  3  2  1  0
  3  4  1  1
  5  7  1  0
  5  3  1  0
  6  5  2  0
  7  8  1  0
  9  8  1  0
 10 11  1  0
 10  9  1  0
 11  7  1  0
 11 12  1  6
 12 17  1  0
 13 12  2  0
 16 15  1  1
 15 14  1  0
 16 18  1  0
 17 16  1  0
 18 20  1  0
 19 18  2  0
M  END
$$$$
