SYQ.pdb
     RDKit          3D

 28 28  0  0  1  0  0  0  0  0999 V2000
    9.4177  -18.9170   19.8923 O   0  0  0  0  0  0  0  0  0  0  0  0
    8.4105  -18.1530   19.3296 C   0  0  0  0  0  0  0  0  0  0  0  0
    8.9200  -16.7356   19.1814 C   0  0  2  0  0  0  0  0  0  0  0  0
   10.1893  -16.7044   18.5049 N   0  0  0  0  0  0  0  0  0  0  0  0
    9.0927  -16.0780   20.5081 C   0  0  0  0  0  0  0  0  0  0  0  0
   10.2390  -16.0399   21.0610 O   0  0  0  0  0  0  0  0  0  0  0  0
    7.0150  -11.6893   27.9377 O   0  0  0  0  0  0  0  0  0  0  0  0
    6.9367  -12.3782   26.7334 C   0  0  0  0  0  0  0  0  0  0  0  0
    6.3786  -13.6293   26.6100 C   0  0  0  0  0  0  0  0  0  0  0  0
    6.3224  -14.2765   25.3925 C   0  0  0  0  0  0  0  0  0  0  0  0
    6.8272  -13.6818   24.2631 C   0  0  0  0  0  0  0  0  0  0  0  0
    6.8182  -14.2792   22.9274 C   0  0  0  0  0  0  0  0  0  0  0  0
    8.1350  -14.9077   22.5381 C   0  0  2  0  0  0  0  0  0  0  0  0
    8.0149  -15.4720   21.2126 N   0  0  0  0  0  0  0  0  0  0  0  0
    8.3855  -16.0125   23.4986 C   0  0  0  0  0  0  0  0  0  0  0  0
    7.6683  -17.0418   23.3899 O   0  0  0  0  0  0  0  0  0  0  0  0
    7.3840  -12.4266   24.4024 C   0  0  0  0  0  0  0  0  0  0  0  0
    7.4468  -11.7687   25.6121 C   0  0  0  0  0  0  0  0  0  0  0  0
   13.0080  -19.1922   23.9583 N   0  0  0  0  0  0  0  0  0  0  0  0
   13.1170  -17.7584   24.0420 C   0  0  0  0  0  0  0  0  0  0  0  0
   14.1982  -17.2792   23.6816 O   0  0  0  0  0  0  0  0  0  0  0  0
   11.9381  -17.0326   24.5439 C   0  0  0  0  0  0  0  0  0  0  0  0
   10.7571  -17.8767   24.8736 C   0  0  0  0  0  0  0  0  0  0  0  0
    9.6124  -17.0611   25.3626 C   0  0  2  0  0  0  0  0  0  0  0  0
    9.3903  -15.9004   24.4887 N   0  0  0  0  0  0  0  0  0  0  0  0
    9.8746  -16.5440   26.7205 C   0  0  0  0  0  0  0  0  0  0  0  0
   10.0907  -17.3475   27.6808 O   0  0  0  0  0  0  0  0  0  0  0  0
    9.8954  -15.1920   26.9831 O   0  0  0  0  0  0  0  0  0  0  0  0
  1  2  1  0
  2  3  1  0
  3  4  1  1
  5  3  1  0
  6  5  2  0
  7  8  1  0
  8 18  2  0
  9 10  2  0
  9  8  1  0
 10 11  1  0
 11 12  1  0
 11 17  2  0
 13 12  1  1
 13 15  1  0
 13 14  1  0
 14  5  1  0
 15 16  2  0
 18 17  1  0
 19 20  1  0
 20 22  1  0
 21 20  2  0
 22 23  1  0
 24 23  1  6
 25 24  1  0
 25 15  1  0
 26 28  1  0
 26 24  1  0
 27 26  2  0
M  END
$$$$
