SYQ.pdb
     RDKit          3D

 28 28  0  0  1  0  0  0  0  0999 V2000
    8.0623  -17.4474   19.5034 O   0  0  0  0  0  0  0  0  0  0  0  0
    6.7998  -16.9242   19.7198 C   0  0  0  0  0  0  0  0  0  0  0  0
    6.9376  -15.4328   19.9364 C   0  0  2  0  0  0  0  0  0  0  0  0
    7.5590  -14.7955   18.8061 N   0  0  0  0  0  0  0  0  0  0  0  0
    7.7623  -15.1318   21.1414 C   0  0  0  0  0  0  0  0  0  0  0  0
    9.0121  -14.9179   21.0264 O   0  0  0  0  0  0  0  0  0  0  0  0
    9.5685  -13.8460   29.7644 O   0  0  0  0  0  0  0  0  0  0  0  0
    8.9566  -13.9044   28.5180 C   0  0  0  0  0  0  0  0  0  0  0  0
    8.8123  -12.8140   27.6921 C   0  0  0  0  0  0  0  0  0  0  0  0
    8.1972  -12.9188   26.4612 C   0  0  0  0  0  0  0  0  0  0  0  0
    7.7093  -14.1258   26.0264 C   0  0  0  0  0  0  0  0  0  0  0  0
    7.0422  -14.3454   24.7427 C   0  0  0  0  0  0  0  0  0  0  0  0
    7.9842  -14.7497   23.6338 C   0  0  2  0  0  0  0  0  0  0  0  0
    7.2137  -15.0685   22.4529 N   0  0  0  0  0  0  0  0  0  0  0  0
    8.6803  -15.9807   24.0876 C   0  0  0  0  0  0  0  0  0  0  0  0
    8.1004  -17.0787   23.8784 O   0  0  0  0  0  0  0  0  0  0  0  0
    7.8614  -15.2107   26.8659 C   0  0  0  0  0  0  0  0  0  0  0  0
    8.4736  -15.1204   28.0976 C   0  0  0  0  0  0  0  0  0  0  0  0
   14.2485  -15.1964   21.9777 N   0  0  0  0  0  0  0  0  0  0  0  0
   13.9100  -16.5028   22.4809 C   0  0  0  0  0  0  0  0  0  0  0  0
   14.4060  -17.4585   21.8734 O   0  0  0  0  0  0  0  0  0  0  0  0
   13.0182  -16.5510   23.6519 C   0  0  0  0  0  0  0  0  0  0  0  0
   11.6342  -17.0299   23.3853 C   0  0  0  0  0  0  0  0  0  0  0  0
   10.8177  -17.0843   24.6284 C   0  0  2  0  0  0  0  0  0  0  0  0
    9.9409  -15.9088   24.7264 N   0  0  0  0  0  0  0  0  0  0  0  0
   11.6805  -17.0891   25.8266 C   0  0  0  0  0  0  0  0  0  0  0  0
   11.6548  -16.1116   26.6379 O   0  0  0  0  0  0  0  0  0  0  0  0
   12.5264  -18.1415   26.0990 O   0  0  0  0  0  0  0  0  0  0  0  0
  1  2  1  0
  2  3  1  0
  3  4  1  6
  5  3  1  0
  6  5  2  0
  7  8  1  0
  8 18  2  0
  9 10  2  0
  9  8  1  0
 10 11  1  0
 11 12  1  0
 11 17  2  0
 13 12  1  1
 13 15  1  0
 13 14  1  0
 14  5  1  0
 15 16  2  0
 18 17  1  0
 19 20  1  0
 20 22  1  0
 21 20  2  0
 22 23  1  0
 24 23  1  6
 25 24  1  0
 25 15  1  0
 26 28  1  0
 26 24  1  0
 27 26  2  0
M  END
$$$$
