SYQ.pdb
     RDKit          3D

 28 28  0  0  1  0  0  0  0  0999 V2000
    7.5585  -15.7497   19.6277 O   0  0  0  0  0  0  0  0  0  0  0  0
    6.5114  -14.9137   19.9730 C   0  0  0  0  0  0  0  0  0  0  0  0
    7.0939  -13.6329   20.5304 C   0  0  2  0  0  0  0  0  0  0  0  0
    7.8409  -12.9192   19.5292 N   0  0  0  0  0  0  0  0  0  0  0  0
    8.0084  -13.9045   21.6760 C   0  0  0  0  0  0  0  0  0  0  0  0
    9.2676  -13.9543   21.4941 O   0  0  0  0  0  0  0  0  0  0  0  0
   10.5597  -14.8845   30.1517 O   0  0  0  0  0  0  0  0  0  0  0  0
    9.8396  -14.6630   28.9839 C   0  0  0  0  0  0  0  0  0  0  0  0
    9.7250  -13.4298   28.3857 C   0  0  0  0  0  0  0  0  0  0  0  0
    8.9987  -13.2564   27.2252 C   0  0  0  0  0  0  0  0  0  0  0  0
    8.3664  -14.3211   26.6332 C   0  0  0  0  0  0  0  0  0  0  0  0
    7.5733  -14.2465   25.4058 C   0  0  0  0  0  0  0  0  0  0  0  0
    8.4046  -14.2922   24.1458 C   0  0  2  0  0  0  0  0  0  0  0  0
    7.5380  -14.1175   23.0020 N   0  0  0  0  0  0  0  0  0  0  0  0
    9.0074  -15.6478   24.0765 C   0  0  0  0  0  0  0  0  0  0  0  0
    8.2513  -16.5959   23.7371 O   0  0  0  0  0  0  0  0  0  0  0  0
    8.4903  -15.5522   27.2448 C   0  0  0  0  0  0  0  0  0  0  0  0
    9.2125  -15.7396   28.4039 C   0  0  0  0  0  0  0  0  0  0  0  0
   13.9578  -17.0887   21.0794 N   0  0  0  0  0  0  0  0  0  0  0  0
   13.7575  -18.3311   21.7800 C   0  0  0  0  0  0  0  0  0  0  0  0
   14.4741  -19.2725   21.4216 O   0  0  0  0  0  0  0  0  0  0  0  0
   12.7296  -18.3385   22.8346 C   0  0  0  0  0  0  0  0  0  0  0  0
   12.0011  -17.0551   23.0299 C   0  0  0  0  0  0  0  0  0  0  0  0
   10.9472  -17.1697   24.0744 C   0  0  2  0  0  0  0  0  0  0  0  0
   10.3741  -15.8516   24.3814 N   0  0  0  0  0  0  0  0  0  0  0  0
   11.5055  -17.7087   25.3305 C   0  0  0  0  0  0  0  0  0  0  0  0
   11.9645  -16.9222   26.2165 O   0  0  0  0  0  0  0  0  0  0  0  0
   11.5425  -19.0633   25.5776 O   0  0  0  0  0  0  0  0  0  0  0  0
  1  2  1  0
  2  3  1  0
  3  4  1  6
  5  3  1  0
  6  5  2  0
  7  8  1  0
  8 18  2  0
  9 10  2  0
  9  8  1  0
 10 11  1  0
 11 12  1  0
 11 17  2  0
 13 12  1  1
 13 15  1  0
 13 14  1  0
 14  5  1  0
 15 16  2  0
 18 17  1  0
 19 20  1  0
 20 22  1  0
 21 20  2  0
 22 23  1  0
 24 23  1  6
 25 24  1  0
 25 15  1  0
 26 28  1  0
 26 24  1  0
 27 26  2  0
M  END
$$$$
