SYQ.pdb
     RDKit          3D

 28 28  0  0  1  0  0  0  0  0999 V2000
    6.6310  -20.9014   21.5650 O   0  0  0  0  0  0  0  0  0  0  0  0
    6.3839  -20.9886   22.9237 C   0  0  0  0  0  0  0  0  0  0  0  0
    5.1475  -20.1721   23.2320 C   0  0  2  0  0  0  0  0  0  0  0  0
    4.1472  -20.3320   22.2104 N   0  0  0  0  0  0  0  0  0  0  0  0
    5.4667  -18.7195   23.3358 C   0  0  0  0  0  0  0  0  0  0  0  0
    5.1849  -17.9305   22.3772 O   0  0  0  0  0  0  0  0  0  0  0  0
    7.7828  -10.9621   27.0194 O   0  0  0  0  0  0  0  0  0  0  0  0
    7.4559  -12.2883   26.7634 C   0  0  0  0  0  0  0  0  0  0  0  0
    6.1926  -12.7040   26.4124 C   0  0  0  0  0  0  0  0  0  0  0  0
    5.9133  -14.0330   26.1672 C   0  0  0  0  0  0  0  0  0  0  0  0
    6.8993  -14.9825   26.2686 C   0  0  0  0  0  0  0  0  0  0  0  0
    6.7103  -16.4139   26.0308 C   0  0  0  0  0  0  0  0  0  0  0  0
    6.4755  -16.7592   24.5795 C   0  0  2  0  0  0  0  0  0  0  0  0
    6.0878  -18.1484   24.4818 N   0  0  0  0  0  0  0  0  0  0  0  0
    7.7734  -16.5828   23.8794 C   0  0  0  0  0  0  0  0  0  0  0  0
    8.5597  -17.5664   23.8708 O   0  0  0  0  0  0  0  0  0  0  0  0
    8.1617  -14.5505   26.6217 C   0  0  0  0  0  0  0  0  0  0  0  0
    8.4546  -13.2265   26.8693 C   0  0  0  0  0  0  0  0  0  0  0  0
    7.7402  -12.5718   19.0878 N   0  0  0  0  0  0  0  0  0  0  0  0
    8.9081  -13.3669   18.8080 C   0  0  0  0  0  0  0  0  0  0  0  0
    9.4397  -13.1739   17.7086 O   0  0  0  0  0  0  0  0  0  0  0  0
    9.3322  -14.3122   19.8547 C   0  0  0  0  0  0  0  0  0  0  0  0
    8.5045  -14.3134   21.0919 C   0  0  0  0  0  0  0  0  0  0  0  0
    8.8864  -15.4183   22.0128 C   0  0  2  0  0  0  0  0  0  0  0  0
    8.1001  -15.3567   23.2530 N   0  0  0  0  0  0  0  0  0  0  0  0
   10.3104  -15.3218   22.3910 C   0  0  0  0  0  0  0  0  0  0  0  0
   11.2155  -15.4010   21.5028 O   0  0  0  0  0  0  0  0  0  0  0  0
   10.6955  -15.1424   23.7013 O   0  0  0  0  0  0  0  0  0  0  0  0
  1  2  1  0
  2  3  1  0
  3  4  1  6
  5  3  1  0
  6  5  2  0
  7  8  1  0
  8 18  2  0
  9 10  2  0
  9  8  1  0
 10 11  1  0
 11 12  1  0
 11 17  2  0
 13 12  1  1
 13 15  1  0
 13 14  1  0
 14  5  1  0
 15 16  2  0
 18 17  1  0
 19 20  1  0
 20 22  1  0
 21 20  2  0
 22 23  1  0
 24 23  1  6
 25 24  1  0
 25 15  1  0
 26 28  1  0
 26 24  1  0
 27 26  2  0
M  END
$$$$
