SYQ.pdb
     RDKit          3D

 28 28  0  0  1  0  0  0  0  0999 V2000
    9.8374  -19.0369   20.6849 O   0  0  0  0  0  0  0  0  0  0  0  0
    8.9877  -18.4610   19.7571 C   0  0  0  0  0  0  0  0  0  0  0  0
    9.4129  -17.0225   19.5564 C   0  0  2  0  0  0  0  0  0  0  0  0
   10.6960  -16.9419   18.9108 N   0  0  0  0  0  0  0  0  0  0  0  0
    9.5082  -16.2971   20.8553 C   0  0  0  0  0  0  0  0  0  0  0  0
   10.6087  -16.2684   21.4950 O   0  0  0  0  0  0  0  0  0  0  0  0
    6.7291  -11.7032   27.9846 O   0  0  0  0  0  0  0  0  0  0  0  0
    6.8794  -12.2719   26.7255 C   0  0  0  0  0  0  0  0  0  0  0  0
    7.7069  -11.7573   25.7547 C   0  0  0  0  0  0  0  0  0  0  0  0
    7.8250  -12.3561   24.5170 C   0  0  0  0  0  0  0  0  0  0  0  0
    7.1125  -13.4913   24.2212 C   0  0  0  0  0  0  0  0  0  0  0  0
    7.1643  -14.2028   22.9436 C   0  0  0  0  0  0  0  0  0  0  0  0
    8.4448  -14.9756   22.7342 C   0  0  2  0  0  0  0  0  0  0  0  0
    8.4040  -15.6141   21.4379 N   0  0  0  0  0  0  0  0  0  0  0  0
    8.4858  -16.0318   23.7776 C   0  0  0  0  0  0  0  0  0  0  0  0
    7.7941  -17.0647   23.5767 O   0  0  0  0  0  0  0  0  0  0  0  0
    6.2864  -13.9959   25.2051 C   0  0  0  0  0  0  0  0  0  0  0  0
    6.1589  -13.4081   26.4454 C   0  0  0  0  0  0  0  0  0  0  0  0
   11.6027  -19.9602   23.8421 N   0  0  0  0  0  0  0  0  0  0  0  0
   12.3243  -18.9016   24.5003 C   0  0  0  0  0  0  0  0  0  0  0  0
   13.5569  -18.9941   24.4753 O   0  0  0  0  0  0  0  0  0  0  0  0
   11.5181  -17.8385   25.1237 C   0  0  0  0  0  0  0  0  0  0  0  0
   10.0708  -18.1443   25.2898 C   0  0  0  0  0  0  0  0  0  0  0  0
    9.3273  -16.9999   25.8832 C   0  0  2  0  0  0  0  0  0  0  0  0
    9.2725  -15.8717   24.9428 N   0  0  0  0  0  0  0  0  0  0  0  0
    9.9930  -16.5169   27.1094 C   0  0  0  0  0  0  0  0  0  0  0  0
   10.5059  -15.3549   27.1442 O   0  0  0  0  0  0  0  0  0  0  0  0
   10.0747  -17.3006   28.2392 O   0  0  0  0  0  0  0  0  0  0  0  0
  1  2  1  0
  2  3  1  0
  3  4  1  1
  5  3  1  0
  6  5  2  0
  7  8  1  0
  8 18  2  0
  9 10  2  0
  9  8  1  0
 10 11  1  0
 11 12  1  0
 11 17  2  0
 13 12  1  1
 13 15  1  0
 13 14  1  0
 14  5  1  0
 15 16  2  0
 18 17  1  0
 19 20  1  0
 20 22  1  0
 21 20  2  0
 22 23  1  0
 24 23  1  6
 25 24  1  0
 25 15  1  0
 26 28  1  0
 26 24  1  0
 27 26  2  0
M  END
$$$$
