SYQ.pdb
     RDKit          3D

 28 28  0  0  1  0  0  0  0  0999 V2000
    8.1332  -18.6886   18.2173 O   0  0  0  0  0  0  0  0  0  0  0  0
    8.3424  -18.0451   19.4243 C   0  0  0  0  0  0  0  0  0  0  0  0
    8.5280  -16.5690   19.1463 C   0  0  2  0  0  0  0  0  0  0  0  0
    9.6278  -16.3405   18.2475 N   0  0  0  0  0  0  0  0  0  0  0  0
    8.7967  -15.8088   20.4003 C   0  0  0  0  0  0  0  0  0  0  0  0
    9.9939  -15.5646   20.7585 O   0  0  0  0  0  0  0  0  0  0  0  0
    7.2850  -11.7018   28.0976 O   0  0  0  0  0  0  0  0  0  0  0  0
    7.0995  -12.3935   26.9066 C   0  0  0  0  0  0  0  0  0  0  0  0
    6.4484  -13.6023   26.8249 C   0  0  0  0  0  0  0  0  0  0  0  0
    6.2873  -14.2541   25.6193 C   0  0  0  0  0  0  0  0  0  0  0  0
    6.7778  -13.7066   24.4601 C   0  0  0  0  0  0  0  0  0  0  0  0
    6.6616  -14.3130   23.1335 C   0  0  0  0  0  0  0  0  0  0  0  0
    7.9841  -14.7544   22.5532 C   0  0  2  0  0  0  0  0  0  0  0  0
    7.7581  -15.3261   21.2449 N   0  0  0  0  0  0  0  0  0  0  0  0
    8.5128  -15.8171   23.4459 C   0  0  0  0  0  0  0  0  0  0  0  0
    7.9533  -16.9439   23.3914 O   0  0  0  0  0  0  0  0  0  0  0  0
    7.4287  -12.4934   24.5577 C   0  0  0  0  0  0  0  0  0  0  0  0
    7.5967  -11.8316   25.7552 C   0  0  0  0  0  0  0  0  0  0  0  0
   14.3696  -16.7648   24.1178 N   0  0  0  0  0  0  0  0  0  0  0  0
   13.5327  -17.6846   23.3910 C   0  0  0  0  0  0  0  0  0  0  0  0
   14.1119  -18.4058   22.5707 O   0  0  0  0  0  0  0  0  0  0  0  0
   12.0941  -17.6610   23.7048 C   0  0  0  0  0  0  0  0  0  0  0  0
   11.6880  -16.7193   24.7838 C   0  0  0  0  0  0  0  0  0  0  0  0
   10.2139  -16.7142   24.9888 C   0  0  2  0  0  0  0  0  0  0  0  0
    9.5993  -15.5613   24.3156 N   0  0  0  0  0  0  0  0  0  0  0  0
    9.8811  -16.6130   26.4237 C   0  0  0  0  0  0  0  0  0  0  0  0
   10.2506  -17.5208   27.2323 O   0  0  0  0  0  0  0  0  0  0  0  0
    9.1712  -15.5434   26.9232 O   0  0  0  0  0  0  0  0  0  0  0  0
  1  2  1  0
  2  3  1  0
  3  4  1  6
  5  3  1  0
  6  5  2  0
  7  8  1  0
  8 18  2  0
  9 10  2  0
  9  8  1  0
 10 11  1  0
 11 12  1  0
 11 17  2  0
 13 12  1  1
 13 15  1  0
 13 14  1  0
 14  5  1  0
 15 16  2  0
 18 17  1  0
 19 20  1  0
 20 22  1  0
 21 20  2  0
 22 23  1  0
 24 23  1  1
 25 24  1  0
 25 15  1  0
 26 28  1  0
 26 24  1  0
 27 26  2  0
M  END
$$$$
