SYQ.pdb
     RDKit          3D

 28 28  0  0  1  0  0  0  0  0999 V2000
    8.6948  -20.6710   18.4232 O   0  0  0  0  0  0  0  0  0  0  0  0
    9.4117  -19.9010   19.3220 C   0  0  0  0  0  0  0  0  0  0  0  0
    9.4360  -18.4772   18.8096 C   0  0  2  0  0  0  0  0  0  0  0  0
   10.2003  -18.3715   17.5953 N   0  0  0  0  0  0  0  0  0  0  0  0
   10.0364  -17.5491   19.8100 C   0  0  0  0  0  0  0  0  0  0  0  0
   11.2482  -17.1763   19.6931 O   0  0  0  0  0  0  0  0  0  0  0  0
    6.3636  -12.0492   18.3085 O   0  0  0  0  0  0  0  0  0  0  0  0
    6.9976  -12.7808   19.3055 C   0  0  0  0  0  0  0  0  0  0  0  0
    8.2120  -12.4300   19.8481 C   0  0  0  0  0  0  0  0  0  0  0  0
    8.8049  -13.1874   20.8375 C   0  0  0  0  0  0  0  0  0  0  0  0
    8.1915  -14.3209   21.3095 C   0  0  0  0  0  0  0  0  0  0  0  0
    8.7324  -15.1926   22.3529 C   0  0  0  0  0  0  0  0  0  0  0  0
    9.8456  -16.0922   21.8712 C   0  0  2  0  0  0  0  0  0  0  0  0
    9.3083  -17.0413   20.9222 N   0  0  0  0  0  0  0  0  0  0  0  0
   10.3384  -16.8398   23.0562 C   0  0  0  0  0  0  0  0  0  0  0  0
    9.5624  -17.6940   23.5598 O   0  0  0  0  0  0  0  0  0  0  0  0
    6.9736  -14.6602   20.7556 C   0  0  0  0  0  0  0  0  0  0  0  0
    6.3701  -13.9130   19.7670 C   0  0  0  0  0  0  0  0  0  0  0  0
   15.8750  -19.0971   23.6905 N   0  0  0  0  0  0  0  0  0  0  0  0
   14.7861  -19.3562   22.7841 C   0  0  0  0  0  0  0  0  0  0  0  0
   15.0655  -20.0305   21.7863 O   0  0  0  0  0  0  0  0  0  0  0  0
   13.4746  -18.7923   23.1459 C   0  0  0  0  0  0  0  0  0  0  0  0
   13.4442  -17.9919   24.4006 C   0  0  0  0  0  0  0  0  0  0  0  0
   12.0845  -17.4572   24.6837 C   0  0  2  0  0  0  0  0  0  0  0  0
   11.6269  -16.5930   23.5865 N   0  0  0  0  0  0  0  0  0  0  0  0
   12.0840  -16.6412   25.9142 C   0  0  0  0  0  0  0  0  0  0  0  0
   12.3612  -17.1723   27.0347 O   0  0  0  0  0  0  0  0  0  0  0  0
   11.7896  -15.2959   25.8844 O   0  0  0  0  0  0  0  0  0  0  0  0
  1  2  1  0
  2  3  1  0
  3  4  1  6
  5  3  1  0
  6  5  2  0
  7  8  1  0
  8 18  2  0
  9 10  2  0
  9  8  1  0
 10 11  1  0
 11 12  1  0
 11 17  2  0
 13 12  1  1
 13 15  1  0
 13 14  1  0
 14  5  1  0
 15 16  2  0
 18 17  1  0
 19 20  1  0
 20 22  1  0
 21 20  2  0
 22 23  1  0
 24 23  1  6
 25 24  1  0
 25 15  1  0
 26 28  1  0
 26 24  1  0
 27 26  2  0
M  END
$$$$
