SYQ.pdb
     RDKit          3D

 28 28  0  0  1  0  0  0  0  0999 V2000
    8.0262  -18.3868   20.0641 O   0  0  0  0  0  0  0  0  0  0  0  0
    9.2037  -18.0742   19.4080 C   0  0  0  0  0  0  0  0  0  0  0  0
    9.2826  -16.5691   19.2711 C   0  0  2  0  0  0  0  0  0  0  0  0
   10.4191  -16.1748   18.4820 N   0  0  0  0  0  0  0  0  0  0  0  0
    9.3981  -15.9070   20.6018 C   0  0  0  0  0  0  0  0  0  0  0  0
   10.5271  -15.8321   21.1854 O   0  0  0  0  0  0  0  0  0  0  0  0
    6.8969  -11.8293   28.0885 O   0  0  0  0  0  0  0  0  0  0  0  0
    6.9009  -12.4338   26.8371 C   0  0  0  0  0  0  0  0  0  0  0  0
    6.3252  -13.6570   26.5837 C   0  0  0  0  0  0  0  0  0  0  0  0
    6.3533  -14.2196   25.3239 C   0  0  0  0  0  0  0  0  0  0  0  0
    6.9626  -13.5658   24.2821 C   0  0  0  0  0  0  0  0  0  0  0  0
    7.0487  -14.0722   22.9120 C   0  0  0  0  0  0  0  0  0  0  0  0
    8.3431  -14.7905   22.6138 C   0  0  2  0  0  0  0  0  0  0  0  0
    8.2826  -15.3366   21.2766 N   0  0  0  0  0  0  0  0  0  0  0  0
    8.4428  -15.9163   23.5774 C   0  0  0  0  0  0  0  0  0  0  0  0
    7.7567  -16.9436   23.3333 O   0  0  0  0  0  0  0  0  0  0  0  0
    7.5359  -12.3395   24.5516 C   0  0  0  0  0  0  0  0  0  0  0  0
    7.5152  -11.7660   25.8049 C   0  0  0  0  0  0  0  0  0  0  0  0
   12.2436  -19.5813   23.6486 N   0  0  0  0  0  0  0  0  0  0  0  0
   12.6867  -18.2575   24.0034 C   0  0  0  0  0  0  0  0  0  0  0  0
   13.8572  -17.9860   23.7123 O   0  0  0  0  0  0  0  0  0  0  0  0
   11.7032  -17.3857   24.6677 C   0  0  0  0  0  0  0  0  0  0  0  0
   10.3657  -17.9934   24.9079 C   0  0  0  0  0  0  0  0  0  0  0  0
    9.4262  -17.0308   25.5446 C   0  0  2  0  0  0  0  0  0  0  0  0
    9.2767  -15.8254   24.7169 N   0  0  0  0  0  0  0  0  0  0  0  0
    9.9282  -16.5975   26.8639 C   0  0  0  0  0  0  0  0  0  0  0  0
   10.2077  -15.3758   27.0728 O   0  0  0  0  0  0  0  0  0  0  0  0
   10.1036  -17.4931   27.8956 O   0  0  0  0  0  0  0  0  0  0  0  0
  1  2  1  0
  2  3  1  0
  3  4  1  6
  5  3  1  0
  6  5  2  0
  7  8  1  0
  8 18  2  0
  9 10  2  0
  9  8  1  0
 10 11  1  0
 11 12  1  0
 11 17  2  0
 13 12  1  1
 13 15  1  0
 13 14  1  0
 14  5  1  0
 15 16  2  0
 18 17  1  0
 19 20  1  0
 20 22  1  0
 21 20  2  0
 22 23  1  0
 24 23  1  6
 25 24  1  0
 25 15  1  0
 26 28  1  0
 26 24  1  0
 27 26  2  0
M  END
$$$$
