SYQ.pdb
     RDKit          3D

 28 28  0  0  1  0  0  0  0  0999 V2000
    8.1969  -19.0286   18.3070 O   0  0  0  0  0  0  0  0  0  0  0  0
    8.5636  -18.4452   19.5069 C   0  0  0  0  0  0  0  0  0  0  0  0
    8.9387  -17.0043   19.2361 C   0  0  2  0  0  0  0  0  0  0  0  0
   10.1451  -16.9156   18.4573 N   0  0  0  0  0  0  0  0  0  0  0  0
    9.1568  -16.2513   20.5042 C   0  0  0  0  0  0  0  0  0  0  0  0
   10.3326  -16.1079   20.9712 O   0  0  0  0  0  0  0  0  0  0  0  0
    6.9957  -11.9637   28.0270 O   0  0  0  0  0  0  0  0  0  0  0  0
    7.0290  -12.4926   26.7423 C   0  0  0  0  0  0  0  0  0  0  0  0
    7.6996  -11.9026   25.6963 C   0  0  0  0  0  0  0  0  0  0  0  0
    7.7055  -12.4641   24.4357 C   0  0  0  0  0  0  0  0  0  0  0  0
    7.0356  -13.6371   24.1921 C   0  0  0  0  0  0  0  0  0  0  0  0
    6.9781  -14.3145   22.8964 C   0  0  0  0  0  0  0  0  0  0  0  0
    8.2613  -15.0196   22.5261 C   0  0  2  0  0  0  0  0  0  0  0  0
    8.0916  -15.6660   21.2442 N   0  0  0  0  0  0  0  0  0  0  0  0
    8.4894  -16.0668   23.5543 C   0  0  0  0  0  0  0  0  0  0  0  0
    7.8441  -17.1412   23.4328 O   0  0  0  0  0  0  0  0  0  0  0  0
    6.3674  -14.2174   25.2513 C   0  0  0  0  0  0  0  0  0  0  0  0
    6.3532  -13.6675   26.5152 C   0  0  0  0  0  0  0  0  0  0  0  0
   12.2402  -19.6913   23.5460 N   0  0  0  0  0  0  0  0  0  0  0  0
   12.6992  -18.3352   23.7033 C   0  0  0  0  0  0  0  0  0  0  0  0
   13.8081  -18.0829   23.2186 O   0  0  0  0  0  0  0  0  0  0  0  0
   11.8028  -17.4112   24.4186 C   0  0  0  0  0  0  0  0  0  0  0  0
   10.5164  -17.9974   24.8850 C   0  0  0  0  0  0  0  0  0  0  0  0
    9.6457  -16.9785   25.5319 C   0  0  2  0  0  0  0  0  0  0  0  0
    9.3959  -15.8534   24.6198 N   0  0  0  0  0  0  0  0  0  0  0  0
   10.2873  -16.4278   26.7423 C   0  0  0  0  0  0  0  0  0  0  0  0
   10.6124  -17.1962   27.7006 O   0  0  0  0  0  0  0  0  0  0  0  0
   10.5520  -15.0817   26.8662 O   0  0  0  0  0  0  0  0  0  0  0  0
  1  2  1  0
  2  3  1  0
  3  4  1  6
  5  3  1  0
  6  5  2  0
  7  8  1  0
  8 18  2  0
  9 10  2  0
  9  8  1  0
 10 11  1  0
 11 12  1  0
 11 17  2  0
 13 12  1  1
 13 15  1  0
 13 14  1  0
 14  5  1  0
 15 16  2  0
 18 17  1  0
 19 20  1  0
 20 22  1  0
 21 20  2  0
 22 23  1  0
 24 23  1  6
 25 24  1  0
 25 15  1  0
 26 28  1  0
 26 24  1  0
 27 26  2  0
M  END
$$$$
