SYQ.pdb
     RDKit          3D

 28 28  0  0  1  0  0  0  0  0999 V2000
   10.3158  -19.5645   22.2811 O   0  0  0  0  0  0  0  0  0  0  0  0
    9.0604  -19.6333   21.7033 C   0  0  0  0  0  0  0  0  0  0  0  0
    8.7532  -18.2888   21.0801 C   0  0  2  0  0  0  0  0  0  0  0  0
    9.6259  -18.0157   19.9694 N   0  0  0  0  0  0  0  0  0  0  0  0
    8.9100  -17.1829   22.0675 C   0  0  0  0  0  0  0  0  0  0  0  0
    9.9706  -16.4786   22.0790 O   0  0  0  0  0  0  0  0  0  0  0  0
    6.5855  -10.6851   27.5315 O   0  0  0  0  0  0  0  0  0  0  0  0
    6.5560  -11.8657   26.7992 C   0  0  0  0  0  0  0  0  0  0  0  0
    6.0206  -13.0402   27.2746 C   0  0  0  0  0  0  0  0  0  0  0  0
    6.0130  -14.1898   26.5113 C   0  0  0  0  0  0  0  0  0  0  0  0
    6.5448  -14.1897   25.2459 C   0  0  0  0  0  0  0  0  0  0  0  0
    6.5875  -15.3503   24.3559 C   0  0  0  0  0  0  0  0  0  0  0  0
    7.9833  -15.7235   23.9164 C   0  0  2  0  0  0  0  0  0  0  0  0
    7.9098  -16.8608   23.0271 N   0  0  0  0  0  0  0  0  0  0  0  0
    8.7253  -16.1285   25.1375 C   0  0  0  0  0  0  0  0  0  0  0  0
    8.4736  -17.2678   25.6111 O   0  0  0  0  0  0  0  0  0  0  0  0
    7.0783  -13.0041   24.7824 C   0  0  0  0  0  0  0  0  0  0  0  0
    7.0925  -11.8486   25.5340 C   0  0  0  0  0  0  0  0  0  0  0  0
   14.4342  -16.0440   25.0607 N   0  0  0  0  0  0  0  0  0  0  0  0
   13.7849  -17.2912   25.3732 C   0  0  0  0  0  0  0  0  0  0  0  0
   14.4099  -18.3139   25.0699 O   0  0  0  0  0  0  0  0  0  0  0  0
   12.4609  -17.2068   26.0124 C   0  0  0  0  0  0  0  0  0  0  0  0
   11.9710  -15.8297   26.2943 C   0  0  0  0  0  0  0  0  0  0  0  0
   10.5575  -15.8290   26.7600 C   0  0  2  0  0  0  0  0  0  0  0  0
    9.6721  -15.2618   25.7332 N   0  0  0  0  0  0  0  0  0  0  0  0
   10.4029  -15.0059   27.9760 C   0  0  0  0  0  0  0  0  0  0  0  0
    9.8121  -13.8825   27.9178 O   0  0  0  0  0  0  0  0  0  0  0  0
   10.8858  -15.4272   29.1953 O   0  0  0  0  0  0  0  0  0  0  0  0
  1  2  1  0
  2  3  1  0
  3  4  1  6
  5  3  1  0
  6  5  2  0
  7  8  1  0
  8 18  2  0
  9 10  2  0
  9  8  1  0
 10 11  1  0
 11 12  1  0
 11 17  2  0
 13 12  1  1
 13 15  1  0
 13 14  1  0
 14  5  1  0
 15 16  2  0
 18 17  1  0
 19 20  1  0
 20 22  1  0
 21 20  2  0
 22 23  1  0
 24 23  1  6
 25 24  1  0
 25 15  1  0
 26 28  1  0
 26 24  1  0
 27 26  2  0
M  END
$$$$
