AKT.pdb
     RDKit          3D

 22 21  0  0  1  0  0  0  0  0999 V2000
   12.2614  -19.7481   17.3127 C   0  0  0  0  0  0  0  0  0  0  0  0
   11.0071  -20.5199   17.6491 C   0  0  2  0  0  0  0  0  0  0  0  0
    9.9986  -20.1745   16.6646 N   0  0  0  0  0  0  0  0  0  0  0  0
   10.4904  -20.1729   19.0083 C   0  0  0  0  0  0  0  0  0  0  0  0
   10.4762  -18.9919   19.4224 O   0  0  0  0  0  0  0  0  0  0  0  0
    9.9952  -21.1775   19.8813 N   0  0  0  0  0  0  0  0  0  0  0  0
    9.4865  -20.9459   21.2092 C   0  0  1  0  0  0  0  0  0  0  0  0
    8.4955  -21.9883   21.6374 C   0  0  0  0  0  0  0  0  0  0  0  0
    7.2857  -22.1401   20.7994 C   0  0  0  0  0  0  0  0  0  0  0  0
    6.2889  -23.1599   21.2274 C   0  0  0  0  0  0  0  0  0  0  0  0
    5.0382  -23.0985   20.3391 C   0  0  0  0  0  0  0  0  0  0  0  0
    4.0873  -24.1146   20.6851 N   0  0  0  0  0  0  0  0  0  0  0  0
   10.5278  -20.6496   22.2106 C   0  0  0  0  0  0  0  0  0  0  0  0
   11.6344  -21.2933   22.1767 O   0  0  0  0  0  0  0  0  0  0  0  0
   11.2425  -16.9479   23.4194 C   0  0  0  0  0  0  0  0  0  0  0  0
   12.2556  -18.0866   23.4139 C   0  0  1  0  0  0  0  0  0  0  0  0
   13.3371  -17.7025   24.1842 O   0  0  0  0  0  0  0  0  0  0  0  0
   11.5703  -19.2962   24.0267 C   0  0  2  0  0  0  0  0  0  0  0  0
   10.4074  -19.6800   23.2405 N   0  0  0  0  0  0  0  0  0  0  0  0
   11.1304  -19.0182   25.4061 C   0  0  0  0  0  0  0  0  0  0  0  0
    9.9202  -18.8041   25.6359 O   0  0  0  0  0  0  0  0  0  0  0  0
   11.9967  -18.9787   26.4886 O   0  0  0  0  0  0  0  0  0  0  0  0
  2  1  1  6
  2  3  1  0
  4  2  1  0
  4  5  2  0
  6  4  1  0
  7  6  1  0
  7 13  1  0
  7  8  1  1
  9 10  1  0
  9  8  1  0
 10 11  1  0
 11 12  1  0
 13 19  1  0
 13 14  2  0
 16 15  1  1
 16 17  1  0
 18 16  1  0
 18 19  1  6
 20 22  1  0
 20 18  1  0
 21 20  2  0
M  END
$$$$
