AKT.pdb
     RDKit          3D

 22 21  0  0  1  0  0  0  0  0999 V2000
    8.4245  -12.4590   19.4933 C   0  0  0  0  0  0  0  0  0  0  0  0
    8.0951  -13.9329   19.4561 C   0  0  2  0  0  0  0  0  0  0  0  0
    7.1139  -14.1398   18.4071 N   0  0  0  0  0  0  0  0  0  0  0  0
    7.5193  -14.4052   20.7523 C   0  0  0  0  0  0  0  0  0  0  0  0
    6.3000  -14.2884   21.0094 O   0  0  0  0  0  0  0  0  0  0  0  0
    8.3412  -15.0062   21.7422 N   0  0  0  0  0  0  0  0  0  0  0  0
    7.8661  -15.6069   22.9626 C   0  0  1  0  0  0  0  0  0  0  0  0
    8.0321  -17.0983   22.9743 C   0  0  0  0  0  0  0  0  0  0  0  0
    7.6413  -17.8015   24.2159 C   0  0  0  0  0  0  0  0  0  0  0  0
    7.7416  -19.2869   24.2132 C   0  0  0  0  0  0  0  0  0  0  0  0
    7.2718  -19.8623   25.5569 C   0  0  0  0  0  0  0  0  0  0  0  0
    7.3371  -21.2947   25.5763 N   0  0  0  0  0  0  0  0  0  0  0  0
    8.3345  -14.9336   24.1882 C   0  0  0  0  0  0  0  0  0  0  0  0
    9.5620  -14.5804   24.2820 O   0  0  0  0  0  0  0  0  0  0  0  0
    7.0797  -11.7168   25.8469 C   0  0  0  0  0  0  0  0  0  0  0  0
    7.0733  -12.8228   26.8956 C   0  0  1  0  0  0  0  0  0  0  0  0
    5.7957  -13.3465   26.9592 O   0  0  0  0  0  0  0  0  0  0  0  0
    8.0587  -13.8823   26.4323 C   0  0  2  0  0  0  0  0  0  0  0  0
    7.5164  -14.6308   25.3082 N   0  0  0  0  0  0  0  0  0  0  0  0
    8.3720  -14.8303   27.5170 C   0  0  0  0  0  0  0  0  0  0  0  0
    8.0460  -16.0317   27.3991 O   0  0  0  0  0  0  0  0  0  0  0  0
    9.0208  -14.4626   28.6864 O   0  0  0  0  0  0  0  0  0  0  0  0
  2  1  1  1
  2  3  1  0
  4  2  1  0
  4  5  2  0
  6  4  1  0
  7  6  1  0
  7 13  1  0
  7  8  1  1
  9 10  1  0
  9  8  1  0
 10 11  1  0
 11 12  1  0
 13 19  1  0
 13 14  2  0
 16 15  1  6
 16 17  1  0
 18 16  1  0
 18 19  1  6
 20 22  1  0
 20 18  1  0
 21 20  2  0
M  END
$$$$
