AKT.pdb
     RDKit          3D

 22 21  0  0  1  0  0  0  0  0999 V2000
   -1.9936  -28.1509   28.8308 C   0  0  0  0  0  0  0  0  0  0  0  0
   -1.8968  -26.6892   29.2003 C   0  0  2  0  0  0  0  0  0  0  0  0
   -1.0602  -26.5868   30.3816 N   0  0  0  0  0  0  0  0  0  0  0  0
   -3.2379  -26.1055   29.5092 C   0  0  0  0  0  0  0  0  0  0  0  0
   -4.0019  -25.7024   28.6035 O   0  0  0  0  0  0  0  0  0  0  0  0
   -3.6936  -25.9878   30.8490 N   0  0  0  0  0  0  0  0  0  0  0  0
   -5.0221  -25.5921   31.2421 C   0  0  1  0  0  0  0  0  0  0  0  0
   -5.4469  -26.2091   32.5424 C   0  0  0  0  0  0  0  0  0  0  0  0
   -6.1899  -27.4859   32.4616 C   0  0  0  0  0  0  0  0  0  0  0  0
   -6.5607  -28.1364   33.7485 C   0  0  0  0  0  0  0  0  0  0  0  0
   -7.3727  -29.4142   33.4934 C   0  0  0  0  0  0  0  0  0  0  0  0
   -7.5159  -30.2021   34.6829 N   0  0  0  0  0  0  0  0  0  0  0  0
   -5.2721  -24.1419   31.1472 C   0  0  0  0  0  0  0  0  0  0  0  0
   -4.6225  -23.3405   31.9061 O   0  0  0  0  0  0  0  0  0  0  0  0
   -4.4480  -21.8741   28.5799 C   0  0  0  0  0  0  0  0  0  0  0  0
   -5.9359  -21.6079   28.7758 C   0  0  1  0  0  0  0  0  0  0  0  0
   -6.6302  -22.3306   27.8239 O   0  0  0  0  0  0  0  0  0  0  0  0
   -6.2946  -22.0873   30.1721 C   0  0  2  0  0  0  0  0  0  0  0  0
   -6.1982  -23.5369   30.2573 N   0  0  0  0  0  0  0  0  0  0  0  0
   -7.6660  -21.6883   30.5374 C   0  0  0  0  0  0  0  0  0  0  0  0
   -8.5535  -22.5621   30.6484 O   0  0  0  0  0  0  0  0  0  0  0  0
   -8.0401  -20.3732   30.7706 O   0  0  0  0  0  0  0  0  0  0  0  0
  2  1  1  1
  2  3  1  0
  4  2  1  0
  4  5  2  0
  6  4  1  0
  7  6  1  0
  7 13  1  0
  7  8  1  1
  9 10  1  0
  9  8  1  0
 10 11  1  0
 11 12  1  0
 13 19  1  0
 13 14  2  0
 16 15  1  6
 16 17  1  0
 18 16  1  0
 18 19  1  6
 20 22  1  0
 20 18  1  0
 21 20  2  0
M  END
$$$$
