AKT.pdb
     RDKit          3D

 22 21  0  0  1  0  0  0  0  0999 V2000
    7.9748  -12.1714   19.6187 C   0  0  0  0  0  0  0  0  0  0  0  0
    8.2040  -13.6556   19.4546 C   0  0  2  0  0  0  0  0  0  0  0  0
    7.3011  -14.1303   18.4225 N   0  0  0  0  0  0  0  0  0  0  0  0
    7.9242  -14.4029   20.7186 C   0  0  0  0  0  0  0  0  0  0  0  0
    6.7702  -14.7908   21.0091 O   0  0  0  0  0  0  0  0  0  0  0  0
    8.9644  -14.7000   21.6386 N   0  0  0  0  0  0  0  0  0  0  0  0
    8.8040  -15.4480   22.8595 C   0  0  1  0  0  0  0  0  0  0  0  0
    9.6096  -16.7140   22.8705 C   0  0  0  0  0  0  0  0  0  0  0  0
    9.4794  -17.5750   24.0666 C   0  0  0  0  0  0  0  0  0  0  0  0
   10.2454  -18.8517   24.0687 C   0  0  0  0  0  0  0  0  0  0  0  0
    9.8954  -19.6893   25.3069 C   0  0  0  0  0  0  0  0  0  0  0  0
   10.4724  -21.0006   25.2448 N   0  0  0  0  0  0  0  0  0  0  0  0
    8.9299  -14.6367   24.0845 C   0  0  0  0  0  0  0  0  0  0  0  0
    9.9725  -13.9127   24.2552 O   0  0  0  0  0  0  0  0  0  0  0  0
    6.5503  -11.9668   25.4173 C   0  0  0  0  0  0  0  0  0  0  0  0
    6.8111  -12.9601   26.5436 C   0  0  1  0  0  0  0  0  0  0  0  0
    5.7743  -13.8741   26.5585 O   0  0  0  0  0  0  0  0  0  0  0  0
    8.1259  -13.6541   26.2305 C   0  0  2  0  0  0  0  0  0  0  0  0
    7.9639  -14.5848   25.1235 N   0  0  0  0  0  0  0  0  0  0  0  0
    8.6266  -14.4007   27.3989 C   0  0  0  0  0  0  0  0  0  0  0  0
    8.7366  -15.6446   27.3348 O   0  0  0  0  0  0  0  0  0  0  0  0
    8.9911  -13.7940   28.5916 O   0  0  0  0  0  0  0  0  0  0  0  0
  2  1  1  1
  2  3  1  0
  4  2  1  0
  4  5  2  0
  6  4  1  0
  7  6  1  0
  7 13  1  0
  7  8  1  1
  9 10  1  0
  9  8  1  0
 10 11  1  0
 11 12  1  0
 13 19  1  0
 13 14  2  0
 16 15  1  6
 16 17  1  0
 18 16  1  0
 18 19  1  6
 20 22  1  0
 20 18  1  0
 21 20  2  0
M  END
$$$$
