AKT.pdb
     RDKit          3D

 22 21  0  0  1  0  0  0  0  0999 V2000
    8.1716  -12.5449   19.7821 C   0  0  0  0  0  0  0  0  0  0  0  0
    8.0041  -14.0458   19.7404 C   0  0  2  0  0  0  0  0  0  0  0  0
    7.0028  -14.3506   18.7353 N   0  0  0  0  0  0  0  0  0  0  0  0
    7.5458  -14.5892   21.0554 C   0  0  0  0  0  0  0  0  0  0  0  0
    6.3395  -14.5696   21.3884 O   0  0  0  0  0  0  0  0  0  0  0  0
    8.4692  -15.1497   21.9773 N   0  0  0  0  0  0  0  0  0  0  0  0
    8.1191  -15.7659   23.2318 C   0  0  1  0  0  0  0  0  0  0  0  0
    8.3152  -17.2537   23.2183 C   0  0  0  0  0  0  0  0  0  0  0  0
    8.0455  -17.9718   24.4834 C   0  0  0  0  0  0  0  0  0  0  0  0
    8.2005  -19.4524   24.4680 C   0  0  0  0  0  0  0  0  0  0  0  0
    7.8563  -20.0456   25.8417 C   0  0  0  0  0  0  0  0  0  0  0  0
    8.1005  -21.4579   25.8896 N   0  0  0  0  0  0  0  0  0  0  0  0
    8.6834  -15.0892   24.4142 C   0  0  0  0  0  0  0  0  0  0  0  0
    9.9398  -14.8453   24.4596 O   0  0  0  0  0  0  0  0  0  0  0  0
    7.7202  -11.7503   26.0014 C   0  0  0  0  0  0  0  0  0  0  0  0
    7.7109  -12.8004   27.1061 C   0  0  1  0  0  0  0  0  0  0  0  0
    6.4066  -13.2199   27.2885 O   0  0  0  0  0  0  0  0  0  0  0  0
    8.5782  -13.9541   26.6318 C   0  0  2  0  0  0  0  0  0  0  0  0
    7.9305  -14.6686   25.5420 N   0  0  0  0  0  0  0  0  0  0  0  0
    8.8411  -14.9082   27.7246 C   0  0  0  0  0  0  0  0  0  0  0  0
    8.4494  -16.0909   27.6180 O   0  0  0  0  0  0  0  0  0  0  0  0
    9.5114  -14.5662   28.8896 O   0  0  0  0  0  0  0  0  0  0  0  0
  2  1  1  1
  2  3  1  0
  4  2  1  0
  4  5  2  0
  6  4  1  0
  7  6  1  0
  7 13  1  0
  7  8  1  6
  9 10  1  0
  9  8  1  0
 10 11  1  0
 11 12  1  0
 13 19  1  0
 13 14  2  0
 16 15  1  6
 16 17  1  0
 18 16  1  0
 18 19  1  6
 20 22  1  0
 20 18  1  0
 21 20  2  0
M  END
$$$$
