AKT.pdb
     RDKit          3D

 22 21  0  0  1  0  0  0  0  0999 V2000
    7.2288  -20.1400   19.1339 C   0  0  0  0  0  0  0  0  0  0  0  0
    5.8553  -20.5077   19.6443 C   0  0  2  0  0  0  0  0  0  0  0  0
    4.8861  -19.7052   18.9215 N   0  0  0  0  0  0  0  0  0  0  0  0
    5.7145  -20.2297   21.1064 C   0  0  0  0  0  0  0  0  0  0  0  0
    5.3787  -19.1008   21.5297 O   0  0  0  0  0  0  0  0  0  0  0  0
    5.9583  -21.2432   22.0707 N   0  0  0  0  0  0  0  0  0  0  0  0
    5.8796  -21.0666   23.4984 C   0  0  1  0  0  0  0  0  0  0  0  0
    5.5185  -22.3334   24.2174 C   0  0  0  0  0  0  0  0  0  0  0  0
    4.1878  -22.9092   23.9234 C   0  0  0  0  0  0  0  0  0  0  0  0
    3.8132  -24.1543   24.6486 C   0  0  0  0  0  0  0  0  0  0  0  0
    2.3666  -24.5535   24.3246 C   0  0  0  0  0  0  0  0  0  0  0  0
    1.9571  -25.7167   25.0566 N   0  0  0  0  0  0  0  0  0  0  0  0
    7.0249  -20.3427   24.0805 C   0  0  0  0  0  0  0  0  0  0  0  0
    8.2044  -20.5702   23.6364 O   0  0  0  0  0  0  0  0  0  0  0  0
    6.6965  -16.7312   26.0544 C   0  0  0  0  0  0  0  0  0  0  0  0
    7.9610  -17.1735   25.3272 C   0  0  1  0  0  0  0  0  0  0  0  0
    9.0302  -16.4836   25.8672 O   0  0  0  0  0  0  0  0  0  0  0  0
    8.1155  -18.6655   25.5687 C   0  0  2  0  0  0  0  0  0  0  0  0
    6.9306  -19.3828   25.1223 N   0  0  0  0  0  0  0  0  0  0  0  0
    8.3257  -18.9555   26.9988 C   0  0  0  0  0  0  0  0  0  0  0  0
    7.4481  -19.5761   27.6376 O   0  0  0  0  0  0  0  0  0  0  0  0
    9.4631  -18.5733   27.6944 O   0  0  0  0  0  0  0  0  0  0  0  0
  2  1  1  6
  2  3  1  0
  4  2  1  0
  4  5  2  0
  6  4  1  0
  7  6  1  0
  7 13  1  0
  7  8  1  1
  9 10  1  0
  9  8  1  0
 10 11  1  0
 11 12  1  0
 13 19  1  0
 13 14  2  0
 16 15  1  1
 16 17  1  0
 18 16  1  0
 18 19  1  1
 20 22  1  0
 20 18  1  0
 21 20  2  0
M  END
$$$$
