AKT.pdb
     RDKit          3D

 22 21  0  0  1  0  0  0  0  0999 V2000
    6.9762  -13.0488   19.1327 C   0  0  0  0  0  0  0  0  0  0  0  0
    8.2204  -13.4866   19.8692 C   0  0  2  0  0  0  0  0  0  0  0  0
    8.7644  -14.6373   19.1721 N   0  0  0  0  0  0  0  0  0  0  0  0
    7.9206  -13.8775   21.2806 C   0  0  0  0  0  0  0  0  0  0  0  0
    7.3044  -13.1122   22.0560 O   0  0  0  0  0  0  0  0  0  0  0  0
    8.3270  -15.1380   21.7929 N   0  0  0  0  0  0  0  0  0  0  0  0
    7.9481  -15.6739   23.0755 C   0  0  1  0  0  0  0  0  0  0  0  0
    8.2444  -17.1399   23.1985 C   0  0  0  0  0  0  0  0  0  0  0  0
    7.9122  -17.9861   22.0313 C   0  0  0  0  0  0  0  0  0  0  0  0
    8.3776  -19.3999   22.0653 C   0  0  0  0  0  0  0  0  0  0  0  0
    7.9751  -20.1319   20.7771 C   0  0  0  0  0  0  0  0  0  0  0  0
    8.4976  -21.4667   20.7361 N   0  0  0  0  0  0  0  0  0  0  0  0
    8.3972  -14.8647   24.2235 C   0  0  0  0  0  0  0  0  0  0  0  0
    9.6285  -14.5230   24.3091 O   0  0  0  0  0  0  0  0  0  0  0  0
    7.1044  -11.4932   25.6872 C   0  0  0  0  0  0  0  0  0  0  0  0
    7.1210  -12.5445   26.7907 C   0  0  1  0  0  0  0  0  0  0  0  0
    5.8473  -13.0696   26.9025 O   0  0  0  0  0  0  0  0  0  0  0  0
    8.1040  -13.6220   26.3653 C   0  0  2  0  0  0  0  0  0  0  0  0
    7.5559  -14.4148   25.2749 N   0  0  0  0  0  0  0  0  0  0  0  0
    8.4226  -14.5259   27.4855 C   0  0  0  0  0  0  0  0  0  0  0  0
    8.1652  -15.7454   27.3861 O   0  0  0  0  0  0  0  0  0  0  0  0
    9.0036  -14.0963   28.6694 O   0  0  0  0  0  0  0  0  0  0  0  0
  2  1  1  6
  2  3  1  0
  4  2  1  0
  4  5  2  0
  6  4  1  0
  7  6  1  0
  7 13  1  0
  7  8  1  1
  9 10  1  0
  9  8  1  0
 10 11  1  0
 11 12  1  0
 13 19  1  0
 13 14  2  0
 16 15  1  6
 16 17  1  0
 18 16  1  0
 18 19  1  6
 20 22  1  0
 20 18  1  0
 21 20  2  0
M  END
$$$$
