AKT.pdb
     RDKit          3D

 22 21  0  0  1  0  0  0  0  0999 V2000
    5.8063  -20.2105   23.9508 C   0  0  0  0  0  0  0  0  0  0  0  0
    5.3151  -19.5241   22.6979 C   0  0  2  0  0  0  0  0  0  0  0  0
    5.0704  -20.5488   21.7000 N   0  0  0  0  0  0  0  0  0  0  0  0
    6.3251  -18.5618   22.1607 C   0  0  0  0  0  0  0  0  0  0  0  0
    7.2732  -18.9421   21.4374 O   0  0  0  0  0  0  0  0  0  0  0  0
    6.2429  -17.1748   22.4544 N   0  0  0  0  0  0  0  0  0  0  0  0
    7.1862  -16.1768   22.0184 C   0  0  1  0  0  0  0  0  0  0  0  0
    6.5788  -14.8072   21.9330 C   0  0  0  0  0  0  0  0  0  0  0  0
    7.4319  -13.7347   21.3755 C   0  0  0  0  0  0  0  0  0  0  0  0
    7.7769  -13.8261   19.9301 C   0  0  0  0  0  0  0  0  0  0  0  0
    8.6073  -12.6101   19.4953 C   0  0  0  0  0  0  0  0  0  0  0  0
    8.9922  -12.6921   18.1163 N   0  0  0  0  0  0  0  0  0  0  0  0
    8.4820  -16.2243   22.7208 C   0  0  0  0  0  0  0  0  0  0  0  0
    8.5292  -15.9581   23.9727 O   0  0  0  0  0  0  0  0  0  0  0  0
   10.6029  -19.0265   23.4853 C   0  0  0  0  0  0  0  0  0  0  0  0
   11.5359  -18.0532   22.7744 C   0  0  1  0  0  0  0  0  0  0  0  0
   11.6020  -18.4171   21.4427 O   0  0  0  0  0  0  0  0  0  0  0  0
   10.9278  -16.6682   22.9167 C   0  0  2  0  0  0  0  0  0  0  0  0
    9.7214  -16.5524   22.1110 N   0  0  0  0  0  0  0  0  0  0  0  0
   11.8760  -15.6229   22.4904 C   0  0  0  0  0  0  0  0  0  0  0  0
   11.6989  -15.0373   21.3999 O   0  0  0  0  0  0  0  0  0  0  0  0
   12.9772  -15.2408   23.2422 O   0  0  0  0  0  0  0  0  0  0  0  0
  2  1  1  1
  2  3  1  0
  4  2  1  0
  4  5  2  0
  6  4  1  0
  7  6  1  0
  7 13  1  0
  7  8  1  1
  9 10  1  0
  9  8  1  0
 10 11  1  0
 11 12  1  0
 13 19  1  0
 13 14  2  0
 16 15  1  1
 16 17  1  0
 18 16  1  0
 18 19  1  6
 20 22  1  0
 20 18  1  0
 21 20  2  0
M  END
$$$$
