AKT.pdb
     RDKit          3D

 22 21  0  0  1  0  0  0  0  0999 V2000
    7.4048  -12.8748   18.9169 C   0  0  0  0  0  0  0  0  0  0  0  0
    8.4698  -13.3869   19.8582 C   0  0  2  0  0  0  0  0  0  0  0  0
    9.1195  -14.5155   19.2180 N   0  0  0  0  0  0  0  0  0  0  0  0
    7.8885  -13.8412   21.1583 C   0  0  0  0  0  0  0  0  0  0  0  0
    7.2561  -13.0588   21.9029 O   0  0  0  0  0  0  0  0  0  0  0  0
    8.0348  -15.1844   21.5957 N   0  0  0  0  0  0  0  0  0  0  0  0
    7.5588  -15.7047   22.8520 C   0  0  1  0  0  0  0  0  0  0  0  0
    7.6634  -17.1994   22.9343 C   0  0  0  0  0  0  0  0  0  0  0  0
    7.2248  -17.8284   24.1995 C   0  0  0  0  0  0  0  0  0  0  0  0
    7.3210  -19.3116   24.2875 C   0  0  0  0  0  0  0  0  0  0  0  0
    6.6542  -19.8206   25.5733 C   0  0  0  0  0  0  0  0  0  0  0  0
    6.6564  -21.2528   25.6449 N   0  0  0  0  0  0  0  0  0  0  0  0
    8.0777  -14.9931   24.0348 C   0  0  0  0  0  0  0  0  0  0  0  0
    9.3331  -14.7563   24.1260 O   0  0  0  0  0  0  0  0  0  0  0  0
    6.4445  -11.7180   25.7285 C   0  0  0  0  0  0  0  0  0  0  0  0
    6.7930  -12.7857   26.7590 C   0  0  1  0  0  0  0  0  0  0  0  0
    5.6500  -13.5168   27.0228 O   0  0  0  0  0  0  0  0  0  0  0  0
    7.8591  -13.6728   26.1387 C   0  0  2  0  0  0  0  0  0  0  0  0
    7.2810  -14.5305   25.1150 N   0  0  0  0  0  0  0  0  0  0  0  0
    8.5006  -14.5263   27.1553 C   0  0  0  0  0  0  0  0  0  0  0  0
    9.0831  -13.9965   28.1267 O   0  0  0  0  0  0  0  0  0  0  0  0
    8.4973  -15.9121   27.0986 O   0  0  0  0  0  0  0  0  0  0  0  0
  2  1  1  6
  2  3  1  0
  4  2  1  0
  4  5  2  0
  6  4  1  0
  7  6  1  0
  7 13  1  0
  7  8  1  1
  9 10  1  0
  9  8  1  0
 10 11  1  0
 11 12  1  0
 13 19  1  0
 13 14  2  0
 16 15  1  6
 16 17  1  0
 18 16  1  0
 18 19  1  6
 20 22  1  0
 20 18  1  0
 21 20  2  0
M  END
$$$$
