AKT.pdb
     RDKit          3D

 22 21  0  0  1  0  0  0  0  0999 V2000
    7.6738  -20.6702   18.1126 C   0  0  0  0  0  0  0  0  0  0  0  0
    6.6694  -19.5558   17.9342 C   0  0  2  0  0  0  0  0  0  0  0  0
    7.1602  -18.6829   16.8840 N   0  0  0  0  0  0  0  0  0  0  0  0
    6.5018  -18.7551   19.1853 C   0  0  0  0  0  0  0  0  0  0  0  0
    7.2190  -17.7581   19.4267 O   0  0  0  0  0  0  0  0  0  0  0  0
    5.5171  -19.1002   20.1486 N   0  0  0  0  0  0  0  0  0  0  0  0
    5.2585  -18.3763   21.3672 C   0  0  1  0  0  0  0  0  0  0  0  0
    3.9007  -18.6694   21.9353 C   0  0  0  0  0  0  0  0  0  0  0  0
    2.7560  -18.5819   21.0021 C   0  0  0  0  0  0  0  0  0  0  0  0
    1.9318  -19.8089   20.8243 C   0  0  0  0  0  0  0  0  0  0  0  0
    0.8649  -19.5905   19.7420 C   0  0  0  0  0  0  0  0  0  0  0  0
    0.0488  -20.7547   19.5544 N   0  0  0  0  0  0  0  0  0  0  0  0
    6.3554  -18.4400   22.3507 C   0  0  0  0  0  0  0  0  0  0  0  0
    6.9297  -19.5613   22.5809 O   0  0  0  0  0  0  0  0  0  0  0  0
    9.5792  -16.9300   22.2762 C   0  0  0  0  0  0  0  0  0  0  0  0
    9.0931  -16.5540   23.6710 C   0  0  1  0  0  0  0  0  0  0  0  0
    8.6415  -15.2482   23.6307 O   0  0  0  0  0  0  0  0  0  0  0  0
    7.9547  -17.4989   24.0163 C   0  0  2  0  0  0  0  0  0  0  0  0
    6.8480  -17.3302   23.0864 N   0  0  0  0  0  0  0  0  0  0  0  0
    7.4571  -17.2580   25.3830 C   0  0  0  0  0  0  0  0  0  0  0  0
    6.2981  -16.8192   25.5487 O   0  0  0  0  0  0  0  0  0  0  0  0
    8.2133  -17.4936   26.5215 O   0  0  0  0  0  0  0  0  0  0  0  0
  2  1  1  1
  2  3  1  0
  4  2  1  0
  4  5  2  0
  6  4  1  0
  7  6  1  0
  7 13  1  0
  7  8  1  1
  9 10  1  0
  9  8  1  0
 10 11  1  0
 11 12  1  0
 13 19  1  0
 13 14  2  0
 16 15  1  6
 16 17  1  0
 18 16  1  0
 18 19  1  6
 20 22  1  0
 20 18  1  0
 21 20  2  0
M  END
$$$$
