AKT.pdb
     RDKit          3D

 22 21  0  0  1  0  0  0  0  0999 V2000
    8.1854  -11.8921   19.4586 C   0  0  0  0  0  0  0  0  0  0  0  0
    8.2735  -13.3540   19.0879 C   0  0  2  0  0  0  0  0  0  0  0  0
    7.3101  -13.6004   18.0311 N   0  0  0  0  0  0  0  0  0  0  0  0
    7.9516  -14.2405   20.2477 C   0  0  0  0  0  0  0  0  0  0  0  0
    6.7786  -14.6037   20.4895 O   0  0  0  0  0  0  0  0  0  0  0  0
    8.9720  -14.7035   21.1201 N   0  0  0  0  0  0  0  0  0  0  0  0
    8.7848  -15.6566   22.1842 C   0  0  1  0  0  0  0  0  0  0  0  0
    9.5396  -16.9332   21.9547 C   0  0  0  0  0  0  0  0  0  0  0  0
    9.3619  -18.0016   22.9626 C   0  0  0  0  0  0  0  0  0  0  0  0
   10.1482  -19.2512   22.7707 C   0  0  0  0  0  0  0  0  0  0  0  0
    9.8100  -20.2751   23.8637 C   0  0  0  0  0  0  0  0  0  0  0  0
   10.5537  -21.4908   23.7048 N   0  0  0  0  0  0  0  0  0  0  0  0
    8.9457  -15.0902   23.5362 C   0  0  0  0  0  0  0  0  0  0  0  0
    9.9965  -14.4127   23.8136 O   0  0  0  0  0  0  0  0  0  0  0  0
    7.0164  -12.5484   25.4323 C   0  0  0  0  0  0  0  0  0  0  0  0
    7.0535  -13.7874   26.3193 C   0  0  1  0  0  0  0  0  0  0  0  0
    5.8827  -14.4941   26.1186 O   0  0  0  0  0  0  0  0  0  0  0  0
    8.2527  -14.6121   25.8832 C   0  0  2  0  0  0  0  0  0  0  0  0
    8.0055  -15.2330   24.5905 N   0  0  0  0  0  0  0  0  0  0  0  0
    8.5543  -15.6734   26.8610 C   0  0  0  0  0  0  0  0  0  0  0  0
    8.4732  -16.8721   26.5144 O   0  0  0  0  0  0  0  0  0  0  0  0
    8.9308  -15.4176   28.1711 O   0  0  0  0  0  0  0  0  0  0  0  0
  2  1  1  1
  2  3  1  0
  4  2  1  0
  4  5  2  0
  6  4  1  0
  7  6  1  0
  7 13  1  0
  7  8  1  6
  9 10  1  0
  9  8  1  0
 10 11  1  0
 11 12  1  0
 13 19  1  0
 13 14  2  0
 16 15  1  6
 16 17  1  0
 18 16  1  0
 18 19  1  6
 20 22  1  0
 20 18  1  0
 21 20  2  0
M  END
$$$$
