SNI.pdb
     RDKit          3D

 23 22  0  0  1  0  0  0  0  0999 V2000
   17.1493  -11.8266  -14.3480 O   0  0  0  0  0  0  0  0  0  0  0  0
   17.3243  -10.4584  -14.3230 C   0  0  0  0  0  0  0  0  0  0  0  0
   16.1459   -9.8133  -13.6240 C   0  0  2  0  0  0  0  0  0  0  0  0
   14.9905   -9.6930  -14.4630 N   0  0  0  0  0  0  0  0  0  0  0  0
   16.5067   -8.4670  -13.1110 C   0  0  0  0  0  0  0  0  0  0  0  0
   16.4964   -7.5030  -13.9310 O   0  0  0  0  0  0  0  0  0  0  0  0
   17.7904   -4.7120   -9.6134 N   0  0  0  0  0  0  0  0  0  0  0  0
   17.1916   -5.8597   -8.9465 C   0  0  0  0  0  0  0  0  0  0  0  0
   17.0480   -5.7151   -7.7233 O   0  0  0  0  0  0  0  0  0  0  0  0
   16.8564   -6.9835   -9.7928 C   0  0  0  0  0  0  0  0  0  0  0  0
   17.1515   -6.8956  -11.2642 C   0  0  2  0  0  0  0  0  0  0  0  0
   16.8464   -8.2750  -11.7640 N   0  0  0  0  0  0  0  0  0  0  0  0
   18.6095   -6.7656  -11.5563 C   0  0  0  0  0  0  0  0  0  0  0  0
   19.4841   -7.4904  -10.9522 O   0  0  0  0  0  0  0  0  0  0  0  0
   22.7148   -7.5980  -15.4517 C   0  0  0  0  0  0  0  0  0  0  0  0
   22.3538   -6.6290  -14.3174 C   0  0  0  0  0  0  0  0  0  0  0  0
   20.9172   -6.7557  -13.9325 C   0  0  2  0  0  0  0  0  0  0  0  0
   20.0599   -6.5267  -15.1520 C   0  0  0  0  0  0  0  0  0  0  0  0
   20.6012   -5.8661  -12.7771 C   0  0  2  0  0  0  0  0  0  0  0  0
   19.1489   -5.8655  -12.4991 N   0  0  0  0  0  0  0  0  0  0  0  0
   20.9784   -4.4462  -12.9681 C   0  0  0  0  0  0  0  0  0  0  0  0
   22.3043   -3.9859  -12.8433 O   0  0  0  0  0  0  0  0  0  0  0  0
   20.1408   -3.5561  -13.2545 O   0  0  0  0  0  0  0  0  0  0  0  0
  2  1  1  0
  3  4  1  6
  3  2  1  0
  5  3  1  0
  5  6  2  0
  7  8  1  0
  8 10  1  0
  8  9  2  0
 11 10  1  1
 11 12  1  0
 11 13  1  0
 12  5  1  0
 13 20  1  0
 13 14  2  0
 16 15  1  0
 17 16  1  0
 17 18  1  6
 19 17  1  0
 19 20  1  6
 21 22  1  0
 21 19  1  0
 23 21  2  0
M  END
$$$$
