SNI.pdb
     RDKit          3D

 23 22  0  0  1  0  0  0  0  0999 V2000
   29.2711  -20.7520  -17.0625 O   0  0  0  0  0  0  0  0  0  0  0  0
   28.3788  -19.8681  -16.4916 C   0  0  0  0  0  0  0  0  0  0  0  0
   26.9727  -20.4135  -16.6292 C   0  0  2  0  0  0  0  0  0  0  0  0
   26.3718  -20.1087  -17.8938 N   0  0  0  0  0  0  0  0  0  0  0  0
   26.0965  -19.8977  -15.5466 C   0  0  0  0  0  0  0  0  0  0  0  0
   25.3173  -18.9405  -15.8264 O   0  0  0  0  0  0  0  0  0  0  0  0
   22.2710  -22.4200  -12.7246 N   0  0  0  0  0  0  0  0  0  0  0  0
   22.6600  -21.0591  -13.0668 C   0  0  0  0  0  0  0  0  0  0  0  0
   21.8982  -20.1885  -12.6205 O   0  0  0  0  0  0  0  0  0  0  0  0
   23.8585  -20.9219  -13.8644 C   0  0  0  0  0  0  0  0  0  0  0  0
   25.0264  -20.1671  -13.2931 C   0  0  2  0  0  0  0  0  0  0  0  0
   26.1343  -20.4550  -14.2602 N   0  0  0  0  0  0  0  0  0  0  0  0
   25.5426  -20.7686  -12.0283 C   0  0  0  0  0  0  0  0  0  0  0  0
   25.9971  -21.9716  -11.9917 O   0  0  0  0  0  0  0  0  0  0  0  0
   28.6591  -19.8930   -6.9260 C   0  0  0  0  0  0  0  0  0  0  0  0
   27.5741  -20.7004   -7.6518 C   0  0  0  0  0  0  0  0  0  0  0  0
   27.0735  -19.9756   -8.8568 C   0  0  2  0  0  0  0  0  0  0  0  0
   26.5973  -18.6056   -8.4433 C   0  0  0  0  0  0  0  0  0  0  0  0
   26.0555  -20.7937   -9.5783 C   0  0  2  0  0  0  0  0  0  0  0  0
   25.5841  -20.0916  -10.7914 N   0  0  0  0  0  0  0  0  0  0  0  0
   24.8396  -21.1038   -8.7907 C   0  0  0  0  0  0  0  0  0  0  0  0
   23.5597  -20.6346   -9.1472 O   0  0  0  0  0  0  0  0  0  0  0  0
   24.8677  -21.8067   -7.7509 O   0  0  0  0  0  0  0  0  0  0  0  0
  2  1  1  0
  3  4  1  6
  3  2  1  0
  5  3  1  0
  5  6  2  0
  7  8  1  0
  8 10  1  0
  8  9  2  0
 11 10  1  6
 11 12  1  0
 11 13  1  0
 12  5  1  0
 13 20  1  0
 13 14  2  0
 16 15  1  0
 17 16  1  0
 17 18  1  1
 19 17  1  0
 19 20  1  6
 21 22  1  0
 21 19  1  0
 23 21  2  0
M  END
$$$$
