SNI.pdb
     RDKit          3D

 23 22  0  0  1  0  0  0  0  0999 V2000
   18.1283  -12.2104  -19.7679 O   0  0  0  0  0  0  0  0  0  0  0  0
   17.7740  -11.3223  -18.7733 C   0  0  0  0  0  0  0  0  0  0  0  0
   18.7030  -11.4955  -17.5899 C   0  0  2  0  0  0  0  0  0  0  0  0
   18.5643  -12.7685  -16.9469 N   0  0  0  0  0  0  0  0  0  0  0  0
   18.4841  -10.4251  -16.5838 C   0  0  0  0  0  0  0  0  0  0  0  0
   17.3655  -10.3934  -15.9927 O   0  0  0  0  0  0  0  0  0  0  0  0
   19.1223   -6.9413  -12.8933 N   0  0  0  0  0  0  0  0  0  0  0  0
   18.9964   -8.3869  -12.7712 C   0  0  0  0  0  0  0  0  0  0  0  0
   18.7824   -8.7795  -11.6147 O   0  0  0  0  0  0  0  0  0  0  0  0
   19.1369   -9.1432  -13.9959 C   0  0  0  0  0  0  0  0  0  0  0  0
   19.2244   -8.4004  -15.3000 C   0  0  2  0  0  0  0  0  0  0  0  0
   19.4849   -9.4841  -16.3016 N   0  0  0  0  0  0  0  0  0  0  0  0
   20.4551   -7.5630  -15.4086 C   0  0  0  0  0  0  0  0  0  0  0  0
   21.6264   -8.0922  -15.4648 O   0  0  0  0  0  0  0  0  0  0  0  0
   21.4217   -4.2969  -19.2215 C   0  0  0  0  0  0  0  0  0  0  0  0
   21.5886   -5.2409  -18.0228 C   0  0  0  0  0  0  0  0  0  0  0  0
   21.6887   -4.4796  -16.7427 C   0  0  2  0  0  0  0  0  0  0  0  0
   22.8614   -3.5347  -16.8236 C   0  0  0  0  0  0  0  0  0  0  0  0
   21.7226   -5.4109  -15.5775 C   0  0  2  0  0  0  0  0  0  0  0  0
   20.4489   -6.1534  -15.4638 N   0  0  0  0  0  0  0  0  0  0  0  0
   21.9275   -4.7535  -14.2657 C   0  0  0  0  0  0  0  0  0  0  0  0
   20.8607   -4.2961  -13.4670 O   0  0  0  0  0  0  0  0  0  0  0  0
   23.0673   -4.5596  -13.7766 O   0  0  0  0  0  0  0  0  0  0  0  0
  2  1  1  0
  3  4  1  1
  3  2  1  0
  5  3  1  0
  5  6  2  0
  7  8  1  0
  8 10  1  0
  8  9  2  0
 11 10  1  1
 11 12  1  0
 11 13  1  0
 12  5  1  0
 13 20  1  0
 13 14  2  0
 16 15  1  0
 17 16  1  0
 17 18  1  6
 19 17  1  0
 19 20  1  1
 21 22  1  0
 21 19  1  0
 23 21  2  0
M  END
$$$$
