SNI.pdb
     RDKit          3D

 23 22  0  0  1  0  0  0  0  0999 V2000
   17.4019  -14.5979  -17.5870 O   0  0  0  0  0  0  0  0  0  0  0  0
   18.2344  -13.6156  -17.0918 C   0  0  0  0  0  0  0  0  0  0  0  0
   19.6626  -14.1194  -17.0920 C   0  0  2  0  0  0  0  0  0  0  0  0
   19.7984  -15.4270  -16.5219 N   0  0  0  0  0  0  0  0  0  0  0  0
   20.5542  -13.1837  -16.3603 C   0  0  0  0  0  0  0  0  0  0  0  0
   20.3904  -13.0714  -15.1104 O   0  0  0  0  0  0  0  0  0  0  0  0
   24.2134  -13.3314  -15.2186 N   0  0  0  0  0  0  0  0  0  0  0  0
   24.6250  -12.6470  -16.4364 C   0  0  0  0  0  0  0  0  0  0  0  0
   25.6969  -13.0551  -16.9075 O   0  0  0  0  0  0  0  0  0  0  0  0
   23.7390  -11.6077  -16.9122 C   0  0  0  0  0  0  0  0  0  0  0  0
   22.3823  -11.4669  -16.2801 C   0  0  2  0  0  0  0  0  0  0  0  0
   21.5421  -12.4518  -17.0349 N   0  0  0  0  0  0  0  0  0  0  0  0
   21.7226  -10.1684  -16.6068 C   0  0  0  0  0  0  0  0  0  0  0  0
   21.7516   -9.6793  -17.7964 O   0  0  0  0  0  0  0  0  0  0  0  0
   16.8997   -9.2681  -16.4946 C   0  0  0  0  0  0  0  0  0  0  0  0
   18.3140   -8.8629  -16.9322 C   0  0  0  0  0  0  0  0  0  0  0  0
   18.9900   -8.0391  -15.8870 C   0  0  2  0  0  0  0  0  0  0  0  0
   18.3866   -6.6569  -15.8846 C   0  0  0  0  0  0  0  0  0  0  0  0
   20.4705   -8.0684  -16.0694 C   0  0  2  0  0  0  0  0  0  0  0  0
   21.0210   -9.3813  -15.6696 N   0  0  0  0  0  0  0  0  0  0  0  0
   21.2118   -7.0593  -15.2774 C   0  0  0  0  0  0  0  0  0  0  0  0
   21.9509   -7.3881  -14.1237 O   0  0  0  0  0  0  0  0  0  0  0  0
   21.2313   -5.8415  -15.5814 O   0  0  0  0  0  0  0  0  0  0  0  0
  2  1  1  0
  3  4  1  1
  3  2  1  0
  5  3  1  0
  5  6  2  0
  7  8  1  0
  8 10  1  0
  8  9  2  0
 11 10  1  6
 11 12  1  0
 11 13  1  0
 12  5  1  0
 13 20  1  0
 13 14  2  0
 16 15  1  0
 17 16  1  0
 17 18  1  6
 19 17  1  0
 19 20  1  1
 21 22  1  0
 21 19  1  0
 23 21  2  0
M  END
$$$$
