SNI.pdb
     RDKit          3D

 23 22  0  0  1  0  0  0  0  0999 V2000
   14.1239   -7.3331  -16.8253 O   0  0  0  0  0  0  0  0  0  0  0  0
   15.1449   -7.2102  -15.9057 C   0  0  0  0  0  0  0  0  0  0  0  0
   16.2406   -8.2025  -16.2351 C   0  0  2  0  0  0  0  0  0  0  0  0
   15.8398   -9.5657  -16.0502 N   0  0  0  0  0  0  0  0  0  0  0  0
   17.4521   -7.9448  -15.4156 C   0  0  0  0  0  0  0  0  0  0  0  0
   17.3575   -8.0952  -14.1625 O   0  0  0  0  0  0  0  0  0  0  0  0
   22.5785   -7.4613  -14.3313 N   0  0  0  0  0  0  0  0  0  0  0  0
   22.2369   -8.3682  -15.4183 C   0  0  0  0  0  0  0  0  0  0  0  0
   23.2034   -8.9971  -15.8741 O   0  0  0  0  0  0  0  0  0  0  0  0
   20.8431   -8.4037  -15.8026 C   0  0  0  0  0  0  0  0  0  0  0  0
   19.8941   -7.4196  -15.1774 C   0  0  2  0  0  0  0  0  0  0  0  0
   18.6572   -7.5487  -16.0135 N   0  0  0  0  0  0  0  0  0  0  0  0
   20.2920   -6.0004  -15.4134 C   0  0  0  0  0  0  0  0  0  0  0  0
   20.3246   -5.4986  -16.5976 O   0  0  0  0  0  0  0  0  0  0  0  0
   19.5065   -0.6440  -15.7259 C   0  0  0  0  0  0  0  0  0  0  0  0
   20.3452   -1.3604  -14.6586 C   0  0  0  0  0  0  0  0  0  0  0  0
   19.9055   -2.7761  -14.4834 C   0  0  2  0  0  0  0  0  0  0  0  0
   19.2471   -2.9225  -13.1345 C   0  0  0  0  0  0  0  0  0  0  0  0
   21.0411   -3.7136  -14.7236 C   0  0  2  0  0  0  0  0  0  0  0  0
   20.6539   -5.1009  -14.3887 N   0  0  0  0  0  0  0  0  0  0  0  0
   22.2578   -3.4286  -13.9278 C   0  0  0  0  0  0  0  0  0  0  0  0
   22.7237   -4.2875  -12.9127 O   0  0  0  0  0  0  0  0  0  0  0  0
   22.9569   -2.4010  -14.1048 O   0  0  0  0  0  0  0  0  0  0  0  0
  2  1  1  0
  3  4  1  1
  3  2  1  0
  5  3  1  0
  5  6  2  0
  7  8  1  0
  8 10  1  0
  8  9  2  0
 11 10  1  6
 11 12  1  0
 11 13  1  0
 12  5  1  0
 13 20  1  0
 13 14  2  0
 16 15  1  0
 17 16  1  0
 17 18  1  1
 19 17  1  0
 19 20  1  1
 21 22  1  0
 21 19  1  0
 23 21  2  0
M  END
$$$$
