SNI.pdb
     RDKit          3D

 23 22  0  0  1  0  0  0  0  0999 V2000
   19.7128  -15.4251  -18.7297 O   0  0  0  0  0  0  0  0  0  0  0  0
   20.5739  -14.3528  -18.8391 C   0  0  0  0  0  0  0  0  0  0  0  0
   19.8189  -13.0707  -18.5565 C   0  0  2  0  0  0  0  0  0  0  0  0
   18.9857  -12.6562  -19.6461 N   0  0  0  0  0  0  0  0  0  0  0  0
   20.7556  -11.9671  -18.2239 C   0  0  0  0  0  0  0  0  0  0  0  0
   21.6254  -12.1830  -17.3303 O   0  0  0  0  0  0  0  0  0  0  0  0
   24.1358   -9.4152  -19.5682 N   0  0  0  0  0  0  0  0  0  0  0  0
   23.0718   -8.7448  -20.3025 C   0  0  0  0  0  0  0  0  0  0  0  0
   23.4465   -8.2036  -21.3533 O   0  0  0  0  0  0  0  0  0  0  0  0
   21.7540   -8.8061  -19.7099 C   0  0  0  0  0  0  0  0  0  0  0  0
   21.5631   -9.6021  -18.4490 C   0  0  2  0  0  0  0  0  0  0  0  0
   20.6755  -10.7300  -18.8798 N   0  0  0  0  0  0  0  0  0  0  0  0
   20.7170   -8.8974  -17.4412 C   0  0  0  0  0  0  0  0  0  0  0  0
   19.4673   -8.6740  -17.6498 O   0  0  0  0  0  0  0  0  0  0  0  0
   18.6052   -9.3123  -12.0806 C   0  0  0  0  0  0  0  0  0  0  0  0
   19.0137   -8.2716  -13.1322 C   0  0  0  0  0  0  0  0  0  0  0  0
   19.8992   -8.8714  -14.1735 C   0  0  2  0  0  0  0  0  0  0  0  0
   21.0841   -9.5159  -13.4988 C   0  0  0  0  0  0  0  0  0  0  0  0
   20.2521   -7.8592  -15.2113 C   0  0  2  0  0  0  0  0  0  0  0  0
   21.1938   -8.4288  -16.1989 N   0  0  0  0  0  0  0  0  0  0  0  0
   20.9045   -6.6367  -14.6868 C   0  0  0  0  0  0  0  0  0  0  0  0
   20.1960   -5.6257  -14.0078 O   0  0  0  0  0  0  0  0  0  0  0  0
   22.1344   -6.4191  -14.8123 O   0  0  0  0  0  0  0  0  0  0  0  0
  2  1  1  0
  3  4  1  6
  3  2  1  0
  5  3  1  0
  5  6  2  0
  7  8  1  0
  8 10  1  0
  8  9  2  0
 11 10  1  6
 11 12  1  0
 11 13  1  0
 12  5  1  0
 13 20  1  0
 13 14  2  0
 16 15  1  0
 17 16  1  0
 17 18  1  1
 19 17  1  0
 19 20  1  6
 21 22  1  0
 21 19  1  0
 23 21  2  0
M  END
$$$$
