SNI.pdb
     RDKit          3D

 23 22  0  0  1  0  0  0  0  0999 V2000
   16.1124  -11.9286  -10.3507 O   0  0  0  0  0  0  0  0  0  0  0  0
   16.3622  -10.6677  -10.8518 C   0  0  0  0  0  0  0  0  0  0  0  0
   15.2901   -9.7132  -10.3694 C   0  0  2  0  0  0  0  0  0  0  0  0
   14.0158   -9.9407  -10.9838 N   0  0  0  0  0  0  0  0  0  0  0  0
   15.6907   -8.3029  -10.6071 C   0  0  0  0  0  0  0  0  0  0  0  0
   15.5031   -7.8253  -11.7640 O   0  0  0  0  0  0  0  0  0  0  0  0
   14.3058   -5.1998   -6.9458 N   0  0  0  0  0  0  0  0  0  0  0  0
   14.7901   -5.0748   -8.3134 C   0  0  0  0  0  0  0  0  0  0  0  0
   13.9337   -4.6802   -9.1186 O   0  0  0  0  0  0  0  0  0  0  0  0
   16.1768   -5.4232   -8.5312 C   0  0  0  0  0  0  0  0  0  0  0  0
   16.5630   -6.0840   -9.8251 C   0  0  2  0  0  0  0  0  0  0  0  0
   16.2570   -7.5308   -9.5825 N   0  0  0  0  0  0  0  0  0  0  0  0
   18.0387   -6.1031  -10.0484 C   0  0  0  0  0  0  0  0  0  0  0  0
   18.8554   -6.4570   -9.1195 O   0  0  0  0  0  0  0  0  0  0  0  0
   22.0763   -8.8528  -13.0335 C   0  0  0  0  0  0  0  0  0  0  0  0
   21.7958   -7.4668  -12.4366 C   0  0  0  0  0  0  0  0  0  0  0  0
   20.3493   -7.3006  -12.1077 C   0  0  2  0  0  0  0  0  0  0  0  0
   19.5316   -7.5440  -13.3513 C   0  0  0  0  0  0  0  0  0  0  0  0
   20.1060   -5.9813  -11.4547 C   0  0  2  0  0  0  0  0  0  0  0  0
   18.6577   -5.7501  -11.2659 N   0  0  0  0  0  0  0  0  0  0  0  0
   20.6078   -4.8127  -12.2147 C   0  0  0  0  0  0  0  0  0  0  0  0
   19.7525   -3.8457  -12.7791 O   0  0  0  0  0  0  0  0  0  0  0  0
   21.8308   -4.6051  -12.4074 O   0  0  0  0  0  0  0  0  0  0  0  0
  2  1  1  0
  3  4  1  6
  3  2  1  0
  5  3  1  0
  5  6  2  0
  7  8  1  0
  8 10  1  0
  8  9  2  0
 11 10  1  1
 11 12  1  0
 11 13  1  0
 12  5  1  0
 13 20  1  0
 13 14  2  0
 16 15  1  0
 17 16  1  0
 17 18  1  6
 19 17  1  0
 19 20  1  6
 21 22  1  0
 21 19  1  0
 23 21  2  0
M  END
$$$$
