SNI.pdb
     RDKit          3D

 23 22  0  0  1  0  0  0  0  0999 V2000
   16.8644  -15.8697  -15.8330 O   0  0  0  0  0  0  0  0  0  0  0  0
   17.1632  -14.7446  -16.5734 C   0  0  0  0  0  0  0  0  0  0  0  0
   16.1753  -13.6462  -16.2402 C   0  0  2  0  0  0  0  0  0  0  0  0
   14.8606  -13.8971  -16.7518 N   0  0  0  0  0  0  0  0  0  0  0  0
   16.6471  -12.3356  -16.7556 C   0  0  0  0  0  0  0  0  0  0  0  0
   16.1072  -11.8893  -17.8097 O   0  0  0  0  0  0  0  0  0  0  0  0
   18.3750   -7.5865  -17.2857 N   0  0  0  0  0  0  0  0  0  0  0  0
   17.0266   -8.0606  -17.0071 C   0  0  0  0  0  0  0  0  0  0  0  0
   16.1504   -7.1916  -17.1285 O   0  0  0  0  0  0  0  0  0  0  0  0
   16.9061   -9.4530  -16.6353 C   0  0  0  0  0  0  0  0  0  0  0  0
   18.1355  -10.3179  -16.6587 C   0  0  2  0  0  0  0  0  0  0  0  0
   17.6560  -11.6206  -16.0941 N   0  0  0  0  0  0  0  0  0  0  0  0
   19.1607   -9.8953  -15.6596 C   0  0  0  0  0  0  0  0  0  0  0  0
   18.9283   -9.9438  -14.3951 O   0  0  0  0  0  0  0  0  0  0  0  0
   24.8840  -10.8607  -14.3674 C   0  0  0  0  0  0  0  0  0  0  0  0
   23.6898   -9.9211  -14.1508 C   0  0  0  0  0  0  0  0  0  0  0  0
   22.6639  -10.0922  -15.2214 C   0  0  2  0  0  0  0  0  0  0  0  0
   23.3093   -9.8521  -16.5632 C   0  0  0  0  0  0  0  0  0  0  0  0
   21.4696   -9.2410  -14.9471 C   0  0  2  0  0  0  0  0  0  0  0  0
   20.4456   -9.4218  -15.9986 N   0  0  0  0  0  0  0  0  0  0  0  0
   21.7453   -7.7863  -14.8952 C   0  0  0  0  0  0  0  0  0  0  0  0
   21.2750   -6.8855  -15.8712 O   0  0  0  0  0  0  0  0  0  0  0  0
   22.4177   -7.2573  -13.9764 O   0  0  0  0  0  0  0  0  0  0  0  0
  2  1  1  0
  3  4  1  6
  3  2  1  0
  5  3  1  0
  5  6  2  0
  7  8  1  0
  8 10  1  0
  8  9  2  0
 11 10  1  1
 11 12  1  0
 11 13  1  0
 12  5  1  0
 13 20  1  0
 13 14  2  0
 16 15  1  0
 17 16  1  0
 17 18  1  6
 19 17  1  0
 19 20  1  6
 21 22  1  0
 21 19  1  0
 23 21  2  0
M  END
$$$$
