SNI.pdb
     RDKit          3D

 23 22  0  0  1  0  0  0  0  0999 V2000
   31.6740  -24.0730  -16.2470 O   0  0  0  0  0  0  0  0  0  0  0  0
   32.1193  -25.3362  -15.9165 C   0  0  0  0  0  0  0  0  0  0  0  0
   31.8689  -26.2773  -17.0763 C   0  0  2  0  0  0  0  0  0  0  0  0
   32.6236  -25.9413  -18.2471 N   0  0  0  0  0  0  0  0  0  0  0  0
   30.4268  -26.3099  -17.4299 C   0  0  0  0  0  0  0  0  0  0  0  0
   30.0618  -25.6863  -18.4689 O   0  0  0  0  0  0  0  0  0  0  0  0
   25.3899  -27.8584  -17.4195 N   0  0  0  0  0  0  0  0  0  0  0  0
   26.1731  -28.6828  -16.5098 C   0  0  0  0  0  0  0  0  0  0  0  0
   25.5342  -29.6109  -15.9920 O   0  0  0  0  0  0  0  0  0  0  0  0
   27.5596  -28.3063  -16.3443 C   0  0  0  0  0  0  0  0  0  0  0  0
   28.0698  -27.0877  -17.0616 C   0  0  2  0  0  0  0  0  0  0  0  0
   29.5048  -27.0085  -16.6371 N   0  0  0  0  0  0  0  0  0  0  0  0
   27.5059  -25.8168  -16.5186 C   0  0  0  0  0  0  0  0  0  0  0  0
   27.9600  -25.2867  -15.4379 O   0  0  0  0  0  0  0  0  0  0  0  0
   28.4846  -21.3794  -18.1228 C   0  0  0  0  0  0  0  0  0  0  0  0
   27.9671  -22.5357  -17.2562 C   0  0  0  0  0  0  0  0  0  0  0  0
   26.4828  -22.6623  -17.3509 C   0  0  2  0  0  0  0  0  0  0  0  0
   25.8532  -21.3391  -16.9940 C   0  0  0  0  0  0  0  0  0  0  0  0
   26.0000  -23.8172  -16.5390 C   0  0  2  0  0  0  0  0  0  0  0  0
   26.4560  -25.0959  -17.1253 N   0  0  0  0  0  0  0  0  0  0  0  0
   24.5263  -23.9237  -16.4296 C   0  0  0  0  0  0  0  0  0  0  0  0
   23.8202  -23.5648  -15.2643 O   0  0  0  0  0  0  0  0  0  0  0  0
   23.8064  -24.3415  -17.3693 O   0  0  0  0  0  0  0  0  0  0  0  0
  2  1  1  0
  3  4  1  6
  3  2  1  0
  5  3  1  0
  5  6  2  0
  7  8  1  0
  8 10  1  0
  8  9  2  0
 11 10  1  1
 11 12  1  0
 11 13  1  0
 12  5  1  0
 13 20  1  0
 13 14  2  0
 16 15  1  0
 17 16  1  0
 17 18  1  1
 19 17  1  0
 19 20  1  6
 21 22  1  0
 21 19  1  0
 23 21  2  0
M  END
$$$$
