LFW.pdb
     RDKit          3D

 34 36  0  0  1  0  0  0  0  0999 V2000
   12.3200  -19.4015    1.3679 C   0  0  0  0  0  0  0  0  0  0  0  0
   11.5609  -20.7158    1.1791 C   0  0  2  0  0  0  0  0  0  0  0  0
   10.2459  -20.6014    1.9208 C   0  0  0  0  0  0  0  0  0  0  0  0
   12.3726  -21.8827    1.6479 C   0  0  0  0  0  0  0  0  0  0  0  0
   13.6433  -21.9659    0.8656 C   0  0  2  0  0  0  0  0  0  0  0  0
   13.4391  -22.2135   -0.5434 N   0  0  0  0  0  0  0  0  0  0  0  0
   14.5681  -23.0071    1.3895 C   0  0  0  0  0  0  0  0  0  0  0  0
   14.5076  -24.1901    0.9910 O   0  0  0  0  0  0  0  0  0  0  0  0
   15.5336  -22.6765    2.3493 N   0  0  0  0  0  0  0  0  0  0  0  0
   16.4973  -23.6587    2.9073 C   0  0  1  0  0  0  0  0  0  0  0  0
   17.5319  -23.8057    1.8516 C   0  0  0  0  0  0  0  0  0  0  0  0
   18.7113  -24.5975    2.1419 C   0  0  0  0  0  0  0  0  0  0  0  0
   19.8819  -24.0645    2.6081 C   0  0  0  0  0  0  0  0  0  0  0  0
   21.0051  -24.8262    2.8797 C   0  0  0  0  0  0  0  0  0  0  0  0
   20.9751  -26.1761    2.6835 C   0  0  0  0  0  0  0  0  0  0  0  0
   19.7943  -26.7530    2.2078 C   0  0  0  0  0  0  0  0  0  0  0  0
   18.6918  -25.9685    1.9464 C   0  0  0  0  0  0  0  0  0  0  0  0
   17.0376  -23.0467    4.1329 C   0  0  0  0  0  0  0  0  0  0  0  0
   17.5323  -21.8742    4.0738 O   0  0  0  0  0  0  0  0  0  0  0  0
   17.0660  -23.6349    5.4190 N   0  0  0  0  0  0  0  0  0  0  0  0
   17.9292  -23.1419    6.4826 C   0  0  1  0  0  0  0  0  0  0  0  0
   17.1058  -22.8042    7.7120 C   0  0  0  0  0  0  0  0  0  0  0  0
   16.5026  -23.9924    8.3136 C   0  0  0  0  0  0  0  0  0  0  0  0
   17.1753  -25.0160    8.9219 C   0  0  0  0  0  0  0  0  0  0  0  0
   16.2545  -25.9050    9.3222 N   0  0  0  0  0  0  0  0  0  0  0  0
   15.0161  -25.4789    8.9876 C   0  0  0  0  0  0  0  0  0  0  0  0
   13.7502  -26.0182    9.1698 C   0  0  0  0  0  0  0  0  0  0  0  0
   12.6519  -25.3278    8.7042 C   0  0  0  0  0  0  0  0  0  0  0  0
   12.7681  -24.1167    8.0622 C   0  0  0  0  0  0  0  0  0  0  0  0
   14.0229  -23.5748    7.8777 C   0  0  0  0  0  0  0  0  0  0  0  0
   15.1304  -24.2667    8.3448 C   0  0  0  0  0  0  0  0  0  0  0  0
   18.9711  -24.1109    6.8806 C   0  0  0  0  0  0  0  0  0  0  0  0
   18.9832  -25.3255    6.5869 O   0  0  0  0  0  0  0  0  0  0  0  0
   20.0268  -23.6082    7.6498 O   0  0  0  0  0  0  0  0  0  0  0  0
  2  3  1  1
  2  1  1  0
  4  2  1  0
  5  6  1  6
  5  4  1  0
  7  5  1  0
  8  7  2  0
  9  7  1  0
 10  9  1  0
 11 12  1  0
 10 11  1  6
 12 17  2  0
 13 14  2  0
 13 12  1  0
 14 15  1  0
 15 16  2  0
 17 16  1  0
 18 10  1  0
 18 20  1  0
 19 18  2  0
 21 20  1  0
 21 22  1  1
 22 23  1  0
 23 31  1  0
 24 23  2  0
 24 25  1  0
 25 26  1  0
 26 27  2  0
 27 28  1  0
 29 28  2  0
 30 29  1  0
 31 30  2  0
 31 26  1  0
 32 34  1  0
 32 21  1  0
 33 32  2  0
M  END
$$$$
