LFW.pdb
     RDKit          3D

 34 36  0  0  1  0  0  0  0  0999 V2000
   28.9906  -18.8384  -14.4082 C   0  0  0  0  0  0  0  0  0  0  0  0
   29.9008  -19.6216  -13.4609 C   0  0  2  0  0  0  0  0  0  0  0  0
   31.0117  -20.2341  -14.2876 C   0  0  0  0  0  0  0  0  0  0  0  0
   29.1302  -20.6543  -12.6993 C   0  0  0  0  0  0  0  0  0  0  0  0
   29.6406  -20.7387  -11.2971 C   0  0  2  0  0  0  0  0  0  0  0  0
   30.7381  -21.6650  -11.1365 N   0  0  0  0  0  0  0  0  0  0  0  0
   28.5768  -21.1079  -10.3246 C   0  0  0  0  0  0  0  0  0  0  0  0
   28.2556  -22.3007  -10.1346 O   0  0  0  0  0  0  0  0  0  0  0  0
   27.9089  -20.1145   -9.5967 N   0  0  0  0  0  0  0  0  0  0  0  0
   26.6471  -20.3588   -8.8530 C   0  0  1  0  0  0  0  0  0  0  0  0
   26.6758  -19.3765   -7.7391 C   0  0  0  0  0  0  0  0  0  0  0  0
   27.4974  -19.6661   -6.5801 C   0  0  0  0  0  0  0  0  0  0  0  0
   27.2674  -20.7179   -5.7360 C   0  0  0  0  0  0  0  0  0  0  0  0
   28.0540  -20.9862   -4.6292 C   0  0  0  0  0  0  0  0  0  0  0  0
   29.1172  -20.1817   -4.3395 C   0  0  0  0  0  0  0  0  0  0  0  0
   29.3803  -19.0979   -5.1818 C   0  0  0  0  0  0  0  0  0  0  0  0
   28.5791  -18.8561   -6.2767 C   0  0  0  0  0  0  0  0  0  0  0  0
   25.5559  -20.0882   -9.8040 C   0  0  0  0  0  0  0  0  0  0  0  0
   25.5928  -19.0235  -10.5027 O   0  0  0  0  0  0  0  0  0  0  0  0
   24.4304  -20.9113  -10.0419 N   0  0  0  0  0  0  0  0  0  0  0  0
   23.4865  -20.6488  -11.1187 C   0  0  1  0  0  0  0  0  0  0  0  0
   23.8198  -21.5032  -12.3280 C   0  0  0  0  0  0  0  0  0  0  0  0
   22.9273  -21.2345  -13.4543 C   0  0  0  0  0  0  0  0  0  0  0  0
   22.7522  -20.0269  -14.0720 C   0  0  0  0  0  0  0  0  0  0  0  0
   21.8438  -20.2120  -15.0410 N   0  0  0  0  0  0  0  0  0  0  0  0
   21.4350  -21.5003  -15.0594 C   0  0  0  0  0  0  0  0  0  0  0  0
   20.5281  -22.1924  -15.8500 C   0  0  0  0  0  0  0  0  0  0  0  0
   20.3220  -23.5352  -15.6183 C   0  0  0  0  0  0  0  0  0  0  0  0
   20.9875  -24.2163  -14.6254 C   0  0  0  0  0  0  0  0  0  0  0  0
   21.8901  -23.5349  -13.8359 C   0  0  0  0  0  0  0  0  0  0  0  0
   22.1001  -22.1835  -14.0662 C   0  0  0  0  0  0  0  0  0  0  0  0
   22.0841  -20.9179  -10.7396 C   0  0  0  0  0  0  0  0  0  0  0  0
   21.6977  -21.8478   -9.9996 O   0  0  0  0  0  0  0  0  0  0  0  0
   21.1207  -20.0469  -11.2614 O   0  0  0  0  0  0  0  0  0  0  0  0
  2  3  1  6
  2  1  1  0
  4  2  1  0
  5  6  1  6
  5  4  1  0
  7  5  1  0
  8  7  2  0
  9  7  1  0
 10  9  1  0
 11 12  1  0
 10 11  1  1
 12 17  2  0
 13 14  2  0
 13 12  1  0
 14 15  1  0
 15 16  2  0
 17 16  1  0
 18 10  1  0
 18 20  1  0
 19 18  2  0
 21 20  1  0
 21 22  1  6
 22 23  1  0
 23 31  1  0
 24 23  2  0
 24 25  1  0
 25 26  1  0
 26 27  2  0
 27 28  1  0
 29 28  2  0
 30 29  1  0
 31 30  2  0
 31 26  1  0
 32 34  1  0
 32 21  1  0
 33 32  2  0
M  END
$$$$
