LFW.pdb
     RDKit          3D

 34 36  0  0  1  0  0  0  0  0999 V2000
   27.8918  -18.3648  -14.4250 C   0  0  0  0  0  0  0  0  0  0  0  0
   26.5501  -19.0891  -14.5456 C   0  0  2  0  0  0  0  0  0  0  0  0
   25.5302  -18.0923  -15.0540 C   0  0  0  0  0  0  0  0  0  0  0  0
   26.1425  -19.6958  -13.2394 C   0  0  0  0  0  0  0  0  0  0  0  0
   27.1548  -20.7081  -12.8104 C   0  0  2  0  0  0  0  0  0  0  0  0
   27.2346  -21.8532  -13.6882 N   0  0  0  0  0  0  0  0  0  0  0  0
   26.9172  -21.2008  -11.4267 C   0  0  0  0  0  0  0  0  0  0  0  0
   26.1809  -22.1861  -11.2052 O   0  0  0  0  0  0  0  0  0  0  0  0
   27.5210  -20.5623  -10.3357 N   0  0  0  0  0  0  0  0  0  0  0  0
   27.2219  -20.9065   -8.9226 C   0  0  1  0  0  0  0  0  0  0  0  0
   28.3064  -20.2556   -8.1436 C   0  0  0  0  0  0  0  0  0  0  0  0
   28.1753  -20.1802   -6.7016 C   0  0  0  0  0  0  0  0  0  0  0  0
   28.5399  -21.1928   -5.8569 C   0  0  0  0  0  0  0  0  0  0  0  0
   28.4085  -21.1151   -4.4813 C   0  0  0  0  0  0  0  0  0  0  0  0
   27.8942  -19.9878   -3.9099 C   0  0  0  0  0  0  0  0  0  0  0  0
   27.5117  -18.9342   -4.7445 C   0  0  0  0  0  0  0  0  0  0  0  0
   27.6546  -19.0407   -6.1111 C   0  0  0  0  0  0  0  0  0  0  0  0
   25.9020  -20.3216   -8.6324 C   0  0  0  0  0  0  0  0  0  0  0  0
   25.7186  -19.0767   -8.8315 O   0  0  0  0  0  0  0  0  0  0  0  0
   24.7696  -21.0139   -8.1432 N   0  0  0  0  0  0  0  0  0  0  0  0
   23.5276  -20.3348   -7.8034 C   0  0  1  0  0  0  0  0  0  0  0  0
   22.9603  -19.6367   -9.0258 C   0  0  0  0  0  0  0  0  0  0  0  0
   22.3219  -20.5742   -9.9482 C   0  0  0  0  0  0  0  0  0  0  0  0
   21.5549  -21.6511   -9.5981 C   0  0  0  0  0  0  0  0  0  0  0  0
   21.1769  -22.2483  -10.7378 N   0  0  0  0  0  0  0  0  0  0  0  0
   21.6795  -21.5848  -11.8028 C   0  0  0  0  0  0  0  0  0  0  0  0
   21.5861  -21.7884  -13.1727 C   0  0  0  0  0  0  0  0  0  0  0  0
   22.2272  -20.9175  -14.0270 C   0  0  0  0  0  0  0  0  0  0  0  0
   22.9600  -19.8482  -13.5663 C   0  0  0  0  0  0  0  0  0  0  0  0
   23.0571  -19.6398  -12.2064 C   0  0  0  0  0  0  0  0  0  0  0  0
   22.4133  -20.5142  -11.3436 C   0  0  0  0  0  0  0  0  0  0  0  0
   22.4927  -21.2475   -7.2752 C   0  0  0  0  0  0  0  0  0  0  0  0
   21.3402  -20.9138   -6.9261 O   0  0  0  0  0  0  0  0  0  0  0  0
   22.8504  -22.5961   -7.1649 O   0  0  0  0  0  0  0  0  0  0  0  0
  2  3  1  1
  2  1  1  0
  4  2  1  0
  5  6  1  6
  5  4  1  0
  7  5  1  0
  8  7  2  0
  9  7  1  0
 10  9  1  0
 11 12  1  0
 10 11  1  1
 12 17  2  0
 13 14  2  0
 13 12  1  0
 14 15  1  0
 15 16  2  0
 17 16  1  0
 18 10  1  0
 18 20  1  0
 19 18  2  0
 21 20  1  0
 21 22  1  6
 22 23  1  0
 23 31  1  0
 24 23  2  0
 24 25  1  0
 25 26  1  0
 26 27  2  0
 27 28  1  0
 29 28  2  0
 30 29  1  0
 31 30  2  0
 31 26  1  0
 32 34  1  0
 32 21  1  0
 33 32  2  0
M  END
$$$$
