LFW.pdb
     RDKit          3D

 34 36  0  0  1  0  0  0  0  0999 V2000
   31.9122  -26.0690  -20.0739 C   0  0  0  0  0  0  0  0  0  0  0  0
   31.2661  -27.3841  -20.5127 C   0  0  2  0  0  0  0  0  0  0  0  0
   29.9355  -27.5063  -19.8006 C   0  0  0  0  0  0  0  0  0  0  0  0
   32.1638  -28.5488  -20.2332 C   0  0  0  0  0  0  0  0  0  0  0  0
   33.4667  -28.3690  -20.9430 C   0  0  2  0  0  0  0  0  0  0  0  0
   33.3220  -27.9569  -22.3205 N   0  0  0  0  0  0  0  0  0  0  0  0
   34.3064  -29.5969  -20.9126 C   0  0  0  0  0  0  0  0  0  0  0  0
   34.0087  -30.6047  -21.5890 O   0  0  0  0  0  0  0  0  0  0  0  0
   35.4583  -29.6458  -20.1167 N   0  0  0  0  0  0  0  0  0  0  0  0
   36.3652  -30.8205  -20.0675 C   0  0  1  0  0  0  0  0  0  0  0  0
   37.5874  -30.3772  -20.7862 C   0  0  0  0  0  0  0  0  0  0  0  0
   37.6530  -30.5630  -22.2226 C   0  0  0  0  0  0  0  0  0  0  0  0
   37.7706  -31.7881  -22.8202 C   0  0  0  0  0  0  0  0  0  0  0  0
   37.8362  -31.9577  -24.1923 C   0  0  0  0  0  0  0  0  0  0  0  0
   37.7836  -30.8706  -25.0151 C   0  0  0  0  0  0  0  0  0  0  0  0
   37.6635  -29.6039  -24.4369 C   0  0  0  0  0  0  0  0  0  0  0  0
   37.6003  -29.4666  -23.0671 C   0  0  0  0  0  0  0  0  0  0  0  0
   36.6223  -31.0759  -18.6402 C   0  0  0  0  0  0  0  0  0  0  0  0
   37.0489  -30.1249  -17.9076 O   0  0  0  0  0  0  0  0  0  0  0  0
   36.4372  -32.3043  -17.9638 N   0  0  0  0  0  0  0  0  0  0  0  0
   36.5685  -32.4261  -16.5191 C   0  0  1  0  0  0  0  0  0  0  0  0
   35.5360  -31.5577  -15.8238 C   0  0  0  0  0  0  0  0  0  0  0  0
   34.1780  -32.0696  -16.0001 C   0  0  0  0  0  0  0  0  0  0  0  0
   33.7044  -33.2685  -15.5433 C   0  0  0  0  0  0  0  0  0  0  0  0
   32.4221  -33.3535  -15.9268 N   0  0  0  0  0  0  0  0  0  0  0  0
   32.0646  -32.2455  -16.6136 C   0  0  0  0  0  0  0  0  0  0  0  0
   30.8777  -31.8477  -17.2134 C   0  0  0  0  0  0  0  0  0  0  0  0
   30.8245  -30.6297  -17.8560 C   0  0  0  0  0  0  0  0  0  0  0  0
   31.9126  -29.7906  -17.9235 C   0  0  0  0  0  0  0  0  0  0  0  0
   33.0952  -30.1794  -17.3298 C   0  0  0  0  0  0  0  0  0  0  0  0
   33.1525  -31.4045  -16.6823 C   0  0  0  0  0  0  0  0  0  0  0  0
   36.4020  -33.8123  -16.0359 C   0  0  0  0  0  0  0  0  0  0  0  0
   35.9761  -34.7714  -16.7144 O   0  0  0  0  0  0  0  0  0  0  0  0
   36.7576  -34.0536  -14.7038 O   0  0  0  0  0  0  0  0  0  0  0  0
  2  3  1  1
  2  1  1  0
  4  2  1  0
  5  6  1  6
  5  4  1  0
  7  5  1  0
  8  7  2  0
  9  7  1  0
 10  9  1  0
 11 12  1  0
 10 11  1  6
 12 17  2  0
 13 14  2  0
 13 12  1  0
 14 15  1  0
 15 16  2  0
 17 16  1  0
 18 10  1  0
 18 20  1  0
 19 18  2  0
 21 20  1  0
 21 22  1  1
 22 23  1  0
 23 31  1  0
 24 23  2  0
 24 25  1  0
 25 26  1  0
 26 27  2  0
 27 28  1  0
 29 28  2  0
 30 29  1  0
 31 30  2  0
 31 26  1  0
 32 34  1  0
 32 21  1  0
 33 32  2  0
M  END
$$$$
