LFW.pdb
     RDKit          3D

 34 36  0  0  1  0  0  0  0  0999 V2000
   22.8006  -19.5406  -18.6355 C   0  0  0  0  0  0  0  0  0  0  0  0
   24.2459  -19.6823  -18.1554 C   0  0  2  0  0  0  0  0  0  0  0  0
   25.1488  -19.5692  -19.3655 C   0  0  0  0  0  0  0  0  0  0  0  0
   24.4487  -20.9697  -17.4194 C   0  0  0  0  0  0  0  0  0  0  0  0
   23.8826  -20.8624  -16.0404 C   0  0  2  0  0  0  0  0  0  0  0  0
   23.3429  -19.5565  -15.7375 N   0  0  0  0  0  0  0  0  0  0  0  0
   24.8758  -21.2085  -14.9880 C   0  0  0  0  0  0  0  0  0  0  0  0
   25.5788  -22.2385  -15.0714 O   0  0  0  0  0  0  0  0  0  0  0  0
   25.0426  -20.3772  -13.8727 N   0  0  0  0  0  0  0  0  0  0  0  0
   26.0559  -20.6251  -12.8161 C   0  0  1  0  0  0  0  0  0  0  0  0
   26.8308  -19.3600  -12.7397 C   0  0  0  0  0  0  0  0  0  0  0  0
   27.7320  -19.0321  -13.8271 C   0  0  0  0  0  0  0  0  0  0  0  0
   28.9462  -19.6360  -14.0088 C   0  0  0  0  0  0  0  0  0  0  0  0
   29.8031  -19.3153  -15.0473 C   0  0  0  0  0  0  0  0  0  0  0  0
   29.4486  -18.3552  -15.9496 C   0  0  0  0  0  0  0  0  0  0  0  0
   28.2144  -17.7184  -15.7929 C   0  0  0  0  0  0  0  0  0  0  0  0
   27.3822  -18.0593  -14.7487 C   0  0  0  0  0  0  0  0  0  0  0  0
   25.2990  -20.8880  -11.5806 C   0  0  0  0  0  0  0  0  0  0  0  0
   24.2719  -20.1805  -11.3208 O   0  0  0  0  0  0  0  0  0  0  0  0
   25.5923  -21.8792  -10.6150 N   0  0  0  0  0  0  0  0  0  0  0  0
   25.5724  -21.6047   -9.1855 C   0  0  1  0  0  0  0  0  0  0  0  0
   26.9221  -21.0773   -8.7340 C   0  0  0  0  0  0  0  0  0  0  0  0
   26.9430  -20.7709   -7.3047 C   0  0  0  0  0  0  0  0  0  0  0  0
   25.9404  -21.0302   -6.4114 C   0  0  0  0  0  0  0  0  0  0  0  0
   26.3560  -20.5834   -5.2172 N   0  0  0  0  0  0  0  0  0  0  0  0
   27.5925  -20.0475   -5.3226 C   0  0  0  0  0  0  0  0  0  0  0  0
   28.4492  -19.4602   -4.4019 C   0  0  0  0  0  0  0  0  0  0  0  0
   29.6762  -18.9970   -4.8254 C   0  0  0  0  0  0  0  0  0  0  0  0
   30.0828  -19.0975   -6.1358 C   0  0  0  0  0  0  0  0  0  0  0  0
   29.2368  -19.6801   -7.0562 C   0  0  0  0  0  0  0  0  0  0  0  0
   28.0012  -20.1472   -6.6336 C   0  0  0  0  0  0  0  0  0  0  0  0
   24.5421  -20.6192   -8.7979 C   0  0  0  0  0  0  0  0  0  0  0  0
   24.5105  -19.4227   -9.1571 O   0  0  0  0  0  0  0  0  0  0  0  0
   23.5224  -21.0828   -7.9587 O   0  0  0  0  0  0  0  0  0  0  0  0
  2  3  1  6
  2  1  1  0
  4  2  1  0
  5  6  1  1
  5  4  1  0
  7  5  1  0
  8  7  2  0
  9  7  1  0
 10  9  1  0
 11 12  1  0
 10 11  1  1
 12 17  2  0
 13 14  2  0
 13 12  1  0
 14 15  1  0
 15 16  2  0
 17 16  1  0
 18 10  1  0
 18 20  1  0
 19 18  2  0
 21 20  1  0
 21 22  1  6
 22 23  1  0
 23 31  1  0
 24 23  2  0
 24 25  1  0
 25 26  1  0
 26 27  2  0
 27 28  1  0
 29 28  2  0
 30 29  1  0
 31 30  2  0
 31 26  1  0
 32 34  1  0
 32 21  1  0
 33 32  2  0
M  END
$$$$
