LFW.pdb
     RDKit          3D

 34 36  0  0  1  0  0  0  0  0999 V2000
   27.9840  -19.3117  -18.8818 C   0  0  0  0  0  0  0  0  0  0  0  0
   27.2158  -20.5787  -19.2615 C   0  0  2  0  0  0  0  0  0  0  0  0
   26.3041  -20.2370  -20.4211 C   0  0  0  0  0  0  0  0  0  0  0  0
   26.4588  -21.1247  -18.0914 C   0  0  0  0  0  0  0  0  0  0  0  0
   27.3935  -21.3748  -16.9524 C   0  0  2  0  0  0  0  0  0  0  0  0
   28.3539  -22.4228  -17.2126 N   0  0  0  0  0  0  0  0  0  0  0  0
   26.6783  -21.7051  -15.6902 C   0  0  0  0  0  0  0  0  0  0  0  0
   26.0742  -22.7903  -15.5503 O   0  0  0  0  0  0  0  0  0  0  0  0
   26.6689  -20.7958  -14.6244 N   0  0  0  0  0  0  0  0  0  0  0  0
   26.0192  -21.0770  -13.3192 C   0  0  1  0  0  0  0  0  0  0  0  0
   26.8773  -20.3892  -12.3207 C   0  0  0  0  0  0  0  0  0  0  0  0
   26.5168  -20.4766  -10.9191 C   0  0  0  0  0  0  0  0  0  0  0  0
   25.8492  -19.4884  -10.2487 C   0  0  0  0  0  0  0  0  0  0  0  0
   25.5114  -19.5773   -8.9094 C   0  0  0  0  0  0  0  0  0  0  0  0
   25.8464  -20.6912   -8.1961 C   0  0  0  0  0  0  0  0  0  0  0  0
   26.5292  -21.7199   -8.8509 C   0  0  0  0  0  0  0  0  0  0  0  0
   26.8518  -21.6027  -10.1856 C   0  0  0  0  0  0  0  0  0  0  0  0
   24.6741  -20.4830  -13.3985 C   0  0  0  0  0  0  0  0  0  0  0  0
   24.5599  -19.2389  -13.6480 O   0  0  0  0  0  0  0  0  0  0  0  0
   23.4469  -21.1653  -13.2270 N   0  0  0  0  0  0  0  0  0  0  0  0
   22.1895  -20.4650  -13.0092 C   0  0  1  0  0  0  0  0  0  0  0  0
   21.2997  -20.5925  -14.2320 C   0  0  0  0  0  0  0  0  0  0  0  0
   21.6256  -19.6007  -15.2555 C   0  0  0  0  0  0  0  0  0  0  0  0
   21.6028  -18.2426  -15.0961 C   0  0  0  0  0  0  0  0  0  0  0  0
   21.9534  -17.7052  -16.2737 N   0  0  0  0  0  0  0  0  0  0  0  0
   22.1987  -18.6794  -17.1781 C   0  0  0  0  0  0  0  0  0  0  0  0
   22.5849  -18.6554  -18.5111 C   0  0  0  0  0  0  0  0  0  0  0  0
   22.7583  -19.8465  -19.1824 C   0  0  0  0  0  0  0  0  0  0  0  0
   22.5609  -21.0642  -18.5734 C   0  0  0  0  0  0  0  0  0  0  0  0
   22.1771  -21.0956  -17.2490 C   0  0  0  0  0  0  0  0  0  0  0  0
   22.0015  -19.8989  -16.5704 C   0  0  0  0  0  0  0  0  0  0  0  0
   21.4386  -20.9697  -11.8412 C   0  0  0  0  0  0  0  0  0  0  0  0
   21.8067  -21.8949  -11.0861 O   0  0  0  0  0  0  0  0  0  0  0  0
   20.2148  -20.3462  -11.5716 O   0  0  0  0  0  0  0  0  0  0  0  0
  2  3  1  6
  2  1  1  0
  4  2  1  0
  5  6  1  6
  5  4  1  0
  7  5  1  0
  8  7  2  0
  9  7  1  0
 10  9  1  0
 11 12  1  0
 10 11  1  1
 12 17  2  0
 13 14  2  0
 13 12  1  0
 14 15  1  0
 15 16  2  0
 17 16  1  0
 18 10  1  0
 18 20  1  0
 19 18  2  0
 21 20  1  0
 21 22  1  6
 22 23  1  0
 23 31  1  0
 24 23  2  0
 24 25  1  0
 25 26  1  0
 26 27  2  0
 27 28  1  0
 29 28  2  0
 30 29  1  0
 31 30  2  0
 31 26  1  0
 32 34  1  0
 32 21  1  0
 33 32  2  0
M  END
$$$$
