LFW.pdb
     RDKit          3D

 34 36  0  0  1  0  0  0  0  0999 V2000
   26.4549  -17.8252  -20.2183 C   0  0  0  0  0  0  0  0  0  0  0  0
   26.8010  -19.3116  -20.1176 C   0  0  2  0  0  0  0  0  0  0  0  0
   26.5507  -19.9380  -21.4731 C   0  0  0  0  0  0  0  0  0  0  0  0
   26.0132  -19.9793  -19.0341 C   0  0  0  0  0  0  0  0  0  0  0  0
   26.4510  -19.4704  -17.6989 C   0  0  2  0  0  0  0  0  0  0  0  0
   27.8851  -19.4748  -17.5208 N   0  0  0  0  0  0  0  0  0  0  0  0
   25.8421  -20.2281  -16.5725 C   0  0  0  0  0  0  0  0  0  0  0  0
   24.9136  -21.0425  -16.7638 O   0  0  0  0  0  0  0  0  0  0  0  0
   26.3035  -20.0402  -15.2631 N   0  0  0  0  0  0  0  0  0  0  0  0
   25.6433  -20.6349  -14.0734 C   0  0  1  0  0  0  0  0  0  0  0  0
   26.5795  -20.3615  -12.9530 C   0  0  0  0  0  0  0  0  0  0  0  0
   26.1030  -20.5307  -11.5941 C   0  0  0  0  0  0  0  0  0  0  0  0
   26.1365  -19.5375  -10.6538 C   0  0  0  0  0  0  0  0  0  0  0  0
   25.6830  -19.7073   -9.3571 C   0  0  0  0  0  0  0  0  0  0  0  0
   25.1725  -20.9111   -8.9675 C   0  0  0  0  0  0  0  0  0  0  0  0
   25.1237  -21.9474   -9.9039 C   0  0  0  0  0  0  0  0  0  0  0  0
   25.5828  -21.7482  -11.1879 C   0  0  0  0  0  0  0  0  0  0  0  0
   24.3661  -19.9189  -13.9170 C   0  0  0  0  0  0  0  0  0  0  0  0
   24.3689  -18.6451  -13.8915 O   0  0  0  0  0  0  0  0  0  0  0  0
   23.0865  -20.5086  -13.7919 N   0  0  0  0  0  0  0  0  0  0  0  0
   21.9227  -19.7578  -13.3437 C   0  0  1  0  0  0  0  0  0  0  0  0
   21.4373  -18.8351  -14.4466 C   0  0  0  0  0  0  0  0  0  0  0  0
   21.1816  -19.5547  -15.6933 C   0  0  0  0  0  0  0  0  0  0  0  0
   20.6330  -20.8025  -15.8040 C   0  0  0  0  0  0  0  0  0  0  0  0
   20.5848  -21.0932  -17.1124 N   0  0  0  0  0  0  0  0  0  0  0  0
   21.0858  -20.0688  -17.8381 C   0  0  0  0  0  0  0  0  0  0  0  0
   21.2584  -19.8724  -19.2013 C   0  0  0  0  0  0  0  0  0  0  0  0
   21.8124  -18.6912  -19.6455 C   0  0  0  0  0  0  0  0  0  0  0  0
   22.2019  -17.6954  -18.7799 C   0  0  0  0  0  0  0  0  0  0  0  0
   22.0333  -17.8837  -17.4240 C   0  0  0  0  0  0  0  0  0  0  0  0
   21.4763  -19.0711  -16.9733 C   0  0  0  0  0  0  0  0  0  0  0  0
   20.7947  -20.6221  -12.9395 C   0  0  0  0  0  0  0  0  0  0  0  0
   20.7784  -21.8702  -13.0001 O   0  0  0  0  0  0  0  0  0  0  0  0
   19.6571  -19.9712  -12.4483 O   0  0  0  0  0  0  0  0  0  0  0  0
  2  3  1  6
  2  1  1  0
  4  2  1  0
  5  6  1  6
  5  4  1  0
  7  5  1  0
  8  7  2  0
  9  7  1  0
 10  9  1  0
 11 12  1  0
 10 11  1  1
 12 17  2  0
 13 14  2  0
 13 12  1  0
 14 15  1  0
 15 16  2  0
 17 16  1  0
 18 10  1  0
 18 20  1  0
 19 18  2  0
 21 20  1  0
 21 22  1  6
 22 23  1  0
 23 31  1  0
 24 23  2  0
 24 25  1  0
 25 26  1  0
 26 27  2  0
 27 28  1  0
 29 28  2  0
 30 29  1  0
 31 30  2  0
 31 26  1  0
 32 34  1  0
 32 21  1  0
 33 32  2  0
M  END
$$$$
