LFW.pdb
     RDKit          3D

 34 36  0  0  1  0  0  0  0  0999 V2000
   29.4002  -19.3979  -14.7611 C   0  0  0  0  0  0  0  0  0  0  0  0
   29.3937  -20.9128  -14.5507 C   0  0  2  0  0  0  0  0  0  0  0  0
   29.1095  -21.5645  -15.8875 C   0  0  0  0  0  0  0  0  0  0  0  0
   28.3976  -21.3107  -13.5067 C   0  0  0  0  0  0  0  0  0  0  0  0
   28.7347  -20.6564  -12.2059 C   0  0  2  0  0  0  0  0  0  0  0  0
   30.0018  -21.0817  -11.6565 N   0  0  0  0  0  0  0  0  0  0  0  0
   27.6864  -20.8700  -11.1720 C   0  0  0  0  0  0  0  0  0  0  0  0
   26.8071  -21.7475  -11.3096 O   0  0  0  0  0  0  0  0  0  0  0  0
   27.6659  -20.0831  -10.0131 N   0  0  0  0  0  0  0  0  0  0  0  0
   26.5936  -20.1680   -8.9894 C   0  0  1  0  0  0  0  0  0  0  0  0
   26.9771  -19.1631   -7.9649 C   0  0  0  0  0  0  0  0  0  0  0  0
   27.5316  -19.6299   -6.7092 C   0  0  0  0  0  0  0  0  0  0  0  0
   28.1392  -18.8071   -5.8005 C   0  0  0  0  0  0  0  0  0  0  0  0
   28.6696  -19.2604   -4.6052 C   0  0  0  0  0  0  0  0  0  0  0  0
   28.5988  -20.5857   -4.2890 C   0  0  0  0  0  0  0  0  0  0  0  0
   27.9843  -21.4539   -5.1955 C   0  0  0  0  0  0  0  0  0  0  0  0
   27.4651  -20.9731   -6.3781 C   0  0  0  0  0  0  0  0  0  0  0  0
   25.3435  -19.8081   -9.6795 C   0  0  0  0  0  0  0  0  0  0  0  0
   25.2573  -18.6743  -10.2541 O   0  0  0  0  0  0  0  0  0  0  0  0
   24.1847  -20.6125   -9.7846 N   0  0  0  0  0  0  0  0  0  0  0  0
   23.1626  -20.3787  -10.7945 C   0  0  1  0  0  0  0  0  0  0  0  0
   23.5451  -21.0607  -12.0953 C   0  0  0  0  0  0  0  0  0  0  0  0
   22.5387  -20.8626  -13.1371 C   0  0  0  0  0  0  0  0  0  0  0  0
   21.9995  -19.6648  -13.5176 C   0  0  0  0  0  0  0  0  0  0  0  0
   21.1122  -19.9267  -14.4885 N   0  0  0  0  0  0  0  0  0  0  0  0
   21.0699  -21.2546  -14.7379 C   0  0  0  0  0  0  0  0  0  0  0  0
   20.3345  -22.0257  -15.6273 C   0  0  0  0  0  0  0  0  0  0  0  0
   20.5184  -23.3915  -15.6444 C   0  0  0  0  0  0  0  0  0  0  0  0
   21.4103  -24.0195  -14.8061 C   0  0  0  0  0  0  0  0  0  0  0  0
   22.1445  -23.2595  -13.9198 C   0  0  0  0  0  0  0  0  0  0  0  0
   21.9620  -21.8848  -13.8997 C   0  0  0  0  0  0  0  0  0  0  0  0
   21.8281  -20.8703  -10.3943 C   0  0  0  0  0  0  0  0  0  0  0  0
   21.6034  -21.9148   -9.7461 O   0  0  0  0  0  0  0  0  0  0  0  0
   20.7348  -20.0865  -10.7810 O   0  0  0  0  0  0  0  0  0  0  0  0
  2  3  1  6
  2  1  1  0
  4  2  1  0
  5  6  1  1
  5  4  1  0
  7  5  1  0
  8  7  2  0
  9  7  1  0
 10  9  1  0
 11 12  1  0
 10 11  1  1
 12 17  2  0
 13 14  2  0
 13 12  1  0
 14 15  1  0
 15 16  2  0
 17 16  1  0
 18 10  1  0
 18 20  1  0
 19 18  2  0
 21 20  1  0
 21 22  1  6
 22 23  1  0
 23 31  1  0
 24 23  2  0
 24 25  1  0
 25 26  1  0
 26 27  2  0
 27 28  1  0
 29 28  2  0
 30 29  1  0
 31 30  2  0
 31 26  1  0
 32 34  1  0
 32 21  1  0
 33 32  2  0
M  END
$$$$
