LFW.pdb
     RDKit          3D

 34 36  0  0  1  0  0  0  0  0999 V2000
   28.5771  -18.9651  -15.3803 C   0  0  0  0  0  0  0  0  0  0  0  0
   27.5612  -20.0981  -15.5346 C   0  0  2  0  0  0  0  0  0  0  0  0
   26.4997  -19.6381  -16.5112 C   0  0  0  0  0  0  0  0  0  0  0  0
   26.9791  -20.4878  -14.2118 C   0  0  0  0  0  0  0  0  0  0  0  0
   28.0643  -20.9522  -13.2951 C   0  0  2  0  0  0  0  0  0  0  0  0
   28.8279  -22.0615  -13.8191 N   0  0  0  0  0  0  0  0  0  0  0  0
   27.5507  -21.3366  -11.9527 C   0  0  0  0  0  0  0  0  0  0  0  0
   26.6480  -22.1911  -11.8224 O   0  0  0  0  0  0  0  0  0  0  0  0
   28.0754  -20.7412  -10.7981 N   0  0  0  0  0  0  0  0  0  0  0  0
   27.5249  -20.9747   -9.4390 C   0  0  1  0  0  0  0  0  0  0  0  0
   28.5491  -20.4129   -8.5213 C   0  0  0  0  0  0  0  0  0  0  0  0
   28.1893  -20.1878   -7.1350 C   0  0  0  0  0  0  0  0  0  0  0  0
   27.7589  -18.9816   -6.6535 C   0  0  0  0  0  0  0  0  0  0  0  0
   27.4204  -18.7731   -5.3277 C   0  0  0  0  0  0  0  0  0  0  0  0
   27.5095  -19.7999   -4.4336 C   0  0  0  0  0  0  0  0  0  0  0  0
   27.9459  -21.0457   -4.8927 C   0  0  0  0  0  0  0  0  0  0  0  0
   28.2759  -21.2229   -6.2189 C   0  0  0  0  0  0  0  0  0  0  0  0
   26.2572  -20.2279   -9.3800 C   0  0  0  0  0  0  0  0  0  0  0  0
   26.2554  -18.9865   -9.6662 O   0  0  0  0  0  0  0  0  0  0  0  0
   24.9913  -20.7551   -9.0328 N   0  0  0  0  0  0  0  0  0  0  0  0
   23.7590  -20.3014   -9.6613 C   0  0  1  0  0  0  0  0  0  0  0  0
   23.7959  -20.5839  -11.1520 C   0  0  0  0  0  0  0  0  0  0  0  0
   22.5707  -20.1540  -11.8239 C   0  0  0  0  0  0  0  0  0  0  0  0
   21.8876  -18.9932  -11.5865 C   0  0  0  0  0  0  0  0  0  0  0  0
   20.8223  -18.9934  -12.4011 N   0  0  0  0  0  0  0  0  0  0  0  0
   20.8060  -20.1186  -13.1500 C   0  0  0  0  0  0  0  0  0  0  0  0
   19.9378  -20.5929  -14.1236 C   0  0  0  0  0  0  0  0  0  0  0  0
   20.1962  -21.8080  -14.7205 C   0  0  0  0  0  0  0  0  0  0  0  0
   21.2905  -22.5703  -14.3828 C   0  0  0  0  0  0  0  0  0  0  0  0
   22.1575  -22.1052  -13.4163 C   0  0  0  0  0  0  0  0  0  0  0  0
   21.9006  -20.8829  -12.8134 C   0  0  0  0  0  0  0  0  0  0  0  0
   22.5517  -20.9440   -9.1025 C   0  0  0  0  0  0  0  0  0  0  0  0
   21.3724  -20.6131   -9.3505 O   0  0  0  0  0  0  0  0  0  0  0  0
   22.7658  -22.0128   -8.2245 O   0  0  0  0  0  0  0  0  0  0  0  0
  2  3  1  6
  2  1  1  0
  4  2  1  0
  5  6  1  6
  5  4  1  0
  7  5  1  0
  8  7  2  0
  9  7  1  0
 10  9  1  0
 11 12  1  0
 10 11  1  1
 12 17  2  0
 13 14  2  0
 13 12  1  0
 14 15  1  0
 15 16  2  0
 17 16  1  0
 18 10  1  0
 18 20  1  0
 19 18  2  0
 21 20  1  0
 21 22  1  6
 22 23  1  0
 23 31  1  0
 24 23  2  0
 24 25  1  0
 25 26  1  0
 26 27  2  0
 27 28  1  0
 29 28  2  0
 30 29  1  0
 31 30  2  0
 31 26  1  0
 32 34  1  0
 32 21  1  0
 33 32  2  0
M  END
$$$$
