CPS.pdb
     RDKit          3D

 20 20  0  0  1  0  0  0  0  0999 V2000
    8.8834  -16.4429   15.9048 N   0  0  0  0  0  0  0  0  0  0  0  0
    7.9879  -15.8588   16.8697 C   0  0  1  0  0  0  0  0  0  0  0  0
    6.8114  -16.7961   17.0820 C   0  0  0  0  0  0  0  0  0  0  0  0
    7.1093  -17.8964   18.4915 S   0  0  0  0  0  0  0  0  0  0  0  0
    8.6453  -15.5876   18.1713 C   0  0  0  0  0  0  0  0  0  0  0  0
    9.6865  -16.2630   18.4061 O   0  0  0  0  0  0  0  0  0  0  0  0
    8.1810  -14.6472   19.1235 N   0  0  0  0  0  0  0  0  0  0  0  0
    6.9383  -13.9144   18.9992 C   0  0  0  0  0  0  0  0  0  0  0  0
    6.8366  -13.0087   20.2044 C   0  0  0  0  0  0  0  0  0  0  0  0
    8.1782  -13.0503   20.8691 C   0  0  0  0  0  0  0  0  0  0  0  0
    8.8629  -14.2897   20.3293 C   0  0  1  0  0  0  0  0  0  0  0  0
    8.7954  -15.3268   21.3737 C   0  0  0  0  0  0  0  0  0  0  0  0
    7.7245  -15.9420   21.5387 O   0  0  0  0  0  0  0  0  0  0  0  0
   12.1190  -17.2671   22.3104 O   0  0  0  0  0  0  0  0  0  0  0  0
   10.8873  -17.8082   22.6826 C   0  0  0  0  0  0  0  0  0  0  0  0
    9.9893  -16.6846   23.1280 C   0  0  2  0  0  0  0  0  0  0  0  0
    9.9304  -15.6059   22.1631 N   0  0  0  0  0  0  0  0  0  0  0  0
   10.5461  -16.1481   24.4003 C   0  0  0  0  0  0  0  0  0  0  0  0
   10.6689  -16.9127   25.5453 O   0  0  0  0  0  0  0  0  0  0  0  0
   10.9370  -14.9442   24.4840 O   0  0  0  0  0  0  0  0  0  0  0  0
  2  1  1  6
  2  3  1  0
  4  3  1  0
  5  2  1  0
  5  6  2  0
  7  5  1  0
  8  7  1  0
  9  8  1  0
 10  9  1  0
 10 11  1  0
 11  7  1  0
 11 12  1  1
 12 17  1  0
 12 13  2  0
 15 14  1  0
 16 15  1  6
 17 16  1  0
 18 16  1  0
 18 19  1  0
 20 18  2  0
M  END
$$$$
