CPS.pdb
     RDKit          3D

 20 20  0  0  1  0  0  0  0  0999 V2000
    5.0570  -13.5585   26.4988 N   0  0  0  0  0  0  0  0  0  0  0  0
    6.3241  -13.2046   25.9128 C   0  0  1  0  0  0  0  0  0  0  0  0
    7.3463  -13.0200   27.0213 C   0  0  0  0  0  0  0  0  0  0  0  0
    8.8832  -12.3127   26.3704 S   0  0  0  0  0  0  0  0  0  0  0  0
    6.8152  -14.2220   24.9517 C   0  0  0  0  0  0  0  0  0  0  0  0
    6.7610  -15.4190   25.3514 O   0  0  0  0  0  0  0  0  0  0  0  0
    7.3208  -13.9280   23.6615 N   0  0  0  0  0  0  0  0  0  0  0  0
    7.4085  -12.5917   23.1108 C   0  0  0  0  0  0  0  0  0  0  0  0
    7.9752  -12.7243   21.7164 C   0  0  0  0  0  0  0  0  0  0  0  0
    7.9493  -14.1871   21.3954 C   0  0  0  0  0  0  0  0  0  0  0  0
    7.8112  -14.8950   22.7281 C   0  0  1  0  0  0  0  0  0  0  0  0
    9.1338  -15.4385   23.0834 C   0  0  0  0  0  0  0  0  0  0  0  0
    9.9781  -14.6758   23.5913 O   0  0  0  0  0  0  0  0  0  0  0  0
    9.3544  -19.3513   23.5154 O   0  0  0  0  0  0  0  0  0  0  0  0
   10.4775  -18.6870   24.0114 C   0  0  0  0  0  0  0  0  0  0  0  0
   10.6758  -17.4265   23.2122 C   0  0  2  0  0  0  0  0  0  0  0  0
    9.4228  -16.7986   22.8466 N   0  0  0  0  0  0  0  0  0  0  0  0
   11.3968  -17.8000   21.9642 C   0  0  0  0  0  0  0  0  0  0  0  0
   12.6835  -18.3049   21.9653 O   0  0  0  0  0  0  0  0  0  0  0  0
   10.8467  -17.6663   20.8291 O   0  0  0  0  0  0  0  0  0  0  0  0
  2  1  1  1
  2  3  1  0
  4  3  1  0
  5  2  1  0
  5  6  2  0
  7  5  1  0
  8  7  1  0
  9  8  1  0
 10  9  1  0
 10 11  1  0
 11  7  1  0
 11 12  1  1
 12 17  1  0
 12 13  2  0
 15 14  1  0
 16 15  1  1
 17 16  1  0
 18 16  1  0
 18 19  1  0
 20 18  2  0
M  END
$$$$
