CPS.pdb
     RDKit          3D

 20 20  0  0  1  0  0  0  0  0999 V2000
    9.4464  -15.4072   15.6370 N   0  0  0  0  0  0  0  0  0  0  0  0
    8.5075  -15.4983   16.7252 C   0  0  1  0  0  0  0  0  0  0  0  0
    7.8839  -16.8836   16.7245 C   0  0  0  0  0  0  0  0  0  0  0  0
    6.8647  -17.1330   18.2027 S   0  0  0  0  0  0  0  0  0  0  0  0
    9.1325  -15.2380   18.0448 C   0  0  0  0  0  0  0  0  0  0  0  0
   10.2665  -15.7649   18.2233 O   0  0  0  0  0  0  0  0  0  0  0  0
    8.5435  -14.4594   19.0713 N   0  0  0  0  0  0  0  0  0  0  0  0
    7.2434  -13.8304   18.9665 C   0  0  0  0  0  0  0  0  0  0  0  0
    7.0080  -13.0835   20.2586 C   0  0  0  0  0  0  0  0  0  0  0  0
    8.3195  -13.0826   20.9822 C   0  0  0  0  0  0  0  0  0  0  0  0
    9.1391  -14.1852   20.3429 C   0  0  1  0  0  0  0  0  0  0  0  0
    9.1271  -15.3385   21.2598 C   0  0  0  0  0  0  0  0  0  0  0  0
    8.1311  -16.0869   21.2680 O   0  0  0  0  0  0  0  0  0  0  0  0
   12.6935  -16.6961   22.6414 O   0  0  0  0  0  0  0  0  0  0  0  0
   11.5929  -17.5545   22.6233 C   0  0  0  0  0  0  0  0  0  0  0  0
   10.3590  -16.7525   22.9419 C   0  0  2  0  0  0  0  0  0  0  0  0
   10.2303  -15.5768   22.1057 N   0  0  0  0  0  0  0  0  0  0  0  0
   10.4691  -16.3117   24.3598 C   0  0  0  0  0  0  0  0  0  0  0  0
   10.6254  -17.1975   25.4094 O   0  0  0  0  0  0  0  0  0  0  0  0
   10.4227  -15.0814   24.6651 O   0  0  0  0  0  0  0  0  0  0  0  0
  2  1  1  6
  2  3  1  0
  4  3  1  0
  5  2  1  0
  5  6  2  0
  7  5  1  0
  8  7  1  0
  9  8  1  0
 10  9  1  0
 10 11  1  0
 11  7  1  0
 11 12  1  1
 12 17  1  0
 12 13  2  0
 15 14  1  0
 16 15  1  6
 17 16  1  0
 18 16  1  0
 18 19  1  0
 20 18  2  0
M  END
$$$$
