CPS.pdb
     RDKit          3D

 20 20  0  0  1  0  0  0  0  0999 V2000
    6.3296  -15.9909   24.5969 N   0  0  0  0  0  0  0  0  0  0  0  0
    7.3456  -15.2565   23.8879 C   0  0  1  0  0  0  0  0  0  0  0  0
    8.6992  -15.5662   24.5042 C   0  0  0  0  0  0  0  0  0  0  0  0
   10.0351  -14.8093   23.5406 S   0  0  0  0  0  0  0  0  0  0  0  0
    7.3772  -15.5745   22.4396 C   0  0  0  0  0  0  0  0  0  0  0  0
    7.1519  -16.7813   22.1424 O   0  0  0  0  0  0  0  0  0  0  0  0
    7.6370  -14.6295   21.4167 N   0  0  0  0  0  0  0  0  0  0  0  0
    8.0697  -13.2694   21.6611 C   0  0  0  0  0  0  0  0  0  0  0  0
    8.2061  -12.5998   20.3134 C   0  0  0  0  0  0  0  0  0  0  0  0
    7.5790  -13.5312   19.3220 C   0  0  0  0  0  0  0  0  0  0  0  0
    7.5113  -14.8779   20.0134 C   0  0  1  0  0  0  0  0  0  0  0  0
    8.5920  -15.7157   19.4646 C   0  0  0  0  0  0  0  0  0  0  0  0
    9.7597  -15.5156   19.8503 O   0  0  0  0  0  0  0  0  0  0  0  0
    7.3767  -18.9679   17.4302 O   0  0  0  0  0  0  0  0  0  0  0  0
    8.6673  -19.0808   17.9499 C   0  0  0  0  0  0  0  0  0  0  0  0
    9.2571  -17.7000   18.0622 C   0  0  2  0  0  0  0  0  0  0  0  0
    8.2935  -16.7208   18.5212 N   0  0  0  0  0  0  0  0  0  0  0  0
    9.7213  -17.3029   16.7044 C   0  0  0  0  0  0  0  0  0  0  0  0
   10.7334  -17.9655   16.0355 O   0  0  0  0  0  0  0  0  0  0  0  0
    9.1951  -16.3215   16.0971 O   0  0  0  0  0  0  0  0  0  0  0  0
  2  1  1  1
  2  3  1  0
  4  3  1  0
  5  2  1  0
  5  6  2  0
  7  5  1  0
  8  7  1  0
  9  8  1  0
 10  9  1  0
 10 11  1  0
 11  7  1  0
 11 12  1  6
 12 17  1  0
 12 13  2  0
 15 14  1  0
 16 15  1  6
 17 16  1  0
 18 16  1  0
 18 19  1  0
 20 18  2  0
M  END
$$$$
