CPS.pdb
     RDKit          3D

 20 20  0  0  1  0  0  0  0  0999 V2000
    8.2610  -13.9591   21.1311 N   0  0  0  0  0  0  0  0  0  0  0  0
    7.5184  -14.3679   22.2954 C   0  0  1  0  0  0  0  0  0  0  0  0
    7.1583  -15.8375   22.1603 C   0  0  0  0  0  0  0  0  0  0  0  0
    6.5804  -16.5082   23.7423 S   0  0  0  0  0  0  0  0  0  0  0  0
    8.2687  -14.1565   23.5572 C   0  0  0  0  0  0  0  0  0  0  0  0
    9.4788  -14.5182   23.5379 O   0  0  0  0  0  0  0  0  0  0  0  0
    7.7166  -13.5922   24.7334 N   0  0  0  0  0  0  0  0  0  0  0  0
    6.3906  -13.0154   24.8101 C   0  0  0  0  0  0  0  0  0  0  0  0
    6.2088  -12.5110   26.2228 C   0  0  0  0  0  0  0  0  0  0  0  0
    7.5617  -12.5726   26.8627 C   0  0  0  0  0  0  0  0  0  0  0  0
    8.3795  -13.5112   25.9987 C   0  0  1  0  0  0  0  0  0  0  0  0
    8.4660  -14.8030   26.7020 C   0  0  0  0  0  0  0  0  0  0  0  0
    7.4423  -15.5079   26.7881 O   0  0  0  0  0  0  0  0  0  0  0  0
   12.0182  -16.6341   26.9263 O   0  0  0  0  0  0  0  0  0  0  0  0
   10.8630  -17.3771   27.1754 C   0  0  0  0  0  0  0  0  0  0  0  0
    9.8828  -16.5007   27.9090 C   0  0  2  0  0  0  0  0  0  0  0  0
    9.6921  -15.2191   27.2615 N   0  0  0  0  0  0  0  0  0  0  0  0
   10.4331  -16.2622   29.2718 C   0  0  0  0  0  0  0  0  0  0  0  0
   10.7578  -17.2888   30.1385 O   0  0  0  0  0  0  0  0  0  0  0  0
   10.6289  -15.0837   29.6983 O   0  0  0  0  0  0  0  0  0  0  0  0
  2  1  1  6
  2  3  1  0
  4  3  1  0
  5  2  1  0
  5  6  2  0
  7  5  1  0
  8  7  1  0
  9  8  1  0
 10  9  1  0
 10 11  1  0
 11  7  1  0
 11 12  1  1
 12 17  1  0
 12 13  2  0
 15 14  1  0
 16 15  1  6
 17 16  1  0
 18 16  1  0
 18 19  1  0
 20 18  2  0
M  END
$$$$
