CPS.pdb
     RDKit          3D

 20 20  0  0  1  0  0  0  0  0999 V2000
    8.3486  -13.9226   20.8204 N   0  0  0  0  0  0  0  0  0  0  0  0
    7.5456  -13.7219   21.9989 C   0  0  1  0  0  0  0  0  0  0  0  0
    6.3442  -14.6499   21.9416 C   0  0  0  0  0  0  0  0  0  0  0  0
    6.8571  -16.3804   22.1103 S   0  0  0  0  0  0  0  0  0  0  0  0
    8.2984  -13.9644   23.2536 C   0  0  0  0  0  0  0  0  0  0  0  0
    9.4185  -14.5316   23.1151 O   0  0  0  0  0  0  0  0  0  0  0  0
    7.8408  -13.6056   24.5453 N   0  0  0  0  0  0  0  0  0  0  0  0
    6.5963  -12.9105   24.7999 C   0  0  0  0  0  0  0  0  0  0  0  0
    6.5033  -12.7029   26.2937 C   0  0  0  0  0  0  0  0  0  0  0  0
    7.8503  -13.0549   26.8462 C   0  0  0  0  0  0  0  0  0  0  0  0
    8.5319  -13.8740   25.7689 C   0  0  1  0  0  0  0  0  0  0  0  0
    8.4740  -15.2877   26.1801 C   0  0  0  0  0  0  0  0  0  0  0  0
    7.4081  -15.9138   26.0240 O   0  0  0  0  0  0  0  0  0  0  0  0
   11.8453  -17.3069   26.1149 O   0  0  0  0  0  0  0  0  0  0  0  0
   10.6667  -18.0524   26.1762 C   0  0  0  0  0  0  0  0  0  0  0  0
    9.6847  -17.3184   27.0502 C   0  0  2  0  0  0  0  0  0  0  0  0
    9.6124  -15.9058   26.7382 N   0  0  0  0  0  0  0  0  0  0  0  0
   10.1455  -17.4663   28.4582 C   0  0  0  0  0  0  0  0  0  0  0  0
   10.3144  -18.6964   29.0656 O   0  0  0  0  0  0  0  0  0  0  0  0
   10.4060  -16.4484   29.1689 O   0  0  0  0  0  0  0  0  0  0  0  0
  2  1  1  6
  2  3  1  0
  4  3  1  0
  5  2  1  0
  5  6  2  0
  7  5  1  0
  8  7  1  0
  9  8  1  0
 10  9  1  0
 10 11  1  0
 11  7  1  0
 11 12  1  1
 12 17  1  0
 12 13  2  0
 15 14  1  0
 16 15  1  6
 17 16  1  0
 18 16  1  0
 18 19  1  0
 20 18  2  0
M  END
$$$$
