CPS.pdb
     RDKit          3D

 20 20  0  0  1  0  0  0  0  0999 V2000
    9.7272  -15.4571   15.5039 N   0  0  0  0  0  0  0  0  0  0  0  0
    8.7267  -15.0851   16.4708 C   0  0  1  0  0  0  0  0  0  0  0  0
    7.6126  -16.1176   16.4503 C   0  0  0  0  0  0  0  0  0  0  0  0
    8.1976  -17.7108   17.0873 S   0  0  0  0  0  0  0  0  0  0  0  0
    9.2719  -14.9730   17.8455 C   0  0  0  0  0  0  0  0  0  0  0  0
   10.4005  -15.5100   18.0288 O   0  0  0  0  0  0  0  0  0  0  0  0
    8.6154  -14.3201   18.9177 N   0  0  0  0  0  0  0  0  0  0  0  0
    7.2869  -13.7512   18.8282 C   0  0  0  0  0  0  0  0  0  0  0  0
    6.9780  -13.1354   20.1730 C   0  0  0  0  0  0  0  0  0  0  0  0
    8.2680  -13.1325   20.9342 C   0  0  0  0  0  0  0  0  0  0  0  0
    9.1619  -14.1306   20.2262 C   0  0  1  0  0  0  0  0  0  0  0  0
    9.1872  -15.3602   21.0376 C   0  0  0  0  0  0  0  0  0  0  0  0
    8.2321  -16.1555   20.9501 O   0  0  0  0  0  0  0  0  0  0  0  0
   12.7982  -16.6841   22.2501 O   0  0  0  0  0  0  0  0  0  0  0  0
   11.7328  -17.5808   22.1531 C   0  0  0  0  0  0  0  0  0  0  0  0
   10.4755  -16.8740   22.5853 C   0  0  2  0  0  0  0  0  0  0  0  0
   10.2795  -15.6173   21.8922 N   0  0  0  0  0  0  0  0  0  0  0  0
   10.6016  -16.5932   24.0420 C   0  0  0  0  0  0  0  0  0  0  0  0
   10.5498  -15.3149   24.5655 O   0  0  0  0  0  0  0  0  0  0  0  0
   10.7647  -17.5355   24.8755 O   0  0  0  0  0  0  0  0  0  0  0  0
  2  1  1  6
  2  3  1  0
  4  3  1  0
  5  2  1  0
  5  6  2  0
  7  5  1  0
  8  7  1  0
  9  8  1  0
 10  9  1  0
 10 11  1  0
 11  7  1  0
 11 12  1  1
 12 17  1  0
 12 13  2  0
 15 14  1  0
 16 15  1  6
 17 16  1  0
 18 16  1  0
 18 19  1  0
 20 18  2  0
M  END
$$$$
