CPS.pdb
     RDKit          3D

 20 20  0  0  1  0  0  0  0  0999 V2000
    7.1702  -17.5381   17.0230 N   0  0  0  0  0  0  0  0  0  0  0  0
    6.7431  -16.5325   17.9613 C   0  0  1  0  0  0  0  0  0  0  0  0
    5.6160  -17.0961   18.8098 C   0  0  0  0  0  0  0  0  0  0  0  0
    6.2623  -17.8279   20.3372 S   0  0  0  0  0  0  0  0  0  0  0  0
    7.8414  -16.0681   18.8433 C   0  0  0  0  0  0  0  0  0  0  0  0
    8.8261  -16.8526   18.9453 O   0  0  0  0  0  0  0  0  0  0  0  0
    7.8392  -14.8386   19.5470 N   0  0  0  0  0  0  0  0  0  0  0  0
    6.7613  -13.8735   19.4884 C   0  0  0  0  0  0  0  0  0  0  0  0
    7.1663  -12.7048   20.3563 C   0  0  0  0  0  0  0  0  0  0  0  0
    8.6123  -12.9146   20.6862 C   0  0  0  0  0  0  0  0  0  0  0  0
    8.8868  -14.3783   20.4057 C   0  0  1  0  0  0  0  0  0  0  0  0
    8.9369  -15.0786   21.7011 C   0  0  0  0  0  0  0  0  0  0  0  0
    7.9179  -15.0862   22.4178 O   0  0  0  0  0  0  0  0  0  0  0  0
   11.2224  -18.1858   22.0447 O   0  0  0  0  0  0  0  0  0  0  0  0
   10.3329  -17.9621   23.0969 C   0  0  0  0  0  0  0  0  0  0  0  0
   10.2444  -16.4784   23.3375 C   0  0  2  0  0  0  0  0  0  0  0  0
   10.1239  -15.7233   22.1073 N   0  0  0  0  0  0  0  0  0  0  0  0
   11.4990  -16.0635   24.0233 C   0  0  0  0  0  0  0  0  0  0  0  0
   11.8427  -16.5049   25.2874 O   0  0  0  0  0  0  0  0  0  0  0  0
   12.3173  -15.2729   23.4626 O   0  0  0  0  0  0  0  0  0  0  0  0
  2  1  1  6
  2  3  1  0
  4  3  1  0
  5  2  1  0
  5  6  2  0
  7  5  1  0
  8  7  1  0
  9  8  1  0
 10  9  1  0
 10 11  1  0
 11  7  1  0
 11 12  1  1
 12 17  1  0
 12 13  2  0
 15 14  1  0
 16 15  1  6
 17 16  1  0
 18 16  1  0
 18 19  1  0
 20 18  2  0
M  END
$$$$
