CPS.pdb
     RDKit          3D

 20 20  0  0  1  0  0  0  0  0999 V2000
    5.8108  -19.0811   24.4670 N   0  0  0  0  0  0  0  0  0  0  0  0
    6.1894  -17.6948   24.3729 C   0  0  1  0  0  0  0  0  0  0  0  0
    6.4938  -17.1705   25.7658 C   0  0  0  0  0  0  0  0  0  0  0  0
    8.0124  -17.9154   26.4179 S   0  0  0  0  0  0  0  0  0  0  0  0
    7.3660  -17.4803   23.4957 C   0  0  0  0  0  0  0  0  0  0  0  0
    7.9722  -18.5273   23.1326 O   0  0  0  0  0  0  0  0  0  0  0  0
    7.8234  -16.2110   23.0638 N   0  0  0  0  0  0  0  0  0  0  0  0
    7.2264  -14.9546   23.4664 C   0  0  0  0  0  0  0  0  0  0  0  0
    7.9933  -13.8564   22.7671 C   0  0  0  0  0  0  0  0  0  0  0  0
    8.8591  -14.5368   21.7517 C   0  0  0  0  0  0  0  0  0  0  0  0
    8.9259  -15.9889   22.1795 C   0  0  1  0  0  0  0  0  0  0  0  0
   10.2396  -16.2081   22.8097 C   0  0  0  0  0  0  0  0  0  0  0  0
   10.4112  -15.8295   23.9843 O   0  0  0  0  0  0  0  0  0  0  0  0
   12.0716  -19.5178   22.3736 O   0  0  0  0  0  0  0  0  0  0  0  0
   13.0397  -18.5424   22.1289 C   0  0  0  0  0  0  0  0  0  0  0  0
   12.5383  -17.2290   22.6682 C   0  0  2  0  0  0  0  0  0  0  0  0
   11.2728  -16.8360   22.0834 N   0  0  0  0  0  0  0  0  0  0  0  0
   13.5539  -16.1935   22.3320 C   0  0  0  0  0  0  0  0  0  0  0  0
   14.8028  -16.1498   22.9228 O   0  0  0  0  0  0  0  0  0  0  0  0
   13.3070  -15.2934   21.4730 O   0  0  0  0  0  0  0  0  0  0  0  0
  2  1  1  1
  2  3  1  0
  4  3  1  0
  5  2  1  0
  5  6  2  0
  7  5  1  0
  8  7  1  0
  9  8  1  0
 10  9  1  0
 10 11  1  0
 11  7  1  0
 11 12  1  1
 12 17  1  0
 12 13  2  0
 15 14  1  0
 16 15  1  6
 17 16  1  0
 18 16  1  0
 18 19  1  0
 20 18  2  0
M  END
$$$$
