CPE.pdb
     RDKit          3D

 23 23  0  0  1  0  0  0  0  0999 V2000
   10.4063  -15.7315   16.1822 N   0  0  0  0  0  0  0  0  0  0  0  0
    9.3346  -15.7490   17.1048 C   0  0  1  0  0  0  0  0  0  0  0  0
    8.5624  -17.0683   17.0834 C   0  0  0  0  0  0  0  0  0  0  0  0
    7.4714  -17.2223   18.5289 S   0  0  0  0  0  0  0  0  0  0  0  0
    9.6222  -15.3038   18.4636 C   0  0  0  0  0  0  0  0  0  0  0  0
   10.5516  -15.9903   19.0407 O   0  0  0  0  0  0  0  0  0  0  0  0
    8.9941  -14.2345   19.1621 N   0  0  0  0  0  0  0  0  0  0  0  0
    8.1496  -13.1933   18.6098 C   0  0  0  0  0  0  0  0  0  0  0  0
    6.9674  -13.2674   19.5943 C   0  0  0  0  0  0  0  0  0  0  0  0
    7.7309  -13.3043   20.9004 C   0  0  0  0  0  0  0  0  0  0  0  0
    9.0718  -13.9470   20.5774 C   0  0  1  0  0  0  0  0  0  0  0  0
    9.1963  -15.0947   21.4776 C   0  0  0  0  0  0  0  0  0  0  0  0
    8.3811  -16.0181   21.5131 O   0  0  0  0  0  0  0  0  0  0  0  0
   10.3013  -15.1811   22.3703 N   0  0  0  0  0  0  0  0  0  0  0  0
   10.4691  -16.3259   23.2776 C   0  0  1  0  0  0  0  0  0  0  0  0
   11.9131  -16.4781   23.6799 C   0  0  0  0  0  0  0  0  0  0  0  0
   12.8475  -16.3999   22.4889 C   0  0  0  0  0  0  0  0  0  0  0  0
   14.2648  -16.5171   22.9034 C   0  0  0  0  0  0  0  0  0  0  0  0
   14.9047  -15.4529   23.1204 O   0  0  0  0  0  0  0  0  0  0  0  0
    9.6892  -16.1033   24.5195 C   0  0  0  0  0  0  0  0  0  0  0  0
    9.0177  -14.9081   24.6998 O   0  0  0  0  0  0  0  0  0  0  0  0
   14.9359  -17.7259   23.0691 O   0  0  0  0  0  0  0  0  0  0  0  0
    9.6285  -16.9775   25.4046 O   0  0  0  0  0  0  0  0  0  0  0  0
  2  3  1  0
  2  1  1  6
  3  4  1  0
  5  2  1  0
  5  6  2  0
  7  5  1  0
  8  7  1  0
  9 10  1  0
  9  8  1  0
 10 11  1  0
 11  7  1  0
 11 12  1  1
 12 14  1  0
 13 12  2  0
 14 15  1  0
 15 16  1  1
 16 17  1  0
 17 18  1  0
 18 22  1  0
 18 19  2  0
 20 15  1  0
 20 21  1  0
 23 20  2  0
M  END
$$$$
