CPE.pdb
     RDKit          3D

 23 23  0  0  1  0  0  0  0  0999 V2000
    5.1073  -13.8012   26.1622 N   0  0  0  0  0  0  0  0  0  0  0  0
    6.3364  -13.3872   25.5985 C   0  0  1  0  0  0  0  0  0  0  0  0
    7.1852  -12.5719   26.5741 C   0  0  0  0  0  0  0  0  0  0  0  0
    8.8926  -12.3912   25.9776 S   0  0  0  0  0  0  0  0  0  0  0  0
    7.1215  -14.4007   24.9030 C   0  0  0  0  0  0  0  0  0  0  0  0
    7.6866  -15.2458   25.6997 O   0  0  0  0  0  0  0  0  0  0  0  0
    7.3031  -14.5230   23.4966 N   0  0  0  0  0  0  0  0  0  0  0  0
    6.5403  -13.8753   22.4473 C   0  0  0  0  0  0  0  0  0  0  0  0
    7.6941  -13.3255   21.5879 C   0  0  0  0  0  0  0  0  0  0  0  0
    8.5713  -14.5574   21.5285 C   0  0  0  0  0  0  0  0  0  0  0  0
    8.2840  -15.3315   22.8066 C   0  0  1  0  0  0  0  0  0  0  0  0
    9.5767  -15.5089   23.4700 C   0  0  0  0  0  0  0  0  0  0  0  0
   10.2669  -14.5693   23.8690 O   0  0  0  0  0  0  0  0  0  0  0  0
   10.0934  -16.8181   23.6813 N   0  0  0  0  0  0  0  0  0  0  0  0
   11.4288  -17.0341   24.2573 C   0  0  1  0  0  0  0  0  0  0  0  0
   11.3265  -17.3953   25.7164 C   0  0  0  0  0  0  0  0  0  0  0  0
   10.4610  -18.6193   25.9407 C   0  0  0  0  0  0  0  0  0  0  0  0
   10.4343  -19.0098   27.3695 C   0  0  0  0  0  0  0  0  0  0  0  0
   11.5120  -19.4010   27.8932 O   0  0  0  0  0  0  0  0  0  0  0  0
   12.0965  -18.1669   23.5710 C   0  0  0  0  0  0  0  0  0  0  0  0
   11.3836  -18.9360   22.6698 O   0  0  0  0  0  0  0  0  0  0  0  0
    9.2965  -18.9724   28.1714 O   0  0  0  0  0  0  0  0  0  0  0  0
   13.2918  -18.4374   23.7933 O   0  0  0  0  0  0  0  0  0  0  0  0
  2  3  1  0
  2  1  1  1
  3  4  1  0
  5  2  1  0
  5  6  2  0
  7  5  1  0
  8  7  1  0
  9 10  1  0
  9  8  1  0
 10 11  1  0
 11  7  1  0
 11 12  1  1
 12 14  1  0
 13 12  2  0
 14 15  1  0
 15 16  1  1
 16 17  1  0
 17 18  1  0
 18 22  1  0
 18 19  2  0
 20 15  1  0
 20 21  1  0
 23 20  2  0
M  END
$$$$
