CPE.pdb
     RDKit          3D

 23 23  0  0  1  0  0  0  0  0999 V2000
    7.7799  -17.3357   21.0727 N   0  0  0  0  0  0  0  0  0  0  0  0
    7.1288  -16.8343   22.2237 C   0  0  1  0  0  0  0  0  0  0  0  0
    6.2437  -17.8808   22.9009 C   0  0  0  0  0  0  0  0  0  0  0  0
    5.5775  -17.2671   24.4767 S   0  0  0  0  0  0  0  0  0  0  0  0
    7.9489  -16.1049   23.1844 C   0  0  0  0  0  0  0  0  0  0  0  0
    8.7997  -16.8541   23.8034 O   0  0  0  0  0  0  0  0  0  0  0  0
    7.8872  -14.7132   23.4760 N   0  0  0  0  0  0  0  0  0  0  0  0
    7.1994  -13.6822   22.7235 C   0  0  0  0  0  0  0  0  0  0  0  0
    6.4419  -12.9851   23.8691 C   0  0  0  0  0  0  0  0  0  0  0  0
    7.5659  -12.8633   24.8751 C   0  0  0  0  0  0  0  0  0  0  0  0
    8.5088  -14.0215   24.5836 C   0  0  1  0  0  0  0  0  0  0  0  0
    8.6346  -14.7649   25.8383 C   0  0  0  0  0  0  0  0  0  0  0  0
    7.6784  -15.2870   26.4141 O   0  0  0  0  0  0  0  0  0  0  0  0
    9.9100  -14.9119   26.4526 N   0  0  0  0  0  0  0  0  0  0  0  0
   10.0773  -15.6581   27.7084 C   0  0  1  0  0  0  0  0  0  0  0  0
   11.2249  -16.6284   27.6015 C   0  0  0  0  0  0  0  0  0  0  0  0
   11.4660  -17.3708   28.9008 C   0  0  0  0  0  0  0  0  0  0  0  0
   12.4397  -18.4730   28.7226 C   0  0  0  0  0  0  0  0  0  0  0  0
   12.7437  -19.1594   29.7352 O   0  0  0  0  0  0  0  0  0  0  0  0
   10.3971  -14.7209   28.8127 C   0  0  0  0  0  0  0  0  0  0  0  0
   10.2658  -15.1394   30.1240 O   0  0  0  0  0  0  0  0  0  0  0  0
   13.0404  -18.8000   27.5098 O   0  0  0  0  0  0  0  0  0  0  0  0
   10.7833  -13.5603   28.5779 O   0  0  0  0  0  0  0  0  0  0  0  0
  2  3  1  0
  2  1  1  6
  3  4  1  0
  5  2  1  0
  5  6  2  0
  7  5  1  0
  8  7  1  0
  9 10  1  0
  9  8  1  0
 10 11  1  0
 11  7  1  0
 11 12  1  1
 12 14  1  0
 13 12  2  0
 14 15  1  0
 15 16  1  6
 16 17  1  0
 17 18  1  0
 18 22  1  0
 18 19  2  0
 20 15  1  0
 20 21  1  0
 23 20  2  0
M  END
$$$$
