CPE.pdb
     RDKit          3D

 23 23  0  0  1  0  0  0  0  0999 V2000
    5.5790  -14.0833   26.4992 N   0  0  0  0  0  0  0  0  0  0  0  0
    6.5520  -13.4898   25.6619 C   0  0  1  0  0  0  0  0  0  0  0  0
    7.6208  -12.7315   26.4491 C   0  0  0  0  0  0  0  0  0  0  0  0
    6.9192  -11.2856   27.2979 S   0  0  0  0  0  0  0  0  0  0  0  0
    7.1310  -14.3299   24.6197 C   0  0  0  0  0  0  0  0  0  0  0  0
    7.5940  -15.4507   25.0645 O   0  0  0  0  0  0  0  0  0  0  0  0
    7.2208  -14.0277   23.2317 N   0  0  0  0  0  0  0  0  0  0  0  0
    6.4680  -13.0324   22.4935 C   0  0  0  0  0  0  0  0  0  0  0  0
    7.6206  -12.3354   21.7465 C   0  0  0  0  0  0  0  0  0  0  0  0
    8.3675  -13.5528   21.2462 C   0  0  0  0  0  0  0  0  0  0  0  0
    8.0772  -14.6578   22.2512 C   0  0  1  0  0  0  0  0  0  0  0  0
    9.3812  -15.1291   22.7205 C   0  0  0  0  0  0  0  0  0  0  0  0
   10.1905  -14.4079   23.3065 O   0  0  0  0  0  0  0  0  0  0  0  0
    9.7672  -16.4821   22.5060 N   0  0  0  0  0  0  0  0  0  0  0  0
   11.0348  -17.0124   23.0292 C   0  0  1  0  0  0  0  0  0  0  0  0
   10.8260  -18.3659   23.6573 C   0  0  0  0  0  0  0  0  0  0  0  0
   12.0846  -18.8845   24.3242 C   0  0  0  0  0  0  0  0  0  0  0  0
   11.9801  -18.8237   25.8006 C   0  0  0  0  0  0  0  0  0  0  0  0
   11.0712  -19.4988   26.3548 O   0  0  0  0  0  0  0  0  0  0  0  0
   12.0035  -17.1886   21.9199 C   0  0  0  0  0  0  0  0  0  0  0  0
   13.3494  -16.9668   22.1461 O   0  0  0  0  0  0  0  0  0  0  0  0
   12.8203  -18.0697   26.6157 O   0  0  0  0  0  0  0  0  0  0  0  0
   11.6238  -17.5343   20.7851 O   0  0  0  0  0  0  0  0  0  0  0  0
  2  3  1  0
  2  1  1  1
  3  4  1  0
  5  2  1  0
  5  6  2  0
  7  5  1  0
  8  7  1  0
  9 10  1  0
  9  8  1  0
 10 11  1  0
 11  7  1  0
 11 12  1  1
 12 14  1  0
 13 12  2  0
 14 15  1  0
 15 16  1  6
 16 17  1  0
 17 18  1  0
 18 22  1  0
 18 19  2  0
 20 15  1  0
 20 21  1  0
 23 20  2  0
M  END
$$$$
