CPE.pdb
     RDKit          3D

 23 23  0  0  1  0  0  0  0  0999 V2000
    5.8203  -18.1699   24.8513 N   0  0  0  0  0  0  0  0  0  0  0  0
    6.4556  -16.9188   24.6745 C   0  0  1  0  0  0  0  0  0  0  0  0
    6.8186  -16.2515   26.0012 C   0  0  0  0  0  0  0  0  0  0  0  0
    7.5046  -14.5885   25.7417 S   0  0  0  0  0  0  0  0  0  0  0  0
    7.5516  -16.8618   23.7139 C   0  0  0  0  0  0  0  0  0  0  0  0
    8.5043  -17.6940   23.9749 O   0  0  0  0  0  0  0  0  0  0  0  0
    7.6472  -16.0095   22.5780 N   0  0  0  0  0  0  0  0  0  0  0  0
    6.5872  -15.2353   21.9622 C   0  0  0  0  0  0  0  0  0  0  0  0
    7.2899  -13.8687   21.8574 C   0  0  0  0  0  0  0  0  0  0  0  0
    8.6200  -14.3139   21.2890 C   0  0  0  0  0  0  0  0  0  0  0  0
    8.8241  -15.7389   21.7820 C   0  0  1  0  0  0  0  0  0  0  0  0
   10.1093  -15.7432   22.4827 C   0  0  0  0  0  0  0  0  0  0  0  0
   10.3502  -15.0302   23.4585 O   0  0  0  0  0  0  0  0  0  0  0  0
   11.1561  -16.6009   22.0422 N   0  0  0  0  0  0  0  0  0  0  0  0
   12.4762  -16.5982   22.6896 C   0  0  1  0  0  0  0  0  0  0  0  0
   12.6461  -17.8194   23.5555 C   0  0  0  0  0  0  0  0  0  0  0  0
   11.7174  -17.8018   24.7534 C   0  0  0  0  0  0  0  0  0  0  0  0
   11.8758  -19.0209   25.5800 C   0  0  0  0  0  0  0  0  0  0  0  0
   10.8423  -19.6934   25.8412 O   0  0  0  0  0  0  0  0  0  0  0  0
   13.5428  -16.6394   21.6596 C   0  0  0  0  0  0  0  0  0  0  0  0
   14.7882  -16.1103   21.9438 O   0  0  0  0  0  0  0  0  0  0  0  0
   13.0919  -19.4721   26.0866 O   0  0  0  0  0  0  0  0  0  0  0  0
   13.3347  -17.1444   20.5402 O   0  0  0  0  0  0  0  0  0  0  0  0
  2  3  1  0
  2  1  1  1
  3  4  1  0
  5  2  1  0
  5  6  2  0
  7  5  1  0
  8  7  1  0
  9 10  1  0
  9  8  1  0
 10 11  1  0
 11  7  1  0
 11 12  1  1
 12 14  1  0
 13 12  2  0
 14 15  1  0
 15 16  1  1
 16 17  1  0
 17 18  1  0
 18 22  1  0
 18 19  2  0
 20 15  1  0
 20 21  1  0
 23 20  2  0
M  END
$$$$
