YPM.pdb
     RDKit          3D

 28 29  0  0  1  0  0  0  0  0999 V2000
   21.1545  -15.4217  -17.6169 O   0  0  0  0  0  0  0  0  0  0  0  0
   21.7698  -16.2790  -16.6993 C   0  0  0  0  0  0  0  0  0  0  0  0
   23.0804  -16.1234  -16.3795 C   0  0  0  0  0  0  0  0  0  0  0  0
   23.6805  -16.9847  -15.4667 C   0  0  0  0  0  0  0  0  0  0  0  0
   22.9818  -18.0086  -14.8630 C   0  0  0  0  0  0  0  0  0  0  0  0
   23.5989  -18.9250  -13.8949 C   0  0  0  0  0  0  0  0  0  0  0  0
   24.2634  -20.1129  -14.5733 C   0  0  2  0  0  0  0  0  0  0  0  0
   23.3633  -20.8690  -15.3818 N   0  0  0  0  0  0  0  0  0  0  0  0
   25.0822  -20.9148  -13.6341 C   0  0  0  0  0  0  0  0  0  0  0  0
   24.5048  -21.9435  -13.1334 O   0  0  0  0  0  0  0  0  0  0  0  0
   21.6514  -18.1436  -15.2069 C   0  0  0  0  0  0  0  0  0  0  0  0
   21.0435  -17.2924  -16.1141 C   0  0  0  0  0  0  0  0  0  0  0  0
   26.4248  -20.5892  -13.2895 N   0  0  0  0  0  0  0  0  0  0  0  0
   27.1857  -19.5601  -13.8952 C   0  0  0  0  0  0  0  0  0  0  0  0
   28.5160  -19.5776  -13.1741 C   0  0  0  0  0  0  0  0  0  0  0  0
   28.6073  -21.0308  -12.6614 C   0  0  0  0  0  0  0  0  0  0  0  0
   27.1778  -21.2454  -12.2837 C   0  0  1  0  0  0  0  0  0  0  0  0
   26.8783  -20.7637  -10.9085 C   0  0  0  0  0  0  0  0  0  0  0  0
   26.3872  -19.6176  -10.8012 O   0  0  0  0  0  0  0  0  0  0  0  0
   27.9350  -19.4123   -3.7700 C   0  0  0  0  0  0  0  0  0  0  0  0
   28.2901  -20.1316   -5.3941 S   0  0  0  0  0  0  0  0  0  0  0  0
   27.4054  -19.2831   -6.7011 C   0  0  0  0  0  0  0  0  0  0  0  0
   27.5461  -19.8251   -8.0722 C   0  0  0  0  0  0  0  0  0  0  0  0
   26.7918  -21.0539   -8.3775 C   0  0  2  0  0  0  0  0  0  0  0  0
   27.1148  -21.5168   -9.7484 N   0  0  0  0  0  0  0  0  0  0  0  0
   25.3576  -21.1094   -8.1554 C   0  0  0  0  0  0  0  0  0  0  0  0
   24.5438  -20.1025   -8.7210 O   0  0  0  0  0  0  0  0  0  0  0  0
   24.7574  -21.9628   -7.5097 O   0  0  0  0  0  0  0  0  0  0  0  0
  2  1  1  0
  3  2  2  0
  4  3  1  0
  5 11  1  0
  5  4  2  0
  6  7  1  0
  6  5  1  0
  7  8  1  1
  7  9  1  0
  9 10  2  0
 11 12  2  0
 12  2  1  0
 13  9  1  0
 13 14  1  0
 15 14  1  0
 16 15  1  0
 17 16  1  0
 17 13  1  0
 17 18  1  1
 18 19  2  0
 20 21  1  0
 22 23  1  0
 22 21  1  0
 24 23  1  6
 24 26  1  0
 24 25  1  0
 25 18  1  0
 26 27  1  0
 28 26  2  0
M  END
$$$$
