YPM.pdb
     RDKit          3D

 28 29  0  0  1  0  0  0  0  0999 V2000
   22.0576  -17.2078  -17.7407 O   0  0  0  0  0  0  0  0  0  0  0  0
   22.4636  -17.7546  -16.5193 C   0  0  0  0  0  0  0  0  0  0  0  0
   21.5551  -18.3018  -15.6710 C   0  0  0  0  0  0  0  0  0  0  0  0
   21.9724  -18.8403  -14.4583 C   0  0  0  0  0  0  0  0  0  0  0  0
   23.2979  -18.8399  -14.0783 C   0  0  0  0  0  0  0  0  0  0  0  0
   23.7561  -19.4068  -12.8030 C   0  0  0  0  0  0  0  0  0  0  0  0
   24.3294  -20.8054  -12.9705 C   0  0  2  0  0  0  0  0  0  0  0  0
   23.3605  -21.7566  -13.4090 N   0  0  0  0  0  0  0  0  0  0  0  0
   25.1355  -21.2295  -11.8017 C   0  0  0  0  0  0  0  0  0  0  0  0
   24.4910  -21.8314  -10.8718 O   0  0  0  0  0  0  0  0  0  0  0  0
   24.1993  -18.2769  -14.9598 C   0  0  0  0  0  0  0  0  0  0  0  0
   23.7956  -17.7380  -16.1695 C   0  0  0  0  0  0  0  0  0  0  0  0
   26.5357  -20.9972  -11.6891 N   0  0  0  0  0  0  0  0  0  0  0  0
   27.3141  -20.2885  -12.6362 C   0  0  0  0  0  0  0  0  0  0  0  0
   28.7146  -20.2744  -12.0632 C   0  0  0  0  0  0  0  0  0  0  0  0
   28.7247  -21.5231  -11.1555 C   0  0  0  0  0  0  0  0  0  0  0  0
   27.3382  -21.4350  -10.6058 C   0  0  1  0  0  0  0  0  0  0  0  0
   27.2587  -20.5503   -9.4125 C   0  0  0  0  0  0  0  0  0  0  0  0
   26.9680  -19.3496   -9.6125 O   0  0  0  0  0  0  0  0  0  0  0  0
   26.6142  -20.3566   -1.7100 C   0  0  0  0  0  0  0  0  0  0  0  0
   27.7965  -21.0389   -2.9007 S   0  0  0  0  0  0  0  0  0  0  0  0
   27.8128  -20.1017   -4.4279 C   0  0  0  0  0  0  0  0  0  0  0  0
   27.6570  -20.8640   -5.6881 C   0  0  0  0  0  0  0  0  0  0  0  0
   27.6413  -20.0808   -6.9365 C   0  0  2  0  0  0  0  0  0  0  0  0
   27.4891  -20.9877   -8.0993 N   0  0  0  0  0  0  0  0  0  0  0  0
   28.6781  -19.0985   -7.2001 C   0  0  0  0  0  0  0  0  0  0  0  0
   28.5092  -17.7848   -6.7085 O   0  0  0  0  0  0  0  0  0  0  0  0
   29.7173  -19.2919   -7.8230 O   0  0  0  0  0  0  0  0  0  0  0  0
  2  1  1  0
  3  2  2  0
  4  3  1  0
  5 11  1  0
  5  4  2  0
  6  7  1  0
  6  5  1  0
  7  8  1  1
  7  9  1  0
  9 10  2  0
 11 12  2  0
 12  2  1  0
 13  9  1  0
 13 14  1  0
 15 14  1  0
 16 15  1  0
 17 16  1  0
 17 13  1  0
 17 18  1  1
 18 19  2  0
 20 21  1  0
 22 23  1  0
 22 21  1  0
 24 23  1  1
 24 26  1  0
 24 25  1  0
 25 18  1  0
 26 27  1  0
 28 26  2  0
M  END
$$$$
