YPM.pdb
     RDKit          3D

 28 29  0  0  1  0  0  0  0  0999 V2000
   18.4154  -12.4646  -19.6016 O   0  0  0  0  0  0  0  0  0  0  0  0
   18.4184  -11.5946  -18.5068 C   0  0  0  0  0  0  0  0  0  0  0  0
   17.5711  -11.7929  -17.4642 C   0  0  0  0  0  0  0  0  0  0  0  0
   17.5831  -10.9186  -16.3824 C   0  0  0  0  0  0  0  0  0  0  0  0
   18.4388   -9.8389  -16.3275 C   0  0  0  0  0  0  0  0  0  0  0  0
   18.4668   -8.9076  -15.1918 C   0  0  0  0  0  0  0  0  0  0  0  0
   19.7993   -8.9365  -14.4595 C   0  0  2  0  0  0  0  0  0  0  0  0
   20.1890  -10.2502  -14.0618 N   0  0  0  0  0  0  0  0  0  0  0  0
   19.8800   -7.9119  -13.3922 C   0  0  0  0  0  0  0  0  0  0  0  0
   19.5399   -8.3033  -12.2201 O   0  0  0  0  0  0  0  0  0  0  0  0
   19.2888   -9.6613  -17.4010 C   0  0  0  0  0  0  0  0  0  0  0  0
   19.2857  -10.5250  -18.4832 C   0  0  0  0  0  0  0  0  0  0  0  0
   20.3028   -6.5718  -13.6219 N   0  0  0  0  0  0  0  0  0  0  0  0
   20.9125   -6.1121  -14.8144 C   0  0  0  0  0  0  0  0  0  0  0  0
   21.1387   -4.6319  -14.5955 C   0  0  0  0  0  0  0  0  0  0  0  0
   21.2153   -4.5220  -13.0575 C   0  0  0  0  0  0  0  0  0  0  0  0
   20.1593   -5.5131  -12.6904 C   0  0  1  0  0  0  0  0  0  0  0  0
   18.7988   -4.9116  -12.6802 C   0  0  0  0  0  0  0  0  0  0  0  0
   17.9547   -5.4000  -13.4644 O   0  0  0  0  0  0  0  0  0  0  0  0
   14.1038   -6.8734   -7.6544 C   0  0  0  0  0  0  0  0  0  0  0  0
   15.5881   -6.8631   -8.6926 S   0  0  0  0  0  0  0  0  0  0  0  0
   15.8464   -5.2654   -9.4617 C   0  0  0  0  0  0  0  0  0  0  0  0
   17.0083   -5.1349  -10.3706 C   0  0  0  0  0  0  0  0  0  0  0  0
   17.1914   -3.8273  -11.0255 C   0  0  2  0  0  0  0  0  0  0  0  0
   18.4231   -3.8442  -11.8505 N   0  0  0  0  0  0  0  0  0  0  0  0
   17.1257   -2.6017  -10.2492 C   0  0  0  0  0  0  0  0  0  0  0  0
   15.9931   -1.7690  -10.3900 O   0  0  0  0  0  0  0  0  0  0  0  0
   17.9737   -2.1984   -9.4594 O   0  0  0  0  0  0  0  0  0  0  0  0
  2  1  1  0
  3  2  2  0
  4  3  1  0
  5 11  1  0
  5  4  2  0
  6  7  1  0
  6  5  1  0
  7  8  1  1
  7  9  1  0
  9 10  2  0
 11 12  2  0
 12  2  1  0
 13  9  1  0
 13 14  1  0
 15 14  1  0
 16 15  1  0
 17 16  1  0
 17 13  1  0
 17 18  1  6
 18 19  2  0
 20 21  1  0
 22 23  1  0
 22 21  1  0
 24 23  1  1
 24 26  1  0
 24 25  1  0
 25 18  1  0
 26 27  1  0
 28 26  2  0
M  END
$$$$
