YPM.pdb
     RDKit          3D

 28 29  0  0  1  0  0  0  0  0999 V2000
   19.4479  -17.2251  -16.8567 O   0  0  0  0  0  0  0  0  0  0  0  0
   20.3541  -17.9851  -16.1107 C   0  0  0  0  0  0  0  0  0  0  0  0
   19.9502  -19.1164  -15.4771 C   0  0  0  0  0  0  0  0  0  0  0  0
   20.8617  -19.8619  -14.7366 C   0  0  0  0  0  0  0  0  0  0  0  0
   22.1840  -19.4890  -14.6201 C   0  0  0  0  0  0  0  0  0  0  0  0
   23.1603  -20.2660  -13.8448 C   0  0  0  0  0  0  0  0  0  0  0  0
   24.1355  -21.0162  -14.7386 C   0  0  2  0  0  0  0  0  0  0  0  0
   23.5020  -22.0053  -15.5487 N   0  0  0  0  0  0  0  0  0  0  0  0
   25.3314  -21.4865  -14.0009 C   0  0  0  0  0  0  0  0  0  0  0  0
   25.3441  -22.7323  -13.7008 O   0  0  0  0  0  0  0  0  0  0  0  0
   22.5667  -18.3348  -15.2741 C   0  0  0  0  0  0  0  0  0  0  0  0
   21.6684  -17.5848  -16.0140 C   0  0  0  0  0  0  0  0  0  0  0  0
   26.4116  -20.6345  -13.6340 N   0  0  0  0  0  0  0  0  0  0  0  0
   26.6567  -19.3571  -14.1936 C   0  0  0  0  0  0  0  0  0  0  0  0
   27.8754  -18.8350  -13.4639 C   0  0  0  0  0  0  0  0  0  0  0  0
   28.5810  -20.1301  -13.0077 C   0  0  0  0  0  0  0  0  0  0  0  0
   27.3821  -20.9464  -12.6491 C   0  0  1  0  0  0  0  0  0  0  0  0
   26.9200  -20.6910  -11.2584 C   0  0  0  0  0  0  0  0  0  0  0  0
   25.9559  -19.9063  -11.1141 O   0  0  0  0  0  0  0  0  0  0  0  0
   28.2407  -19.1708   -3.7673 C   0  0  0  0  0  0  0  0  0  0  0  0
   28.8656  -19.4716   -5.4407 S   0  0  0  0  0  0  0  0  0  0  0  0
   27.6313  -20.2549   -6.4770 C   0  0  0  0  0  0  0  0  0  0  0  0
   28.0322  -20.5973   -7.8609 C   0  0  0  0  0  0  0  0  0  0  0  0
   26.9743  -21.1172   -8.7458 C   0  0  2  0  0  0  0  0  0  0  0  0
   27.5008  -21.2755  -10.1226 N   0  0  0  0  0  0  0  0  0  0  0  0
   25.6679  -20.4837   -8.7793 C   0  0  0  0  0  0  0  0  0  0  0  0
   24.5616  -21.1810   -8.2447 O   0  0  0  0  0  0  0  0  0  0  0  0
   25.4129  -19.3736   -9.2356 O   0  0  0  0  0  0  0  0  0  0  0  0
  2  1  1  0
  3  2  2  0
  4  3  1  0
  5 11  1  0
  5  4  2  0
  6  7  1  0
  6  5  1  0
  7  8  1  1
  7  9  1  0
  9 10  2  0
 11 12  2  0
 12  2  1  0
 13  9  1  0
 13 14  1  0
 15 14  1  0
 16 15  1  0
 17 16  1  0
 17 13  1  0
 17 18  1  1
 18 19  2  0
 20 21  1  0
 22 23  1  0
 22 21  1  0
 24 23  1  1
 24 26  1  0
 24 25  1  0
 25 18  1  0
 26 27  1  0
 28 26  2  0
M  END
$$$$
