YPM.pdb
     RDKit          3D

 28 29  0  0  1  0  0  0  0  0999 V2000
   17.9631  -26.2183   -1.7279 O   0  0  0  0  0  0  0  0  0  0  0  0
   18.9861  -27.1619   -1.5913 C   0  0  0  0  0  0  0  0  0  0  0  0
   20.0232  -27.1884   -2.4677 C   0  0  0  0  0  0  0  0  0  0  0  0
   21.0331  -28.1338   -2.3214 C   0  0  0  0  0  0  0  0  0  0  0  0
   21.0209  -29.0613   -1.3013 C   0  0  0  0  0  0  0  0  0  0  0  0
   22.0804  -30.0644   -1.1304 C   0  0  0  0  0  0  0  0  0  0  0  0
   21.6871  -31.4168   -1.7039 C   0  0  2  0  0  0  0  0  0  0  0  0
   20.4611  -31.9141   -1.1699 N   0  0  0  0  0  0  0  0  0  0  0  0
   22.8100  -32.3836   -1.6928 C   0  0  0  0  0  0  0  0  0  0  0  0
   22.8893  -33.1304   -0.6543 O   0  0  0  0  0  0  0  0  0  0  0  0
   19.9546  -29.0113   -0.4255 C   0  0  0  0  0  0  0  0  0  0  0  0
   18.9437  -28.0750   -0.5612 C   0  0  0  0  0  0  0  0  0  0  0  0
   23.7561  -32.4987   -2.7506 N   0  0  0  0  0  0  0  0  0  0  0  0
   23.7310  -31.7331   -3.9415 C   0  0  0  0  0  0  0  0  0  0  0  0
   24.9448  -32.1836   -4.7248 C   0  0  0  0  0  0  0  0  0  0  0  0
   25.1860  -33.6114   -4.1894 C   0  0  0  0  0  0  0  0  0  0  0  0
   24.8592  -33.3889   -2.7487 C   0  0  1  0  0  0  0  0  0  0  0  0
   26.0264  -32.8862   -1.9755 C   0  0  0  0  0  0  0  0  0  0  0  0
   26.1695  -31.6450   -1.9035 O   0  0  0  0  0  0  0  0  0  0  0  0
   26.5650  -31.7849    5.1081 C   0  0  0  0  0  0  0  0  0  0  0  0
   25.8333  -32.0818    3.4780 S   0  0  0  0  0  0  0  0  0  0  0  0
   27.0455  -32.6984    2.3111 C   0  0  0  0  0  0  0  0  0  0  0  0
   26.5877  -32.9267    0.9213 C   0  0  0  0  0  0  0  0  0  0  0  0
   27.6003  -33.4026   -0.0381 C   0  0  2  0  0  0  0  0  0  0  0  0
   26.9566  -33.7193   -1.3355 N   0  0  0  0  0  0  0  0  0  0  0  0
   28.5243  -34.4597    0.3334 C   0  0  0  0  0  0  0  0  0  0  0  0
   28.2928  -35.7656   -0.1534 O   0  0  0  0  0  0  0  0  0  0  0  0
   29.5153  -34.3378    1.0466 O   0  0  0  0  0  0  0  0  0  0  0  0
  2  1  1  0
  3  2  2  0
  4  3  1  0
  5 11  1  0
  5  4  2  0
  6  7  1  0
  6  5  1  0
  7  8  1  1
  7  9  1  0
  9 10  2  0
 11 12  2  0
 12  2  1  0
 13  9  1  0
 13 14  1  0
 15 14  1  0
 16 15  1  0
 17 16  1  0
 17 13  1  0
 17 18  1  1
 18 19  2  0
 20 21  1  0
 22 23  1  0
 22 21  1  0
 24 23  1  1
 24 26  1  0
 24 25  1  0
 25 18  1  0
 26 27  1  0
 28 26  2  0
M  END
$$$$
