DPT.pdb
     RDKit          3D

 23 23  0  0  1  0  0  0  0  0999 V2000
    9.9529  -15.5781   15.0947 N   0  0  0  0  0  0  0  0  0  0  0  0
    8.9453  -15.4227   16.1464 C   0  0  1  0  0  0  0  0  0  0  0  0
    8.2579  -16.7773   16.3405 C   0  0  0  0  0  0  0  0  0  0  0  0
    7.7432  -17.3297   15.0875 C   0  0  0  0  0  0  0  0  0  0  0  0
    7.7891  -18.5522   14.8528 O   0  0  0  0  0  0  0  0  0  0  0  0
    9.5664  -15.0066   17.3994 C   0  0  0  0  0  0  0  0  0  0  0  0
   10.8438  -15.1298   17.4527 O   0  0  0  0  0  0  0  0  0  0  0  0
    7.1954  -16.4748   14.1472 O   0  0  0  0  0  0  0  0  0  0  0  0
    8.9308  -14.4885   18.5451 N   0  0  0  0  0  0  0  0  0  0  0  0
    7.5000  -14.2928   18.6743 C   0  0  0  0  0  0  0  0  0  0  0  0
    7.4698  -12.8557   19.2206 C   0  0  0  0  0  0  0  0  0  0  0  0
    8.6844  -12.8017   20.1010 C   0  0  0  0  0  0  0  0  0  0  0  0
    9.4875  -14.0381   19.7934 C   0  0  1  0  0  0  0  0  0  0  0  0
    9.3914  -15.0618   20.8817 C   0  0  0  0  0  0  0  0  0  0  0  0
    8.2861  -15.6467   21.0289 O   0  0  0  0  0  0  0  0  0  0  0  0
   10.4503  -18.0073   20.5431 C   0  0  0  0  0  0  0  0  0  0  0  0
   11.1780  -17.7366   21.8246 C   0  0  1  0  0  0  0  0  0  0  0  0
   12.4873  -17.3227   21.5670 O   0  0  0  0  0  0  0  0  0  0  0  0
   10.4740  -16.6027   22.5555 C   0  0  2  0  0  0  0  0  0  0  0  0
   10.4519  -15.3974   21.7327 N   0  0  0  0  0  0  0  0  0  0  0  0
   11.0151  -16.3530   23.8911 C   0  0  0  0  0  0  0  0  0  0  0  0
   10.8009  -17.2337   24.9121 O   0  0  0  0  0  0  0  0  0  0  0  0
   11.6984  -15.2947   24.1050 O   0  0  0  0  0  0  0  0  0  0  0  0
  2  1  1  6
  2  3  1  0
  2  6  1  0
  3  4  1  0
  4  5  2  0
  4  8  1  0
  6  7  2  0
  9 13  1  0
  9  6  1  0
 10  9  1  0
 11 10  1  0
 11 12  1  0
 12 13  1  0
 13 14  1  1
 14 15  2  0
 14 20  1  0
 17 16  1  6
 17 18  1  0
 19 17  1  0
 19 20  1  6
 21 22  1  0
 21 19  1  0
 23 21  2  0
M  END
$$$$
