DPT.pdb
     RDKit          3D

 23 23  0  0  1  0  0  0  0  0999 V2000
    9.5296  -16.8124   15.8647 N   0  0  0  0  0  0  0  0  0  0  0  0
    8.5687  -16.3098   16.8494 C   0  0  1  0  0  0  0  0  0  0  0  0
    7.7354  -17.4975   17.3394 C   0  0  0  0  0  0  0  0  0  0  0  0
    7.1571  -18.2688   16.2391 C   0  0  0  0  0  0  0  0  0  0  0  0
    6.2946  -17.7759   15.4875 O   0  0  0  0  0  0  0  0  0  0  0  0
    9.2596  -15.6987   17.9801 C   0  0  0  0  0  0  0  0  0  0  0  0
   10.5154  -15.9547   18.0665 O   0  0  0  0  0  0  0  0  0  0  0  0
    7.5787  -19.5704   16.0321 O   0  0  0  0  0  0  0  0  0  0  0  0
    8.7118  -14.8669   18.9764 N   0  0  0  0  0  0  0  0  0  0  0  0
    7.3458  -14.3808   18.9825 C   0  0  0  0  0  0  0  0  0  0  0  0
    7.5887  -12.8889   19.2652 C   0  0  0  0  0  0  0  0  0  0  0  0
    8.7676  -12.9071   20.1942 C   0  0  0  0  0  0  0  0  0  0  0  0
    9.3159  -14.3093   20.1576 C   0  0  1  0  0  0  0  0  0  0  0  0
    8.9912  -15.0777   21.4008 C   0  0  0  0  0  0  0  0  0  0  0  0
    7.9118  -15.7260   21.4142 O   0  0  0  0  0  0  0  0  0  0  0  0
    9.6851  -17.5780   21.2440 C   0  0  0  0  0  0  0  0  0  0  0  0
   10.5879  -17.4350   22.4313 C   0  0  1  0  0  0  0  0  0  0  0  0
   11.8756  -17.0736   22.0274 O   0  0  0  0  0  0  0  0  0  0  0  0
   10.0552  -16.3189   23.3179 C   0  0  2  0  0  0  0  0  0  0  0  0
    9.8137  -15.1118   22.5340 N   0  0  0  0  0  0  0  0  0  0  0  0
   10.8933  -16.0619   24.4886 C   0  0  0  0  0  0  0  0  0  0  0  0
   10.6752  -16.7168   25.6665 O   0  0  0  0  0  0  0  0  0  0  0  0
   11.8436  -15.2116   24.4071 O   0  0  0  0  0  0  0  0  0  0  0  0
  2  1  1  6
  2  3  1  0
  2  6  1  0
  3  4  1  0
  4  5  2  0
  4  8  1  0
  6  7  2  0
  9 13  1  0
  9  6  1  0
 10  9  1  0
 11 10  1  0
 11 12  1  0
 12 13  1  0
 13 14  1  1
 14 15  2  0
 14 20  1  0
 17 16  1  6
 17 18  1  0
 19 17  1  0
 19 20  1  6
 21 22  1  0
 21 19  1  0
 23 21  2  0
M  END
$$$$
