DPT.pdb
     RDKit          3D

 23 23  0  0  1  0  0  0  0  0999 V2000
    8.5251  -14.5606   20.8193 N   0  0  0  0  0  0  0  0  0  0  0  0
    7.5517  -14.5854   21.9135 C   0  0  1  0  0  0  0  0  0  0  0  0
    6.7907  -15.9119   21.8338 C   0  0  0  0  0  0  0  0  0  0  0  0
    6.3906  -16.2476   20.4673 C   0  0  0  0  0  0  0  0  0  0  0  0
    6.7993  -15.5872   19.4933 O   0  0  0  0  0  0  0  0  0  0  0  0
    8.2235  -14.4850   23.2050 C   0  0  0  0  0  0  0  0  0  0  0  0
    9.4933  -14.6771   23.1857 O   0  0  0  0  0  0  0  0  0  0  0  0
    5.5421  -17.3201   20.2562 O   0  0  0  0  0  0  0  0  0  0  0  0
    7.6436  -14.2023   24.4575 N   0  0  0  0  0  0  0  0  0  0  0  0
    6.2464  -13.8736   24.6616 C   0  0  0  0  0  0  0  0  0  0  0  0
    6.3867  -12.6302   25.5555 C   0  0  0  0  0  0  0  0  0  0  0  0
    7.5890  -12.9501   26.3955 C   0  0  0  0  0  0  0  0  0  0  0  0
    8.2375  -14.1556   25.7675 C   0  0  1  0  0  0  0  0  0  0  0  0
    8.0045  -15.4030   26.5619 C   0  0  0  0  0  0  0  0  0  0  0  0
    6.9232  -16.0182   26.3678 O   0  0  0  0  0  0  0  0  0  0  0  0
    8.6908  -17.5269   25.2183 C   0  0  0  0  0  0  0  0  0  0  0  0
    9.7208  -17.8650   26.2526 C   0  0  1  0  0  0  0  0  0  0  0  0
   10.9380  -17.2485   25.9522 O   0  0  0  0  0  0  0  0  0  0  0  0
    9.2552  -17.3290   27.5985 C   0  0  2  0  0  0  0  0  0  0  0  0
    8.9137  -15.9137   27.4969 N   0  0  0  0  0  0  0  0  0  0  0  0
   10.1986  -17.5958   28.6837 C   0  0  0  0  0  0  0  0  0  0  0  0
   10.2185  -18.8055   29.3162 O   0  0  0  0  0  0  0  0  0  0  0  0
   11.0162  -16.6825   29.0448 O   0  0  0  0  0  0  0  0  0  0  0  0
  2  1  1  6
  2  3  1  0
  2  6  1  0
  3  4  1  0
  4  5  2  0
  4  8  1  0
  6  7  2  0
  9 13  1  0
  9  6  1  0
 10  9  1  0
 11 10  1  0
 11 12  1  0
 12 13  1  0
 13 14  1  1
 14 15  2  0
 14 20  1  0
 17 16  1  6
 17 18  1  0
 19 17  1  0
 19 20  1  6
 21 22  1  0
 21 19  1  0
 23 21  2  0
M  END
$$$$
