DPT.pdb
     RDKit          3D

 23 23  0  0  1  0  0  0  0  0999 V2000
    8.7844  -17.2766   16.5702 N   0  0  0  0  0  0  0  0  0  0  0  0
    7.9659  -16.6832   17.6301 C   0  0  1  0  0  0  0  0  0  0  0  0
    7.1584  -17.8081   18.2839 C   0  0  0  0  0  0  0  0  0  0  0  0
    6.4516  -18.6335   17.3045 C   0  0  0  0  0  0  0  0  0  0  0  0
    5.8028  -18.1192   16.3738 O   0  0  0  0  0  0  0  0  0  0  0  0
    8.8074  -16.0396   18.6335 C   0  0  0  0  0  0  0  0  0  0  0  0
   10.0660  -16.2768   18.5363 O   0  0  0  0  0  0  0  0  0  0  0  0
    6.5073  -20.0116   17.4169 O   0  0  0  0  0  0  0  0  0  0  0  0
    8.4005  -15.1946   19.6849 N   0  0  0  0  0  0  0  0  0  0  0  0
    7.0231  -14.8472   19.9747 C   0  0  0  0  0  0  0  0  0  0  0  0
    7.1516  -13.3218   20.1203 C   0  0  0  0  0  0  0  0  0  0  0  0
    8.4997  -13.1543   20.7591 C   0  0  0  0  0  0  0  0  0  0  0  0
    9.1816  -14.4942   20.6699 C   0  0  1  0  0  0  0  0  0  0  0  0
    9.2260  -15.1968   21.9912 C   0  0  0  0  0  0  0  0  0  0  0  0
    8.1264  -15.5349   22.5031 O   0  0  0  0  0  0  0  0  0  0  0  0
   10.4787  -18.3687   22.3361 C   0  0  0  0  0  0  0  0  0  0  0  0
   11.2270  -17.6765   23.4342 C   0  0  1  0  0  0  0  0  0  0  0  0
   12.4992  -17.2980   22.9978 O   0  0  0  0  0  0  0  0  0  0  0  0
   10.4760  -16.4083   23.8127 C   0  0  2  0  0  0  0  0  0  0  0  0
   10.4102  -15.4929   22.6779 N   0  0  0  0  0  0  0  0  0  0  0  0
   11.0011  -15.7638   25.0159 C   0  0  0  0  0  0  0  0  0  0  0  0
   10.8119  -16.3176   26.2494 O   0  0  0  0  0  0  0  0  0  0  0  0
   11.6464  -14.6660   24.9105 O   0  0  0  0  0  0  0  0  0  0  0  0
  2  1  1  6
  2  3  1  0
  2  6  1  0
  3  4  1  0
  4  5  2  0
  4  8  1  0
  6  7  2  0
  9 13  1  0
  9  6  1  0
 10  9  1  0
 11 10  1  0
 11 12  1  0
 12 13  1  0
 13 14  1  1
 14 15  2  0
 14 20  1  0
 17 16  1  6
 17 18  1  0
 19 17  1  0
 19 20  1  6
 21 22  1  0
 21 19  1  0
 23 21  2  0
M  END
$$$$
