DPT.pdb
     RDKit          3D

 23 23  0  0  1  0  0  0  0  0999 V2000
    8.8761  -15.8051   19.9947 N   0  0  0  0  0  0  0  0  0  0  0  0
    7.9756  -15.5587   21.1234 C   0  0  1  0  0  0  0  0  0  0  0  0
    7.0398  -16.7644   21.2482 C   0  0  0  0  0  0  0  0  0  0  0  0
    6.9975  -17.5701   20.0279 C   0  0  0  0  0  0  0  0  0  0  0  0
    7.2930  -18.7802   20.0416 O   0  0  0  0  0  0  0  0  0  0  0  0
    8.7311  -15.3971   22.3613 C   0  0  0  0  0  0  0  0  0  0  0  0
    9.9928  -15.6213   22.2739 O   0  0  0  0  0  0  0  0  0  0  0  0
    6.6215  -16.9734   18.8374 O   0  0  0  0  0  0  0  0  0  0  0  0
    8.2392  -15.0250   23.6279 N   0  0  0  0  0  0  0  0  0  0  0  0
    6.8471  -14.7439   23.9195 C   0  0  0  0  0  0  0  0  0  0  0  0
    6.9911  -13.4167   24.6827 C   0  0  0  0  0  0  0  0  0  0  0  0
    8.2724  -13.5999   25.4430 C   0  0  0  0  0  0  0  0  0  0  0  0
    8.9329  -14.8276   24.8733 C   0  0  1  0  0  0  0  0  0  0  0  0
    8.8322  -16.0042   25.7936 C   0  0  0  0  0  0  0  0  0  0  0  0
    7.7603  -16.6645   25.7722 O   0  0  0  0  0  0  0  0  0  0  0  0
   11.5497  -19.7123   26.1762 C   0  0  0  0  0  0  0  0  0  0  0  0
   11.1151  -18.3245   25.8152 C   0  0  1  0  0  0  0  0  0  0  0  0
   10.3813  -18.3342   24.6263 O   0  0  0  0  0  0  0  0  0  0  0  0
   10.2025  -17.7978   26.9131 C   0  0  2  0  0  0  0  0  0  0  0  0
    9.8537  -16.4025   26.6651 N   0  0  0  0  0  0  0  0  0  0  0  0
   10.7382  -18.0054   28.2580 C   0  0  0  0  0  0  0  0  0  0  0  0
   10.3810  -19.0970   28.9961 O   0  0  0  0  0  0  0  0  0  0  0  0
   11.5525  -17.1519   28.7491 O   0  0  0  0  0  0  0  0  0  0  0  0
  2  1  1  6
  2  3  1  0
  2  6  1  0
  3  4  1  0
  4  5  2  0
  4  8  1  0
  6  7  2  0
  9 13  1  0
  9  6  1  0
 10  9  1  0
 11 10  1  0
 11 12  1  0
 12 13  1  0
 13 14  1  1
 14 15  2  0
 14 20  1  0
 17 16  1  1
 17 18  1  0
 19 17  1  0
 19 20  1  6
 21 22  1  0
 21 19  1  0
 23 21  2  0
M  END
$$$$
