DPT.pdb
     RDKit          3D

 23 23  0  0  1  0  0  0  0  0999 V2000
    8.2530  -17.5779   16.6111 N   0  0  0  0  0  0  0  0  0  0  0  0
    7.5868  -16.8346   17.6831 C   0  0  1  0  0  0  0  0  0  0  0  0
    6.7755  -17.8342   18.5123 C   0  0  0  0  0  0  0  0  0  0  0  0
    6.0358  -18.7832   17.6802 C   0  0  0  0  0  0  0  0  0  0  0  0
    5.6709  -18.4845   16.5273 O   0  0  0  0  0  0  0  0  0  0  0  0
    8.5661  -16.1723   18.5383 C   0  0  0  0  0  0  0  0  0  0  0  0
    9.7944  -16.4687   18.3073 O   0  0  0  0  0  0  0  0  0  0  0  0
    5.7378  -20.0360   18.1868 O   0  0  0  0  0  0  0  0  0  0  0  0
    8.3201  -15.2525   19.5768 N   0  0  0  0  0  0  0  0  0  0  0  0
    7.0057  -14.7726   19.9562 C   0  0  0  0  0  0  0  0  0  0  0  0
    7.2754  -13.2599   20.0187 C   0  0  0  0  0  0  0  0  0  0  0  0
    8.6805  -13.1872   20.5418 C   0  0  0  0  0  0  0  0  0  0  0  0
    9.2360  -14.5848   20.4636 C   0  0  1  0  0  0  0  0  0  0  0  0
    9.3281  -15.2344   21.8093 C   0  0  0  0  0  0  0  0  0  0  0  0
    8.2604  -15.3597   22.4648 O   0  0  0  0  0  0  0  0  0  0  0  0
   10.0524  -18.5502   22.2995 C   0  0  0  0  0  0  0  0  0  0  0  0
   11.0400  -17.9339   23.2428 C   0  0  1  0  0  0  0  0  0  0  0  0
   12.2976  -17.8371   22.6418 O   0  0  0  0  0  0  0  0  0  0  0  0
   10.5810  -16.5218   23.5760 C   0  0  2  0  0  0  0  0  0  0  0  0
   10.5234  -15.7029   22.3693 N   0  0  0  0  0  0  0  0  0  0  0  0
   11.3691  -15.8937   24.6358 C   0  0  0  0  0  0  0  0  0  0  0  0
   11.2479  -16.2967   25.9346 O   0  0  0  0  0  0  0  0  0  0  0  0
   12.1831  -14.9538   24.3412 O   0  0  0  0  0  0  0  0  0  0  0  0
  2  1  1  6
  2  3  1  0
  2  6  1  0
  3  4  1  0
  4  5  2  0
  4  8  1  0
  6  7  2  0
  9 13  1  0
  9  6  1  0
 10  9  1  0
 11 10  1  0
 11 12  1  0
 12 13  1  0
 13 14  1  1
 14 15  2  0
 14 20  1  0
 17 16  1  6
 17 18  1  0
 19 17  1  0
 19 20  1  6
 21 22  1  0
 21 19  1  0
 23 21  2  0
M  END
$$$$
