WAH.pdb
     RDKit          3D

 30 32  0  0  1  0  0  0  0  0999 V2000
    6.9928  -17.6352   25.0987 N   0  0  0  0  0  0  0  0  0  0  0  0
    7.5230  -17.1546   23.8272 C   0  0  1  0  0  0  0  0  0  0  0  0
    6.9427  -15.8221   23.4931 C   0  0  0  0  0  0  0  0  0  0  0  0
    6.7686  -15.0418   24.7474 C   0  0  0  0  0  0  0  0  0  0  0  0
    6.4502  -15.5454   26.0143 C   0  0  0  0  0  0  0  0  0  0  0  0
    6.3755  -14.5419   26.9018 N   0  0  0  0  0  0  0  0  0  0  0  0
    6.6339  -13.3822   26.2686 C   0  0  0  0  0  0  0  0  0  0  0  0
    6.6921  -12.0661   26.6845 C   0  0  0  0  0  0  0  0  0  0  0  0
    6.9840  -11.0424   25.8214 C   0  0  0  0  0  0  0  0  0  0  0  0
    7.2255  -11.3386   24.5031 C   0  0  0  0  0  0  0  0  0  0  0  0
    7.1716  -12.6443   24.0714 C   0  0  0  0  0  0  0  0  0  0  0  0
    6.8761  -13.6789   24.9468 C   0  0  0  0  0  0  0  0  0  0  0  0
    8.9788  -17.2026   23.9200 C   0  0  0  0  0  0  0  0  0  0  0  0
    9.4788  -18.2036   24.5242 O   0  0  0  0  0  0  0  0  0  0  0  0
   10.6615  -15.4553   21.2771 C   0  0  0  0  0  0  0  0  0  0  0  0
   10.8708  -16.4675   22.4016 C   0  0  2  0  0  0  0  0  0  0  0  0
    9.8761  -16.2562   23.4096 N   0  0  0  0  0  0  0  0  0  0  0  0
   12.2466  -16.4411   22.8838 C   0  0  0  0  0  0  0  0  0  0  0  0
   13.1150  -17.1637   22.3384 O   0  0  0  0  0  0  0  0  0  0  0  0
   12.5914  -15.5978   23.9670 N   0  0  0  0  0  0  0  0  0  0  0  0
   12.7709  -16.0684   25.3267 C   0  0  1  0  0  0  0  0  0  0  0  0
   11.5194  -16.7022   25.8669 C   0  0  0  0  0  0  0  0  0  0  0  0
   10.8851  -15.8745   26.9068 C   0  0  0  0  0  0  0  0  0  0  0  0
   11.3227  -15.7509   28.2129 C   0  0  0  0  0  0  0  0  0  0  0  0
   10.5032  -14.9107   28.8845 N   0  0  0  0  0  0  0  0  0  0  0  0
    9.5556  -14.5057   28.0131 C   0  0  0  0  0  0  0  0  0  0  0  0
    9.7966  -15.0960   26.8170 N   0  0  0  0  0  0  0  0  0  0  0  0
   13.8387  -17.0928   25.3154 C   0  0  0  0  0  0  0  0  0  0  0  0
   13.7610  -18.3204   24.6865 O   0  0  0  0  0  0  0  0  0  0  0  0
   14.9180  -16.8563   25.9206 O   0  0  0  0  0  0  0  0  0  0  0  0
  2  1  1  1
  2  3  1  0
  3  4  1  0
  4  5  2  0
  5  6  1  0
  7  6  1  0
  8  7  2  0
  9  8  1  0
 10 11  1  0
 10  9  2  0
 11 12  2  0
 12  4  1  0
 12  7  1  0
 13  2  1  0
 13 14  2  0
 16 15  1  6
 16 17  1  0
 17 13  1  0
 18 20  1  0
 18 16  1  0
 19 18  2  0
 21 20  1  0
 21 28  1  0
 21 22  1  6
 23 22  1  0
 23 24  2  0
 25 24  1  0
 26 27  2  0
 26 25  1  0
 27 23  1  0
 28 30  2  0
 28 29  1  0
M  END
$$$$
