WAH.pdb
     RDKit          3D

 30 32  0  0  1  0  0  0  0  0999 V2000
    8.2110  -16.3752   20.3124 N   0  0  0  0  0  0  0  0  0  0  0  0
    8.1858  -16.0725   21.7395 C   0  0  1  0  0  0  0  0  0  0  0  0
    6.8717  -16.4589   22.3291 C   0  0  0  0  0  0  0  0  0  0  0  0
    6.8326  -16.0239   23.7510 C   0  0  0  0  0  0  0  0  0  0  0  0
    6.7337  -16.8458   24.8799 C   0  0  0  0  0  0  0  0  0  0  0  0
    6.7255  -16.0973   25.9935 N   0  0  0  0  0  0  0  0  0  0  0  0
    6.8158  -14.7999   25.6453 C   0  0  0  0  0  0  0  0  0  0  0  0
    6.8507  -13.6232   26.3681 C   0  0  0  0  0  0  0  0  0  0  0  0
    6.9494  -12.3987   25.7608 C   0  0  0  0  0  0  0  0  0  0  0  0
    7.0153  -12.3443   24.3909 C   0  0  0  0  0  0  0  0  0  0  0  0
    6.9817  -13.5068   23.6549 C   0  0  0  0  0  0  0  0  0  0  0  0
    6.8819  -14.7451   24.2717 C   0  0  0  0  0  0  0  0  0  0  0  0
    9.3560  -16.7082   22.3368 C   0  0  0  0  0  0  0  0  0  0  0  0
    9.4450  -17.9706   22.2120 O   0  0  0  0  0  0  0  0  0  0  0  0
   12.7403  -15.6465   23.3406 C   0  0  0  0  0  0  0  0  0  0  0  0
   11.6033  -16.6526   23.5081 C   0  0  2  0  0  0  0  0  0  0  0  0
   10.3876  -16.0649   23.0321 N   0  0  0  0  0  0  0  0  0  0  0  0
   11.5453  -17.1580   24.8746 C   0  0  0  0  0  0  0  0  0  0  0  0
   12.5702  -17.6515   25.4035 O   0  0  0  0  0  0  0  0  0  0  0  0
   10.3288  -17.0875   25.5947 N   0  0  0  0  0  0  0  0  0  0  0  0
   10.1688  -17.5722   26.9519 C   0  0  1  0  0  0  0  0  0  0  0  0
    9.4233  -16.5891   27.8106 C   0  0  0  0  0  0  0  0  0  0  0  0
   10.2330  -15.3980   28.1176 C   0  0  0  0  0  0  0  0  0  0  0  0
   11.6088  -15.3115   28.0064 C   0  0  0  0  0  0  0  0  0  0  0  0
   12.0127  -14.0729   28.3688 N   0  0  0  0  0  0  0  0  0  0  0  0
   10.9042  -13.3812   28.7066 C   0  0  0  0  0  0  0  0  0  0  0  0
    9.8308  -14.1939   28.5506 N   0  0  0  0  0  0  0  0  0  0  0  0
    9.3833  -18.8251   26.8969 C   0  0  0  0  0  0  0  0  0  0  0  0
    9.1110  -19.6449   27.9750 O   0  0  0  0  0  0  0  0  0  0  0  0
    8.9119  -19.2022   25.7911 O   0  0  0  0  0  0  0  0  0  0  0  0
  2  1  1  6
  2  3  1  0
  3  4  1  0
  4  5  2  0
  5  6  1  0
  7  6  1  0
  8  7  2  0
  9  8  1  0
 10 11  1  0
 10  9  2  0
 11 12  2  0
 12  4  1  0
 12  7  1  0
 13  2  1  0
 13 14  2  0
 16 15  1  1
 16 17  1  0
 17 13  1  0
 18 20  1  0
 18 16  1  0
 19 18  2  0
 21 20  1  0
 21 28  1  0
 21 22  1  1
 23 22  1  0
 23 24  2  0
 25 24  1  0
 26 27  2  0
 26 25  1  0
 27 23  1  0
 28 30  2  0
 28 29  1  0
M  END
$$$$
