WAH.pdb
     RDKit          3D

 30 32  0  0  1  0  0  0  0  0999 V2000
    9.3549  -15.4973   24.3151 N   0  0  0  0  0  0  0  0  0  0  0  0
    8.5684  -16.7251   24.3668 C   0  0  1  0  0  0  0  0  0  0  0  0
    7.1951  -16.4411   24.8739 C   0  0  0  0  0  0  0  0  0  0  0  0
    7.2933  -15.5679   26.0741 C   0  0  0  0  0  0  0  0  0  0  0  0
    7.3425  -15.9785   27.4115 C   0  0  0  0  0  0  0  0  0  0  0  0
    7.4283  -14.9090   28.2172 N   0  0  0  0  0  0  0  0  0  0  0  0
    7.4379  -13.7952   27.4609 C   0  0  0  0  0  0  0  0  0  0  0  0
    7.5106  -12.4477   27.7563 C   0  0  0  0  0  0  0  0  0  0  0  0
    7.5033  -11.4870   26.7791 C   0  0  0  0  0  0  0  0  0  0  0  0
    7.4210  -11.8805   25.4667 C   0  0  0  0  0  0  0  0  0  0  0  0
    7.3477  -13.2188   25.1542 C   0  0  0  0  0  0  0  0  0  0  0  0
    7.3554  -14.1895   26.1449 C   0  0  0  0  0  0  0  0  0  0  0  0
    8.6375  -17.3387   23.0443 C   0  0  0  0  0  0  0  0  0  0  0  0
    8.2814  -18.5567   22.9616 O   0  0  0  0  0  0  0  0  0  0  0  0
    7.9780  -17.0209   19.7276 C   0  0  0  0  0  0  0  0  0  0  0  0
    9.2107  -17.3293   20.5751 C   0  0  2  0  0  0  0  0  0  0  0  0
    9.0566  -16.7182   21.8608 N   0  0  0  0  0  0  0  0  0  0  0  0
   10.4363  -16.9727   19.8704 C   0  0  0  0  0  0  0  0  0  0  0  0
   10.6929  -17.4931   18.7581 O   0  0  0  0  0  0  0  0  0  0  0  0
   11.3292  -16.0396   20.4495 N   0  0  0  0  0  0  0  0  0  0  0  0
   12.5313  -15.5633   19.7934 C   0  0  1  0  0  0  0  0  0  0  0  0
   12.4667  -14.0875   19.5147 C   0  0  0  0  0  0  0  0  0  0  0  0
   11.2153  -13.7070   18.8379 C   0  0  0  0  0  0  0  0  0  0  0  0
   10.4613  -14.5300   18.0214 C   0  0  0  0  0  0  0  0  0  0  0  0
    9.3803  -13.8520   17.5739 N   0  0  0  0  0  0  0  0  0  0  0  0
    9.4483  -12.6116   18.1013 C   0  0  0  0  0  0  0  0  0  0  0  0
   10.5646  -12.5344   18.8661 N   0  0  0  0  0  0  0  0  0  0  0  0
   13.6730  -15.8116   20.7014 C   0  0  0  0  0  0  0  0  0  0  0  0
   13.5918  -16.4228   21.9377 O   0  0  0  0  0  0  0  0  0  0  0  0
   14.8255  -15.4466   20.3471 O   0  0  0  0  0  0  0  0  0  0  0  0
  2  1  1  6
  2  3  1  0
  3  4  1  0
  4  5  2  0
  5  6  1  0
  7  6  1  0
  8  7  2  0
  9  8  1  0
 10 11  1  0
 10  9  2  0
 11 12  2  0
 12  4  1  0
 12  7  1  0
 13  2  1  0
 13 14  2  0
 16 15  1  6
 16 17  1  0
 17 13  1  0
 18 20  1  0
 18 16  1  0
 19 18  2  0
 21 20  1  0
 21 28  1  0
 21 22  1  1
 23 22  1  0
 23 24  2  0
 25 24  1  0
 26 27  2  0
 26 25  1  0
 27 23  1  0
 28 30  2  0
 28 29  1  0
M  END
$$$$
