WAH.pdb
     RDKit          3D

 30 32  0  0  1  0  0  0  0  0999 V2000
    6.6769  -17.4743   24.1326 N   0  0  0  0  0  0  0  0  0  0  0  0
    7.8495  -16.7048   23.7304 C   0  0  1  0  0  0  0  0  0  0  0  0
    8.5434  -16.1515   24.9287 C   0  0  0  0  0  0  0  0  0  0  0  0
    7.7200  -15.0526   25.5004 C   0  0  0  0  0  0  0  0  0  0  0  0
    6.5510  -15.1845   26.2592 C   0  0  0  0  0  0  0  0  0  0  0  0
    6.0853  -13.9729   26.5994 N   0  0  0  0  0  0  0  0  0  0  0  0
    6.9061  -13.0341   26.0919 C   0  0  0  0  0  0  0  0  0  0  0  0
    6.9087  -11.6533   26.1323 C   0  0  0  0  0  0  0  0  0  0  0  0
    7.8828  -10.9091   25.5196 C   0  0  0  0  0  0  0  0  0  0  0  0
    8.8856  -11.5605   24.8457 C   0  0  0  0  0  0  0  0  0  0  0  0
    8.8985  -12.9357   24.7951 C   0  0  0  0  0  0  0  0  0  0  0  0
    7.9116  -13.6870   25.4161 C   0  0  0  0  0  0  0  0  0  0  0  0
    8.6594  -17.5666   22.8750 C   0  0  0  0  0  0  0  0  0  0  0  0
    9.0831  -18.6480   23.3928 O   0  0  0  0  0  0  0  0  0  0  0  0
    9.6317  -17.8136   19.2671 C   0  0  0  0  0  0  0  0  0  0  0  0
    9.9338  -18.0696   20.7423 C   0  0  2  0  0  0  0  0  0  0  0  0
    9.0142  -17.3190   21.5429 N   0  0  0  0  0  0  0  0  0  0  0  0
   11.3411  -17.8314   21.0401 C   0  0  0  0  0  0  0  0  0  0  0  0
   12.2280  -18.4715   20.4257 O   0  0  0  0  0  0  0  0  0  0  0  0
   11.6955  -16.8771   22.0234 N   0  0  0  0  0  0  0  0  0  0  0  0
   13.0625  -16.4865   22.3086 C   0  0  1  0  0  0  0  0  0  0  0  0
   13.2632  -15.0050   22.1512 C   0  0  0  0  0  0  0  0  0  0  0  0
   13.4641  -14.6209   20.7438 C   0  0  0  0  0  0  0  0  0  0  0  0
   13.5797  -15.4977   19.6805 C   0  0  0  0  0  0  0  0  0  0  0  0
   13.7539  -14.7976   18.5367 N   0  0  0  0  0  0  0  0  0  0  0  0
   13.7488  -13.4902   18.8715 C   0  0  0  0  0  0  0  0  0  0  0  0
   13.5724  -13.3943   20.2119 N   0  0  0  0  0  0  0  0  0  0  0  0
   13.3530  -16.8443   23.7147 C   0  0  0  0  0  0  0  0  0  0  0  0
   14.5761  -16.6969   24.3400 O   0  0  0  0  0  0  0  0  0  0  0  0
   12.4309  -17.3260   24.4252 O   0  0  0  0  0  0  0  0  0  0  0  0
  2  1  1  1
  2  3  1  0
  3  4  1  0
  4  5  2  0
  5  6  1  0
  7  6  1  0
  8  7  2  0
  9  8  1  0
 10 11  1  0
 10  9  2  0
 11 12  2  0
 12  4  1  0
 12  7  1  0
 13  2  1  0
 13 14  2  0
 16 15  1  6
 16 17  1  0
 17 13  1  0
 18 20  1  0
 18 16  1  0
 19 18  2  0
 21 20  1  0
 21 28  1  0
 21 22  1  1
 23 22  1  0
 23 24  2  0
 25 24  1  0
 26 27  2  0
 26 25  1  0
 27 23  1  0
 28 30  2  0
 28 29  1  0
M  END
$$$$
