WAH.pdb
     RDKit          3D

 30 32  0  0  1  0  0  0  0  0999 V2000
    9.9665  -15.9068   21.9959 N   0  0  0  0  0  0  0  0  0  0  0  0
    9.0742  -16.3027   23.0803 C   0  0  1  0  0  0  0  0  0  0  0  0
    7.6740  -15.8883   22.7781 C   0  0  0  0  0  0  0  0  0  0  0  0
    7.5255  -14.4369   23.0683 C   0  0  0  0  0  0  0  0  0  0  0  0
    7.5604  -13.3863   22.1438 C   0  0  0  0  0  0  0  0  0  0  0  0
    7.3920  -12.2140   22.7745 N   0  0  0  0  0  0  0  0  0  0  0  0
    7.2455  -12.4472   24.0924 C   0  0  0  0  0  0  0  0  0  0  0  0
    7.0457  -11.6261   25.1852 C   0  0  0  0  0  0  0  0  0  0  0  0
    6.9246  -12.1232   26.4565 C   0  0  0  0  0  0  0  0  0  0  0  0
    7.0049  -13.4804   26.6454 C   0  0  0  0  0  0  0  0  0  0  0  0
    7.2039  -14.3132   25.5680 C   0  0  0  0  0  0  0  0  0  0  0  0
    7.3260  -13.8079   24.2820 C   0  0  0  0  0  0  0  0  0  0  0  0
    9.2742  -17.7309   23.3049 C   0  0  0  0  0  0  0  0  0  0  0  0
    9.7210  -18.4053   22.3238 O   0  0  0  0  0  0  0  0  0  0  0  0
    8.4569  -20.5924   23.5956 C   0  0  0  0  0  0  0  0  0  0  0  0
    9.1713  -19.8358   24.7137 C   0  0  2  0  0  0  0  0  0  0  0  0
    9.0228  -18.4289   24.4928 N   0  0  0  0  0  0  0  0  0  0  0  0
   10.5489  -20.2907   24.8599 C   0  0  0  0  0  0  0  0  0  0  0  0
   10.7859  -21.4930   25.1286 O   0  0  0  0  0  0  0  0  0  0  0  0
   11.6103  -19.3687   24.6972 N   0  0  0  0  0  0  0  0  0  0  0  0
   13.0113  -19.7398   24.7413 C   0  0  1  0  0  0  0  0  0  0  0  0
   13.8708  -18.7621   23.9895 C   0  0  0  0  0  0  0  0  0  0  0  0
   13.5744  -18.7609   22.5470 C   0  0  0  0  0  0  0  0  0  0  0  0
   13.4771  -19.8841   21.7460 C   0  0  0  0  0  0  0  0  0  0  0  0
   13.1931  -19.5095   20.4781 N   0  0  0  0  0  0  0  0  0  0  0  0
   13.1113  -18.1624   20.4752 C   0  0  0  0  0  0  0  0  0  0  0  0
   13.3441  -17.7188   21.7345 N   0  0  0  0  0  0  0  0  0  0  0  0
   13.4380  -19.7344   26.1582 C   0  0  0  0  0  0  0  0  0  0  0  0
   14.6940  -20.0839   26.6152 O   0  0  0  0  0  0  0  0  0  0  0  0
   12.6111  -19.3889   27.0436 O   0  0  0  0  0  0  0  0  0  0  0  0
  2  1  1  6
  2  3  1  0
  3  4  1  0
  4  5  2  0
  5  6  1  0
  7  6  1  0
  8  7  2  0
  9  8  1  0
 10 11  1  0
 10  9  2  0
 11 12  2  0
 12  4  1  0
 12  7  1  0
 13  2  1  0
 13 14  2  0
 16 15  1  6
 16 17  1  0
 17 13  1  0
 18 20  1  0
 18 16  1  0
 19 18  2  0
 21 20  1  0
 21 28  1  0
 21 22  1  6
 23 22  1  0
 23 24  2  0
 25 24  1  0
 26 27  2  0
 26 25  1  0
 27 23  1  0
 28 30  2  0
 28 29  1  0
M  END
$$$$
