WAH.pdb
     RDKit          3D

 30 32  0  0  1  0  0  0  0  0999 V2000
    7.6818  -18.0471   25.0958 N   0  0  0  0  0  0  0  0  0  0  0  0
    8.3819  -17.0845   24.2519 C   0  0  1  0  0  0  0  0  0  0  0  0
    8.9264  -15.9690   25.0783 C   0  0  0  0  0  0  0  0  0  0  0  0
    7.7938  -15.2095   25.6726 C   0  0  0  0  0  0  0  0  0  0  0  0
    6.6241  -15.7411   26.2285 C   0  0  0  0  0  0  0  0  0  0  0  0
    5.8311  -14.7500   26.6635 N   0  0  0  0  0  0  0  0  0  0  0  0
    6.4333  -13.5716   26.4160 C   0  0  0  0  0  0  0  0  0  0  0  0
    6.0786  -12.2569   26.6486 C   0  0  0  0  0  0  0  0  0  0  0  0
    6.8891  -11.2106   26.2931 C   0  0  0  0  0  0  0  0  0  0  0  0
    8.0904  -11.4821   25.6870 C   0  0  0  0  0  0  0  0  0  0  0  0
    8.4596  -12.7861   25.4475 C   0  0  0  0  0  0  0  0  0  0  0  0
    7.6378  -13.8435   25.8083 C   0  0  0  0  0  0  0  0  0  0  0  0
    9.3653  -17.8288   23.4714 C   0  0  0  0  0  0  0  0  0  0  0  0
   10.0406  -18.7079   24.0945 O   0  0  0  0  0  0  0  0  0  0  0  0
   10.1678  -18.3180   19.8477 C   0  0  0  0  0  0  0  0  0  0  0  0
   10.5649  -18.4232   21.3189 C   0  0  2  0  0  0  0  0  0  0  0  0
    9.6367  -17.6695   22.1067 N   0  0  0  0  0  0  0  0  0  0  0  0
   11.9650  -18.0652   21.5128 C   0  0  0  0  0  0  0  0  0  0  0  0
   12.8624  -18.6964   20.9046 O   0  0  0  0  0  0  0  0  0  0  0  0
   12.3004  -17.0053   22.3887 N   0  0  0  0  0  0  0  0  0  0  0  0
   13.6602  -16.5664   22.6358 C   0  0  1  0  0  0  0  0  0  0  0  0
   13.8459  -15.1125   22.3022 C   0  0  0  0  0  0  0  0  0  0  0  0
   13.8369  -14.8732   20.8492 C   0  0  0  0  0  0  0  0  0  0  0  0
   14.4985  -15.6374   19.9052 C   0  0  0  0  0  0  0  0  0  0  0  0
   14.2682  -15.1295   18.6733 N   0  0  0  0  0  0  0  0  0  0  0  0
   13.4688  -14.0541   18.8346 C   0  0  0  0  0  0  0  0  0  0  0  0
   13.2134  -13.9078   20.1576 N   0  0  0  0  0  0  0  0  0  0  0  0
   13.9412  -16.7484   24.0772 C   0  0  0  0  0  0  0  0  0  0  0  0
   13.0588  -17.2706   25.0031 O   0  0  0  0  0  0  0  0  0  0  0  0
   15.0675  -16.4081   24.5274 O   0  0  0  0  0  0  0  0  0  0  0  0
  2  1  1  1
  2  3  1  0
  3  4  1  0
  4  5  2  0
  5  6  1  0
  7  6  1  0
  8  7  2  0
  9  8  1  0
 10 11  1  0
 10  9  2  0
 11 12  2  0
 12  4  1  0
 12  7  1  0
 13  2  1  0
 13 14  2  0
 16 15  1  6
 16 17  1  0
 17 13  1  0
 18 20  1  0
 18 16  1  0
 19 18  2  0
 21 20  1  0
 21 28  1  0
 21 22  1  1
 23 22  1  0
 23 24  2  0
 25 24  1  0
 26 27  2  0
 26 25  1  0
 27 23  1  0
 28 30  2  0
 28 29  1  0
M  END
$$$$
