WAH.pdb
     RDKit          3D

 30 32  0  0  1  0  0  0  0  0999 V2000
    6.7946  -17.4469   24.0192 N   0  0  0  0  0  0  0  0  0  0  0  0
    7.4545  -16.2540   23.4994 C   0  0  1  0  0  0  0  0  0  0  0  0
    8.2879  -15.6179   24.5600 C   0  0  0  0  0  0  0  0  0  0  0  0
    7.3991  -14.8749   25.4931 C   0  0  0  0  0  0  0  0  0  0  0  0
    6.3703  -15.4079   26.2787 C   0  0  0  0  0  0  0  0  0  0  0  0
    5.7863  -14.4336   26.9930 N   0  0  0  0  0  0  0  0  0  0  0  0
    6.3922  -13.2650   26.7101 C   0  0  0  0  0  0  0  0  0  0  0  0
    6.2045  -11.9682   27.1473 C   0  0  0  0  0  0  0  0  0  0  0  0
    6.9746  -10.9289   26.6947 C   0  0  0  0  0  0  0  0  0  0  0  0
    7.9625  -11.1893   25.7780 C   0  0  0  0  0  0  0  0  0  0  0  0
    8.1633  -12.4755   25.3313 C   0  0  0  0  0  0  0  0  0  0  0  0
    7.3827  -13.5259   25.7909 C   0  0  0  0  0  0  0  0  0  0  0  0
    8.1682  -16.6477   22.2887 C   0  0  0  0  0  0  0  0  0  0  0  0
    8.6523  -17.8234   22.2690 O   0  0  0  0  0  0  0  0  0  0  0  0
    8.7594  -15.1902   18.8674 C   0  0  0  0  0  0  0  0  0  0  0  0
    9.0249  -16.2481   19.9367 C   0  0  2  0  0  0  0  0  0  0  0  0
    8.3710  -15.8587   21.1494 N   0  0  0  0  0  0  0  0  0  0  0  0
   10.4521  -16.5156   20.0690 C   0  0  0  0  0  0  0  0  0  0  0  0
   11.0874  -17.0133   19.1085 O   0  0  0  0  0  0  0  0  0  0  0  0
   11.1105  -16.2108   21.2842 N   0  0  0  0  0  0  0  0  0  0  0  0
   12.5022  -16.5236   21.5450 C   0  0  1  0  0  0  0  0  0  0  0  0
   13.3836  -15.3160   21.3889 C   0  0  0  0  0  0  0  0  0  0  0  0
   13.8009  -15.1131   19.9913 C   0  0  0  0  0  0  0  0  0  0  0  0
   13.4233  -15.8994   18.9180 C   0  0  0  0  0  0  0  0  0  0  0  0
   13.9918  -15.4215   17.7879 N   0  0  0  0  0  0  0  0  0  0  0  0
   14.7227  -14.3433   18.1412 C   0  0  0  0  0  0  0  0  0  0  0  0
   14.5999  -14.1652   19.4791 N   0  0  0  0  0  0  0  0  0  0  0  0
   12.6074  -16.9937   22.9441 C   0  0  0  0  0  0  0  0  0  0  0  0
   11.8770  -16.5022   24.0088 O   0  0  0  0  0  0  0  0  0  0  0  0
   13.4212  -17.9153   23.2190 O   0  0  0  0  0  0  0  0  0  0  0  0
  2  1  1  1
  2  3  1  0
  3  4  1  0
  4  5  2  0
  5  6  1  0
  7  6  1  0
  8  7  2  0
  9  8  1  0
 10 11  1  0
 10  9  2  0
 11 12  2  0
 12  4  1  0
 12  7  1  0
 13  2  1  0
 13 14  2  0
 16 15  1  6
 16 17  1  0
 17 13  1  0
 18 20  1  0
 18 16  1  0
 19 18  2  0
 21 20  1  0
 21 28  1  0
 21 22  1  1
 23 22  1  0
 23 24  2  0
 25 24  1  0
 26 27  2  0
 26 25  1  0
 27 23  1  0
 28 30  2  0
 28 29  1  0
M  END
$$$$
