WAH.pdb
     RDKit          3D

 30 32  0  0  1  0  0  0  0  0999 V2000
    7.4066  -17.8494   24.2761 N   0  0  0  0  0  0  0  0  0  0  0  0
    7.5028  -16.4537   23.8616 C   0  0  1  0  0  0  0  0  0  0  0  0
    8.3124  -15.6754   24.8427 C   0  0  0  0  0  0  0  0  0  0  0  0
    7.3940  -14.9349   25.7488 C   0  0  0  0  0  0  0  0  0  0  0  0
    6.3494  -15.4722   26.5102 C   0  0  0  0  0  0  0  0  0  0  0  0
    5.7395  -14.4992   27.2042 N   0  0  0  0  0  0  0  0  0  0  0  0
    6.3432  -13.3272   26.9310 C   0  0  0  0  0  0  0  0  0  0  0  0
    6.1341  -12.0298   27.3565 C   0  0  0  0  0  0  0  0  0  0  0  0
    6.9074  -10.9866   26.9186 C   0  0  0  0  0  0  0  0  0  0  0  0
    7.9207  -11.2436   26.0292 C   0  0  0  0  0  0  0  0  0  0  0  0
    8.1432  -12.5303   25.5944 C   0  0  0  0  0  0  0  0  0  0  0  0
    7.3592  -13.5847   26.0391 C   0  0  0  0  0  0  0  0  0  0  0  0
    7.9967  -16.4437   22.4882 C   0  0  0  0  0  0  0  0  0  0  0  0
    8.3759  -17.5596   22.0106 O   0  0  0  0  0  0  0  0  0  0  0  0
    8.3169  -13.9120   19.7107 C   0  0  0  0  0  0  0  0  0  0  0  0
    8.5337  -15.3105   20.2853 C   0  0  2  0  0  0  0  0  0  0  0  0
    8.0930  -15.3278   21.6475 N   0  0  0  0  0  0  0  0  0  0  0  0
    9.9067  -15.7565   20.0800 C   0  0  0  0  0  0  0  0  0  0  0  0
   10.3434  -15.9226   18.9158 O   0  0  0  0  0  0  0  0  0  0  0  0
   10.7374  -15.9993   21.1999 N   0  0  0  0  0  0  0  0  0  0  0  0
   12.0452  -16.6193   21.1114 C   0  0  1  0  0  0  0  0  0  0  0  0
   13.1500  -15.6024   21.1815 C   0  0  0  0  0  0  0  0  0  0  0  0
   13.6165  -15.1999   19.8439 C   0  0  0  0  0  0  0  0  0  0  0  0
   13.1707  -15.7267   18.6455 C   0  0  0  0  0  0  0  0  0  0  0  0
   13.8143  -15.1227   17.6211 N   0  0  0  0  0  0  0  0  0  0  0  0
   14.6598  -14.2220   18.1645 C   0  0  0  0  0  0  0  0  0  0  0  0
   14.5318  -14.2770   19.5127 N   0  0  0  0  0  0  0  0  0  0  0  0
   12.1907  -17.5385   22.2618 C   0  0  0  0  0  0  0  0  0  0  0  0
   13.2938  -18.3301   22.5170 O   0  0  0  0  0  0  0  0  0  0  0  0
   11.2488  -17.6298   23.0934 O   0  0  0  0  0  0  0  0  0  0  0  0
  2  1  1  1
  2  3  1  0
  3  4  1  0
  4  5  2  0
  5  6  1  0
  7  6  1  0
  8  7  2  0
  9  8  1  0
 10 11  1  0
 10  9  2  0
 11 12  2  0
 12  4  1  0
 12  7  1  0
 13  2  1  0
 13 14  2  0
 16 15  1  1
 16 17  1  0
 17 13  1  0
 18 20  1  0
 18 16  1  0
 19 18  2  0
 21 20  1  0
 21 28  1  0
 21 22  1  1
 23 22  1  0
 23 24  2  0
 25 24  1  0
 26 27  2  0
 26 25  1  0
 27 23  1  0
 28 30  2  0
 28 29  1  0
M  END
$$$$
