NMN.pdb
     RDKit          3D

 25 24  0  0  1  0  0  0  0  0999 V2000
   20.1511  -20.7965  -17.1132 N   0  0  0  0  0  0  0  0  0  0  0  0
   19.6727  -19.6205  -17.7384 C   0  0  0  0  0  0  0  0  0  0  0  0
   18.8702  -19.6854  -18.7318 O   0  0  0  0  0  0  0  0  0  0  0  0
   20.1104  -18.2883  -17.2319 C   0  0  0  0  0  0  0  0  0  0  0  0
   21.1679  -18.4547  -16.1317 C   0  0  2  0  0  0  0  0  0  0  0  0
   20.5280  -18.7258  -14.8704 N   0  0  0  0  0  0  0  0  0  0  0  0
   21.8968  -17.1567  -16.0492 C   0  0  0  0  0  0  0  0  0  0  0  0
   21.3856  -16.2206  -15.3812 O   0  0  0  0  0  0  0  0  0  0  0  0
   27.6720  -12.8126  -15.1463 C   0  0  0  0  0  0  0  0  0  0  0  0
   26.8383  -14.3997  -15.2038 S   0  0  0  0  0  0  0  0  0  0  0  0
   26.1502  -14.6609  -16.8862 C   0  0  0  0  0  0  0  0  0  0  0  0
   25.3219  -15.9036  -16.8234 C   0  0  0  0  0  0  0  0  0  0  0  0
   23.8445  -15.6733  -16.6914 C   0  0  2  0  0  0  0  0  0  0  0  0
   23.1311  -16.9164  -16.6788 N   0  0  0  0  0  0  0  0  0  0  0  0
   23.3031  -14.6650  -17.6377 C   0  0  0  0  0  0  0  0  0  0  0  0
   22.8318  -15.1236  -18.7103 O   0  0  0  0  0  0  0  0  0  0  0  0
   19.4421  -10.7556  -18.8714 N   0  0  0  0  0  0  0  0  0  0  0  0
   20.8351  -10.8693  -18.7904 C   0  0  0  0  0  0  0  0  0  0  0  0
   21.5520  -10.1408  -19.5667 O   0  0  0  0  0  0  0  0  0  0  0  0
   21.4660  -11.7960  -17.8394 C   0  0  0  0  0  0  0  0  0  0  0  0
   22.7641  -12.3211  -18.3478 C   0  0  2  0  0  0  0  0  0  0  0  0
   23.2951  -13.2918  -17.4024 N   0  0  0  0  0  0  0  0  0  0  0  0
   23.7649  -11.2307  -18.4617 C   0  0  0  0  0  0  0  0  0  0  0  0
   23.9232  -10.3315  -17.3967 O   0  0  0  0  0  0  0  0  0  0  0  0
   24.5071  -11.0326  -19.4533 O   0  0  0  0  0  0  0  0  0  0  0  0
  1  2  1  0
  2  3  2  0
  4  2  1  0
  5  4  1  0
  5  6  1  1
  7  8  2  0
  7  5  1  0
  9 10  1  0
 10 11  1  0
 11 12  1  0
 13 12  1  6
 13 14  1  0
 14  7  1  0
 15 13  1  0
 15 22  1  0
 16 15  2  0
 18 17  1  0
 18 20  1  0
 19 18  2  0
 21 22  1  0
 21 20  1  1
 23 21  1  0
 24 23  1  0
 25 23  2  0
M  END
$$$$
