NMN.pdb
     RDKit          3D

 25 24  0  0  1  0  0  0  0  0999 V2000
   18.0130  -15.7499  -19.1971 N   0  0  0  0  0  0  0  0  0  0  0  0
   17.3317  -14.5868  -18.7665 C   0  0  0  0  0  0  0  0  0  0  0  0
   16.1431  -14.3366  -19.1663 O   0  0  0  0  0  0  0  0  0  0  0  0
   18.0088  -13.6404  -17.8345 C   0  0  0  0  0  0  0  0  0  0  0  0
   19.4194  -14.1413  -17.4941 C   0  0  2  0  0  0  0  0  0  0  0  0
   19.3385  -15.3561  -16.7250 N   0  0  0  0  0  0  0  0  0  0  0  0
   20.0572  -13.0745  -16.6706 C   0  0  0  0  0  0  0  0  0  0  0  0
   19.6232  -12.8721  -15.5067 O   0  0  0  0  0  0  0  0  0  0  0  0
   26.9405   -9.9081  -14.9698 C   0  0  0  0  0  0  0  0  0  0  0  0
   25.8685  -11.1309  -15.7265 S   0  0  0  0  0  0  0  0  0  0  0  0
   24.1320  -10.5371  -15.6597 C   0  0  0  0  0  0  0  0  0  0  0  0
   23.2905  -11.5984  -16.2920 C   0  0  0  0  0  0  0  0  0  0  0  0
   21.8230  -11.2889  -16.3540 C   0  0  2  0  0  0  0  0  0  0  0  0
   21.1231  -12.2761  -17.1223 N   0  0  0  0  0  0  0  0  0  0  0  0
   21.5166   -9.8862  -16.7332 C   0  0  0  0  0  0  0  0  0  0  0  0
   21.7438   -9.5850  -17.9334 O   0  0  0  0  0  0  0  0  0  0  0  0
   19.9093   -4.9707  -16.7782 N   0  0  0  0  0  0  0  0  0  0  0  0
   19.2475   -5.6537  -15.7508 C   0  0  0  0  0  0  0  0  0  0  0  0
   18.3650   -5.0200  -15.0677 O   0  0  0  0  0  0  0  0  0  0  0  0
   19.5501   -7.0627  -15.4598 C   0  0  0  0  0  0  0  0  0  0  0  0
   20.7080   -7.5614  -16.2534 C   0  0  2  0  0  0  0  0  0  0  0  0
   21.0117   -8.9282  -15.8565 N   0  0  0  0  0  0  0  0  0  0  0  0
   21.9207   -6.7490  -15.9831 C   0  0  0  0  0  0  0  0  0  0  0  0
   22.0750   -5.5126  -16.6274 O   0  0  0  0  0  0  0  0  0  0  0  0
   22.8499   -7.0753  -15.2062 O   0  0  0  0  0  0  0  0  0  0  0  0
  1  2  1  0
  2  3  2  0
  4  2  1  0
  5  4  1  0
  5  6  1  1
  7  8  2  0
  7  5  1  0
  9 10  1  0
 10 11  1  0
 11 12  1  0
 13 12  1  6
 13 14  1  0
 14  7  1  0
 15 13  1  0
 15 22  1  0
 16 15  2  0
 18 17  1  0
 18 20  1  0
 19 18  2  0
 21 22  1  0
 21 20  1  1
 23 21  1  0
 24 23  1  0
 25 23  2  0
M  END
$$$$
