NMN.pdb
     RDKit          3D

 25 24  0  0  1  0  0  0  0  0999 V2000
   15.6154   -8.5761  -20.6668 N   0  0  0  0  0  0  0  0  0  0  0  0
   15.9612   -9.5002  -19.6523 C   0  0  0  0  0  0  0  0  0  0  0  0
   15.5900  -10.7218  -19.7231 O   0  0  0  0  0  0  0  0  0  0  0  0
   16.7689   -9.0431  -18.4855 C   0  0  0  0  0  0  0  0  0  0  0  0
   17.6351  -10.1922  -17.9508 C   0  0  2  0  0  0  0  0  0  0  0  0
   16.8057  -11.1719  -17.2981 N   0  0  0  0  0  0  0  0  0  0  0  0
   18.5666   -9.5886  -16.9553 C   0  0  0  0  0  0  0  0  0  0  0  0
   18.0867   -9.1101  -15.8947 O   0  0  0  0  0  0  0  0  0  0  0  0
   23.6279  -11.8590  -13.9943 C   0  0  0  0  0  0  0  0  0  0  0  0
   23.0183  -10.1864  -13.7753 S   0  0  0  0  0  0  0  0  0  0  0  0
   23.2647   -9.2440  -15.3321 C   0  0  0  0  0  0  0  0  0  0  0  0
   22.2174   -9.7143  -16.2892 C   0  0  0  0  0  0  0  0  0  0  0  0
   20.9066   -8.9884  -16.1997 C   0  0  2  0  0  0  0  0  0  0  0  0
   19.9600   -9.5228  -17.1339 N   0  0  0  0  0  0  0  0  0  0  0  0
   21.0316   -7.5090  -16.2316 C   0  0  0  0  0  0  0  0  0  0  0  0
   21.2663   -7.0072  -17.3612 O   0  0  0  0  0  0  0  0  0  0  0  0
   21.0632   -2.4859  -14.9901 N   0  0  0  0  0  0  0  0  0  0  0  0
   19.9193   -3.1479  -14.5282 C   0  0  0  0  0  0  0  0  0  0  0  0
   18.9675   -2.4449  -14.0312 O   0  0  0  0  0  0  0  0  0  0  0  0
   19.8050   -4.6112  -14.6111 C   0  0  0  0  0  0  0  0  0  0  0  0
   21.0362   -5.2376  -15.1689 C   0  0  2  0  0  0  0  0  0  0  0  0
   20.9075   -6.6862  -15.1142 N   0  0  0  0  0  0  0  0  0  0  0  0
   22.2255   -4.8743  -14.3583 C   0  0  0  0  0  0  0  0  0  0  0  0
   22.3758   -5.4249  -13.0769 O   0  0  0  0  0  0  0  0  0  0  0  0
   23.1388   -4.0965  -14.7247 O   0  0  0  0  0  0  0  0  0  0  0  0
  1  2  1  0
  2  3  2  0
  4  2  1  0
  5  4  1  0
  5  6  1  1
  7  8  2  0
  7  5  1  0
  9 10  1  0
 10 11  1  0
 11 12  1  0
 13 12  1  6
 13 14  1  0
 14  7  1  0
 15 13  1  0
 15 22  1  0
 16 15  2  0
 18 17  1  0
 18 20  1  0
 19 18  2  0
 21 22  1  0
 21 20  1  1
 23 21  1  0
 24 23  1  0
 25 23  2  0
M  END
$$$$
