NMN.pdb
     RDKit          3D

 25 24  0  0  1  0  0  0  0  0999 V2000
   28.0058  -19.3510  -16.0114 N   0  0  0  0  0  0  0  0  0  0  0  0
   27.6211  -17.9991  -16.1757 C   0  0  0  0  0  0  0  0  0  0  0  0
   28.4936  -17.0643  -16.1782 O   0  0  0  0  0  0  0  0  0  0  0  0
   26.1795  -17.6604  -16.3480 C   0  0  0  0  0  0  0  0  0  0  0  0
   25.3042  -18.8928  -16.0804 C   0  0  2  0  0  0  0  0  0  0  0  0
   25.6153  -19.9329  -17.0265 N   0  0  0  0  0  0  0  0  0  0  0  0
   23.8918  -18.4550  -16.2712 C   0  0  0  0  0  0  0  0  0  0  0  0
   23.4808  -18.2406  -17.4413 O   0  0  0  0  0  0  0  0  0  0  0  0
   16.8398  -18.9998  -15.9446 C   0  0  0  0  0  0  0  0  0  0  0  0
   18.5735  -19.4015  -15.7210 S   0  0  0  0  0  0  0  0  0  0  0  0
   19.2910  -18.2949  -14.4431 C   0  0  0  0  0  0  0  0  0  0  0  0
   20.7485  -18.6170  -14.3652 C   0  0  0  0  0  0  0  0  0  0  0  0
   21.6149  -17.8670  -15.3347 C   0  0  2  0  0  0  0  0  0  0  0  0
   22.9860  -18.2666  -15.2121 N   0  0  0  0  0  0  0  0  0  0  0  0
   21.4012  -16.3975  -15.3247 C   0  0  0  0  0  0  0  0  0  0  0  0
   21.6672  -15.8164  -14.2409 O   0  0  0  0  0  0  0  0  0  0  0  0
   20.3956  -11.4948  -16.5730 N   0  0  0  0  0  0  0  0  0  0  0  0
   20.4465  -12.2299  -17.7634 C   0  0  0  0  0  0  0  0  0  0  0  0
   20.2955  -11.6034  -18.8733 O   0  0  0  0  0  0  0  0  0  0  0  0
   20.6701  -13.6829  -17.7480 C   0  0  0  0  0  0  0  0  0  0  0  0
   20.6771  -14.2329  -16.3636 C   0  0  2  0  0  0  0  0  0  0  0  0
   20.9373  -15.6639  -16.4146 N   0  0  0  0  0  0  0  0  0  0  0  0
   19.3521  -14.0532  -15.7188 C   0  0  0  0  0  0  0  0  0  0  0  0
   19.1660  -12.9938  -14.8185 O   0  0  0  0  0  0  0  0  0  0  0  0
   18.3505  -14.7834  -15.9113 O   0  0  0  0  0  0  0  0  0  0  0  0
  1  2  1  0
  2  3  2  0
  4  2  1  0
  5  4  1  0
  5  6  1  6
  7  8  2  0
  7  5  1  0
  9 10  1  0
 10 11  1  0
 11 12  1  0
 13 12  1  1
 13 14  1  0
 14  7  1  0
 15 13  1  0
 15 22  1  0
 16 15  2  0
 18 17  1  0
 18 20  1  0
 19 18  2  0
 21 22  1  0
 21 20  1  6
 23 21  1  0
 24 23  1  0
 25 23  2  0
M  END
$$$$
