NMN.pdb
     RDKit          3D

 25 24  0  0  1  0  0  0  0  0999 V2000
   23.5846  -18.9018  -15.6304 N   0  0  0  0  0  0  0  0  0  0  0  0
   23.9962  -17.9470  -16.5904 C   0  0  0  0  0  0  0  0  0  0  0  0
   24.0009  -18.2302  -17.8373 O   0  0  0  0  0  0  0  0  0  0  0  0
   24.4300  -16.5930  -16.1419 C   0  0  0  0  0  0  0  0  0  0  0  0
   25.6989  -16.1619  -16.8906 C   0  0  2  0  0  0  0  0  0  0  0  0
   26.7675  -17.0896  -16.6238 N   0  0  0  0  0  0  0  0  0  0  0  0
   26.0648  -14.8178  -16.3589 C   0  0  0  0  0  0  0  0  0  0  0  0
   26.8052  -14.7533  -15.3433 O   0  0  0  0  0  0  0  0  0  0  0  0
   30.3688   -8.9843  -17.4427 C   0  0  0  0  0  0  0  0  0  0  0  0
   29.6409  -10.5989  -17.7260 S   0  0  0  0  0  0  0  0  0  0  0  0
   28.0115  -10.6841  -16.8833 C   0  0  0  0  0  0  0  0  0  0  0  0
   27.4546  -12.0431  -17.1612 C   0  0  0  0  0  0  0  0  0  0  0  0
   26.0906  -12.2973  -16.5884 C   0  0  2  0  0  0  0  0  0  0  0  0
   25.6275  -13.6098  -16.9308 N   0  0  0  0  0  0  0  0  0  0  0  0
   25.1117  -11.2127  -16.8544 C   0  0  0  0  0  0  0  0  0  0  0  0
   24.7787  -11.0637  -18.0585 O   0  0  0  0  0  0  0  0  0  0  0  0
   21.9137   -6.7207  -14.2462 N   0  0  0  0  0  0  0  0  0  0  0  0
   21.9808   -7.8242  -15.1051 C   0  0  0  0  0  0  0  0  0  0  0  0
   21.1639   -7.8775  -16.0935 O   0  0  0  0  0  0  0  0  0  0  0  0
   22.9626   -8.8964  -14.8864 C   0  0  0  0  0  0  0  0  0  0  0  0
   23.6087   -9.3305  -16.1565 C   0  0  2  0  0  0  0  0  0  0  0  0
   24.5693  -10.3863  -15.8726 N   0  0  0  0  0  0  0  0  0  0  0  0
   24.3618   -8.2101  -16.7741 C   0  0  0  0  0  0  0  0  0  0  0  0
   25.6530   -7.9152  -16.3121 O   0  0  0  0  0  0  0  0  0  0  0  0
   23.9377   -7.4796  -17.7014 O   0  0  0  0  0  0  0  0  0  0  0  0
  1  2  1  0
  2  3  2  0
  4  2  1  0
  5  4  1  0
  5  6  1  1
  7  8  2  0
  7  5  1  0
  9 10  1  0
 10 11  1  0
 11 12  1  0
 13 12  1  6
 13 14  1  0
 14  7  1  0
 15 13  1  0
 15 22  1  0
 16 15  2  0
 18 17  1  0
 18 20  1  0
 19 18  2  0
 21 22  1  0
 21 20  1  1
 23 21  1  0
 24 23  1  0
 25 23  2  0
M  END
$$$$
