NMN.pdb
     RDKit          3D

 25 24  0  0  1  0  0  0  0  0999 V2000
   14.6614  -10.0001  -17.1263 N   0  0  0  0  0  0  0  0  0  0  0  0
   15.9146  -10.6519  -17.2114 C   0  0  0  0  0  0  0  0  0  0  0  0
   16.0521  -11.7231  -17.8960 O   0  0  0  0  0  0  0  0  0  0  0  0
   17.0902  -10.0820  -16.4931 C   0  0  0  0  0  0  0  0  0  0  0  0
   18.0952  -11.1897  -16.1474 C   0  0  2  0  0  0  0  0  0  0  0  0
   17.5207  -12.0931  -15.1843 N   0  0  0  0  0  0  0  0  0  0  0  0
   19.2789  -10.5111  -15.5463 C   0  0  0  0  0  0  0  0  0  0  0  0
   19.1679  -10.0143  -14.3953 O   0  0  0  0  0  0  0  0  0  0  0  0
   27.0579  -10.6551  -15.0615 C   0  0  0  0  0  0  0  0  0  0  0  0
   25.5297  -11.1703  -15.8465 S   0  0  0  0  0  0  0  0  0  0  0  0
   24.1820  -10.0221  -15.3587 C   0  0  0  0  0  0  0  0  0  0  0  0
   22.9163  -10.5799  -15.9252 C   0  0  0  0  0  0  0  0  0  0  0  0
   21.6903   -9.7521  -15.6707 C   0  0  2  0  0  0  0  0  0  0  0  0
   20.5208  -10.3934  -16.1955 N   0  0  0  0  0  0  0  0  0  0  0  0
   21.8333   -8.3255  -16.0578 C   0  0  0  0  0  0  0  0  0  0  0  0
   21.7474   -8.0848  -17.2896 O   0  0  0  0  0  0  0  0  0  0  0  0
   19.1498   -3.5499  -16.1070 N   0  0  0  0  0  0  0  0  0  0  0  0
   20.3468   -4.2166  -16.3947 C   0  0  0  0  0  0  0  0  0  0  0  0
   21.2750   -3.5686  -16.9994 O   0  0  0  0  0  0  0  0  0  0  0  0
   20.5419   -5.6228  -16.0128 C   0  0  0  0  0  0  0  0  0  0  0  0
   21.9206   -5.8797  -15.5106 C   0  0  2  0  0  0  0  0  0  0  0  0
   22.0508   -7.2854  -15.1566 N   0  0  0  0  0  0  0  0  0  0  0  0
   22.1880   -5.0935  -14.2801 C   0  0  0  0  0  0  0  0  0  0  0  0
   22.2862   -5.7592  -13.0493 O   0  0  0  0  0  0  0  0  0  0  0  0
   22.3404   -3.8492  -14.2373 O   0  0  0  0  0  0  0  0  0  0  0  0
  1  2  1  0
  2  3  2  0
  4  2  1  0
  5  4  1  0
  5  6  1  1
  7  8  2  0
  7  5  1  0
  9 10  1  0
 10 11  1  0
 11 12  1  0
 13 12  1  6
 13 14  1  0
 14  7  1  0
 15 13  1  0
 15 22  1  0
 16 15  2  0
 18 17  1  0
 18 20  1  0
 19 18  2  0
 21 22  1  0
 21 20  1  1
 23 21  1  0
 24 23  1  0
 25 23  2  0
M  END
$$$$
