NMN.pdb
     RDKit          3D

 25 24  0  0  1  0  0  0  0  0999 V2000
   19.5314  -21.2593  -14.9279 N   0  0  0  0  0  0  0  0  0  0  0  0
   19.5146  -20.3043  -13.8837 C   0  0  0  0  0  0  0  0  0  0  0  0
   18.4142  -19.7939  -13.4789 O   0  0  0  0  0  0  0  0  0  0  0  0
   20.7968  -19.8878  -13.2473 C   0  0  0  0  0  0  0  0  0  0  0  0
   21.9671  -20.7002  -13.8192 C   0  0  2  0  0  0  0  0  0  0  0  0
   21.7897  -22.0975  -13.5197 N   0  0  0  0  0  0  0  0  0  0  0  0
   23.1972  -20.2000  -13.1412 C   0  0  0  0  0  0  0  0  0  0  0  0
   23.5052  -18.9866  -13.2710 O   0  0  0  0  0  0  0  0  0  0  0  0
   25.6023  -19.3845   -7.4128 C   0  0  0  0  0  0  0  0  0  0  0  0
   26.5588  -20.7997   -7.9600 S   0  0  0  0  0  0  0  0  0  0  0  0
   26.7783  -20.7138   -9.7813 C   0  0  0  0  0  0  0  0  0  0  0  0
   25.4391  -20.9825  -10.3885 C   0  0  0  0  0  0  0  0  0  0  0  0
   25.3264  -20.6449  -11.8467 C   0  0  2  0  0  0  0  0  0  0  0  0
   24.0390  -21.0113  -12.3595 N   0  0  0  0  0  0  0  0  0  0  0  0
   26.4705  -21.1179  -12.6668 C   0  0  0  0  0  0  0  0  0  0  0  0
   26.8038  -22.3187  -12.4944 O   0  0  0  0  0  0  0  0  0  0  0  0
   26.1950  -21.2652  -18.0235 N   0  0  0  0  0  0  0  0  0  0  0  0
   26.6298  -21.9520  -16.8837 C   0  0  0  0  0  0  0  0  0  0  0  0
   27.2984  -23.0359  -17.0434 O   0  0  0  0  0  0  0  0  0  0  0  0
   26.3334  -21.4468  -15.5353 C   0  0  0  0  0  0  0  0  0  0  0  0
   27.5083  -20.7660  -14.9225 C   0  0  2  0  0  0  0  0  0  0  0  0
   27.1635  -20.3250  -13.5791 N   0  0  0  0  0  0  0  0  0  0  0  0
   27.8787  -19.5553  -15.6974 C   0  0  0  0  0  0  0  0  0  0  0  0
   29.1024  -19.5279  -16.3827 O   0  0  0  0  0  0  0  0  0  0  0  0
   27.1761  -18.5213  -15.8008 O   0  0  0  0  0  0  0  0  0  0  0  0
  1  2  1  0
  2  3  2  0
  4  2  1  0
  5  4  1  0
  5  6  1  1
  7  8  2  0
  7  5  1  0
  9 10  1  0
 10 11  1  0
 11 12  1  0
 13 12  1  1
 13 14  1  0
 14  7  1  0
 15 13  1  0
 15 22  1  0
 16 15  2  0
 18 17  1  0
 18 20  1  0
 19 18  2  0
 21 22  1  0
 21 20  1  6
 23 21  1  0
 24 23  1  0
 25 23  2  0
M  END
$$$$
