MDP.pdb
     RDKit          3D

 24 24  0  0  1  0  0  0  0  0999 V2000
    7.5655  -11.2392   19.7368 C   0  0  0  0  0  0  0  0  0  0  0  0
    8.3383  -12.8773   19.5881 S   0  0  0  0  0  0  0  0  0  0  0  0
    7.0069  -14.1061   19.6495 C   0  0  0  0  0  0  0  0  0  0  0  0
    7.5739  -15.5140   19.6114 C   0  0  0  0  0  0  0  0  0  0  0  0
    8.6368  -15.6244   20.6795 C   0  0  2  0  0  0  0  0  0  0  0  0
    9.2876  -16.8956   20.5257 N   0  0  0  0  0  0  0  0  0  0  0  0
    8.0258  -15.4840   22.0300 C   0  0  0  0  0  0  0  0  0  0  0  0
    7.3332  -14.4851   22.2605 O   0  0  0  0  0  0  0  0  0  0  0  0
    8.2665  -16.4940   22.9772 N   0  0  0  0  0  0  0  0  0  0  0  0
    7.7820  -16.5349   24.3147 C   0  0  1  0  0  0  0  0  0  0  0  0
    7.4426  -17.9331   24.8243 C   0  0  0  0  0  0  0  0  0  0  0  0
    7.2080  -17.9696   26.2807 C   0  0  0  0  0  0  0  0  0  0  0  0
    8.0586  -17.9208   27.1801 O   0  0  0  0  0  0  0  0  0  0  0  0
    8.5694  -15.7363   25.2543 C   0  0  0  0  0  0  0  0  0  0  0  0
    9.8361  -15.9672   25.2763 O   0  0  0  0  0  0  0  0  0  0  0  0
    5.8689  -18.0717   26.7205 O   0  0  0  0  0  0  0  0  0  0  0  0
    8.0692  -14.7575   26.1156 N   0  0  0  0  0  0  0  0  0  0  0  0
    6.7129  -14.2600   26.1635 C   0  0  0  0  0  0  0  0  0  0  0  0
    6.9732  -12.7545   26.3845 C   0  0  0  0  0  0  0  0  0  0  0  0
    8.0253  -12.8105   27.4658 C   0  0  0  0  0  0  0  0  0  0  0  0
    8.8375  -14.0122   27.1228 C   0  0  1  0  0  0  0  0  0  0  0  0
    9.0584  -14.8230   28.3302 C   0  0  0  0  0  0  0  0  0  0  0  0
    8.4221  -15.8851   28.4898 O   0  0  0  0  0  0  0  0  0  0  0  0
    9.9625  -14.4299   29.2979 O   0  0  0  0  0  0  0  0  0  0  0  0
  2  1  1  0
  2  3  1  0
  4  3  1  0
  5  4  1  0
  5  7  1  0
  5  6  1  1
  7  8  2  0
  9  7  1  0
  9 10  1  0
 10 14  1  0
 10 11  1  1
 12 11  1  0
 13 12  2  0
 14 15  2  0
 16 12  1  0
 17 21  1  0
 17 14  1  0
 18 17  1  0
 19 20  1  0
 19 18  1  0
 20 21  1  0
 21 22  1  1
 22 23  2  0
 22 24  1  0
M  END
$$$$
