MDP.pdb
     RDKit          3D

 24 24  0  0  1  0  0  0  0  0999 V2000
    5.2350  -11.0841   26.9828 C   0  0  0  0  0  0  0  0  0  0  0  0
    6.6259  -12.0767   26.3639 S   0  0  0  0  0  0  0  0  0  0  0  0
    6.1727  -13.8202   26.5664 C   0  0  0  0  0  0  0  0  0  0  0  0
    7.3278  -14.7240   26.1741 C   0  0  0  0  0  0  0  0  0  0  0  0
    6.8805  -15.5876   25.0177 C   0  0  2  0  0  0  0  0  0  0  0  0
    5.8968  -16.5111   25.5104 N   0  0  0  0  0  0  0  0  0  0  0  0
    8.0468  -16.2978   24.4244 C   0  0  0  0  0  0  0  0  0  0  0  0
    8.5238  -17.2596   25.0392 O   0  0  0  0  0  0  0  0  0  0  0  0
    8.5490  -15.8398   23.1943 N   0  0  0  0  0  0  0  0  0  0  0  0
    9.6856  -16.3441   22.5019 C   0  0  1  0  0  0  0  0  0  0  0  0
    9.7700  -15.9308   21.0350 C   0  0  0  0  0  0  0  0  0  0  0  0
    8.5607  -16.2899   20.2692 C   0  0  0  0  0  0  0  0  0  0  0  0
    8.2283  -17.4163   19.8749 O   0  0  0  0  0  0  0  0  0  0  0  0
   10.9423  -16.1889   23.2348 C   0  0  0  0  0  0  0  0  0  0  0  0
   11.1246  -15.0563   23.8199 O   0  0  0  0  0  0  0  0  0  0  0  0
    7.6680  -15.2459   19.9378 O   0  0  0  0  0  0  0  0  0  0  0  0
   11.9452  -17.1534   23.3526 N   0  0  0  0  0  0  0  0  0  0  0  0
   11.8395  -18.5554   23.0168 C   0  0  0  0  0  0  0  0  0  0  0  0
   12.6261  -19.1848   24.1866 C   0  0  0  0  0  0  0  0  0  0  0  0
   13.8372  -18.2842   24.2231 C   0  0  0  0  0  0  0  0  0  0  0  0
   13.3007  -16.9372   23.8780 C   0  0  1  0  0  0  0  0  0  0  0  0
   14.1656  -16.3013   22.8723 C   0  0  0  0  0  0  0  0  0  0  0  0
   15.2401  -15.7713   23.2232 O   0  0  0  0  0  0  0  0  0  0  0  0
   13.8102  -16.2784   21.5375 O   0  0  0  0  0  0  0  0  0  0  0  0
  2  1  1  0
  2  3  1  0
  4  3  1  0
  5  4  1  0
  5  7  1  0
  5  6  1  1
  7  8  2  0
  9  7  1  0
  9 10  1  0
 10 14  1  0
 10 11  1  6
 12 11  1  0
 13 12  2  0
 14 15  2  0
 16 12  1  0
 17 21  1  0
 17 14  1  0
 18 17  1  0
 19 20  1  0
 19 18  1  0
 20 21  1  0
 21 22  1  6
 22 23  2  0
 22 24  1  0
M  END
$$$$
