MDP.pdb
     RDKit          3D

 24 24  0  0  1  0  0  0  0  0999 V2000
    7.8577  -12.0693   18.5291 C   0  0  0  0  0  0  0  0  0  0  0  0
    7.9434  -12.1107   20.3439 S   0  0  0  0  0  0  0  0  0  0  0  0
    8.1698  -13.8421   20.8309 C   0  0  0  0  0  0  0  0  0  0  0  0
    7.3376  -14.7597   19.9531 C   0  0  0  0  0  0  0  0  0  0  0  0
    7.4612  -16.1668   20.4895 C   0  0  2  0  0  0  0  0  0  0  0  0
    6.6476  -17.0241   19.6731 N   0  0  0  0  0  0  0  0  0  0  0  0
    7.0401  -16.2122   21.9169 C   0  0  0  0  0  0  0  0  0  0  0  0
    5.8318  -16.1484   22.1753 O   0  0  0  0  0  0  0  0  0  0  0  0
    8.0369  -16.3252   22.9011 N   0  0  0  0  0  0  0  0  0  0  0  0
    7.8324  -16.4775   24.3013 C   0  0  1  0  0  0  0  0  0  0  0  0
    7.9027  -17.9184   24.7998 C   0  0  0  0  0  0  0  0  0  0  0  0
    7.5612  -18.0461   26.2297 C   0  0  0  0  0  0  0  0  0  0  0  0
    6.4496  -17.8888   26.7535 O   0  0  0  0  0  0  0  0  0  0  0  0
    8.5924  -15.5301   25.1172 C   0  0  0  0  0  0  0  0  0  0  0  0
    9.8751  -15.6072   25.0337 O   0  0  0  0  0  0  0  0  0  0  0  0
    8.6056  -18.3854   27.1191 O   0  0  0  0  0  0  0  0  0  0  0  0
    8.0504  -14.5622   25.9652 N   0  0  0  0  0  0  0  0  0  0  0  0
    6.6481  -14.2677   26.1557 C   0  0  0  0  0  0  0  0  0  0  0  0
    6.6924  -12.7265   26.2335 C   0  0  0  0  0  0  0  0  0  0  0  0
    7.8613  -12.5292   27.1683 C   0  0  0  0  0  0  0  0  0  0  0  0
    8.8060  -13.6241   26.8074 C   0  0  1  0  0  0  0  0  0  0  0  0
    9.2941  -14.2814   28.0296 C   0  0  0  0  0  0  0  0  0  0  0  0
   10.0899  -13.6816   28.7816 O   0  0  0  0  0  0  0  0  0  0  0  0
    8.8867  -15.5582   28.3643 O   0  0  0  0  0  0  0  0  0  0  0  0
  2  1  1  0
  2  3  1  0
  4  3  1  0
  5  4  1  0
  5  7  1  0
  5  6  1  6
  7  8  2  0
  9  7  1  0
  9 10  1  0
 10 14  1  0
 10 11  1  1
 12 11  1  0
 13 12  2  0
 14 15  2  0
 16 12  1  0
 17 21  1  0
 17 14  1  0
 18 17  1  0
 19 20  1  0
 19 18  1  0
 20 21  1  0
 21 22  1  1
 22 23  2  0
 22 24  1  0
M  END
$$$$
