MDP.pdb
     RDKit          3D

 24 24  0  0  1  0  0  0  0  0999 V2000
    8.9719  -11.8081   18.2677 C   0  0  0  0  0  0  0  0  0  0  0  0
    8.6611  -12.7096   19.8148 S   0  0  0  0  0  0  0  0  0  0  0  0
    7.1260  -13.6472   19.5903 C   0  0  0  0  0  0  0  0  0  0  0  0
    6.6582  -14.2349   20.9097 C   0  0  0  0  0  0  0  0  0  0  0  0
    7.8156  -14.9815   21.5312 C   0  0  2  0  0  0  0  0  0  0  0  0
    8.0003  -16.2016   20.7960 N   0  0  0  0  0  0  0  0  0  0  0  0
    7.5428  -15.2476   22.9704 C   0  0  0  0  0  0  0  0  0  0  0  0
    6.6929  -14.5561   23.5450 O   0  0  0  0  0  0  0  0  0  0  0  0
    8.2651  -16.2721   23.6059 N   0  0  0  0  0  0  0  0  0  0  0  0
    8.1794  -16.6454   24.9766 C   0  0  1  0  0  0  0  0  0  0  0  0
    7.8505  -18.1169   25.2142 C   0  0  0  0  0  0  0  0  0  0  0  0
    6.6398  -18.5558   24.4937 C   0  0  0  0  0  0  0  0  0  0  0  0
    5.4618  -18.2989   24.7782 O   0  0  0  0  0  0  0  0  0  0  0  0
    9.2825  -16.1445   25.7969 C   0  0  0  0  0  0  0  0  0  0  0  0
   10.4664  -16.5052   25.4412 O   0  0  0  0  0  0  0  0  0  0  0  0
    6.8226  -19.3612   23.3470 O   0  0  0  0  0  0  0  0  0  0  0  0
    9.1603  -15.3183   26.9160 N   0  0  0  0  0  0  0  0  0  0  0  0
    7.9587  -14.6603   27.3772 C   0  0  0  0  0  0  0  0  0  0  0  0
    8.5324  -13.2906   27.7992 C   0  0  0  0  0  0  0  0  0  0  0  0
    9.7561  -13.7272   28.5680 C   0  0  0  0  0  0  0  0  0  0  0  0
   10.2440  -14.9253   27.8278 C   0  0  1  0  0  0  0  0  0  0  0  0
   10.5558  -16.0033   28.7789 C   0  0  0  0  0  0  0  0  0  0  0  0
    9.7871  -16.9816   28.8825 O   0  0  0  0  0  0  0  0  0  0  0  0
   11.6903  -15.9546   29.5656 O   0  0  0  0  0  0  0  0  0  0  0  0
  2  1  1  0
  2  3  1  0
  4  3  1  0
  5  4  1  0
  5  7  1  0
  5  6  1  6
  7  8  2  0
  9  7  1  0
  9 10  1  0
 10 14  1  0
 10 11  1  6
 12 11  1  0
 13 12  2  0
 14 15  2  0
 16 12  1  0
 17 21  1  0
 17 14  1  0
 18 17  1  0
 19 20  1  0
 19 18  1  0
 20 21  1  0
 21 22  1  1
 22 23  2  0
 22 24  1  0
M  END
$$$$
