MDP.pdb
     RDKit          3D

 24 24  0  0  1  0  0  0  0  0999 V2000
    8.1233  -11.5020   20.4438 C   0  0  0  0  0  0  0  0  0  0  0  0
    8.4580  -13.2240   19.9690 S   0  0  0  0  0  0  0  0  0  0  0  0
    6.8549  -14.0449   19.7629 C   0  0  0  0  0  0  0  0  0  0  0  0
    7.0428  -15.5198   19.4558 C   0  0  0  0  0  0  0  0  0  0  0  0
    7.8623  -16.1332   20.5672 C   0  0  2  0  0  0  0  0  0  0  0  0
    8.0432  -17.5260   20.2660 N   0  0  0  0  0  0  0  0  0  0  0  0
    7.1789  -15.9423   21.8761 C   0  0  0  0  0  0  0  0  0  0  0  0
    5.9710  -15.6746   21.8747 O   0  0  0  0  0  0  0  0  0  0  0  0
    7.9404  -16.0755   23.0498 N   0  0  0  0  0  0  0  0  0  0  0  0
    7.4860  -15.8717   24.3830 C   0  0  1  0  0  0  0  0  0  0  0  0
    7.1627  -17.1534   25.1461 C   0  0  0  0  0  0  0  0  0  0  0  0
    6.4045  -18.1258   24.3354 C   0  0  0  0  0  0  0  0  0  0  0  0
    5.2670  -17.9866   23.8649 O   0  0  0  0  0  0  0  0  0  0  0  0
    8.2916  -14.9160   25.1435 C   0  0  0  0  0  0  0  0  0  0  0  0
    9.5609  -14.9424   24.9282 O   0  0  0  0  0  0  0  0  0  0  0  0
    7.0283  -19.3619   24.0525 O   0  0  0  0  0  0  0  0  0  0  0  0
    7.8054  -13.9899   26.0686 N   0  0  0  0  0  0  0  0  0  0  0  0
    6.4208  -13.6460   26.3010 C   0  0  0  0  0  0  0  0  0  0  0  0
    6.5386  -12.1186   26.4917 C   0  0  0  0  0  0  0  0  0  0  0  0
    7.7260  -12.0456   27.4212 C   0  0  0  0  0  0  0  0  0  0  0  0
    8.6139  -13.1530   26.9665 C   0  0  1  0  0  0  0  0  0  0  0  0
    9.0843  -13.9213   28.1295 C   0  0  0  0  0  0  0  0  0  0  0  0
    8.6100  -15.0531   28.3590 O   0  0  0  0  0  0  0  0  0  0  0  0
   10.0472  -13.4118   28.9790 O   0  0  0  0  0  0  0  0  0  0  0  0
  2  1  1  0
  2  3  1  0
  4  3  1  0
  5  4  1  0
  5  7  1  0
  5  6  1  6
  7  8  2  0
  9  7  1  0
  9 10  1  0
 10 14  1  0
 10 11  1  1
 12 11  1  0
 13 12  2  0
 14 15  2  0
 16 12  1  0
 17 21  1  0
 17 14  1  0
 18 17  1  0
 19 20  1  0
 19 18  1  0
 20 21  1  0
 21 22  1  1
 22 23  2  0
 22 24  1  0
M  END
$$$$
