MDP.pdb
     RDKit          3D

 24 24  0  0  1  0  0  0  0  0999 V2000
    9.1435  -11.7994   20.1871 C   0  0  0  0  0  0  0  0  0  0  0  0
    8.4822  -12.6066   18.6992 S   0  0  0  0  0  0  0  0  0  0  0  0
    7.7660  -14.1883   19.2205 C   0  0  0  0  0  0  0  0  0  0  0  0
    8.6836  -14.8955   20.2017 C   0  0  0  0  0  0  0  0  0  0  0  0
    8.0007  -16.1640   20.6572 C   0  0  2  0  0  0  0  0  0  0  0  0
    7.0521  -16.5424   19.6471 N   0  0  0  0  0  0  0  0  0  0  0  0
    7.3393  -15.9482   21.9735 C   0  0  0  0  0  0  0  0  0  0  0  0
    6.1994  -15.4676   21.9864 O   0  0  0  0  0  0  0  0  0  0  0  0
    8.0434  -16.3014   23.1375 N   0  0  0  0  0  0  0  0  0  0  0  0
    7.5822  -16.1763   24.4780 C   0  0  1  0  0  0  0  0  0  0  0  0
    7.4421  -17.4989   25.2270 C   0  0  0  0  0  0  0  0  0  0  0  0
    6.5603  -18.4579   24.5339 C   0  0  0  0  0  0  0  0  0  0  0  0
    5.4124  -18.2552   24.1145 O   0  0  0  0  0  0  0  0  0  0  0  0
    8.2623  -15.1309   25.2430 C   0  0  0  0  0  0  0  0  0  0  0  0
    9.5052  -14.9391   24.9657 O   0  0  0  0  0  0  0  0  0  0  0  0
    7.0628  -19.7602   24.3139 O   0  0  0  0  0  0  0  0  0  0  0  0
    7.6839  -14.3341   26.2332 N   0  0  0  0  0  0  0  0  0  0  0  0
    6.2877  -14.2961   26.6056 C   0  0  0  0  0  0  0  0  0  0  0  0
    6.0956  -12.7796   26.8220 C   0  0  0  0  0  0  0  0  0  0  0  0
    7.3261  -12.4572   27.6351 C   0  0  0  0  0  0  0  0  0  0  0  0
    8.3802  -13.3466   27.0701 C   0  0  1  0  0  0  0  0  0  0  0  0
    9.1160  -14.0005   28.1632 C   0  0  0  0  0  0  0  0  0  0  0  0
    9.8538  -13.3223   28.9078 O   0  0  0  0  0  0  0  0  0  0  0  0
    9.0064  -15.3598   28.3839 O   0  0  0  0  0  0  0  0  0  0  0  0
  2  1  1  0
  2  3  1  0
  4  3  1  0
  5  4  1  0
  5  7  1  0
  5  6  1  6
  7  8  2  0
  9  7  1  0
  9 10  1  0
 10 14  1  0
 10 11  1  1
 12 11  1  0
 13 12  2  0
 14 15  2  0
 16 12  1  0
 17 21  1  0
 17 14  1  0
 18 17  1  0
 19 20  1  0
 19 18  1  0
 20 21  1  0
 21 22  1  1
 22 23  2  0
 22 24  1  0
M  END
$$$$
