MDP.pdb
     RDKit          3D

 24 24  0  0  1  0  0  0  0  0999 V2000
    8.5953  -11.2687   19.9795 C   0  0  0  0  0  0  0  0  0  0  0  0
    8.3728  -12.3592   18.5429 S   0  0  0  0  0  0  0  0  0  0  0  0
    8.5169  -14.0657   19.1373 C   0  0  0  0  0  0  0  0  0  0  0  0
    7.4746  -14.3525   20.2034 C   0  0  0  0  0  0  0  0  0  0  0  0
    7.6205  -15.7942   20.6311 C   0  0  2  0  0  0  0  0  0  0  0  0
    6.8985  -16.6086   19.6937 N   0  0  0  0  0  0  0  0  0  0  0  0
    7.1086  -15.9740   22.0176 C   0  0  0  0  0  0  0  0  0  0  0  0
    5.8867  -15.9206   22.2043 O   0  0  0  0  0  0  0  0  0  0  0  0
    8.0396  -16.1953   23.0469 N   0  0  0  0  0  0  0  0  0  0  0  0
    7.7492  -16.3738   24.4287 C   0  0  1  0  0  0  0  0  0  0  0  0
    7.6511  -17.8307   24.8734 C   0  0  0  0  0  0  0  0  0  0  0  0
    7.3939  -17.9710   26.3197 C   0  0  0  0  0  0  0  0  0  0  0  0
    6.2986  -17.9199   26.8964 O   0  0  0  0  0  0  0  0  0  0  0  0
    8.5560  -15.5360   25.3163 C   0  0  0  0  0  0  0  0  0  0  0  0
    9.8331  -15.6714   25.2224 O   0  0  0  0  0  0  0  0  0  0  0  0
    8.5093  -18.1886   27.1596 O   0  0  0  0  0  0  0  0  0  0  0  0
    8.0635  -14.6140   26.2422 N   0  0  0  0  0  0  0  0  0  0  0  0
    6.6745  -14.3205   26.5144 C   0  0  0  0  0  0  0  0  0  0  0  0
    6.7378  -12.7866   26.6770 C   0  0  0  0  0  0  0  0  0  0  0  0
    7.9506  -12.6514   27.5657 C   0  0  0  0  0  0  0  0  0  0  0  0
    8.8666  -13.7309   27.0997 C   0  0  1  0  0  0  0  0  0  0  0  0
    9.4042  -14.4602   28.2586 C   0  0  0  0  0  0  0  0  0  0  0  0
    8.9927  -15.6110   28.5134 O   0  0  0  0  0  0  0  0  0  0  0  0
   10.3623  -13.8932   29.0766 O   0  0  0  0  0  0  0  0  0  0  0  0
  2  1  1  0
  2  3  1  0
  4  3  1  0
  5  4  1  0
  5  7  1  0
  5  6  1  6
  7  8  2  0
  9  7  1  0
  9 10  1  0
 10 14  1  0
 10 11  1  1
 12 11  1  0
 13 12  2  0
 14 15  2  0
 16 12  1  0
 17 21  1  0
 17 14  1  0
 18 17  1  0
 19 20  1  0
 19 18  1  0
 20 21  1  0
 21 22  1  1
 22 23  2  0
 22 24  1  0
M  END
$$$$
