GQV.pdb
     RDKit          3D

 21 20  0  0  1  0  0  0  0  0999 V2000
    7.7834  -12.9516   18.6763 N   0  0  0  0  0  0  0  0  0  0  0  0
    8.6696  -13.8638   19.3634 C   0  0  0  0  0  0  0  0  0  0  0  0
    7.9987  -14.3817   20.6059 C   0  0  0  0  0  0  0  0  0  0  0  0
    6.9180  -13.8683   20.9738 O   0  0  0  0  0  0  0  0  0  0  0  0
    5.2286  -18.6881   23.8833 N   0  0  0  0  0  0  0  0  0  0  0  0
    6.6104  -18.9555   23.6121 C   0  0  0  0  0  0  0  0  0  0  0  0
    6.8774  -20.0250   23.0475 O   0  0  0  0  0  0  0  0  0  0  0  0
    7.6313  -17.9603   24.0106 C   0  0  0  0  0  0  0  0  0  0  0  0
    8.2767  -17.3615   22.8187 C   0  0  0  0  0  0  0  0  0  0  0  0
    7.9343  -15.9449   22.5095 C   0  0  2  0  0  0  0  0  0  0  0  0
    8.6092  -15.4405   21.3298 N   0  0  0  0  0  0  0  0  0  0  0  0
    8.3617  -15.1426   23.7178 C   0  0  0  0  0  0  0  0  0  0  0  0
    9.5660  -14.8628   23.8878 O   0  0  0  0  0  0  0  0  0  0  0  0
    7.0631  -12.1505   27.4174 C   0  0  0  0  0  0  0  0  0  0  0  0
    6.5699  -13.1610   26.4035 C   0  0  1  0  0  0  0  0  0  0  0  0
    5.7293  -12.5046   25.3299 C   0  0  0  0  0  0  0  0  0  0  0  0
    7.7636  -13.8030   25.7785 C   0  0  2  0  0  0  0  0  0  0  0  0
    7.4201  -14.6903   24.6809 N   0  0  0  0  0  0  0  0  0  0  0  0
    8.5088  -14.5521   26.8408 C   0  0  0  0  0  0  0  0  0  0  0  0
    9.5238  -13.9667   27.5634 O   0  0  0  0  0  0  0  0  0  0  0  0
    8.1918  -15.7584   27.0768 O   0  0  0  0  0  0  0  0  0  0  0  0
  2  3  1  0
  2  1  1  0
  3  4  2  0
  5  6  1  0
  6  7  2  0
  6  8  1  0
  8  9  1  0
 10  9  1  1
 11 10  1  0
 11  3  1  0
 12 18  1  0
 12 10  1  0
 13 12  2  0
 15 14  1  1
 16 15  1  0
 17 18  1  6
 17 15  1  0
 19 17  1  0
 20 19  1  0
 21 19  2  0
M  END
$$$$
