GQV.pdb
     RDKit          3D

 21 20  0  0  1  0  0  0  0  0999 V2000
    7.6713  -16.9347   18.8455 N   0  0  0  0  0  0  0  0  0  0  0  0
    8.4548  -17.1188   20.0462 C   0  0  0  0  0  0  0  0  0  0  0  0
    7.6797  -16.6252   21.2370 C   0  0  0  0  0  0  0  0  0  0  0  0
    6.5913  -16.0346   21.0532 O   0  0  0  0  0  0  0  0  0  0  0  0
    5.6580  -20.9522   24.9283 N   0  0  0  0  0  0  0  0  0  0  0  0
    6.5917  -20.0016   24.4000 C   0  0  0  0  0  0  0  0  0  0  0  0
    7.7570  -20.3875   24.2359 O   0  0  0  0  0  0  0  0  0  0  0  0
    6.1275  -18.6326   24.0812 C   0  0  0  0  0  0  0  0  0  0  0  0
    7.0880  -17.6209   24.5810 C   0  0  0  0  0  0  0  0  0  0  0  0
    7.3857  -16.4735   23.6786 C   0  0  2  0  0  0  0  0  0  0  0  0
    8.2031  -16.8423   22.5396 N   0  0  0  0  0  0  0  0  0  0  0  0
    8.1258  -15.4625   24.5251 C   0  0  0  0  0  0  0  0  0  0  0  0
    9.3587  -15.5668   24.6878 O   0  0  0  0  0  0  0  0  0  0  0  0
    7.2536  -11.4487   24.9386 C   0  0  0  0  0  0  0  0  0  0  0  0
    7.3131  -12.1920   26.2563 C   0  0  1  0  0  0  0  0  0  0  0  0
    5.9296  -12.5507   26.7538 C   0  0  0  0  0  0  0  0  0  0  0  0
    8.1048  -13.4393   26.0434 C   0  0  2  0  0  0  0  0  0  0  0  0
    7.4505  -14.3803   25.1510 N   0  0  0  0  0  0  0  0  0  0  0  0
    8.3558  -14.0740   27.3772 C   0  0  0  0  0  0  0  0  0  0  0  0
    9.2264  -13.5223   28.2898 O   0  0  0  0  0  0  0  0  0  0  0  0
    7.7471  -15.1492   27.6685 O   0  0  0  0  0  0  0  0  0  0  0  0
  2  3  1  0
  2  1  1  0
  3  4  2  0
  5  6  1  0
  6  7  2  0
  6  8  1  0
  8  9  1  0
 10  9  1  1
 11 10  1  0
 11  3  1  0
 12 18  1  0
 12 10  1  0
 13 12  2  0
 15 14  1  6
 16 15  1  0
 17 18  1  6
 17 15  1  0
 19 17  1  0
 20 19  1  0
 21 19  2  0
M  END
$$$$
