GQV.pdb
     RDKit          3D

 21 20  0  0  1  0  0  0  0  0999 V2000
    6.8791  -19.5650   22.9604 N   0  0  0  0  0  0  0  0  0  0  0  0
    6.3229  -18.3137   23.4233 C   0  0  0  0  0  0  0  0  0  0  0  0
    7.1709  -17.1714   22.9349 C   0  0  0  0  0  0  0  0  0  0  0  0
    8.4052  -17.3390   22.8101 O   0  0  0  0  0  0  0  0  0  0  0  0
    9.5261  -12.4318   19.6532 N   0  0  0  0  0  0  0  0  0  0  0  0
    8.2223  -12.9959   19.8439 C   0  0  0  0  0  0  0  0  0  0  0  0
    7.8286  -13.8056   18.9934 O   0  0  0  0  0  0  0  0  0  0  0  0
    7.4256  -12.5930   21.0247 C   0  0  0  0  0  0  0  0  0  0  0  0
    6.6341  -13.7346   21.5407 C   0  0  0  0  0  0  0  0  0  0  0  0
    7.3899  -14.8233   22.2212 C   0  0  2  0  0  0  0  0  0  0  0  0
    6.5489  -15.9319   22.6278 N   0  0  0  0  0  0  0  0  0  0  0  0
    8.0171  -14.1905   23.4429 C   0  0  0  0  0  0  0  0  0  0  0  0
    8.7514  -13.1888   23.3203 O   0  0  0  0  0  0  0  0  0  0  0  0
    7.4868  -11.8774   25.4346 C   0  0  0  0  0  0  0  0  0  0  0  0
    7.4769  -12.9852   26.4665 C   0  0  1  0  0  0  0  0  0  0  0  0
    6.0747  -13.4956   26.7189 C   0  0  0  0  0  0  0  0  0  0  0  0
    8.3271  -14.0986   25.9517 C   0  0  2  0  0  0  0  0  0  0  0  0
    7.7929  -14.7089   24.7466 N   0  0  0  0  0  0  0  0  0  0  0  0
    8.4717  -15.1236   27.0350 C   0  0  0  0  0  0  0  0  0  0  0  0
    9.1487  -14.8530   28.2028 O   0  0  0  0  0  0  0  0  0  0  0  0
    7.9545  -16.2705   26.8664 O   0  0  0  0  0  0  0  0  0  0  0  0
  2  3  1  0
  2  1  1  0
  3  4  2  0
  5  6  1  0
  6  7  2  0
  6  8  1  0
  8  9  1  0
 10  9  1  1
 11 10  1  0
 11  3  1  0
 12 18  1  0
 12 10  1  0
 13 12  2  0
 15 14  1  6
 16 15  1  0
 17 18  1  6
 17 15  1  0
 19 17  1  0
 20 19  1  0
 21 19  2  0
M  END
$$$$
