GQV.pdb
     RDKit          3D

 21 20  0  0  1  0  0  0  0  0999 V2000
    3.9737  -17.4570   20.6719 N   0  0  0  0  0  0  0  0  0  0  0  0
    5.0957  -16.5477   20.6102 C   0  0  0  0  0  0  0  0  0  0  0  0
    6.0034  -16.7833   21.7862 C   0  0  0  0  0  0  0  0  0  0  0  0
    5.5501  -17.3626   22.7991 O   0  0  0  0  0  0  0  0  0  0  0  0
   10.7016  -19.7962   23.4507 N   0  0  0  0  0  0  0  0  0  0  0  0
   11.3072  -18.5007   23.3553 C   0  0  0  0  0  0  0  0  0  0  0  0
   12.5016  -18.4593   23.0302 O   0  0  0  0  0  0  0  0  0  0  0  0
   10.4924  -17.2986   23.6427 C   0  0  0  0  0  0  0  0  0  0  0  0
    9.5740  -17.0033   22.5179 C   0  0  0  0  0  0  0  0  0  0  0  0
    8.2016  -16.5455   22.8734 C   0  0  2  0  0  0  0  0  0  0  0  0
    7.3518  -16.3422   21.7167 N   0  0  0  0  0  0  0  0  0  0  0  0
    8.3795  -15.2347   23.6060 C   0  0  0  0  0  0  0  0  0  0  0  0
    8.9358  -14.2724   23.0386 O   0  0  0  0  0  0  0  0  0  0  0  0
    7.2759  -12.0556   27.0931 C   0  0  0  0  0  0  0  0  0  0  0  0
    6.9047  -13.2953   26.3072 C   0  0  1  0  0  0  0  0  0  0  0  0
    5.9187  -12.9780   25.2038 C   0  0  0  0  0  0  0  0  0  0  0  0
    8.1552  -13.8525   25.7127 C   0  0  2  0  0  0  0  0  0  0  0  0
    7.9259  -15.0618   24.9413 N   0  0  0  0  0  0  0  0  0  0  0  0
    9.1287  -14.1175   26.8204 C   0  0  0  0  0  0  0  0  0  0  0  0
    9.8660  -13.1064   27.3942 O   0  0  0  0  0  0  0  0  0  0  0  0
    9.2738  -15.3077   27.2371 O   0  0  0  0  0  0  0  0  0  0  0  0
  2  3  1  0
  2  1  1  0
  3  4  2  0
  5  6  1  0
  6  7  2  0
  6  8  1  0
  8  9  1  0
 10  9  1  6
 11 10  1  0
 11  3  1  0
 12 18  1  0
 12 10  1  0
 13 12  2  0
 15 14  1  6
 16 15  1  0
 17 18  1  1
 17 15  1  0
 19 17  1  0
 20 19  1  0
 21 19  2  0
M  END
$$$$
