GQV.pdb
     RDKit          3D

 21 20  0  0  1  0  0  0  0  0999 V2000
    7.4263  -12.7961   18.5026 N   0  0  0  0  0  0  0  0  0  0  0  0
    8.5267  -13.1785   19.3585 C   0  0  0  0  0  0  0  0  0  0  0  0
    8.0025  -13.9282   20.5524 C   0  0  0  0  0  0  0  0  0  0  0  0
    6.7667  -14.0815   20.6810 O   0  0  0  0  0  0  0  0  0  0  0  0
    9.9618  -19.0726   22.9885 N   0  0  0  0  0  0  0  0  0  0  0  0
    9.4555  -18.7334   21.6912 C   0  0  0  0  0  0  0  0  0  0  0  0
    9.5159  -19.6078   20.8162 O   0  0  0  0  0  0  0  0  0  0  0  0
    8.8948  -17.3822   21.4644 C   0  0  0  0  0  0  0  0  0  0  0  0
    8.9357  -16.5791   22.7090 C   0  0  0  0  0  0  0  0  0  0  0  0
    8.4018  -15.1904   22.6305 C   0  0  2  0  0  0  0  0  0  0  0  0
    8.9237  -14.4428   21.5034 N   0  0  0  0  0  0  0  0  0  0  0  0
    8.8142  -14.5151   23.9190 C   0  0  0  0  0  0  0  0  0  0  0  0
   10.0226  -14.3233   24.1649 O   0  0  0  0  0  0  0  0  0  0  0  0
    7.0571  -11.3470   25.6070 C   0  0  0  0  0  0  0  0  0  0  0  0
    7.1498  -12.4868   26.5994 C   0  0  1  0  0  0  0  0  0  0  0  0
    5.8338  -13.2241   26.7217 C   0  0  0  0  0  0  0  0  0  0  0  0
    8.2050  -13.4272   26.1199 C   0  0  2  0  0  0  0  0  0  0  0  0
    7.8536  -14.0853   24.8736 N   0  0  0  0  0  0  0  0  0  0  0  0
    8.4570  -14.4425   27.1926 C   0  0  0  0  0  0  0  0  0  0  0  0
    9.1723  -14.1347   28.3278 O   0  0  0  0  0  0  0  0  0  0  0  0
    7.9966  -15.6163   27.0457 O   0  0  0  0  0  0  0  0  0  0  0  0
  2  3  1  0
  2  1  1  0
  3  4  2  0
  5  6  1  0
  6  7  2  0
  6  8  1  0
  8  9  1  0
 10  9  1  1
 11 10  1  0
 11  3  1  0
 12 18  1  0
 12 10  1  0
 13 12  2  0
 15 14  1  6
 16 15  1  0
 17 18  1  6
 17 15  1  0
 19 17  1  0
 20 19  1  0
 21 19  2  0
M  END
$$$$
