GQV.pdb
     RDKit          3D

 21 20  0  0  1  0  0  0  0  0999 V2000
    7.6100  -12.7289   18.1308 N   0  0  0  0  0  0  0  0  0  0  0  0
    8.6726  -13.2356   18.9698 C   0  0  0  0  0  0  0  0  0  0  0  0
    8.0848  -13.9108   20.1785 C   0  0  0  0  0  0  0  0  0  0  0  0
    6.8458  -13.8757   20.3536 O   0  0  0  0  0  0  0  0  0  0  0  0
    9.3601  -19.5403   24.5693 N   0  0  0  0  0  0  0  0  0  0  0  0
    8.9724  -18.9096   23.3419 C   0  0  0  0  0  0  0  0  0  0  0  0
    9.1616  -19.5464   22.2967 O   0  0  0  0  0  0  0  0  0  0  0  0
    8.3754  -17.5556   23.3818 C   0  0  0  0  0  0  0  0  0  0  0  0
    8.9052  -16.7137   22.2834 C   0  0  0  0  0  0  0  0  0  0  0  0
    8.3590  -15.3320   22.1725 C   0  0  2  0  0  0  0  0  0  0  0  0
    8.9513  -14.5710   21.0901 N   0  0  0  0  0  0  0  0  0  0  0  0
    8.6665  -14.6584   23.4909 C   0  0  0  0  0  0  0  0  0  0  0  0
    9.8231  -14.2566   23.7323 O   0  0  0  0  0  0  0  0  0  0  0  0
    7.0338  -12.1889   27.3937 C   0  0  0  0  0  0  0  0  0  0  0  0
    6.6519  -13.0257   26.1911 C   0  0  1  0  0  0  0  0  0  0  0  0
    6.0773  -12.1722   25.0813 C   0  0  0  0  0  0  0  0  0  0  0  0
    7.8825  -13.7150   25.7031 C   0  0  2  0  0  0  0  0  0  0  0  0
    7.6638  -14.4656   24.4788 N   0  0  0  0  0  0  0  0  0  0  0  0
    8.3795  -14.6209   26.7882 C   0  0  0  0  0  0  0  0  0  0  0  0
    8.3490  -15.9911   26.6587 O   0  0  0  0  0  0  0  0  0  0  0  0
    8.8398  -14.1061   27.8533 O   0  0  0  0  0  0  0  0  0  0  0  0
  2  3  1  0
  2  1  1  0
  3  4  2  0
  5  6  1  0
  6  7  2  0
  6  8  1  0
  8  9  1  0
 10  9  1  1
 11 10  1  0
 11  3  1  0
 12 18  1  0
 12 10  1  0
 13 12  2  0
 15 14  1  1
 16 15  1  0
 17 18  1  6
 17 15  1  0
 19 17  1  0
 20 19  1  0
 21 19  2  0
M  END
$$$$
