GQV.pdb
     RDKit          3D

 21 20  0  0  1  0  0  0  0  0999 V2000
    4.9536  -19.8448   20.1377 N   0  0  0  0  0  0  0  0  0  0  0  0
    4.7507  -18.5095   20.6528 C   0  0  0  0  0  0  0  0  0  0  0  0
    6.0573  -17.9550   21.1504 C   0  0  0  0  0  0  0  0  0  0  0  0
    7.0129  -18.7375   21.3546 O   0  0  0  0  0  0  0  0  0  0  0  0
    7.8853  -11.9829   20.9256 N   0  0  0  0  0  0  0  0  0  0  0  0
    8.0499  -12.9017   19.8379 C   0  0  0  0  0  0  0  0  0  0  0  0
    8.3827  -12.4263   18.7438 O   0  0  0  0  0  0  0  0  0  0  0  0
    7.8203  -14.3457   20.0699 C   0  0  0  0  0  0  0  0  0  0  0  0
    7.6862  -14.6319   21.5177 C   0  0  0  0  0  0  0  0  0  0  0  0
    7.4241  -16.0474   21.9014 C   0  0  2  0  0  0  0  0  0  0  0  0
    6.1730  -16.5573   21.3758 N   0  0  0  0  0  0  0  0  0  0  0  0
    7.3819  -16.0654   23.4127 C   0  0  0  0  0  0  0  0  0  0  0  0
    6.5363  -15.3790   24.0223 O   0  0  0  0  0  0  0  0  0  0  0  0
    6.3647  -18.4699   25.6076 C   0  0  0  0  0  0  0  0  0  0  0  0
    7.7765  -18.2645   26.1143 C   0  0  1  0  0  0  0  0  0  0  0  0
    8.7072  -19.3500   25.6186 C   0  0  0  0  0  0  0  0  0  0  0  0
    8.2516  -16.9379   25.6220 C   0  0  2  0  0  0  0  0  0  0  0  0
    8.2891  -16.8517   24.1725 N   0  0  0  0  0  0  0  0  0  0  0  0
    9.6118  -16.6798   26.1950 C   0  0  0  0  0  0  0  0  0  0  0  0
    9.8302  -16.6407   27.5536 O   0  0  0  0  0  0  0  0  0  0  0  0
   10.5853  -16.4928   25.4021 O   0  0  0  0  0  0  0  0  0  0  0  0
  2  3  1  0
  2  1  1  0
  3  4  2  0
  5  6  1  0
  6  7  2  0
  6  8  1  0
  8  9  1  0
 10  9  1  1
 11 10  1  0
 11  3  1  0
 12 18  1  0
 12 10  1  0
 13 12  2  0
 15 14  1  6
 16 15  1  0
 17 18  1  6
 17 15  1  0
 19 17  1  0
 20 19  1  0
 21 19  2  0
M  END
$$$$
