GQV.pdb
     RDKit          3D

 21 20  0  0  1  0  0  0  0  0999 V2000
    4.1181  -19.3443   21.1100 N   0  0  0  0  0  0  0  0  0  0  0  0
    4.1939  -17.9280   21.3891 C   0  0  0  0  0  0  0  0  0  0  0  0
    5.6306  -17.4836   21.3656 C   0  0  0  0  0  0  0  0  0  0  0  0
    6.5360  -18.3479   21.3876 O   0  0  0  0  0  0  0  0  0  0  0  0
    7.6646  -12.0925   18.9404 N   0  0  0  0  0  0  0  0  0  0  0  0
    7.8427  -13.3961   18.3717 C   0  0  0  0  0  0  0  0  0  0  0  0
    8.4388  -13.4616   17.2880 O   0  0  0  0  0  0  0  0  0  0  0  0
    7.3176  -14.5775   19.0927 C   0  0  0  0  0  0  0  0  0  0  0  0
    7.5944  -14.4746   20.5448 C   0  0  0  0  0  0  0  0  0  0  0  0
    7.3118  -15.6824   21.3700 C   0  0  2  0  0  0  0  0  0  0  0  0
    5.9229  -16.0943   21.3191 N   0  0  0  0  0  0  0  0  0  0  0  0
    7.6762  -15.3084   22.7891 C   0  0  0  0  0  0  0  0  0  0  0  0
    7.2365  -14.2530   23.2895 O   0  0  0  0  0  0  0  0  0  0  0  0
    6.7739  -16.2908   25.9182 C   0  0  0  0  0  0  0  0  0  0  0  0
    8.2549  -16.5995   25.9797 C   0  0  1  0  0  0  0  0  0  0  0  0
    8.5259  -18.0684   25.7366 C   0  0  0  0  0  0  0  0  0  0  0  0
    8.9364  -15.7868   24.9296 C   0  0  2  0  0  0  0  0  0  0  0  0
    8.5167  -16.1341   23.5830 N   0  0  0  0  0  0  0  0  0  0  0  0
   10.4164  -15.9677   25.0773 C   0  0  0  0  0  0  0  0  0  0  0  0
   11.1886  -16.4811   24.0599 O   0  0  0  0  0  0  0  0  0  0  0  0
   10.9679  -15.6372   26.1718 O   0  0  0  0  0  0  0  0  0  0  0  0
  2  3  1  0
  2  1  1  0
  3  4  2  0
  5  6  1  0
  6  7  2  0
  6  8  1  0
  8  9  1  0
 10  9  1  6
 11 10  1  0
 11  3  1  0
 12 18  1  0
 12 10  1  0
 13 12  2  0
 15 14  1  6
 16 15  1  0
 17 18  1  6
 17 15  1  0
 19 17  1  0
 20 19  1  0
 21 19  2  0
M  END
$$$$
