VVV.pdb
     RDKit          3D

 22 21  0  0  1  0  0  0  0  0999 V2000
   13.5041  -18.3730   22.2730 C   0  0  0  0  0  0  0  0  0  0  0  0
   12.2395  -18.6793   21.5412 C   0  0  2  0  0  0  0  0  0  0  0  0
   12.5327  -19.7430   20.5039 C   0  0  0  0  0  0  0  0  0  0  0  0
   11.6543  -17.4949   20.8236 C   0  0  2  0  0  0  0  0  0  0  0  0
   12.6496  -16.8536   20.0096 N   0  0  0  0  0  0  0  0  0  0  0  0
   11.0826  -16.4871   21.7464 C   0  0  0  0  0  0  0  0  0  0  0  0
   11.7904  -15.5681   22.2073 O   0  0  0  0  0  0  0  0  0  0  0  0
    7.3897  -14.9331   21.2879 C   0  0  0  0  0  0  0  0  0  0  0  0
    7.6545  -15.4020   22.6818 C   0  0  2  0  0  0  0  0  0  0  0  0
    7.0549  -14.4078   23.6750 C   0  0  0  0  0  0  0  0  0  0  0  0
    9.1325  -15.4809   23.0047 C   0  0  2  0  0  0  0  0  0  0  0  0
    9.7134  -16.5093   22.1541 N   0  0  0  0  0  0  0  0  0  0  0  0
    9.3483  -15.8038   24.4488 C   0  0  0  0  0  0  0  0  0  0  0  0
    9.3932  -17.0347   24.7813 O   0  0  0  0  0  0  0  0  0  0  0  0
    8.7190  -13.1320   27.6694 C   0  0  0  0  0  0  0  0  0  0  0  0
   10.0025  -13.9343   27.6710 C   0  0  1  0  0  0  0  0  0  0  0  0
   10.4242  -14.2843   29.0558 C   0  0  0  0  0  0  0  0  0  0  0  0
    9.8782  -15.1341   26.7609 C   0  0  2  0  0  0  0  0  0  0  0  0
    9.5000  -14.7922   25.4304 N   0  0  0  0  0  0  0  0  0  0  0  0
    8.9609  -16.1320   27.3399 C   0  0  0  0  0  0  0  0  0  0  0  0
    9.4191  -16.9794   28.3255 O   0  0  0  0  0  0  0  0  0  0  0  0
    7.7794  -16.2152   26.9472 O   0  0  0  0  0  0  0  0  0  0  0  0
  2  1  1  6
  2  3  1  0
  4  2  1  0
  4  5  1  1
  6  4  1  0
  6  7  2  0
  9  8  1  6
  9 11  1  0
 10  9  1  0
 11 13  1  0
 11 12  1  6
 12  6  1  0
 13 19  1  0
 14 13  2  0
 16 17  1  1
 16 15  1  0
 16 18  1  0
 18 20  1  0
 18 19  1  6
 20 22  2  0
 20 21  1  0
M  END
$$$$
