VVV.pdb
     RDKit          3D

 22 21  0  0  1  0  0  0  0  0999 V2000
    6.5113  -16.3356   19.7582 C   0  0  0  0  0  0  0  0  0  0  0  0
    7.2064  -16.0333   21.0442 C   0  0  2  0  0  0  0  0  0  0  0  0
    6.4943  -16.7720   22.1580 C   0  0  0  0  0  0  0  0  0  0  0  0
    7.2117  -14.5724   21.3997 C   0  0  2  0  0  0  0  0  0  0  0  0
    7.8482  -13.8023   20.3670 N   0  0  0  0  0  0  0  0  0  0  0  0
    7.8979  -14.2944   22.6826 C   0  0  0  0  0  0  0  0  0  0  0  0
    9.1405  -14.3700   22.7723 O   0  0  0  0  0  0  0  0  0  0  0  0
    6.5337  -11.6051   25.4473 C   0  0  0  0  0  0  0  0  0  0  0  0
    6.9073  -12.9302   26.0283 C   0  0  2  0  0  0  0  0  0  0  0  0
    7.6389  -12.7166   27.3524 C   0  0  0  0  0  0  0  0  0  0  0  0
    7.8562  -13.7132   25.1441 C   0  0  2  0  0  0  0  0  0  0  0  0
    7.1893  -13.9304   23.8687 N   0  0  0  0  0  0  0  0  0  0  0  0
    8.2252  -15.0165   25.7775 C   0  0  0  0  0  0  0  0  0  0  0  0
    7.2818  -15.8285   26.0575 O   0  0  0  0  0  0  0  0  0  0  0  0
   12.0813  -16.3258   25.3881 C   0  0  0  0  0  0  0  0  0  0  0  0
   10.9923  -17.3242   25.7172 C   0  0  1  0  0  0  0  0  0  0  0  0
   11.5499  -18.5451   26.3625 C   0  0  0  0  0  0  0  0  0  0  0  0
    9.8971  -16.6665   26.5243 C   0  0  2  0  0  0  0  0  0  0  0  0
    9.5709  -15.3577   26.0653 N   0  0  0  0  0  0  0  0  0  0  0  0
   10.2397  -16.6627   27.9578 C   0  0  0  0  0  0  0  0  0  0  0  0
   10.4876  -15.4634   28.5902 O   0  0  0  0  0  0  0  0  0  0  0  0
   10.3067  -17.7305   28.6000 O   0  0  0  0  0  0  0  0  0  0  0  0
  2  1  1  6
  2  3  1  0
  4  2  1  0
  4  5  1  6
  6  4  1  0
  6  7  2  0
  9  8  1  6
  9 11  1  0
 10  9  1  0
 11 13  1  0
 11 12  1  6
 12  6  1  0
 13 19  1  0
 14 13  2  0
 16 17  1  1
 16 15  1  0
 16 18  1  0
 18 20  1  0
 18 19  1  6
 20 22  2  0
 20 21  1  0
M  END
$$$$
