VVV.pdb
     RDKit          3D

 22 21  0  0  1  0  0  0  0  0999 V2000
    6.7502  -17.5613   20.6494 C   0  0  0  0  0  0  0  0  0  0  0  0
    7.4387  -16.9493   21.8240 C   0  0  2  0  0  0  0  0  0  0  0  0
    6.8351  -17.5273   23.0869 C   0  0  0  0  0  0  0  0  0  0  0  0
    7.2968  -15.4543   21.8964 C   0  0  2  0  0  0  0  0  0  0  0  0
    7.8589  -14.8351   20.7281 N   0  0  0  0  0  0  0  0  0  0  0  0
    7.9451  -14.8716   23.0940 C   0  0  0  0  0  0  0  0  0  0  0  0
    9.1838  -14.7264   23.1433 O   0  0  0  0  0  0  0  0  0  0  0  0
    6.3247  -11.8937   25.3310 C   0  0  0  0  0  0  0  0  0  0  0  0
    6.8040  -13.0517   26.1448 C   0  0  2  0  0  0  0  0  0  0  0  0
    7.4835  -12.5357   27.4122 C   0  0  0  0  0  0  0  0  0  0  0  0
    7.8394  -13.8892   25.4227 C   0  0  2  0  0  0  0  0  0  0  0  0
    7.2030  -14.4503   24.2399 N   0  0  0  0  0  0  0  0  0  0  0  0
    8.3619  -14.9749   26.3084 C   0  0  0  0  0  0  0  0  0  0  0  0
    7.5219  -15.8105   26.7816 O   0  0  0  0  0  0  0  0  0  0  0  0
   11.2744  -17.2942   25.4166 C   0  0  0  0  0  0  0  0  0  0  0  0
   11.4881  -16.7950   26.8295 C   0  0  1  0  0  0  0  0  0  0  0  0
   12.6532  -15.8709   26.9102 C   0  0  0  0  0  0  0  0  0  0  0  0
   10.2124  -16.2007   27.3798 C   0  0  2  0  0  0  0  0  0  0  0  0
    9.7393  -15.0896   26.6238 N   0  0  0  0  0  0  0  0  0  0  0  0
   10.3739  -15.8519   28.8028 C   0  0  0  0  0  0  0  0  0  0  0  0
   10.6564  -16.8463   29.7144 O   0  0  0  0  0  0  0  0  0  0  0  0
   10.2577  -14.6703   29.1866 O   0  0  0  0  0  0  0  0  0  0  0  0
  2  1  1  6
  2  3  1  0
  4  2  1  0
  4  5  1  6
  6  4  1  0
  6  7  2  0
  9  8  1  6
  9 11  1  0
 10  9  1  0
 11 13  1  0
 11 12  1  6
 12  6  1  0
 13 19  1  0
 14 13  2  0
 16 17  1  6
 16 15  1  0
 16 18  1  0
 18 20  1  0
 18 19  1  6
 20 22  2  0
 20 21  1  0
M  END
$$$$
