VVV.pdb
     RDKit          3D

 22 21  0  0  1  0  0  0  0  0999 V2000
   14.0138  -17.7386   22.3743 C   0  0  0  0  0  0  0  0  0  0  0  0
   12.8079  -18.3022   21.6986 C   0  0  2  0  0  0  0  0  0  0  0  0
   13.2625  -19.3509   20.7052 C   0  0  0  0  0  0  0  0  0  0  0  0
   12.0049  -17.2798   20.9434 C   0  0  2  0  0  0  0  0  0  0  0  0
   12.8420  -16.5530   20.0293 N   0  0  0  0  0  0  0  0  0  0  0  0
   11.3272  -16.3083   21.8326 C   0  0  0  0  0  0  0  0  0  0  0  0
   11.8929  -15.2481   22.1702 O   0  0  0  0  0  0  0  0  0  0  0  0
    7.6031  -14.9561   21.6429 C   0  0  0  0  0  0  0  0  0  0  0  0
    7.8969  -15.5837   22.9668 C   0  0  2  0  0  0  0  0  0  0  0  0
    7.2393  -14.7633   24.0753 C   0  0  0  0  0  0  0  0  0  0  0  0
    9.3773  -15.6146   23.2872 C   0  0  2  0  0  0  0  0  0  0  0  0
   10.0113  -16.5254   22.3452 N   0  0  0  0  0  0  0  0  0  0  0  0
    9.6109  -16.0616   24.6949 C   0  0  0  0  0  0  0  0  0  0  0  0
    9.7468  -17.3125   24.9056 O   0  0  0  0  0  0  0  0  0  0  0  0
   11.3161  -13.6043   27.7681 C   0  0  0  0  0  0  0  0  0  0  0  0
   10.1235  -14.4788   28.0906 C   0  0  1  0  0  0  0  0  0  0  0  0
    8.8793  -13.6726   28.2316 C   0  0  0  0  0  0  0  0  0  0  0  0
   10.0010  -15.5994   27.0843 C   0  0  2  0  0  0  0  0  0  0  0  0
    9.6823  -15.1433   25.7727 N   0  0  0  0  0  0  0  0  0  0  0  0
    9.0360  -16.6117   27.5497 C   0  0  0  0  0  0  0  0  0  0  0  0
    9.4105  -17.4997   28.5350 O   0  0  0  0  0  0  0  0  0  0  0  0
    7.8891  -16.6708   27.0617 O   0  0  0  0  0  0  0  0  0  0  0  0
  2  1  1  6
  2  3  1  0
  4  2  1  0
  4  5  1  6
  6  4  1  0
  6  7  2  0
  9  8  1  6
  9 11  1  0
 10  9  1  0
 11 13  1  0
 11 12  1  6
 12  6  1  0
 13 19  1  0
 14 13  2  0
 16 17  1  6
 16 15  1  0
 16 18  1  0
 18 20  1  0
 18 19  1  6
 20 22  2  0
 20 21  1  0
M  END
$$$$
