VVV.pdb
     RDKit          3D

 22 21  0  0  1  0  0  0  0  0999 V2000
    8.3255  -17.3575   21.8215 C   0  0  0  0  0  0  0  0  0  0  0  0
    7.1163  -16.4964   21.6643 C   0  0  2  0  0  0  0  0  0  0  0  0
    6.4515  -16.8411   20.3480 C   0  0  0  0  0  0  0  0  0  0  0  0
    7.4206  -15.0241   21.6469 C   0  0  2  0  0  0  0  0  0  0  0  0
    8.2976  -14.7012   20.5555 N   0  0  0  0  0  0  0  0  0  0  0  0
    8.0428  -14.5497   22.9046 C   0  0  0  0  0  0  0  0  0  0  0  0
    9.2841  -14.4900   23.0208 O   0  0  0  0  0  0  0  0  0  0  0  0
    6.3503  -11.7986   25.5436 C   0  0  0  0  0  0  0  0  0  0  0  0
    6.8143  -13.0881   26.1395 C   0  0  2  0  0  0  0  0  0  0  0  0
    7.4499  -12.8184   27.5025 C   0  0  0  0  0  0  0  0  0  0  0  0
    7.8787  -13.7716   25.3060 C   0  0  2  0  0  0  0  0  0  0  0  0
    7.2715  -14.1410   24.0357 N   0  0  0  0  0  0  0  0  0  0  0  0
    8.4148  -14.9784   26.0076 C   0  0  0  0  0  0  0  0  0  0  0  0
    7.6141  -15.9504   26.2123 O   0  0  0  0  0  0  0  0  0  0  0  0
   12.5947  -15.5509   26.5257 C   0  0  0  0  0  0  0  0  0  0  0  0
   11.5975  -16.6857   26.4313 C   0  0  1  0  0  0  0  0  0  0  0  0
   12.1357  -17.9353   27.0370 C   0  0  0  0  0  0  0  0  0  0  0  0
   10.2636  -16.2676   27.0051 C   0  0  2  0  0  0  0  0  0  0  0  0
    9.7630  -15.0599   26.4386 N   0  0  0  0  0  0  0  0  0  0  0  0
   10.3347  -16.1819   28.4748 C   0  0  0  0  0  0  0  0  0  0  0  0
   10.5072  -17.3341   29.2113 O   0  0  0  0  0  0  0  0  0  0  0  0
   10.2404  -15.0809   29.0544 O   0  0  0  0  0  0  0  0  0  0  0  0
  2  1  1  6
  2  3  1  0
  4  2  1  0
  4  5  1  6
  6  4  1  0
  6  7  2  0
  9  8  1  6
  9 11  1  0
 10  9  1  0
 11 13  1  0
 11 12  1  6
 12  6  1  0
 13 19  1  0
 14 13  2  0
 16 17  1  1
 16 15  1  0
 16 18  1  0
 18 20  1  0
 18 19  1  6
 20 22  2  0
 20 21  1  0
M  END
$$$$
