VVV.pdb
     RDKit          3D

 22 21  0  0  1  0  0  0  0  0999 V2000
   12.7371  -19.7223   20.6384 C   0  0  0  0  0  0  0  0  0  0  0  0
   12.2819  -18.6731   21.5978 C   0  0  2  0  0  0  0  0  0  0  0  0
   11.3485  -19.3159   22.6023 C   0  0  0  0  0  0  0  0  0  0  0  0
   11.5375  -17.5406   20.9469 C   0  0  2  0  0  0  0  0  0  0  0  0
   12.3828  -16.8498   20.0126 N   0  0  0  0  0  0  0  0  0  0  0  0
   11.0163  -16.5569   21.9240 C   0  0  0  0  0  0  0  0  0  0  0  0
   11.7865  -15.7695   22.5111 O   0  0  0  0  0  0  0  0  0  0  0  0
    7.5528  -14.6007   21.3236 C   0  0  0  0  0  0  0  0  0  0  0  0
    7.6652  -15.1591   22.7052 C   0  0  2  0  0  0  0  0  0  0  0  0
    7.1097  -14.1493   23.7082 C   0  0  0  0  0  0  0  0  0  0  0  0
    9.0991  -15.4192   23.1193 C   0  0  2  0  0  0  0  0  0  0  0  0
    9.6276  -16.4554   22.2443 N   0  0  0  0  0  0  0  0  0  0  0  0
    9.1737  -15.8457   24.5506 C   0  0  0  0  0  0  0  0  0  0  0  0
    8.8376  -17.0441   24.8309 O   0  0  0  0  0  0  0  0  0  0  0  0
   11.4417  -13.7407   27.5164 C   0  0  0  0  0  0  0  0  0  0  0  0
   10.1033  -14.3394   27.8922 C   0  0  1  0  0  0  0  0  0  0  0  0
    9.0601  -13.2876   28.0458 C   0  0  0  0  0  0  0  0  0  0  0  0
    9.7179  -15.4283   26.9180 C   0  0  2  0  0  0  0  0  0  0  0  0
    9.6005  -14.9645   25.5759 N   0  0  0  0  0  0  0  0  0  0  0  0
    8.4875  -16.1087   27.3602 C   0  0  0  0  0  0  0  0  0  0  0  0
    8.5501  -17.0082   28.4027 O   0  0  0  0  0  0  0  0  0  0  0  0
    7.3957  -15.8784   26.8016 O   0  0  0  0  0  0  0  0  0  0  0  0
  2  1  1  6
  2  3  1  0
  4  2  1  0
  4  5  1  6
  6  4  1  0
  6  7  2  0
  9  8  1  6
  9 11  1  0
 10  9  1  0
 11 13  1  0
 11 12  1  6
 12  6  1  0
 13 19  1  0
 14 13  2  0
 16 17  1  6
 16 15  1  0
 16 18  1  0
 18 20  1  0
 18 19  1  6
 20 22  2  0
 20 21  1  0
M  END
$$$$
