LHR.pdb
     RDKit          3D

 30 30  0  0  1  0  0  0  0  0999 V2000
    8.7771  -13.4238   17.9927 C   0  0  0  0  0  0  0  0  0  0  0  0
    8.5584  -13.3057   19.4910 C   0  0  1  0  0  0  0  0  0  0  0  0
    7.9741  -11.9244   19.7519 C   0  0  0  0  0  0  0  0  0  0  0  0
    7.5996  -14.3647   19.9304 C   0  0  0  0  0  0  0  0  0  0  0  0
    8.2795  -15.6576   20.3539 C   0  0  2  0  0  0  0  0  0  0  0  0
    7.1809  -16.6355   20.4646 N   0  0  0  0  0  0  0  0  0  0  0  0
    8.9021  -15.4973   21.6905 C   0  0  0  0  0  0  0  0  0  0  0  0
   10.0681  -15.0021   21.7604 O   0  0  0  0  0  0  0  0  0  0  0  0
    8.1970  -15.8961   22.8881 N   0  0  0  0  0  0  0  0  0  0  0  0
    8.8846  -15.8255   24.1302 C   0  0  1  0  0  0  0  0  0  0  0  0
    7.9485  -15.5410   25.2564 C   0  0  0  0  0  0  0  0  0  0  0  0
    7.4693  -14.1549   25.3161 C   0  0  0  0  0  0  0  0  0  0  0  0
    7.7097  -13.0428   24.5603 C   0  0  0  0  0  0  0  0  0  0  0  0
    6.9900  -11.9714   25.0083 N   0  0  0  0  0  0  0  0  0  0  0  0
    6.2973  -12.4196   26.0484 C   0  0  0  0  0  0  0  0  0  0  0  0
    6.5600  -13.7135   26.2571 N   0  0  0  0  0  0  0  0  0  0  0  0
    9.6964  -17.0318   24.4506 C   0  0  0  0  0  0  0  0  0  0  0  0
    9.1437  -18.1641   24.4133 O   0  0  0  0  0  0  0  0  0  0  0  0
   15.7615  -14.5509   21.0130 N   0  0  0  0  0  0  0  0  0  0  0  0
   14.6144  -15.0568   20.3388 C   0  0  0  0  0  0  0  0  0  0  0  0
   14.3517  -14.6404   19.1696 N   0  0  0  0  0  0  0  0  0  0  0  0
   13.7491  -16.0212   20.9424 N   0  0  0  0  0  0  0  0  0  0  0  0
   13.9626  -16.4363   22.3091 C   0  0  0  0  0  0  0  0  0  0  0  0
   13.0487  -17.5224   22.7500 C   0  0  0  0  0  0  0  0  0  0  0  0
   13.1751  -18.0101   24.1533 C   0  0  0  0  0  0  0  0  0  0  0  0
   11.9150  -18.1680   24.9264 C   0  0  2  0  0  0  0  0  0  0  0  0
   11.0678  -16.9789   24.7999 N   0  0  0  0  0  0  0  0  0  0  0  0
   12.0246  -18.6010   26.3133 C   0  0  0  0  0  0  0  0  0  0  0  0
   11.5658  -17.8176   27.2202 O   0  0  0  0  0  0  0  0  0  0  0  0
   12.5678  -19.7728   26.7884 O   0  0  0  0  0  0  0  0  0  0  0  0
  2  1  1  6
  2  3  1  0
  4  2  1  0
  5  4  1  0
  5  6  1  1
  7  8  2  0
  7  5  1  0
  9  7  1  0
 10  9  1  0
 11 12  1  0
 10 11  1  1
 12 16  1  0
 13 12  2  0
 13 14  1  0
 14 15  1  0
 16 15  2  0
 17 10  1  0
 18 17  2  0
 19 20  1  0
 20 22  1  0
 21 20  2  0
 22 23  1  0
 23 24  1  0
 24 25  1  0
 26 25  1  1
 26 28  1  0
 26 27  1  0
 27 17  1  0
 28 30  1  0
 29 28  2  0
M  END
$$$$
