LHR.pdb
     RDKit          3D

 30 30  0  0  1  0  0  0  0  0999 V2000
    6.5278  -13.3865   19.2981 C   0  0  0  0  0  0  0  0  0  0  0  0
    8.0340  -13.3564   19.1060 C   0  0  1  0  0  0  0  0  0  0  0  0
    8.4118  -11.9271   18.7427 C   0  0  0  0  0  0  0  0  0  0  0  0
    8.6982  -13.7586   20.3830 C   0  0  0  0  0  0  0  0  0  0  0  0
   10.2161  -13.6833   20.3248 C   0  0  2  0  0  0  0  0  0  0  0  0
   10.5126  -13.2233   18.9552 N   0  0  0  0  0  0  0  0  0  0  0  0
   10.8052  -15.0325   20.5050 C   0  0  0  0  0  0  0  0  0  0  0  0
   10.4624  -15.7128   21.5195 O   0  0  0  0  0  0  0  0  0  0  0  0
   11.7492  -15.5620   19.5463 N   0  0  0  0  0  0  0  0  0  0  0  0
   12.3057  -16.8475   19.7878 C   0  0  1  0  0  0  0  0  0  0  0  0
   13.1438  -17.3032   18.6408 C   0  0  0  0  0  0  0  0  0  0  0  0
   13.5989  -18.6956   18.7329 C   0  0  0  0  0  0  0  0  0  0  0  0
   13.4232  -19.6836   19.6597 C   0  0  0  0  0  0  0  0  0  0  0  0
   14.0355  -20.8424   19.2739 N   0  0  0  0  0  0  0  0  0  0  0  0
   14.5947  -20.5741   18.1001 C   0  0  0  0  0  0  0  0  0  0  0  0
   14.3535  -19.3066   17.7508 N   0  0  0  0  0  0  0  0  0  0  0  0
   13.0910  -16.9483   21.0488 C   0  0  0  0  0  0  0  0  0  0  0  0
   13.8134  -15.9749   21.3946 O   0  0  0  0  0  0  0  0  0  0  0  0
    9.3381  -21.8539   24.2272 N   0  0  0  0  0  0  0  0  0  0  0  0
   10.3611  -22.5760   24.9041 C   0  0  0  0  0  0  0  0  0  0  0  0
   10.3044  -23.8430   24.9368 N   0  0  0  0  0  0  0  0  0  0  0  0
   11.4513  -21.9137   25.5489 N   0  0  0  0  0  0  0  0  0  0  0  0
   11.5779  -20.4771   25.4727 C   0  0  0  0  0  0  0  0  0  0  0  0
   12.4672  -20.0162   24.3746 C   0  0  0  0  0  0  0  0  0  0  0  0
   12.7186  -18.5516   24.2521 C   0  0  0  0  0  0  0  0  0  0  0  0
   13.6947  -18.1212   23.2166 C   0  0  2  0  0  0  0  0  0  0  0  0
   13.0733  -18.0876   21.8897 N   0  0  0  0  0  0  0  0  0  0  0  0
   14.9859  -18.7957   23.1852 C   0  0  0  0  0  0  0  0  0  0  0  0
   15.1956  -19.6374   22.2396 O   0  0  0  0  0  0  0  0  0  0  0  0
   16.0375  -18.6406   24.0592 O   0  0  0  0  0  0  0  0  0  0  0  0
  2  1  1  1
  2  3  1  0
  4  2  1  0
  5  4  1  0
  5  6  1  6
  7  8  2  0
  7  5  1  0
  9  7  1  0
 10  9  1  0
 11 12  1  0
 10 11  1  6
 12 16  1  0
 13 12  2  0
 13 14  1  0
 14 15  1  0
 16 15  2  0
 17 10  1  0
 18 17  2  0
 19 20  1  0
 20 22  1  0
 21 20  2  0
 22 23  1  0
 23 24  1  0
 24 25  1  0
 26 25  1  1
 26 28  1  0
 26 27  1  0
 27 17  1  0
 28 30  1  0
 29 28  2  0
M  END
$$$$
