LHR.pdb
     RDKit          3D

 30 30  0  0  1  0  0  0  0  0999 V2000
    6.2703  -13.0810   18.7928 C   0  0  0  0  0  0  0  0  0  0  0  0
    7.7738  -13.2287   18.6373 C   0  0  1  0  0  0  0  0  0  0  0  0
    8.3910  -11.8676   18.9275 C   0  0  0  0  0  0  0  0  0  0  0  0
    8.2699  -14.2417   19.6177 C   0  0  0  0  0  0  0  0  0  0  0  0
    9.7845  -14.2585   19.7555 C   0  0  2  0  0  0  0  0  0  0  0  0
   10.2836  -14.2399   18.3677 N   0  0  0  0  0  0  0  0  0  0  0  0
   10.2285  -15.5197   20.3975 C   0  0  0  0  0  0  0  0  0  0  0  0
    9.7218  -15.8418   21.5151 O   0  0  0  0  0  0  0  0  0  0  0  0
   11.2166  -16.3644   19.7646 N   0  0  0  0  0  0  0  0  0  0  0  0
   11.6198  -17.5502   20.4368 C   0  0  1  0  0  0  0  0  0  0  0  0
   12.4894  -18.3989   19.5715 C   0  0  0  0  0  0  0  0  0  0  0  0
   11.7974  -19.0259   18.4391 C   0  0  0  0  0  0  0  0  0  0  0  0
   10.5196  -19.4680   18.2451 C   0  0  0  0  0  0  0  0  0  0  0  0
   10.3501  -19.9620   16.9827 N   0  0  0  0  0  0  0  0  0  0  0  0
   11.5290  -19.8259   16.3875 C   0  0  0  0  0  0  0  0  0  0  0  0
   12.4104  -19.2727   17.2264 N   0  0  0  0  0  0  0  0  0  0  0  0
   12.2953  -17.3149   21.7427 C   0  0  0  0  0  0  0  0  0  0  0  0
   13.1590  -16.4004   21.8243 O   0  0  0  0  0  0  0  0  0  0  0  0
    9.7158  -13.9517   28.7158 N   0  0  0  0  0  0  0  0  0  0  0  0
   10.4391  -15.0043   29.3444 C   0  0  0  0  0  0  0  0  0  0  0  0
   10.9013  -14.8244   30.5120 N   0  0  0  0  0  0  0  0  0  0  0  0
   10.6599  -16.2592   28.6967 N   0  0  0  0  0  0  0  0  0  0  0  0
   10.3340  -16.4246   27.2995 C   0  0  0  0  0  0  0  0  0  0  0  0
   11.5043  -16.7778   26.4540 C   0  0  0  0  0  0  0  0  0  0  0  0
   11.2395  -17.2810   25.0757 C   0  0  0  0  0  0  0  0  0  0  0  0
   12.4234  -17.6487   24.2550 C   0  0  2  0  0  0  0  0  0  0  0  0
   12.0209  -18.0686   22.9098 N   0  0  0  0  0  0  0  0  0  0  0  0
   13.3868  -18.5735   24.8376 C   0  0  0  0  0  0  0  0  0  0  0  0
   13.2172  -19.8265   24.6194 O   0  0  0  0  0  0  0  0  0  0  0  0
   14.4850  -18.2689   25.6090 O   0  0  0  0  0  0  0  0  0  0  0  0
  2  1  1  1
  2  3  1  0
  4  2  1  0
  5  4  1  0
  5  6  1  6
  7  8  2  0
  7  5  1  0
  9  7  1  0
 10  9  1  0
 11 12  1  0
 10 11  1  6
 12 16  1  0
 13 12  2  0
 13 14  1  0
 14 15  1  0
 16 15  2  0
 17 10  1  0
 18 17  2  0
 19 20  1  0
 20 22  1  0
 21 20  2  0
 22 23  1  0
 23 24  1  0
 24 25  1  0
 26 25  1  1
 26 28  1  0
 26 27  1  0
 27 17  1  0
 28 30  1  0
 29 28  2  0
M  END
$$$$
