LHR.pdb
     RDKit          3D

 30 30  0  0  1  0  0  0  0  0999 V2000
    7.0861  -11.9262   27.8502 C   0  0  0  0  0  0  0  0  0  0  0  0
    6.2556  -12.7970   26.9237 C   0  0  1  0  0  0  0  0  0  0  0  0
    5.6122  -11.8747   25.8975 C   0  0  0  0  0  0  0  0  0  0  0  0
    7.1513  -13.7820   26.2447 C   0  0  0  0  0  0  0  0  0  0  0  0
    6.4799  -14.5174   25.0951 C   0  0  2  0  0  0  0  0  0  0  0  0
    5.5076  -15.4151   25.7463 N   0  0  0  0  0  0  0  0  0  0  0  0
    7.4706  -15.3470   24.3669 C   0  0  0  0  0  0  0  0  0  0  0  0
    7.6510  -16.5451   24.7432 O   0  0  0  0  0  0  0  0  0  0  0  0
    8.2147  -14.8037   23.2527 N   0  0  0  0  0  0  0  0  0  0  0  0
    9.1783  -15.6332   22.6171 C   0  0  1  0  0  0  0  0  0  0  0  0
    9.6726  -15.0220   21.3492 C   0  0  0  0  0  0  0  0  0  0  0  0
    8.6510  -14.8698   20.3064 C   0  0  0  0  0  0  0  0  0  0  0  0
    7.3282  -15.2016   20.2295 C   0  0  0  0  0  0  0  0  0  0  0  0
    6.7885  -14.8217   19.0332 N   0  0  0  0  0  0  0  0  0  0  0  0
    7.7810  -14.2497   18.3622 C   0  0  0  0  0  0  0  0  0  0  0  0
    8.9012  -14.2625   19.0915 N   0  0  0  0  0  0  0  0  0  0  0  0
   10.3367  -15.9977   23.4785 C   0  0  0  0  0  0  0  0  0  0  0  0
   10.8430  -15.1148   24.2222 O   0  0  0  0  0  0  0  0  0  0  0  0
   11.0034  -21.1379   30.1671 N   0  0  0  0  0  0  0  0  0  0  0  0
   12.3230  -20.6743   29.9029 C   0  0  0  0  0  0  0  0  0  0  0  0
   13.1667  -20.6400   30.8497 N   0  0  0  0  0  0  0  0  0  0  0  0
   12.7250  -20.2455   28.5999 N   0  0  0  0  0  0  0  0  0  0  0  0
   11.7487  -19.7259   27.6712 C   0  0  0  0  0  0  0  0  0  0  0  0
   12.3019  -19.4507   26.3194 C   0  0  0  0  0  0  0  0  0  0  0  0
   11.3828  -18.8752   25.2961 C   0  0  0  0  0  0  0  0  0  0  0  0
   11.8896  -17.7184   24.5117 C   0  0  2  0  0  0  0  0  0  0  0  0
   10.9090  -17.2928   23.5091 N   0  0  0  0  0  0  0  0  0  0  0  0
   13.2260  -17.8243   23.9408 C   0  0  0  0  0  0  0  0  0  0  0  0
   13.3211  -17.9690   22.6694 O   0  0  0  0  0  0  0  0  0  0  0  0
   14.4303  -17.7854   24.6056 O   0  0  0  0  0  0  0  0  0  0  0  0
  2  1  1  1
  2  3  1  0
  4  2  1  0
  5  4  1  0
  5  6  1  1
  7  8  2  0
  7  5  1  0
  9  7  1  0
 10  9  1  0
 11 12  1  0
 10 11  1  6
 12 16  1  0
 13 12  2  0
 13 14  1  0
 14 15  1  0
 16 15  2  0
 17 10  1  0
 18 17  2  0
 19 20  1  0
 20 22  1  0
 21 20  2  0
 22 23  1  0
 23 24  1  0
 24 25  1  0
 26 25  1  6
 26 28  1  0
 26 27  1  0
 27 17  1  0
 28 30  1  0
 29 28  2  0
M  END
$$$$
