LHR.pdb
     RDKit          3D

 30 30  0  0  1  0  0  0  0  0999 V2000
    6.9418  -12.7662   19.2548 C   0  0  0  0  0  0  0  0  0  0  0  0
    8.2196  -13.5801   19.3624 C   0  0  1  0  0  0  0  0  0  0  0  0
    9.3526  -12.6022   19.6408 C   0  0  0  0  0  0  0  0  0  0  0  0
    8.0867  -14.5528   20.4892 C   0  0  0  0  0  0  0  0  0  0  0  0
    9.3611  -15.3355   20.7657 C   0  0  2  0  0  0  0  0  0  0  0  0
    9.7290  -15.9182   19.4616 N   0  0  0  0  0  0  0  0  0  0  0  0
    9.0891  -16.4424   21.7147 C   0  0  0  0  0  0  0  0  0  0  0  0
    8.5227  -16.1701   22.8169 O   0  0  0  0  0  0  0  0  0  0  0  0
    9.4605  -17.8019   21.3923 N   0  0  0  0  0  0  0  0  0  0  0  0
    9.2279  -18.8129   22.3641 C   0  0  1  0  0  0  0  0  0  0  0  0
    8.9158  -20.1236   21.7238 C   0  0  0  0  0  0  0  0  0  0  0  0
    7.6908  -20.1313   20.9153 C   0  0  0  0  0  0  0  0  0  0  0  0
    6.4682  -19.5380   21.0537 C   0  0  0  0  0  0  0  0  0  0  0  0
    5.6494  -19.8337   20.0008 N   0  0  0  0  0  0  0  0  0  0  0  0
    6.3668  -20.6150   19.2023 C   0  0  0  0  0  0  0  0  0  0  0  0
    7.5845  -20.8108   19.7177 N   0  0  0  0  0  0  0  0  0  0  0  0
   10.3360  -18.9886   23.3429 C   0  0  0  0  0  0  0  0  0  0  0  0
   11.5091  -19.1502   22.9106 O   0  0  0  0  0  0  0  0  0  0  0  0
    9.2682  -14.5596   27.5143 N   0  0  0  0  0  0  0  0  0  0  0  0
   10.0794  -14.5708   28.6839 C   0  0  0  0  0  0  0  0  0  0  0  0
    9.6128  -14.0952   29.7636 N   0  0  0  0  0  0  0  0  0  0  0  0
   11.4061  -15.1027   28.6766 N   0  0  0  0  0  0  0  0  0  0  0  0
   11.9370  -15.7179   27.4827 C   0  0  0  0  0  0  0  0  0  0  0  0
   11.3577  -17.0562   27.1958 C   0  0  0  0  0  0  0  0  0  0  0  0
   11.8551  -17.7859   25.9945 C   0  0  0  0  0  0  0  0  0  0  0  0
   11.2419  -19.1101   25.7102 C   0  0  2  0  0  0  0  0  0  0  0  0
   10.1451  -18.9857   24.7461 N   0  0  0  0  0  0  0  0  0  0  0  0
   10.8613  -19.9354   26.8491 C   0  0  0  0  0  0  0  0  0  0  0  0
    9.6117  -20.1664   27.0265 O   0  0  0  0  0  0  0  0  0  0  0  0
   11.6903  -20.5164   27.7814 O   0  0  0  0  0  0  0  0  0  0  0  0
  2  1  1  1
  2  3  1  0
  4  2  1  0
  5  4  1  0
  5  6  1  6
  7  8  2  0
  7  5  1  0
  9  7  1  0
 10  9  1  0
 11 12  1  0
 10 11  1  6
 12 16  1  0
 13 12  2  0
 13 14  1  0
 14 15  1  0
 16 15  2  0
 17 10  1  0
 18 17  2  0
 19 20  1  0
 20 22  1  0
 21 20  2  0
 22 23  1  0
 23 24  1  0
 24 25  1  0
 26 25  1  1
 26 28  1  0
 26 27  1  0
 27 17  1  0
 28 30  1  0
 29 28  2  0
M  END
$$$$
