DTS.pdb
     RDKit          3D

 22 21  0  0  1  0  0  0  0  0999 V2000
   13.2085   -7.6594   -9.0723 N   0  0  0  0  0  0  0  0  0  0  0  0
   14.5048   -7.0568   -9.0799 C   0  0  1  0  0  0  0  0  0  0  0  0
   14.9524   -6.5869   -7.7086 C   0  0  0  0  0  0  0  0  0  0  0  0
   14.2418   -5.3517   -7.3190 C   0  0  0  0  0  0  0  0  0  0  0  0
   14.5633   -4.2496   -7.8347 O   0  0  0  0  0  0  0  0  0  0  0  0
   15.4759   -7.9716   -9.6947 C   0  0  0  0  0  0  0  0  0  0  0  0
   15.2808   -9.2101   -9.6177 O   0  0  0  0  0  0  0  0  0  0  0  0
   13.2170   -5.3729   -6.3874 O   0  0  0  0  0  0  0  0  0  0  0  0
   15.2572   -9.6162  -11.9778 C   0  0  0  0  0  0  0  0  0  0  0  0
   16.4621   -8.8646  -12.4544 C   0  0  1  0  0  0  0  0  0  0  0  0
   16.0069   -7.7935  -13.2218 O   0  0  0  0  0  0  0  0  0  0  0  0
   17.3378   -8.3925  -11.3141 C   0  0  2  0  0  0  0  0  0  0  0  0
   16.6537   -7.5473  -10.3897 N   0  0  0  0  0  0  0  0  0  0  0  0
   18.5801   -7.7640  -11.8274 C   0  0  0  0  0  0  0  0  0  0  0  0
   18.7315   -6.5354  -11.6412 O   0  0  0  0  0  0  0  0  0  0  0  0
   22.7170   -8.3082  -14.3018 O   0  0  0  0  0  0  0  0  0  0  0  0
   21.5808   -8.9883  -13.8258 C   0  0  0  0  0  0  0  0  0  0  0  0
   20.7326   -7.9298  -13.1322 C   0  0  2  0  0  0  0  0  0  0  0  0
   19.5751   -8.5055  -12.5071 N   0  0  0  0  0  0  0  0  0  0  0  0
   20.4085   -6.8196  -14.0553 C   0  0  0  0  0  0  0  0  0  0  0  0
   19.4628   -6.9827  -14.8665 O   0  0  0  0  0  0  0  0  0  0  0  0
   21.0734   -5.6024  -14.0952 O   0  0  0  0  0  0  0  0  0  0  0  0
  2  1  1  1
  2  3  1  0
  3  4  1  0
  4  5  2  0
  4  8  1  0
  6 13  1  0
  6  2  1  0
  7  6  2  0
 10  9  1  1
 10 12  1  0
 11 10  1  0
 12 13  1  6
 12 14  1  0
 14 19  1  0
 14 15  2  0
 17 16  1  0
 18 17  1  6
 19 18  1  0
 20 18  1  0
 20 22  1  0
 21 20  2  0
M  END
$$$$
