DTS.pdb
     RDKit          3D

 22 21  0  0  1  0  0  0  0  0999 V2000
   17.1751  -15.1770  -17.0277 N   0  0  0  0  0  0  0  0  0  0  0  0
   17.1069  -14.1298  -16.0569 C   0  0  1  0  0  0  0  0  0  0  0  0
   17.5816  -14.5594  -14.6815 C   0  0  0  0  0  0  0  0  0  0  0  0
   16.6974  -15.6029  -14.1231 C   0  0  0  0  0  0  0  0  0  0  0  0
   17.1861  -16.6799  -13.6928 O   0  0  0  0  0  0  0  0  0  0  0  0
   17.8295  -12.9485  -16.5468 C   0  0  0  0  0  0  0  0  0  0  0  0
   18.9144  -13.1076  -17.1598 O   0  0  0  0  0  0  0  0  0  0  0  0
   15.3250  -15.4268  -14.0599 O   0  0  0  0  0  0  0  0  0  0  0  0
   16.8507  -10.3798  -19.0421 C   0  0  0  0  0  0  0  0  0  0  0  0
   17.3039   -9.6241  -17.8308 C   0  0  1  0  0  0  0  0  0  0  0  0
   16.1653   -9.1118  -17.2106 O   0  0  0  0  0  0  0  0  0  0  0  0
   18.1094  -10.4834  -16.8807 C   0  0  2  0  0  0  0  0  0  0  0  0
   17.3798  -11.6001  -16.3732 N   0  0  0  0  0  0  0  0  0  0  0  0
   18.6953   -9.6617  -15.7929 C   0  0  0  0  0  0  0  0  0  0  0  0
   18.1866   -9.7558  -14.6529 O   0  0  0  0  0  0  0  0  0  0  0  0
   22.4649   -7.1236  -14.2214 O   0  0  0  0  0  0  0  0  0  0  0  0
   21.9513   -7.9104  -15.2688 C   0  0  0  0  0  0  0  0  0  0  0  0
   20.4637   -8.0591  -14.9757 C   0  0  2  0  0  0  0  0  0  0  0  0
   19.7914   -8.7938  -16.0102 N   0  0  0  0  0  0  0  0  0  0  0  0
   19.8439   -6.7454  -14.6928 C   0  0  0  0  0  0  0  0  0  0  0  0
   19.2901   -6.1368  -15.6424 O   0  0  0  0  0  0  0  0  0  0  0  0
   19.8268   -6.1284  -13.4501 O   0  0  0  0  0  0  0  0  0  0  0  0
  2  1  1  6
  2  3  1  0
  3  4  1  0
  4  5  2  0
  4  8  1  0
  6 13  1  0
  6  2  1  0
  7  6  2  0
 10  9  1  6
 10 12  1  0
 11 10  1  0
 12 13  1  1
 12 14  1  0
 14 19  1  0
 14 15  2  0
 17 16  1  0
 18 17  1  6
 19 18  1  0
 20 18  1  0
 20 22  1  0
 21 20  2  0
M  END
$$$$
