DTS.pdb
     RDKit          3D

 22 21  0  0  1  0  0  0  0  0999 V2000
   16.9354  -12.3226  -16.4861 N   0  0  0  0  0  0  0  0  0  0  0  0
   18.2690  -11.8345  -16.3222 C   0  0  1  0  0  0  0  0  0  0  0  0
   19.1368  -12.0462  -17.5486 C   0  0  0  0  0  0  0  0  0  0  0  0
   19.5720  -13.4545  -17.6471 C   0  0  0  0  0  0  0  0  0  0  0  0
   19.5481  -14.1948  -16.6296 O   0  0  0  0  0  0  0  0  0  0  0  0
   18.2365  -10.4265  -15.9047 C   0  0  0  0  0  0  0  0  0  0  0  0
   17.5500   -9.6094  -16.5673 O   0  0  0  0  0  0  0  0  0  0  0  0
   20.0131  -13.9905  -18.8456 O   0  0  0  0  0  0  0  0  0  0  0  0
   16.8515   -8.5889  -13.1208 C   0  0  0  0  0  0  0  0  0  0  0  0
   18.2934   -8.1840  -13.1473 C   0  0  1  0  0  0  0  0  0  0  0  0
   18.9250   -8.8264  -12.0834 O   0  0  0  0  0  0  0  0  0  0  0  0
   18.9624   -8.5121  -14.4644 C   0  0  2  0  0  0  0  0  0  0  0  0
   18.9448   -9.9050  -14.7748 N   0  0  0  0  0  0  0  0  0  0  0  0
   20.3342   -7.9488  -14.5149 C   0  0  0  0  0  0  0  0  0  0  0  0
   21.2717   -8.7234  -14.8118 O   0  0  0  0  0  0  0  0  0  0  0  0
   23.4087   -5.3491  -16.1709 O   0  0  0  0  0  0  0  0  0  0  0  0
   22.1768   -6.0133  -16.0249 C   0  0  0  0  0  0  0  0  0  0  0  0
   21.8385   -5.9240  -14.5422 C   0  0  2  0  0  0  0  0  0  0  0  0
   20.6005   -6.5864  -14.2412 N   0  0  0  0  0  0  0  0  0  0  0  0
   21.8825   -4.5221  -14.0705 C   0  0  0  0  0  0  0  0  0  0  0  0
   23.0074   -3.9773  -13.9417 O   0  0  0  0  0  0  0  0  0  0  0  0
   20.7689   -3.7563  -13.7567 O   0  0  0  0  0  0  0  0  0  0  0  0
  2  1  1  6
  2  3  1  0
  3  4  1  0
  4  5  2  0
  4  8  1  0
  6 13  1  0
  6  2  1  0
  7  6  2  0
 10  9  1  6
 10 12  1  0
 11 10  1  0
 12 13  1  1
 12 14  1  0
 14 19  1  0
 14 15  2  0
 17 16  1  0
 18 17  1  6
 19 18  1  0
 20 18  1  0
 20 22  1  0
 21 20  2  0
M  END
$$$$
