DTS.pdb
     RDKit          3D

 22 21  0  0  1  0  0  0  0  0999 V2000
   13.3966   -9.4297  -10.4329 N   0  0  0  0  0  0  0  0  0  0  0  0
   14.7958   -9.6776  -10.5898 C   0  0  1  0  0  0  0  0  0  0  0  0
   15.0981  -10.7833  -11.5837 C   0  0  0  0  0  0  0  0  0  0  0  0
   14.5251  -12.0675  -11.1308 C   0  0  0  0  0  0  0  0  0  0  0  0
   14.7902  -12.5060   -9.9813 O   0  0  0  0  0  0  0  0  0  0  0  0
   15.4886   -8.4270  -10.9269 C   0  0  0  0  0  0  0  0  0  0  0  0
   15.0330   -7.7067  -11.8498 O   0  0  0  0  0  0  0  0  0  0  0  0
   13.6927  -12.8137  -11.9485 O   0  0  0  0  0  0  0  0  0  0  0  0
   15.7663   -5.3274   -9.2209 C   0  0  0  0  0  0  0  0  0  0  0  0
   17.1887   -5.6687   -9.5435 C   0  0  1  0  0  0  0  0  0  0  0  0
   17.7953   -6.0840   -8.3591 O   0  0  0  0  0  0  0  0  0  0  0  0
   17.2999   -6.7266  -10.6199 C   0  0  2  0  0  0  0  0  0  0  0  0
   16.6703   -7.9581  -10.2681 N   0  0  0  0  0  0  0  0  0  0  0  0
   18.7140   -6.9212  -11.0251 C   0  0  0  0  0  0  0  0  0  0  0  0
   19.2481   -8.0232  -10.7655 O   0  0  0  0  0  0  0  0  0  0  0  0
   21.8122   -7.3224  -14.0493 O   0  0  0  0  0  0  0  0  0  0  0  0
   20.5327   -7.1769  -13.4822 C   0  0  0  0  0  0  0  0  0  0  0  0
   20.6905   -6.1355  -12.3814 C   0  0  2  0  0  0  0  0  0  0  0  0
   19.4556   -5.9120  -11.6836 N   0  0  0  0  0  0  0  0  0  0  0  0
   21.2988   -4.8935  -12.9080 C   0  0  0  0  0  0  0  0  0  0  0  0
   20.5404   -4.0424  -13.4365 O   0  0  0  0  0  0  0  0  0  0  0  0
   22.6527   -4.5935  -12.8632 O   0  0  0  0  0  0  0  0  0  0  0  0
  2  1  1  6
  2  3  1  0
  3  4  1  0
  4  5  2  0
  4  8  1  0
  6 13  1  0
  6  2  1  0
  7  6  2  0
 10  9  1  1
 10 12  1  0
 11 10  1  0
 12 13  1  1
 12 14  1  0
 14 19  1  0
 14 15  2  0
 17 16  1  0
 18 17  1  6
 19 18  1  0
 20 18  1  0
 20 22  1  0
 21 20  2  0
M  END
$$$$
