DTS.pdb
     RDKit          3D

 22 21  0  0  1  0  0  0  0  0999 V2000
   16.5652  -11.3090  -17.1781 N   0  0  0  0  0  0  0  0  0  0  0  0
   17.3798  -10.9080  -16.0739 C   0  0  1  0  0  0  0  0  0  0  0  0
   18.4836  -11.8992  -15.7558 C   0  0  0  0  0  0  0  0  0  0  0  0
   17.9186  -13.1866  -15.3023 C   0  0  0  0  0  0  0  0  0  0  0  0
   18.0722  -14.2233  -15.9990 O   0  0  0  0  0  0  0  0  0  0  0  0
   17.9022   -9.5548  -16.3057 C   0  0  0  0  0  0  0  0  0  0  0  0
   18.4924   -9.3055  -17.3862 O   0  0  0  0  0  0  0  0  0  0  0  0
   17.2132  -13.2857  -14.1144 O   0  0  0  0  0  0  0  0  0  0  0  0
   16.2338   -6.4787  -16.9906 C   0  0  0  0  0  0  0  0  0  0  0  0
   17.1277   -6.1549  -15.8331 C   0  0  1  0  0  0  0  0  0  0  0  0
   16.3271   -6.0971  -14.6933 O   0  0  0  0  0  0  0  0  0  0  0  0
   18.2482   -7.1588  -15.6690 C   0  0  2  0  0  0  0  0  0  0  0  0
   17.7867   -8.4760  -15.3713 N   0  0  0  0  0  0  0  0  0  0  0  0
   19.2439   -6.6815  -14.6778 C   0  0  0  0  0  0  0  0  0  0  0  0
   19.6003   -7.4778  -13.7800 O   0  0  0  0  0  0  0  0  0  0  0  0
   23.1346   -5.3272  -13.3324 O   0  0  0  0  0  0  0  0  0  0  0  0
   22.1028   -5.8845  -14.1099 C   0  0  0  0  0  0  0  0  0  0  0  0
   20.9183   -4.9392  -13.9538 C   0  0  2  0  0  0  0  0  0  0  0  0
   19.7876   -5.3761  -14.7237 N   0  0  0  0  0  0  0  0  0  0  0  0
   21.3135   -3.5411  -14.2350 C   0  0  0  0  0  0  0  0  0  0  0  0
   21.1654   -3.1095  -15.4058 O   0  0  0  0  0  0  0  0  0  0  0  0
   21.8393   -2.6626  -13.2985 O   0  0  0  0  0  0  0  0  0  0  0  0
  2  1  1  6
  2  3  1  0
  3  4  1  0
  4  5  2  0
  4  8  1  0
  6 13  1  0
  6  2  1  0
  7  6  2  0
 10  9  1  6
 10 12  1  0
 11 10  1  0
 12 13  1  1
 12 14  1  0
 14 19  1  0
 14 15  2  0
 17 16  1  0
 18 17  1  6
 19 18  1  0
 20 18  1  0
 20 22  1  0
 21 20  2  0
M  END
$$$$
