DTS.pdb
     RDKit          3D

 22 21  0  0  1  0  0  0  0  0999 V2000
   17.7884  -12.0091  -15.9714 N   0  0  0  0  0  0  0  0  0  0  0  0
   17.9578  -10.7044  -16.5303 C   0  0  1  0  0  0  0  0  0  0  0  0
   16.6663  -10.1097  -17.0598 C   0  0  0  0  0  0  0  0  0  0  0  0
   16.1342  -10.9191  -18.1753 C   0  0  0  0  0  0  0  0  0  0  0  0
   16.9193  -11.5682  -18.9142 O   0  0  0  0  0  0  0  0  0  0  0  0
   18.6111   -9.8243  -15.5524 C   0  0  0  0  0  0  0  0  0  0  0  0
   18.1473   -9.7568  -14.3869 O   0  0  0  0  0  0  0  0  0  0  0  0
   14.7752  -10.9836  -18.4348 O   0  0  0  0  0  0  0  0  0  0  0  0
   21.5936  -10.2585  -13.8386 C   0  0  0  0  0  0  0  0  0  0  0  0
   21.7533   -8.8805  -14.4038 C   0  0  1  0  0  0  0  0  0  0  0  0
   22.6346   -8.9724  -15.4800 O   0  0  0  0  0  0  0  0  0  0  0  0
   20.4334   -8.2706  -14.8232 C   0  0  2  0  0  0  0  0  0  0  0  0
   19.7616   -9.0200  -15.8350 N   0  0  0  0  0  0  0  0  0  0  0  0
   20.6074   -6.8483  -15.2084 C   0  0  0  0  0  0  0  0  0  0  0  0
   20.6748   -6.5792  -16.4291 O   0  0  0  0  0  0  0  0  0  0  0  0
   20.2140   -2.2216  -14.1746 O   0  0  0  0  0  0  0  0  0  0  0  0
   20.0004   -3.5297  -13.7021 C   0  0  0  0  0  0  0  0  0  0  0  0
   20.8806   -4.4242  -14.5658 C   0  0  2  0  0  0  0  0  0  0  0  0
   20.6967   -5.8126  -14.2485 N   0  0  0  0  0  0  0  0  0  0  0  0
   22.2949   -3.9927  -14.5090 C   0  0  0  0  0  0  0  0  0  0  0  0
   23.0245   -4.4771  -13.6080 O   0  0  0  0  0  0  0  0  0  0  0  0
   22.8827   -3.0871  -15.3805 O   0  0  0  0  0  0  0  0  0  0  0  0
  2  1  1  1
  2  3  1  0
  3  4  1  0
  4  5  2  0
  4  8  1  0
  6 13  1  0
  6  2  1  0
  7  6  2  0
 10  9  1  6
 10 12  1  0
 11 10  1  0
 12 13  1  6
 12 14  1  0
 14 19  1  0
 14 15  2  0
 17 16  1  0
 18 17  1  1
 19 18  1  0
 20 18  1  0
 20 22  1  0
 21 20  2  0
M  END
$$$$
