DTS.pdb
     RDKit          3D

 22 21  0  0  1  0  0  0  0  0999 V2000
   18.2698  -12.5462  -16.9286 N   0  0  0  0  0  0  0  0  0  0  0  0
   18.0697  -11.1508  -16.6909 C   0  0  1  0  0  0  0  0  0  0  0  0
   16.9090  -10.8650  -15.7567 C   0  0  0  0  0  0  0  0  0  0  0  0
   15.6515  -11.4222  -16.2959 C   0  0  0  0  0  0  0  0  0  0  0  0
   15.2517  -11.0846  -17.4405 O   0  0  0  0  0  0  0  0  0  0  0  0
   19.3206  -10.5411  -16.2206 C   0  0  0  0  0  0  0  0  0  0  0  0
   19.9583  -11.0963  -15.2915 O   0  0  0  0  0  0  0  0  0  0  0  0
   14.8885  -12.3183  -15.5656 O   0  0  0  0  0  0  0  0  0  0  0  0
   22.6288  -10.2407  -17.5737 C   0  0  0  0  0  0  0  0  0  0  0  0
   22.2332   -8.8342  -17.2439 C   0  0  1  0  0  0  0  0  0  0  0  0
   21.9009   -8.2042  -18.4422 O   0  0  0  0  0  0  0  0  0  0  0  0
   21.0909   -8.7716  -16.2533 C   0  0  2  0  0  0  0  0  0  0  0  0
   19.8787   -9.3349  -16.7533 N   0  0  0  0  0  0  0  0  0  0  0  0
   20.8970   -7.3866  -15.7574 C   0  0  0  0  0  0  0  0  0  0  0  0
   19.9337   -6.7326  -16.2171 O   0  0  0  0  0  0  0  0  0  0  0  0
   22.1529   -3.8571  -12.7213 O   0  0  0  0  0  0  0  0  0  0  0  0
   22.2842   -5.2310  -12.9954 C   0  0  0  0  0  0  0  0  0  0  0  0
   21.7033   -5.4260  -14.3902 C   0  0  2  0  0  0  0  0  0  0  0  0
   21.7570   -6.8017  -14.7981 N   0  0  0  0  0  0  0  0  0  0  0  0
   22.3308   -4.5022  -15.3611 C   0  0  0  0  0  0  0  0  0  0  0  0
   23.4086   -4.8560  -15.9016 O   0  0  0  0  0  0  0  0  0  0  0  0
   21.8172   -3.2653  -15.7240 O   0  0  0  0  0  0  0  0  0  0  0  0
  2  1  1  1
  2  3  1  0
  3  4  1  0
  4  5  2  0
  4  8  1  0
  6 13  1  0
  6  2  1  0
  7  6  2  0
 10  9  1  6
 10 12  1  0
 11 10  1  0
 12 13  1  6
 12 14  1  0
 14 19  1  0
 14 15  2  0
 17 16  1  0
 18 17  1  1
 19 18  1  0
 20 18  1  0
 20 22  1  0
 21 20  2  0
M  END
$$$$
