DTS.pdb
     RDKit          3D

 22 21  0  0  1  0  0  0  0  0999 V2000
   13.8369   -8.1538   -8.7051 N   0  0  0  0  0  0  0  0  0  0  0  0
   14.7987   -8.6511   -9.6385 C   0  0  1  0  0  0  0  0  0  0  0  0
   14.1784   -9.4683  -10.7562 C   0  0  0  0  0  0  0  0  0  0  0  0
   13.7269  -10.7833  -10.2569 C   0  0  0  0  0  0  0  0  0  0  0  0
   12.5332  -10.9435   -9.8919 O   0  0  0  0  0  0  0  0  0  0  0  0
   15.6144   -7.5425  -10.1517 C   0  0  0  0  0  0  0  0  0  0  0  0
   15.0625   -6.6445  -10.8351 O   0  0  0  0  0  0  0  0  0  0  0  0
   14.5938  -11.8606  -10.1773 O   0  0  0  0  0  0  0  0  0  0  0  0
   16.9447   -4.7018   -8.6043 C   0  0  0  0  0  0  0  0  0  0  0  0
   18.1394   -5.3229   -9.2606 C   0  0  1  0  0  0  0  0  0  0  0  0
   18.8668   -5.9759   -8.2667 O   0  0  0  0  0  0  0  0  0  0  0  0
   17.7586   -6.2706  -10.3773 C   0  0  2  0  0  0  0  0  0  0  0  0
   17.0219   -7.4069   -9.9266 N   0  0  0  0  0  0  0  0  0  0  0  0
   18.9514   -6.6601  -11.1692 C   0  0  0  0  0  0  0  0  0  0  0  0
   19.1611   -7.8817  -11.3444 O   0  0  0  0  0  0  0  0  0  0  0  0
   21.3002   -7.0635  -14.7418 O   0  0  0  0  0  0  0  0  0  0  0  0
   20.2193   -6.7634  -13.8924 C   0  0  0  0  0  0  0  0  0  0  0  0
   20.8200   -5.9896  -12.7256 C   0  0  2  0  0  0  0  0  0  0  0  0
   19.8372   -5.7032  -11.7186 N   0  0  0  0  0  0  0  0  0  0  0  0
   21.5403   -4.7871  -13.1999 C   0  0  0  0  0  0  0  0  0  0  0  0
   20.8804   -3.7310  -13.3671 O   0  0  0  0  0  0  0  0  0  0  0  0
   22.8989   -4.7349  -13.4767 O   0  0  0  0  0  0  0  0  0  0  0  0
  2  1  1  1
  2  3  1  0
  3  4  1  0
  4  5  2  0
  4  8  1  0
  6 13  1  0
  6  2  1  0
  7  6  2  0
 10  9  1  1
 10 12  1  0
 11 10  1  0
 12 13  1  1
 12 14  1  0
 14 19  1  0
 14 15  2  0
 17 16  1  0
 18 17  1  6
 19 18  1  0
 20 18  1  0
 20 22  1  0
 21 20  2  0
M  END
$$$$
