CAC.pdb
     RDKit          3D

 18 17  0  0  1  0  0  0  0  0999 V2000
    7.4120  -15.2833   18.6483 N   0  0  0  0  0  0  0  0  0  0  0  0
    8.1228  -14.5908   19.6760 C   0  0  1  0  0  0  0  0  0  0  0  0
    7.8847  -13.0944   19.4568 C   0  0  0  0  0  0  0  0  0  0  0  0
    8.8309  -12.4950   18.0313 S   0  0  0  0  0  0  0  0  0  0  0  0
    7.7039  -15.0183   21.0264 C   0  0  0  0  0  0  0  0  0  0  0  0
    6.5167  -15.1423   21.3551 O   0  0  0  0  0  0  0  0  0  0  0  0
    9.1146  -17.0929   23.6068 C   0  0  0  0  0  0  0  0  0  0  0  0
    8.4305  -15.7751   23.3115 C   0  0  2  0  0  0  0  0  0  0  0  0
    8.7113  -15.3000   21.9917 N   0  0  0  0  0  0  0  0  0  0  0  0
    8.7668  -14.7471   24.3170 C   0  0  0  0  0  0  0  0  0  0  0  0
    9.8227  -14.0892   24.1877 O   0  0  0  0  0  0  0  0  0  0  0  0
    7.8809  -14.5347   25.4029 N   0  0  0  0  0  0  0  0  0  0  0  0
    8.1996  -13.5294   26.3831 C   0  0  1  0  0  0  0  0  0  0  0  0
    7.0712  -12.5139   26.4420 C   0  0  0  0  0  0  0  0  0  0  0  0
    5.5839  -13.2654   27.1469 S   0  0  0  0  0  0  0  0  0  0  0  0
    8.4559  -14.1363   27.7037 C   0  0  0  0  0  0  0  0  0  0  0  0
    8.2165  -15.3584   27.8639 O   0  0  0  0  0  0  0  0  0  0  0  0
    8.9459  -13.4181   28.7652 O   0  0  0  0  0  0  0  0  0  0  0  0
  2  1  1  6
  2  3  1  0
  4  3  1  0
  5  2  1  0
  6  5  2  0
  8  7  1  1
  8  9  1  0
  9  5  1  0
 10  8  1  0
 10 12  1  0
 11 10  2  0
 13 14  1  1
 13 12  1  0
 13 16  1  0
 14 15  1  0
 16 18  1  0
 17 16  2  0
M  END
$$$$
