CAC.pdb
     RDKit          3D

 18 17  0  0  1  0  0  0  0  0999 V2000
    7.2450  -15.4742   18.1182 N   0  0  0  0  0  0  0  0  0  0  0  0
    8.0556  -14.6997   19.0035 C   0  0  1  0  0  0  0  0  0  0  0  0
    7.5159  -13.2674   18.9698 C   0  0  0  0  0  0  0  0  0  0  0  0
    8.4775  -12.1922   20.0679 S   0  0  0  0  0  0  0  0  0  0  0  0
    8.0619  -15.2488   20.3748 C   0  0  0  0  0  0  0  0  0  0  0  0
    7.0256  -15.5067   21.0012 O   0  0  0  0  0  0  0  0  0  0  0  0
   10.8233  -16.5674   22.6015 C   0  0  0  0  0  0  0  0  0  0  0  0
    9.4487  -15.9911   22.3365 C   0  0  2  0  0  0  0  0  0  0  0  0
    9.3161  -15.4916   21.0025 N   0  0  0  0  0  0  0  0  0  0  0  0
    9.0941  -14.9481   23.3201 C   0  0  0  0  0  0  0  0  0  0  0  0
    9.3896  -13.7567   23.0798 O   0  0  0  0  0  0  0  0  0  0  0  0
    8.4272  -15.3282   24.5117 N   0  0  0  0  0  0  0  0  0  0  0  0
    8.0688  -14.3149   25.4697 C   0  0  1  0  0  0  0  0  0  0  0  0
    7.0403  -13.3838   24.8505 C   0  0  0  0  0  0  0  0  0  0  0  0
    6.3338  -12.2971   26.1129 S   0  0  0  0  0  0  0  0  0  0  0  0
    7.5734  -14.9182   26.7222 C   0  0  0  0  0  0  0  0  0  0  0  0
    7.7444  -14.2983   27.8006 O   0  0  0  0  0  0  0  0  0  0  0  0
    6.9324  -16.1309   26.7559 O   0  0  0  0  0  0  0  0  0  0  0  0
  2  1  1  6
  2  3  1  0
  4  3  1  0
  5  2  1  0
  6  5  2  0
  8  7  1  1
  8  9  1  0
  9  5  1  0
 10  8  1  0
 10 12  1  0
 11 10  2  0
 13 14  1  6
 13 12  1  0
 13 16  1  0
 14 15  1  0
 16 18  1  0
 17 16  2  0
M  END
$$$$
