CAC.pdb
     RDKit          3D

 18 17  0  0  1  0  0  0  0  0999 V2000
    7.3429  -16.1664   18.6643 N   0  0  0  0  0  0  0  0  0  0  0  0
    8.3167  -16.0170   19.6988 C   0  0  1  0  0  0  0  0  0  0  0  0
    9.0471  -14.6964   19.4411 C   0  0  0  0  0  0  0  0  0  0  0  0
    7.9422  -13.2860   19.7181 S   0  0  0  0  0  0  0  0  0  0  0  0
    7.7078  -16.0507   21.0442 C   0  0  0  0  0  0  0  0  0  0  0  0
    6.5784  -15.6031   21.2832 O   0  0  0  0  0  0  0  0  0  0  0  0
    8.6198  -17.8158   24.2424 C   0  0  0  0  0  0  0  0  0  0  0  0
    7.9822  -16.6864   23.4614 C   0  0  2  0  0  0  0  0  0  0  0  0
    8.4540  -16.6235   22.1123 N   0  0  0  0  0  0  0  0  0  0  0  0
    8.1617  -15.3853   24.1365 C   0  0  0  0  0  0  0  0  0  0  0  0
    9.1307  -14.6612   23.8185 O   0  0  0  0  0  0  0  0  0  0  0  0
    7.2281  -14.9931   25.1283 N   0  0  0  0  0  0  0  0  0  0  0  0
    7.4074  -13.7339   25.8030 C   0  0  1  0  0  0  0  0  0  0  0  0
    6.0473  -13.1102   26.0659 C   0  0  0  0  0  0  0  0  0  0  0  0
    6.2238  -11.6133   27.0668 S   0  0  0  0  0  0  0  0  0  0  0  0
    8.1793  -13.9033   27.0494 C   0  0  0  0  0  0  0  0  0  0  0  0
    8.7306  -12.8975   27.5603 O   0  0  0  0  0  0  0  0  0  0  0  0
    8.3189  -15.1171   27.6737 O   0  0  0  0  0  0  0  0  0  0  0  0
  2  1  1  6
  2  3  1  0
  4  3  1  0
  5  2  1  0
  6  5  2  0
  8  7  1  1
  8  9  1  0
  9  5  1  0
 10  8  1  0
 10 12  1  0
 11 10  2  0
 13 14  1  1
 13 12  1  0
 13 16  1  0
 14 15  1  0
 16 18  1  0
 17 16  2  0
M  END
$$$$
