CAC.pdb
     RDKit          3D

 18 17  0  0  1  0  0  0  0  0999 V2000
    8.0112  -19.5067   21.9902 N   0  0  0  0  0  0  0  0  0  0  0  0
    7.3227  -18.4604   22.6773 C   0  0  1  0  0  0  0  0  0  0  0  0
    7.1561  -18.9112   24.1309 C   0  0  0  0  0  0  0  0  0  0  0  0
    6.1066  -20.3861   24.2302 S   0  0  0  0  0  0  0  0  0  0  0  0
    8.0366  -17.1706   22.5840 C   0  0  0  0  0  0  0  0  0  0  0  0
    9.2660  -17.0724   22.6926 O   0  0  0  0  0  0  0  0  0  0  0  0
    6.8527  -13.6287   21.8732 C   0  0  0  0  0  0  0  0  0  0  0  0
    7.8433  -14.6760   22.3355 C   0  0  2  0  0  0  0  0  0  0  0  0
    7.2757  -15.9889   22.3593 N   0  0  0  0  0  0  0  0  0  0  0  0
    8.4243  -14.3365   23.6501 C   0  0  0  0  0  0  0  0  0  0  0  0
    9.6676  -14.3372   23.7864 O   0  0  0  0  0  0  0  0  0  0  0  0
    7.5539  -14.0188   24.7227 N   0  0  0  0  0  0  0  0  0  0  0  0
    8.1099  -13.5262   25.9561 C   0  0  1  0  0  0  0  0  0  0  0  0
    7.2180  -12.4234   26.5006 C   0  0  0  0  0  0  0  0  0  0  0  0
    5.4947  -12.9726   26.5473 S   0  0  0  0  0  0  0  0  0  0  0  0
    8.2855  -14.6176   26.9340 C   0  0  0  0  0  0  0  0  0  0  0  0
    7.8129  -15.7498   26.6671 O   0  0  0  0  0  0  0  0  0  0  0  0
    8.9452  -14.4448   28.1246 O   0  0  0  0  0  0  0  0  0  0  0  0
  2  1  1  6
  2  3  1  0
  4  3  1  0
  5  2  1  0
  6  5  2  0
  8  7  1  1
  8  9  1  0
  9  5  1  0
 10  8  1  0
 10 12  1  0
 11 10  2  0
 13 14  1  1
 13 12  1  0
 13 16  1  0
 14 15  1  0
 16 18  1  0
 17 16  2  0
M  END
$$$$
