CAC.pdb
     RDKit          3D

 18 17  0  0  1  0  0  0  0  0999 V2000
    6.9573  -15.3643   18.7104 N   0  0  0  0  0  0  0  0  0  0  0  0
    7.7881  -14.6775   19.6478 C   0  0  1  0  0  0  0  0  0  0  0  0
    7.4628  -13.1863   19.5284 C   0  0  0  0  0  0  0  0  0  0  0  0
    8.4322  -12.2197   20.7169 S   0  0  0  0  0  0  0  0  0  0  0  0
    7.5945  -15.1699   21.0270 C   0  0  0  0  0  0  0  0  0  0  0  0
    6.4766  -15.3803   21.5158 O   0  0  0  0  0  0  0  0  0  0  0  0
    9.6186  -17.0249   23.4484 C   0  0  0  0  0  0  0  0  0  0  0  0
    8.6834  -15.8640   23.1845 C   0  0  2  0  0  0  0  0  0  0  0  0
    8.7455  -15.4127   21.8283 N   0  0  0  0  0  0  0  0  0  0  0  0
    8.9249  -14.7445   24.1169 C   0  0  0  0  0  0  0  0  0  0  0  0
    9.5149  -13.7221   23.7033 O   0  0  0  0  0  0  0  0  0  0  0  0
    8.4797  -14.8609   25.4575 N   0  0  0  0  0  0  0  0  0  0  0  0
    8.7576  -13.7951   26.3848 C   0  0  1  0  0  0  0  0  0  0  0  0
    7.7984  -12.6457   26.1263 C   0  0  0  0  0  0  0  0  0  0  0  0
    6.0885  -13.1862   26.3664 S   0  0  0  0  0  0  0  0  0  0  0  0
    8.6763  -14.2692   27.7801 C   0  0  0  0  0  0  0  0  0  0  0  0
    8.9337  -13.4635   28.7081 O   0  0  0  0  0  0  0  0  0  0  0  0
    8.3305  -15.5566   28.1048 O   0  0  0  0  0  0  0  0  0  0  0  0
  2  1  1  6
  2  3  1  0
  4  3  1  0
  5  2  1  0
  6  5  2  0
  8  7  1  6
  8  9  1  0
  9  5  1  0
 10  8  1  0
 10 12  1  0
 11 10  2  0
 13 14  1  1
 13 12  1  0
 13 16  1  0
 14 15  1  0
 16 18  1  0
 17 16  2  0
M  END
$$$$
