CAC.pdb
     RDKit          3D

 18 17  0  0  1  0  0  0  0  0999 V2000
    6.4773  -19.1760   24.0968 N   0  0  0  0  0  0  0  0  0  0  0  0
    6.6518  -18.3081   25.2180 C   0  0  1  0  0  0  0  0  0  0  0  0
    7.5205  -19.0550   26.2335 C   0  0  0  0  0  0  0  0  0  0  0  0
    6.5071  -19.7138   27.5848 S   0  0  0  0  0  0  0  0  0  0  0  0
    7.2527  -17.0152   24.8318 C   0  0  0  0  0  0  0  0  0  0  0  0
    8.1496  -16.9163   23.9841 O   0  0  0  0  0  0  0  0  0  0  0  0
    6.2512  -13.4434   25.5479 C   0  0  0  0  0  0  0  0  0  0  0  0
    7.2285  -14.5174   25.1198 C   0  0  2  0  0  0  0  0  0  0  0  0
    6.7782  -15.8311   25.4633 N   0  0  0  0  0  0  0  0  0  0  0  0
    8.5809  -14.2731   25.6605 C   0  0  0  0  0  0  0  0  0  0  0  0
    9.1666  -13.2041   25.3798 O   0  0  0  0  0  0  0  0  0  0  0  0
    9.1781  -15.2596   26.4845 N   0  0  0  0  0  0  0  0  0  0  0  0
   10.4777  -15.0086   27.0512 C   0  0  1  0  0  0  0  0  0  0  0  0
   10.3759  -13.8657   28.0469 C   0  0  0  0  0  0  0  0  0  0  0  0
    8.8806  -14.0366   29.0512 S   0  0  0  0  0  0  0  0  0  0  0  0
   11.0306  -16.2267   27.6747 C   0  0  0  0  0  0  0  0  0  0  0  0
   10.2966  -17.2405   27.7754 O   0  0  0  0  0  0  0  0  0  0  0  0
   12.3160  -16.2964   28.1494 O   0  0  0  0  0  0  0  0  0  0  0  0
  2  1  1  6
  2  3  1  0
  4  3  1  0
  5  2  1  0
  6  5  2  0
  8  7  1  1
  8  9  1  0
  9  5  1  0
 10  8  1  0
 10 12  1  0
 11 10  2  0
 13 14  1  1
 13 12  1  0
 13 16  1  0
 14 15  1  0
 16 18  1  0
 17 16  2  0
M  END
$$$$
