CAC.pdb
     RDKit          3D

 18 17  0  0  1  0  0  0  0  0999 V2000
    5.6424  -16.3063   20.1717 N   0  0  0  0  0  0  0  0  0  0  0  0
    6.8182  -15.9586   20.9048 C   0  0  1  0  0  0  0  0  0  0  0  0
    7.1460  -14.5025   20.5641 C   0  0  0  0  0  0  0  0  0  0  0  0
    8.6432  -13.9609   21.4311 S   0  0  0  0  0  0  0  0  0  0  0  0
    6.6445  -16.1534   22.3587 C   0  0  0  0  0  0  0  0  0  0  0  0
    5.6593  -15.7349   22.9809 O   0  0  0  0  0  0  0  0  0  0  0  0
    7.4210  -18.3574   24.9905 C   0  0  0  0  0  0  0  0  0  0  0  0
    7.6908  -16.9502   24.5018 C   0  0  2  0  0  0  0  0  0  0  0  0
    7.6557  -16.8536   23.0749 N   0  0  0  0  0  0  0  0  0  0  0  0
    8.9665  -16.4239   25.0276 C   0  0  0  0  0  0  0  0  0  0  0  0
    9.6792  -15.7048   24.2932 O   0  0  0  0  0  0  0  0  0  0  0  0
    9.3479  -16.7497   26.3533 N   0  0  0  0  0  0  0  0  0  0  0  0
    9.9954  -15.7509   27.1634 C   0  0  1  0  0  0  0  0  0  0  0  0
    9.0857  -14.5403   27.2851 C   0  0  0  0  0  0  0  0  0  0  0  0
    9.9257  -13.2084   28.1764 S   0  0  0  0  0  0  0  0  0  0  0  0
   10.3601  -16.2936   28.4866 C   0  0  0  0  0  0  0  0  0  0  0  0
    9.5601  -17.0716   29.0621 O   0  0  0  0  0  0  0  0  0  0  0  0
   11.5397  -15.9819   29.1142 O   0  0  0  0  0  0  0  0  0  0  0  0
  2  1  1  6
  2  3  1  0
  4  3  1  0
  5  2  1  0
  6  5  2  0
  8  7  1  6
  8  9  1  0
  9  5  1  0
 10  8  1  0
 10 12  1  0
 11 10  2  0
 13 14  1  1
 13 12  1  0
 13 16  1  0
 14 15  1  0
 16 18  1  0
 17 16  2  0
M  END
$$$$
