CAC.pdb
     RDKit          3D

 18 17  0  0  1  0  0  0  0  0999 V2000
    5.1899  -13.5819   26.2449 N   0  0  0  0  0  0  0  0  0  0  0  0
    6.2993  -13.2171   25.4221 C   0  0  1  0  0  0  0  0  0  0  0  0
    7.0298  -12.0750   26.1331 C   0  0  0  0  0  0  0  0  0  0  0  0
    5.9426  -10.6369   26.3242 S   0  0  0  0  0  0  0  0  0  0  0  0
    7.1971  -14.3606   25.1607 C   0  0  0  0  0  0  0  0  0  0  0  0
    7.4145  -15.2499   25.9942 O   0  0  0  0  0  0  0  0  0  0  0  0
    9.1336  -15.4349   22.0693 C   0  0  0  0  0  0  0  0  0  0  0  0
    8.7388  -15.4943   23.5296 C   0  0  2  0  0  0  0  0  0  0  0  0
    7.8402  -14.4423   23.8935 N   0  0  0  0  0  0  0  0  0  0  0  0
    9.9203  -15.4990   24.4157 C   0  0  0  0  0  0  0  0  0  0  0  0
   10.8083  -14.6332   24.2536 O   0  0  0  0  0  0  0  0  0  0  0  0
   10.0144  -16.4874   25.4273 N   0  0  0  0  0  0  0  0  0  0  0  0
   10.7672  -16.2014   26.6208 C   0  0  1  0  0  0  0  0  0  0  0  0
   10.2008  -14.9565   27.2821 C   0  0  0  0  0  0  0  0  0  0  0  0
   11.0642  -14.6207   28.8362 S   0  0  0  0  0  0  0  0  0  0  0  0
   10.7653  -17.3557   27.5404 C   0  0  0  0  0  0  0  0  0  0  0  0
    9.8029  -18.1610   27.4974 O   0  0  0  0  0  0  0  0  0  0  0  0
   11.7740  -17.5848   28.4419 O   0  0  0  0  0  0  0  0  0  0  0  0
  2  1  1  1
  2  3  1  0
  4  3  1  0
  5  2  1  0
  6  5  2  0
  8  7  1  6
  8  9  1  0
  9  5  1  0
 10  8  1  0
 10 12  1  0
 11 10  2  0
 13 14  1  1
 13 12  1  0
 13 16  1  0
 14 15  1  0
 16 18  1  0
 17 16  2  0
M  END
$$$$
