CAC.pdb
     RDKit          3D

 18 17  0  0  1  0  0  0  0  0999 V2000
   11.7776  -19.4107   16.8828 N   0  0  0  0  0  0  0  0  0  0  0  0
   11.2287  -19.4378   18.2014 C   0  0  1  0  0  0  0  0  0  0  0  0
   12.0379  -20.4599   19.0041 C   0  0  0  0  0  0  0  0  0  0  0  0
   11.9302  -22.1032   18.2462 S   0  0  0  0  0  0  0  0  0  0  0  0
   11.2469  -18.1052   18.8384 C   0  0  0  0  0  0  0  0  0  0  0  0
   12.1388  -17.2720   18.6307 O   0  0  0  0  0  0  0  0  0  0  0  0
    8.6448  -16.1721   20.7583 C   0  0  0  0  0  0  0  0  0  0  0  0
   10.0718  -16.4880   20.3636 C   0  0  2  0  0  0  0  0  0  0  0  0
   10.1912  -17.7653   19.7305 N   0  0  0  0  0  0  0  0  0  0  0  0
   10.9919  -16.3898   21.5146 C   0  0  0  0  0  0  0  0  0  0  0  0
   11.1119  -15.2955   22.1085 O   0  0  0  0  0  0  0  0  0  0  0  0
   11.7147  -17.5416   21.9145 N   0  0  0  0  0  0  0  0  0  0  0  0
   12.6144  -17.4523   23.0350 C   0  0  1  0  0  0  0  0  0  0  0  0
   12.2613  -18.5299   24.0460 C   0  0  0  0  0  0  0  0  0  0  0  0
   11.0295  -17.9136   25.2192 S   0  0  0  0  0  0  0  0  0  0  0  0
   14.0203  -17.5548   22.5980 C   0  0  0  0  0  0  0  0  0  0  0  0
   14.9303  -17.4144   23.4517 O   0  0  0  0  0  0  0  0  0  0  0  0
   14.3738  -17.7978   21.2947 O   0  0  0  0  0  0  0  0  0  0  0  0
  2  1  1  6
  2  3  1  0
  4  3  1  0
  5  2  1  0
  6  5  2  0
  8  7  1  1
  8  9  1  0
  9  5  1  0
 10  8  1  0
 10 12  1  0
 11 10  2  0
 13 14  1  1
 13 12  1  0
 13 16  1  0
 14 15  1  0
 16 18  1  0
 17 16  2  0
M  END
$$$$
