NST.pdb
     RDKit          3D

 22 21  0  0  1  0  0  0  0  0999 V2000
   18.7521  -12.1072  -18.8879 N   0  0  0  0  0  0  0  0  0  0  0  0
   17.9962  -10.9005  -19.0115 C   0  0  0  0  0  0  0  0  0  0  0  0
   17.3956  -10.6649  -20.0911 O   0  0  0  0  0  0  0  0  0  0  0  0
   17.9285   -9.9461  -17.8750 C   0  0  0  0  0  0  0  0  0  0  0  0
   18.7208  -10.5197  -16.7040 C   0  0  2  0  0  0  0  0  0  0  0  0
   17.9272  -11.6247  -16.1868 N   0  0  0  0  0  0  0  0  0  0  0  0
   18.9128   -9.4844  -15.6485 C   0  0  0  0  0  0  0  0  0  0  0  0
   18.0232   -9.1539  -14.8483 O   0  0  0  0  0  0  0  0  0  0  0  0
   22.5369   -8.8200  -14.0778 O   0  0  0  0  0  0  0  0  0  0  0  0
   21.3677   -8.3971  -13.4622 C   0  0  0  0  0  0  0  0  0  0  0  0
   20.4455   -7.8361  -14.5231 C   0  0  2  0  0  0  0  0  0  0  0  0
   20.1654   -8.8399  -15.5432 N   0  0  0  0  0  0  0  0  0  0  0  0
   20.9439   -6.6158  -15.1629 C   0  0  0  0  0  0  0  0  0  0  0  0
   21.7576   -6.7491  -16.1367 O   0  0  0  0  0  0  0  0  0  0  0  0
   19.1150   -3.4500  -16.5249 C   0  0  0  0  0  0  0  0  0  0  0  0
   20.2618   -3.0110  -15.6469 C   0  0  1  0  0  0  0  0  0  0  0  0
   19.7491   -2.5917  -14.4323 O   0  0  0  0  0  0  0  0  0  0  0  0
   21.2137   -4.1746  -15.4932 C   0  0  2  0  0  0  0  0  0  0  0  0
   20.5959   -5.2916  -14.7903 N   0  0  0  0  0  0  0  0  0  0  0  0
   22.4241   -3.7697  -14.7484 C   0  0  0  0  0  0  0  0  0  0  0  0
   23.3180   -2.8165  -15.2328 O   0  0  0  0  0  0  0  0  0  0  0  0
   22.7066   -4.2753  -13.6260 O   0  0  0  0  0  0  0  0  0  0  0  0
  1  2  1  0
  2  3  2  0
  2  4  1  0
  4  5  1  0
  5  6  1  1
  5  7  1  0
  7  8  2  0
  9 10  1  0
 11 10  1  1
 11 13  1  0
 12  7  1  0
 12 11  1  0
 13 14  2  0
 16 15  1  6
 16 18  1  0
 17 16  1  0
 18 20  1  0
 19 13  1  0
 18 19  1  1
 20 22  2  0
 20 21  1  0
M  END
$$$$
