NST.pdb
     RDKit          3D

 22 21  0  0  1  0  0  0  0  0999 V2000
   16.2622  -12.2200  -17.2892 N   0  0  0  0  0  0  0  0  0  0  0  0
   16.2668  -11.6197  -15.9921 C   0  0  0  0  0  0  0  0  0  0  0  0
   15.1707  -11.4198  -15.4086 O   0  0  0  0  0  0  0  0  0  0  0  0
   17.5534  -11.2414  -15.3527 C   0  0  0  0  0  0  0  0  0  0  0  0
   18.6910  -11.5369  -16.3256 C   0  0  2  0  0  0  0  0  0  0  0  0
   19.0610  -12.9262  -16.0986 N   0  0  0  0  0  0  0  0  0  0  0  0
   19.8530  -10.6430  -16.0547 C   0  0  0  0  0  0  0  0  0  0  0  0
   20.4073  -10.5626  -14.9469 O   0  0  0  0  0  0  0  0  0  0  0  0
   23.4163   -8.0825  -18.0028 O   0  0  0  0  0  0  0  0  0  0  0  0
   22.2829   -8.8484  -18.2345 C   0  0  0  0  0  0  0  0  0  0  0  0
   21.5169   -8.9729  -16.9350 C   0  0  2  0  0  0  0  0  0  0  0  0
   20.3582   -9.8423  -17.1031 N   0  0  0  0  0  0  0  0  0  0  0  0
   21.0876   -7.6911  -16.3696 C   0  0  0  0  0  0  0  0  0  0  0  0
   19.9856   -7.2011  -16.7861 O   0  0  0  0  0  0  0  0  0  0  0  0
   20.4494   -6.5772  -12.7929 C   0  0  0  0  0  0  0  0  0  0  0  0
   21.3414   -5.5382  -13.4280 C   0  0  1  0  0  0  0  0  0  0  0  0
   22.6329   -5.7299  -12.9707 O   0  0  0  0  0  0  0  0  0  0  0  0
   21.2407   -5.6804  -14.9291 C   0  0  2  0  0  0  0  0  0  0  0  0
   21.7966   -6.9452  -15.3927 N   0  0  0  0  0  0  0  0  0  0  0  0
   21.9554   -4.5815  -15.6112 C   0  0  0  0  0  0  0  0  0  0  0  0
   21.5891   -3.2448  -15.4645 O   0  0  0  0  0  0  0  0  0  0  0  0
   22.9421   -4.8066  -16.3668 O   0  0  0  0  0  0  0  0  0  0  0  0
  1  2  1  0
  2  3  2  0
  2  4  1  0
  4  5  1  0
  5  6  1  1
  5  7  1  0
  7  8  2  0
  9 10  1  0
 11 10  1  6
 11 13  1  0
 12  7  1  0
 12 11  1  0
 13 14  2  0
 16 15  1  1
 16 18  1  0
 17 16  1  0
 18 20  1  0
 19 13  1  0
 18 19  1  6
 20 22  2  0
 20 21  1  0
M  END
$$$$
