NST.pdb
     RDKit          3D

 22 21  0  0  1  0  0  0  0  0999 V2000
   16.9749  -11.4895  -18.6456 N   0  0  0  0  0  0  0  0  0  0  0  0
   16.2588  -11.3782  -17.4137 C   0  0  0  0  0  0  0  0  0  0  0  0
   15.0490  -11.7203  -17.3784 O   0  0  0  0  0  0  0  0  0  0  0  0
   16.9437  -10.8643  -16.1997 C   0  0  0  0  0  0  0  0  0  0  0  0
   18.4057  -10.5901  -16.5394 C   0  0  2  0  0  0  0  0  0  0  0  0
   19.0359  -11.8947  -16.6781 N   0  0  0  0  0  0  0  0  0  0  0  0
   19.0582   -9.8161  -15.4449 C   0  0  0  0  0  0  0  0  0  0  0  0
   18.6822   -9.8585  -14.2626 O   0  0  0  0  0  0  0  0  0  0  0  0
   22.9807   -8.2447  -13.5784 O   0  0  0  0  0  0  0  0  0  0  0  0
   22.2340   -9.0101  -14.4624 C   0  0  0  0  0  0  0  0  0  0  0  0
   20.9291   -8.2919  -14.7313 C   0  0  2  0  0  0  0  0  0  0  0  0
   20.1606   -8.9894  -15.7558 N   0  0  0  0  0  0  0  0  0  0  0  0
   21.0887   -6.8863  -15.1131 C   0  0  0  0  0  0  0  0  0  0  0  0
   21.5141   -6.6384  -16.2902 O   0  0  0  0  0  0  0  0  0  0  0  0
   18.7818   -4.0245  -15.5709 C   0  0  0  0  0  0  0  0  0  0  0  0
   19.8601   -3.5310  -14.6369 C   0  0  1  0  0  0  0  0  0  0  0  0
   19.3604   -3.5387  -13.3468 O   0  0  0  0  0  0  0  0  0  0  0  0
   21.0655   -4.4298  -14.7871 C   0  0  2  0  0  0  0  0  0  0  0  0
   20.8080   -5.7718  -14.2810 N   0  0  0  0  0  0  0  0  0  0  0  0
   22.2287   -3.8760  -14.0634 C   0  0  0  0  0  0  0  0  0  0  0  0
   22.8535   -4.5545  -13.0186 O   0  0  0  0  0  0  0  0  0  0  0  0
   22.7150   -2.7493  -14.3625 O   0  0  0  0  0  0  0  0  0  0  0  0
  1  2  1  0
  2  3  2  0
  2  4  1  0
  4  5  1  0
  5  6  1  1
  5  7  1  0
  7  8  2  0
  9 10  1  0
 11 10  1  6
 11 13  1  0
 12  7  1  0
 12 11  1  0
 13 14  2  0
 16 15  1  6
 16 18  1  0
 17 16  1  0
 18 20  1  0
 19 13  1  0
 18 19  1  1
 20 22  2  0
 20 21  1  0
M  END
$$$$
