NST.pdb
     RDKit          3D

 22 21  0  0  1  0  0  0  0  0999 V2000
   13.0193  -11.7462  -10.8775 N   0  0  0  0  0  0  0  0  0  0  0  0
   14.4173  -11.6923  -11.1699 C   0  0  0  0  0  0  0  0  0  0  0  0
   14.8574  -12.3244  -12.1641 O   0  0  0  0  0  0  0  0  0  0  0  0
   15.3274  -10.8982  -10.3048 C   0  0  0  0  0  0  0  0  0  0  0  0
   15.9746   -9.8031  -11.1473 C   0  0  2  0  0  0  0  0  0  0  0  0
   17.0680  -10.4430  -11.8640 N   0  0  0  0  0  0  0  0  0  0  0  0
   16.4982   -8.7147  -10.2732 C   0  0  0  0  0  0  0  0  0  0  0  0
   17.6225   -8.7441   -9.7478 O   0  0  0  0  0  0  0  0  0  0  0  0
   16.9729   -5.2724  -11.1852 O   0  0  0  0  0  0  0  0  0  0  0  0
   17.3791   -5.8285   -9.9808 C   0  0  0  0  0  0  0  0  0  0  0  0
   16.1664   -6.4200   -9.2950 C   0  0  2  0  0  0  0  0  0  0  0  0
   15.6837   -7.5881  -10.0226 N   0  0  0  0  0  0  0  0  0  0  0  0
   15.0649   -5.4722   -9.1073 C   0  0  0  0  0  0  0  0  0  0  0  0
   14.2995   -5.2509  -10.1040 O   0  0  0  0  0  0  0  0  0  0  0  0
   12.3600   -4.8327   -6.1249 C   0  0  0  0  0  0  0  0  0  0  0  0
   13.1311   -3.5936   -6.5106 C   0  0  1  0  0  0  0  0  0  0  0  0
   14.1229   -3.3833   -5.5694 O   0  0  0  0  0  0  0  0  0  0  0  0
   13.6950   -3.7986   -7.8975 C   0  0  2  0  0  0  0  0  0  0  0  0
   14.7750   -4.7768   -7.9049 N   0  0  0  0  0  0  0  0  0  0  0  0
   14.2145   -2.5292   -8.4475 C   0  0  0  0  0  0  0  0  0  0  0  0
   13.4024   -1.4168   -8.6603 O   0  0  0  0  0  0  0  0  0  0  0  0
   15.4324   -2.3936   -8.7533 O   0  0  0  0  0  0  0  0  0  0  0  0
  1  2  1  0
  2  3  2  0
  2  4  1  0
  4  5  1  0
  5  6  1  1
  5  7  1  0
  7  8  2  0
  9 10  1  0
 11 10  1  6
 11 13  1  0
 12  7  1  0
 12 11  1  0
 13 14  2  0
 16 15  1  1
 16 18  1  0
 17 16  1  0
 18 20  1  0
 19 13  1  0
 18 19  1  1
 20 22  2  0
 20 21  1  0
M  END
$$$$
