NST.pdb
     RDKit          3D

 22 21  0  0  1  0  0  0  0  0999 V2000
   17.5020  -11.6202  -18.5357 N   0  0  0  0  0  0  0  0  0  0  0  0
   16.5517  -10.6634  -18.0622 C   0  0  0  0  0  0  0  0  0  0  0  0
   15.5254  -10.4305  -18.7510 O   0  0  0  0  0  0  0  0  0  0  0  0
   16.7834   -9.9604  -16.7741 C   0  0  0  0  0  0  0  0  0  0  0  0
   18.1110  -10.4326  -16.1887 C   0  0  2  0  0  0  0  0  0  0  0  0
   17.9025  -11.8166  -15.7892 N   0  0  0  0  0  0  0  0  0  0  0  0
   18.4821   -9.6048  -15.0056 C   0  0  0  0  0  0  0  0  0  0  0  0
   17.7851   -9.5291  -13.9812 O   0  0  0  0  0  0  0  0  0  0  0  0
   22.1698   -9.1326  -13.9510 O   0  0  0  0  0  0  0  0  0  0  0  0
   21.1662   -8.6849  -13.1041 C   0  0  0  0  0  0  0  0  0  0  0  0
   20.1046   -8.0032  -13.9403 C   0  0  2  0  0  0  0  0  0  0  0  0
   19.6848   -8.8648  -15.0395 N   0  0  0  0  0  0  0  0  0  0  0  0
   20.5085   -6.6980  -14.4699 C   0  0  0  0  0  0  0  0  0  0  0  0
   21.1251   -6.6787  -15.5868 O   0  0  0  0  0  0  0  0  0  0  0  0
   20.6140   -1.8178  -14.7545 C   0  0  0  0  0  0  0  0  0  0  0  0
   20.1030   -2.9970  -13.9626 C   0  0  1  0  0  0  0  0  0  0  0  0
   18.7325   -3.0789  -14.1323 O   0  0  0  0  0  0  0  0  0  0  0  0
   20.8133   -4.2388  -14.4495 C   0  0  2  0  0  0  0  0  0  0  0  0
   20.2701   -5.4474  -13.8434 N   0  0  0  0  0  0  0  0  0  0  0  0
   22.2573   -4.1740  -14.1422 C   0  0  0  0  0  0  0  0  0  0  0  0
   23.1970   -3.6985  -15.0550 O   0  0  0  0  0  0  0  0  0  0  0  0
   22.7104   -4.5512  -13.0252 O   0  0  0  0  0  0  0  0  0  0  0  0
  1  2  1  0
  2  3  2  0
  2  4  1  0
  4  5  1  0
  5  6  1  1
  5  7  1  0
  7  8  2  0
  9 10  1  0
 11 10  1  6
 11 13  1  0
 12  7  1  0
 12 11  1  0
 13 14  2  0
 16 15  1  6
 16 18  1  0
 17 16  1  0
 18 20  1  0
 19 13  1  0
 18 19  1  1
 20 22  2  0
 20 21  1  0
M  END
$$$$
