KAM.pdb
     RDKit          3D

 23 22  0  0  1  0  0  0  0  0999 V2000
    6.6035  -17.0934   20.6042 N   0  0  0  0  0  0  0  0  0  0  0  0
    7.1138  -16.1888   21.6153 C   0  0  1  0  0  0  0  0  0  0  0  0
    6.5310  -14.8067   21.4100 C   0  0  0  0  0  0  0  0  0  0  0  0
    6.8874  -14.2296   20.0770 C   0  0  0  0  0  0  0  0  0  0  0  0
    8.2183  -13.5211   20.1756 C   0  0  0  0  0  0  0  0  0  0  0  0
    8.5840  -12.8910   18.8486 C   0  0  0  0  0  0  0  0  0  0  0  0
    9.8082  -12.1285   18.9352 N   0  0  0  0  0  0  0  0  0  0  0  0
    6.7994  -16.7186   22.9664 C   0  0  0  0  0  0  0  0  0  0  0  0
    5.8678  -17.5468   23.1598 O   0  0  0  0  0  0  0  0  0  0  0  0
    8.3549  -18.5629   24.7454 C   0  0  0  0  0  0  0  0  0  0  0  0
    7.7703  -17.2651   25.2309 C   0  0  2  0  0  0  0  0  0  0  0  0
    7.5280  -16.3293   24.1441 N   0  0  0  0  0  0  0  0  0  0  0  0
    8.5925  -16.6418   26.3032 C   0  0  0  0  0  0  0  0  0  0  0  0
    8.9916  -17.3579   27.2563 O   0  0  0  0  0  0  0  0  0  0  0  0
    6.6161  -11.4753   26.0078 C   0  0  0  0  0  0  0  0  0  0  0  0
    8.0653  -12.4038   26.5258 S   0  0  0  0  0  0  0  0  0  0  0  0
    7.7056  -13.5252   27.8973 C   0  0  0  0  0  0  0  0  0  0  0  0
    8.9624  -14.1875   28.4195 C   0  0  0  0  0  0  0  0  0  0  0  0
    9.8396  -14.6580   27.2529 C   0  0  2  0  0  0  0  0  0  0  0  0
    8.9459  -15.2703   26.2955 N   0  0  0  0  0  0  0  0  0  0  0  0
   10.8154  -15.6262   27.8015 C   0  0  0  0  0  0  0  0  0  0  0  0
   10.4733  -16.8315   27.8786 O   0  0  0  0  0  0  0  0  0  0  0  0
   12.0834  -15.2848   28.2356 O   0  0  0  0  0  0  0  0  0  0  0  0
  2  1  1  6
  2  8  1  0
  2  3  1  0
  4  3  1  0
  5  4  1  0
  6  5  1  0
  7  6  1  0
  8 12  1  0
  8  9  2  0
 11 10  1  6
 12 11  1  0
 13 14  2  0
 13 11  1  0
 16 17  1  0
 16 15  1  0
 17 18  1  0
 19 18  1  1
 19 20  1  0
 20 13  1  0
 21 19  1  0
 22 21  2  0
 23 21  1  0
M  END
$$$$
