KAM.pdb
     RDKit          3D

 23 22  0  0  1  0  0  0  0  0999 V2000
    8.5587  -18.6378   19.6917 N   0  0  0  0  0  0  0  0  0  0  0  0
    7.2291  -18.3953   20.2155 C   0  0  1  0  0  0  0  0  0  0  0  0
    6.2524  -19.3854   19.6175 C   0  0  0  0  0  0  0  0  0  0  0  0
    6.9333  -20.6021   19.0759 C   0  0  0  0  0  0  0  0  0  0  0  0
    6.4921  -20.8318   17.6492 C   0  0  0  0  0  0  0  0  0  0  0  0
    7.1805  -22.0493   17.0699 C   0  0  0  0  0  0  0  0  0  0  0  0
    7.7652  -21.7721   15.7781 N   0  0  0  0  0  0  0  0  0  0  0  0
    7.2516  -18.4784   21.6979 C   0  0  0  0  0  0  0  0  0  0  0  0
    7.5212  -19.5516   22.3035 O   0  0  0  0  0  0  0  0  0  0  0  0
    6.8372  -18.9039   24.4436 C   0  0  0  0  0  0  0  0  0  0  0  0
    6.9582  -17.4737   23.9944 C   0  0  2  0  0  0  0  0  0  0  0  0
    6.9697  -17.3505   22.5452 N   0  0  0  0  0  0  0  0  0  0  0  0
    8.1317  -16.7889   24.6011 C   0  0  0  0  0  0  0  0  0  0  0  0
    9.2566  -16.9114   24.0533 O   0  0  0  0  0  0  0  0  0  0  0  0
    6.2718  -10.6780   25.5879 C   0  0  0  0  0  0  0  0  0  0  0  0
    6.8411  -11.9059   26.7707 S   0  0  0  0  0  0  0  0  0  0  0  0
    8.0290  -13.0581   26.0431 C   0  0  0  0  0  0  0  0  0  0  0  0
    8.5313  -14.0578   27.0625 C   0  0  0  0  0  0  0  0  0  0  0  0
    9.1407  -15.2757   26.3576 C   0  0  2  0  0  0  0  0  0  0  0  0
    8.0346  -16.0016   25.7745 N   0  0  0  0  0  0  0  0  0  0  0  0
    9.8463  -16.0702   27.3878 C   0  0  0  0  0  0  0  0  0  0  0  0
    9.2994  -17.1218   27.8013 O   0  0  0  0  0  0  0  0  0  0  0  0
   11.0734  -15.7254   27.9246 O   0  0  0  0  0  0  0  0  0  0  0  0
  2  1  1  6
  2  8  1  0
  2  3  1  0
  4  3  1  0
  5  4  1  0
  6  5  1  0
  7  6  1  0
  8 12  1  0
  8  9  2  0
 11 10  1  6
 12 11  1  0
 13 14  2  0
 13 11  1  0
 16 17  1  0
 16 15  1  0
 17 18  1  0
 19 18  1  1
 19 20  1  0
 20 13  1  0
 21 19  1  0
 22 21  2  0
 23 21  1  0
M  END
$$$$
