KAM.pdb
     RDKit          3D

 23 22  0  0  1  0  0  0  0  0999 V2000
    7.3443  -18.8139   19.4893 N   0  0  0  0  0  0  0  0  0  0  0  0
    6.8189  -17.9184   20.5008 C   0  0  1  0  0  0  0  0  0  0  0  0
    6.7112  -18.6448   21.8247 C   0  0  0  0  0  0  0  0  0  0  0  0
    5.8633  -19.8736   21.7338 C   0  0  0  0  0  0  0  0  0  0  0  0
    5.8274  -20.5601   23.0793 C   0  0  0  0  0  0  0  0  0  0  0  0
    4.9124  -21.7655   23.0361 C   0  0  0  0  0  0  0  0  0  0  0  0
    4.8986  -22.4748   24.2947 N   0  0  0  0  0  0  0  0  0  0  0  0
    7.6859  -16.7175   20.6061 C   0  0  0  0  0  0  0  0  0  0  0  0
    8.9447  -16.8002   20.6149 O   0  0  0  0  0  0  0  0  0  0  0  0
    7.4146  -12.9899   20.2124 C   0  0  0  0  0  0  0  0  0  0  0  0
    8.0343  -14.2258   20.8043 C   0  0  2  0  0  0  0  0  0  0  0  0
    7.1585  -15.3828   20.7053 N   0  0  0  0  0  0  0  0  0  0  0  0
    8.4881  -14.0139   22.2055 C   0  0  0  0  0  0  0  0  0  0  0  0
    8.9667  -12.8966   22.5266 O   0  0  0  0  0  0  0  0  0  0  0  0
    7.2291  -10.5212   27.0059 C   0  0  0  0  0  0  0  0  0  0  0  0
    6.4257  -12.1278   26.9446 S   0  0  0  0  0  0  0  0  0  0  0  0
    7.5699  -13.4482   26.4804 C   0  0  0  0  0  0  0  0  0  0  0  0
    7.4843  -13.7654   25.0029 C   0  0  0  0  0  0  0  0  0  0  0  0
    8.5649  -14.7814   24.6135 C   0  0  2  0  0  0  0  0  0  0  0  0
    8.4032  -15.0218   23.1970 N   0  0  0  0  0  0  0  0  0  0  0  0
    8.3275  -16.0022   25.4158 C   0  0  0  0  0  0  0  0  0  0  0  0
    8.5027  -15.9377   26.6572 O   0  0  0  0  0  0  0  0  0  0  0  0
    7.9239  -17.2124   24.8818 O   0  0  0  0  0  0  0  0  0  0  0  0
  2  1  1  6
  2  8  1  0
  2  3  1  0
  4  3  1  0
  5  4  1  0
  6  5  1  0
  7  6  1  0
  8 12  1  0
  8  9  2  0
 11 10  1  1
 12 11  1  0
 13 14  2  0
 13 11  1  0
 16 17  1  0
 16 15  1  0
 17 18  1  0
 19 18  1  1
 19 20  1  0
 20 13  1  0
 21 19  1  0
 22 21  2  0
 23 21  1  0
M  END
$$$$
