KAM.pdb
     RDKit          3D

 23 22  0  0  1  0  0  0  0  0999 V2000
    7.5658  -20.3463   22.0130 N   0  0  0  0  0  0  0  0  0  0  0  0
    6.7866  -19.2863   22.6213 C   0  0  1  0  0  0  0  0  0  0  0  0
    6.7898  -19.4450   24.1269 C   0  0  0  0  0  0  0  0  0  0  0  0
    7.7479  -20.4972   24.5875 C   0  0  0  0  0  0  0  0  0  0  0  0
    7.6395  -20.6542   26.0864 C   0  0  0  0  0  0  0  0  0  0  0  0
    6.9511  -21.9566   26.4355 C   0  0  0  0  0  0  0  0  0  0  0  0
    6.8928  -22.1674   27.8636 N   0  0  0  0  0  0  0  0  0  0  0  0
    7.3290  -17.9665   22.2105 C   0  0  0  0  0  0  0  0  0  0  0  0
    8.5551  -17.7928   21.9701 O   0  0  0  0  0  0  0  0  0  0  0  0
    5.9610  -14.5266   21.2971 C   0  0  0  0  0  0  0  0  0  0  0  0
    7.0326  -15.5605   21.5083 C   0  0  2  0  0  0  0  0  0  0  0  0
    6.5029  -16.7986   22.0580 N   0  0  0  0  0  0  0  0  0  0  0  0
    8.1592  -15.0454   22.3327 C   0  0  0  0  0  0  0  0  0  0  0  0
    8.8514  -14.0945   21.8889 O   0  0  0  0  0  0  0  0  0  0  0  0
    7.3531  -10.3916   26.8643 C   0  0  0  0  0  0  0  0  0  0  0  0
    6.5691  -11.9986   26.6820 S   0  0  0  0  0  0  0  0  0  0  0  0
    7.7758  -13.3317   26.4950 C   0  0  0  0  0  0  0  0  0  0  0  0
    7.5299  -14.1328   25.2346 C   0  0  0  0  0  0  0  0  0  0  0  0
    8.8328  -14.7845   24.7558 C   0  0  2  0  0  0  0  0  0  0  0  0
    8.4859  -15.5832   23.6017 N   0  0  0  0  0  0  0  0  0  0  0  0
    9.3444  -15.6116   25.8715 C   0  0  0  0  0  0  0  0  0  0  0  0
    9.1194  -16.8464   25.8440 O   0  0  0  0  0  0  0  0  0  0  0  0
   10.0563  -15.1078   26.9448 O   0  0  0  0  0  0  0  0  0  0  0  0
  2  1  1  6
  2  8  1  0
  2  3  1  0
  4  3  1  0
  5  4  1  0
  6  5  1  0
  7  6  1  0
  8 12  1  0
  8  9  2  0
 11 10  1  1
 12 11  1  0
 13 14  2  0
 13 11  1  0
 16 17  1  0
 16 15  1  0
 17 18  1  0
 19 18  1  1
 19 20  1  0
 20 13  1  0
 21 19  1  0
 22 21  2  0
 23 21  1  0
M  END
$$$$
