KAM.pdb
     RDKit          3D

 23 22  0  0  1  0  0  0  0  0999 V2000
    6.5694  -16.5315   20.4318 N   0  0  0  0  0  0  0  0  0  0  0  0
    7.7537  -15.8263   20.8802 C   0  0  1  0  0  0  0  0  0  0  0  0
    7.4678  -14.3419   20.9629 C   0  0  0  0  0  0  0  0  0  0  0  0
    7.2433  -13.7284   19.6174 C   0  0  0  0  0  0  0  0  0  0  0  0
    8.5303  -13.1065   19.1276 C   0  0  0  0  0  0  0  0  0  0  0  0
    8.3194  -12.4362   17.7866 C   0  0  0  0  0  0  0  0  0  0  0  0
    8.3123  -13.3922   16.7034 N   0  0  0  0  0  0  0  0  0  0  0  0
    8.1956  -16.3707   22.1891 C   0  0  0  0  0  0  0  0  0  0  0  0
    7.3962  -16.5284   23.1521 O   0  0  0  0  0  0  0  0  0  0  0  0
   11.1612  -18.1800   23.6483 C   0  0  0  0  0  0  0  0  0  0  0  0
    9.9595  -17.2812   23.7476 C   0  0  2  0  0  0  0  0  0  0  0  0
    9.5566  -16.7550   22.4530 N   0  0  0  0  0  0  0  0  0  0  0  0
   10.1541  -16.1859   24.7358 C   0  0  0  0  0  0  0  0  0  0  0  0
   10.8947  -15.2169   24.4306 O   0  0  0  0  0  0  0  0  0  0  0  0
    6.6925  -11.1813   27.2671 C   0  0  0  0  0  0  0  0  0  0  0  0
    6.5305  -12.7447   26.3953 S   0  0  0  0  0  0  0  0  0  0  0  0
    8.1251  -13.5603   26.1501 C   0  0  0  0  0  0  0  0  0  0  0  0
    8.4537  -14.4961   27.2934 C   0  0  0  0  0  0  0  0  0  0  0  0
    9.7911  -15.2010   27.0362 C   0  0  2  0  0  0  0  0  0  0  0  0
    9.5377  -16.1886   26.0110 N   0  0  0  0  0  0  0  0  0  0  0  0
   10.2126  -15.8198   28.3128 C   0  0  0  0  0  0  0  0  0  0  0  0
   10.0934  -17.0635   28.4352 O   0  0  0  0  0  0  0  0  0  0  0  0
   10.7307  -15.1116   29.3818 O   0  0  0  0  0  0  0  0  0  0  0  0
  2  1  1  1
  2  8  1  0
  2  3  1  0
  4  3  1  0
  5  4  1  0
  6  5  1  0
  7  6  1  0
  8 12  1  0
  8  9  2  0
 11 10  1  6
 12 11  1  0
 13 14  2  0
 13 11  1  0
 16 17  1  0
 16 15  1  0
 17 18  1  0
 19 18  1  1
 19 20  1  0
 20 13  1  0
 21 19  1  0
 22 21  2  0
 23 21  1  0
M  END
$$$$
