KAM.pdb
     RDKit          3D

 23 22  0  0  1  0  0  0  0  0999 V2000
    7.0907  -19.1419   20.9842 N   0  0  0  0  0  0  0  0  0  0  0  0
    8.4756  -18.8188   20.7037 C   0  0  1  0  0  0  0  0  0  0  0  0
    8.8347  -19.2675   19.3031 C   0  0  0  0  0  0  0  0  0  0  0  0
    7.6565  -19.2584   18.3816 C   0  0  0  0  0  0  0  0  0  0  0  0
    8.0607  -19.8321   17.0435 C   0  0  0  0  0  0  0  0  0  0  0  0
    6.8976  -19.7914   16.0752 C   0  0  0  0  0  0  0  0  0  0  0  0
    7.2275  -20.4122   14.8130 N   0  0  0  0  0  0  0  0  0  0  0  0
    8.6965  -17.3615   20.8834 C   0  0  0  0  0  0  0  0  0  0  0  0
    9.8371  -16.8375   20.7578 O   0  0  0  0  0  0  0  0  0  0  0  0
    6.6407  -14.2022   21.1539 C   0  0  0  0  0  0  0  0  0  0  0  0
    7.8817  -15.0234   21.3718 C   0  0  2  0  0  0  0  0  0  0  0  0
    7.6349  -16.4478   21.2115 N   0  0  0  0  0  0  0  0  0  0  0  0
    8.5272  -14.7340   22.6809 C   0  0  0  0  0  0  0  0  0  0  0  0
    9.3319  -13.7715   22.7617 O   0  0  0  0  0  0  0  0  0  0  0  0
    6.9525  -10.8158   27.4576 C   0  0  0  0  0  0  0  0  0  0  0  0
    6.8375  -12.6047   27.3275 S   0  0  0  0  0  0  0  0  0  0  0  0
    8.0390  -13.2849   26.1606 C   0  0  0  0  0  0  0  0  0  0  0  0
    7.9643  -14.7955   26.1013 C   0  0  0  0  0  0  0  0  0  0  0  0
    8.9837  -15.3394   25.0930 C   0  0  2  0  0  0  0  0  0  0  0  0
    8.2724  -15.5001   23.8446 N   0  0  0  0  0  0  0  0  0  0  0  0
    9.4773  -16.6303   25.6224 C   0  0  0  0  0  0  0  0  0  0  0  0
   10.1607  -16.6155   26.6753 O   0  0  0  0  0  0  0  0  0  0  0  0
    9.2319  -17.8547   25.0280 O   0  0  0  0  0  0  0  0  0  0  0  0
  2  1  1  6
  2  8  1  0
  2  3  1  0
  4  3  1  0
  5  4  1  0
  6  5  1  0
  7  6  1  0
  8 12  1  0
  8  9  2  0
 11 10  1  1
 12 11  1  0
 13 14  2  0
 13 11  1  0
 16 17  1  0
 16 15  1  0
 17 18  1  0
 19 18  1  1
 19 20  1  0
 20 13  1  0
 21 19  1  0
 22 21  2  0
 23 21  1  0
M  END
$$$$
