KAM.pdb
     RDKit          3D

 23 22  0  0  1  0  0  0  0  0999 V2000
    8.9898  -19.3526   19.9519 N   0  0  0  0  0  0  0  0  0  0  0  0
    9.8796  -18.2654   19.5951 C   0  0  1  0  0  0  0  0  0  0  0  0
   10.0225  -18.1909   18.0898 C   0  0  0  0  0  0  0  0  0  0  0  0
    9.0782  -19.1091   17.3810 C   0  0  0  0  0  0  0  0  0  0  0  0
    9.2434  -18.9454   15.8881 C   0  0  0  0  0  0  0  0  0  0  0  0
    8.2882  -19.8552   15.1452 C   0  0  0  0  0  0  0  0  0  0  0  0
    8.2555  -19.5600   13.7312 N   0  0  0  0  0  0  0  0  0  0  0  0
    9.3652  -16.9914   20.1582 C   0  0  0  0  0  0  0  0  0  0  0  0
    9.9798  -15.8994   20.0125 O   0  0  0  0  0  0  0  0  0  0  0  0
    6.1711  -15.7214   21.7725 C   0  0  0  0  0  0  0  0  0  0  0  0
    7.6185  -15.6345   21.3736 C   0  0  2  0  0  0  0  0  0  0  0  0
    8.1384  -16.9095   20.9051 N   0  0  0  0  0  0  0  0  0  0  0  0
    8.4697  -15.0727   22.4572 C   0  0  0  0  0  0  0  0  0  0  0  0
    9.1098  -14.0129   22.2390 O   0  0  0  0  0  0  0  0  0  0  0  0
    6.4651  -10.6512   26.5770 C   0  0  0  0  0  0  0  0  0  0  0  0
    6.1669  -12.4033   26.8447 S   0  0  0  0  0  0  0  0  0  0  0  0
    7.6393  -13.4041   26.5310 C   0  0  0  0  0  0  0  0  0  0  0  0
    7.5070  -14.2040   25.2529 C   0  0  0  0  0  0  0  0  0  0  0  0
    8.8099  -14.9580   24.9601 C   0  0  2  0  0  0  0  0  0  0  0  0
    8.5898  -15.6840   23.7292 N   0  0  0  0  0  0  0  0  0  0  0  0
    9.0581  -15.8640   26.1037 C   0  0  0  0  0  0  0  0  0  0  0  0
    9.3616  -15.3521   27.2090 O   0  0  0  0  0  0  0  0  0  0  0  0
    8.9764  -17.2426   26.0303 O   0  0  0  0  0  0  0  0  0  0  0  0
  2  1  1  6
  2  8  1  0
  2  3  1  0
  4  3  1  0
  5  4  1  0
  6  5  1  0
  7  6  1  0
  8 12  1  0
  8  9  2  0
 11 10  1  1
 12 11  1  0
 13 14  2  0
 13 11  1  0
 16 17  1  0
 16 15  1  0
 17 18  1  0
 19 18  1  1
 19 20  1  0
 20 13  1  0
 21 19  1  0
 22 21  2  0
 23 21  1  0
M  END
$$$$
