KAM.pdb
     RDKit          3D

 23 22  0  0  1  0  0  0  0  0999 V2000
   11.4588  -17.2958   18.4657 N   0  0  0  0  0  0  0  0  0  0  0  0
   10.4795  -17.9379   19.3199 C   0  0  1  0  0  0  0  0  0  0  0  0
   11.1786  -18.8327   20.3212 C   0  0  0  0  0  0  0  0  0  0  0  0
   12.5141  -18.2972   20.7298 C   0  0  0  0  0  0  0  0  0  0  0  0
   13.1781  -19.2706   21.6755 C   0  0  0  0  0  0  0  0  0  0  0  0
   14.5823  -18.8134   22.0087 C   0  0  0  0  0  0  0  0  0  0  0  0
   15.2114  -19.6760   22.9821 N   0  0  0  0  0  0  0  0  0  0  0  0
    9.6504  -16.9073   19.9946 C   0  0  0  0  0  0  0  0  0  0  0  0
   10.1029  -15.7637   20.2755 O   0  0  0  0  0  0  0  0  0  0  0  0
    6.0086  -16.3661   20.8992 C   0  0  0  0  0  0  0  0  0  0  0  0
    7.4840  -16.0930   21.0011 C   0  0  2  0  0  0  0  0  0  0  0  0
    8.2818  -17.1353   20.3745 N   0  0  0  0  0  0  0  0  0  0  0  0
    7.9182  -15.8545   22.4042 C   0  0  0  0  0  0  0  0  0  0  0  0
    8.5377  -16.7645   23.0113 O   0  0  0  0  0  0  0  0  0  0  0  0
    7.1609  -10.7779   28.4788 C   0  0  0  0  0  0  0  0  0  0  0  0
    6.8257  -11.1994   26.7640 S   0  0  0  0  0  0  0  0  0  0  0  0
    7.2988  -12.8996   26.3719 C   0  0  0  0  0  0  0  0  0  0  0  0
    7.0806  -13.2148   24.9077 C   0  0  0  0  0  0  0  0  0  0  0  0
    7.9143  -14.4343   24.4962 C   0  0  2  0  0  0  0  0  0  0  0  0
    7.6622  -14.6405   23.0875 N   0  0  0  0  0  0  0  0  0  0  0  0
    7.4539  -15.5767   25.3169 C   0  0  0  0  0  0  0  0  0  0  0  0
    6.3686  -16.1271   25.0087 O   0  0  0  0  0  0  0  0  0  0  0  0
    8.1465  -16.0765   26.4046 O   0  0  0  0  0  0  0  0  0  0  0  0
  2  1  1  1
  2  8  1  0
  2  3  1  0
  4  3  1  0
  5  4  1  0
  6  5  1  0
  7  6  1  0
  8 12  1  0
  8  9  2  0
 11 10  1  1
 12 11  1  0
 13 14  2  0
 13 11  1  0
 16 17  1  0
 16 15  1  0
 17 18  1  0
 19 18  1  1
 19 20  1  0
 20 13  1  0
 21 19  1  0
 22 21  2  0
 23 21  1  0
M  END
$$$$
