KAM.pdb
     RDKit          3D

 23 22  0  0  1  0  0  0  0  0999 V2000
    7.8524  -18.2926   18.5078 N   0  0  0  0  0  0  0  0  0  0  0  0
    7.1742  -17.4732   19.4925 C   0  0  1  0  0  0  0  0  0  0  0  0
    6.8837  -18.2932   20.7315 C   0  0  0  0  0  0  0  0  0  0  0  0
    7.1157  -19.7550   20.5155 C   0  0  0  0  0  0  0  0  0  0  0  0
    6.6935  -20.5185   21.7491 C   0  0  0  0  0  0  0  0  0  0  0  0
    6.9179  -22.0034   21.5572 C   0  0  0  0  0  0  0  0  0  0  0  0
    6.6669  -22.7459   22.7709 N   0  0  0  0  0  0  0  0  0  0  0  0
    8.0015  -16.2813   19.8083 C   0  0  0  0  0  0  0  0  0  0  0  0
    9.2573  -16.3466   19.9090 O   0  0  0  0  0  0  0  0  0  0  0  0
    7.5868  -12.5243   20.0760 C   0  0  0  0  0  0  0  0  0  0  0  0
    8.2707  -13.8333   20.3598 C   0  0  2  0  0  0  0  0  0  0  0  0
    7.4365  -14.9756   20.0211 N   0  0  0  0  0  0  0  0  0  0  0  0
    8.7596  -13.9223   21.7624 C   0  0  0  0  0  0  0  0  0  0  0  0
    9.6507  -13.1232   22.1469 O   0  0  0  0  0  0  0  0  0  0  0  0
    5.7029  -11.3190   26.7085 C   0  0  0  0  0  0  0  0  0  0  0  0
    5.9538  -13.0642   26.3598 S   0  0  0  0  0  0  0  0  0  0  0  0
    7.3739  -13.3489   25.2778 C   0  0  0  0  0  0  0  0  0  0  0  0
    7.5461  -14.8188   24.9603 C   0  0  0  0  0  0  0  0  0  0  0  0
    8.7533  -15.0256   24.0374 C   0  0  2  0  0  0  0  0  0  0  0  0
    8.2612  -14.8729   22.6865 N   0  0  0  0  0  0  0  0  0  0  0  0
    9.2696  -16.3893   24.2908 C   0  0  0  0  0  0  0  0  0  0  0  0
    8.9729  -17.2954   23.4741 O   0  0  0  0  0  0  0  0  0  0  0  0
   10.0603  -16.7283   25.3736 O   0  0  0  0  0  0  0  0  0  0  0  0
  2  1  1  6
  2  8  1  0
  2  3  1  0
  4  3  1  0
  5  4  1  0
  6  5  1  0
  7  6  1  0
  8 12  1  0
  8  9  2  0
 11 10  1  1
 12 11  1  0
 13 14  2  0
 13 11  1  0
 16 17  1  0
 16 15  1  0
 17 18  1  0
 19 18  1  1
 19 20  1  0
 20 13  1  0
 21 19  1  0
 22 21  2  0
 23 21  1  0
M  END
$$$$
