KAM.pdb
     RDKit          3D

 23 22  0  0  1  0  0  0  0  0999 V2000
    7.1037  -18.8007   20.5760 N   0  0  0  0  0  0  0  0  0  0  0  0
    8.5193  -18.5335   20.4160 C   0  0  1  0  0  0  0  0  0  0  0  0
    8.9695  -18.9570   19.0339 C   0  0  0  0  0  0  0  0  0  0  0  0
    8.0843  -18.4177   17.9555 C   0  0  0  0  0  0  0  0  0  0  0  0
    8.5612  -18.9236   16.6141 C   0  0  0  0  0  0  0  0  0  0  0  0
    7.7773  -18.2752   15.4928 C   0  0  0  0  0  0  0  0  0  0  0  0
    8.1906  -18.7622   14.1969 N   0  0  0  0  0  0  0  0  0  0  0  0
    8.7884  -17.0938   20.6603 C   0  0  0  0  0  0  0  0  0  0  0  0
    9.9604  -16.6284   20.6914 O   0  0  0  0  0  0  0  0  0  0  0  0
    6.8387  -13.8478   20.9311 C   0  0  0  0  0  0  0  0  0  0  0  0
    8.0376  -14.7320   21.1376 C   0  0  2  0  0  0  0  0  0  0  0  0
    7.7409  -16.1320   20.8779 N   0  0  0  0  0  0  0  0  0  0  0  0
    8.6460  -14.5526   22.4837 C   0  0  0  0  0  0  0  0  0  0  0  0
    9.5300  -13.6722   22.6382 O   0  0  0  0  0  0  0  0  0  0  0  0
    6.6172  -10.8072   27.2516 C   0  0  0  0  0  0  0  0  0  0  0  0
    6.3698  -12.5168   26.7551 S   0  0  0  0  0  0  0  0  0  0  0  0
    7.9242  -13.3406   26.3385 C   0  0  0  0  0  0  0  0  0  0  0  0
    7.6911  -14.7508   25.8408 C   0  0  0  0  0  0  0  0  0  0  0  0
    8.8396  -15.1878   24.9234 C   0  0  2  0  0  0  0  0  0  0  0  0
    8.2696  -15.3349   23.6029 N   0  0  0  0  0  0  0  0  0  0  0  0
    9.3585  -16.4694   25.4514 C   0  0  0  0  0  0  0  0  0  0  0  0
    9.9093  -16.4648   26.5795 O   0  0  0  0  0  0  0  0  0  0  0  0
    9.2741  -17.6743   24.7779 O   0  0  0  0  0  0  0  0  0  0  0  0
  2  1  1  6
  2  8  1  0
  2  3  1  0
  4  3  1  0
  5  4  1  0
  6  5  1  0
  7  6  1  0
  8 12  1  0
  8  9  2  0
 11 10  1  1
 12 11  1  0
 13 14  2  0
 13 11  1  0
 16 17  1  0
 16 15  1  0
 17 18  1  0
 19 18  1  1
 19 20  1  0
 20 13  1  0
 21 19  1  0
 22 21  2  0
 23 21  1  0
M  END
$$$$
