KAM.pdb
     RDKit          3D

 23 22  0  0  1  0  0  0  0  0999 V2000
    8.6137  -18.3276   18.6278 N   0  0  0  0  0  0  0  0  0  0  0  0
    7.9067  -17.6699   19.7088 C   0  0  1  0  0  0  0  0  0  0  0  0
    8.0275  -18.4895   20.9759 C   0  0  0  0  0  0  0  0  0  0  0  0
    8.3443  -19.9248   20.6988 C   0  0  0  0  0  0  0  0  0  0  0  0
    8.4050  -20.6867   22.0021 C   0  0  0  0  0  0  0  0  0  0  0  0
    8.7031  -22.1492   21.7488 C   0  0  0  0  0  0  0  0  0  0  0  0
    8.9131  -22.8758   22.9799 N   0  0  0  0  0  0  0  0  0  0  0  0
    8.4403  -16.2966   19.8941 C   0  0  0  0  0  0  0  0  0  0  0  0
    9.6705  -16.0743   20.0631 O   0  0  0  0  0  0  0  0  0  0  0  0
    7.2104  -12.7108   19.7031 C   0  0  0  0  0  0  0  0  0  0  0  0
    8.1434  -13.8032   20.1479 C   0  0  2  0  0  0  0  0  0  0  0  0
    7.6005  -15.1286   19.8948 N   0  0  0  0  0  0  0  0  0  0  0  0
    8.5511  -13.6525   21.5711 C   0  0  0  0  0  0  0  0  0  0  0  0
    9.2004  -12.6315   21.9120 O   0  0  0  0  0  0  0  0  0  0  0  0
    6.8501  -11.0513   27.0965 C   0  0  0  0  0  0  0  0  0  0  0  0
    6.3776  -12.7802   26.9622 S   0  0  0  0  0  0  0  0  0  0  0  0
    7.6510  -13.7772   26.1543 C   0  0  0  0  0  0  0  0  0  0  0  0
    7.3583  -13.9673   24.6815 C   0  0  0  0  0  0  0  0  0  0  0  0
    8.6028  -14.4925   23.9554 C   0  0  2  0  0  0  0  0  0  0  0  0
    8.2371  -14.6147   22.5619 N   0  0  0  0  0  0  0  0  0  0  0  0
    8.9421  -15.8008   24.5584 C   0  0  0  0  0  0  0  0  0  0  0  0
    8.6554  -16.8405   23.9160 O   0  0  0  0  0  0  0  0  0  0  0  0
    9.5566  -15.9495   25.7884 O   0  0  0  0  0  0  0  0  0  0  0  0
  2  1  1  6
  2  8  1  0
  2  3  1  0
  4  3  1  0
  5  4  1  0
  6  5  1  0
  7  6  1  0
  8 12  1  0
  8  9  2  0
 11 10  1  1
 12 11  1  0
 13 14  2  0
 13 11  1  0
 16 17  1  0
 16 15  1  0
 17 18  1  0
 19 18  1  1
 19 20  1  0
 20 13  1  0
 21 19  1  0
 22 21  2  0
 23 21  1  0
M  END
$$$$
