AMC.pdb
     RDKit          3D

 20 19  0  0  1  0  0  0  0  0999 V2000
   27.8060  -18.8575  -14.9144 C   0  0  0  0  0  0  0  0  0  0  0  0
   28.2503  -20.1783  -14.3123 C   0  0  2  0  0  0  0  0  0  0  0  0
   28.6254  -21.0478  -15.3898 N   0  0  0  0  0  0  0  0  0  0  0  0
   27.0858  -20.7273  -13.5782 C   0  0  0  0  0  0  0  0  0  0  0  0
   26.2908  -21.5159  -14.1626 O   0  0  0  0  0  0  0  0  0  0  0  0
   25.6419  -20.4445   -7.0259 C   0  0  0  0  0  0  0  0  0  0  0  0
   27.2761  -20.5648   -7.7582 S   0  0  0  0  0  0  0  0  0  0  0  0
   27.1825  -21.1859   -9.4818 C   0  0  0  0  0  0  0  0  0  0  0  0
   25.9494  -20.5753  -10.0701 C   0  0  0  0  0  0  0  0  0  0  0  0
   25.6977  -20.9206  -11.5292 C   0  0  2  0  0  0  0  0  0  0  0  0
   26.8741  -20.3614  -12.2227 N   0  0  0  0  0  0  0  0  0  0  0  0
   24.4659  -20.2669  -12.0378 C   0  0  0  0  0  0  0  0  0  0  0  0
   24.5846  -19.2478  -12.8085 O   0  0  0  0  0  0  0  0  0  0  0  0
   23.1509  -20.6582  -11.7604 N   0  0  0  0  0  0  0  0  0  0  0  0
   22.1382  -20.7208  -12.7757 C   0  0  1  0  0  0  0  0  0  0  0  0
   22.5077  -21.7042  -13.8845 C   0  0  0  0  0  0  0  0  0  0  0  0
   21.1860  -21.6396  -15.1189 S   0  0  0  0  0  0  0  0  0  0  0  0
   20.7920  -21.0363  -12.2518 C   0  0  0  0  0  0  0  0  0  0  0  0
   19.6749  -20.2750  -12.5155 O   0  0  0  0  0  0  0  0  0  0  0  0
   20.6173  -22.0541  -11.5170 O   0  0  0  0  0  0  0  0  0  0  0  0
  2  4  1  0
  2  1  1  6
  3  2  1  0
  4  5  2  0
  7  6  1  0
  8  9  1  0
  8  7  1  0
 10  9  1  1
 10 12  1  0
 11 10  1  0
 11  4  1  0
 12 13  2  0
 14 12  1  0
 14 15  1  0
 15 18  1  0
 16 17  1  0
 15 16  1  6
 18 20  2  0
 18 19  1  0
M  END
$$$$
