AMC.pdb
     RDKit          3D

 20 19  0  0  1  0  0  0  0  0999 V2000
   22.8695  -10.9649  -21.3222 C   0  0  0  0  0  0  0  0  0  0  0  0
   23.8329  -10.7178  -20.1753 C   0  0  2  0  0  0  0  0  0  0  0  0
   24.8183  -11.7599  -20.1974 N   0  0  0  0  0  0  0  0  0  0  0  0
   23.0363  -10.7774  -18.9269 C   0  0  0  0  0  0  0  0  0  0  0  0
   21.9536  -11.4274  -18.9040 O   0  0  0  0  0  0  0  0  0  0  0  0
   24.4151  -13.6240  -14.4747 C   0  0  0  0  0  0  0  0  0  0  0  0
   22.9913  -12.6629  -13.9546 S   0  0  0  0  0  0  0  0  0  0  0  0
   23.3190  -10.8642  -14.1050 C   0  0  0  0  0  0  0  0  0  0  0  0
   23.8146  -10.6541  -15.5013 C   0  0  0  0  0  0  0  0  0  0  0  0
   22.7415  -10.2824  -16.5122 C   0  0  2  0  0  0  0  0  0  0  0  0
   23.4983  -10.1025  -17.7663 N   0  0  0  0  0  0  0  0  0  0  0  0
   22.0722   -9.0079  -16.1505 C   0  0  0  0  0  0  0  0  0  0  0  0
   22.7832   -7.9430  -16.0656 O   0  0  0  0  0  0  0  0  0  0  0  0
   20.7075   -8.8393  -15.8885 N   0  0  0  0  0  0  0  0  0  0  0  0
   20.1636   -7.5967  -15.4194 C   0  0  1  0  0  0  0  0  0  0  0  0
   19.6564   -7.7067  -13.9829 C   0  0  0  0  0  0  0  0  0  0  0  0
   18.3212   -8.9282  -13.9792 S   0  0  0  0  0  0  0  0  0  0  0  0
   21.0995   -6.4580  -15.5364 C   0  0  0  0  0  0  0  0  0  0  0  0
   22.3733   -6.5692  -16.0484 O   0  0  0  0  0  0  0  0  0  0  0  0
   20.7464   -5.3019  -15.1556 O   0  0  0  0  0  0  0  0  0  0  0  0
  2  4  1  0
  2  1  1  6
  3  2  1  0
  4  5  2  0
  7  6  1  0
  8  9  1  0
  8  7  1  0
 10  9  1  1
 10 12  1  0
 11 10  1  0
 11  4  1  0
 12 13  2  0
 14 12  1  0
 14 15  1  0
 15 18  1  0
 16 17  1  0
 15 16  1  1
 18 20  2  0
 18 19  1  0
M  END
$$$$
