AMC.pdb
     RDKit          3D

 20 19  0  0  1  0  0  0  0  0999 V2000
   14.2066  -10.6994  -12.8100 C   0  0  0  0  0  0  0  0  0  0  0  0
   15.7107  -10.6355  -12.6147 C   0  0  2  0  0  0  0  0  0  0  0  0
   16.0401  -11.4429  -11.4758 N   0  0  0  0  0  0  0  0  0  0  0  0
   16.0499   -9.2147  -12.3644 C   0  0  0  0  0  0  0  0  0  0  0  0
   15.8592   -8.3552  -13.2701 O   0  0  0  0  0  0  0  0  0  0  0  0
   13.3403   -5.4738   -7.1008 C   0  0  0  0  0  0  0  0  0  0  0  0
   14.8670   -6.3454   -7.4626 S   0  0  0  0  0  0  0  0  0  0  0  0
   15.1245   -6.5013   -9.2723 C   0  0  0  0  0  0  0  0  0  0  0  0
   16.4488   -7.1776   -9.4401 C   0  0  0  0  0  0  0  0  0  0  0  0
   16.8748   -7.4022  -10.8822 C   0  0  2  0  0  0  0  0  0  0  0  0
   16.5868   -8.8320  -11.1069 N   0  0  0  0  0  0  0  0  0  0  0  0
   18.3269   -7.1548  -11.0648 C   0  0  0  0  0  0  0  0  0  0  0  0
   19.1592   -8.0218  -10.6151 O   0  0  0  0  0  0  0  0  0  0  0  0
   18.9007   -6.0457  -11.6973 N   0  0  0  0  0  0  0  0  0  0  0  0
   20.2206   -6.0805  -12.2600 C   0  0  1  0  0  0  0  0  0  0  0  0
   20.3584   -7.1775  -13.3138 C   0  0  0  0  0  0  0  0  0  0  0  0
   22.0647   -7.1303  -13.9149 S   0  0  0  0  0  0  0  0  0  0  0  0
   20.6599   -4.7853  -12.8220 C   0  0  0  0  0  0  0  0  0  0  0  0
   21.9296   -4.2767  -12.6600 O   0  0  0  0  0  0  0  0  0  0  0  0
   19.8528   -4.0767  -13.4949 O   0  0  0  0  0  0  0  0  0  0  0  0
  2  4  1  0
  2  1  1  1
  3  2  1  0
  4  5  2  0
  7  6  1  0
  8  9  1  0
  8  7  1  0
 10  9  1  1
 10 12  1  0
 11 10  1  0
 11  4  1  0
 12 13  2  0
 14 12  1  0
 14 15  1  0
 15 18  1  0
 16 17  1  0
 15 16  1  6
 18 20  2  0
 18 19  1  0
M  END
$$$$
