AMC.pdb
     RDKit          3D

 20 19  0  0  1  0  0  0  0  0999 V2000
   18.4735  -12.8045  -19.0920 C   0  0  0  0  0  0  0  0  0  0  0  0
   18.5165  -11.3268  -19.4372 C   0  0  2  0  0  0  0  0  0  0  0  0
   19.5657  -11.1302  -20.3953 N   0  0  0  0  0  0  0  0  0  0  0  0
   18.8141  -10.6019  -18.1792 C   0  0  0  0  0  0  0  0  0  0  0  0
   18.0041  -10.6647  -17.2122 O   0  0  0  0  0  0  0  0  0  0  0  0
   22.3707   -8.8243  -12.5210 C   0  0  0  0  0  0  0  0  0  0  0  0
   21.8726   -9.5127  -14.1019 S   0  0  0  0  0  0  0  0  0  0  0  0
   22.2585   -8.3588  -15.4749 C   0  0  0  0  0  0  0  0  0  0  0  0
   21.7457   -9.0158  -16.7177 C   0  0  0  0  0  0  0  0  0  0  0  0
   20.2308   -9.0692  -16.8352 C   0  0  2  0  0  0  0  0  0  0  0  0
   20.0090   -9.8424  -18.0724 N   0  0  0  0  0  0  0  0  0  0  0  0
   19.6495   -7.7120  -16.9884 C   0  0  0  0  0  0  0  0  0  0  0  0
   19.7827   -7.1100  -18.1138 O   0  0  0  0  0  0  0  0  0  0  0  0
   18.9478   -7.0008  -16.0080 N   0  0  0  0  0  0  0  0  0  0  0  0
   18.4784   -5.6610  -16.2199 C   0  0  1  0  0  0  0  0  0  0  0  0
   16.9716   -5.6212  -16.4668 C   0  0  0  0  0  0  0  0  0  0  0  0
   16.1729   -6.3591  -15.0203 S   0  0  0  0  0  0  0  0  0  0  0  0
   18.8339   -4.7287  -15.1288 C   0  0  0  0  0  0  0  0  0  0  0  0
   18.4923   -3.3944  -15.1261 O   0  0  0  0  0  0  0  0  0  0  0  0
   19.4878   -5.1429  -14.1252 O   0  0  0  0  0  0  0  0  0  0  0  0
  2  4  1  0
  2  1  1  1
  3  2  1  0
  4  5  2  0
  7  6  1  0
  8  9  1  0
  8  7  1  0
 10  9  1  6
 10 12  1  0
 11 10  1  0
 11  4  1  0
 12 13  2  0
 14 12  1  0
 14 15  1  0
 15 18  1  0
 16 17  1  0
 15 16  1  1
 18 20  2  0
 18 19  1  0
M  END
$$$$
