AMC.pdb
     RDKit          3D

 20 19  0  0  1  0  0  0  0  0999 V2000
   41.5638   -9.3585   -8.8713 C   0  0  0  0  0  0  0  0  0  0  0  0
   40.7559  -10.4692   -8.2247 C   0  0  2  0  0  0  0  0  0  0  0  0
   40.2039   -9.9569   -7.0039 N   0  0  0  0  0  0  0  0  0  0  0  0
   41.6989  -11.5786   -7.9473 C   0  0  0  0  0  0  0  0  0  0  0  0
   42.3378  -11.6013   -6.8581 O   0  0  0  0  0  0  0  0  0  0  0  0
   43.8484  -18.3528   -7.8111 C   0  0  0  0  0  0  0  0  0  0  0  0
   42.9997  -16.7767   -7.9406 S   0  0  0  0  0  0  0  0  0  0  0  0
   43.2829  -16.0080   -9.5821 C   0  0  0  0  0  0  0  0  0  0  0  0
   42.4223  -14.7842   -9.6144 C   0  0  0  0  0  0  0  0  0  0  0  0
   42.7556  -13.7393   -8.5615 C   0  0  2  0  0  0  0  0  0  0  0  0
   41.8755  -12.6072   -8.9100 N   0  0  0  0  0  0  0  0  0  0  0  0
   44.1737  -13.3101   -8.6514 C   0  0  0  0  0  0  0  0  0  0  0  0
   44.5161  -12.5152   -9.5988 O   0  0  0  0  0  0  0  0  0  0  0  0
   45.2056  -13.6887   -7.7848 N   0  0  0  0  0  0  0  0  0  0  0  0
   46.5700  -13.2973   -7.9984 C   0  0  1  0  0  0  0  0  0  0  0  0
   46.9795  -12.1467   -7.0812 C   0  0  0  0  0  0  0  0  0  0  0  0
   48.6700  -11.6814   -7.5292 S   0  0  0  0  0  0  0  0  0  0  0  0
   47.5335  -14.4113   -7.8687 C   0  0  0  0  0  0  0  0  0  0  0  0
   48.8224  -14.3629   -8.3517 O   0  0  0  0  0  0  0  0  0  0  0  0
   47.1915  -15.4845   -7.2877 O   0  0  0  0  0  0  0  0  0  0  0  0
  2  4  1  0
  2  1  1  1
  3  2  1  0
  4  5  2  0
  7  6  1  0
  8  9  1  0
  8  7  1  0
 10  9  1  6
 10 12  1  0
 11 10  1  0
 11  4  1  0
 12 13  2  0
 14 12  1  0
 14 15  1  0
 15 18  1  0
 16 17  1  0
 15 16  1  1
 18 20  2  0
 18 19  1  0
M  END
$$$$
