AMC.pdb
     RDKit          3D

 20 19  0  0  1  0  0  0  0  0999 V2000
   19.3907  -12.9932  -18.0414 C   0  0  0  0  0  0  0  0  0  0  0  0
   20.6228  -13.6866  -17.4886 C   0  0  2  0  0  0  0  0  0  0  0  0
   20.1872  -14.8502  -16.7718 N   0  0  0  0  0  0  0  0  0  0  0  0
   21.2810  -12.7244  -16.5734 C   0  0  0  0  0  0  0  0  0  0  0  0
   20.7519  -12.4568  -15.4583 O   0  0  0  0  0  0  0  0  0  0  0  0
   27.3746  -12.1870  -14.7716 C   0  0  0  0  0  0  0  0  0  0  0  0
   27.0967  -10.6747  -15.6972 S   0  0  0  0  0  0  0  0  0  0  0  0
   25.3513  -10.1272  -15.5579 C   0  0  0  0  0  0  0  0  0  0  0  0
   24.5433  -11.1437  -16.3018 C   0  0  0  0  0  0  0  0  0  0  0  0
   23.0399  -11.0372  -16.1021 C   0  0  2  0  0  0  0  0  0  0  0  0
   22.5023  -12.1114  -16.9592 N   0  0  0  0  0  0  0  0  0  0  0  0
   22.5213   -9.7264  -16.5671 C   0  0  0  0  0  0  0  0  0  0  0  0
   22.1771   -9.6032  -17.7971 O   0  0  0  0  0  0  0  0  0  0  0  0
   22.3600   -8.5787  -15.7821 N   0  0  0  0  0  0  0  0  0  0  0  0
   21.6520   -7.4214  -16.2507 C   0  0  1  0  0  0  0  0  0  0  0  0
   20.2236   -7.7626  -16.6703 C   0  0  0  0  0  0  0  0  0  0  0  0
   19.4025   -6.2051  -17.0884 S   0  0  0  0  0  0  0  0  0  0  0  0
   21.6385   -6.3029  -15.2839 C   0  0  0  0  0  0  0  0  0  0  0  0
   21.8294   -4.9862  -15.6403 O   0  0  0  0  0  0  0  0  0  0  0  0
   21.4437   -6.5284  -14.0520 O   0  0  0  0  0  0  0  0  0  0  0  0
  2  4  1  0
  2  1  1  1
  3  2  1  0
  4  5  2  0
  7  6  1  0
  8  9  1  0
  8  7  1  0
 10  9  1  6
 10 12  1  0
 11 10  1  0
 11  4  1  0
 12 13  2  0
 14 12  1  0
 14 15  1  0
 15 18  1  0
 16 17  1  0
 15 16  1  1
 18 20  2  0
 18 19  1  0
M  END
$$$$
