AMC.pdb
     RDKit          3D

 20 19  0  0  1  0  0  0  0  0999 V2000
   27.0080  -22.0586  -17.9236 C   0  0  0  0  0  0  0  0  0  0  0  0
   27.8250  -21.9755  -16.6469 C   0  0  2  0  0  0  0  0  0  0  0  0
   28.6685  -23.1343  -16.5893 N   0  0  0  0  0  0  0  0  0  0  0  0
   26.8610  -21.9738  -15.5212 C   0  0  0  0  0  0  0  0  0  0  0  0
   26.0248  -22.9139  -15.4099 O   0  0  0  0  0  0  0  0  0  0  0  0
   24.6589  -21.2173   -8.8230 C   0  0  0  0  0  0  0  0  0  0  0  0
   25.6489  -21.3555  -10.3136 S   0  0  0  0  0  0  0  0  0  0  0  0
   25.7023  -19.7614  -11.2201 C   0  0  0  0  0  0  0  0  0  0  0  0
   26.5440  -20.0085  -12.4325 C   0  0  0  0  0  0  0  0  0  0  0  0
   25.9436  -20.9732  -13.4428 C   0  0  2  0  0  0  0  0  0  0  0  0
   26.8862  -20.9139  -14.5767 N   0  0  0  0  0  0  0  0  0  0  0  0
   24.6013  -20.5252  -13.8908 C   0  0  0  0  0  0  0  0  0  0  0  0
   24.5163  -19.4722  -14.6192 O   0  0  0  0  0  0  0  0  0  0  0  0
   23.3837  -21.1503  -13.5973 N   0  0  0  0  0  0  0  0  0  0  0  0
   22.1199  -20.5868  -13.9787 C   0  0  1  0  0  0  0  0  0  0  0  0
   21.5050  -21.3261  -15.1654 C   0  0  0  0  0  0  0  0  0  0  0  0
   21.5448  -23.0925  -14.7739 S   0  0  0  0  0  0  0  0  0  0  0  0
   21.1439  -20.5154  -12.8703 C   0  0  0  0  0  0  0  0  0  0  0  0
   19.9015  -19.9322  -12.9864 O   0  0  0  0  0  0  0  0  0  0  0  0
   21.4300  -21.0063  -11.7374 O   0  0  0  0  0  0  0  0  0  0  0  0
  2  4  1  0
  2  1  1  6
  3  2  1  0
  4  5  2  0
  7  6  1  0
  8  9  1  0
  8  7  1  0
 10  9  1  1
 10 12  1  0
 11 10  1  0
 11  4  1  0
 12 13  2  0
 14 12  1  0
 14 15  1  0
 15 18  1  0
 16 17  1  0
 15 16  1  6
 18 20  2  0
 18 19  1  0
M  END
$$$$
