RIW.pdb
     RDKit          3D

 34 35  0  0  1  0  0  0  0  0999 V2000
    6.3006  -21.6665   15.7162 N   0  0  0  0  0  0  0  0  0  0  0  0
    5.8616  -20.3956   16.2186 C   0  0  0  0  0  0  0  0  0  0  0  0
    4.9356  -19.8016   15.5827 N   0  0  0  0  0  0  0  0  0  0  0  0
    6.4962  -19.9164   17.3752 N   0  0  0  0  0  0  0  0  0  0  0  0
    7.4184  -20.8202   18.0770 C   0  0  0  0  0  0  0  0  0  0  0  0
    7.2748  -20.5305   19.5393 C   0  0  0  0  0  0  0  0  0  0  0  0
    8.2704  -19.5353   20.0152 C   0  0  0  0  0  0  0  0  0  0  0  0
    8.7216  -18.4868   19.0719 C   0  0  2  0  0  0  0  0  0  0  0  0
    9.5209  -19.0152   18.0220 N   0  0  0  0  0  0  0  0  0  0  0  0
    9.4222  -17.3896   19.8172 C   0  0  0  0  0  0  0  0  0  0  0  0
   10.6718  -17.4233   19.8710 O   0  0  0  0  0  0  0  0  0  0  0  0
    4.5568  -18.8529   15.7604 C   0  0  0  0  0  0  0  0  0  0  0  0
    7.2510  -12.2835   19.7079 C   0  0  0  0  0  0  0  0  0  0  0  0
    8.2967  -13.4073   19.5902 C   0  0  2  0  0  0  0  0  0  0  0  0
    8.4560  -13.9985   20.9409 C   0  0  0  0  0  0  0  0  0  0  0  0
    8.9559  -12.8904   21.8730 C   0  0  2  0  0  0  0  0  0  0  0  0
    9.4049  -15.1748   21.0350 N   0  0  0  0  0  0  0  0  0  0  0  0
    8.7103  -16.3470   20.4424 C   0  0  0  0  0  0  0  0  0  0  0  0
    9.7760  -15.5396   22.4152 O   0  0  0  0  0  0  0  0  0  0  0  0
   10.6930  -14.8784   22.9835 N   0  0  0  0  0  0  0  0  0  0  0  0
    9.1476  -16.5962   23.1341 C   0  0  1  0  0  0  0  0  0  0  0  0
    9.4637  -16.8588   24.5369 C   0  0  0  0  0  0  0  0  0  0  0  0
    9.3528  -15.6036   25.3440 C   0  0  0  0  0  0  0  0  0  0  0  0
    7.9601  -15.2121   25.6017 C   0  0  0  0  0  0  0  0  0  0  0  0
    6.8118  -15.9829   25.3765 N   0  0  0  0  0  0  0  0  0  0  0  0
    5.7219  -15.2725   25.7033 C   0  0  0  0  0  0  0  0  0  0  0  0
    6.0790  -14.0338   26.1487 C   0  0  0  0  0  0  0  0  0  0  0  0
    5.3329  -12.9701   26.6059 C   0  0  0  0  0  0  0  0  0  0  0  0
    5.9467  -11.8148   27.0245 C   0  0  0  0  0  0  0  0  0  0  0  0
    7.3221  -11.7827   26.9620 C   0  0  0  0  0  0  0  0  0  0  0  0
    8.0683  -12.8422   26.5059 C   0  0  0  0  0  0  0  0  0  0  0  0
    7.4571  -14.0037   26.0838 C   0  0  0  0  0  0  0  0  0  0  0  0
    8.8071  -18.0501   25.0358 O   0  0  0  0  0  0  0  0  0  0  0  0
    8.0401  -18.7100   24.2872 O   0  0  0  0  0  0  0  0  0  0  0  0
  1  2  1  0
  2  3  2  0
  4  5  1  0
  4  2  1  0
  6  5  1  0
  7  6  1  0
  8  7  1  0
  8  9  1  6
 10  8  1  0
 11 10  2  0
 12 13  1  0
 13 14  1  0
 14 16  1  0
 14 15  1  1
 16 18  1  0
 16 17  1  6
 17 10  1  0
 18 20  1  0
 19 18  2  0
 21 20  1  0
 21 32  1  0
 21 22  1  1
 23 22  1  0
 23 24  2  0
 25 24  1  0
 26 25  1  0
 27 26  2  0
 28 29  2  0
 28 27  1  0
 29 30  1  0
 30 31  2  0
 31 26  1  0
 31 23  1  0
 32 33  2  0
 32 34  1  0
M  END
$$$$
