RIW.pdb
     RDKit          3D

 34 35  0  0  1  0  0  0  0  0999 V2000
    6.1889  -16.8701   14.7064 N   0  0  0  0  0  0  0  0  0  0  0  0
    5.7002  -18.1213   15.2120 C   0  0  0  0  0  0  0  0  0  0  0  0
    4.8280  -18.7334   14.5196 N   0  0  0  0  0  0  0  0  0  0  0  0
    6.2309  -18.5634   16.4339 N   0  0  0  0  0  0  0  0  0  0  0  0
    6.9613  -17.5898   17.2576 C   0  0  0  0  0  0  0  0  0  0  0  0
    7.5647  -18.3553   18.3946 C   0  0  0  0  0  0  0  0  0  0  0  0
    8.3115  -17.4754   19.3307 C   0  0  0  0  0  0  0  0  0  0  0  0
    8.2295  -17.7627   20.7810 C   0  0  2  0  0  0  0  0  0  0  0  0
    6.8880  -17.9196   21.2238 N   0  0  0  0  0  0  0  0  0  0  0  0
    8.9604  -16.7078   21.5576 C   0  0  0  0  0  0  0  0  0  0  0  0
   10.0766  -16.3351   21.1324 O   0  0  0  0  0  0  0  0  0  0  0  0
    4.3128  -19.5964   14.7742 C   0  0  0  0  0  0  0  0  0  0  0  0
    6.0004  -13.5404   25.1654 C   0  0  0  0  0  0  0  0  0  0  0  0
    6.8880  -13.8789   23.9539 C   0  0  2  0  0  0  0  0  0  0  0  0
    8.1239  -14.5074   24.4803 C   0  0  0  0  0  0  0  0  0  0  0  0
    8.8412  -13.4631   25.3413 C   0  0  2  0  0  0  0  0  0  0  0  0
    9.0932  -15.0237   23.4379 N   0  0  0  0  0  0  0  0  0  0  0  0
    8.4210  -16.1444   22.7308 C   0  0  0  0  0  0  0  0  0  0  0  0
   10.3519  -15.5527   23.9961 O   0  0  0  0  0  0  0  0  0  0  0  0
   11.3519  -14.7797   24.0563 N   0  0  0  0  0  0  0  0  0  0  0  0
   10.4890  -16.8879   24.4718 C   0  0  1  0  0  0  0  0  0  0  0  0
   11.7606  -17.3858   24.9933 C   0  0  0  0  0  0  0  0  0  0  0  0
   12.3369  -16.4208   25.9812 C   0  0  0  0  0  0  0  0  0  0  0  0
   11.6797  -16.4872   27.2938 C   0  0  0  0  0  0  0  0  0  0  0  0
   11.3243  -17.6431   28.0016 N   0  0  0  0  0  0  0  0  0  0  0  0
   10.7140  -17.3002   29.1458 C   0  0  0  0  0  0  0  0  0  0  0  0
   10.6361  -15.9427   29.2536 C   0  0  0  0  0  0  0  0  0  0  0  0
   10.1217  -15.1257   30.2359 C   0  0  0  0  0  0  0  0  0  0  0  0
   10.1855  -13.7592   30.1126 C   0  0  0  0  0  0  0  0  0  0  0  0
   10.7813  -13.2641   28.9739 C   0  0  0  0  0  0  0  0  0  0  0  0
   11.2946  -14.0770   27.9925 C   0  0  0  0  0  0  0  0  0  0  0  0
   11.2323  -15.4492   28.1111 C   0  0  0  0  0  0  0  0  0  0  0  0
   11.6932  -18.7842   25.3664 O   0  0  0  0  0  0  0  0  0  0  0  0
   12.7131  -19.3683   25.8170 O   0  0  0  0  0  0  0  0  0  0  0  0
  1  2  1  0
  2  3  2  0
  4  5  1  0
  4  2  1  0
  6  5  1  0
  7  6  1  0
  8  7  1  0
  8  9  1  1
 10  8  1  0
 11 10  2  0
 12 13  1  0
 13 14  1  0
 14 16  1  0
 14 15  1  1
 16 18  1  0
 16 17  1  6
 17 10  1  0
 18 20  1  0
 19 18  2  0
 21 20  1  0
 21 32  1  0
 21 22  1  6
 23 22  1  0
 23 24  2  0
 25 24  1  0
 26 25  1  0
 27 26  2  0
 28 29  2  0
 28 27  1  0
 29 30  1  0
 30 31  2  0
 31 26  1  0
 31 23  1  0
 32 33  2  0
 32 34  1  0
M  END
$$$$
