RIW.pdb
     RDKit          3D

 34 35  0  0  1  0  0  0  0  0999 V2000
    9.5686  -15.8518   12.6935 N   0  0  0  0  0  0  0  0  0  0  0  0
    9.9434  -16.9387   13.5528 C   0  0  0  0  0  0  0  0  0  0  0  0
   10.4720  -17.9594   13.0111 N   0  0  0  0  0  0  0  0  0  0  0  0
    9.6928  -16.7793   14.9246 N   0  0  0  0  0  0  0  0  0  0  0  0
    8.2929  -16.7850   15.3720 C   0  0  0  0  0  0  0  0  0  0  0  0
    8.0855  -18.0663   16.1191 C   0  0  0  0  0  0  0  0  0  0  0  0
    9.1805  -18.3358   17.0869 C   0  0  0  0  0  0  0  0  0  0  0  0
    8.8772  -18.2457   18.5335 C   0  0  2  0  0  0  0  0  0  0  0  0
    7.4814  -18.3041   18.7955 N   0  0  0  0  0  0  0  0  0  0  0  0
    9.5101  -17.0173   19.1173 C   0  0  0  0  0  0  0  0  0  0  0  0
   10.0007  -16.1796   18.3280 O   0  0  0  0  0  0  0  0  0  0  0  0
   10.8409  -18.8047   13.4846 C   0  0  0  0  0  0  0  0  0  0  0  0
    6.9553  -13.0519   19.7323 C   0  0  0  0  0  0  0  0  0  0  0  0
    8.3926  -13.5820   19.8847 C   0  0  2  0  0  0  0  0  0  0  0  0
    8.3350  -14.7398   20.8097 C   0  0  0  0  0  0  0  0  0  0  0  0
    7.7635  -14.2390   22.1398 C   0  0  2  0  0  0  0  0  0  0  0  0
    9.6551  -15.4308   21.0797 N   0  0  0  0  0  0  0  0  0  0  0  0
    9.5589  -16.7990   20.5082 C   0  0  0  0  0  0  0  0  0  0  0  0
    9.9754  -15.5780   22.5120 O   0  0  0  0  0  0  0  0  0  0  0  0
   10.7507  -14.7303   23.0425 N   0  0  0  0  0  0  0  0  0  0  0  0
    9.4495  -16.6253   23.3210 C   0  0  1  0  0  0  0  0  0  0  0  0
    9.7653  -16.7220   24.7450 C   0  0  0  0  0  0  0  0  0  0  0  0
    9.7327  -15.3688   25.3831 C   0  0  0  0  0  0  0  0  0  0  0  0
    8.3710  -14.9261   25.7131 C   0  0  0  0  0  0  0  0  0  0  0  0
    7.2047  -15.7027   25.6978 N   0  0  0  0  0  0  0  0  0  0  0  0
    6.1516  -14.9394   26.0262 C   0  0  0  0  0  0  0  0  0  0  0  0
    6.5518  -13.6584   26.2693 C   0  0  0  0  0  0  0  0  0  0  0  0
    5.8542  -12.5328   26.6482 C   0  0  0  0  0  0  0  0  0  0  0  0
    6.5072  -11.3417   26.8525 C   0  0  0  0  0  0  0  0  0  0  0  0
    7.8709  -11.3387   26.6606 C   0  0  0  0  0  0  0  0  0  0  0  0
    8.5689  -12.4599   26.2823 C   0  0  0  0  0  0  0  0  0  0  0  0
    7.9180  -13.6576   26.0752 C   0  0  0  0  0  0  0  0  0  0  0  0
    9.0487  -17.7999   25.3961 O   0  0  0  0  0  0  0  0  0  0  0  0
    8.1623  -18.4383   24.7709 O   0  0  0  0  0  0  0  0  0  0  0  0
  1  2  1  0
  2  3  2  0
  4  5  1  0
  4  2  1  0
  6  5  1  0
  7  6  1  0
  8  7  1  0
  8  9  1  6
 10  8  1  0
 11 10  2  0
 12 13  1  0
 13 14  1  0
 14 16  1  0
 14 15  1  6
 16 18  1  0
 16 17  1  1
 17 10  1  0
 18 20  1  0
 19 18  2  0
 21 20  1  0
 21 32  1  0
 21 22  1  1
 23 22  1  0
 23 24  2  0
 25 24  1  0
 26 25  1  0
 27 26  2  0
 28 29  2  0
 28 27  1  0
 29 30  1  0
 30 31  2  0
 31 26  1  0
 31 23  1  0
 32 33  2  0
 32 34  1  0
M  END
$$$$
