RIW.pdb
     RDKit          3D

 34 35  0  0  1  0  0  0  0  0999 V2000
   10.2141  -19.7264   13.6446 N   0  0  0  0  0  0  0  0  0  0  0  0
    9.4005  -20.6748   14.3509 C   0  0  0  0  0  0  0  0  0  0  0  0
    9.1113  -21.7589   13.7544 N   0  0  0  0  0  0  0  0  0  0  0  0
    8.9926  -20.3211   15.6465 N   0  0  0  0  0  0  0  0  0  0  0  0
    9.4119  -19.0114   16.1648 C   0  0  0  0  0  0  0  0  0  0  0  0
   10.3674  -19.2788   17.2866 C   0  0  0  0  0  0  0  0  0  0  0  0
   10.5006  -18.1147   18.2006 C   0  0  0  0  0  0  0  0  0  0  0  0
   10.0620  -18.2717   19.6063 C   0  0  2  0  0  0  0  0  0  0  0  0
    8.7144  -18.7131   19.7036 N   0  0  0  0  0  0  0  0  0  0  0  0
   10.2950  -16.9984   20.3643 C   0  0  0  0  0  0  0  0  0  0  0  0
   11.4147  -16.4501   20.2583 O   0  0  0  0  0  0  0  0  0  0  0  0
    8.5313  -22.5402   14.1122 C   0  0  0  0  0  0  0  0  0  0  0  0
    6.5449  -13.3254   20.0324 C   0  0  0  0  0  0  0  0  0  0  0  0
    7.9119  -14.0310   20.0910 C   0  0  2  0  0  0  0  0  0  0  0  0
    8.2037  -14.2995   21.5201 C   0  0  0  0  0  0  0  0  0  0  0  0
    8.3040  -12.9468   22.2320 C   0  0  2  0  0  0  0  0  0  0  0  0
    9.4677  -15.0863   21.7956 N   0  0  0  0  0  0  0  0  0  0  0  0
    9.2952  -16.4250   21.1744 C   0  0  0  0  0  0  0  0  0  0  0  0
    9.7415  -15.3027   23.2288 O   0  0  0  0  0  0  0  0  0  0  0  0
   10.3918  -14.4159   23.8548 N   0  0  0  0  0  0  0  0  0  0  0  0
    9.3047  -16.4588   23.9363 C   0  0  1  0  0  0  0  0  0  0  0  0
    9.6718  -16.6831   25.3333 C   0  0  0  0  0  0  0  0  0  0  0  0
    8.4481  -16.8667   26.1748 C   0  0  0  0  0  0  0  0  0  0  0  0
    7.4739  -15.7790   26.0102 C   0  0  0  0  0  0  0  0  0  0  0  0
    6.1870  -15.8749   25.4640 N   0  0  0  0  0  0  0  0  0  0  0  0
    5.6120  -14.6630   25.4519 C   0  0  0  0  0  0  0  0  0  0  0  0
    6.4598  -13.7304   25.9732 C   0  0  0  0  0  0  0  0  0  0  0  0
    6.3210  -12.3764   26.1839 C   0  0  0  0  0  0  0  0  0  0  0  0
    7.3373  -11.6503   26.7555 C   0  0  0  0  0  0  0  0  0  0  0  0
    8.4787  -12.3405   27.0986 C   0  0  0  0  0  0  0  0  0  0  0  0
    8.6197  -13.6909   26.8890 C   0  0  0  0  0  0  0  0  0  0  0  0
    7.6029  -14.4240   26.3148 C   0  0  0  0  0  0  0  0  0  0  0  0
   10.7457  -17.6457   25.4730 O   0  0  0  0  0  0  0  0  0  0  0  0
   11.1796  -17.9477   26.6152 O   0  0  0  0  0  0  0  0  0  0  0  0
  1  2  1  0
  2  3  2  0
  4  5  1  0
  4  2  1  0
  6  5  1  0
  7  6  1  0
  8  7  1  0
  8  9  1  6
 10  8  1  0
 11 10  2  0
 12 13  1  0
 13 14  1  0
 14 16  1  0
 14 15  1  1
 16 18  1  0
 16 17  1  6
 17 10  1  0
 18 20  1  0
 19 18  2  0
 21 20  1  0
 21 32  1  0
 21 22  1  1
 23 22  1  0
 23 24  2  0
 25 24  1  0
 26 25  1  0
 27 26  2  0
 28 29  2  0
 28 27  1  0
 29 30  1  0
 30 31  2  0
 31 26  1  0
 31 23  1  0
 32 33  2  0
 32 34  1  0
M  END
$$$$
