RIW.pdb
     RDKit          3D

 34 35  0  0  1  0  0  0  0  0999 V2000
    4.7144  -22.7124   25.0225 N   0  0  0  0  0  0  0  0  0  0  0  0
    4.4052  -23.2817   23.7418 C   0  0  0  0  0  0  0  0  0  0  0  0
    3.8963  -24.4460   23.7247 N   0  0  0  0  0  0  0  0  0  0  0  0
    4.6929  -22.4991   22.6127 N   0  0  0  0  0  0  0  0  0  0  0  0
    5.3499  -21.2018   22.8257 C   0  0  0  0  0  0  0  0  0  0  0  0
    5.5345  -20.5860   21.4731 C   0  0  0  0  0  0  0  0  0  0  0  0
    6.2577  -19.2896   21.5400 C   0  0  0  0  0  0  0  0  0  0  0  0
    6.4366  -18.5198   20.2878 C   0  0  2  0  0  0  0  0  0  0  0  0
    6.6831  -19.3612   19.1691 N   0  0  0  0  0  0  0  0  0  0  0  0
    7.5110  -17.4883   20.4658 C   0  0  0  0  0  0  0  0  0  0  0  0
    8.6819  -17.8025   20.1561 O   0  0  0  0  0  0  0  0  0  0  0  0
    3.5356  -24.9645   22.9026 C   0  0  0  0  0  0  0  0  0  0  0  0
    6.6402  -12.2700   19.4504 C   0  0  0  0  0  0  0  0  0  0  0  0
    7.3190  -13.6500   19.5210 C   0  0  2  0  0  0  0  0  0  0  0  0
    7.7614  -13.8476   20.9228 C   0  0  0  0  0  0  0  0  0  0  0  0
    8.8472  -12.8072   21.2143 C   0  0  2  0  0  0  0  0  0  0  0  0
    8.3065  -15.2214   21.2517 N   0  0  0  0  0  0  0  0  0  0  0  0
    7.2274  -16.2017   20.9649 C   0  0  0  0  0  0  0  0  0  0  0  0
    8.6883  -15.3945   22.6660 O   0  0  0  0  0  0  0  0  0  0  0  0
    7.8649  -15.0347   23.5569 N   0  0  0  0  0  0  0  0  0  0  0  0
    9.9357  -15.9498   23.0706 C   0  0  2  0  0  0  0  0  0  0  0  0
   10.2887  -16.0860   24.4825 C   0  0  0  0  0  0  0  0  0  0  0  0
    9.1548  -16.6877   25.2516 C   0  0  0  0  0  0  0  0  0  0  0  0
    8.2370  -15.6786   25.7981 C   0  0  0  0  0  0  0  0  0  0  0  0
    6.8887  -15.4955   25.4634 N   0  0  0  0  0  0  0  0  0  0  0  0
    6.3929  -14.4533   26.1472 C   0  0  0  0  0  0  0  0  0  0  0  0
    7.3553  -13.9091   26.9460 C   0  0  0  0  0  0  0  0  0  0  0  0
    7.3280  -12.8540   27.8310 C   0  0  0  0  0  0  0  0  0  0  0  0
    8.4507  -12.5112   28.5444 C   0  0  0  0  0  0  0  0  0  0  0  0
    9.5808  -13.2679   28.3280 C   0  0  0  0  0  0  0  0  0  0  0  0
    9.6106  -14.3204   27.4455 C   0  0  0  0  0  0  0  0  0  0  0  0
    8.4868  -14.6679   26.7264 C   0  0  0  0  0  0  0  0  0  0  0  0
   11.6116  -16.6473   24.6679 O   0  0  0  0  0  0  0  0  0  0  0  0
   12.2206  -17.1653   23.6958 O   0  0  0  0  0  0  0  0  0  0  0  0
  1  2  1  0
  2  3  2  0
  4  5  1  0
  4  2  1  0
  6  5  1  0
  7  6  1  0
  8  7  1  0
  8  9  1  6
 10  8  1  0
 11 10  2  0
 12 13  1  0
 13 14  1  0
 14 16  1  0
 14 15  1  1
 16 18  1  0
 16 17  1  6
 17 10  1  0
 18 20  1  0
 19 18  2  0
 21 20  1  0
 21 32  1  0
 21 22  1  6
 23 22  1  0
 23 24  2  0
 25 24  1  0
 26 25  1  0
 27 26  2  0
 28 29  2  0
 28 27  1  0
 29 30  1  0
 30 31  2  0
 31 26  1  0
 31 23  1  0
 32 33  2  0
 32 34  1  0
M  END
$$$$
