RIW.pdb
     RDKit          3D

 34 35  0  0  1  0  0  0  0  0999 V2000
    9.2625  -13.2666   17.3048 N   0  0  0  0  0  0  0  0  0  0  0  0
    8.5381  -12.8923   18.4860 C   0  0  0  0  0  0  0  0  0  0  0  0
    8.4295  -11.6518   18.7391 N   0  0  0  0  0  0  0  0  0  0  0  0
    8.0091  -13.9343   19.2634 N   0  0  0  0  0  0  0  0  0  0  0  0
    7.6500  -15.1857   18.5816 C   0  0  0  0  0  0  0  0  0  0  0  0
    6.2217  -15.4709   18.9304 C   0  0  0  0  0  0  0  0  0  0  0  0
    6.0856  -16.1009   20.2693 C   0  0  0  0  0  0  0  0  0  0  0  0
    7.1741  -16.9861   20.7429 C   0  0  2  0  0  0  0  0  0  0  0  0
    7.0254  -18.3199   20.2747 N   0  0  0  0  0  0  0  0  0  0  0  0
    7.2778  -16.9211   22.2380 C   0  0  0  0  0  0  0  0  0  0  0  0
    7.3102  -15.7912   22.7744 O   0  0  0  0  0  0  0  0  0  0  0  0
    8.0117  -11.2142   19.5811 C   0  0  0  0  0  0  0  0  0  0  0  0
    7.4136  -21.7351   25.4819 C   0  0  0  0  0  0  0  0  0  0  0  0
    7.9339  -20.4913   24.7387 C   0  0  2  0  0  0  0  0  0  0  0  0
    6.9970  -19.3810   25.0367 C   0  0  0  0  0  0  0  0  0  0  0  0
    5.6371  -19.7521   24.4371 C   0  0  1  0  0  0  0  0  0  0  0  0
    7.4028  -18.0204   24.5107 N   0  0  0  0  0  0  0  0  0  0  0  0
    7.3379  -18.0862   23.0277 C   0  0  0  0  0  0  0  0  0  0  0  0
    8.7768  -17.6217   24.8698 O   0  0  0  0  0  0  0  0  0  0  0  0
    9.7284  -18.0307   24.1429 N   0  0  0  0  0  0  0  0  0  0  0  0
    9.0775  -16.7973   25.9913 C   0  0  1  0  0  0  0  0  0  0  0  0
   10.4550  -16.4525   26.3380 C   0  0  0  0  0  0  0  0  0  0  0  0
   10.6599  -14.9719   26.2657 C   0  0  0  0  0  0  0  0  0  0  0  0
    9.5651  -14.2134   26.8865 C   0  0  0  0  0  0  0  0  0  0  0  0
    9.3587  -13.9979   28.2557 N   0  0  0  0  0  0  0  0  0  0  0  0
    8.2356  -13.2868   28.4348 C   0  0  0  0  0  0  0  0  0  0  0  0
    7.6575  -13.0020   27.2327 C   0  0  0  0  0  0  0  0  0  0  0  0
    6.5216  -12.2967   26.9021 C   0  0  0  0  0  0  0  0  0  0  0  0
    6.1589  -12.1326   25.5874 C   0  0  0  0  0  0  0  0  0  0  0  0
    6.9797  -12.7021   24.6395 C   0  0  0  0  0  0  0  0  0  0  0  0
    8.1128  -13.4065   24.9668 C   0  0  0  0  0  0  0  0  0  0  0  0
    8.4808  -13.5748   26.2849 C   0  0  0  0  0  0  0  0  0  0  0  0
   10.9150  -17.1470   27.5235 O   0  0  0  0  0  0  0  0  0  0  0  0
   12.1350  -17.1305   27.8327 O   0  0  0  0  0  0  0  0  0  0  0  0
  1  2  1  0
  2  3  2  0
  4  5  1  0
  4  2  1  0
  6  5  1  0
  7  6  1  0
  8  7  1  0
  8  9  1  1
 10  8  1  0
 11 10  2  0
 12 13  1  0
 13 14  1  0
 14 16  1  0
 14 15  1  1
 16 18  1  0
 16 17  1  6
 17 10  1  0
 18 20  1  0
 19 18  2  0
 21 20  1  0
 21 32  1  0
 21 22  1  1
 23 22  1  0
 23 24  2  0
 25 24  1  0
 26 25  1  0
 27 26  2  0
 28 29  2  0
 28 27  1  0
 29 30  1  0
 30 31  2  0
 31 26  1  0
 31 23  1  0
 32 33  2  0
 32 34  1  0
M  END
$$$$
