RIW.pdb
     RDKit          3D

 34 35  0  0  1  0  0  0  0  0999 V2000
    9.7217  -15.7779   12.5564 N   0  0  0  0  0  0  0  0  0  0  0  0
    9.9691  -14.8857   13.6532 C   0  0  0  0  0  0  0  0  0  0  0  0
    9.2394  -13.8492   13.7424 N   0  0  0  0  0  0  0  0  0  0  0  0
   11.0009  -15.2371   14.5375 N   0  0  0  0  0  0  0  0  0  0  0  0
   11.4857  -16.6243   14.5104 C   0  0  0  0  0  0  0  0  0  0  0  0
   10.8322  -17.3306   15.6580 C   0  0  0  0  0  0  0  0  0  0  0  0
   11.2621  -16.7851   16.9717 C   0  0  0  0  0  0  0  0  0  0  0  0
   10.8064  -17.4735   18.2010 C   0  0  2  0  0  0  0  0  0  0  0  0
    9.6152  -18.2196   17.9901 N   0  0  0  0  0  0  0  0  0  0  0  0
   10.6632  -16.4865   19.3215 C   0  0  0  0  0  0  0  0  0  0  0  0
   11.6671  -15.8102   19.6383 O   0  0  0  0  0  0  0  0  0  0  0  0
    9.2673  -13.1198   14.4787 C   0  0  0  0  0  0  0  0  0  0  0  0
    6.5927  -13.1648   19.4459 C   0  0  0  0  0  0  0  0  0  0  0  0
    8.0075  -13.7555   19.5859 C   0  0  2  0  0  0  0  0  0  0  0  0
    8.0283  -14.5458   20.8407 C   0  0  0  0  0  0  0  0  0  0  0  0
    7.8001  -13.5730   22.0018 C   0  0  2  0  0  0  0  0  0  0  0  0
    9.2995  -15.3249   21.1048 N   0  0  0  0  0  0  0  0  0  0  0  0
    9.4439  -16.3144   20.0058 C   0  0  0  0  0  0  0  0  0  0  0  0
    9.2905  -16.0793   22.3724 O   0  0  0  0  0  0  0  0  0  0  0  0
    8.7407  -17.2189   22.3872 N   0  0  0  0  0  0  0  0  0  0  0  0
    9.8743  -15.5852   23.5736 C   0  0  2  0  0  0  0  0  0  0  0  0
    9.8946  -16.3841   24.7976 C   0  0  0  0  0  0  0  0  0  0  0  0
    9.7248  -15.5085   25.9991 C   0  0  0  0  0  0  0  0  0  0  0  0
    8.3577  -14.9877   26.1371 C   0  0  0  0  0  0  0  0  0  0  0  0
    7.1669  -15.7257   26.1064 N   0  0  0  0  0  0  0  0  0  0  0  0
    6.1203  -14.8963   26.2324 C   0  0  0  0  0  0  0  0  0  0  0  0
    6.5484  -13.6067   26.3504 C   0  0  0  0  0  0  0  0  0  0  0  0
    5.8656  -12.4220   26.5153 C   0  0  0  0  0  0  0  0  0  0  0  0
    6.5452  -11.2339   26.6307 C   0  0  0  0  0  0  0  0  0  0  0  0
    7.9199  -11.2950   26.5733 C   0  0  0  0  0  0  0  0  0  0  0  0
    8.6032  -12.4754   26.4084 C   0  0  0  0  0  0  0  0  0  0  0  0
    7.9257  -13.6705   26.2912 C   0  0  0  0  0  0  0  0  0  0  0  0
    9.0673  -17.5692   24.6955 O   0  0  0  0  0  0  0  0  0  0  0  0
    8.1530  -17.6298   23.8325 O   0  0  0  0  0  0  0  0  0  0  0  0
  1  2  1  0
  2  3  2  0
  4  5  1  0
  4  2  1  0
  6  5  1  0
  7  6  1  0
  8  7  1  0
  8  9  1  6
 10  8  1  0
 11 10  2  0
 12 13  1  0
 13 14  1  0
 14 16  1  0
 14 15  1  1
 16 18  1  0
 16 17  1  1
 17 10  1  0
 18 20  1  0
 19 18  2  0
 21 20  1  0
 21 32  1  0
 21 22  1  6
 23 22  1  0
 23 24  2  0
 25 24  1  0
 26 25  1  0
 27 26  2  0
 28 29  2  0
 28 27  1  0
 29 30  1  0
 30 31  2  0
 31 26  1  0
 31 23  1  0
 32 33  2  0
 32 34  1  0
M  END
$$$$
