RIW.pdb
     RDKit          3D

 34 35  0  0  1  0  0  0  0  0999 V2000
   12.0316  -22.9534   20.9113 N   0  0  0  0  0  0  0  0  0  0  0  0
   12.5950  -23.0916   19.5984 C   0  0  0  0  0  0  0  0  0  0  0  0
   13.2339  -24.1601   19.3436 N   0  0  0  0  0  0  0  0  0  0  0  0
   12.3903  -22.0290   18.7045 N   0  0  0  0  0  0  0  0  0  0  0  0
   11.9244  -20.7486   19.2551 C   0  0  0  0  0  0  0  0  0  0  0  0
   10.4564  -20.6666   18.9699 C   0  0  0  0  0  0  0  0  0  0  0  0
    9.8050  -19.5452   19.6954 C   0  0  0  0  0  0  0  0  0  0  0  0
    9.5659  -18.2802   18.9638 C   0  0  2  0  0  0  0  0  0  0  0  0
   10.3266  -18.1991   17.7659 N   0  0  0  0  0  0  0  0  0  0  0  0
    9.8098  -17.1080   19.8676 C   0  0  0  0  0  0  0  0  0  0  0  0
   10.9750  -16.6584   19.9424 O   0  0  0  0  0  0  0  0  0  0  0  0
   13.7229  -24.4078   18.4636 C   0  0  0  0  0  0  0  0  0  0  0  0
    6.7487  -12.9122   19.4470 C   0  0  0  0  0  0  0  0  0  0  0  0
    7.9969  -13.7854   19.6695 C   0  0  2  0  0  0  0  0  0  0  0  0
    7.9263  -14.3022   21.0578 C   0  0  0  0  0  0  0  0  0  0  0  0
    8.0225  -13.1001   22.0024 C   0  0  2  0  0  0  0  0  0  0  0  0
    8.9944  -15.3050   21.4403 N   0  0  0  0  0  0  0  0  0  0  0  0
    8.7705  -16.5204   20.6154 C   0  0  0  0  0  0  0  0  0  0  0  0
    8.9486  -15.7231   22.8541 O   0  0  0  0  0  0  0  0  0  0  0  0
    8.0176  -16.4981   23.2197 N   0  0  0  0  0  0  0  0  0  0  0  0
    9.9044  -15.2977   23.8204 C   0  0  2  0  0  0  0  0  0  0  0  0
    9.8746  -15.7957   25.1943 C   0  0  0  0  0  0  0  0  0  0  0  0
    8.5043  -16.2828   25.5467 C   0  0  0  0  0  0  0  0  0  0  0  0
    7.5295  -15.1922   25.6868 C   0  0  0  0  0  0  0  0  0  0  0  0
    6.1572  -15.2467   25.4089 N   0  0  0  0  0  0  0  0  0  0  0  0
    5.6058  -14.0436   25.6274 C   0  0  0  0  0  0  0  0  0  0  0  0
    6.5529  -13.1572   26.0490 C   0  0  0  0  0  0  0  0  0  0  0  0
    6.4756  -11.8299   26.4088 C   0  0  0  0  0  0  0  0  0  0  0  0
    7.5955  -11.1526   26.8257 C   0  0  0  0  0  0  0  0  0  0  0  0
    8.7749  -11.8627   26.8622 C   0  0  0  0  0  0  0  0  0  0  0  0
    8.8546  -13.1865   26.5034 C   0  0  0  0  0  0  0  0  0  0  0  0
    7.7336  -13.8707   26.0835 C   0  0  0  0  0  0  0  0  0  0  0  0
   11.0015  -16.6562   25.4929 O   0  0  0  0  0  0  0  0  0  0  0  0
   11.1253  -17.1611   26.6392 O   0  0  0  0  0  0  0  0  0  0  0  0
  1  2  1  0
  2  3  2  0
  4  5  1  0
  4  2  1  0
  6  5  1  0
  7  6  1  0
  8  7  1  0
  8  9  1  6
 10  8  1  0
 11 10  2  0
 12 13  1  0
 13 14  1  0
 14 16  1  0
 14 15  1  1
 16 18  1  0
 16 17  1  6
 17 10  1  0
 18 20  1  0
 19 18  2  0
 21 20  1  0
 21 32  1  0
 21 22  1  6
 23 22  1  0
 23 24  2  0
 25 24  1  0
 26 25  1  0
 27 26  2  0
 28 29  2  0
 28 27  1  0
 29 30  1  0
 30 31  2  0
 31 26  1  0
 31 23  1  0
 32 33  2  0
 32 34  1  0
M  END
$$$$
