RIW.pdb
     RDKit          3D

 34 35  0  0  1  0  0  0  0  0999 V2000
    7.5335  -14.2334   17.0631 N   0  0  0  0  0  0  0  0  0  0  0  0
    8.8213  -14.4458   16.4659 C   0  0  0  0  0  0  0  0  0  0  0  0
    9.6915  -13.5305   16.6067 N   0  0  0  0  0  0  0  0  0  0  0  0
    9.0095  -15.6528   15.7746 N   0  0  0  0  0  0  0  0  0  0  0  0
    8.5989  -16.8968   16.4407 C   0  0  0  0  0  0  0  0  0  0  0  0
    9.8425  -17.7061   16.6447 C   0  0  0  0  0  0  0  0  0  0  0  0
   10.7055  -17.1488   17.7184 C   0  0  0  0  0  0  0  0  0  0  0  0
   10.6191  -17.7469   19.0703 C   0  0  2  0  0  0  0  0  0  0  0  0
    9.5830  -18.7153   19.1652 N   0  0  0  0  0  0  0  0  0  0  0  0
   10.4797  -16.6682   20.1033 C   0  0  0  0  0  0  0  0  0  0  0  0
   11.3581  -15.7780   20.1429 O   0  0  0  0  0  0  0  0  0  0  0  0
   10.6549  -13.5121   16.2241 C   0  0  0  0  0  0  0  0  0  0  0  0
    6.3901  -13.6330   20.2865 C   0  0  0  0  0  0  0  0  0  0  0  0
    7.7960  -14.2546   20.3710 C   0  0  2  0  0  0  0  0  0  0  0  0
    7.9207  -14.8712   21.7140 C   0  0  0  0  0  0  0  0  0  0  0  0
    7.7024  -13.7651   22.7510 C   0  0  2  0  0  0  0  0  0  0  0  0
    9.2416  -15.5524   22.0036 N   0  0  0  0  0  0  0  0  0  0  0  0
    9.3999  -16.6438   21.0078 C   0  0  0  0  0  0  0  0  0  0  0  0
    9.3204  -16.1683   23.3417 O   0  0  0  0  0  0  0  0  0  0  0  0
    8.4290  -17.0043   23.6696 N   0  0  0  0  0  0  0  0  0  0  0  0
   10.3533  -15.8674   24.2747 C   0  0  2  0  0  0  0  0  0  0  0  0
   10.3447  -16.4202   25.6279 C   0  0  0  0  0  0  0  0  0  0  0  0
    9.8846  -15.3916   26.6125 C   0  0  0  0  0  0  0  0  0  0  0  0
    8.4832  -14.9972   26.4129 C   0  0  0  0  0  0  0  0  0  0  0  0
    7.3879  -15.8480   26.2126 N   0  0  0  0  0  0  0  0  0  0  0  0
    6.2770  -15.1172   26.0361 C   0  0  0  0  0  0  0  0  0  0  0  0
    6.5680  -13.7866   26.1086 C   0  0  0  0  0  0  0  0  0  0  0  0
    5.7753  -12.6647   26.0089 C   0  0  0  0  0  0  0  0  0  0  0  0
    6.3196  -11.4105   26.1409 C   0  0  0  0  0  0  0  0  0  0  0  0
    7.6751  -11.3416   26.3740 C   0  0  0  0  0  0  0  0  0  0  0  0
    8.4680  -12.4592   26.4735 C   0  0  0  0  0  0  0  0  0  0  0  0
    7.9267  -13.7203   26.3408 C   0  0  0  0  0  0  0  0  0  0  0  0
    9.7378  -17.7348   25.6819 O   0  0  0  0  0  0  0  0  0  0  0  0
    9.1216  -18.1884   24.6825 O   0  0  0  0  0  0  0  0  0  0  0  0
  1  2  1  0
  2  3  2  0
  4  5  1  0
  4  2  1  0
  6  5  1  0
  7  6  1  0
  8  7  1  0
  8  9  1  6
 10  8  1  0
 11 10  2  0
 12 13  1  0
 13 14  1  0
 14 16  1  0
 14 15  1  1
 16 18  1  0
 16 17  1  6
 17 10  1  0
 18 20  1  0
 19 18  2  0
 21 20  1  0
 21 32  1  0
 21 22  1  6
 23 22  1  0
 23 24  2  0
 25 24  1  0
 26 25  1  0
 27 26  2  0
 28 29  2  0
 28 27  1  0
 29 30  1  0
 30 31  2  0
 31 26  1  0
 31 23  1  0
 32 33  2  0
 32 34  1  0
M  END
$$$$
