DKY.pdb
     RDKit          3D

 30 30  0  0  1  0  0  0  0  0999 V2000
   10.8285  -18.5950   18.6999 N   0  0  0  0  0  0  0  0  0  0  0  0
   11.2603  -17.3195   19.2342 C   0  0  1  0  0  0  0  0  0  0  0  0
   11.7932  -16.4117   18.1521 C   0  0  0  0  0  0  0  0  0  0  0  0
   12.8727  -17.0924   17.4126 C   0  0  0  0  0  0  0  0  0  0  0  0
   13.5794  -17.9319   18.0087 O   0  0  0  0  0  0  0  0  0  0  0  0
   10.1363  -16.7163   19.9758 C   0  0  0  0  0  0  0  0  0  0  0  0
   10.2277  -15.5695   20.5256 O   0  0  0  0  0  0  0  0  0  0  0  0
   13.1364  -16.8350   16.0694 O   0  0  0  0  0  0  0  0  0  0  0  0
    8.9005  -17.3739   20.1176 N   0  0  0  0  0  0  0  0  0  0  0  0
    7.8067  -16.8936   20.9819 C   0  0  1  0  0  0  0  0  0  0  0  0
    6.6826  -17.8547   20.7007 C   0  0  0  0  0  0  0  0  0  0  0  0
    5.5174  -17.8054   21.5997 C   0  0  0  0  0  0  0  0  0  0  0  0
    4.3475  -18.6586   21.2926 C   0  0  0  0  0  0  0  0  0  0  0  0
    3.2459  -18.5417   22.2961 C   0  0  0  0  0  0  0  0  0  0  0  0
    2.1731  -19.4343   22.0075 N   0  0  0  0  0  0  0  0  0  0  0  0
    8.3480  -17.0053   22.3667 C   0  0  0  0  0  0  0  0  0  0  0  0
    9.0816  -17.9874   22.7404 O   0  0  0  0  0  0  0  0  0  0  0  0
   10.5474  -14.6321   30.7478 O   0  0  0  0  0  0  0  0  0  0  0  0
   10.1321  -14.7007   29.4247 C   0  0  0  0  0  0  0  0  0  0  0  0
   10.5024  -15.7562   28.6169 C   0  0  0  0  0  0  0  0  0  0  0  0
   10.0842  -15.8227   27.2890 C   0  0  0  0  0  0  0  0  0  0  0  0
    9.2901  -14.8501   26.7225 C   0  0  0  0  0  0  0  0  0  0  0  0
    8.8370  -14.8907   25.3204 C   0  0  0  0  0  0  0  0  0  0  0  0
    8.5889  -16.2488   24.7632 C   0  0  2  0  0  0  0  0  0  0  0  0
    8.1053  -16.0472   23.3851 N   0  0  0  0  0  0  0  0  0  0  0  0
    7.5317  -16.9209   25.5436 C   0  0  0  0  0  0  0  0  0  0  0  0
    6.3078  -16.6431   25.3353 O   0  0  0  0  0  0  0  0  0  0  0  0
    8.9218  -13.7891   27.5462 C   0  0  0  0  0  0  0  0  0  0  0  0
    9.3368  -13.7263   28.8588 C   0  0  0  0  0  0  0  0  0  0  0  0
    7.8129  -17.8609   26.5124 O   0  0  0  0  0  0  0  0  0  0  0  0
  2  3  1  0
  2  1  1  6
  3  4  1  0
  4  5  2  0
  4  8  1  0
  6  2  1  0
  6  7  2  0
  9  6  1  0
 10 16  1  0
 10  9  1  0
 10 11  1  1
 12 11  1  0
 13 12  1  0
 14 13  1  0
 15 14  1  0
 16 25  1  0
 17 16  2  0
 18 19  1  0
 19 29  2  0
 20 19  1  0
 20 21  2  0
 21 22  1  0
 22 28  2  0
 22 23  1  0
 24 23  1  1
 24 25  1  0
 24 26  1  0
 26 27  2  0
 26 30  1  0
 29 28  1  0
M  END
$$$$
