DKY.pdb
     RDKit          3D

 30 30  0  0  1  0  0  0  0  0999 V2000
   12.1896  -17.0776   17.8693 N   0  0  0  0  0  0  0  0  0  0  0  0
   11.9929  -17.6679   19.1776 C   0  0  1  0  0  0  0  0  0  0  0  0
   13.2095  -18.4372   19.6325 C   0  0  0  0  0  0  0  0  0  0  0  0
   13.4782  -19.5482   18.7003 C   0  0  0  0  0  0  0  0  0  0  0  0
   12.5148  -20.1469   18.1777 O   0  0  0  0  0  0  0  0  0  0  0  0
   11.6130  -16.5999   20.1223 C   0  0  0  0  0  0  0  0  0  0  0  0
   12.4580  -15.7485   20.5545 O   0  0  0  0  0  0  0  0  0  0  0  0
   14.7697  -19.9582   18.3783 O   0  0  0  0  0  0  0  0  0  0  0  0
   10.2964  -16.4621   20.5989 N   0  0  0  0  0  0  0  0  0  0  0  0
    9.8333  -15.3305   21.4230 C   0  0  1  0  0  0  0  0  0  0  0  0
    8.4563  -15.0406   20.8879 C   0  0  0  0  0  0  0  0  0  0  0  0
    8.3635  -14.1342   19.7312 C   0  0  0  0  0  0  0  0  0  0  0  0
    7.0500  -13.9568   19.0722 C   0  0  0  0  0  0  0  0  0  0  0  0
    7.0973  -13.0497   17.8852 C   0  0  0  0  0  0  0  0  0  0  0  0
    7.6146  -13.7132   16.7349 N   0  0  0  0  0  0  0  0  0  0  0  0
    9.8269  -15.8608   22.8164 C   0  0  0  0  0  0  0  0  0  0  0  0
    9.5159  -17.0739   23.0884 O   0  0  0  0  0  0  0  0  0  0  0  0
   10.9884  -16.1204   31.6974 O   0  0  0  0  0  0  0  0  0  0  0  0
   10.8844  -15.7362   30.3673 C   0  0  0  0  0  0  0  0  0  0  0  0
   10.4675  -14.4666   30.0242 C   0  0  0  0  0  0  0  0  0  0  0  0
   10.3640  -14.0834   28.6881 C   0  0  0  0  0  0  0  0  0  0  0  0
   10.6687  -14.9421   27.6551 C   0  0  0  0  0  0  0  0  0  0  0  0
   10.5637  -14.5671   26.2334 C   0  0  0  0  0  0  0  0  0  0  0  0
   10.0906  -15.6413   25.3176 C   0  0  2  0  0  0  0  0  0  0  0  0
   10.1612  -15.0826   23.9551 N   0  0  0  0  0  0  0  0  0  0  0  0
    8.6848  -15.9716   25.6228 C   0  0  0  0  0  0  0  0  0  0  0  0
    8.4086  -16.9549   26.3814 O   0  0  0  0  0  0  0  0  0  0  0  0
   11.0887  -16.2212   28.0120 C   0  0  0  0  0  0  0  0  0  0  0  0
   11.1902  -16.5970   29.3340 C   0  0  0  0  0  0  0  0  0  0  0  0
    7.6281  -15.2470   25.1133 O   0  0  0  0  0  0  0  0  0  0  0  0
  2  3  1  0
  2  1  1  6
  3  4  1  0
  4  5  2  0
  4  8  1  0
  6  2  1  0
  6  7  2  0
  9  6  1  0
 10 16  1  0
 10  9  1  0
 10 11  1  6
 12 11  1  0
 13 12  1  0
 14 13  1  0
 15 14  1  0
 16 25  1  0
 17 16  2  0
 18 19  1  0
 19 29  2  0
 20 19  1  0
 20 21  2  0
 21 22  1  0
 22 28  2  0
 22 23  1  0
 24 23  1  1
 24 25  1  0
 24 26  1  0
 26 27  2  0
 26 30  1  0
 29 28  1  0
M  END
$$$$
