DKY.pdb
     RDKit          3D

 30 30  0  0  1  0  0  0  0  0999 V2000
    8.6624  -15.7279   19.6164 N   0  0  0  0  0  0  0  0  0  0  0  0
    8.2085  -14.6589   20.4825 C   0  0  1  0  0  0  0  0  0  0  0  0
    7.2405  -13.7405   19.7765 C   0  0  0  0  0  0  0  0  0  0  0  0
    7.7172  -13.4648   18.4082 C   0  0  0  0  0  0  0  0  0  0  0  0
    7.3566  -14.2164   17.4783 O   0  0  0  0  0  0  0  0  0  0  0  0
    7.6340  -15.2556   21.7036 C   0  0  0  0  0  0  0  0  0  0  0  0
    7.0231  -14.5539   22.5754 O   0  0  0  0  0  0  0  0  0  0  0  0
    8.5574  -12.3946   18.1106 O   0  0  0  0  0  0  0  0  0  0  0  0
    7.7289  -16.6332   21.9737 N   0  0  0  0  0  0  0  0  0  0  0  0
    7.0866  -17.2924   23.1257 C   0  0  1  0  0  0  0  0  0  0  0  0
    6.9582  -18.7273   22.6886 C   0  0  0  0  0  0  0  0  0  0  0  0
    6.2917  -18.9786   21.3998 C   0  0  0  0  0  0  0  0  0  0  0  0
    6.3267  -20.3475   20.8377 C   0  0  0  0  0  0  0  0  0  0  0  0
    5.7046  -20.4505   19.4826 C   0  0  0  0  0  0  0  0  0  0  0  0
    5.7198  -21.7899   18.9960 N   0  0  0  0  0  0  0  0  0  0  0  0
    8.0471  -17.1002   24.2497 C   0  0  0  0  0  0  0  0  0  0  0  0
    9.3060  -16.9530   24.0601 O   0  0  0  0  0  0  0  0  0  0  0  0
    7.0177  -10.6807   25.1703 O   0  0  0  0  0  0  0  0  0  0  0  0
    7.2490  -11.9194   25.7533 C   0  0  0  0  0  0  0  0  0  0  0  0
    6.2020  -12.7405   26.1181 C   0  0  0  0  0  0  0  0  0  0  0  0
    6.4369  -13.9835   26.7032 C   0  0  0  0  0  0  0  0  0  0  0  0
    7.7105  -14.4496   26.9443 C   0  0  0  0  0  0  0  0  0  0  0  0
    7.9896  -15.7565   27.5662 C   0  0  0  0  0  0  0  0  0  0  0  0
    8.6351  -16.7654   26.6819 C   0  0  2  0  0  0  0  0  0  0  0  0
    7.6618  -17.0616   25.6150 N   0  0  0  0  0  0  0  0  0  0  0  0
    8.8943  -18.0021   27.4448 C   0  0  0  0  0  0  0  0  0  0  0  0
    8.2012  -19.0462   27.2257 O   0  0  0  0  0  0  0  0  0  0  0  0
    8.7604  -13.6133   26.5725 C   0  0  0  0  0  0  0  0  0  0  0  0
    8.5248  -12.3849   25.9940 C   0  0  0  0  0  0  0  0  0  0  0  0
    9.8773  -18.0837   28.4082 O   0  0  0  0  0  0  0  0  0  0  0  0
  2  3  1  0
  2  1  1  6
  3  4  1  0
  4  5  2  0
  4  8  1  0
  6  2  1  0
  6  7  2  0
  9  6  1  0
 10 16  1  0
 10  9  1  0
 10 11  1  6
 12 11  1  0
 13 12  1  0
 14 13  1  0
 15 14  1  0
 16 25  1  0
 17 16  2  0
 18 19  1  0
 19 29  2  0
 20 19  1  0
 20 21  2  0
 21 22  1  0
 22 28  2  0
 22 23  1  0
 24 23  1  1
 24 25  1  0
 24 26  1  0
 26 27  2  0
 26 30  1  0
 29 28  1  0
M  END
$$$$
