DKY.pdb
     RDKit          3D

 30 30  0  0  1  0  0  0  0  0999 V2000
    8.3651  -18.5729   20.2111 N   0  0  0  0  0  0  0  0  0  0  0  0
    9.5094  -18.0763   19.4744 C   0  0  1  0  0  0  0  0  0  0  0  0
    9.3227  -18.2267   17.9839 C   0  0  0  0  0  0  0  0  0  0  0  0
    9.5838  -19.6221   17.5836 C   0  0  0  0  0  0  0  0  0  0  0  0
    9.8723  -20.4607   18.4630 O   0  0  0  0  0  0  0  0  0  0  0  0
    9.7553  -16.6778   19.8754 C   0  0  0  0  0  0  0  0  0  0  0  0
   10.8269  -16.0630   19.5600 O   0  0  0  0  0  0  0  0  0  0  0  0
    9.5212  -20.0438   16.2577 O   0  0  0  0  0  0  0  0  0  0  0  0
    8.8200  -15.9447   20.6288 N   0  0  0  0  0  0  0  0  0  0  0  0
    8.9676  -14.5151   20.9584 C   0  0  1  0  0  0  0  0  0  0  0  0
    7.5661  -13.9772   20.8448 C   0  0  0  0  0  0  0  0  0  0  0  0
    7.0345  -13.7721   19.4870 C   0  0  0  0  0  0  0  0  0  0  0  0
    7.9770  -13.4180   18.4019 C   0  0  0  0  0  0  0  0  0  0  0  0
    7.3027  -13.1200   17.1016 C   0  0  0  0  0  0  0  0  0  0  0  0
    8.2387  -12.7335   16.0989 N   0  0  0  0  0  0  0  0  0  0  0  0
    9.4935  -14.5055   22.3536 C   0  0  0  0  0  0  0  0  0  0  0  0
    9.4332  -13.4680   23.1034 O   0  0  0  0  0  0  0  0  0  0  0  0
   10.5670  -15.1502   30.8172 O   0  0  0  0  0  0  0  0  0  0  0  0
   10.2962  -15.1945   29.4562 C   0  0  0  0  0  0  0  0  0  0  0  0
   10.2799  -16.3930   28.7729 C   0  0  0  0  0  0  0  0  0  0  0  0
   10.0078  -16.4347   27.4066 C   0  0  0  0  0  0  0  0  0  0  0  0
    9.7448  -15.2957   26.6779 C   0  0  0  0  0  0  0  0  0  0  0  0
    9.4592  -15.3081   25.2318 C   0  0  0  0  0  0  0  0  0  0  0  0
   10.6297  -15.5590   24.3467 C   0  0  2  0  0  0  0  0  0  0  0  0
   10.1002  -15.6292   22.9726 N   0  0  0  0  0  0  0  0  0  0  0  0
   11.2408  -16.8588   24.6868 C   0  0  0  0  0  0  0  0  0  0  0  0
   10.7885  -17.9321   24.1752 O   0  0  0  0  0  0  0  0  0  0  0  0
    9.7636  -14.0911   27.3769 C   0  0  0  0  0  0  0  0  0  0  0  0
   10.0328  -14.0532   28.7279 C   0  0  0  0  0  0  0  0  0  0  0  0
   12.3068  -16.9696   25.5543 O   0  0  0  0  0  0  0  0  0  0  0  0
  2  3  1  0
  2  1  1  1
  3  4  1  0
  4  5  2  0
  4  8  1  0
  6  2  1  0
  6  7  2  0
  9  6  1  0
 10 16  1  0
 10  9  1  0
 10 11  1  1
 12 11  1  0
 13 12  1  0
 14 13  1  0
 15 14  1  0
 16 25  1  0
 17 16  2  0
 18 19  1  0
 19 29  2  0
 20 19  1  0
 20 21  2  0
 21 22  1  0
 22 28  2  0
 22 23  1  0
 24 23  1  1
 24 25  1  0
 24 26  1  0
 26 27  2  0
 26 30  1  0
 29 28  1  0
M  END
$$$$
