DKY.pdb
     RDKit          3D

 30 30  0  0  1  0  0  0  0  0999 V2000
    8.8921  -18.5530   20.7745 N   0  0  0  0  0  0  0  0  0  0  0  0
   10.1099  -17.9110   20.3232 C   0  0  1  0  0  0  0  0  0  0  0  0
   10.1585  -17.7997   18.8184 C   0  0  0  0  0  0  0  0  0  0  0  0
   10.5950  -19.0818   18.2342 C   0  0  0  0  0  0  0  0  0  0  0  0
   10.2197  -20.1482   18.7648 O   0  0  0  0  0  0  0  0  0  0  0  0
   10.2253  -16.6005   20.9913 C   0  0  0  0  0  0  0  0  0  0  0  0
   11.3318  -15.9703   21.0559 O   0  0  0  0  0  0  0  0  0  0  0  0
   11.4129  -19.1507   17.1090 O   0  0  0  0  0  0  0  0  0  0  0  0
    9.1197  -15.9734   21.5948 N   0  0  0  0  0  0  0  0  0  0  0  0
    9.1396  -14.5952   22.1184 C   0  0  1  0  0  0  0  0  0  0  0  0
    7.7528  -14.0850   21.8302 C   0  0  0  0  0  0  0  0  0  0  0  0
    7.5886  -13.2192   20.6504 C   0  0  0  0  0  0  0  0  0  0  0  0
    8.0105  -13.7338   19.3282 C   0  0  0  0  0  0  0  0  0  0  0  0
    7.7633  -12.7739   18.2095 C   0  0  0  0  0  0  0  0  0  0  0  0
    8.1391  -13.3244   16.9498 N   0  0  0  0  0  0  0  0  0  0  0  0
    9.4213  -14.7523   23.5741 C   0  0  0  0  0  0  0  0  0  0  0  0
    9.5244  -13.7500   24.3660 O   0  0  0  0  0  0  0  0  0  0  0  0
    5.5333  -11.3088   26.6676 O   0  0  0  0  0  0  0  0  0  0  0  0
    6.2395  -12.5002   26.5707 C   0  0  0  0  0  0  0  0  0  0  0  0
    7.5146  -12.6150   27.0849 C   0  0  0  0  0  0  0  0  0  0  0  0
    8.2214  -13.8122   26.9864 C   0  0  0  0  0  0  0  0  0  0  0  0
    7.6897  -14.9278   26.3779 C   0  0  0  0  0  0  0  0  0  0  0  0
    8.4150  -16.2050   26.2540 C   0  0  0  0  0  0  0  0  0  0  0  0
    9.7808  -16.1155   25.6683 C   0  0  2  0  0  0  0  0  0  0  0  0
    9.5977  -16.0090   24.2093 N   0  0  0  0  0  0  0  0  0  0  0  0
   10.5305  -17.3521   25.9636 C   0  0  0  0  0  0  0  0  0  0  0  0
   10.7497  -17.6953   27.1689 O   0  0  0  0  0  0  0  0  0  0  0  0
    6.4021  -14.8016   25.8623 C   0  0  0  0  0  0  0  0  0  0  0  0
    5.7057  -13.6165   25.9615 C   0  0  0  0  0  0  0  0  0  0  0  0
   11.0172  -18.1760   24.9708 O   0  0  0  0  0  0  0  0  0  0  0  0
  2  3  1  0
  2  1  1  6
  3  4  1  0
  4  5  2  0
  4  8  1  0
  6  2  1  0
  6  7  2  0
  9  6  1  0
 10 16  1  0
 10  9  1  0
 10 11  1  1
 12 11  1  0
 13 12  1  0
 14 13  1  0
 15 14  1  0
 16 25  1  0
 17 16  2  0
 18 19  1  0
 19 29  2  0
 20 19  1  0
 20 21  2  0
 21 22  1  0
 22 28  2  0
 22 23  1  0
 24 23  1  1
 24 25  1  0
 24 26  1  0
 26 27  2  0
 26 30  1  0
 29 28  1  0
M  END
$$$$
