DKY.pdb
     RDKit          3D

 30 30  0  0  1  0  0  0  0  0999 V2000
   10.5235  -18.9195   18.3595 N   0  0  0  0  0  0  0  0  0  0  0  0
   10.3834  -17.4950   18.5832 C   0  0  1  0  0  0  0  0  0  0  0  0
    9.8613  -16.7854   17.3573 C   0  0  0  0  0  0  0  0  0  0  0  0
   10.7096  -17.1041   16.1935 C   0  0  0  0  0  0  0  0  0  0  0  0
   11.6041  -17.9673   16.3141 O   0  0  0  0  0  0  0  0  0  0  0  0
    9.5252  -17.2874   19.7654 C   0  0  0  0  0  0  0  0  0  0  0  0
    9.2215  -16.1218   20.1834 O   0  0  0  0  0  0  0  0  0  0  0  0
   10.5520  -16.4779   14.9595 O   0  0  0  0  0  0  0  0  0  0  0  0
    8.9943  -18.3653   20.4975 N   0  0  0  0  0  0  0  0  0  0  0  0
    8.0957  -18.2102   21.6563 C   0  0  1  0  0  0  0  0  0  0  0  0
    7.6435  -19.6165   21.9467 C   0  0  0  0  0  0  0  0  0  0  0  0
    6.8549  -19.8278   23.1722 C   0  0  0  0  0  0  0  0  0  0  0  0
    6.4026  -21.1991   23.4976 C   0  0  0  0  0  0  0  0  0  0  0  0
    5.5353  -21.2670   24.7130 C   0  0  0  0  0  0  0  0  0  0  0  0
    5.2498  -22.6136   25.0822 N   0  0  0  0  0  0  0  0  0  0  0  0
    8.9606  -17.6343   22.7256 C   0  0  0  0  0  0  0  0  0  0  0  0
   10.1797  -17.9933   22.8908 O   0  0  0  0  0  0  0  0  0  0  0  0
   10.5413  -14.2565   30.8331 O   0  0  0  0  0  0  0  0  0  0  0  0
   10.0510  -14.5143   29.5600 C   0  0  0  0  0  0  0  0  0  0  0  0
   10.1543  -13.5753   28.5544 C   0  0  0  0  0  0  0  0  0  0  0  0
    9.6613  -13.8366   27.2772 C   0  0  0  0  0  0  0  0  0  0  0  0
    9.0532  -15.0306   26.9579 C   0  0  0  0  0  0  0  0  0  0  0  0
    8.5177  -15.3331   25.6183 C   0  0  0  0  0  0  0  0  0  0  0  0
    9.3716  -16.2050   24.7655 C   0  0  2  0  0  0  0  0  0  0  0  0
    8.5206  -16.6480   23.6461 N   0  0  0  0  0  0  0  0  0  0  0  0
    9.7978  -17.3899   25.5355 C   0  0  0  0  0  0  0  0  0  0  0  0
   11.0065  -17.5055   25.9154 O   0  0  0  0  0  0  0  0  0  0  0  0
    8.9540  -15.9717   27.9798 C   0  0  0  0  0  0  0  0  0  0  0  0
    9.4427  -15.7105   29.2416 C   0  0  0  0  0  0  0  0  0  0  0  0
    8.9269  -18.4041   25.8731 O   0  0  0  0  0  0  0  0  0  0  0  0
  2  3  1  0
  2  1  1  6
  3  4  1  0
  4  5  2  0
  4  8  1  0
  6  2  1  0
  6  7  2  0
  9  6  1  0
 10 16  1  0
 10  9  1  0
 10 11  1  1
 12 11  1  0
 13 12  1  0
 14 13  1  0
 15 14  1  0
 16 25  1  0
 17 16  2  0
 18 19  1  0
 19 29  2  0
 20 19  1  0
 20 21  2  0
 21 22  1  0
 22 28  2  0
 22 23  1  0
 24 23  1  1
 24 25  1  0
 24 26  1  0
 26 27  2  0
 26 30  1  0
 29 28  1  0
M  END
$$$$
