LSL.pdb
     RDKit          3D

 23 22  0  0  1  0  0  0  0  0999 V2000
    9.4659  -12.9561   19.6668 C   0  0  0  0  0  0  0  0  0  0  0  0
    8.2337  -13.7274   19.1643 C   0  0  2  0  0  0  0  0  0  0  0  0
    7.3413  -12.7899   18.3895 C   0  0  0  0  0  0  0  0  0  0  0  0
    7.5615  -14.2667   20.3779 C   0  0  0  0  0  0  0  0  0  0  0  0
    8.4123  -15.1233   21.2619 C   0  0  2  0  0  0  0  0  0  0  0  0
    8.7482  -16.3395   20.5534 N   0  0  0  0  0  0  0  0  0  0  0  0
    7.6779  -15.5042   22.5104 C   0  0  0  0  0  0  0  0  0  0  0  0
    7.1055  -14.6127   23.2193 O   0  0  0  0  0  0  0  0  0  0  0  0
    7.7869  -19.4084   24.3156 O   0  0  0  0  0  0  0  0  0  0  0  0
    6.6146  -18.6805   24.1392 C   0  0  0  0  0  0  0  0  0  0  0  0
    6.8476  -17.2053   24.1999 C   0  0  2  0  0  0  0  0  0  0  0  0
    7.5696  -16.8366   22.9785 N   0  0  0  0  0  0  0  0  0  0  0  0
    7.5396  -16.7034   25.3698 C   0  0  0  0  0  0  0  0  0  0  0  0
    6.8639  -16.1395   26.2787 O   0  0  0  0  0  0  0  0  0  0  0  0
    8.4457  -13.2851   28.7204 C   0  0  0  0  0  0  0  0  0  0  0  0
    9.4126  -14.4355   28.3859 C   0  0  2  0  0  0  0  0  0  0  0  0
   10.7344  -13.7382   28.0875 C   0  0  0  0  0  0  0  0  0  0  0  0
    8.8341  -15.1370   27.2092 C   0  0  0  0  0  0  0  0  0  0  0  0
    9.6853  -16.1901   26.5843 C   0  0  2  0  0  0  0  0  0  0  0  0
    8.9390  -16.8273   25.5198 N   0  0  0  0  0  0  0  0  0  0  0  0
   10.2166  -17.2036   27.4959 C   0  0  0  0  0  0  0  0  0  0  0  0
    9.5213  -18.3439   27.8757 O   0  0  0  0  0  0  0  0  0  0  0  0
   11.3674  -17.0675   27.9828 O   0  0  0  0  0  0  0  0  0  0  0  0
  2  1  1  1
  2  3  1  0
  4  2  1  0
  4  5  1  0
  5  7  1  0
  5  6  1  6
  7  8  2  0
  9 10  1  0
 11 10  1  1
 12 11  1  0
 12  7  1  0
 13 11  1  0
 14 13  2  0
 16 15  1  6
 16 17  1  0
 18 16  1  0
 19 20  1  0
 19 18  1  1
 20 13  1  0
 21 19  1  0
 22 21  1  0
 23 21  2  0
M  END
$$$$
