LSL.pdb
     RDKit          3D

 23 22  0  0  1  0  0  0  0  0999 V2000
    7.9006  -12.1325   19.5752 C   0  0  0  0  0  0  0  0  0  0  0  0
    8.4934  -13.4767   20.0310 C   0  0  2  0  0  0  0  0  0  0  0  0
    9.9171  -13.5838   19.5439 C   0  0  0  0  0  0  0  0  0  0  0  0
    7.6202  -14.5315   19.4476 C   0  0  0  0  0  0  0  0  0  0  0  0
    7.9685  -15.9384   19.8197 C   0  0  2  0  0  0  0  0  0  0  0  0
    7.0622  -16.8404   19.1422 N   0  0  0  0  0  0  0  0  0  0  0  0
    7.8212  -16.1572   21.2940 C   0  0  0  0  0  0  0  0  0  0  0  0
    6.6879  -16.0080   21.8581 O   0  0  0  0  0  0  0  0  0  0  0  0
   10.8623  -17.9501   23.8048 O   0  0  0  0  0  0  0  0  0  0  0  0
    9.4902  -18.1739   23.7554 C   0  0  0  0  0  0  0  0  0  0  0  0
    8.7163  -16.9127   23.5447 C   0  0  2  0  0  0  0  0  0  0  0  0
    8.8934  -16.5328   22.1399 N   0  0  0  0  0  0  0  0  0  0  0  0
    9.0362  -15.7998   24.4158 C   0  0  0  0  0  0  0  0  0  0  0  0
   10.0465  -15.0882   24.1445 O   0  0  0  0  0  0  0  0  0  0  0  0
    7.4066  -11.8317   25.6655 C   0  0  0  0  0  0  0  0  0  0  0  0
    6.5683  -13.0672   26.0411 C   0  0  2  0  0  0  0  0  0  0  0  0
    5.2847  -12.4857   26.6216 C   0  0  0  0  0  0  0  0  0  0  0  0
    7.3730  -13.8315   27.0309 C   0  0  0  0  0  0  0  0  0  0  0  0
    8.6161  -14.4743   26.5156 C   0  0  2  0  0  0  0  0  0  0  0  0
    8.2541  -15.4918   25.5514 N   0  0  0  0  0  0  0  0  0  0  0  0
    9.5065  -15.0420   27.5282 C   0  0  0  0  0  0  0  0  0  0  0  0
    9.7963  -16.3959   27.6327 O   0  0  0  0  0  0  0  0  0  0  0  0
   10.0600  -14.2896   28.3693 O   0  0  0  0  0  0  0  0  0  0  0  0
  2  1  1  6
  2  3  1  0
  4  2  1  0
  4  5  1  0
  5  7  1  0
  5  6  1  6
  7  8  2  0
  9 10  1  0
 11 10  1  1
 12 11  1  0
 12  7  1  0
 13 11  1  0
 14 13  2  0
 16 15  1  1
 16 17  1  0
 18 16  1  0
 19 20  1  0
 19 18  1  1
 20 13  1  0
 21 19  1  0
 22 21  1  0
 23 21  2  0
M  END
$$$$
