LSL.pdb
     RDKit          3D

 23 22  0  0  1  0  0  0  0  0999 V2000
    9.6832  -13.2689   20.2061 C   0  0  0  0  0  0  0  0  0  0  0  0
    8.7222  -13.2861   19.0053 C   0  0  2  0  0  0  0  0  0  0  0  0
    7.9976  -11.9653   18.9284 C   0  0  0  0  0  0  0  0  0  0  0  0
    7.7911  -14.4238   19.2385 C   0  0  0  0  0  0  0  0  0  0  0  0
    8.4288  -15.6989   19.6928 C   0  0  2  0  0  0  0  0  0  0  0  0
    8.0118  -16.7704   18.8142 N   0  0  0  0  0  0  0  0  0  0  0  0
    7.9993  -16.0494   21.0842 C   0  0  0  0  0  0  0  0  0  0  0  0
    6.7614  -16.0944   21.3849 O   0  0  0  0  0  0  0  0  0  0  0  0
   10.2773  -18.3170   23.6385 O   0  0  0  0  0  0  0  0  0  0  0  0
    8.8953  -18.1606   23.6694 C   0  0  0  0  0  0  0  0  0  0  0  0
    8.4805  -16.7374   23.4784 C   0  0  2  0  0  0  0  0  0  0  0  0
    8.9058  -16.3459   22.1313 N   0  0  0  0  0  0  0  0  0  0  0  0
    8.9580  -15.7833   24.4590 C   0  0  0  0  0  0  0  0  0  0  0  0
   10.0898  -15.2466   24.2817 O   0  0  0  0  0  0  0  0  0  0  0  0
    7.6820  -11.8136   25.7987 C   0  0  0  0  0  0  0  0  0  0  0  0
    6.7464  -12.9604   26.2225 C   0  0  2  0  0  0  0  0  0  0  0  0
    5.5481  -12.2545   26.8458 C   0  0  0  0  0  0  0  0  0  0  0  0
    7.5146  -13.7890   27.1894 C   0  0  0  0  0  0  0  0  0  0  0  0
    8.6726  -14.5474   26.6347 C   0  0  2  0  0  0  0  0  0  0  0  0
    8.1970  -15.4401   25.5988 N   0  0  0  0  0  0  0  0  0  0  0  0
    9.4702  -15.2939   27.6078 C   0  0  0  0  0  0  0  0  0  0  0  0
   10.3513  -14.7024   28.5032 O   0  0  0  0  0  0  0  0  0  0  0  0
    9.3776  -16.5461   27.6659 O   0  0  0  0  0  0  0  0  0  0  0  0
  2  1  1  1
  2  3  1  0
  4  2  1  0
  4  5  1  0
  5  7  1  0
  5  6  1  6
  7  8  2  0
  9 10  1  0
 11 10  1  1
 12 11  1  0
 12  7  1  0
 13 11  1  0
 14 13  2  0
 16 15  1  1
 16 17  1  0
 18 16  1  0
 19 20  1  0
 19 18  1  1
 20 13  1  0
 21 19  1  0
 22 21  1  0
 23 21  2  0
M  END
$$$$
