LSL.pdb
     RDKit          3D

 23 22  0  0  1  0  0  0  0  0999 V2000
    7.1982  -12.3067   24.3125 C   0  0  0  0  0  0  0  0  0  0  0  0
    6.1259  -12.8196   25.2887 C   0  0  2  0  0  0  0  0  0  0  0  0
    6.0819  -11.9190   26.4981 C   0  0  0  0  0  0  0  0  0  0  0  0
    6.5197  -14.2114   25.6399 C   0  0  0  0  0  0  0  0  0  0  0  0
    6.4463  -15.2056   24.5240 C   0  0  2  0  0  0  0  0  0  0  0  0
    5.3100  -16.0741   24.7441 N   0  0  0  0  0  0  0  0  0  0  0  0
    7.6771  -16.0578   24.4808 C   0  0  0  0  0  0  0  0  0  0  0  0
    7.9500  -16.8458   25.4449 O   0  0  0  0  0  0  0  0  0  0  0  0
   11.1435  -15.6926   21.7057 O   0  0  0  0  0  0  0  0  0  0  0  0
   10.3769  -16.8099   22.0206 C   0  0  0  0  0  0  0  0  0  0  0  0
    9.8711  -16.7736   23.4266 C   0  0  2  0  0  0  0  0  0  0  0  0
    8.5961  -16.0506   23.4031 N   0  0  0  0  0  0  0  0  0  0  0  0
   10.7579  -16.2069   24.4227 C   0  0  0  0  0  0  0  0  0  0  0  0
   10.9154  -14.9519   24.4506 O   0  0  0  0  0  0  0  0  0  0  0  0
    9.5523  -14.8862   29.2126 C   0  0  0  0  0  0  0  0  0  0  0  0
   10.9234  -15.3587   28.6957 C   0  0  2  0  0  0  0  0  0  0  0  0
   11.7937  -14.1087   28.7480 C   0  0  0  0  0  0  0  0  0  0  0  0
   10.6965  -15.8652   27.3161 C   0  0  0  0  0  0  0  0  0  0  0  0
   11.8515  -16.5484   26.6654 C   0  0  2  0  0  0  0  0  0  0  0  0
   11.4452  -17.0144   25.3563 N   0  0  0  0  0  0  0  0  0  0  0  0
   12.4496  -17.6484   27.4222 C   0  0  0  0  0  0  0  0  0  0  0  0
   13.6995  -17.5846   28.0235 O   0  0  0  0  0  0  0  0  0  0  0  0
   11.8235  -18.7299   27.5572 O   0  0  0  0  0  0  0  0  0  0  0  0
  2  1  1  6
  2  3  1  0
  4  2  1  0
  4  5  1  0
  5  7  1  0
  5  6  1  1
  7  8  2  0
  9 10  1  0
 11 10  1  6
 12 11  1  0
 12  7  1  0
 13 11  1  0
 14 13  2  0
 16 15  1  6
 16 17  1  0
 18 16  1  0
 19 20  1  0
 19 18  1  1
 20 13  1  0
 21 19  1  0
 22 21  1  0
 23 21  2  0
M  END
$$$$
