LSL.pdb
     RDKit          3D

 23 22  0  0  1  0  0  0  0  0999 V2000
    8.9588  -12.5681   19.7747 C   0  0  0  0  0  0  0  0  0  0  0  0
    8.3672  -13.0903   18.4544 C   0  0  2  0  0  0  0  0  0  0  0  0
    6.8617  -13.0931   18.5500 C   0  0  0  0  0  0  0  0  0  0  0  0
    8.9198  -14.4597   18.2680 C   0  0  0  0  0  0  0  0  0  0  0  0
    9.8659  -14.9257   19.3296 C   0  0  2  0  0  0  0  0  0  0  0  0
   10.4643  -16.1742   18.9088 N   0  0  0  0  0  0  0  0  0  0  0  0
    9.1475  -15.1702   20.6208 C   0  0  0  0  0  0  0  0  0  0  0  0
    8.5151  -14.2246   21.1961 O   0  0  0  0  0  0  0  0  0  0  0  0
    9.6277  -18.5770   23.1229 O   0  0  0  0  0  0  0  0  0  0  0  0
    8.3650  -18.1761   22.6987 C   0  0  0  0  0  0  0  0  0  0  0  0
    8.2900  -16.7040   22.4510 C   0  0  2  0  0  0  0  0  0  0  0  0
    9.1196  -16.4263   21.2746 N   0  0  0  0  0  0  0  0  0  0  0  0
    8.6642  -15.8390   23.5517 C   0  0  0  0  0  0  0  0  0  0  0  0
    9.8519  -15.4067   23.6066 O   0  0  0  0  0  0  0  0  0  0  0  0
    5.8651  -11.8918   27.1467 C   0  0  0  0  0  0  0  0  0  0  0  0
    7.1686  -12.7048   27.0462 C   0  0  2  0  0  0  0  0  0  0  0  0
    8.2425  -11.6578   26.7756 C   0  0  0  0  0  0  0  0  0  0  0  0
    6.9775  -13.6611   25.9235 C   0  0  0  0  0  0  0  0  0  0  0  0
    8.0882  -14.6268   25.6827 C   0  0  2  0  0  0  0  0  0  0  0  0
    7.7428  -15.4691   24.5569 N   0  0  0  0  0  0  0  0  0  0  0  0
    8.4707  -15.4557   26.8259 C   0  0  0  0  0  0  0  0  0  0  0  0
    9.5294  -15.1623   27.6751 O   0  0  0  0  0  0  0  0  0  0  0  0
    7.8249  -16.5023   27.0856 O   0  0  0  0  0  0  0  0  0  0  0  0
  2  1  1  1
  2  3  1  0
  4  2  1  0
  4  5  1  0
  5  7  1  0
  5  6  1  6
  7  8  2  0
  9 10  1  0
 11 10  1  1
 12 11  1  0
 12  7  1  0
 13 11  1  0
 14 13  2  0
 16 15  1  6
 16 17  1  0
 18 16  1  0
 19 20  1  0
 19 18  1  1
 20 13  1  0
 21 19  1  0
 22 21  1  0
 23 21  2  0
M  END
$$$$
