LSL.pdb
     RDKit          3D

 23 22  0  0  1  0  0  0  0  0999 V2000
    7.7145  -12.1158   19.0961 C   0  0  0  0  0  0  0  0  0  0  0  0
    8.5030  -13.2530   19.7675 C   0  0  2  0  0  0  0  0  0  0  0  0
    9.9254  -12.8055   19.9959 C   0  0  0  0  0  0  0  0  0  0  0  0
    8.4226  -14.4143   18.8399 C   0  0  0  0  0  0  0  0  0  0  0  0
    9.0246  -15.6880   19.3442 C   0  0  2  0  0  0  0  0  0  0  0  0
    8.7582  -16.7424   18.3896 N   0  0  0  0  0  0  0  0  0  0  0  0
    8.4189  -16.0877   20.6544 C   0  0  0  0  0  0  0  0  0  0  0  0
    7.1838  -16.3948   20.7269 O   0  0  0  0  0  0  0  0  0  0  0  0
   10.2098  -18.3226   23.4435 O   0  0  0  0  0  0  0  0  0  0  0  0
    8.8567  -18.0651   23.2488 C   0  0  0  0  0  0  0  0  0  0  0  0
    8.5675  -16.6031   23.1342 C   0  0  2  0  0  0  0  0  0  0  0  0
    9.1487  -16.1511   21.8666 N   0  0  0  0  0  0  0  0  0  0  0  0
    9.0164  -15.7635   24.2266 C   0  0  0  0  0  0  0  0  0  0  0  0
   10.2098  -15.3437   24.2179 O   0  0  0  0  0  0  0  0  0  0  0  0
    7.5313  -11.7897   25.8437 C   0  0  0  0  0  0  0  0  0  0  0  0
    6.6208  -13.0056   26.0938 C   0  0  2  0  0  0  0  0  0  0  0  0
    5.3744  -12.4129   26.7403 C   0  0  0  0  0  0  0  0  0  0  0  0
    7.3787  -13.9156   26.9931 C   0  0  0  0  0  0  0  0  0  0  0  0
    8.5789  -14.5767   26.4042 C   0  0  2  0  0  0  0  0  0  0  0  0
    8.1613  -15.4046   25.2924 N   0  0  0  0  0  0  0  0  0  0  0  0
    9.3929  -15.3622   27.3319 C   0  0  0  0  0  0  0  0  0  0  0  0
   10.3056  -14.8091   28.2203 O   0  0  0  0  0  0  0  0  0  0  0  0
    9.2859  -16.6144   27.3544 O   0  0  0  0  0  0  0  0  0  0  0  0
  2  1  1  6
  2  3  1  0
  4  2  1  0
  4  5  1  0
  5  7  1  0
  5  6  1  6
  7  8  2  0
  9 10  1  0
 11 10  1  1
 12 11  1  0
 12  7  1  0
 13 11  1  0
 14 13  2  0
 16 15  1  1
 16 17  1  0
 18 16  1  0
 19 20  1  0
 19 18  1  1
 20 13  1  0
 21 19  1  0
 22 21  1  0
 23 21  2  0
M  END
$$$$
