LSL.pdb
     RDKit          3D

 23 22  0  0  1  0  0  0  0  0999 V2000
    7.2263  -12.3049   20.9896 C   0  0  0  0  0  0  0  0  0  0  0  0
    8.2066  -13.4819   20.8500 C   0  0  2  0  0  0  0  0  0  0  0  0
    9.3408  -13.0801   19.9402 C   0  0  0  0  0  0  0  0  0  0  0  0
    7.4157  -14.6137   20.2941 C   0  0  0  0  0  0  0  0  0  0  0  0
    8.1352  -15.9225   20.2029 C   0  0  2  0  0  0  0  0  0  0  0  0
    7.2807  -16.8816   19.5366 N   0  0  0  0  0  0  0  0  0  0  0  0
    8.4546  -16.4570   21.5651 C   0  0  0  0  0  0  0  0  0  0  0  0
    7.5205  -16.8437   22.3414 O   0  0  0  0  0  0  0  0  0  0  0  0
   12.4137  -17.5102   22.8858 O   0  0  0  0  0  0  0  0  0  0  0  0
   11.2017  -18.1475   23.1308 C   0  0  0  0  0  0  0  0  0  0  0  0
   10.0883  -17.1787   23.3671 C   0  0  2  0  0  0  0  0  0  0  0  0
    9.7723  -16.5676   22.0727 N   0  0  0  0  0  0  0  0  0  0  0  0
   10.3166  -16.1569   24.3688 C   0  0  0  0  0  0  0  0  0  0  0  0
   10.5667  -14.9773   23.9858 O   0  0  0  0  0  0  0  0  0  0  0  0
    7.0779  -13.0468   26.9060 C   0  0  0  0  0  0  0  0  0  0  0  0
    8.4206  -13.6103   27.4058 C   0  0  2  0  0  0  0  0  0  0  0  0
    9.3672  -12.4168   27.3601 C   0  0  0  0  0  0  0  0  0  0  0  0
    8.7928  -14.6981   26.4626 C   0  0  0  0  0  0  0  0  0  0  0  0
   10.0549  -15.4321   26.7665 C   0  0  2  0  0  0  0  0  0  0  0  0
   10.2669  -16.4426   25.7516 N   0  0  0  0  0  0  0  0  0  0  0  0
   10.1356  -16.0370   28.0961 C   0  0  0  0  0  0  0  0  0  0  0  0
   10.8692  -15.5021   29.1467 O   0  0  0  0  0  0  0  0  0  0  0  0
    9.5168  -17.1039   28.3382 O   0  0  0  0  0  0  0  0  0  0  0  0
  2  1  1  6
  2  3  1  0
  4  2  1  0
  4  5  1  0
  5  7  1  0
  5  6  1  1
  7  8  2  0
  9 10  1  0
 11 10  1  6
 12 11  1  0
 12  7  1  0
 13 11  1  0
 14 13  2  0
 16 15  1  6
 16 17  1  0
 18 16  1  0
 19 20  1  0
 19 18  1  6
 20 13  1  0
 21 19  1  0
 22 21  1  0
 23 21  2  0
M  END
$$$$
