LVE.pdb
     RDKit          3D

 25 24  0  0  1  0  0  0  0  0999 V2000
   20.4790  -17.4156  -14.9049 C   0  0  0  0  0  0  0  0  0  0  0  0
   20.9641  -16.9770  -16.2649 C   0  0  2  0  0  0  0  0  0  0  0  0
   22.4992  -16.8996  -16.2773 C   0  0  0  0  0  0  0  0  0  0  0  0
   20.4169  -15.6625  -16.6747 C   0  0  0  0  0  0  0  0  0  0  0  0
   18.9410  -15.5234  -16.7319 C   0  0  2  0  0  0  0  0  0  0  0  0
   18.2883  -16.4201  -17.6218 N   0  0  0  0  0  0  0  0  0  0  0  0
   18.4976  -14.1103  -16.9292 C   0  0  0  0  0  0  0  0  0  0  0  0
   18.7594  -13.5105  -18.0041 O   0  0  0  0  0  0  0  0  0  0  0  0
   15.3245  -12.8573  -17.1996 C   0  0  0  0  0  0  0  0  0  0  0  0
   15.8344  -11.9669  -16.0639 C   0  0  1  0  0  0  0  0  0  0  0  0
   15.1587  -12.3945  -14.8107 C   0  0  0  0  0  0  0  0  0  0  0  0
   17.3174  -12.0621  -16.0577 C   0  0  2  0  0  0  0  0  0  0  0  0
   17.7920  -13.4271  -15.9398 N   0  0  0  0  0  0  0  0  0  0  0  0
   17.9886  -11.1580  -15.1082 C   0  0  0  0  0  0  0  0  0  0  0  0
   18.2346  -11.5856  -13.9598 O   0  0  0  0  0  0  0  0  0  0  0  0
   18.3557   -9.8506  -15.4451 N   0  0  0  0  0  0  0  0  0  0  0  0
   19.0638   -8.9691  -14.4568 C   0  0  1  0  0  0  0  0  0  0  0  0
   19.9121   -8.0986  -15.3047 C   0  0  0  0  0  0  0  0  0  0  0  0
   20.7328   -7.0408  -14.7078 C   0  0  0  0  0  0  0  0  0  0  0  0
   21.3556   -6.0960  -15.6430 C   0  0  0  0  0  0  0  0  0  0  0  0
   21.2221   -6.1877  -16.8987 O   0  0  0  0  0  0  0  0  0  0  0  0
   17.9549   -8.2852  -13.7504 C   0  0  0  0  0  0  0  0  0  0  0  0
   16.6823   -8.1026  -14.3561 O   0  0  0  0  0  0  0  0  0  0  0  0
   22.1263   -5.0483  -15.1605 O   0  0  0  0  0  0  0  0  0  0  0  0
   18.0154   -7.8132  -12.5915 O   0  0  0  0  0  0  0  0  0  0  0  0
  2  1  1  1
  3  2  1  0
  4  5  1  0
  4  2  1  0
  5  6  1  6
  7  5  1  0
  8  7  2  0
 10  9  1  6
 10 12  1  0
 11 10  1  0
 12 14  1  0
 12 13  1  1
 13  7  1  0
 14 16  1  0
 15 14  2  0
 16 17  1  0
 17 18  1  6
 17 22  1  0
 18 19  1  0
 19 20  1  0
 20 24  1  0
 21 20  2  0
 22 25  2  0
 22 23  1  0
M  END
$$$$
