LVE.pdb
     RDKit          3D

 25 24  0  0  1  0  0  0  0  0999 V2000
   20.2591  -14.9516  -20.9597 C   0  0  0  0  0  0  0  0  0  0  0  0
   19.0043  -14.6563  -20.1752 C   0  0  2  0  0  0  0  0  0  0  0  0
   17.9666  -13.9712  -21.0787 C   0  0  0  0  0  0  0  0  0  0  0  0
   19.2526  -13.7949  -18.9955 C   0  0  0  0  0  0  0  0  0  0  0  0
   20.2480  -14.2659  -18.0015 C   0  0  2  0  0  0  0  0  0  0  0  0
   19.9546  -15.5252  -17.4096 N   0  0  0  0  0  0  0  0  0  0  0  0
   20.5863  -13.2282  -16.9812 C   0  0  0  0  0  0  0  0  0  0  0  0
   19.7357  -12.8910  -16.1172 O   0  0  0  0  0  0  0  0  0  0  0  0
   23.5355  -13.0651  -14.7002 C   0  0  0  0  0  0  0  0  0  0  0  0
   23.5630  -11.7392  -15.4643 C   0  0  1  0  0  0  0  0  0  0  0  0
   24.6897  -11.7942  -16.4326 C   0  0  0  0  0  0  0  0  0  0  0  0
   22.2154  -11.5421  -16.0588 C   0  0  2  0  0  0  0  0  0  0  0  0
   21.8371  -12.6130  -16.9602 N   0  0  0  0  0  0  0  0  0  0  0  0
   21.9928  -10.2128  -16.6530 C   0  0  0  0  0  0  0  0  0  0  0  0
   22.3860  -10.0163  -17.8229 O   0  0  0  0  0  0  0  0  0  0  0  0
   21.3629   -9.1741  -15.9587 N   0  0  0  0  0  0  0  0  0  0  0  0
   21.0597   -7.8675  -16.6340 C   0  0  1  0  0  0  0  0  0  0  0  0
   19.5893   -7.8975  -16.8167 C   0  0  0  0  0  0  0  0  0  0  0  0
   18.6884   -7.7561  -15.6690 C   0  0  0  0  0  0  0  0  0  0  0  0
   17.2541   -7.6844  -15.9739 C   0  0  0  0  0  0  0  0  0  0  0  0
   16.8105   -7.5667  -17.1539 O   0  0  0  0  0  0  0  0  0  0  0  0
   21.5618   -6.8587  -15.6715 C   0  0  0  0  0  0  0  0  0  0  0  0
   21.6623   -5.4830  -16.0143 O   0  0  0  0  0  0  0  0  0  0  0  0
   16.3227   -7.7475  -14.9478 O   0  0  0  0  0  0  0  0  0  0  0  0
   21.9369   -7.0979  -14.5004 O   0  0  0  0  0  0  0  0  0  0  0  0
  2  1  1  6
  3  2  1  0
  4  5  1  0
  4  2  1  0
  5  6  1  1
  7  5  1  0
  8  7  2  0
 10  9  1  6
 10 12  1  0
 11 10  1  0
 12 14  1  0
 12 13  1  6
 13  7  1  0
 14 16  1  0
 15 14  2  0
 16 17  1  0
 17 18  1  1
 17 22  1  0
 18 19  1  0
 19 20  1  0
 20 24  1  0
 21 20  2  0
 22 25  2  0
 22 23  1  0
M  END
$$$$
