LVE.pdb
     RDKit          3D

 25 24  0  0  1  0  0  0  0  0999 V2000
   26.4542  -19.2137   -6.1213 C   0  0  0  0  0  0  0  0  0  0  0  0
   27.5289  -19.7543   -7.0323 C   0  0  2  0  0  0  0  0  0  0  0  0
   28.8526  -19.0135   -6.7836 C   0  0  0  0  0  0  0  0  0  0  0  0
   27.1793  -19.6374   -8.4674 C   0  0  0  0  0  0  0  0  0  0  0  0
   25.9064  -20.2548   -8.9141 C   0  0  2  0  0  0  0  0  0  0  0  0
   25.7997  -21.6517   -8.6706 N   0  0  0  0  0  0  0  0  0  0  0  0
   25.5498  -19.8985  -10.3206 C   0  0  0  0  0  0  0  0  0  0  0  0
   25.6759  -18.7128  -10.7231 O   0  0  0  0  0  0  0  0  0  0  0  0
   26.8373  -21.6410  -13.0716 C   0  0  0  0  0  0  0  0  0  0  0  0
   25.3943  -21.4799  -13.5558 C   0  0  1  0  0  0  0  0  0  0  0  0
   24.8119  -22.8386  -13.7135 C   0  0  0  0  0  0  0  0  0  0  0  0
   24.6986  -20.5922  -12.5882 C   0  0  2  0  0  0  0  0  0  0  0  0
   25.0731  -20.8577  -11.2127 N   0  0  0  0  0  0  0  0  0  0  0  0
   23.2376  -20.5184  -12.7605 C   0  0  0  0  0  0  0  0  0  0  0  0
   22.5173  -21.1710  -11.9748 O   0  0  0  0  0  0  0  0  0  0  0  0
   22.6360  -19.7507  -13.7636 N   0  0  0  0  0  0  0  0  0  0  0  0
   21.1415  -19.6349  -13.8546 C   0  0  1  0  0  0  0  0  0  0  0  0
   20.9296  -18.3491  -14.5606 C   0  0  0  0  0  0  0  0  0  0  0  0
   19.5776  -17.8914  -14.8946 C   0  0  0  0  0  0  0  0  0  0  0  0
   19.4810  -16.5977  -15.5818 C   0  0  0  0  0  0  0  0  0  0  0  0
   20.1050  -16.3442  -16.6539 O   0  0  0  0  0  0  0  0  0  0  0  0
   20.7482  -20.8484  -14.6089 C   0  0  0  0  0  0  0  0  0  0  0  0
   19.4700  -21.4482  -14.4467 O   0  0  0  0  0  0  0  0  0  0  0  0
   18.6794  -15.5930  -15.0599 O   0  0  0  0  0  0  0  0  0  0  0  0
   21.4688  -21.4526  -15.4367 O   0  0  0  0  0  0  0  0  0  0  0  0
  2  1  1  1
  3  2  1  0
  4  5  1  0
  4  2  1  0
  5  6  1  6
  7  5  1  0
  8  7  2  0
 10  9  1  1
 10 12  1  0
 11 10  1  0
 12 14  1  0
 12 13  1  1
 13  7  1  0
 14 16  1  0
 15 14  2  0
 16 17  1  0
 17 18  1  6
 17 22  1  0
 18 19  1  0
 19 20  1  0
 20 24  1  0
 21 20  2  0
 22 25  2  0
 22 23  1  0
M  END
$$$$
