LVE.pdb
     RDKit          3D

 25 24  0  0  1  0  0  0  0  0999 V2000
   17.5593  -10.4531  -20.0655 C   0  0  0  0  0  0  0  0  0  0  0  0
   16.4838  -10.0906  -19.0710 C   0  0  2  0  0  0  0  0  0  0  0  0
   15.6373   -8.9266  -19.6108 C   0  0  0  0  0  0  0  0  0  0  0  0
   17.0290   -9.7099  -17.7470 C   0  0  0  0  0  0  0  0  0  0  0  0
   17.9295  -10.6777  -17.0737 C   0  0  2  0  0  0  0  0  0  0  0  0
   17.3122  -11.8963  -16.6785 N   0  0  0  0  0  0  0  0  0  0  0  0
   18.7216  -10.0616  -15.9667 C   0  0  0  0  0  0  0  0  0  0  0  0
   18.1509   -9.7100  -14.9017 O   0  0  0  0  0  0  0  0  0  0  0  0
   22.8836  -10.2677  -16.1120 C   0  0  0  0  0  0  0  0  0  0  0  0
   22.1555  -10.0676  -14.7806 C   0  0  1  0  0  0  0  0  0  0  0  0
   23.1158   -9.4592  -13.8226 C   0  0  0  0  0  0  0  0  0  0  0  0
   20.9340   -9.2685  -15.0592 C   0  0  2  0  0  0  0  0  0  0  0  0
   20.0963   -9.8615  -16.0834 N   0  0  0  0  0  0  0  0  0  0  0  0
   21.1773   -7.8363  -15.3028 C   0  0  0  0  0  0  0  0  0  0  0  0
   21.4790   -7.4780  -16.4616 O   0  0  0  0  0  0  0  0  0  0  0  0
   21.0833   -6.8742  -14.2913 N   0  0  0  0  0  0  0  0  0  0  0  0
   21.2749   -5.4158  -14.5935 C   0  0  1  0  0  0  0  0  0  0  0  0
   19.9082   -4.8516  -14.4910 C   0  0  0  0  0  0  0  0  0  0  0  0
   19.6829   -3.4077  -14.6053 C   0  0  0  0  0  0  0  0  0  0  0  0
   18.2932   -2.9543  -14.4691 C   0  0  0  0  0  0  0  0  0  0  0  0
   17.3261   -3.7538  -14.3005 O   0  0  0  0  0  0  0  0  0  0  0  0
   22.2279   -4.9709  -13.5495 C   0  0  0  0  0  0  0  0  0  0  0  0
   22.9964   -3.7842  -13.6952 O   0  0  0  0  0  0  0  0  0  0  0  0
   17.9969   -1.6001  -14.5214 O   0  0  0  0  0  0  0  0  0  0  0  0
   22.4512   -5.5668  -12.4704 O   0  0  0  0  0  0  0  0  0  0  0  0
  2  1  1  6
  3  2  1  0
  4  5  1  0
  4  2  1  0
  5  6  1  1
  7  5  1  0
  8  7  2  0
 10  9  1  6
 10 12  1  0
 11 10  1  0
 12 14  1  0
 12 13  1  6
 13  7  1  0
 14 16  1  0
 15 14  2  0
 16 17  1  0
 17 18  1  1
 17 22  1  0
 18 19  1  0
 19 20  1  0
 20 24  1  0
 21 20  2  0
 22 25  2  0
 22 23  1  0
M  END
$$$$
