LVE.pdb
     RDKit          3D

 25 24  0  0  1  0  0  0  0  0999 V2000
   19.7698  -10.4729  -12.5737 C   0  0  0  0  0  0  0  0  0  0  0  0
   18.9146   -9.9521  -13.7026 C   0  0  2  0  0  0  0  0  0  0  0  0
   19.7808   -9.1698  -14.7027 C   0  0  0  0  0  0  0  0  0  0  0  0
   17.8160   -9.0748  -13.2347 C   0  0  0  0  0  0  0  0  0  0  0  0
   16.8781   -9.6301  -12.2283 C   0  0  2  0  0  0  0  0  0  0  0  0
   16.2598  -10.8563  -12.5974 N   0  0  0  0  0  0  0  0  0  0  0  0
   15.8879   -8.6238  -11.7391 C   0  0  0  0  0  0  0  0  0  0  0  0
   15.0022   -8.1803  -12.5153 O   0  0  0  0  0  0  0  0  0  0  0  0
   13.4385   -9.0171   -9.3314 C   0  0  0  0  0  0  0  0  0  0  0  0
   14.1618   -7.7927   -8.7653 C   0  0  1  0  0  0  0  0  0  0  0  0
   14.9245   -8.2279   -7.5657 C   0  0  0  0  0  0  0  0  0  0  0  0
   14.9738   -7.2098   -9.8649 C   0  0  2  0  0  0  0  0  0  0  0  0
   15.9193   -8.1548  -10.4267 N   0  0  0  0  0  0  0  0  0  0  0  0
   15.6047   -5.9175   -9.5463 C   0  0  0  0  0  0  0  0  0  0  0  0
   16.7000   -5.9283   -8.9444 O   0  0  0  0  0  0  0  0  0  0  0  0
   15.0249   -4.6917   -9.8911 N   0  0  0  0  0  0  0  0  0  0  0  0
   15.7244   -3.3966   -9.5934 C   0  0  1  0  0  0  0  0  0  0  0  0
   15.7314   -2.6916  -10.8970 C   0  0  0  0  0  0  0  0  0  0  0  0
   16.2727   -1.3342  -11.0121 C   0  0  0  0  0  0  0  0  0  0  0  0
   16.3191   -0.7659  -12.3650 C   0  0  0  0  0  0  0  0  0  0  0  0
   15.9342   -1.4038  -13.3886 O   0  0  0  0  0  0  0  0  0  0  0  0
   14.8792   -2.7834   -8.5418 C   0  0  0  0  0  0  0  0  0  0  0  0
   15.3740   -1.7629   -7.6853 O   0  0  0  0  0  0  0  0  0  0  0  0
   16.7978    0.5214  -12.5607 O   0  0  0  0  0  0  0  0  0  0  0  0
   13.6869   -3.0848   -8.3029 O   0  0  0  0  0  0  0  0  0  0  0  0
  2  1  1  1
  3  2  1  0
  4  5  1  0
  4  2  1  0
  5  6  1  6
  7  5  1  0
  8  7  2  0
 10  9  1  6
 10 12  1  0
 11 10  1  0
 12 14  1  0
 12 13  1  1
 13  7  1  0
 14 16  1  0
 15 14  2  0
 16 17  1  0
 17 18  1  6
 17 22  1  0
 18 19  1  0
 19 20  1  0
 20 24  1  0
 21 20  2  0
 22 25  2  0
 22 23  1  0
M  END
$$$$
