LVE.pdb
     RDKit          3D

 25 24  0  0  1  0  0  0  0  0999 V2000
   26.8910  -11.4193  -14.9019 C   0  0  0  0  0  0  0  0  0  0  0  0
   26.9197  -10.8654  -16.3053 C   0  0  2  0  0  0  0  0  0  0  0  0
   28.0030   -9.7813  -16.4221 C   0  0  0  0  0  0  0  0  0  0  0  0
   25.6204  -10.2884  -16.7229 C   0  0  0  0  0  0  0  0  0  0  0  0
   24.4194  -11.1515  -16.6069 C   0  0  2  0  0  0  0  0  0  0  0  0
   24.5093  -12.3983  -17.2847 N   0  0  0  0  0  0  0  0  0  0  0  0
   23.1509  -10.4278  -16.9227 C   0  0  0  0  0  0  0  0  0  0  0  0
   22.8148  -10.2359  -18.1201 O   0  0  0  0  0  0  0  0  0  0  0  0
   19.8844  -11.4633  -16.1098 C   0  0  0  0  0  0  0  0  0  0  0  0
   19.9099  -10.0609  -15.4971 C   0  0  1  0  0  0  0  0  0  0  0  0
   19.9945  -10.2100  -14.0204 C   0  0  0  0  0  0  0  0  0  0  0  0
   21.0306   -9.3201  -16.1323 C   0  0  2  0  0  0  0  0  0  0  0  0
   22.3174   -9.9512  -15.9121 N   0  0  0  0  0  0  0  0  0  0  0  0
   21.0626   -7.8778  -15.8346 C   0  0  0  0  0  0  0  0  0  0  0  0
   21.8131   -7.4813  -14.9172 O   0  0  0  0  0  0  0  0  0  0  0  0
   20.2889   -6.9472  -16.5368 N   0  0  0  0  0  0  0  0  0  0  0  0
   20.4295   -5.4748  -16.2773 C   0  0  1  0  0  0  0  0  0  0  0  0
   20.1642   -4.8568  -17.5980 C   0  0  0  0  0  0  0  0  0  0  0  0
   20.1764   -3.3999  -17.7599 C   0  0  0  0  0  0  0  0  0  0  0  0
   19.7759   -2.8893  -19.0767 C   0  0  0  0  0  0  0  0  0  0  0  0
   19.5064   -3.6497  -20.0525 O   0  0  0  0  0  0  0  0  0  0  0  0
   19.4106   -5.2110  -15.2340 C   0  0  0  0  0  0  0  0  0  0  0  0
   19.5920   -4.2019  -14.2498 O   0  0  0  0  0  0  0  0  0  0  0  0
   19.6781   -1.5221  -19.2902 O   0  0  0  0  0  0  0  0  0  0  0  0
   18.3242   -5.8226  -15.1107 O   0  0  0  0  0  0  0  0  0  0  0  0
  2  1  1  1
  3  2  1  0
  4  5  1  0
  4  2  1  0
  5  6  1  6
  7  5  1  0
  8  7  2  0
 10  9  1  6
 10 12  1  0
 11 10  1  0
 12 14  1  0
 12 13  1  1
 13  7  1  0
 14 16  1  0
 15 14  2  0
 16 17  1  0
 17 18  1  6
 17 22  1  0
 18 19  1  0
 19 20  1  0
 20 24  1  0
 21 20  2  0
 22 25  2  0
 22 23  1  0
M  END
$$$$
