LVE.pdb
     RDKit          3D

 25 24  0  0  1  0  0  0  0  0999 V2000
   24.6020  -16.2286  -14.9396 C   0  0  0  0  0  0  0  0  0  0  0  0
   25.2151  -15.3725  -16.0204 C   0  0  2  0  0  0  0  0  0  0  0  0
   26.6084  -14.8911  -15.5850 C   0  0  0  0  0  0  0  0  0  0  0  0
   24.3865  -14.1916  -16.3585 C   0  0  0  0  0  0  0  0  0  0  0  0
   22.9920  -14.4379  -16.8007 C   0  0  2  0  0  0  0  0  0  0  0  0
   22.8630  -15.2961  -17.9272 N   0  0  0  0  0  0  0  0  0  0  0  0
   22.2008  -13.1801  -16.9562 C   0  0  0  0  0  0  0  0  0  0  0  0
   22.4363  -12.4004  -17.9155 O   0  0  0  0  0  0  0  0  0  0  0  0
   18.8901  -12.8709  -17.7157 C   0  0  0  0  0  0  0  0  0  0  0  0
   18.9192  -12.0300  -16.4371 C   0  0  1  0  0  0  0  0  0  0  0  0
   18.2394  -12.8051  -15.3661 C   0  0  0  0  0  0  0  0  0  0  0  0
   20.3378  -11.6765  -16.1713 C   0  0  2  0  0  0  0  0  0  0  0  0
   21.1942  -12.8406  -16.0535 N   0  0  0  0  0  0  0  0  0  0  0  0
   20.5386  -10.7264  -15.0637 C   0  0  0  0  0  0  0  0  0  0  0  0
   20.8413  -11.1846  -13.9410 O   0  0  0  0  0  0  0  0  0  0  0  0
   20.4031   -9.3432  -15.2248 N   0  0  0  0  0  0  0  0  0  0  0  0
   20.7151   -8.4010  -14.0979 C   0  0  1  0  0  0  0  0  0  0  0  0
   21.2914   -7.2167  -14.7773 C   0  0  0  0  0  0  0  0  0  0  0  0
   21.6600   -6.0204  -14.0145 C   0  0  0  0  0  0  0  0  0  0  0  0
   22.1729   -4.8862  -14.7927 C   0  0  0  0  0  0  0  0  0  0  0  0
   22.4303   -4.9657  -16.0298 O   0  0  0  0  0  0  0  0  0  0  0  0
   19.3976   -8.1878  -13.4536 C   0  0  0  0  0  0  0  0  0  0  0  0
   18.1826   -8.2945  -14.1830 O   0  0  0  0  0  0  0  0  0  0  0  0
   22.3927   -3.6637  -14.1749 O   0  0  0  0  0  0  0  0  0  0  0  0
   19.2185   -7.9022  -12.2470 O   0  0  0  0  0  0  0  0  0  0  0  0
  2  1  1  1
  3  2  1  0
  4  5  1  0
  4  2  1  0
  5  6  1  6
  7  5  1  0
  8  7  2  0
 10  9  1  6
 10 12  1  0
 11 10  1  0
 12 14  1  0
 12 13  1  1
 13  7  1  0
 14 16  1  0
 15 14  2  0
 16 17  1  0
 17 18  1  6
 17 22  1  0
 18 19  1  0
 19 20  1  0
 20 24  1  0
 21 20  2  0
 22 25  2  0
 22 23  1  0
M  END
$$$$
