LVE.pdb
     RDKit          3D

 25 24  0  0  1  0  0  0  0  0999 V2000
   25.4119  -36.9063  -13.8108 C   0  0  0  0  0  0  0  0  0  0  0  0
   26.5107  -36.0874  -14.4426 C   0  0  2  0  0  0  0  0  0  0  0  0
   27.7493  -36.9647  -14.6849 C   0  0  0  0  0  0  0  0  0  0  0  0
   26.9059  -34.9213  -13.6183 C   0  0  0  0  0  0  0  0  0  0  0  0
   25.8320  -33.9944  -13.1844 C   0  0  2  0  0  0  0  0  0  0  0  0
   25.4642  -33.0117  -14.1442 N   0  0  0  0  0  0  0  0  0  0  0  0
   26.0863  -33.4000  -11.8374 C   0  0  0  0  0  0  0  0  0  0  0  0
   26.9797  -32.5259  -11.6913 O   0  0  0  0  0  0  0  0  0  0  0  0
   24.2484  -31.2732   -9.9225 C   0  0  0  0  0  0  0  0  0  0  0  0
   24.3882  -32.4318   -8.9322 C   0  0  1  0  0  0  0  0  0  0  0  0
   23.0773  -33.1292   -8.8583 C   0  0  0  0  0  0  0  0  0  0  0  0
   25.5333  -33.2647   -9.3831 C   0  0  2  0  0  0  0  0  0  0  0  0
   25.3506  -33.7938  -10.7207 N   0  0  0  0  0  0  0  0  0  0  0  0
   25.9520  -34.3049   -8.4280 C   0  0  0  0  0  0  0  0  0  0  0  0
   25.6992  -35.4970   -8.7057 O   0  0  0  0  0  0  0  0  0  0  0  0
   26.6159  -34.0062   -7.2332 N   0  0  0  0  0  0  0  0  0  0  0  0
   27.0044  -35.0941   -6.2737 C   0  0  1  0  0  0  0  0  0  0  0  0
   27.9856  -34.4395   -5.3763 C   0  0  0  0  0  0  0  0  0  0  0  0
   28.5558  -35.1615   -4.2351 C   0  0  0  0  0  0  0  0  0  0  0  0
   29.5914  -34.4551   -3.4712 C   0  0  0  0  0  0  0  0  0  0  0  0
   29.4081  -33.3073   -2.9691 O   0  0  0  0  0  0  0  0  0  0  0  0
   25.7175  -35.4720   -5.6434 C   0  0  0  0  0  0  0  0  0  0  0  0
   25.5099  -36.7609   -5.0817 O   0  0  0  0  0  0  0  0  0  0  0  0
   30.8313  -35.0450   -3.2732 O   0  0  0  0  0  0  0  0  0  0  0  0
   24.7145  -34.7283   -5.5412 O   0  0  0  0  0  0  0  0  0  0  0  0
  2  1  1  1
  3  2  1  0
  4  5  1  0
  4  2  1  0
  5  6  1  6
  7  5  1  0
  8  7  2  0
 10  9  1  6
 10 12  1  0
 11 10  1  0
 12 14  1  0
 12 13  1  6
 13  7  1  0
 14 16  1  0
 15 14  2  0
 16 17  1  0
 17 18  1  1
 17 22  1  0
 18 19  1  0
 19 20  1  0
 20 24  1  0
 21 20  2  0
 22 25  2  0
 22 23  1  0
M  END
$$$$
