LVE.pdb
     RDKit          3D

 25 24  0  0  1  0  0  0  0  0999 V2000
   18.0920  -11.2543  -20.2888 C   0  0  0  0  0  0  0  0  0  0  0  0
   17.0843  -10.7526  -19.2839 C   0  0  2  0  0  0  0  0  0  0  0  0
   16.3077   -9.5607  -19.8661 C   0  0  0  0  0  0  0  0  0  0  0  0
   17.7052  -10.3381  -18.0041 C   0  0  0  0  0  0  0  0  0  0  0  0
   18.4776  -11.3598  -17.2557 C   0  0  2  0  0  0  0  0  0  0  0  0
   17.7319  -12.5040  -16.8596 N   0  0  0  0  0  0  0  0  0  0  0  0
   19.2649  -10.7806  -16.1255 C   0  0  0  0  0  0  0  0  0  0  0  0
   18.7578  -10.7046  -14.9763 O   0  0  0  0  0  0  0  0  0  0  0  0
   23.4301  -10.1327  -16.4553 C   0  0  0  0  0  0  0  0  0  0  0  0
   22.6963  -10.2315  -15.1157 C   0  0  1  0  0  0  0  0  0  0  0  0
   23.5481   -9.5884  -14.0807 C   0  0  0  0  0  0  0  0  0  0  0  0
   21.3500   -9.6308  -15.3023 C   0  0  2  0  0  0  0  0  0  0  0  0
   20.5652  -10.3141  -16.3121 N   0  0  0  0  0  0  0  0  0  0  0  0
   21.3484   -8.1703  -15.4935 C   0  0  0  0  0  0  0  0  0  0  0  0
   21.6394   -7.7230  -16.6237 O   0  0  0  0  0  0  0  0  0  0  0  0
   21.0357   -7.2768  -14.4632 N   0  0  0  0  0  0  0  0  0  0  0  0
   21.1583   -5.7937  -14.6646 C   0  0  1  0  0  0  0  0  0  0  0  0
   19.7527   -5.3312  -14.7461 C   0  0  0  0  0  0  0  0  0  0  0  0
   19.0452   -5.3060  -16.0297 C   0  0  0  0  0  0  0  0  0  0  0  0
   17.6954   -4.7288  -16.0162 C   0  0  0  0  0  0  0  0  0  0  0  0
   17.1643   -4.2550  -14.9691 O   0  0  0  0  0  0  0  0  0  0  0  0
   21.9083   -5.3453  -13.4675 C   0  0  0  0  0  0  0  0  0  0  0  0
   22.5327   -4.0699  -13.4107 O   0  0  0  0  0  0  0  0  0  0  0  0
   16.9477   -4.6854  -17.1839 O   0  0  0  0  0  0  0  0  0  0  0  0
   22.0673   -6.0131  -12.4196 O   0  0  0  0  0  0  0  0  0  0  0  0
  2  1  1  6
  3  2  1  0
  4  5  1  0
  4  2  1  0
  5  6  1  1
  7  5  1  0
  8  7  2  0
 10  9  1  6
 10 12  1  0
 11 10  1  0
 12 14  1  0
 12 13  1  6
 13  7  1  0
 14 16  1  0
 15 14  2  0
 16 17  1  0
 17 18  1  1
 17 22  1  0
 18 19  1  0
 19 20  1  0
 20 24  1  0
 21 20  2  0
 22 25  2  0
 22 23  1  0
M  END
$$$$
