LVE.pdb
     RDKit          3D

 25 24  0  0  1  0  0  0  0  0999 V2000
   20.9914  -36.0354  -11.1127 C   0  0  0  0  0  0  0  0  0  0  0  0
   21.9151  -37.2278  -11.0682 C   0  0  2  0  0  0  0  0  0  0  0  0
   21.1935  -38.4306  -10.4397 C   0  0  0  0  0  0  0  0  0  0  0  0
   23.1577  -36.9650  -10.3052 C   0  0  0  0  0  0  0  0  0  0  0  0
   23.9651  -35.7840  -10.6980 C   0  0  2  0  0  0  0  0  0  0  0  0
   24.5040  -35.8366  -12.0129 N   0  0  0  0  0  0  0  0  0  0  0  0
   24.9965  -35.4204   -9.6798 C   0  0  0  0  0  0  0  0  0  0  0  0
   26.1338  -35.9579   -9.7132 O   0  0  0  0  0  0  0  0  0  0  0  0
   26.7082  -32.2691   -8.9652 C   0  0  0  0  0  0  0  0  0  0  0  0
   25.9152  -32.5891   -7.6958 C   0  0  1  0  0  0  0  0  0  0  0  0
   24.6905  -31.7465   -7.6986 C   0  0  0  0  0  0  0  0  0  0  0  0
   25.6839  -34.0569   -7.6759 C   0  0  2  0  0  0  0  0  0  0  0  0
   24.7290  -34.4886   -8.6780 N   0  0  0  0  0  0  0  0  0  0  0  0
   25.3826  -34.6149   -6.3464 C   0  0  0  0  0  0  0  0  0  0  0  0
   24.1836  -34.7286   -6.0123 O   0  0  0  0  0  0  0  0  0  0  0  0
   26.3829  -35.0173   -5.4548 N   0  0  0  0  0  0  0  0  0  0  0  0
   26.0337  -35.6036   -4.1171 C   0  0  1  0  0  0  0  0  0  0  0  0
   27.2293  -36.4028   -3.7591 C   0  0  0  0  0  0  0  0  0  0  0  0
   27.2982  -37.1171   -2.4809 C   0  0  0  0  0  0  0  0  0  0  0  0
   28.5967  -37.7095   -2.1370 C   0  0  0  0  0  0  0  0  0  0  0  0
   29.6500  -37.4826   -2.8019 O   0  0  0  0  0  0  0  0  0  0  0  0
   25.7883  -34.4107   -3.2726 C   0  0  0  0  0  0  0  0  0  0  0  0
   26.2873  -33.1281   -3.6272 O   0  0  0  0  0  0  0  0  0  0  0  0
   28.7055  -38.5552   -1.0427 O   0  0  0  0  0  0  0  0  0  0  0  0
   25.1419  -34.4028   -2.1995 O   0  0  0  0  0  0  0  0  0  0  0  0
  2  1  1  1
  3  2  1  0
  4  5  1  0
  4  2  1  0
  5  6  1  6
  7  5  1  0
  8  7  2  0
 10  9  1  6
 10 12  1  0
 11 10  1  0
 12 14  1  0
 12 13  1  6
 13  7  1  0
 14 16  1  0
 15 14  2  0
 16 17  1  0
 17 18  1  1
 17 22  1  0
 18 19  1  0
 19 20  1  0
 20 24  1  0
 21 20  2  0
 22 25  2  0
 22 23  1  0
M  END
$$$$
