LVE.pdb
     RDKit          3D

 25 24  0  0  1  0  0  0  0  0999 V2000
   27.4092  -12.5283  -15.6740 C   0  0  0  0  0  0  0  0  0  0  0  0
   27.2567  -11.9169  -17.0451 C   0  0  2  0  0  0  0  0  0  0  0  0
   28.4721  -11.0323  -17.3661 C   0  0  0  0  0  0  0  0  0  0  0  0
   26.0258  -11.1031  -17.1787 C   0  0  0  0  0  0  0  0  0  0  0  0
   24.7431  -11.7314  -16.7777 C   0  0  2  0  0  0  0  0  0  0  0  0
   24.4229  -12.9332  -17.4670 N   0  0  0  0  0  0  0  0  0  0  0  0
   23.6021  -10.7668  -16.7657 C   0  0  0  0  0  0  0  0  0  0  0  0
   23.0421  -10.4376  -17.8435 O   0  0  0  0  0  0  0  0  0  0  0  0
   21.6773   -9.9979  -13.1727 C   0  0  0  0  0  0  0  0  0  0  0  0
   20.9795   -9.7557  -14.5133 C   0  0  1  0  0  0  0  0  0  0  0  0
   19.8567   -8.8099  -14.2786 C   0  0  0  0  0  0  0  0  0  0  0  0
   22.0148   -9.2962  -15.4752 C   0  0  2  0  0  0  0  0  0  0  0  0
   23.1344  -10.2121  -15.5753 N   0  0  0  0  0  0  0  0  0  0  0  0
   22.4537   -7.9026  -15.2886 C   0  0  0  0  0  0  0  0  0  0  0  0
   23.4453   -7.6892  -14.5583 O   0  0  0  0  0  0  0  0  0  0  0  0
   21.8045   -6.8215  -15.8948 N   0  0  0  0  0  0  0  0  0  0  0  0
   22.2825   -5.4145  -15.6781 C   0  0  1  0  0  0  0  0  0  0  0  0
   21.5495   -4.6313  -16.7007 C   0  0  0  0  0  0  0  0  0  0  0  0
   21.7155   -3.1778  -16.7927 C   0  0  0  0  0  0  0  0  0  0  0  0
   20.9025   -2.4940  -17.8059 C   0  0  0  0  0  0  0  0  0  0  0  0
   21.3961   -2.0094  -18.8664 O   0  0  0  0  0  0  0  0  0  0  0  0
   21.9061   -5.1366  -14.2719 C   0  0  0  0  0  0  0  0  0  0  0  0
   22.7404   -4.3728  -13.4114 O   0  0  0  0  0  0  0  0  0  0  0  0
   19.5340   -2.3595  -17.6224 O   0  0  0  0  0  0  0  0  0  0  0  0
   20.8562   -5.5280  -13.7116 O   0  0  0  0  0  0  0  0  0  0  0  0
  2  1  1  1
  3  2  1  0
  4  5  1  0
  4  2  1  0
  5  6  1  6
  7  5  1  0
  8  7  2  0
 10  9  1  1
 10 12  1  0
 11 10  1  0
 12 14  1  0
 12 13  1  1
 13  7  1  0
 14 16  1  0
 15 14  2  0
 16 17  1  0
 17 18  1  6
 17 22  1  0
 18 19  1  0
 19 20  1  0
 20 24  1  0
 21 20  2  0
 22 25  2  0
 22 23  1  0
M  END
$$$$
