DRP.pdb
     RDKit          3D

 27 27  0  0  1  0  0  0  0  0999 V2000
   13.1971  -16.7295   22.4909 N   0  0  0  0  0  0  0  0  0  0  0  0
   11.9992  -17.5240   22.9168 C   0  0  1  0  0  0  0  0  0  0  0  0
   12.4550  -18.4616   23.9611 C   0  0  0  0  0  0  0  0  0  0  0  0
   13.0471  -19.7293   23.4870 C   0  0  0  0  0  0  0  0  0  0  0  0
   13.4305  -20.6512   24.2476 O   0  0  0  0  0  0  0  0  0  0  0  0
   11.0286  -16.4892   23.3173 C   0  0  0  0  0  0  0  0  0  0  0  0
   11.4931  -15.3699   23.7793 O   0  0  0  0  0  0  0  0  0  0  0  0
   13.2160  -19.9744   22.1114 O   0  0  0  0  0  0  0  0  0  0  0  0
    8.6541  -14.4225   18.0528 N   0  0  0  0  0  0  0  0  0  0  0  0
    8.2818  -13.1776   18.6209 C   0  0  0  0  0  0  0  0  0  0  0  0
    8.9074  -12.0785   18.3535 N   0  0  0  0  0  0  0  0  0  0  0  0
    7.1838  -13.0978   19.5233 N   0  0  0  0  0  0  0  0  0  0  0  0
    6.9442  -14.2025   20.4299 C   0  0  0  0  0  0  0  0  0  0  0  0
    7.9312  -14.1077   21.6013 C   0  0  0  0  0  0  0  0  0  0  0  0
    7.7732  -15.3385   22.4811 C   0  0  0  0  0  0  0  0  0  0  0  0
    8.7894  -15.3956   23.5958 C   0  0  2  0  0  0  0  0  0  0  0  0
    9.6279  -16.5819   23.2575 N   0  0  0  0  0  0  0  0  0  0  0  0
    8.1446  -15.6502   24.9341 C   0  0  0  0  0  0  0  0  0  0  0  0
    7.7372  -16.8571   25.0536 O   0  0  0  0  0  0  0  0  0  0  0  0
    8.6650  -11.1643   18.7871 N   0  0  0  0  0  0  0  0  0  0  0  0
    8.0227  -14.6621   25.9084 C   0  0  0  0  0  0  0  0  0  0  0  0
    8.6375  -13.3205   25.7788 C   0  0  0  0  0  0  0  0  0  0  0  0
    7.5954  -12.3827   26.3441 C   0  0  0  0  0  0  0  0  0  0  0  0
    6.5270  -13.2891   26.9146 C   0  0  2  0  0  0  0  0  0  0  0  0
    7.3709  -14.5825   27.1535 C   0  0  0  0  0  0  0  0  0  0  0  0
    6.5228  -15.6494   27.6305 O   0  0  0  0  0  0  0  0  0  0  0  0
    6.6103  -16.1242   28.9683 O   0  0  0  0  0  0  0  0  0  0  0  0
  2  1  1  1
  2  3  1  0
  4  3  1  0
  4  8  1  0
  5  4  2  0
  6  7  2  0
  6  2  1  0
  9 10  1  0
 10 12  1  0
 11 10  2  0
 12 13  1  0
 13 14  1  0
 15 14  1  0
 16 15  1  6
 16 17  1  0
 17  6  1  0
 18 16  1  0
 19 18  2  0
 20 18  1  0
 20 21  1  0
 22 21  1  0
 23 22  1  0
 24 23  1  0
 24 20  1  0
 25 26  1  0
 24 25  1  1
 27 25  2  0
M  END
$$$$
