DRP.pdb
     RDKit          3D

 27 27  0  0  1  0  0  0  0  0999 V2000
   11.6349  -17.9279   21.5745 N   0  0  0  0  0  0  0  0  0  0  0  0
   12.6328  -16.9810   22.1703 C   0  0  1  0  0  0  0  0  0  0  0  0
   13.3899  -16.3931   21.0485 C   0  0  0  0  0  0  0  0  0  0  0  0
   14.3552  -17.2850   20.3739 C   0  0  0  0  0  0  0  0  0  0  0  0
   14.6006  -18.4593   20.7431 O   0  0  0  0  0  0  0  0  0  0  0  0
   11.7991  -16.0675   22.9727 C   0  0  0  0  0  0  0  0  0  0  0  0
   12.3951  -15.1135   23.6182 O   0  0  0  0  0  0  0  0  0  0  0  0
   15.0720  -16.8469   19.2446 O   0  0  0  0  0  0  0  0  0  0  0  0
    8.4946  -13.7117   18.5327 N   0  0  0  0  0  0  0  0  0  0  0  0
    7.7450  -13.3737   19.6880 C   0  0  0  0  0  0  0  0  0  0  0  0
    7.9240  -12.2671   20.3316 N   0  0  0  0  0  0  0  0  0  0  0  0
    6.7506  -14.2621   20.1862 N   0  0  0  0  0  0  0  0  0  0  0  0
    6.7977  -14.6500   21.5816 C   0  0  0  0  0  0  0  0  0  0  0  0
    8.2606  -14.6634   22.0450 C   0  0  0  0  0  0  0  0  0  0  0  0
    8.3121  -15.0826   23.5064 C   0  0  0  0  0  0  0  0  0  0  0  0
    9.7205  -15.1618   24.0435 C   0  0  2  0  0  0  0  0  0  0  0  0
   10.4030  -16.1170   23.1234 N   0  0  0  0  0  0  0  0  0  0  0  0
    9.7622  -15.7458   25.4323 C   0  0  0  0  0  0  0  0  0  0  0  0
    9.4364  -16.9830   25.4475 O   0  0  0  0  0  0  0  0  0  0  0  0
    7.4462  -12.0454   21.2290 N   0  0  0  0  0  0  0  0  0  0  0  0
   10.1199  -14.9967   26.5509 C   0  0  0  0  0  0  0  0  0  0  0  0
   10.6325  -13.6095   26.4632 C   0  0  0  0  0  0  0  0  0  0  0  0
    9.9841  -12.9037   27.6322 C   0  0  0  0  0  0  0  0  0  0  0  0
    9.2792  -13.9980   28.4031 C   0  0  2  0  0  0  0  0  0  0  0  0
   10.1137  -15.2348   27.9383 C   0  0  0  0  0  0  0  0  0  0  0  0
    9.5585  -16.4469   28.4930 O   0  0  0  0  0  0  0  0  0  0  0  0
    8.6654  -17.2632   27.7453 O   0  0  0  0  0  0  0  0  0  0  0  0
  2  1  1  6
  2  3  1  0
  4  3  1  0
  4  8  1  0
  5  4  2  0
  6  7  2  0
  6  2  1  0
  9 10  1  0
 10 12  1  0
 11 10  2  0
 12 13  1  0
 13 14  1  0
 15 14  1  0
 16 15  1  6
 16 17  1  0
 17  6  1  0
 18 16  1  0
 19 18  2  0
 20 18  1  0
 20 21  1  0
 22 21  1  0
 23 22  1  0
 24 23  1  0
 24 20  1  0
 25 26  1  0
 24 25  1  1
 27 25  2  0
M  END
$$$$
