DRP.pdb
     RDKit          3D

 27 27  0  0  1  0  0  0  0  0999 V2000
    9.7346  -16.6981   20.2071 N   0  0  0  0  0  0  0  0  0  0  0  0
   10.5627  -16.6435   21.4556 C   0  0  1  0  0  0  0  0  0  0  0  0
   11.6899  -15.7308   21.1837 C   0  0  0  0  0  0  0  0  0  0  0  0
   12.9821  -16.3683   20.8580 C   0  0  0  0  0  0  0  0  0  0  0  0
   13.1496  -17.6094   20.7738 O   0  0  0  0  0  0  0  0  0  0  0  0
    9.5953  -16.2306   22.4885 C   0  0  0  0  0  0  0  0  0  0  0  0
    8.7560  -15.2880   22.1898 O   0  0  0  0  0  0  0  0  0  0  0  0
   14.1287  -15.5884   20.6175 O   0  0  0  0  0  0  0  0  0  0  0  0
    3.9764  -21.7025   22.1038 N   0  0  0  0  0  0  0  0  0  0  0  0
    4.7944  -21.2229   23.1581 C   0  0  0  0  0  0  0  0  0  0  0  0
    4.9468  -21.8697   24.2668 N   0  0  0  0  0  0  0  0  0  0  0  0
    5.4880  -19.9868   23.0258 N   0  0  0  0  0  0  0  0  0  0  0  0
    6.2328  -19.4800   24.1608 C   0  0  0  0  0  0  0  0  0  0  0  0
    6.9118  -18.1628   23.7621 C   0  0  0  0  0  0  0  0  0  0  0  0
    7.6139  -17.5807   24.9795 C   0  0  0  0  0  0  0  0  0  0  0  0
    8.3620  -16.3066   24.6704 C   0  0  2  0  0  0  0  0  0  0  0  0
    9.4799  -16.7509   23.7886 N   0  0  0  0  0  0  0  0  0  0  0  0
    8.9640  -15.6919   25.9079 C   0  0  0  0  0  0  0  0  0  0  0  0
    9.8229  -16.4613   26.4622 O   0  0  0  0  0  0  0  0  0  0  0  0
    5.5892  -21.5596   25.0244 N   0  0  0  0  0  0  0  0  0  0  0  0
    8.6047  -14.4272   26.3684 C   0  0  0  0  0  0  0  0  0  0  0  0
    7.9616  -13.4074   25.5076 C   0  0  0  0  0  0  0  0  0  0  0  0
    6.9371  -12.7582   26.4098 C   0  0  0  0  0  0  0  0  0  0  0  0
    7.1964  -13.3486   27.7783 C   0  0  2  0  0  0  0  0  0  0  0  0
    8.6917  -13.7704   27.6104 C   0  0  0  0  0  0  0  0  0  0  0  0
    9.1518  -14.4555   28.7953 O   0  0  0  0  0  0  0  0  0  0  0  0
    9.5952  -13.7388   29.9410 O   0  0  0  0  0  0  0  0  0  0  0  0
  2  1  1  6
  2  3  1  0
  4  3  1  0
  4  8  1  0
  5  4  2  0
  6  7  2  0
  6  2  1  0
  9 10  1  0
 10 12  1  0
 11 10  2  0
 12 13  1  0
 13 14  1  0
 15 14  1  0
 16 15  1  1
 16 17  1  0
 17  6  1  0
 18 16  1  0
 19 18  2  0
 20 18  1  0
 20 21  1  0
 22 21  1  0
 23 22  1  0
 24 23  1  0
 24 20  1  0
 25 26  1  0
 24 25  1  1
 27 25  2  0
M  END
$$$$
