DRP.pdb
     RDKit          3D

 27 27  0  0  1  0  0  0  0  0999 V2000
    9.5662  -17.5486   15.4350 N   0  0  0  0  0  0  0  0  0  0  0  0
    9.0401  -16.1501   15.3131 C   0  0  1  0  0  0  0  0  0  0  0  0
    8.2006  -16.1112   14.1002 C   0  0  0  0  0  0  0  0  0  0  0  0
    8.8983  -16.3280   12.8162 C   0  0  0  0  0  0  0  0  0  0  0  0
    9.3553  -15.4023   12.1021 O   0  0  0  0  0  0  0  0  0  0  0  0
    8.3676  -15.9250   16.6055 C   0  0  0  0  0  0  0  0  0  0  0  0
    7.8069  -14.7724   16.8036 O   0  0  0  0  0  0  0  0  0  0  0  0
    9.0919  -17.6280   12.3130 O   0  0  0  0  0  0  0  0  0  0  0  0
    7.6469  -19.9021   23.2475 N   0  0  0  0  0  0  0  0  0  0  0  0
    6.2301  -19.8948   23.3085 C   0  0  0  0  0  0  0  0  0  0  0  0
    5.5620  -20.7477   24.0134 N   0  0  0  0  0  0  0  0  0  0  0  0
    5.4832  -18.9271   22.5791 N   0  0  0  0  0  0  0  0  0  0  0  0
    5.5922  -18.9058   21.1343 C   0  0  0  0  0  0  0  0  0  0  0  0
    6.1441  -17.5422   20.6972 C   0  0  0  0  0  0  0  0  0  0  0  0
    6.8883  -17.7093   19.3811 C   0  0  0  0  0  0  0  0  0  0  0  0
    7.5619  -16.4383   18.9239 C   0  0  2  0  0  0  0  0  0  0  0  0
    8.2667  -16.8355   17.6708 N   0  0  0  0  0  0  0  0  0  0  0  0
    8.5995  -15.9643   19.9090 C   0  0  0  0  0  0  0  0  0  0  0  0
    9.4356  -16.8841   20.2120 O   0  0  0  0  0  0  0  0  0  0  0  0
    4.5247  -20.7329   24.0942 N   0  0  0  0  0  0  0  0  0  0  0  0
    8.6184  -14.6655   20.4122 C   0  0  0  0  0  0  0  0  0  0  0  0
    8.0668  -13.5056   19.6739 C   0  0  0  0  0  0  0  0  0  0  0  0
    7.3952  -12.6749   20.7434 C   0  0  0  0  0  0  0  0  0  0  0  0
    7.7676  -13.3467   22.0468 C   0  0  2  0  0  0  0  0  0  0  0  0
    9.0761  -14.0794   21.6074 C   0  0  0  0  0  0  0  0  0  0  0  0
    9.5860  -14.8822   22.6940 O   0  0  0  0  0  0  0  0  0  0  0  0
    8.9923  -16.1282   23.0373 O   0  0  0  0  0  0  0  0  0  0  0  0
  2  1  1  1
  2  3  1  0
  4  3  1  0
  4  8  1  0
  5  4  2  0
  6  7  2  0
  6  2  1  0
  9 10  1  0
 10 12  1  0
 11 10  2  0
 12 13  1  0
 13 14  1  0
 15 14  1  0
 16 15  1  1
 16 17  1  0
 17  6  1  0
 18 16  1  0
 19 18  2  0
 20 18  1  0
 20 21  1  0
 22 21  1  0
 23 22  1  0
 24 23  1  0
 24 20  1  0
 25 26  1  0
 24 25  1  1
 27 25  2  0
M  END
$$$$
