DRP.pdb
     RDKit          3D

 27 27  0  0  1  0  0  0  0  0999 V2000
    8.3966  -13.2297   19.1557 N   0  0  0  0  0  0  0  0  0  0  0  0
    9.2834  -14.1171   19.9763 C   0  0  1  0  0  0  0  0  0  0  0  0
   10.5959  -13.4486   20.0654 C   0  0  0  0  0  0  0  0  0  0  0  0
   11.6095  -13.8656   19.0748 C   0  0  0  0  0  0  0  0  0  0  0  0
   11.4088  -14.7326   18.1895 O   0  0  0  0  0  0  0  0  0  0  0  0
    8.5279  -14.2882   21.2306 C   0  0  0  0  0  0  0  0  0  0  0  0
    7.9883  -13.2347   21.7609 O   0  0  0  0  0  0  0  0  0  0  0  0
   12.8944  -13.2915   19.0748 O   0  0  0  0  0  0  0  0  0  0  0  0
    7.1986  -20.7852   26.7669 N   0  0  0  0  0  0  0  0  0  0  0  0
    7.4165  -20.6603   25.3713 C   0  0  0  0  0  0  0  0  0  0  0  0
    7.7024  -21.6729   24.6206 N   0  0  0  0  0  0  0  0  0  0  0  0
    7.3256  -19.3878   24.7396 N   0  0  0  0  0  0  0  0  0  0  0  0
    6.0848  -18.6461   24.8402 C   0  0  0  0  0  0  0  0  0  0  0  0
    6.3878  -17.1483   24.6999 C   0  0  0  0  0  0  0  0  0  0  0  0
    7.1494  -16.9178   23.4034 C   0  0  0  0  0  0  0  0  0  0  0  0
    7.5641  -15.4786   23.2160 C   0  0  2  0  0  0  0  0  0  0  0  0
    8.3254  -15.4879   21.9333 N   0  0  0  0  0  0  0  0  0  0  0  0
    8.4965  -15.0140   24.3051 C   0  0  0  0  0  0  0  0  0  0  0  0
    9.5121  -15.7814   24.4333 O   0  0  0  0  0  0  0  0  0  0  0  0
    7.9141  -21.5887   23.6054 N   0  0  0  0  0  0  0  0  0  0  0  0
    8.2515  -13.8736   25.0668 C   0  0  0  0  0  0  0  0  0  0  0  0
    7.5292  -12.6917   24.5413 C   0  0  0  0  0  0  0  0  0  0  0  0
    6.6671  -12.2433   25.6992 C   0  0  0  0  0  0  0  0  0  0  0  0
    7.0972  -13.1110   26.8614 C   0  0  2  0  0  0  0  0  0  0  0  0
    8.5374  -13.4948   26.3920 C   0  0  0  0  0  0  0  0  0  0  0  0
    9.1367  -14.4172   27.3275 O   0  0  0  0  0  0  0  0  0  0  0  0
    9.9191  -13.9583   28.4231 O   0  0  0  0  0  0  0  0  0  0  0  0
  2  1  1  6
  2  3  1  0
  4  3  1  0
  4  8  1  0
  5  4  2  0
  6  7  2  0
  6  2  1  0
  9 10  1  0
 10 12  1  0
 11 10  2  0
 12 13  1  0
 13 14  1  0
 15 14  1  0
 16 15  1  1
 16 17  1  0
 17  6  1  0
 18 16  1  0
 19 18  2  0
 20 18  1  0
 20 21  1  0
 22 21  1  0
 23 22  1  0
 24 23  1  0
 24 20  1  0
 25 26  1  0
 24 25  1  1
 27 25  2  0
M  END
$$$$
