TGI.pdb
     RDKit          3D

 20 19  0  0  1  0  0  0  0  0999 V2000
   18.4848  -14.8839  -15.9254 C   0  0  0  0  0  0  0  0  0  0  0  0
   18.3281  -15.3421  -17.3547 C   0  0  1  0  0  0  0  0  0  0  0  0
   17.8198  -16.6181  -17.4436 O   0  0  0  0  0  0  0  0  0  0  0  0
   17.5400  -14.3581  -18.1891 C   0  0  2  0  0  0  0  0  0  0  0  0
   17.3277  -14.9464  -19.4790 N   0  0  0  0  0  0  0  0  0  0  0  0
   18.1992  -13.0430  -18.3125 C   0  0  0  0  0  0  0  0  0  0  0  0
   19.0725  -12.8909  -19.2004 O   0  0  0  0  0  0  0  0  0  0  0  0
   17.9157  -11.9200  -17.4905 N   0  0  0  0  0  0  0  0  0  0  0  0
   18.5924  -10.6679  -17.6077 C   0  0  0  0  0  0  0  0  0  0  0  0
   19.0272  -10.1351  -16.2743 C   0  0  0  0  0  0  0  0  0  0  0  0
   18.5087  -10.5628  -15.2289 O   0  0  0  0  0  0  0  0  0  0  0  0
   24.1317  -10.5988  -14.0690 C   0  0  0  0  0  0  0  0  0  0  0  0
   22.8937   -9.7282  -13.8597 C   0  0  0  0  0  0  0  0  0  0  0  0
   22.0811   -9.7277  -15.1297 C   0  0  2  0  0  0  0  0  0  0  0  0
   22.9459   -9.1450  -16.2243 C   0  0  0  0  0  0  0  0  0  0  0  0
   20.8097   -8.9374  -14.9308 C   0  0  2  0  0  0  0  0  0  0  0  0
   20.0320   -9.1380  -16.1634 N   0  0  0  0  0  0  0  0  0  0  0  0
   21.0030   -7.5089  -14.6597 C   0  0  0  0  0  0  0  0  0  0  0  0
   21.1622   -6.7248  -15.6589 O   0  0  0  0  0  0  0  0  0  0  0  0
   21.0325   -6.8960  -13.4259 O   0  0  0  0  0  0  0  0  0  0  0  0
  2  1  1  1
  3  2  1  0
  4  2  1  0
  4  5  1  6
  6  7  2  0
  6  4  1  0
  8  6  1  0
  9  8  1  0
 10  9  1  0
 10 11  2  0
 12 13  1  0
 13 14  1  0
 14 16  1  0
 14 15  1  6
 16 17  1  6
 16 18  1  0
 17 10  1  0
 18 19  2  0
 18 20  1  0
M  END
$$$$
