TGI.pdb
     RDKit          3D

 20 19  0  0  1  0  0  0  0  0999 V2000
   18.5297  -17.7397  -16.4762 C   0  0  0  0  0  0  0  0  0  0  0  0
   18.7673  -18.9299  -17.3731 C   0  0  1  0  0  0  0  0  0  0  0  0
   18.2893  -18.7293  -18.6482 O   0  0  0  0  0  0  0  0  0  0  0  0
   20.2141  -19.3687  -17.3721 C   0  0  2  0  0  0  0  0  0  0  0  0
   20.3591  -20.4076  -18.3491 N   0  0  0  0  0  0  0  0  0  0  0  0
   20.6820  -19.8227  -16.0476 C   0  0  0  0  0  0  0  0  0  0  0  0
   20.2944  -20.9386  -15.6249 O   0  0  0  0  0  0  0  0  0  0  0  0
   21.5504  -19.0814  -15.2030 N   0  0  0  0  0  0  0  0  0  0  0  0
   21.9910  -19.5447  -13.9260 C   0  0  0  0  0  0  0  0  0  0  0  0
   23.4827  -19.6920  -13.8637 C   0  0  0  0  0  0  0  0  0  0  0  0
   24.2075  -19.0769  -14.6644 O   0  0  0  0  0  0  0  0  0  0  0  0
   25.2159  -20.6370   -8.9304 C   0  0  0  0  0  0  0  0  0  0  0  0
   25.0307  -20.1189  -10.3558 C   0  0  0  0  0  0  0  0  0  0  0  0
   25.7852  -21.0194  -11.3008 C   0  0  2  0  0  0  0  0  0  0  0  0
   27.2443  -20.9733  -10.9075 C   0  0  0  0  0  0  0  0  0  0  0  0
   25.5682  -20.5721  -12.7268 C   0  0  2  0  0  0  0  0  0  0  0  0
   24.1081  -20.5275  -12.9010 N   0  0  0  0  0  0  0  0  0  0  0  0
   26.1919  -21.4231  -13.7457 C   0  0  0  0  0  0  0  0  0  0  0  0
   25.6598  -22.5629  -13.9832 O   0  0  0  0  0  0  0  0  0  0  0  0
   27.3098  -21.1327  -14.4973 O   0  0  0  0  0  0  0  0  0  0  0  0
  2  1  1  1
  3  2  1  0
  4  2  1  0
  4  5  1  6
  6  7  2  0
  6  4  1  0
  8  6  1  0
  9  8  1  0
 10  9  1  0
 10 11  2  0
 12 13  1  0
 13 14  1  0
 14 16  1  0
 14 15  1  1
 16 17  1  6
 16 18  1  0
 17 10  1  0
 18 19  2  0
 18 20  1  0
M  END
$$$$
