TGI.pdb
     RDKit          3D

 20 19  0  0  1  0  0  0  0  0999 V2000
   28.4948  -18.1267  -19.6968 C   0  0  0  0  0  0  0  0  0  0  0  0
   27.9291  -17.7296  -18.3552 C   0  0  1  0  0  0  0  0  0  0  0  0
   27.1204  -16.6187  -18.4353 O   0  0  0  0  0  0  0  0  0  0  0  0
   27.2424  -18.8823  -17.6587 C   0  0  2  0  0  0  0  0  0  0  0  0
   26.1628  -19.3204  -18.4939 N   0  0  0  0  0  0  0  0  0  0  0  0
   26.7565  -18.5379  -16.3079 C   0  0  0  0  0  0  0  0  0  0  0  0
   25.6016  -18.0622  -16.1893 O   0  0  0  0  0  0  0  0  0  0  0  0
   27.5080  -18.7068  -15.1147 N   0  0  0  0  0  0  0  0  0  0  0  0
   26.9644  -18.5140  -13.8083 C   0  0  0  0  0  0  0  0  0  0  0  0
   26.3271  -19.7622  -13.2730 C   0  0  0  0  0  0  0  0  0  0  0  0
   26.2918  -20.7944  -13.9645 O   0  0  0  0  0  0  0  0  0  0  0  0
   26.3647  -20.5094   -7.8758 C   0  0  0  0  0  0  0  0  0  0  0  0
   25.6981  -20.1455   -9.2016 C   0  0  0  0  0  0  0  0  0  0  0  0
   25.8329  -21.3113  -10.1480 C   0  0  2  0  0  0  0  0  0  0  0  0
   27.3092  -21.5526  -10.3673 C   0  0  0  0  0  0  0  0  0  0  0  0
   25.1088  -21.0162  -11.4400 C   0  0  2  0  0  0  0  0  0  0  0  0
   25.7506  -19.8059  -11.9761 N   0  0  0  0  0  0  0  0  0  0  0  0
   23.6600  -20.8276  -11.3102 C   0  0  0  0  0  0  0  0  0  0  0  0
   22.9440  -21.8518  -11.0330 O   0  0  0  0  0  0  0  0  0  0  0  0
   22.9616  -19.6483  -11.4533 O   0  0  0  0  0  0  0  0  0  0  0  0
  2  1  1  6
  3  2  1  0
  4  2  1  0
  4  5  1  6
  6  7  2  0
  6  4  1  0
  8  6  1  0
  9  8  1  0
 10  9  1  0
 10 11  2  0
 12 13  1  0
 13 14  1  0
 14 16  1  0
 14 15  1  6
 16 17  1  1
 16 18  1  0
 17 10  1  0
 18 19  2  0
 18 20  1  0
M  END
$$$$
