TGI.pdb
     RDKit          3D

 20 19  0  0  1  0  0  0  0  0999 V2000
   17.3230  -25.1876   -4.7988 C   0  0  0  0  0  0  0  0  0  0  0  0
   17.3676  -25.3286   -6.3007 C   0  0  1  0  0  0  0  0  0  0  0  0
   16.1831  -25.8013   -6.8183 O   0  0  0  0  0  0  0  0  0  0  0  0
   17.8175  -24.0566   -6.9828 C   0  0  2  0  0  0  0  0  0  0  0  0
   17.6626  -24.2374   -8.3964 N   0  0  0  0  0  0  0  0  0  0  0  0
   19.2050  -23.6786   -6.6494 C   0  0  0  0  0  0  0  0  0  0  0  0
   19.4633  -23.3207   -5.4749 O   0  0  0  0  0  0  0  0  0  0  0  0
   20.2859  -23.6896   -7.5706 N   0  0  0  0  0  0  0  0  0  0  0  0
   21.6121  -23.2815   -7.2328 C   0  0  0  0  0  0  0  0  0  0  0  0
   22.0833  -22.1376   -8.0816 C   0  0  0  0  0  0  0  0  0  0  0  0
   21.2619  -21.4106   -8.6660 O   0  0  0  0  0  0  0  0  0  0  0  0
   26.7360  -19.7796   -6.6418 C   0  0  0  0  0  0  0  0  0  0  0  0
   25.3034  -19.9448   -7.1465 C   0  0  0  0  0  0  0  0  0  0  0  0
   25.3450  -20.4461   -8.5678 C   0  0  2  0  0  0  0  0  0  0  0  0
   26.0404  -19.3946   -9.4023 C   0  0  0  0  0  0  0  0  0  0  0  0
   23.9448  -20.7254   -9.0598 C   0  0  2  0  0  0  0  0  0  0  0  0
   23.4645  -21.8511   -8.2435 N   0  0  0  0  0  0  0  0  0  0  0  0
   23.8395  -21.0327  -10.4902 C   0  0  0  0  0  0  0  0  0  0  0  0
   24.2270  -22.1867  -10.8860 O   0  0  0  0  0  0  0  0  0  0  0  0
   23.3593  -20.2059  -11.4825 O   0  0  0  0  0  0  0  0  0  0  0  0
  2  1  1  1
  3  2  1  0
  4  2  1  0
  4  5  1  6
  6  7  2  0
  6  4  1  0
  8  6  1  0
  9  8  1  0
 10  9  1  0
 10 11  2  0
 12 13  1  0
 13 14  1  0
 14 16  1  0
 14 15  1  6
 16 17  1  1
 16 18  1  0
 17 10  1  0
 18 19  2  0
 18 20  1  0
M  END
$$$$
