TGI.pdb
     RDKit          3D

 20 19  0  0  1  0  0  0  0  0999 V2000
   25.6684  -19.3926  -16.0041 C   0  0  0  0  0  0  0  0  0  0  0  0
   24.3899  -19.8959  -15.3798 C   0  0  1  0  0  0  0  0  0  0  0  0
   23.4711  -20.3016  -16.3210 O   0  0  0  0  0  0  0  0  0  0  0  0
   24.6417  -20.9609  -14.3368 C   0  0  2  0  0  0  0  0  0  0  0  0
   23.3702  -21.4624  -13.9047 N   0  0  0  0  0  0  0  0  0  0  0  0
   25.4329  -20.4742  -13.1895 C   0  0  0  0  0  0  0  0  0  0  0  0
   24.8891  -19.6889  -12.3760 O   0  0  0  0  0  0  0  0  0  0  0  0
   26.7830  -20.8326  -12.9326 N   0  0  0  0  0  0  0  0  0  0  0  0
   27.5443  -20.3046  -11.8459 C   0  0  0  0  0  0  0  0  0  0  0  0
   27.1625  -20.9269  -10.5352 C   0  0  0  0  0  0  0  0  0  0  0  0
   27.1475  -22.1632  -10.4089 O   0  0  0  0  0  0  0  0  0  0  0  0
   29.0448  -18.6264   -6.1902 C   0  0  0  0  0  0  0  0  0  0  0  0
   28.5336  -19.6365   -7.2163 C   0  0  0  0  0  0  0  0  0  0  0  0
   27.0358  -19.7463   -7.0839 C   0  0  2  0  0  0  0  0  0  0  0  0
   26.7335  -20.1757   -5.6662 C   0  0  0  0  0  0  0  0  0  0  0  0
   26.4962  -20.7248   -8.0997 C   0  0  2  0  0  0  0  0  0  0  0  0
   26.8101  -20.1352   -9.4105 N   0  0  0  0  0  0  0  0  0  0  0  0
   25.0625  -21.0118   -7.9840 C   0  0  0  0  0  0  0  0  0  0  0  0
   24.2448  -20.2413   -8.5975 O   0  0  0  0  0  0  0  0  0  0  0  0
   24.4773  -22.0396   -7.2766 O   0  0  0  0  0  0  0  0  0  0  0  0
  2  1  1  6
  3  2  1  0
  4  2  1  0
  4  5  1  1
  6  7  2  0
  6  4  1  0
  8  6  1  0
  9  8  1  0
 10  9  1  0
 10 11  2  0
 12 13  1  0
 13 14  1  0
 14 16  1  0
 14 15  1  1
 16 17  1  6
 16 18  1  0
 17 10  1  0
 18 19  2  0
 18 20  1  0
M  END
$$$$
