TGI.pdb
     RDKit          3D

 20 19  0  0  1  0  0  0  0  0999 V2000
   15.2470  -10.6731  -18.3521 C   0  0  0  0  0  0  0  0  0  0  0  0
   15.7358  -12.0201  -17.8784 C   0  0  1  0  0  0  0  0  0  0  0  0
   15.6785  -12.9760  -18.8671 O   0  0  0  0  0  0  0  0  0  0  0  0
   17.1055  -11.9420  -17.2433 C   0  0  2  0  0  0  0  0  0  0  0  0
   17.5406  -13.2804  -16.9706 N   0  0  0  0  0  0  0  0  0  0  0  0
   17.1309  -11.1202  -16.0173 C   0  0  0  0  0  0  0  0  0  0  0  0
   16.8571  -11.6682  -14.9223 O   0  0  0  0  0  0  0  0  0  0  0  0
   17.4465   -9.7359  -15.9823 N   0  0  0  0  0  0  0  0  0  0  0  0
   17.4741   -8.9651  -14.7804 C   0  0  0  0  0  0  0  0  0  0  0  0
   18.8692   -8.5678  -14.3974 C   0  0  0  0  0  0  0  0  0  0  0  0
   19.0679   -7.8715  -13.3872 O   0  0  0  0  0  0  0  0  0  0  0  0
   22.5255  -12.1676  -14.0219 C   0  0  0  0  0  0  0  0  0  0  0  0
   21.6971  -10.8915  -13.8808 C   0  0  0  0  0  0  0  0  0  0  0  0
   22.1601   -9.8962  -14.9142 C   0  0  2  0  0  0  0  0  0  0  0  0
   23.6405   -9.6744  -14.7029 C   0  0  0  0  0  0  0  0  0  0  0  0
   21.3715   -8.6144  -14.7888 C   0  0  2  0  0  0  0  0  0  0  0  0
   19.9941   -8.9684  -15.1656 N   0  0  0  0  0  0  0  0  0  0  0  0
   21.8671   -7.4989  -15.6021 C   0  0  0  0  0  0  0  0  0  0  0  0
   21.7031   -7.5615  -16.8700 O   0  0  0  0  0  0  0  0  0  0  0  0
   22.5027   -6.3625  -15.1509 O   0  0  0  0  0  0  0  0  0  0  0  0
  2  1  1  6
  3  2  1  0
  4  2  1  0
  4  5  1  1
  6  7  2  0
  6  4  1  0
  8  6  1  0
  9  8  1  0
 10  9  1  0
 10 11  2  0
 12 13  1  0
 13 14  1  0
 14 16  1  0
 14 15  1  1
 16 17  1  6
 16 18  1  0
 17 10  1  0
 18 19  2  0
 18 20  1  0
M  END
$$$$
