TGI.pdb
     RDKit          3D

 20 19  0  0  1  0  0  0  0  0999 V2000
   25.4589  -12.6041  -18.6567 C   0  0  0  0  0  0  0  0  0  0  0  0
   25.0027  -14.0136  -18.3690 C   0  0  1  0  0  0  0  0  0  0  0  0
   25.6436  -14.9431  -19.1563 O   0  0  0  0  0  0  0  0  0  0  0  0
   25.0923  -14.3565  -16.8993 C   0  0  2  0  0  0  0  0  0  0  0  0
   24.8784  -15.7674  -16.7633 N   0  0  0  0  0  0  0  0  0  0  0  0
   24.1387  -13.5969  -16.0669 C   0  0  0  0  0  0  0  0  0  0  0  0
   22.9353  -13.9518  -16.0582 O   0  0  0  0  0  0  0  0  0  0  0  0
   24.4851  -12.4784  -15.2631 N   0  0  0  0  0  0  0  0  0  0  0  0
   23.5338  -11.7270  -14.5082 C   0  0  0  0  0  0  0  0  0  0  0  0
   22.9876  -10.5660  -15.2857 C   0  0  0  0  0  0  0  0  0  0  0  0
   23.4285  -10.3070  -16.4186 O   0  0  0  0  0  0  0  0  0  0  0  0
   18.3823  -10.5902  -16.8511 C   0  0  0  0  0  0  0  0  0  0  0  0
   19.8441  -10.1651  -16.7212 C   0  0  0  0  0  0  0  0  0  0  0  0
   19.9307   -9.0181  -15.7464 C   0  0  2  0  0  0  0  0  0  0  0  0
   19.1136   -7.8778  -16.3101 C   0  0  0  0  0  0  0  0  0  0  0  0
   21.3738   -8.6289  -15.5311 C   0  0  2  0  0  0  0  0  0  0  0  0
   21.9627   -9.7353  -14.7607 N   0  0  0  0  0  0  0  0  0  0  0  0
   21.5754   -7.3477  -14.8461 C   0  0  0  0  0  0  0  0  0  0  0  0
   21.3651   -7.3023  -13.5843 O   0  0  0  0  0  0  0  0  0  0  0  0
   21.9759   -6.1579  -15.4145 O   0  0  0  0  0  0  0  0  0  0  0  0
  2  1  1  1
  3  2  1  0
  4  2  1  0
  4  5  1  6
  6  7  2  0
  6  4  1  0
  8  6  1  0
  9  8  1  0
 10  9  1  0
 10 11  2  0
 12 13  1  0
 13 14  1  0
 14 16  1  0
 14 15  1  6
 16 17  1  1
 16 18  1  0
 17 10  1  0
 18 19  2  0
 18 20  1  0
M  END
$$$$
