TGI.pdb
     RDKit          3D

 20 19  0  0  1  0  0  0  0  0999 V2000
   25.3429  -19.8037  -17.7821 C   0  0  0  0  0  0  0  0  0  0  0  0
   26.6274  -19.9920  -18.5516 C   0  0  1  0  0  0  0  0  0  0  0  0
   26.4575  -19.8175  -19.9063 O   0  0  0  0  0  0  0  0  0  0  0  0
   27.7521  -19.1415  -18.0066 C   0  0  2  0  0  0  0  0  0  0  0  0
   28.9088  -19.3665  -18.8229 N   0  0  0  0  0  0  0  0  0  0  0  0
   28.0494  -19.4129  -16.5863 C   0  0  0  0  0  0  0  0  0  0  0  0
   28.8242  -20.3591  -16.3061 O   0  0  0  0  0  0  0  0  0  0  0  0
   27.5173  -18.6734  -15.4968 N   0  0  0  0  0  0  0  0  0  0  0  0
   27.7896  -18.9809  -14.1291 C   0  0  0  0  0  0  0  0  0  0  0  0
   26.7839  -19.9346  -13.5547 C   0  0  0  0  0  0  0  0  0  0  0  0
   26.4486  -20.9495  -14.1891 O   0  0  0  0  0  0  0  0  0  0  0  0
   27.0651  -20.2593   -8.3523 C   0  0  0  0  0  0  0  0  0  0  0  0
   26.8300  -20.8120   -9.7572 C   0  0  0  0  0  0  0  0  0  0  0  0
   25.4208  -20.4813  -10.1788 C   0  0  2  0  0  0  0  0  0  0  0  0
   24.4877  -21.3709   -9.3889 C   0  0  0  0  0  0  0  0  0  0  0  0
   25.2658  -20.6780  -11.6680 C   0  0  2  0  0  0  0  0  0  0  0  0
   26.1894  -19.7130  -12.2845 N   0  0  0  0  0  0  0  0  0  0  0  0
   23.9027  -20.4990  -12.1790 C   0  0  0  0  0  0  0  0  0  0  0  0
   23.4632  -19.3039  -12.3101 O   0  0  0  0  0  0  0  0  0  0  0  0
   23.0179  -21.4899  -12.5453 O   0  0  0  0  0  0  0  0  0  0  0  0
  2  1  1  1
  3  2  1  0
  4  2  1  0
  4  5  1  6
  6  7  2  0
  6  4  1  0
  8  6  1  0
  9  8  1  0
 10  9  1  0
 10 11  2  0
 12 13  1  0
 13 14  1  0
 14 16  1  0
 14 15  1  1
 16 17  1  6
 16 18  1  0
 17 10  1  0
 18 19  2  0
 18 20  1  0
M  END
$$$$
