CKT.pdb
     RDKit          3D

 23 22  0  0  1  0  0  0  0  0999 V2000
   16.4882  -11.7404  -15.3434 N   0  0  0  0  0  0  0  0  0  0  0  0
   17.1260  -11.5852  -14.0393 C   0  0  1  0  0  0  0  0  0  0  0  0
   18.5052  -10.9762  -14.2066 C   0  0  0  0  0  0  0  0  0  0  0  0
   19.6953  -12.1246  -14.8953 S   0  0  0  0  0  0  0  0  0  0  0  0
   16.2997  -10.6656  -13.2238 C   0  0  0  0  0  0  0  0  0  0  0  0
   15.8367   -9.6272  -13.7801 O   0  0  0  0  0  0  0  0  0  0  0  0
   15.9889  -10.8629  -11.8705 N   0  0  0  0  0  0  0  0  0  0  0  0
   15.0749   -9.9161  -11.2031 C   0  0  1  0  0  0  0  0  0  0  0  0
   14.1838  -10.8201  -10.3768 C   0  0  0  0  0  0  0  0  0  0  0  0
   13.0872  -11.4990  -11.0946 C   0  0  0  0  0  0  0  0  0  0  0  0
   12.3599  -12.4062  -10.0865 C   0  0  0  0  0  0  0  0  0  0  0  0
   11.2239  -13.1602  -10.6852 C   0  0  0  0  0  0  0  0  0  0  0  0
   10.6897  -14.0107   -9.6009 N   0  0  0  0  0  0  0  0  0  0  0  0
   15.8825   -9.0271  -10.3459 C   0  0  0  0  0  0  0  0  0  0  0  0
   16.7048   -9.5552   -9.5473 O   0  0  0  0  0  0  0  0  0  0  0  0
   18.6345   -6.8944  -10.8470 C   0  0  0  0  0  0  0  0  0  0  0  0
   17.6078   -6.0024  -10.1808 C   0  0  1  0  0  0  0  0  0  0  0  0
   16.9673   -5.2876  -11.1917 O   0  0  0  0  0  0  0  0  0  0  0  0
   16.6363   -6.8577   -9.4123 C   0  0  2  0  0  0  0  0  0  0  0  0
   15.8104   -7.6115  -10.3504 N   0  0  0  0  0  0  0  0  0  0  0  0
   15.7651   -5.9744   -8.6011 C   0  0  0  0  0  0  0  0  0  0  0  0
   14.5421   -5.8919   -8.8343 O   0  0  0  0  0  0  0  0  0  0  0  0
   16.2696   -5.2096   -7.5583 O   0  0  0  0  0  0  0  0  0  0  0  0
  2  1  1  6
  2  5  1  0
  2  3  1  0
  4  3  1  0
  5  6  2  0
  7  8  1  0
  7  5  1  0
  9 10  1  0
  8  9  1  1
 10 11  1  0
 11 12  1  0
 13 12  1  0
 14 15  2  0
 14  8  1  0
 17 16  1  6
 17 19  1  0
 18 17  1  0
 19 20  1  6
 19 21  1  0
 20 14  1  0
 21 22  2  0
 21 23  1  0
M  END
$$$$
