CKT.pdb
     RDKit          3D

 23 22  0  0  1  0  0  0  0  0999 V2000
   26.4403  -12.2458  -18.1623 N   0  0  0  0  0  0  0  0  0  0  0  0
   25.8606  -12.0845  -16.8321 C   0  0  1  0  0  0  0  0  0  0  0  0
   26.8766  -11.4564  -15.8972 C   0  0  0  0  0  0  0  0  0  0  0  0
   28.2581  -12.5396  -15.5398 S   0  0  0  0  0  0  0  0  0  0  0  0
   24.6943  -11.1780  -16.9396 C   0  0  0  0  0  0  0  0  0  0  0  0
   24.7409  -10.2444  -17.7930 O   0  0  0  0  0  0  0  0  0  0  0  0
   23.5326  -11.2795  -16.1604 N   0  0  0  0  0  0  0  0  0  0  0  0
   22.3893  -10.3982  -16.4661 C   0  0  1  0  0  0  0  0  0  0  0  0
   21.1938  -11.2185  -16.0285 C   0  0  0  0  0  0  0  0  0  0  0  0
   19.8733  -10.5678  -16.1361 C   0  0  0  0  0  0  0  0  0  0  0  0
   18.8037  -11.6232  -15.8038 C   0  0  0  0  0  0  0  0  0  0  0  0
   17.4112  -11.1112  -15.9312 C   0  0  0  0  0  0  0  0  0  0  0  0
   16.5312  -12.2654  -15.6523 N   0  0  0  0  0  0  0  0  0  0  0  0
   22.5266   -9.1725  -15.6558 C   0  0  0  0  0  0  0  0  0  0  0  0
   22.9383   -9.2864  -14.4683 O   0  0  0  0  0  0  0  0  0  0  0  0
   24.6130   -6.1243  -15.9735 C   0  0  0  0  0  0  0  0  0  0  0  0
   23.1802   -5.6551  -15.8301 C   0  0  1  0  0  0  0  0  0  0  0  0
   22.7132   -5.3645  -17.1110 O   0  0  0  0  0  0  0  0  0  0  0  0
   22.3674   -6.7442  -15.1829 C   0  0  2  0  0  0  0  0  0  0  0  0
   22.2334   -7.8626  -16.1110 N   0  0  0  0  0  0  0  0  0  0  0  0
   21.0205   -6.2094  -14.8709 C   0  0  0  0  0  0  0  0  0  0  0  0
   20.8702   -5.3099  -14.0193 O   0  0  0  0  0  0  0  0  0  0  0  0
   19.8817   -6.6831  -15.5077 O   0  0  0  0  0  0  0  0  0  0  0  0
  2  1  1  6
  2  5  1  0
  2  3  1  0
  4  3  1  0
  5  6  2  0
  7  8  1  0
  7  5  1  0
  9 10  1  0
  8  9  1  1
 10 11  1  0
 11 12  1  0
 13 12  1  0
 14 15  2  0
 14  8  1  0
 17 16  1  6
 17 19  1  0
 18 17  1  0
 19 20  1  6
 19 21  1  0
 20 14  1  0
 21 22  2  0
 21 23  1  0
M  END
$$$$
