CKT.pdb
     RDKit          3D

 23 22  0  0  1  0  0  0  0  0999 V2000
   19.8810  -22.9136   -8.2836 N   0  0  0  0  0  0  0  0  0  0  0  0
   20.5063  -21.7166   -8.8383 C   0  0  1  0  0  0  0  0  0  0  0  0
   22.0083  -21.7752   -8.6344 C   0  0  0  0  0  0  0  0  0  0  0  0
   22.5248  -21.0970   -7.0587 S   0  0  0  0  0  0  0  0  0  0  0  0
   20.2285  -21.6780  -10.2926 C   0  0  0  0  0  0  0  0  0  0  0  0
   20.1668  -22.7769  -10.9177 O   0  0  0  0  0  0  0  0  0  0  0  0
   20.0258  -20.5046  -11.0334 N   0  0  0  0  0  0  0  0  0  0  0  0
   19.6894  -20.6145  -12.4660 C   0  0  1  0  0  0  0  0  0  0  0  0
   18.4160  -19.8034  -12.5852 C   0  0  0  0  0  0  0  0  0  0  0  0
   17.5112  -20.1572  -13.6965 C   0  0  0  0  0  0  0  0  0  0  0  0
   16.7914  -21.4630  -13.3155 C   0  0  0  0  0  0  0  0  0  0  0  0
   15.8750  -21.9621  -14.3779 C   0  0  0  0  0  0  0  0  0  0  0  0
   15.2828  -23.2074  -13.8458 N   0  0  0  0  0  0  0  0  0  0  0  0
   20.7883  -20.0082  -13.2421 C   0  0  0  0  0  0  0  0  0  0  0  0
   21.4375  -19.0621  -12.7167 O   0  0  0  0  0  0  0  0  0  0  0  0
   24.0720  -21.1798  -14.4790 C   0  0  0  0  0  0  0  0  0  0  0  0
   23.2994  -20.6716  -15.6782 C   0  0  1  0  0  0  0  0  0  0  0  0
   22.7165  -21.7798  -16.2908 O   0  0  0  0  0  0  0  0  0  0  0  0
   22.2577  -19.6895  -15.2132 C   0  0  2  0  0  0  0  0  0  0  0  0
   21.1796  -20.4105  -14.5437 N   0  0  0  0  0  0  0  0  0  0  0  0
   21.7080  -18.9852  -16.3961 C   0  0  0  0  0  0  0  0  0  0  0  0
   20.4974  -19.0695  -16.6862 O   0  0  0  0  0  0  0  0  0  0  0  0
   22.5104  -18.2100  -17.2220 O   0  0  0  0  0  0  0  0  0  0  0  0
  2  1  1  6
  2  5  1  0
  2  3  1  0
  4  3  1  0
  5  6  2  0
  7  8  1  0
  7  5  1  0
  9 10  1  0
  8  9  1  1
 10 11  1  0
 11 12  1  0
 13 12  1  0
 14 15  2  0
 14  8  1  0
 17 16  1  1
 17 19  1  0
 18 17  1  0
 19 20  1  6
 19 21  1  0
 20 14  1  0
 21 22  2  0
 21 23  1  0
M  END
$$$$
