CKT.pdb
     RDKit          3D

 23 22  0  0  1  0  0  0  0  0999 V2000
   28.5067  -20.9076  -16.4149 N   0  0  0  0  0  0  0  0  0  0  0  0
   28.0654  -19.9158  -15.4386 C   0  0  1  0  0  0  0  0  0  0  0  0
   27.7014  -18.6225  -16.1426 C   0  0  0  0  0  0  0  0  0  0  0  0
   27.2717  -17.3067  -15.0053 S   0  0  0  0  0  0  0  0  0  0  0  0
   26.8585  -20.4383  -14.7575 C   0  0  0  0  0  0  0  0  0  0  0  0
   26.0689  -21.1716  -15.4216 O   0  0  0  0  0  0  0  0  0  0  0  0
   26.5243  -20.1797  -13.4202 N   0  0  0  0  0  0  0  0  0  0  0  0
   25.3381  -20.8391  -12.8409 C   0  0  1  0  0  0  0  0  0  0  0  0
   25.5113  -20.6169  -11.3528 C   0  0  0  0  0  0  0  0  0  0  0  0
   24.4262  -21.1103  -10.4824 C   0  0  0  0  0  0  0  0  0  0  0  0
   24.8350  -20.8355   -9.0244 C   0  0  0  0  0  0  0  0  0  0  0  0
   23.8377  -21.3215   -8.0312 C   0  0  0  0  0  0  0  0  0  0  0  0
   24.4215  -21.0384   -6.7033 N   0  0  0  0  0  0  0  0  0  0  0  0
   24.1367  -20.1512  -13.3516 C   0  0  0  0  0  0  0  0  0  0  0  0
   24.0971  -18.8916  -13.2832 O   0  0  0  0  0  0  0  0  0  0  0  0
   22.7991  -19.1972  -16.3795 C   0  0  0  0  0  0  0  0  0  0  0  0
   21.6658  -19.9880  -15.7601 C   0  0  1  0  0  0  0  0  0  0  0  0
   21.7232  -21.2745  -16.2937 O   0  0  0  0  0  0  0  0  0  0  0  0
   21.8366  -20.0052  -14.2646 C   0  0  2  0  0  0  0  0  0  0  0  0
   23.0127  -20.7990  -13.9225 N   0  0  0  0  0  0  0  0  0  0  0  0
   20.6371  -20.6297  -13.6573 C   0  0  0  0  0  0  0  0  0  0  0  0
   20.7290  -21.6854  -12.9984 O   0  0  0  0  0  0  0  0  0  0  0  0
   19.3741  -20.0706  -13.7954 O   0  0  0  0  0  0  0  0  0  0  0  0
  2  1  1  6
  2  5  1  0
  2  3  1  0
  4  3  1  0
  5  6  2  0
  7  8  1  0
  7  5  1  0
  9 10  1  0
  8  9  1  1
 10 11  1  0
 11 12  1  0
 13 12  1  0
 14 15  2  0
 14  8  1  0
 17 16  1  6
 17 19  1  0
 18 17  1  0
 19 20  1  6
 19 21  1  0
 20 14  1  0
 21 22  2  0
 21 23  1  0
M  END
$$$$
