CKT.pdb
     RDKit          3D

 23 22  0  0  1  0  0  0  0  0999 V2000
   26.8651  -19.8320   -9.1672 N   0  0  0  0  0  0  0  0  0  0  0  0
   25.9530  -20.8525   -9.6754 C   0  0  1  0  0  0  0  0  0  0  0  0
   24.7122  -20.9175   -8.8052 C   0  0  0  0  0  0  0  0  0  0  0  0
   25.0623  -21.4485   -7.1305 S   0  0  0  0  0  0  0  0  0  0  0  0
   25.5475  -20.4723  -11.0481 C   0  0  0  0  0  0  0  0  0  0  0  0
   25.2035  -19.2724  -11.2579 O   0  0  0  0  0  0  0  0  0  0  0  0
   25.5178  -21.3502  -12.1414 N   0  0  0  0  0  0  0  0  0  0  0  0
   25.1381  -20.8258  -13.4674 C   0  0  1  0  0  0  0  0  0  0  0  0
   26.2429  -21.3348  -14.3697 C   0  0  0  0  0  0  0  0  0  0  0  0
   26.1213  -21.0140  -15.8053 C   0  0  0  0  0  0  0  0  0  0  0  0
   27.3273  -21.6399  -16.5278 C   0  0  0  0  0  0  0  0  0  0  0  0
   27.3392  -21.3743  -17.9930 C   0  0  0  0  0  0  0  0  0  0  0  0
   28.5034  -22.1123  -18.5263 N   0  0  0  0  0  0  0  0  0  0  0  0
   23.8328  -21.4085  -13.8336 C   0  0  0  0  0  0  0  0  0  0  0  0
   23.6631  -22.6468  -13.6589 O   0  0  0  0  0  0  0  0  0  0  0  0
   20.3853  -21.1867  -12.5486 C   0  0  0  0  0  0  0  0  0  0  0  0
   20.3519  -20.7705  -14.0043 C   0  0  1  0  0  0  0  0  0  0  0  0
   20.4209  -19.3785  -14.0350 O   0  0  0  0  0  0  0  0  0  0  0  0
   21.5186  -21.3944  -14.7222 C   0  0  2  0  0  0  0  0  0  0  0  0
   22.7410  -20.6798  -14.3683 N   0  0  0  0  0  0  0  0  0  0  0  0
   21.2945  -21.2774  -16.1829 C   0  0  0  0  0  0  0  0  0  0  0  0
   22.0211  -20.5458  -16.8856 O   0  0  0  0  0  0  0  0  0  0  0  0
   20.2764  -21.9707  -16.8229 O   0  0  0  0  0  0  0  0  0  0  0  0
  2  1  1  1
  2  5  1  0
  2  3  1  0
  4  3  1  0
  5  6  2  0
  7  8  1  0
  7  5  1  0
  9 10  1  0
  8  9  1  6
 10 11  1  0
 11 12  1  0
 13 12  1  0
 14 15  2  0
 14  8  1  0
 17 16  1  1
 17 19  1  0
 18 17  1  0
 19 20  1  6
 19 21  1  0
 20 14  1  0
 21 22  2  0
 21 23  1  0
M  END
$$$$
