CKT.pdb
     RDKit          3D

 23 22  0  0  1  0  0  0  0  0999 V2000
   26.5943  -22.0141  -13.8318 N   0  0  0  0  0  0  0  0  0  0  0  0
   25.9422  -20.7899  -13.3760 C   0  0  1  0  0  0  0  0  0  0  0  0
   26.8250  -19.5923  -13.6713 C   0  0  0  0  0  0  0  0  0  0  0  0
   28.3572  -19.6099  -12.7431 S   0  0  0  0  0  0  0  0  0  0  0  0
   24.6714  -20.6348  -14.1206 C   0  0  0  0  0  0  0  0  0  0  0  0
   24.6586  -20.9395  -15.3491 O   0  0  0  0  0  0  0  0  0  0  0  0
   23.4716  -20.1729  -13.5603 N   0  0  0  0  0  0  0  0  0  0  0  0
   22.2671  -20.1047  -14.4099 C   0  0  1  0  0  0  0  0  0  0  0  0
   21.1510  -20.4821  -13.4582 C   0  0  0  0  0  0  0  0  0  0  0  0
   20.9130  -21.9255  -13.2612 C   0  0  0  0  0  0  0  0  0  0  0  0
   19.6918  -22.0759  -12.3370 C   0  0  0  0  0  0  0  0  0  0  0  0
   19.2495  -23.4880  -12.1701 C   0  0  0  0  0  0  0  0  0  0  0  0
   18.0326  -23.4322  -11.3332 N   0  0  0  0  0  0  0  0  0  0  0  0
   22.1212  -18.7159  -14.8867 C   0  0  0  0  0  0  0  0  0  0  0  0
   22.0267  -17.7974  -14.0264 O   0  0  0  0  0  0  0  0  0  0  0  0
   24.2429  -16.3070  -16.0536 C   0  0  0  0  0  0  0  0  0  0  0  0
   23.2027  -16.3828  -17.1516 C   0  0  1  0  0  0  0  0  0  0  0  0
   23.7073  -17.2295  -18.1374 O   0  0  0  0  0  0  0  0  0  0  0  0
   21.9169  -16.9137  -16.5767 C   0  0  2  0  0  0  0  0  0  0  0  0
   22.0819  -18.3264  -16.2490 N   0  0  0  0  0  0  0  0  0  0  0  0
   20.8485  -16.7740  -17.5948 C   0  0  0  0  0  0  0  0  0  0  0  0
   20.2998  -17.7797  -18.0892 O   0  0  0  0  0  0  0  0  0  0  0  0
   20.4188  -15.5300  -18.0358 O   0  0  0  0  0  0  0  0  0  0  0  0
  2  1  1  6
  2  5  1  0
  2  3  1  0
  4  3  1  0
  5  6  2  0
  7  8  1  0
  7  5  1  0
  9 10  1  0
  8  9  1  1
 10 11  1  0
 11 12  1  0
 13 12  1  0
 14 15  2  0
 14  8  1  0
 17 16  1  1
 17 19  1  0
 18 17  1  0
 19 20  1  6
 19 21  1  0
 20 14  1  0
 21 22  2  0
 21 23  1  0
M  END
$$$$
