CKT.pdb
     RDKit          3D

 23 22  0  0  1  0  0  0  0  0999 V2000
   25.1570  -14.6062  -17.3185 N   0  0  0  0  0  0  0  0  0  0  0  0
   24.7796  -13.8857  -16.1060 C   0  0  1  0  0  0  0  0  0  0  0  0
   25.9608  -13.0860  -15.5901 C   0  0  0  0  0  0  0  0  0  0  0  0
   27.3026  -14.1208  -15.0087 S   0  0  0  0  0  0  0  0  0  0  0  0
   23.6854  -12.9467  -16.4443 C   0  0  0  0  0  0  0  0  0  0  0  0
   23.6968  -12.4043  -17.5880 O   0  0  0  0  0  0  0  0  0  0  0  0
   22.6286  -12.6128  -15.5849 N   0  0  0  0  0  0  0  0  0  0  0  0
   21.5750  -11.7009  -16.0705 C   0  0  1  0  0  0  0  0  0  0  0  0
   20.3020  -12.3354  -15.5502 C   0  0  0  0  0  0  0  0  0  0  0  0
   19.0459  -11.6083  -15.8191 C   0  0  0  0  0  0  0  0  0  0  0  0
   17.8839  -12.4775  -15.3065 C   0  0  0  0  0  0  0  0  0  0  0  0
   16.5439  -11.8816  -15.5651 C   0  0  0  0  0  0  0  0  0  0  0  0
   15.5617  -12.8821  -15.0974 N   0  0  0  0  0  0  0  0  0  0  0  0
   21.8021  -10.3748  -15.4644 C   0  0  0  0  0  0  0  0  0  0  0  0
   22.2514  -10.3274  -14.2861 O   0  0  0  0  0  0  0  0  0  0  0  0
   24.0855   -7.6080  -16.4064 C   0  0  0  0  0  0  0  0  0  0  0  0
   22.6991   -7.0117  -16.2807 C   0  0  1  0  0  0  0  0  0  0  0  0
   22.1703   -6.9269  -17.5677 O   0  0  0  0  0  0  0  0  0  0  0  0
   21.8598   -7.8973  -15.3991 C   0  0  2  0  0  0  0  0  0  0  0  0
   21.5566   -9.1363  -16.1085 N   0  0  0  0  0  0  0  0  0  0  0  0
   20.5923   -7.1939  -15.0890 C   0  0  0  0  0  0  0  0  0  0  0  0
   19.5012   -7.6215  -15.5175 O   0  0  0  0  0  0  0  0  0  0  0  0
   20.5676   -6.0411  -14.3161 O   0  0  0  0  0  0  0  0  0  0  0  0
  2  1  1  6
  2  5  1  0
  2  3  1  0
  4  3  1  0
  5  6  2  0
  7  8  1  0
  7  5  1  0
  9 10  1  0
  8  9  1  1
 10 11  1  0
 11 12  1  0
 13 12  1  0
 14 15  2  0
 14  8  1  0
 17 16  1  6
 17 19  1  0
 18 17  1  0
 19 20  1  6
 19 21  1  0
 20 14  1  0
 21 22  2  0
 21 23  1  0
M  END
$$$$
