CKT.pdb
     RDKit          3D

 23 22  0  0  1  0  0  0  0  0999 V2000
   27.2909  -20.3835  -11.2151 N   0  0  0  0  0  0  0  0  0  0  0  0
   26.1384  -21.2683  -11.0718 C   0  0  1  0  0  0  0  0  0  0  0  0
   25.1099  -20.6345  -10.1545 C   0  0  0  0  0  0  0  0  0  0  0  0
   25.6995  -20.4418   -8.4738 S   0  0  0  0  0  0  0  0  0  0  0  0
   25.5273  -21.4565  -12.4076 C   0  0  0  0  0  0  0  0  0  0  0  0
   25.3759  -20.4378  -13.1435 O   0  0  0  0  0  0  0  0  0  0  0  0
   25.1021  -22.6900  -12.9220 N   0  0  0  0  0  0  0  0  0  0  0  0
   24.7024  -22.7721  -14.3400 C   0  0  1  0  0  0  0  0  0  0  0  0
   25.0820  -24.1868  -14.7248 C   0  0  0  0  0  0  0  0  0  0  0  0
   24.7382  -24.6114  -16.0961 C   0  0  0  0  0  0  0  0  0  0  0  0
   25.1622  -26.0827  -16.2499 C   0  0  0  0  0  0  0  0  0  0  0  0
   24.9279  -26.6235  -17.6175 C   0  0  0  0  0  0  0  0  0  0  0  0
   25.4478  -28.0069  -17.5976 N   0  0  0  0  0  0  0  0  0  0  0  0
   23.2432  -22.5666  -14.4170 C   0  0  0  0  0  0  0  0  0  0  0  0
   22.5298  -22.9992  -13.4701 O   0  0  0  0  0  0  0  0  0  0  0  0
   21.0153  -19.5874  -14.2664 C   0  0  0  0  0  0  0  0  0  0  0  0
   20.7645  -20.3073  -15.5750 C   0  0  1  0  0  0  0  0  0  0  0  0
   21.5592  -19.6920  -16.5410 O   0  0  0  0  0  0  0  0  0  0  0  0
   21.1213  -21.7608  -15.4141 C   0  0  2  0  0  0  0  0  0  0  0  0
   22.5716  -21.9116  -15.4796 N   0  0  0  0  0  0  0  0  0  0  0  0
   20.5040  -22.5264  -16.5233 C   0  0  0  0  0  0  0  0  0  0  0  0
   21.2109  -23.0961  -17.3793 O   0  0  0  0  0  0  0  0  0  0  0  0
   19.1267  -22.6400  -16.6537 O   0  0  0  0  0  0  0  0  0  0  0  0
  2  1  1  6
  2  5  1  0
  2  3  1  0
  4  3  1  0
  5  6  2  0
  7  8  1  0
  7  5  1  0
  9 10  1  0
  8  9  1  1
 10 11  1  0
 11 12  1  0
 13 12  1  0
 14 15  2  0
 14  8  1  0
 17 16  1  1
 17 19  1  0
 18 17  1  0
 19 20  1  6
 19 21  1  0
 20 14  1  0
 21 22  2  0
 21 23  1  0
M  END
$$$$
