GSY.pdb
     RDKit          3D

 23 23  0  0  1  0  0  0  0  0999 V2000
   15.5038  -10.4540  -15.7153 N   0  0  0  0  0  0  0  0  0  0  0  0
   15.4829   -9.0268  -15.6157 C   0  0  0  0  0  0  0  0  0  0  0  0
   16.7625   -8.4569  -16.0904 C   0  0  0  0  0  0  0  0  0  0  0  0
   17.8260   -9.1135  -15.8312 O   0  0  0  0  0  0  0  0  0  0  0  0
   17.4232   -6.0135  -19.3826 O   0  0  0  0  0  0  0  0  0  0  0  0
   18.0471   -5.6324  -18.2189 C   0  0  0  0  0  0  0  0  0  0  0  0
   18.1384   -6.7544  -17.2078 C   0  0  2  0  0  0  0  0  0  0  0  0
   16.8420   -7.2336  -16.8070 N   0  0  0  0  0  0  0  0  0  0  0  0
   18.8234   -6.1681  -16.0005 C   0  0  0  0  0  0  0  0  0  0  0  0
   18.1325   -5.5933  -15.1128 O   0  0  0  0  0  0  0  0  0  0  0  0
   24.7159  -10.2696  -16.8835 O   0  0  0  0  0  0  0  0  0  0  0  0
   23.8864   -9.4317  -16.1316 C   0  0  0  0  0  0  0  0  0  0  0  0
   24.3156   -8.1673  -15.8113 C   0  0  0  0  0  0  0  0  0  0  0  0
   23.5183   -7.3268  -15.0740 C   0  0  0  0  0  0  0  0  0  0  0  0
   22.2628   -7.6936  -14.6192 C   0  0  0  0  0  0  0  0  0  0  0  0
   21.4225   -6.7947  -13.8293 C   0  0  0  0  0  0  0  0  0  0  0  0
   20.8321   -5.6704  -14.6596 C   0  0  2  0  0  0  0  0  0  0  0  0
   20.2295   -6.2472  -15.8377 N   0  0  0  0  0  0  0  0  0  0  0  0
   21.8309   -4.6765  -15.0913 C   0  0  0  0  0  0  0  0  0  0  0  0
   22.5120   -4.0275  -14.2786 O   0  0  0  0  0  0  0  0  0  0  0  0
   21.8455   -8.9717  -14.9507 C   0  0  0  0  0  0  0  0  0  0  0  0
   22.6472   -9.8290  -15.6972 C   0  0  0  0  0  0  0  0  0  0  0  0
   22.0463   -4.4295  -16.4386 O   0  0  0  0  0  0  0  0  0  0  0  0
  2  1  1  0
  3  2  1  0
  3  4  2  0
  5  6  1  0
  7  6  1  6
  7  9  1  0
  8  7  1  0
  8  3  1  0
  9 18  1  0
  9 10  2  0
 12 11  1  0
 12 22  2  0
 13 12  1  0
 14 13  2  0
 14 15  1  0
 15 21  2  0
 16 15  1  0
 17 16  1  6
 18 17  1  0
 19 17  1  0
 20 19  2  0
 21 22  1  0
 23 19  1  0
M  END
$$$$
