GSY.pdb
     RDKit          3D

 23 23  0  0  1  0  0  0  0  0999 V2000
   15.9060  -11.2458  -15.8879 N   0  0  0  0  0  0  0  0  0  0  0  0
   15.5063   -9.8737  -15.9567 C   0  0  0  0  0  0  0  0  0  0  0  0
   16.6753   -9.0078  -16.2236 C   0  0  0  0  0  0  0  0  0  0  0  0
   17.8141   -9.5767  -16.3168 O   0  0  0  0  0  0  0  0  0  0  0  0
   16.7044   -5.3525  -18.1224 O   0  0  0  0  0  0  0  0  0  0  0  0
   17.4967   -5.4173  -17.0014 C   0  0  0  0  0  0  0  0  0  0  0  0
   17.7785   -6.8381  -16.5638 C   0  0  2  0  0  0  0  0  0  0  0  0
   16.5721   -7.5997  -16.3755 N   0  0  0  0  0  0  0  0  0  0  0  0
   18.4849   -6.7296  -15.2371 C   0  0  0  0  0  0  0  0  0  0  0  0
   17.8044   -6.6688  -14.1746 O   0  0  0  0  0  0  0  0  0  0  0  0
   24.2259  -10.9886  -16.9016 O   0  0  0  0  0  0  0  0  0  0  0  0
   23.3777  -10.2890  -16.0375 C   0  0  0  0  0  0  0  0  0  0  0  0
   22.0183  -10.3701  -16.2134 C   0  0  0  0  0  0  0  0  0  0  0  0
   21.1658   -9.6920  -15.3772 C   0  0  0  0  0  0  0  0  0  0  0  0
   21.6138   -8.9037  -14.3305 C   0  0  0  0  0  0  0  0  0  0  0  0
   20.6995   -8.1798  -13.4483 C   0  0  0  0  0  0  0  0  0  0  0  0
   20.5265   -6.7282  -13.8542 C   0  0  2  0  0  0  0  0  0  0  0  0
   19.8997   -6.6941  -15.1542 N   0  0  0  0  0  0  0  0  0  0  0  0
   21.7987   -5.9887  -13.9356 C   0  0  0  0  0  0  0  0  0  0  0  0
   22.5212   -5.8045  -12.9408 O   0  0  0  0  0  0  0  0  0  0  0  0
   22.9871   -8.8327  -14.1673 C   0  0  0  0  0  0  0  0  0  0  0  0
   23.8571   -9.5167  -15.0100 C   0  0  0  0  0  0  0  0  0  0  0  0
   22.2374   -5.4667  -15.1429 O   0  0  0  0  0  0  0  0  0  0  0  0
  2  1  1  0
  3  2  1  0
  3  4  2  0
  5  6  1  0
  7  6  1  1
  7  9  1  0
  8  7  1  0
  8  3  1  0
  9 18  1  0
  9 10  2  0
 12 11  1  0
 12 22  2  0
 13 12  1  0
 14 13  2  0
 14 15  1  0
 15 21  2  0
 16 15  1  0
 17 16  1  6
 18 17  1  0
 19 17  1  0
 20 19  2  0
 21 22  1  0
 23 19  1  0
M  END
$$$$
