GSY.pdb
     RDKit          3D

 23 23  0  0  1  0  0  0  0  0999 V2000
   17.1734  -13.2388  -15.0354 N   0  0  0  0  0  0  0  0  0  0  0  0
   16.5892  -11.9556  -15.2785 C   0  0  0  0  0  0  0  0  0  0  0  0
   17.6358  -10.9675  -15.6189 C   0  0  0  0  0  0  0  0  0  0  0  0
   18.8297  -11.2321  -15.2528 O   0  0  0  0  0  0  0  0  0  0  0  0
   16.8755   -7.3444  -17.5929 O   0  0  0  0  0  0  0  0  0  0  0  0
   18.1098   -7.9254  -17.7585 C   0  0  0  0  0  0  0  0  0  0  0  0
   18.4570   -8.8919  -16.6473 C   0  0  2  0  0  0  0  0  0  0  0  0
   17.3604   -9.7651  -16.3221 N   0  0  0  0  0  0  0  0  0  0  0  0
   18.7628   -8.0423  -15.4410 C   0  0  0  0  0  0  0  0  0  0  0  0
   17.8793   -7.8856  -14.5519 O   0  0  0  0  0  0  0  0  0  0  0  0
   25.7173   -5.7021  -17.3459 O   0  0  0  0  0  0  0  0  0  0  0  0
   24.7194   -5.9911  -16.4098 C   0  0  0  0  0  0  0  0  0  0  0  0
   24.2136   -7.2654  -16.3337 C   0  0  0  0  0  0  0  0  0  0  0  0
   23.2334   -7.5727  -15.4224 C   0  0  0  0  0  0  0  0  0  0  0  0
   22.7074   -6.6390  -14.5453 C   0  0  0  0  0  0  0  0  0  0  0  0
   21.6593   -6.9729  -13.5819 C   0  0  0  0  0  0  0  0  0  0  0  0
   20.2711   -6.6334  -14.0914 C   0  0  2  0  0  0  0  0  0  0  0  0
   20.0231   -7.4130  -15.2808 N   0  0  0  0  0  0  0  0  0  0  0  0
   20.1053   -5.2088  -14.4302 C   0  0  0  0  0  0  0  0  0  0  0  0
   19.9189   -4.8242  -15.5977 O   0  0  0  0  0  0  0  0  0  0  0  0
   23.2283   -5.3591  -14.6355 C   0  0  0  0  0  0  0  0  0  0  0  0
   24.2213   -5.0400  -15.5558 C   0  0  0  0  0  0  0  0  0  0  0  0
   20.1525   -4.2368  -13.4426 O   0  0  0  0  0  0  0  0  0  0  0  0
  2  1  1  0
  3  2  1  0
  3  4  2  0
  5  6  1  0
  7  6  1  6
  7  9  1  0
  8  7  1  0
  8  3  1  0
  9 18  1  0
  9 10  2  0
 12 11  1  0
 12 22  2  0
 13 12  1  0
 14 13  2  0
 14 15  1  0
 15 21  2  0
 16 15  1  0
 17 16  1  6
 18 17  1  0
 19 17  1  0
 20 19  2  0
 21 22  1  0
 23 19  1  0
M  END
$$$$
