GSY.pdb
     RDKit          3D

 23 23  0  0  1  0  0  0  0  0999 V2000
   17.0849  -14.3326  -16.4066 N   0  0  0  0  0  0  0  0  0  0  0  0
   16.6065  -13.0289  -16.0620 C   0  0  0  0  0  0  0  0  0  0  0  0
   17.6217  -12.0035  -16.3868 C   0  0  0  0  0  0  0  0  0  0  0  0
   18.8466  -12.3597  -16.3417 O   0  0  0  0  0  0  0  0  0  0  0  0
   16.9805   -8.7033  -18.7389 O   0  0  0  0  0  0  0  0  0  0  0  0
   17.8310   -8.4752  -17.6839 C   0  0  0  0  0  0  0  0  0  0  0  0
   18.3462   -9.7533  -17.0590 C   0  0  2  0  0  0  0  0  0  0  0  0
   17.2841  -10.6697  -16.7382 N   0  0  0  0  0  0  0  0  0  0  0  0
   19.0240   -9.3427  -15.7772 C   0  0  0  0  0  0  0  0  0  0  0  0
   18.4591   -9.5802  -14.6726 O   0  0  0  0  0  0  0  0  0  0  0  0
   26.0195  -11.4972  -16.9008 O   0  0  0  0  0  0  0  0  0  0  0  0
   24.8932  -11.0569  -16.1986 C   0  0  0  0  0  0  0  0  0  0  0  0
   25.0526  -10.4614  -14.9716 C   0  0  0  0  0  0  0  0  0  0  0  0
   23.9614  -10.0211  -14.2638 C   0  0  0  0  0  0  0  0  0  0  0  0
   22.6643  -10.1475  -14.7324 C   0  0  0  0  0  0  0  0  0  0  0  0
   21.5071   -9.6815  -13.9696 C   0  0  0  0  0  0  0  0  0  0  0  0
   20.9245   -8.3950  -14.5240 C   0  0  2  0  0  0  0  0  0  0  0  0
   20.2847   -8.6943  -15.7829 N   0  0  0  0  0  0  0  0  0  0  0  0
   21.9357   -7.3486  -14.7573 C   0  0  0  0  0  0  0  0  0  0  0  0
   22.6274   -6.8804  -13.8365 O   0  0  0  0  0  0  0  0  0  0  0  0
   22.5214  -10.7503  -15.9709 C   0  0  0  0  0  0  0  0  0  0  0  0
   23.6218  -11.1988  -16.6940 C   0  0  0  0  0  0  0  0  0  0  0  0
   22.1515   -6.8450  -16.0310 O   0  0  0  0  0  0  0  0  0  0  0  0
  2  1  1  0
  3  2  1  0
  3  4  2  0
  5  6  1  0
  7  6  1  1
  7  9  1  0
  8  7  1  0
  8  3  1  0
  9 18  1  0
  9 10  2  0
 12 11  1  0
 12 22  2  0
 13 12  1  0
 14 13  2  0
 14 15  1  0
 15 21  2  0
 16 15  1  0
 17 16  1  6
 18 17  1  0
 19 17  1  0
 20 19  2  0
 21 22  1  0
 23 19  1  0
M  END
$$$$
