GSY.pdb
     RDKit          3D

 23 23  0  0  1  0  0  0  0  0999 V2000
   27.8744  -26.9491  -16.4258 N   0  0  0  0  0  0  0  0  0  0  0  0
   26.5676  -26.4666  -16.7527 C   0  0  0  0  0  0  0  0  0  0  0  0
   26.4390  -25.0381  -16.3916 C   0  0  0  0  0  0  0  0  0  0  0  0
   27.4930  -24.4401  -15.9905 O   0  0  0  0  0  0  0  0  0  0  0  0
   24.0569  -20.8531  -16.6840 O   0  0  0  0  0  0  0  0  0  0  0  0
   24.0704  -22.2066  -16.9216 C   0  0  0  0  0  0  0  0  0  0  0  0
   25.2168  -22.9120  -16.2304 C   0  0  2  0  0  0  0  0  0  0  0  0
   25.2110  -24.3301  -16.4752 N   0  0  0  0  0  0  0  0  0  0  0  0
   25.0137  -22.6829  -14.7549 C   0  0  0  0  0  0  0  0  0  0  0  0
   24.1127  -23.3249  -14.1452 O   0  0  0  0  0  0  0  0  0  0  0  0
   26.0958  -19.7940   -6.4841 O   0  0  0  0  0  0  0  0  0  0  0  0
   26.2654  -20.0874   -7.8408 C   0  0  0  0  0  0  0  0  0  0  0  0
   26.2737  -19.0646   -8.7570 C   0  0  0  0  0  0  0  0  0  0  0  0
   26.4387  -19.3285  -10.0944 C   0  0  0  0  0  0  0  0  0  0  0  0
   26.6029  -20.6113  -10.5897 C   0  0  0  0  0  0  0  0  0  0  0  0
   26.7719  -20.8845  -12.0162 C   0  0  0  0  0  0  0  0  0  0  0  0
   25.5613  -21.5665  -12.6255 C   0  0  2  0  0  0  0  0  0  0  0  0
   25.8131  -21.7606  -14.0336 N   0  0  0  0  0  0  0  0  0  0  0  0
   24.3182  -20.7882  -12.4817 C   0  0  0  0  0  0  0  0  0  0  0  0
   24.0508  -19.8265  -13.2228 O   0  0  0  0  0  0  0  0  0  0  0  0
   26.5919  -21.6308   -9.6526 C   0  0  0  0  0  0  0  0  0  0  0  0
   26.4253  -21.3716   -8.2961 C   0  0  0  0  0  0  0  0  0  0  0  0
   23.3928  -21.1084  -11.5001 O   0  0  0  0  0  0  0  0  0  0  0  0
  2  1  1  0
  3  2  1  0
  3  4  2  0
  5  6  1  0
  7  6  1  6
  7  9  1  0
  8  7  1  0
  8  3  1  0
  9 18  1  0
  9 10  2  0
 12 11  1  0
 12 22  2  0
 13 12  1  0
 14 13  2  0
 14 15  1  0
 15 21  2  0
 16 15  1  0
 17 16  1  6
 18 17  1  0
 19 17  1  0
 20 19  2  0
 21 22  1  0
 23 19  1  0
M  END
$$$$
