LGY.pdb
     RDKit          3D

 25 25  0  0  1  0  0  0  0  0999 V2000
   26.9688  -17.6458  -16.5502 C   0  0  0  0  0  0  0  0  0  0  0  0
   26.4011  -16.2549  -16.4286 C   0  0  2  0  0  0  0  0  0  0  0  0
   27.4711  -15.3002  -15.9752 C   0  0  0  0  0  0  0  0  0  0  0  0
   25.1166  -16.1598  -15.6938 C   0  0  0  0  0  0  0  0  0  0  0  0
   24.0338  -17.0924  -16.1101 C   0  0  2  0  0  0  0  0  0  0  0  0
   23.8826  -17.2545  -17.5209 N   0  0  0  0  0  0  0  0  0  0  0  0
   22.7048  -16.7963  -15.5120 C   0  0  0  0  0  0  0  0  0  0  0  0
   22.5718  -16.6572  -14.2493 O   0  0  0  0  0  0  0  0  0  0  0  0
   21.5147  -16.6511  -16.2843 N   0  0  0  0  0  0  0  0  0  0  0  0
   20.2427  -16.2935  -15.7590 C   0  0  0  0  0  0  0  0  0  0  0  0
   19.1768  -17.3057  -15.9049 C   0  0  0  0  0  0  0  0  0  0  0  0
   18.0678  -17.0082  -15.3863 O   0  0  0  0  0  0  0  0  0  0  0  0
   20.7499  -18.2481  -22.5067 O   0  0  0  0  0  0  0  0  0  0  0  0
   19.9627  -18.5912  -21.4074 C   0  0  0  0  0  0  0  0  0  0  0  0
   19.8895  -19.8760  -20.9451 C   0  0  0  0  0  0  0  0  0  0  0  0
   19.0998  -20.1751  -19.8553 C   0  0  0  0  0  0  0  0  0  0  0  0
   18.3549  -19.2324  -19.1789 C   0  0  0  0  0  0  0  0  0  0  0  0
   17.4978  -19.5239  -17.9992 C   0  0  0  0  0  0  0  0  0  0  0  0
   18.2057  -19.4976  -16.7019 C   0  0  2  0  0  0  0  0  0  0  0  0
   19.2565  -18.5440  -16.5483 N   0  0  0  0  0  0  0  0  0  0  0  0
   18.7384  -20.8550  -16.4324 C   0  0  0  0  0  0  0  0  0  0  0  0
   17.9172  -21.8073  -16.4243 O   0  0  0  0  0  0  0  0  0  0  0  0
   18.4590  -17.9303  -19.6856 C   0  0  0  0  0  0  0  0  0  0  0  0
   19.2372  -17.6171  -20.7649 C   0  0  0  0  0  0  0  0  0  0  0  0
   20.0705  -21.1127  -16.1947 O   0  0  0  0  0  0  0  0  0  0  0  0
  2  1  1  1
  2  4  1  0
  3  2  1  0
  4  5  1  0
  5  6  1  6
  7  8  2  0
  7  5  1  0
  9  7  1  0
 10  9  1  0
 11 10  1  0
 11 20  1  0
 12 11  2  0
 13 14  1  0
 14 15  2  0
 15 16  1  0
 17 16  2  0
 17 18  1  0
 19 18  1  6
 19 20  1  0
 19 21  1  0
 21 25  1  0
 22 21  2  0
 23 17  1  0
 24 14  1  0
 24 23  2  0
M  END
$$$$
