LGY.pdb
     RDKit          3D

 25 25  0  0  1  0  0  0  0  0999 V2000
   29.9895  -20.4319   -5.5526 C   0  0  0  0  0  0  0  0  0  0  0  0
   29.0207  -19.3493   -5.9535 C   0  0  2  0  0  0  0  0  0  0  0  0
   29.0122  -18.2575   -4.9192 C   0  0  0  0  0  0  0  0  0  0  0  0
   27.6829  -19.8261   -6.3801 C   0  0  0  0  0  0  0  0  0  0  0  0
   27.6324  -20.6910   -7.5904 C   0  0  2  0  0  0  0  0  0  0  0  0
   28.6601  -20.4485   -8.5520 N   0  0  0  0  0  0  0  0  0  0  0  0
   26.3160  -20.7032   -8.2820 C   0  0  0  0  0  0  0  0  0  0  0  0
   25.3098  -20.0937   -7.7844 O   0  0  0  0  0  0  0  0  0  0  0  0
   26.0878  -21.3787   -9.5171 N   0  0  0  0  0  0  0  0  0  0  0  0
   24.8135  -21.5619  -10.1207 C   0  0  0  0  0  0  0  0  0  0  0  0
   24.5459  -20.7461  -11.3228 C   0  0  0  0  0  0  0  0  0  0  0  0
   25.4483  -19.9247  -11.6362 O   0  0  0  0  0  0  0  0  0  0  0  0
   23.7734  -26.2753  -15.2865 O   0  0  0  0  0  0  0  0  0  0  0  0
   23.8045  -24.8908  -15.1194 C   0  0  0  0  0  0  0  0  0  0  0  0
   22.7550  -24.0957  -15.4883 C   0  0  0  0  0  0  0  0  0  0  0  0
   22.8240  -22.7308  -15.3070 C   0  0  0  0  0  0  0  0  0  0  0  0
   23.9180  -22.0943  -14.7599 C   0  0  0  0  0  0  0  0  0  0  0  0
   24.0199  -20.6260  -14.5485 C   0  0  0  0  0  0  0  0  0  0  0  0
   23.2481  -20.1144  -13.3963 C   0  0  2  0  0  0  0  0  0  0  0  0
   23.4171  -20.7823  -12.1463 N   0  0  0  0  0  0  0  0  0  0  0  0
   21.8101  -20.1176  -13.7582 C   0  0  0  0  0  0  0  0  0  0  0  0
   21.0322  -20.7856  -13.0302 O   0  0  0  0  0  0  0  0  0  0  0  0
   24.9695  -22.9459  -14.3965 C   0  0  0  0  0  0  0  0  0  0  0  0
   24.9169  -24.3009  -14.5696 C   0  0  0  0  0  0  0  0  0  0  0  0
   21.2992  -19.4324  -14.8384 O   0  0  0  0  0  0  0  0  0  0  0  0
  2  1  1  1
  2  4  1  0
  3  2  1  0
  4  5  1  0
  5  6  1  6
  7  8  2  0
  7  5  1  0
  9  7  1  0
 10  9  1  0
 11 10  1  0
 11 20  1  0
 12 11  2  0
 13 14  1  0
 14 15  2  0
 15 16  1  0
 17 16  2  0
 17 18  1  0
 19 18  1  6
 19 20  1  0
 19 21  1  0
 21 25  1  0
 22 21  2  0
 23 17  1  0
 24 14  1  0
 24 23  2  0
M  END
$$$$
