LGY.pdb
     RDKit          3D

 25 25  0  0  1  0  0  0  0  0999 V2000
   24.5689  -14.2642  -17.3801 C   0  0  0  0  0  0  0  0  0  0  0  0
   25.9126  -14.0031  -16.7494 C   0  0  2  0  0  0  0  0  0  0  0  0
   26.6593  -12.9646  -17.5405 C   0  0  0  0  0  0  0  0  0  0  0  0
   26.6931  -15.2154  -16.4026 C   0  0  0  0  0  0  0  0  0  0  0  0
   25.9771  -16.2838  -15.6533 C   0  0  2  0  0  0  0  0  0  0  0  0
   25.4867  -15.8986  -14.3686 N   0  0  0  0  0  0  0  0  0  0  0  0
   26.7372  -17.5550  -15.5198 C   0  0  0  0  0  0  0  0  0  0  0  0
   26.9287  -18.3121  -16.5305 O   0  0  0  0  0  0  0  0  0  0  0  0
   27.2915  -18.0086  -14.2866 N   0  0  0  0  0  0  0  0  0  0  0  0
   28.1171  -19.1570  -14.1395 C   0  0  0  0  0  0  0  0  0  0  0  0
   27.4383  -20.3844  -13.6761 C   0  0  0  0  0  0  0  0  0  0  0  0
   27.9267  -21.4682  -14.0933 O   0  0  0  0  0  0  0  0  0  0  0  0
   27.3931  -18.8263   -6.9045 O   0  0  0  0  0  0  0  0  0  0  0  0
   27.1234  -19.6927   -7.9640 C   0  0  0  0  0  0  0  0  0  0  0  0
   28.1232  -20.2946   -8.6764 C   0  0  0  0  0  0  0  0  0  0  0  0
   27.8158  -21.1449   -9.7171 C   0  0  0  0  0  0  0  0  0  0  0  0
   26.5236  -21.4376  -10.0989 C   0  0  0  0  0  0  0  0  0  0  0  0
   26.1612  -22.3528  -11.2135 C   0  0  0  0  0  0  0  0  0  0  0  0
   25.6610  -21.6758  -12.4286 C   0  0  2  0  0  0  0  0  0  0  0  0
   26.3272  -20.4802  -12.8335 N   0  0  0  0  0  0  0  0  0  0  0  0
   24.2180  -21.3889  -12.2435 C   0  0  0  0  0  0  0  0  0  0  0  0
   23.4606  -22.3640  -12.0046 O   0  0  0  0  0  0  0  0  0  0  0  0
   25.5312  -20.7999   -9.3429 C   0  0  0  0  0  0  0  0  0  0  0  0
   25.8192  -19.9542   -8.3083 C   0  0  0  0  0  0  0  0  0  0  0  0
   23.6813  -20.1227  -12.3207 O   0  0  0  0  0  0  0  0  0  0  0  0
  2  1  1  6
  2  4  1  0
  3  2  1  0
  4  5  1  0
  5  6  1  1
  7  8  2  0
  7  5  1  0
  9  7  1  0
 10  9  1  0
 11 10  1  0
 11 20  1  0
 12 11  2  0
 13 14  1  0
 14 15  2  0
 15 16  1  0
 17 16  2  0
 17 18  1  0
 19 18  1  1
 19 20  1  0
 19 21  1  0
 21 25  1  0
 22 21  2  0
 23 17  1  0
 24 14  1  0
 24 23  2  0
M  END
$$$$
