LGY.pdb
     RDKit          3D

 25 25  0  0  1  0  0  0  0  0999 V2000
   17.2836  -14.4419  -16.0418 C   0  0  0  0  0  0  0  0  0  0  0  0
   18.7424  -14.0666  -16.0931 C   0  0  2  0  0  0  0  0  0  0  0  0
   19.5573  -15.0608  -15.3124 C   0  0  0  0  0  0  0  0  0  0  0  0
   19.0379  -12.6422  -15.8051 C   0  0  0  0  0  0  0  0  0  0  0  0
   18.2416  -11.6274  -16.5477 C   0  0  2  0  0  0  0  0  0  0  0  0
   18.5947  -11.4671  -17.9222 N   0  0  0  0  0  0  0  0  0  0  0  0
   18.1959  -10.2892  -15.9008 C   0  0  0  0  0  0  0  0  0  0  0  0
   17.7189  -10.1470  -14.7244 O   0  0  0  0  0  0  0  0  0  0  0  0
   18.6678   -9.0998  -16.5304 N   0  0  0  0  0  0  0  0  0  0  0  0
   18.7354   -7.8225  -15.9093 C   0  0  0  0  0  0  0  0  0  0  0  0
   19.9435   -7.5616  -15.1004 C   0  0  0  0  0  0  0  0  0  0  0  0
   20.5963   -8.5810  -14.7511 O   0  0  0  0  0  0  0  0  0  0  0  0
   22.5249   -3.2728  -19.9385 O   0  0  0  0  0  0  0  0  0  0  0  0
   22.5920   -3.9626  -18.7280 C   0  0  0  0  0  0  0  0  0  0  0  0
   21.7748   -3.6549  -17.6758 C   0  0  0  0  0  0  0  0  0  0  0  0
   21.8717   -4.3603  -16.4952 C   0  0  0  0  0  0  0  0  0  0  0  0
   22.7681   -5.3896  -16.3000 C   0  0  0  0  0  0  0  0  0  0  0  0
   22.8931   -6.1704  -15.0407 C   0  0  0  0  0  0  0  0  0  0  0  0
   21.7324   -6.0635  -14.1317 C   0  0  2  0  0  0  0  0  0  0  0  0
   20.4422   -6.3242  -14.6835 N   0  0  0  0  0  0  0  0  0  0  0  0
   21.7368   -4.7105  -13.5248 C   0  0  0  0  0  0  0  0  0  0  0  0
   22.7814   -4.3493  -12.9250 O   0  0  0  0  0  0  0  0  0  0  0  0
   23.5852   -5.6713  -17.4027 C   0  0  0  0  0  0  0  0  0  0  0  0
   23.5018   -4.9816  -18.5800 C   0  0  0  0  0  0  0  0  0  0  0  0
   20.6648   -3.8479  -13.5889 O   0  0  0  0  0  0  0  0  0  0  0  0
  2  1  1  1
  2  4  1  0
  3  2  1  0
  4  5  1  0
  5  6  1  6
  7  8  2  0
  7  5  1  0
  9  7  1  0
 10  9  1  0
 11 10  1  0
 11 20  1  0
 12 11  2  0
 13 14  1  0
 14 15  2  0
 15 16  1  0
 17 16  2  0
 17 18  1  0
 19 18  1  6
 19 20  1  0
 19 21  1  0
 21 25  1  0
 22 21  2  0
 23 17  1  0
 24 14  1  0
 24 23  2  0
M  END
$$$$
