LGY.pdb
     RDKit          3D

 25 25  0  0  1  0  0  0  0  0999 V2000
   25.4584  -20.5812  -20.9588 C   0  0  0  0  0  0  0  0  0  0  0  0
   25.1727  -19.1015  -20.9377 C   0  0  2  0  0  0  0  0  0  0  0  0
   26.2228  -18.3634  -21.7216 C   0  0  0  0  0  0  0  0  0  0  0  0
   24.8686  -18.5366  -19.6007 C   0  0  0  0  0  0  0  0  0  0  0  0
   23.9042  -19.2923  -18.7556 C   0  0  2  0  0  0  0  0  0  0  0  0
   22.5722  -19.3575  -19.2665 N   0  0  0  0  0  0  0  0  0  0  0  0
   23.8568  -18.8533  -17.3356 C   0  0  0  0  0  0  0  0  0  0  0  0
   24.9006  -18.9002  -16.6010 O   0  0  0  0  0  0  0  0  0  0  0  0
   22.6740  -18.3622  -16.7081 N   0  0  0  0  0  0  0  0  0  0  0  0
   22.6139  -17.8253  -15.3928 C   0  0  0  0  0  0  0  0  0  0  0  0
   21.8605  -18.6234  -14.4042 C   0  0  0  0  0  0  0  0  0  0  0  0
   20.6075  -18.4978  -14.4431 O   0  0  0  0  0  0  0  0  0  0  0  0
   19.1813  -23.6191   -7.5561 O   0  0  0  0  0  0  0  0  0  0  0  0
   19.9794  -22.9375   -8.4750 C   0  0  0  0  0  0  0  0  0  0  0  0
   20.7480  -21.8674   -8.1093 C   0  0  0  0  0  0  0  0  0  0  0  0
   21.5236  -21.2199   -9.0473 C   0  0  0  0  0  0  0  0  0  0  0  0
   21.5767  -21.5933  -10.3735 C   0  0  0  0  0  0  0  0  0  0  0  0
   22.4058  -20.9174  -11.4065 C   0  0  0  0  0  0  0  0  0  0  0  0
   21.6341  -20.2017  -12.4444 C   0  0  2  0  0  0  0  0  0  0  0  0
   22.3738  -19.4958  -13.4403 N   0  0  0  0  0  0  0  0  0  0  0  0
   20.7055  -19.2615  -11.7715 C   0  0  0  0  0  0  0  0  0  0  0  0
   19.4759  -19.5168  -11.8377 O   0  0  0  0  0  0  0  0  0  0  0  0
   20.7745  -22.6932  -10.7045 C   0  0  0  0  0  0  0  0  0  0  0  0
   19.9999  -23.3461   -9.7867 C   0  0  0  0  0  0  0  0  0  0  0  0
   21.1247  -18.1407  -11.0894 O   0  0  0  0  0  0  0  0  0  0  0  0
  2  1  1  1
  2  4  1  0
  3  2  1  0
  4  5  1  0
  5  6  1  6
  7  8  2  0
  7  5  1  0
  9  7  1  0
 10  9  1  0
 11 10  1  0
 11 20  1  0
 12 11  2  0
 13 14  1  0
 14 15  2  0
 15 16  1  0
 17 16  2  0
 17 18  1  0
 19 18  1  1
 19 20  1  0
 19 21  1  0
 21 25  1  0
 22 21  2  0
 23 17  1  0
 24 14  1  0
 24 23  2  0
M  END
$$$$
