LGY.pdb
     RDKit          3D

 25 25  0  0  1  0  0  0  0  0999 V2000
   25.7746  -13.7285  -17.3625 C   0  0  0  0  0  0  0  0  0  0  0  0
   24.3290  -13.3995  -17.6337 C   0  0  2  0  0  0  0  0  0  0  0  0
   23.7701  -14.3450  -18.6611 C   0  0  0  0  0  0  0  0  0  0  0  0
   24.0429  -11.9644  -17.8737 C   0  0  0  0  0  0  0  0  0  0  0  0
   24.6164  -10.9934  -16.9022 C   0  0  2  0  0  0  0  0  0  0  0  0
   24.2023  -11.1750  -15.5476 N   0  0  0  0  0  0  0  0  0  0  0  0
   24.4305   -9.5665  -17.2778 C   0  0  0  0  0  0  0  0  0  0  0  0
   24.8883   -9.1155  -18.3817 O   0  0  0  0  0  0  0  0  0  0  0  0
   23.7469   -8.6240  -16.4544 N   0  0  0  0  0  0  0  0  0  0  0  0
   23.3860   -7.3074  -16.8523 C   0  0  0  0  0  0  0  0  0  0  0  0
   22.5700   -6.5427  -15.8872 C   0  0  0  0  0  0  0  0  0  0  0  0
   22.3128   -5.3531  -16.2128 O   0  0  0  0  0  0  0  0  0  0  0  0
   16.3279   -4.2951   -9.9761 O   0  0  0  0  0  0  0  0  0  0  0  0
   17.2983   -4.9850  -10.7029 C   0  0  0  0  0  0  0  0  0  0  0  0
   17.1012   -5.3482  -12.0063 C   0  0  0  0  0  0  0  0  0  0  0  0
   18.0850   -6.0295  -12.6909 C   0  0  0  0  0  0  0  0  0  0  0  0
   19.2942   -6.3799  -12.1288 C   0  0  0  0  0  0  0  0  0  0  0  0
   20.3749   -7.1105  -12.8425 C   0  0  0  0  0  0  0  0  0  0  0  0
   21.1096   -6.3037  -13.8396 C   0  0  2  0  0  0  0  0  0  0  0  0
   22.0534   -6.9845  -14.6659 N   0  0  0  0  0  0  0  0  0  0  0  0
   21.7943   -5.1954  -13.1314 C   0  0  0  0  0  0  0  0  0  0  0  0
   22.9529   -5.4164  -12.6951 O   0  0  0  0  0  0  0  0  0  0  0  0
   19.4540   -5.9887  -10.7929 C   0  0  0  0  0  0  0  0  0  0  0  0
   18.4886   -5.3130  -10.1000 C   0  0  0  0  0  0  0  0  0  0  0  0
   21.2258   -3.9562  -12.9346 O   0  0  0  0  0  0  0  0  0  0  0  0
  2  1  1  6
  2  4  1  0
  3  2  1  0
  4  5  1  0
  5  6  1  1
  7  8  2  0
  7  5  1  0
  9  7  1  0
 10  9  1  0
 11 10  1  0
 11 20  1  0
 12 11  2  0
 13 14  1  0
 14 15  2  0
 15 16  1  0
 17 16  2  0
 17 18  1  0
 19 18  1  1
 19 20  1  0
 19 21  1  0
 21 25  1  0
 22 21  2  0
 23 17  1  0
 24 14  1  0
 24 23  2  0
M  END
$$$$
