LGY.pdb
     RDKit          3D

 25 25  0  0  1  0  0  0  0  0999 V2000
   28.6099  -17.1629  -16.8017 C   0  0  0  0  0  0  0  0  0  0  0  0
   28.5437  -18.2156  -17.8783 C   0  0  2  0  0  0  0  0  0  0  0  0
   28.5936  -17.5681  -19.2348 C   0  0  0  0  0  0  0  0  0  0  0  0
   27.4785  -19.2321  -17.7020 C   0  0  0  0  0  0  0  0  0  0  0  0
   27.2963  -19.7837  -16.3316 C   0  0  2  0  0  0  0  0  0  0  0  0
   28.4671  -20.3572  -15.7486 N   0  0  0  0  0  0  0  0  0  0  0  0
   26.1700  -20.7460  -16.2017 C   0  0  0  0  0  0  0  0  0  0  0  0
   25.0195  -20.4761  -16.6864 O   0  0  0  0  0  0  0  0  0  0  0  0
   26.2898  -22.0055  -15.5435 N   0  0  0  0  0  0  0  0  0  0  0  0
   25.2108  -22.8961  -15.2890 C   0  0  0  0  0  0  0  0  0  0  0  0
   24.2962  -22.5057  -14.1967 C   0  0  0  0  0  0  0  0  0  0  0  0
   24.4741  -23.0976  -13.0988 O   0  0  0  0  0  0  0  0  0  0  0  0
   27.4815  -20.8276   -9.0495 O   0  0  0  0  0  0  0  0  0  0  0  0
   26.3607  -20.6050   -9.8497 C   0  0  0  0  0  0  0  0  0  0  0  0
   25.0918  -20.6473   -9.3421 C   0  0  0  0  0  0  0  0  0  0  0  0
   24.0095  -20.4217  -10.1657 C   0  0  0  0  0  0  0  0  0  0  0  0
   24.1269  -20.1471  -11.5118 C   0  0  0  0  0  0  0  0  0  0  0  0
   22.9795  -19.8960  -12.4237 C   0  0  0  0  0  0  0  0  0  0  0  0
   22.4885  -21.0921  -13.1400 C   0  0  2  0  0  0  0  0  0  0  0  0
   23.2663  -21.5617  -14.2406 N   0  0  0  0  0  0  0  0  0  0  0  0
   21.1048  -20.8254  -13.6017 C   0  0  0  0  0  0  0  0  0  0  0  0
   20.2319  -20.6150  -12.7212 O   0  0  0  0  0  0  0  0  0  0  0  0
   25.4435  -20.1135  -11.9897 C   0  0  0  0  0  0  0  0  0  0  0  0
   26.5273  -20.3350  -11.1865 C   0  0  0  0  0  0  0  0  0  0  0  0
   20.7413  -20.7988  -14.9301 O   0  0  0  0  0  0  0  0  0  0  0  0
  2  1  1  1
  2  4  1  0
  3  2  1  0
  4  5  1  0
  5  6  1  6
  7  8  2  0
  7  5  1  0
  9  7  1  0
 10  9  1  0
 11 10  1  0
 11 20  1  0
 12 11  2  0
 13 14  1  0
 14 15  2  0
 15 16  1  0
 17 16  2  0
 17 18  1  0
 19 18  1  6
 19 20  1  0
 19 21  1  0
 21 25  1  0
 22 21  2  0
 23 17  1  0
 24 14  1  0
 24 23  2  0
M  END
$$$$
