LGY.pdb
     RDKit          3D

 25 25  0  0  1  0  0  0  0  0999 V2000
   25.6644  -19.5792  -18.5270 C   0  0  0  0  0  0  0  0  0  0  0  0
   25.1406  -18.6202  -17.4889 C   0  0  2  0  0  0  0  0  0  0  0  0
   24.9486  -17.2582  -18.0970 C   0  0  0  0  0  0  0  0  0  0  0  0
   25.8613  -18.6378  -16.1930 C   0  0  0  0  0  0  0  0  0  0  0  0
   26.2327  -19.9725  -15.6489 C   0  0  2  0  0  0  0  0  0  0  0  0
   25.1325  -20.7987  -15.2665 N   0  0  0  0  0  0  0  0  0  0  0  0
   27.2156  -19.9292  -14.5337 C   0  0  0  0  0  0  0  0  0  0  0  0
   28.3328  -19.3250  -14.6693 O   0  0  0  0  0  0  0  0  0  0  0  0
   26.9883  -20.5432  -13.2668 N   0  0  0  0  0  0  0  0  0  0  0  0
   27.8463  -20.4235  -12.1392 C   0  0  0  0  0  0  0  0  0  0  0  0
   27.3317  -20.9871  -10.8745 C   0  0  0  0  0  0  0  0  0  0  0  0
   27.3876  -22.2418  -10.7741 O   0  0  0  0  0  0  0  0  0  0  0  0
   30.1566  -19.8676   -4.1116 O   0  0  0  0  0  0  0  0  0  0  0  0
   29.0596  -19.9347   -4.9707 C   0  0  0  0  0  0  0  0  0  0  0  0
   28.6795  -21.1057   -5.5655 C   0  0  0  0  0  0  0  0  0  0  0  0
   27.5891  -21.1312   -6.4087 C   0  0  0  0  0  0  0  0  0  0  0  0
   26.8320  -20.0164   -6.7008 C   0  0  0  0  0  0  0  0  0  0  0  0
   25.6495  -20.0136   -7.6024 C   0  0  0  0  0  0  0  0  0  0  0  0
   25.8281  -20.7779   -8.8551 C   0  0  2  0  0  0  0  0  0  0  0  0
   26.7965  -20.2940   -9.7851 N   0  0  0  0  0  0  0  0  0  0  0  0
   24.5128  -20.8797   -9.5322 C   0  0  0  0  0  0  0  0  0  0  0  0
   24.4059  -20.3543  -10.6697 O   0  0  0  0  0  0  0  0  0  0  0  0
   27.2563  -18.8391   -6.0707 C   0  0  0  0  0  0  0  0  0  0  0  0
   28.3350  -18.7970   -5.2321 C   0  0  0  0  0  0  0  0  0  0  0  0
   23.4226  -21.5139   -8.9783 O   0  0  0  0  0  0  0  0  0  0  0  0
  2  1  1  6
  2  4  1  0
  3  2  1  0
  4  5  1  0
  5  6  1  1
  7  8  2  0
  7  5  1  0
  9  7  1  0
 10  9  1  0
 11 10  1  0
 11 20  1  0
 12 11  2  0
 13 14  1  0
 14 15  2  0
 15 16  1  0
 17 16  2  0
 17 18  1  0
 19 18  1  1
 19 20  1  0
 19 21  1  0
 21 25  1  0
 22 21  2  0
 23 17  1  0
 24 14  1  0
 24 23  2  0
M  END
$$$$
