LGY.pdb
     RDKit          3D

 25 25  0  0  1  0  0  0  0  0999 V2000
   27.2872  -20.4860   -7.2851 C   0  0  0  0  0  0  0  0  0  0  0  0
   26.0156  -20.6758   -8.0717 C   0  0  2  0  0  0  0  0  0  0  0  0
   24.9937  -21.3926   -7.2328 C   0  0  0  0  0  0  0  0  0  0  0  0
   26.1959  -21.2114   -9.4428 C   0  0  0  0  0  0  0  0  0  0  0  0
   27.1148  -20.4612  -10.3417 C   0  0  2  0  0  0  0  0  0  0  0  0
   27.2176  -19.0624  -10.0728 N   0  0  0  0  0  0  0  0  0  0  0  0
   26.8505  -20.6569  -11.7920 C   0  0  0  0  0  0  0  0  0  0  0  0
   26.7200  -21.8297  -12.2809 O   0  0  0  0  0  0  0  0  0  0  0  0
   26.7279  -19.5783  -12.7169 N   0  0  0  0  0  0  0  0  0  0  0  0
   26.4064  -19.7208  -14.0947 C   0  0  0  0  0  0  0  0  0  0  0  0
   25.0283  -20.1609  -14.3933 C   0  0  0  0  0  0  0  0  0  0  0  0
   24.7329  -20.2360  -15.6158 O   0  0  0  0  0  0  0  0  0  0  0  0
   25.5736  -26.0192  -16.5949 O   0  0  0  0  0  0  0  0  0  0  0  0
   24.7777  -25.1246  -15.8793 C   0  0  0  0  0  0  0  0  0  0  0  0
   23.6511  -24.5695  -16.4197 C   0  0  0  0  0  0  0  0  0  0  0  0
   22.8905  -23.6891  -15.6801 C   0  0  0  0  0  0  0  0  0  0  0  0
   23.2019  -23.3199  -14.3886 C   0  0  0  0  0  0  0  0  0  0  0  0
   22.3997  -22.3766  -13.5653 C   0  0  0  0  0  0  0  0  0  0  0  0
   22.7040  -20.9481  -13.7928 C   0  0  2  0  0  0  0  0  0  0  0  0
   24.0241  -20.5023  -13.4831 N   0  0  0  0  0  0  0  0  0  0  0  0
   21.7255  -20.1346  -13.0315 C   0  0  0  0  0  0  0  0  0  0  0  0
   22.1818  -19.3227  -12.1865 O   0  0  0  0  0  0  0  0  0  0  0  0
   24.3632  -23.9116  -13.8745 C   0  0  0  0  0  0  0  0  0  0  0  0
   25.1282  -24.7862  -14.5946 C   0  0  0  0  0  0  0  0  0  0  0  0
   20.3625  -20.2286  -13.2073 O   0  0  0  0  0  0  0  0  0  0  0  0
  2  1  1  1
  2  4  1  0
  3  2  1  0
  4  5  1  0
  5  6  1  1
  7  8  2  0
  7  5  1  0
  9  7  1  0
 10  9  1  0
 11 10  1  0
 11 20  1  0
 12 11  2  0
 13 14  1  0
 14 15  2  0
 15 16  1  0
 17 16  2  0
 17 18  1  0
 19 18  1  1
 19 20  1  0
 19 21  1  0
 21 25  1  0
 22 21  2  0
 23 17  1  0
 24 14  1  0
 24 23  2  0
M  END
$$$$
