SLF.pdb
     RDKit          3D

 26 26  0  0  1  0  0  0  0  0999 V2000
    9.6216  -18.7077   20.5811 O   0  0  0  0  0  0  0  0  0  0  0  0
    8.7019  -17.9181   19.8813 C   0  0  0  0  0  0  0  0  0  0  0  0
    9.1155  -16.4598   19.9217 C   0  0  2  0  0  0  0  0  0  0  0  0
   10.2929  -16.2860   19.1230 N   0  0  0  0  0  0  0  0  0  0  0  0
    9.2493  -15.9535   21.2905 C   0  0  0  0  0  0  0  0  0  0  0  0
   10.3795  -15.8415   21.8239 O   0  0  0  0  0  0  0  0  0  0  0  0
    6.4654  -14.2660   26.3192 C   0  0  0  0  0  0  0  0  0  0  0  0
    7.3622  -13.6103   25.3026 C   0  0  2  0  0  0  0  0  0  0  0  0
    7.1556  -12.1094   25.3037 C   0  0  0  0  0  0  0  0  0  0  0  0
    7.1887  -14.2204   23.9657 C   0  0  0  0  0  0  0  0  0  0  0  0
    8.3222  -14.9636   23.3840 C   0  0  2  0  0  0  0  0  0  0  0  0
    8.1246  -15.5605   22.0950 N   0  0  0  0  0  0  0  0  0  0  0  0
    8.7995  -16.0542   24.3082 C   0  0  0  0  0  0  0  0  0  0  0  0
    8.2169  -17.1741   24.1728 O   0  0  0  0  0  0  0  0  0  0  0  0
    9.8115  -15.7996   25.2279 N   0  0  0  0  0  0  0  0  0  0  0  0
   10.5352  -16.9266   25.8155 C   0  0  1  0  0  0  0  0  0  0  0  0
   11.7154  -16.2905   26.5429 C   0  0  0  0  0  0  0  0  0  0  0  0
   11.2665  -15.5115   27.7118 C   0  0  0  0  0  0  0  0  0  0  0  0
   10.8081  -14.2139   27.6654 C   0  0  0  0  0  0  0  0  0  0  0  0
   10.3931  -13.5325   28.8140 C   0  0  0  0  0  0  0  0  0  0  0  0
   10.4341  -14.1550   30.0399 C   0  0  0  0  0  0  0  0  0  0  0  0
   10.8928  -15.4546   30.0900 C   0  0  0  0  0  0  0  0  0  0  0  0
   11.2984  -16.1208   28.9681 C   0  0  0  0  0  0  0  0  0  0  0  0
    9.6747  -17.7173   26.7028 C   0  0  0  0  0  0  0  0  0  0  0  0
    8.3683  -17.3557   26.9322 O   0  0  0  0  0  0  0  0  0  0  0  0
   10.1331  -18.7368   27.2621 O   0  0  0  0  0  0  0  0  0  0  0  0
  1  2  1  0
  3  2  1  0
  3  5  1  0
  3  4  1  1
  5  6  2  0
  8  7  1  1
  8  9  1  0
 10  8  1  0
 11 10  1  1
 12 11  1  0
 12  5  1  0
 13 11  1  0
 13 14  2  0
 15 13  1  0
 16 15  1  0
 16 24  1  0
 16 17  1  1
 18 19  2  0
 18 17  1  0
 20 19  1  0
 21 20  2  0
 22 21  1  0
 22 23  2  0
 23 18  1  0
 24 26  2  0
 24 25  1  0
M  END
$$$$
