SLF.pdb
     RDKit          3D

 26 26  0  0  1  0  0  0  0  0999 V2000
   10.3637  -20.5056   18.7475 O   0  0  0  0  0  0  0  0  0  0  0  0
   11.1076  -19.5155   19.3996 C   0  0  0  0  0  0  0  0  0  0  0  0
   10.6266  -18.1361   18.9930 C   0  0  2  0  0  0  0  0  0  0  0  0
   11.4313  -17.6626   17.9056 N   0  0  0  0  0  0  0  0  0  0  0  0
   10.5602  -17.2097   20.1267 C   0  0  0  0  0  0  0  0  0  0  0  0
   11.5968  -16.6479   20.5559 O   0  0  0  0  0  0  0  0  0  0  0  0
    6.7428  -13.1801   21.8043 C   0  0  0  0  0  0  0  0  0  0  0  0
    8.0886  -13.8202   21.5882 C   0  0  2  0  0  0  0  0  0  0  0  0
    8.4693  -13.7713   20.1225 C   0  0  0  0  0  0  0  0  0  0  0  0
    8.1263  -15.1870   22.1537 C   0  0  0  0  0  0  0  0  0  0  0  0
    9.3363  -16.0014   21.9335 C   0  0  2  0  0  0  0  0  0  0  0  0
    9.3350  -16.8892   20.8071 N   0  0  0  0  0  0  0  0  0  0  0  0
    9.6738  -16.8278   23.1478 C   0  0  0  0  0  0  0  0  0  0  0  0
    9.4012  -18.0643   23.0558 O   0  0  0  0  0  0  0  0  0  0  0  0
   10.2435  -16.2285   24.2664 N   0  0  0  0  0  0  0  0  0  0  0  0
   10.6393  -17.0686   25.3962 C   0  0  1  0  0  0  0  0  0  0  0  0
   11.5689  -16.1879   26.2251 C   0  0  0  0  0  0  0  0  0  0  0  0
   10.8146  -15.1512   26.9538 C   0  0  0  0  0  0  0  0  0  0  0  0
   10.0887  -14.1420   26.3618 C   0  0  0  0  0  0  0  0  0  0  0  0
    9.3915  -13.1908   27.1133 C   0  0  0  0  0  0  0  0  0  0  0  0
    9.4155  -13.2426   28.4876 C   0  0  0  0  0  0  0  0  0  0  0  0
   10.1416  -14.2520   29.0839 C   0  0  0  0  0  0  0  0  0  0  0  0
   10.8230  -15.1817   28.3501 C   0  0  0  0  0  0  0  0  0  0  0  0
    9.4739  -17.5413   26.1520 C   0  0  0  0  0  0  0  0  0  0  0  0
    9.6104  -18.4576   27.1679 O   0  0  0  0  0  0  0  0  0  0  0  0
    8.3361  -17.1070   25.8707 O   0  0  0  0  0  0  0  0  0  0  0  0
  1  2  1  0
  3  2  1  0
  3  5  1  0
  3  4  1  6
  5  6  2  0
  8  7  1  6
  8  9  1  0
 10  8  1  0
 11 10  1  1
 12 11  1  0
 12  5  1  0
 13 11  1  0
 13 14  2  0
 15 13  1  0
 16 15  1  0
 16 24  1  0
 16 17  1  1
 18 19  2  0
 18 17  1  0
 20 19  1  0
 21 20  2  0
 22 21  1  0
 22 23  2  0
 23 18  1  0
 24 26  2  0
 24 25  1  0
M  END
$$$$
