SLF.pdb
     RDKit          3D

 26 26  0  0  1  0  0  0  0  0999 V2000
    8.1011  -19.2863   22.8623 O   0  0  0  0  0  0  0  0  0  0  0  0
    8.4241  -19.8412   21.6187 C   0  0  0  0  0  0  0  0  0  0  0  0
    8.2427  -18.8156   20.5166 C   0  0  2  0  0  0  0  0  0  0  0  0
    8.6851  -19.3802   19.2757 N   0  0  0  0  0  0  0  0  0  0  0  0
    8.8700  -17.5308   20.8388 C   0  0  0  0  0  0  0  0  0  0  0  0
   10.0921  -17.3437   20.6251 O   0  0  0  0  0  0  0  0  0  0  0  0
    7.5985  -12.0238   20.0406 C   0  0  0  0  0  0  0  0  0  0  0  0
    8.3761  -13.3071   20.1669 C   0  0  2  0  0  0  0  0  0  0  0  0
    8.0737  -14.2266   19.0013 C   0  0  0  0  0  0  0  0  0  0  0  0
    8.1471  -13.9424   21.4835 C   0  0  0  0  0  0  0  0  0  0  0  0
    8.8292  -15.2179   21.7723 C   0  0  2  0  0  0  0  0  0  0  0  0
    8.1473  -16.4255   21.4068 N   0  0  0  0  0  0  0  0  0  0  0  0
    9.1852  -15.3353   23.2320 C   0  0  0  0  0  0  0  0  0  0  0  0
   10.0654  -14.5181   23.6435 O   0  0  0  0  0  0  0  0  0  0  0  0
    8.5631  -16.2899   24.0299 N   0  0  0  0  0  0  0  0  0  0  0  0
    8.8884  -16.3435   25.4548 C   0  0  1  0  0  0  0  0  0  0  0  0
    7.5742  -16.0297   26.1629 C   0  0  0  0  0  0  0  0  0  0  0  0
    7.3834  -14.5755   26.3164 C   0  0  0  0  0  0  0  0  0  0  0  0
    8.3343  -13.7019   26.7946 C   0  0  0  0  0  0  0  0  0  0  0  0
    8.0889  -12.3301   26.9118 C   0  0  0  0  0  0  0  0  0  0  0  0
    6.8685  -11.8123   26.5452 C   0  0  0  0  0  0  0  0  0  0  0  0
    5.9138  -12.6844   26.0660 C   0  0  0  0  0  0  0  0  0  0  0  0
    6.1529  -14.0248   25.9512 C   0  0  0  0  0  0  0  0  0  0  0  0
    9.4452  -17.6473   25.8329 C   0  0  0  0  0  0  0  0  0  0  0  0
    9.8548  -17.8980   27.1211 O   0  0  0  0  0  0  0  0  0  0  0  0
    9.5515  -18.5478   24.9726 O   0  0  0  0  0  0  0  0  0  0  0  0
  1  2  1  0
  3  2  1  0
  3  5  1  0
  3  4  1  6
  5  6  2  0
  8  7  1  6
  8  9  1  0
 10  8  1  0
 11 10  1  1
 12 11  1  0
 12  5  1  0
 13 11  1  0
 13 14  2  0
 15 13  1  0
 16 15  1  0
 16 24  1  0
 16 17  1  1
 18 19  2  0
 18 17  1  0
 20 19  1  0
 21 20  2  0
 22 21  1  0
 22 23  2  0
 23 18  1  0
 24 26  2  0
 24 25  1  0
M  END
$$$$
