SLF.pdb
     RDKit          3D

 26 26  0  0  1  0  0  0  0  0999 V2000
    7.1181  -19.2899   24.1297 O   0  0  0  0  0  0  0  0  0  0  0  0
    5.9127  -19.2980   23.4185 C   0  0  0  0  0  0  0  0  0  0  0  0
    6.1613  -19.0161   21.9495 C   0  0  2  0  0  0  0  0  0  0  0  0
    6.5713  -20.2284   21.3041 N   0  0  0  0  0  0  0  0  0  0  0  0
    7.0826  -17.8952   21.7427 C   0  0  0  0  0  0  0  0  0  0  0  0
    8.2726  -18.0994   21.4012 O   0  0  0  0  0  0  0  0  0  0  0  0
    7.2346  -11.7529   20.7154 C   0  0  0  0  0  0  0  0  0  0  0  0
    7.8733  -13.1148   20.6446 C   0  0  2  0  0  0  0  0  0  0  0  0
    8.2536  -13.4480   19.2164 C   0  0  0  0  0  0  0  0  0  0  0  0
    7.0117  -14.1414   21.2717 C   0  0  0  0  0  0  0  0  0  0  0  0
    7.5998  -15.4612   21.5684 C   0  0  2  0  0  0  0  0  0  0  0  0
    6.6966  -16.5209   21.9123 N   0  0  0  0  0  0  0  0  0  0  0  0
    8.6213  -15.3745   22.6730 C   0  0  0  0  0  0  0  0  0  0  0  0
    9.7160  -14.8144   22.3573 O   0  0  0  0  0  0  0  0  0  0  0  0
    8.3349  -15.8882   23.9336 N   0  0  0  0  0  0  0  0  0  0  0  0
    9.3091  -15.7097   25.0097 C   0  0  1  0  0  0  0  0  0  0  0  0
    8.4656  -15.4785   26.2595 C   0  0  0  0  0  0  0  0  0  0  0  0
    7.9109  -14.1123   26.2852 C   0  0  0  0  0  0  0  0  0  0  0  0
    8.6571  -12.9606   26.3977 C   0  0  0  0  0  0  0  0  0  0  0  0
    8.0668  -11.6929   26.4122 C   0  0  0  0  0  0  0  0  0  0  0  0
    6.7009  -11.5652   26.3125 C   0  0  0  0  0  0  0  0  0  0  0  0
    5.9504  -12.7166   26.1998 C   0  0  0  0  0  0  0  0  0  0  0  0
    6.5266  -13.9555   26.1856 C   0  0  0  0  0  0  0  0  0  0  0  0
   10.2016  -16.8682   25.1278 C   0  0  0  0  0  0  0  0  0  0  0  0
   10.0472  -17.9690   24.3187 O   0  0  0  0  0  0  0  0  0  0  0  0
   11.1186  -16.8590   25.9772 O   0  0  0  0  0  0  0  0  0  0  0  0
  1  2  1  0
  3  2  1  0
  3  5  1  0
  3  4  1  1
  5  6  2  0
  8  7  1  6
  8  9  1  0
 10  8  1  0
 11 10  1  1
 12 11  1  0
 12  5  1  0
 13 11  1  0
 13 14  2  0
 15 13  1  0
 16 15  1  0
 16 24  1  0
 16 17  1  1
 18 19  2  0
 18 17  1  0
 20 19  1  0
 21 20  2  0
 22 21  1  0
 22 23  2  0
 23 18  1  0
 24 26  2  0
 24 25  1  0
M  END
$$$$
