SLF.pdb
     RDKit          3D

 26 26  0  0  1  0  0  0  0  0999 V2000
    7.0471  -20.9773   21.5080 O   0  0  0  0  0  0  0  0  0  0  0  0
    8.1565  -20.1323   21.6266 C   0  0  0  0  0  0  0  0  0  0  0  0
    8.2423  -19.1986   20.4349 C   0  0  2  0  0  0  0  0  0  0  0  0
    8.8315  -19.9007   19.3329 N   0  0  0  0  0  0  0  0  0  0  0  0
    8.9137  -17.9370   20.7593 C   0  0  0  0  0  0  0  0  0  0  0  0
   10.1622  -17.8381   20.6827 O   0  0  0  0  0  0  0  0  0  0  0  0
    8.7093  -13.5245   19.0522 C   0  0  0  0  0  0  0  0  0  0  0  0
    7.5959  -13.8694   20.0058 C   0  0  2  0  0  0  0  0  0  0  0  0
    6.6015  -12.7297   20.0934 C   0  0  0  0  0  0  0  0  0  0  0  0
    8.1298  -14.2781   21.3238 C   0  0  0  0  0  0  0  0  0  0  0  0
    8.9094  -15.5276   21.4053 C   0  0  2  0  0  0  0  0  0  0  0  0
    8.2068  -16.7568   21.1767 N   0  0  0  0  0  0  0  0  0  0  0  0
    9.6068  -15.6573   22.7350 C   0  0  0  0  0  0  0  0  0  0  0  0
   10.8401  -15.3560   22.7328 O   0  0  0  0  0  0  0  0  0  0  0  0
    8.9023  -16.0819   23.8567 N   0  0  0  0  0  0  0  0  0  0  0  0
    9.5623  -16.0515   25.1616 C   0  0  1  0  0  0  0  0  0  0  0  0
    9.8276  -14.5728   25.4255 C   0  0  0  0  0  0  0  0  0  0  0  0
    8.6026  -13.8798   25.8658 C   0  0  0  0  0  0  0  0  0  0  0  0
    8.3849  -13.3941   27.1357 C   0  0  0  0  0  0  0  0  0  0  0  0
    7.1989  -12.7417   27.4870 C   0  0  0  0  0  0  0  0  0  0  0  0
    6.2034  -12.5671   26.5540 C   0  0  0  0  0  0  0  0  0  0  0  0
    6.4180  -13.0524   25.2811 C   0  0  0  0  0  0  0  0  0  0  0  0
    7.5767  -13.6899   24.9373 C   0  0  0  0  0  0  0  0  0  0  0  0
    8.7362  -16.6789   26.1993 C   0  0  0  0  0  0  0  0  0  0  0  0
    9.1900  -16.8000   27.4914 O   0  0  0  0  0  0  0  0  0  0  0  0
    7.6007  -17.1127   25.9081 O   0  0  0  0  0  0  0  0  0  0  0  0
  1  2  1  0
  3  2  1  0
  3  5  1  0
  3  4  1  6
  5  6  2  0
  8  7  1  6
  8  9  1  0
 10  8  1  0
 11 10  1  1
 12 11  1  0
 12  5  1  0
 13 11  1  0
 13 14  2  0
 15 13  1  0
 16 15  1  0
 16 24  1  0
 16 17  1  1
 18 19  2  0
 18 17  1  0
 20 19  1  0
 21 20  2  0
 22 21  1  0
 22 23  2  0
 23 18  1  0
 24 26  2  0
 24 25  1  0
M  END
$$$$
