SLF.pdb
     RDKit          3D

 26 26  0  0  1  0  0  0  0  0999 V2000
    8.0990  -19.6830   22.7003 O   0  0  0  0  0  0  0  0  0  0  0  0
    6.9873  -19.2555   21.9653 C   0  0  0  0  0  0  0  0  0  0  0  0
    7.4282  -18.5624   20.6907 C   0  0  2  0  0  0  0  0  0  0  0  0
    7.9277  -19.5444   19.7739 N   0  0  0  0  0  0  0  0  0  0  0  0
    8.3623  -17.4624   20.9460 C   0  0  0  0  0  0  0  0  0  0  0  0
    9.5674  -17.5546   20.6088 O   0  0  0  0  0  0  0  0  0  0  0  0
    8.8402  -13.6568   19.1435 C   0  0  0  0  0  0  0  0  0  0  0  0
    7.8702  -13.4895   20.2831 C   0  0  2  0  0  0  0  0  0  0  0  0
    7.2473  -12.1087   20.2503 C   0  0  0  0  0  0  0  0  0  0  0  0
    8.5093  -13.8086   21.5789 C   0  0  0  0  0  0  0  0  0  0  0  0
    8.9358  -15.1992   21.8243 C   0  0  2  0  0  0  0  0  0  0  0  0
    7.9727  -16.2342   21.5836 N   0  0  0  0  0  0  0  0  0  0  0  0
    9.4386  -15.3817   23.2333 C   0  0  0  0  0  0  0  0  0  0  0  0
   10.5261  -14.7848   23.5032 O   0  0  0  0  0  0  0  0  0  0  0  0
    8.7230  -16.1605   24.1368 N   0  0  0  0  0  0  0  0  0  0  0  0
    9.1875  -16.2474   25.5209 C   0  0  1  0  0  0  0  0  0  0  0  0
    7.9426  -15.9865   26.3629 C   0  0  0  0  0  0  0  0  0  0  0  0
    7.5664  -14.5608   26.3339 C   0  0  0  0  0  0  0  0  0  0  0  0
    8.3592  -13.5272   26.7800 C   0  0  0  0  0  0  0  0  0  0  0  0
    7.9422  -12.1937   26.7202 C   0  0  0  0  0  0  0  0  0  0  0  0
    6.7067  -11.8781   26.2045 C   0  0  0  0  0  0  0  0  0  0  0  0
    5.9100  -12.9109   25.7569 C   0  0  0  0  0  0  0  0  0  0  0  0
    6.3169  -14.2140   25.8150 C   0  0  0  0  0  0  0  0  0  0  0  0
    9.8066  -17.5475   25.8022 C   0  0  0  0  0  0  0  0  0  0  0  0
   10.3887  -17.8082   27.0201 O   0  0  0  0  0  0  0  0  0  0  0  0
    9.8079  -18.4356   24.9226 O   0  0  0  0  0  0  0  0  0  0  0  0
  1  2  1  0
  3  2  1  0
  3  5  1  0
  3  4  1  6
  5  6  2  0
  8  7  1  6
  8  9  1  0
 10  8  1  0
 11 10  1  1
 12 11  1  0
 12  5  1  0
 13 11  1  0
 13 14  2  0
 15 13  1  0
 16 15  1  0
 16 24  1  0
 16 17  1  1
 18 19  2  0
 18 17  1  0
 20 19  1  0
 21 20  2  0
 22 21  1  0
 22 23  2  0
 23 18  1  0
 24 26  2  0
 24 25  1  0
M  END
$$$$
