SLF.pdb
     RDKit          3D

 26 26  0  0  1  0  0  0  0  0999 V2000
    7.3565  -19.4593   23.3838 O   0  0  0  0  0  0  0  0  0  0  0  0
    6.2230  -18.9403   22.7477 C   0  0  0  0  0  0  0  0  0  0  0  0
    6.5802  -18.4180   21.3696 C   0  0  2  0  0  0  0  0  0  0  0  0
    6.8454  -19.5289   20.5035 N   0  0  0  0  0  0  0  0  0  0  0  0
    7.6597  -17.4276   21.4086 C   0  0  0  0  0  0  0  0  0  0  0  0
    8.8203  -17.7309   21.0407 O   0  0  0  0  0  0  0  0  0  0  0  0
    8.2858  -13.8817   19.1934 C   0  0  0  0  0  0  0  0  0  0  0  0
    7.5699  -13.4591   20.4490 C   0  0  2  0  0  0  0  0  0  0  0  0
    7.1673  -12.0009   20.3639 C   0  0  0  0  0  0  0  0  0  0  0  0
    8.3729  -13.7715   21.6518 C   0  0  0  0  0  0  0  0  0  0  0  0
    8.5861  -15.1887   22.0012 C   0  0  2  0  0  0  0  0  0  0  0  0
    7.4684  -16.0760   21.8593 N   0  0  0  0  0  0  0  0  0  0  0  0
    9.0940  -15.3389   23.4122 C   0  0  0  0  0  0  0  0  0  0  0  0
   10.2148  -14.7909   23.6469 O   0  0  0  0  0  0  0  0  0  0  0  0
    8.3476  -16.0392   24.3542 N   0  0  0  0  0  0  0  0  0  0  0  0
    8.8642  -16.1646   25.7167 C   0  0  1  0  0  0  0  0  0  0  0  0
    7.7024  -15.7423   26.6104 C   0  0  0  0  0  0  0  0  0  0  0  0
    7.5203  -14.2790   26.5950 C   0  0  0  0  0  0  0  0  0  0  0  0
    8.4922  -13.3602   26.9228 C   0  0  0  0  0  0  0  0  0  0  0  0
    8.2539  -11.9827   26.8836 C   0  0  0  0  0  0  0  0  0  0  0  0
    7.0194  -11.5050   26.5098 C   0  0  0  0  0  0  0  0  0  0  0  0
    6.0436  -12.4224   26.1810 C   0  0  0  0  0  0  0  0  0  0  0  0
    6.2759  -13.7684   26.2190 C   0  0  0  0  0  0  0  0  0  0  0  0
    9.3331  -17.5272   25.9932 C   0  0  0  0  0  0  0  0  0  0  0  0
    9.2529  -18.5131   25.0384 O   0  0  0  0  0  0  0  0  0  0  0  0
    9.8134  -17.8008   27.1143 O   0  0  0  0  0  0  0  0  0  0  0  0
  1  2  1  0
  3  2  1  0
  3  5  1  0
  3  4  1  6
  5  6  2  0
  8  7  1  6
  8  9  1  0
 10  8  1  0
 11 10  1  1
 12 11  1  0
 12  5  1  0
 13 11  1  0
 13 14  2  0
 15 13  1  0
 16 15  1  0
 16 24  1  0
 16 17  1  1
 18 19  2  0
 18 17  1  0
 20 19  1  0
 21 20  2  0
 22 21  1  0
 22 23  2  0
 23 18  1  0
 24 26  2  0
 24 25  1  0
M  END
$$$$
