SLF.pdb
     RDKit          3D

 26 26  0  0  1  0  0  0  0  0999 V2000
    9.2248  -19.0052   21.0464 O   0  0  0  0  0  0  0  0  0  0  0  0
    9.6908  -18.2648   19.9540 C   0  0  0  0  0  0  0  0  0  0  0  0
    9.0507  -16.8903   19.9325 C   0  0  2  0  0  0  0  0  0  0  0  0
    9.5775  -16.1470   18.8260 N   0  0  0  0  0  0  0  0  0  0  0  0
    9.1673  -16.1982   21.2190 C   0  0  0  0  0  0  0  0  0  0  0  0
   10.2504  -15.6672   21.5644 O   0  0  0  0  0  0  0  0  0  0  0  0
    5.9028  -13.7928   25.9522 C   0  0  0  0  0  0  0  0  0  0  0  0
    7.2184  -14.0179   25.2549 C   0  0  2  0  0  0  0  0  0  0  0  0
    7.8962  -12.6947   24.9626 C   0  0  0  0  0  0  0  0  0  0  0  0
    7.0469  -14.8618   24.0516 C   0  0  0  0  0  0  0  0  0  0  0  0
    8.2542  -15.4039   23.4002 C   0  0  2  0  0  0  0  0  0  0  0  0
    8.0775  -16.0830   22.1495 N   0  0  0  0  0  0  0  0  0  0  0  0
    8.9987  -16.3442   24.3129 C   0  0  0  0  0  0  0  0  0  0  0  0
    8.6180  -17.5546   24.2728 O   0  0  0  0  0  0  0  0  0  0  0  0
   10.0242  -15.8680   25.1233 N   0  0  0  0  0  0  0  0  0  0  0  0
   10.8530  -16.8262   25.8539 C   0  0  1  0  0  0  0  0  0  0  0  0
   11.9233  -15.9747   26.5293 C   0  0  0  0  0  0  0  0  0  0  0  0
   11.3638  -15.2092   27.6588 C   0  0  0  0  0  0  0  0  0  0  0  0
   11.2951  -15.6587   28.9584 C   0  0  0  0  0  0  0  0  0  0  0  0
   10.7541  -14.8785   29.9853 C   0  0  0  0  0  0  0  0  0  0  0  0
   10.2688  -13.6201   29.7152 C   0  0  0  0  0  0  0  0  0  0  0  0
   10.3360  -13.1668   28.4145 C   0  0  0  0  0  0  0  0  0  0  0  0
   10.8645  -13.9286   27.4108 C   0  0  0  0  0  0  0  0  0  0  0  0
   10.0594  -17.6101   26.8071 C   0  0  0  0  0  0  0  0  0  0  0  0
    8.7370  -17.3159   27.0412 O   0  0  0  0  0  0  0  0  0  0  0  0
   10.5906  -18.5616   27.4194 O   0  0  0  0  0  0  0  0  0  0  0  0
  1  2  1  0
  3  2  1  0
  3  5  1  0
  3  4  1  6
  5  6  2  0
  8  7  1  6
  8  9  1  0
 10  8  1  0
 11 10  1  1
 12 11  1  0
 12  5  1  0
 13 11  1  0
 13 14  2  0
 15 13  1  0
 16 15  1  0
 16 24  1  0
 16 17  1  1
 18 19  2  0
 18 17  1  0
 20 19  1  0
 21 20  2  0
 22 21  1  0
 22 23  2  0
 23 18  1  0
 24 26  2  0
 24 25  1  0
M  END
$$$$
