SLF.pdb
     RDKit          3D

 26 26  0  0  1  0  0  0  0  0999 V2000
   11.6698  -20.2338   21.3364 O   0  0  0  0  0  0  0  0  0  0  0  0
   10.7178  -20.2229   20.3105 C   0  0  0  0  0  0  0  0  0  0  0  0
   10.9307  -19.0280   19.4016 C   0  0  2  0  0  0  0  0  0  0  0  0
   12.2426  -19.1044   18.8293 N   0  0  0  0  0  0  0  0  0  0  0  0
   10.6522  -17.7561   20.0744 C   0  0  0  0  0  0  0  0  0  0  0  0
   11.5873  -16.9829   20.3941 O   0  0  0  0  0  0  0  0  0  0  0  0
    6.4324  -13.3143   20.6139 C   0  0  0  0  0  0  0  0  0  0  0  0
    7.7629  -13.8791   21.0366 C   0  0  2  0  0  0  0  0  0  0  0  0
    8.8853  -12.9386   20.6478 C   0  0  0  0  0  0  0  0  0  0  0  0
    7.9486  -15.2523   20.5177 C   0  0  0  0  0  0  0  0  0  0  0  0
    9.1058  -16.0305   20.9982 C   0  0  2  0  0  0  0  0  0  0  0  0
    9.3236  -17.3183   20.4057 N   0  0  0  0  0  0  0  0  0  0  0  0
    9.0532  -16.2333   22.4907 C   0  0  0  0  0  0  0  0  0  0  0  0
    8.4391  -17.2757   22.8755 O   0  0  0  0  0  0  0  0  0  0  0  0
    9.6522  -15.3125   23.3440 N   0  0  0  0  0  0  0  0  0  0  0  0
    9.5737  -15.5293   24.7882 C   0  0  1  0  0  0  0  0  0  0  0  0
   10.3470  -14.3635   25.3962 C   0  0  0  0  0  0  0  0  0  0  0  0
   10.3249  -14.4174   26.8697 C   0  0  0  0  0  0  0  0  0  0  0  0
    9.5224  -13.6403   27.6748 C   0  0  0  0  0  0  0  0  0  0  0  0
    9.5482  -13.7444   29.0692 C   0  0  0  0  0  0  0  0  0  0  0  0
   10.3921  -14.6425   29.6800 C   0  0  0  0  0  0  0  0  0  0  0  0
   11.1973  -15.4223   28.8767 C   0  0  0  0  0  0  0  0  0  0  0  0
   11.1725  -15.3211   27.5142 C   0  0  0  0  0  0  0  0  0  0  0  0
    8.1824  -15.5958   25.2495 C   0  0  0  0  0  0  0  0  0  0  0  0
    7.7950  -16.5003   26.2096 O   0  0  0  0  0  0  0  0  0  0  0  0
    7.3316  -14.8196   24.7636 O   0  0  0  0  0  0  0  0  0  0  0  0
  1  2  1  0
  3  2  1  0
  3  5  1  0
  3  4  1  1
  5  6  2  0
  8  7  1  6
  8  9  1  0
 10  8  1  0
 11 10  1  6
 12 11  1  0
 12  5  1  0
 13 11  1  0
 13 14  2  0
 15 13  1  0
 16 15  1  0
 16 24  1  0
 16 17  1  1
 18 19  2  0
 18 17  1  0
 20 19  1  0
 21 20  2  0
 22 21  1  0
 22 23  2  0
 23 18  1  0
 24 26  2  0
 24 25  1  0
M  END
$$$$
