SLF.pdb
     RDKit          3D

 26 26  0  0  1  0  0  0  0  0999 V2000
    8.1281  -19.4197   23.7532 O   0  0  0  0  0  0  0  0  0  0  0  0
    6.9560  -19.6663   23.0292 C   0  0  0  0  0  0  0  0  0  0  0  0
    7.1240  -19.2364   21.5848 C   0  0  2  0  0  0  0  0  0  0  0  0
    7.6474  -20.3355   20.8282 N   0  0  0  0  0  0  0  0  0  0  0  0
    7.9057  -18.0035   21.4549 C   0  0  0  0  0  0  0  0  0  0  0  0
    9.0928  -18.0379   21.0501 O   0  0  0  0  0  0  0  0  0  0  0  0
    7.4385  -11.8581   20.7916 C   0  0  0  0  0  0  0  0  0  0  0  0
    8.2852  -13.1010   20.8685 C   0  0  2  0  0  0  0  0  0  0  0  0
    9.0279  -13.3175   19.5658 C   0  0  0  0  0  0  0  0  0  0  0  0
    7.4787  -14.2714   21.2797 C   0  0  0  0  0  0  0  0  0  0  0  0
    8.1822  -15.5285   21.5969 C   0  0  2  0  0  0  0  0  0  0  0  0
    7.3800  -16.7041   21.7739 N   0  0  0  0  0  0  0  0  0  0  0  0
    9.0372  -15.3864   22.8299 C   0  0  0  0  0  0  0  0  0  0  0  0
   10.0207  -14.5913   22.7198 O   0  0  0  0  0  0  0  0  0  0  0  0
    8.7268  -16.0996   23.9831 N   0  0  0  0  0  0  0  0  0  0  0  0
    9.5160  -15.8692   25.1928 C   0  0  1  0  0  0  0  0  0  0  0  0
    8.4850  -15.7625   26.3118 C   0  0  0  0  0  0  0  0  0  0  0  0
    7.7832  -14.4661   26.2707 C   0  0  0  0  0  0  0  0  0  0  0  0
    6.4562  -14.2983   25.9435 C   0  0  0  0  0  0  0  0  0  0  0  0
    5.8502  -13.0380   25.9272 C   0  0  0  0  0  0  0  0  0  0  0  0
    6.5799  -11.9158   26.2436 C   0  0  0  0  0  0  0  0  0  0  0  0
    7.9092  -12.0803   26.5717 C   0  0  0  0  0  0  0  0  0  0  0  0
    8.5019  -13.3114   26.5879 C   0  0  0  0  0  0  0  0  0  0  0  0
   10.4915  -16.9427   25.4137 C   0  0  0  0  0  0  0  0  0  0  0  0
   10.5610  -18.0243   24.5677 O   0  0  0  0  0  0  0  0  0  0  0  0
   11.2738  -16.8775   26.3863 O   0  0  0  0  0  0  0  0  0  0  0  0
  1  2  1  0
  3  2  1  0
  3  5  1  0
  3  4  1  6
  5  6  2  0
  8  7  1  6
  8  9  1  0
 10  8  1  0
 11 10  1  1
 12 11  1  0
 12  5  1  0
 13 11  1  0
 13 14  2  0
 15 13  1  0
 16 15  1  0
 16 24  1  0
 16 17  1  1
 18 19  2  0
 18 17  1  0
 20 19  1  0
 21 20  2  0
 22 21  1  0
 22 23  2  0
 23 18  1  0
 24 26  2  0
 24 25  1  0
M  END
$$$$
