SLF.pdb
     RDKit          3D

 26 26  0  0  1  0  0  0  0  0999 V2000
    7.4061  -19.7089   18.5531 O   0  0  0  0  0  0  0  0  0  0  0  0
    6.4684  -19.4254   19.5526 C   0  0  0  0  0  0  0  0  0  0  0  0
    7.1669  -19.0187   20.8356 C   0  0  2  0  0  0  0  0  0  0  0  0
    6.1794  -18.7295   21.8335 N   0  0  0  0  0  0  0  0  0  0  0  0
    8.1328  -17.9362   20.6283 C   0  0  0  0  0  0  0  0  0  0  0  0
    8.3638  -17.4963   19.4761 O   0  0  0  0  0  0  0  0  0  0  0  0
    6.8905  -12.9139   21.9202 C   0  0  0  0  0  0  0  0  0  0  0  0
    8.0577  -13.6015   21.2625 C   0  0  2  0  0  0  0  0  0  0  0  0
    8.2827  -13.0480   19.8702 C   0  0  0  0  0  0  0  0  0  0  0  0
    7.8922  -15.0717   21.2842 C   0  0  0  0  0  0  0  0  0  0  0  0
    9.0219  -15.8955   21.7542 C   0  0  2  0  0  0  0  0  0  0  0  0
    8.8630  -17.3199   21.7024 N   0  0  0  0  0  0  0  0  0  0  0  0
    9.4104  -15.5447   23.1675 C   0  0  0  0  0  0  0  0  0  0  0  0
   10.2287  -14.5809   23.2822 O   0  0  0  0  0  0  0  0  0  0  0  0
    8.8804  -16.2588   24.2371 N   0  0  0  0  0  0  0  0  0  0  0  0
    9.5169  -16.1465   25.5490 C   0  0  1  0  0  0  0  0  0  0  0  0
    8.3633  -15.9126   26.5191 C   0  0  0  0  0  0  0  0  0  0  0  0
    7.8826  -14.5200   26.4526 C   0  0  0  0  0  0  0  0  0  0  0  0
    8.6190  -13.4139   26.8136 C   0  0  0  0  0  0  0  0  0  0  0  0
    8.1030  -12.1173   26.7224 C   0  0  0  0  0  0  0  0  0  0  0  0
    6.8233  -11.9134   26.2612 C   0  0  0  0  0  0  0  0  0  0  0  0
    6.0828  -13.0190   25.8989 C   0  0  0  0  0  0  0  0  0  0  0  0
    6.5865  -14.2861   25.9878 C   0  0  0  0  0  0  0  0  0  0  0  0
   10.3028  -17.3428   25.8721 C   0  0  0  0  0  0  0  0  0  0  0  0
   10.4099  -18.3841   24.9808 O   0  0  0  0  0  0  0  0  0  0  0  0
   10.8856  -17.4211   26.9751 O   0  0  0  0  0  0  0  0  0  0  0  0
  1  2  1  0
  3  2  1  0
  3  5  1  0
  3  4  1  1
  5  6  2  0
  8  7  1  6
  8  9  1  0
 10  8  1  0
 11 10  1  1
 12 11  1  0
 12  5  1  0
 13 11  1  0
 13 14  2  0
 15 13  1  0
 16 15  1  0
 16 24  1  0
 16 17  1  1
 18 19  2  0
 18 17  1  0
 20 19  1  0
 21 20  2  0
 22 21  1  0
 22 23  2  0
 23 18  1  0
 24 26  2  0
 24 25  1  0
M  END
$$$$
