WVL.pdb
     RDKit          3D

 30 31  0  0  1  0  0  0  0  0999 V2000
    6.3921  -18.2666   24.2897 N   0  0  0  0  0  0  0  0  0  0  0  0
    7.0803  -17.6660   23.1773 C   0  0  1  0  0  0  0  0  0  0  0  0
    6.6170  -16.2589   22.9957 C   0  0  0  0  0  0  0  0  0  0  0  0
    6.3845  -15.5812   24.2661 C   0  0  0  0  0  0  0  0  0  0  0  0
    5.8020  -16.1232   25.4133 C   0  0  0  0  0  0  0  0  0  0  0  0
    5.7884  -15.2243   26.4007 N   0  0  0  0  0  0  0  0  0  0  0  0
    6.3587  -14.0908   25.9103 C   0  0  0  0  0  0  0  0  0  0  0  0
    6.5962  -12.8505   26.4882 C   0  0  0  0  0  0  0  0  0  0  0  0
    7.1901  -11.8224   25.7850 C   0  0  0  0  0  0  0  0  0  0  0  0
    7.5611  -12.0216   24.4725 C   0  0  0  0  0  0  0  0  0  0  0  0
    7.3333  -13.2402   23.8891 C   0  0  0  0  0  0  0  0  0  0  0  0
    6.7369  -14.2763   24.5965 C   0  0  0  0  0  0  0  0  0  0  0  0
    8.5384  -17.7624   23.4317 C   0  0  0  0  0  0  0  0  0  0  0  0
    8.9655  -18.6292   24.2284 O   0  0  0  0  0  0  0  0  0  0  0  0
   11.3794  -17.0490   20.4423 C   0  0  0  0  0  0  0  0  0  0  0  0
   11.7032  -16.4993   21.7920 C   0  0  1  0  0  0  0  0  0  0  0  0
   11.3855  -15.0162   21.7830 C   0  0  0  0  0  0  0  0  0  0  0  0
   10.9169  -17.1206   22.9003 C   0  0  2  0  0  0  0  0  0  0  0  0
    9.5058  -16.9267   22.8259 N   0  0  0  0  0  0  0  0  0  0  0  0
   11.4055  -16.5325   24.2030 C   0  0  0  0  0  0  0  0  0  0  0  0
   11.8855  -15.3720   24.2103 O   0  0  0  0  0  0  0  0  0  0  0  0
    9.5818  -13.4138   27.8571 C   0  0  0  0  0  0  0  0  0  0  0  0
   10.5885  -14.5410   27.9241 C   0  0  2  0  0  0  0  0  0  0  0  0
   11.8907  -14.1646   28.5659 C   0  0  0  0  0  0  0  0  0  0  0  0
   10.6612  -15.3861   26.7170 C   0  0  0  0  0  0  0  0  0  0  0  0
   11.3831  -16.6595   26.7357 C   0  0  2  0  0  0  0  0  0  0  0  0
   11.3234  -17.2817   25.4054 N   0  0  0  0  0  0  0  0  0  0  0  0
   11.1825  -17.5995   27.8298 C   0  0  0  0  0  0  0  0  0  0  0  0
   11.9760  -17.7086   28.9572 O   0  0  0  0  0  0  0  0  0  0  0  0
   10.2223  -18.4072   27.7988 O   0  0  0  0  0  0  0  0  0  0  0  0
  2  1  1  1
  2  3  1  0
  2 13  1  0
  3  4  1  0
  4  5  2  0
  4 12  1  0
  5  6  1  0
  6  7  1  0
  7  8  2  0
  8  9  1  0
 10  9  2  0
 11 10  1  0
 12 11  2  0
 12  7  1  0
 13 19  1  0
 14 13  2  0
 16 15  1  6
 16 17  1  0
 18 16  1  0
 18 19  1  6
 20 27  1  0
 20 18  1  0
 21 20  2  0
 23 22  1  6
 23 24  1  0
 25 23  1  0
 26 25  1  6
 26 27  1  0
 28 26  1  0
 28 29  1  0
 30 28  2  0
M  END
$$$$
