WVL.pdb
     RDKit          3D

 30 31  0  0  1  0  0  0  0  0999 V2000
    5.7764  -18.1324   23.9708 N   0  0  0  0  0  0  0  0  0  0  0  0
    6.2962  -16.7912   24.0255 C   0  0  1  0  0  0  0  0  0  0  0  0
    6.6859  -16.4565   25.4267 C   0  0  0  0  0  0  0  0  0  0  0  0
    5.9118  -15.3459   25.9695 C   0  0  0  0  0  0  0  0  0  0  0  0
    4.6180  -15.3993   26.4915 C   0  0  0  0  0  0  0  0  0  0  0  0
    4.2425  -14.1972   26.9354 N   0  0  0  0  0  0  0  0  0  0  0  0
    5.2822  -13.3500   26.7081 C   0  0  0  0  0  0  0  0  0  0  0  0
    5.4413  -11.9933   26.9585 C   0  0  0  0  0  0  0  0  0  0  0  0
    6.6018  -11.3241   26.6277 C   0  0  0  0  0  0  0  0  0  0  0  0
    7.6372  -12.0117   26.0319 C   0  0  0  0  0  0  0  0  0  0  0  0
    7.4948  -13.3507   25.7790 C   0  0  0  0  0  0  0  0  0  0  0  0
    6.3275  -14.0258   26.1128 C   0  0  0  0  0  0  0  0  0  0  0  0
    7.4317  -16.6986   23.0757 C   0  0  0  0  0  0  0  0  0  0  0  0
    7.9973  -17.7482   22.6925 O   0  0  0  0  0  0  0  0  0  0  0  0
    7.6183  -14.1220   19.8404 C   0  0  0  0  0  0  0  0  0  0  0  0
    8.8477  -14.1618   20.6863 C   0  0  1  0  0  0  0  0  0  0  0  0
    8.8300  -12.9488   21.5967 C   0  0  0  0  0  0  0  0  0  0  0  0
    8.9428  -15.3740   21.5546 C   0  0  2  0  0  0  0  0  0  0  0  0
    7.9351  -15.4820   22.5583 N   0  0  0  0  0  0  0  0  0  0  0  0
   10.2892  -15.3508   22.2389 C   0  0  0  0  0  0  0  0  0  0  0  0
   11.1159  -14.4553   21.9359 O   0  0  0  0  0  0  0  0  0  0  0  0
   11.9992  -15.0803   27.1184 C   0  0  0  0  0  0  0  0  0  0  0  0
   10.9921  -14.2437   26.3607 C   0  0  2  0  0  0  0  0  0  0  0  0
    9.9092  -13.6594   27.2181 C   0  0  0  0  0  0  0  0  0  0  0  0
   10.5831  -14.7909   25.0531 C   0  0  0  0  0  0  0  0  0  0  0  0
   11.2234  -15.9894   24.5084 C   0  0  2  0  0  0  0  0  0  0  0  0
   10.6172  -16.3291   23.2132 N   0  0  0  0  0  0  0  0  0  0  0  0
   11.4627  -17.1446   25.3623 C   0  0  0  0  0  0  0  0  0  0  0  0
   12.6235  -17.4004   26.0691 O   0  0  0  0  0  0  0  0  0  0  0  0
   10.5731  -18.0185   25.5044 O   0  0  0  0  0  0  0  0  0  0  0  0
  2  1  1  1
  2  3  1  0
  2 13  1  0
  3  4  1  0
  4  5  2  0
  4 12  1  0
  5  6  1  0
  6  7  1  0
  7  8  2  0
  8  9  1  0
 10  9  2  0
 11 10  1  0
 12 11  2  0
 12  7  1  0
 13 19  1  0
 14 13  2  0
 16 15  1  1
 16 17  1  0
 18 16  1  0
 18 19  1  1
 20 27  1  0
 20 18  1  0
 21 20  2  0
 23 22  1  1
 23 24  1  0
 25 23  1  0
 26 25  1  1
 26 27  1  0
 28 26  1  0
 28 29  1  0
 30 28  2  0
M  END
$$$$
