WVL.pdb
     RDKit          3D

 30 31  0  0  1  0  0  0  0  0999 V2000
    7.5897  -17.8371   21.6533 N   0  0  0  0  0  0  0  0  0  0  0  0
    8.3921  -16.7866   22.2227 C   0  0  1  0  0  0  0  0  0  0  0  0
    7.5555  -15.5688   22.4337 C   0  0  0  0  0  0  0  0  0  0  0  0
    7.1752  -14.9305   21.1787 C   0  0  0  0  0  0  0  0  0  0  0  0
    5.9727  -15.0873   20.4869 C   0  0  0  0  0  0  0  0  0  0  0  0
    5.9561  -14.3165   19.3966 N   0  0  0  0  0  0  0  0  0  0  0  0
    7.1427  -13.6520   19.3649 C   0  0  0  0  0  0  0  0  0  0  0  0
    7.6652  -12.7350   18.4622 C   0  0  0  0  0  0  0  0  0  0  0  0
    8.9207  -12.1869   18.6272 C   0  0  0  0  0  0  0  0  0  0  0  0
    9.6853  -12.5531   19.7141 C   0  0  0  0  0  0  0  0  0  0  0  0
    9.1828  -13.4566   20.6132 C   0  0  0  0  0  0  0  0  0  0  0  0
    7.9184  -14.0080   20.4489 C   0  0  0  0  0  0  0  0  0  0  0  0
    8.9926  -17.2959   23.4798 C   0  0  0  0  0  0  0  0  0  0  0  0
    8.4080  -18.2035   24.1144 O   0  0  0  0  0  0  0  0  0  0  0  0
   13.3878  -18.6130   25.0328 C   0  0  0  0  0  0  0  0  0  0  0  0
   12.4053  -17.9309   24.1394 C   0  0  1  0  0  0  0  0  0  0  0  0
   12.0935  -18.8647   22.9856 C   0  0  0  0  0  0  0  0  0  0  0  0
   11.1123  -17.5970   24.8094 C   0  0  2  0  0  0  0  0  0  0  0  0
   10.2068  -16.8200   24.0279 N   0  0  0  0  0  0  0  0  0  0  0  0
   11.4275  -16.8271   26.0702 C   0  0  0  0  0  0  0  0  0  0  0  0
   11.8059  -17.4516   27.0918 O   0  0  0  0  0  0  0  0  0  0  0  0
    7.5557  -14.2428   28.0399 C   0  0  0  0  0  0  0  0  0  0  0  0
    8.1930  -13.4123   26.9480 C   0  0  2  0  0  0  0  0  0  0  0  0
    7.2128  -12.6713   26.0881 C   0  0  0  0  0  0  0  0  0  0  0  0
    9.3310  -14.0517   26.2604 C   0  0  0  0  0  0  0  0  0  0  0  0
   10.3884  -14.7187   27.0220 C   0  0  2  0  0  0  0  0  0  0  0  0
   11.2983  -15.4142   26.1007 N   0  0  0  0  0  0  0  0  0  0  0  0
   10.0588  -15.4912   28.2117 C   0  0  0  0  0  0  0  0  0  0  0  0
    9.5280  -16.7682   28.2246 O   0  0  0  0  0  0  0  0  0  0  0  0
   10.2499  -15.0042   29.3525 O   0  0  0  0  0  0  0  0  0  0  0  0
  2  1  1  1
  2  3  1  0
  2 13  1  0
  3  4  1  0
  4  5  2  0
  4 12  1  0
  5  6  1  0
  6  7  1  0
  7  8  2  0
  8  9  1  0
 10  9  2  0
 11 10  1  0
 12 11  2  0
 12  7  1  0
 13 19  1  0
 14 13  2  0
 16 15  1  1
 16 17  1  0
 18 16  1  0
 18 19  1  6
 20 27  1  0
 20 18  1  0
 21 20  2  0
 23 22  1  6
 23 24  1  0
 25 23  1  0
 26 25  1  6
 26 27  1  0
 28 26  1  0
 28 29  1  0
 30 28  2  0
M  END
$$$$
