WVL.pdb
     RDKit          3D

 30 31  0  0  1  0  0  0  0  0999 V2000
    7.8760  -20.2034   26.3088 N   0  0  0  0  0  0  0  0  0  0  0  0
    7.8142  -18.8261   25.8952 C   0  0  1  0  0  0  0  0  0  0  0  0
    9.1429  -18.1772   26.0970 C   0  0  0  0  0  0  0  0  0  0  0  0
    9.3212  -17.6853   27.4584 C   0  0  0  0  0  0  0  0  0  0  0  0
    9.6572  -18.4367   28.5861 C   0  0  0  0  0  0  0  0  0  0  0  0
    9.7756  -17.6471   29.6564 N   0  0  0  0  0  0  0  0  0  0  0  0
    9.5184  -16.3776   29.2407 C   0  0  0  0  0  0  0  0  0  0  0  0
    9.4909  -15.1686   29.9236 C   0  0  0  0  0  0  0  0  0  0  0  0
    9.1887  -13.9815   29.2884 C   0  0  0  0  0  0  0  0  0  0  0  0
    8.9046  -13.9849   27.9396 C   0  0  0  0  0  0  0  0  0  0  0  0
    8.9283  -15.1701   27.2527 C   0  0  0  0  0  0  0  0  0  0  0  0
    9.2337  -16.3656   27.8907 C   0  0  0  0  0  0  0  0  0  0  0  0
    7.3657  -18.7896   24.4818 C   0  0  0  0  0  0  0  0  0  0  0  0
    7.7208  -19.7033   23.7025 O   0  0  0  0  0  0  0  0  0  0  0  0
    5.6487  -15.8861   20.7771 C   0  0  0  0  0  0  0  0  0  0  0  0
    5.4515  -16.5327   22.1082 C   0  0  1  0  0  0  0  0  0  0  0  0
    4.3346  -17.5502   21.9745 C   0  0  0  0  0  0  0  0  0  0  0  0
    6.6588  -17.2544   22.6124 C   0  0  2  0  0  0  0  0  0  0  0  0
    6.5466  -17.7735   23.9361 N   0  0  0  0  0  0  0  0  0  0  0  0
    7.8224  -16.2917   22.5806 C   0  0  0  0  0  0  0  0  0  0  0  0
    8.2788  -15.9176   21.4720 O   0  0  0  0  0  0  0  0  0  0  0  0
    6.6433  -13.1862   24.4108 C   0  0  0  0  0  0  0  0  0  0  0  0
    7.7321  -13.6755   25.3400 C   0  0  2  0  0  0  0  0  0  0  0  0
    7.6275  -13.1489   26.7404 C   0  0  0  0  0  0  0  0  0  0  0  0
    9.0823  -13.7270   24.7475 C   0  0  0  0  0  0  0  0  0  0  0  0
    9.4536  -14.7967   23.8197 C   0  0  2  0  0  0  0  0  0  0  0  0
    8.3939  -15.8148   23.7888 N   0  0  0  0  0  0  0  0  0  0  0  0
   10.7987  -15.3542   23.8445 C   0  0  0  0  0  0  0  0  0  0  0  0
   11.1162  -16.6931   23.9825 O   0  0  0  0  0  0  0  0  0  0  0  0
   11.7959  -14.5995   23.7378 O   0  0  0  0  0  0  0  0  0  0  0  0
  2  1  1  6
  2  3  1  0
  2 13  1  0
  3  4  1  0
  4  5  2  0
  4 12  1  0
  5  6  1  0
  6  7  1  0
  7  8  2  0
  8  9  1  0
 10  9  2  0
 11 10  1  0
 12 11  2  0
 12  7  1  0
 13 19  1  0
 14 13  2  0
 16 15  1  6
 16 17  1  0
 18 16  1  0
 18 19  1  1
 20 27  1  0
 20 18  1  0
 21 20  2  0
 23 22  1  6
 23 24  1  0
 25 23  1  0
 26 25  1  1
 26 27  1  0
 28 26  1  0
 28 29  1  0
 30 28  2  0
M  END
$$$$
