WVL.pdb
     RDKit          3D

 30 31  0  0  1  0  0  0  0  0999 V2000
    5.8831  -18.4175   24.5912 N   0  0  0  0  0  0  0  0  0  0  0  0
    6.3030  -17.0424   24.5226 C   0  0  1  0  0  0  0  0  0  0  0  0
    6.8132  -16.6022   25.8542 C   0  0  0  0  0  0  0  0  0  0  0  0
    6.3428  -15.2704   26.2181 C   0  0  0  0  0  0  0  0  0  0  0  0
    5.0519  -14.9140   26.6127 C   0  0  0  0  0  0  0  0  0  0  0  0
    4.9957  -13.6133   26.9097 N   0  0  0  0  0  0  0  0  0  0  0  0
    6.2436  -13.1091   26.7120 C   0  0  0  0  0  0  0  0  0  0  0  0
    6.7562  -11.8264   26.8562 C   0  0  0  0  0  0  0  0  0  0  0  0
    8.0775  -11.5366   26.5835 C   0  0  0  0  0  0  0  0  0  0  0  0
    8.9197  -12.5403   26.1556 C   0  0  0  0  0  0  0  0  0  0  0  0
    8.4281  -13.8107   26.0091 C   0  0  0  0  0  0  0  0  0  0  0  0
    7.0985  -14.1040   26.2846 C   0  0  0  0  0  0  0  0  0  0  0  0
    7.3207  -16.9248   23.4500 C   0  0  0  0  0  0  0  0  0  0  0  0
    7.8409  -17.9636   22.9822 O   0  0  0  0  0  0  0  0  0  0  0  0
    9.6317  -14.4517   19.8530 C   0  0  0  0  0  0  0  0  0  0  0  0
    8.5467  -14.5364   20.8749 C   0  0  1  0  0  0  0  0  0  0  0  0
    7.2645  -14.9292   20.1662 C   0  0  0  0  0  0  0  0  0  0  0  0
    8.8005  -15.5524   21.9406 C   0  0  2  0  0  0  0  0  0  0  0  0
    7.7578  -15.6955   22.9033 N   0  0  0  0  0  0  0  0  0  0  0  0
   10.0633  -15.1563   22.6687 C   0  0  0  0  0  0  0  0  0  0  0  0
   10.4036  -13.9478   22.6936 O   0  0  0  0  0  0  0  0  0  0  0  0
   10.4702  -14.8693   27.7563 C   0  0  0  0  0  0  0  0  0  0  0  0
    9.7798  -14.7282   26.4177 C   0  0  2  0  0  0  0  0  0  0  0  0
    8.4224  -14.0946   26.4902 C   0  0  0  0  0  0  0  0  0  0  0  0
    9.9269  -15.8849   25.5139 C   0  0  0  0  0  0  0  0  0  0  0  0
   11.1615  -16.0910   24.7547 C   0  0  2  0  0  0  0  0  0  0  0  0
   10.8567  -16.1378   23.3176 N   0  0  0  0  0  0  0  0  0  0  0  0
   12.1245  -17.0970   25.1807 C   0  0  0  0  0  0  0  0  0  0  0  0
   13.1081  -16.9206   26.1367 O   0  0  0  0  0  0  0  0  0  0  0  0
   12.1085  -18.2422   24.6673 O   0  0  0  0  0  0  0  0  0  0  0  0
  2  1  1  1
  2  3  1  0
  2 13  1  0
  3  4  1  0
  4  5  2  0
  4 12  1  0
  5  6  1  0
  6  7  1  0
  7  8  2  0
  8  9  1  0
 10  9  2  0
 11 10  1  0
 12 11  2  0
 12  7  1  0
 13 19  1  0
 14 13  2  0
 16 15  1  6
 16 17  1  0
 18 16  1  0
 18 19  1  1
 20 27  1  0
 20 18  1  0
 21 20  2  0
 23 22  1  1
 23 24  1  0
 25 23  1  0
 26 25  1  1
 26 27  1  0
 28 26  1  0
 28 29  1  0
 30 28  2  0
M  END
$$$$
