WVL.pdb
     RDKit          3D

 30 31  0  0  1  0  0  0  0  0999 V2000
    7.3192  -19.8916   21.8651 N   0  0  0  0  0  0  0  0  0  0  0  0
    7.0679  -18.7945   22.7624 C   0  0  1  0  0  0  0  0  0  0  0  0
    7.4340  -19.1861   24.1552 C   0  0  0  0  0  0  0  0  0  0  0  0
    7.2731  -18.0888   25.1025 C   0  0  0  0  0  0  0  0  0  0  0  0
    6.1969  -17.2036   25.1879 C   0  0  0  0  0  0  0  0  0  0  0  0
    6.3701  -16.3528   26.2025 N   0  0  0  0  0  0  0  0  0  0  0  0
    7.5564  -16.6718   26.7869 C   0  0  0  0  0  0  0  0  0  0  0  0
    8.2333  -16.1199   27.8667 C   0  0  0  0  0  0  0  0  0  0  0  0
    9.4538  -16.6082   28.2863 C   0  0  0  0  0  0  0  0  0  0  0  0
   10.0254  -17.6722   27.6221 C   0  0  0  0  0  0  0  0  0  0  0  0
    9.3691  -18.2271   26.5552 C   0  0  0  0  0  0  0  0  0  0  0  0
    8.1397  -17.7374   26.1327 C   0  0  0  0  0  0  0  0  0  0  0  0
    7.8306  -17.6187   22.2769 C   0  0  0  0  0  0  0  0  0  0  0  0
    8.9962  -17.7789   21.8477 O   0  0  0  0  0  0  0  0  0  0  0  0
    7.8572  -12.9085   20.6538 C   0  0  0  0  0  0  0  0  0  0  0  0
    7.1237  -14.1240   21.1154 C   0  0  1  0  0  0  0  0  0  0  0  0
    6.4419  -14.7458   19.9116 C   0  0  0  0  0  0  0  0  0  0  0  0
    8.0062  -15.1669   21.7205 C   0  0  2  0  0  0  0  0  0  0  0  0
    7.3259  -16.2972   22.2629 N   0  0  0  0  0  0  0  0  0  0  0  0
    8.7998  -14.5174   22.8295 C   0  0  0  0  0  0  0  0  0  0  0  0
    8.7577  -13.2696   22.9642 O   0  0  0  0  0  0  0  0  0  0  0  0
    7.3500  -12.8805   27.2533 C   0  0  0  0  0  0  0  0  0  0  0  0
    8.5521  -13.1131   26.3649 C   0  0  2  0  0  0  0  0  0  0  0  0
    8.9291  -11.9331   25.5196 C   0  0  0  0  0  0  0  0  0  0  0  0
    8.6041  -14.4384   25.7187 C   0  0  0  0  0  0  0  0  0  0  0  0
    9.8409  -14.9255   25.1056 C   0  0  2  0  0  0  0  0  0  0  0  0
    9.5842  -15.3073   23.7096 N   0  0  0  0  0  0  0  0  0  0  0  0
   10.6926  -15.8655   25.8211 C   0  0  0  0  0  0  0  0  0  0  0  0
   10.8632  -17.2016   25.5077 O   0  0  0  0  0  0  0  0  0  0  0  0
   11.3513  -15.4853   26.8195 O   0  0  0  0  0  0  0  0  0  0  0  0
  2  1  1  6
  2  3  1  0
  2 13  1  0
  3  4  1  0
  4  5  2  0
  4 12  1  0
  5  6  1  0
  6  7  1  0
  7  8  2  0
  8  9  1  0
 10  9  2  0
 11 10  1  0
 12 11  2  0
 12  7  1  0
 13 19  1  0
 14 13  2  0
 16 15  1  6
 16 17  1  0
 18 16  1  0
 18 19  1  1
 20 27  1  0
 20 18  1  0
 21 20  2  0
 23 22  1  6
 23 24  1  0
 25 23  1  0
 26 25  1  1
 26 27  1  0
 28 26  1  0
 28 29  1  0
 30 28  2  0
M  END
$$$$
