WVL.pdb
     RDKit          3D

 30 31  0  0  1  0  0  0  0  0999 V2000
    5.8789  -17.9743   24.7381 N   0  0  0  0  0  0  0  0  0  0  0  0
    6.5672  -16.7176   24.6004 C   0  0  1  0  0  0  0  0  0  0  0  0
    6.9849  -16.2198   25.9439 C   0  0  0  0  0  0  0  0  0  0  0  0
    6.3592  -14.9472   26.2852 C   0  0  0  0  0  0  0  0  0  0  0  0
    5.0972  -14.7564   26.8510 C   0  0  0  0  0  0  0  0  0  0  0  0
    4.8714  -13.4577   27.0640 N   0  0  0  0  0  0  0  0  0  0  0  0
    5.9784  -12.7899   26.6405 C   0  0  0  0  0  0  0  0  0  0  0  0
    6.2888  -11.4365   26.6155 C   0  0  0  0  0  0  0  0  0  0  0  0
    7.4918  -10.9755   26.1213 C   0  0  0  0  0  0  0  0  0  0  0  0
    8.4174  -11.8746   25.6366 C   0  0  0  0  0  0  0  0  0  0  0  0
    8.1251  -13.2130   25.6552 C   0  0  0  0  0  0  0  0  0  0  0  0
    6.9149  -13.6784   26.1537 C   0  0  0  0  0  0  0  0  0  0  0  0
    7.7132  -16.9188   23.6805 C   0  0  0  0  0  0  0  0  0  0  0  0
    8.1385  -18.0789   23.4760 O   0  0  0  0  0  0  0  0  0  0  0  0
   10.2111  -15.3265   19.7286 C   0  0  0  0  0  0  0  0  0  0  0  0
    9.1912  -15.1172   20.7985 C   0  0  1  0  0  0  0  0  0  0  0  0
    7.8206  -15.3502   20.1920 C   0  0  0  0  0  0  0  0  0  0  0  0
    9.3340  -16.0490   21.9578 C   0  0  2  0  0  0  0  0  0  0  0  0
    8.3773  -15.8711   23.0006 N   0  0  0  0  0  0  0  0  0  0  0  0
   10.7123  -15.8534   22.5439 C   0  0  0  0  0  0  0  0  0  0  0  0
   11.6564  -16.5801   22.1469 O   0  0  0  0  0  0  0  0  0  0  0  0
   10.8411  -16.1946   27.7727 C   0  0  0  0  0  0  0  0  0  0  0  0
   10.8419  -14.7504   27.3227 C   0  0  2  0  0  0  0  0  0  0  0  0
   10.1570  -13.8110   28.2703 C   0  0  0  0  0  0  0  0  0  0  0  0
   10.5905  -14.5445   25.8836 C   0  0  0  0  0  0  0  0  0  0  0  0
   11.4440  -15.1757   24.8756 C   0  0  2  0  0  0  0  0  0  0  0  0
   10.9389  -14.8602   23.5318 N   0  0  0  0  0  0  0  0  0  0  0  0
   11.8604  -16.5624   25.0324 C   0  0  0  0  0  0  0  0  0  0  0  0
   13.1590  -17.0001   25.2185 O   0  0  0  0  0  0  0  0  0  0  0  0
   11.0086  -17.4837   25.0017 O   0  0  0  0  0  0  0  0  0  0  0  0
  2  1  1  1
  2  3  1  0
  2 13  1  0
  3  4  1  0
  4  5  2  0
  4 12  1  0
  5  6  1  0
  6  7  1  0
  7  8  2  0
  8  9  1  0
 10  9  2  0
 11 10  1  0
 12 11  2  0
 12  7  1  0
 13 19  1  0
 14 13  2  0
 16 15  1  6
 16 17  1  0
 18 16  1  0
 18 19  1  1
 20 27  1  0
 20 18  1  0
 21 20  2  0
 23 22  1  1
 23 24  1  0
 25 23  1  0
 26 25  1  1
 26 27  1  0
 28 26  1  0
 28 29  1  0
 30 28  2  0
M  END
$$$$
