YWN.pdb
     RDKit          3D

 35 37  0  0  1  0  0  0  0  0999 V2000
   23.5501  -13.3497  -19.9160 O   0  0  0  0  0  0  0  0  0  0  0  0
   23.5637  -14.4252  -19.0575 C   0  0  0  0  0  0  0  0  0  0  0  0
   23.0517  -15.6205  -19.4855 C   0  0  0  0  0  0  0  0  0  0  0  0
   23.0689  -16.6998  -18.6193 C   0  0  0  0  0  0  0  0  0  0  0  0
   23.5970  -16.5277  -17.3690 C   0  0  0  0  0  0  0  0  0  0  0  0
   23.6015  -17.7152  -16.4534 C   0  0  0  0  0  0  0  0  0  0  0  0
   25.0102  -18.1998  -16.3805 C   0  0  2  0  0  0  0  0  0  0  0  0
   25.4758  -18.7968  -17.6123 N   0  0  0  0  0  0  0  0  0  0  0  0
   25.2240  -19.1591  -15.2722 C   0  0  0  0  0  0  0  0  0  0  0  0
   24.9915  -20.3944  -15.3833 O   0  0  0  0  0  0  0  0  0  0  0  0
   24.1142  -15.3409  -16.9199 C   0  0  0  0  0  0  0  0  0  0  0  0
   24.0959  -14.2671  -17.7856 C   0  0  0  0  0  0  0  0  0  0  0  0
   25.7135  -18.7101  -14.0033 N   0  0  0  0  0  0  0  0  0  0  0  0
   25.9427  -19.7074  -12.9270 C   0  0  1  0  0  0  0  0  0  0  0  0
   26.9104  -19.1343  -11.9321 C   0  0  0  0  0  0  0  0  0  0  0  0
   27.4037  -20.0658  -10.9118 C   0  0  0  0  0  0  0  0  0  0  0  0
   27.9151  -21.3420  -10.9949 C   0  0  0  0  0  0  0  0  0  0  0  0
   28.2167  -21.8048   -9.7751 N   0  0  0  0  0  0  0  0  0  0  0  0
   27.9182  -20.8648   -8.8679 C   0  0  0  0  0  0  0  0  0  0  0  0
   28.0543  -20.8792   -7.4746 C   0  0  0  0  0  0  0  0  0  0  0  0
   27.6720  -19.7759   -6.7600 C   0  0  0  0  0  0  0  0  0  0  0  0
   27.1583  -18.6731   -7.4430 C   0  0  0  0  0  0  0  0  0  0  0  0
   27.0287  -18.6658   -8.8037 C   0  0  0  0  0  0  0  0  0  0  0  0
   27.4157  -19.7843   -9.5421 C   0  0  0  0  0  0  0  0  0  0  0  0
   24.6192  -19.9510  -12.3347 C   0  0  0  0  0  0  0  0  0  0  0  0
   23.8337  -19.0094  -12.0868 O   0  0  0  0  0  0  0  0  0  0  0  0
   20.9497  -21.0378  -13.1867 N   0  0  0  0  0  0  0  0  0  0  0  0
   21.2357  -22.3810  -12.8476 C   0  0  0  0  0  0  0  0  0  0  0  0
   20.6480  -23.3165  -13.4207 O   0  0  0  0  0  0  0  0  0  0  0  0
   22.2441  -22.6649  -11.8065 C   0  0  0  0  0  0  0  0  0  0  0  0
   22.8873  -21.3633  -11.3120 C   0  0  2  0  0  0  0  0  0  0  0  0
   24.1594  -21.2789  -12.0159 N   0  0  0  0  0  0  0  0  0  0  0  0
   23.0406  -21.5297   -9.8528 C   0  0  0  0  0  0  0  0  0  0  0  0
   21.9535  -21.4502   -9.0215 O   0  0  0  0  0  0  0  0  0  0  0  0
   24.1675  -21.7444   -9.3582 O   0  0  0  0  0  0  0  0  0  0  0  0
  2  3  2  0
  2  1  1  0
  4  3  1  0
  5  4  2  0
  6  7  1  0
  6  5  1  0
  7  8  1  6
  9  7  1  0
  9 10  2  0
 11  5  1  0
 11 12  2  0
 12  2  1  0
 13  9  1  0
 14 13  1  0
 14 25  1  0
 15 16  1  0
 14 15  1  1
 16 24  1  0
 17 18  1  0
 17 16  2  0
 18 19  1  0
 19 24  2  0
 19 20  1  0
 20 21  2  0
 21 22  1  0
 23 22  2  0
 24 23  1  0
 25 32  1  0
 26 25  2  0
 28 27  1  0
 29 28  2  0
 30 28  1  0
 31 30  1  6
 32 31  1  0
 33 31  1  0
 34 33  1  0
 35 33  2  0
M  END
$$$$
