YWN.pdb
     RDKit          3D

 35 37  0  0  1  0  0  0  0  0999 V2000
   29.6906  -17.0779  -19.2450 O   0  0  0  0  0  0  0  0  0  0  0  0
   29.3403  -17.7436  -18.0926 C   0  0  0  0  0  0  0  0  0  0  0  0
   29.0299  -19.0749  -18.1653 C   0  0  0  0  0  0  0  0  0  0  0  0
   28.6798  -19.7407  -17.0036 C   0  0  0  0  0  0  0  0  0  0  0  0
   28.6576  -19.0400  -15.8287 C   0  0  0  0  0  0  0  0  0  0  0  0
   28.2744  -19.7886  -14.5871 C   0  0  0  0  0  0  0  0  0  0  0  0
   26.7908  -19.9399  -14.6139 C   0  0  2  0  0  0  0  0  0  0  0  0
   26.0869  -18.6791  -14.6868 N   0  0  0  0  0  0  0  0  0  0  0  0
   26.2776  -20.7093  -13.4567 C   0  0  0  0  0  0  0  0  0  0  0  0
   26.5412  -21.9301  -13.2769 O   0  0  0  0  0  0  0  0  0  0  0  0
   28.9640  -17.7079  -15.7330 C   0  0  0  0  0  0  0  0  0  0  0  0
   29.3129  -17.0472  -16.8925 C   0  0  0  0  0  0  0  0  0  0  0  0
   25.4431  -20.0820  -12.4762 N   0  0  0  0  0  0  0  0  0  0  0  0
   24.8814  -20.9066  -11.3763 C   0  0  1  0  0  0  0  0  0  0  0  0
   25.4526  -20.4303  -10.0718 C   0  0  0  0  0  0  0  0  0  0  0  0
   26.8482  -20.8003   -9.8128 C   0  0  0  0  0  0  0  0  0  0  0  0
   27.7909  -21.4475  -10.5808 C   0  0  0  0  0  0  0  0  0  0  0  0
   28.9372  -21.5786   -9.9011 N   0  0  0  0  0  0  0  0  0  0  0  0
   28.7871  -21.0320   -8.6869 C   0  0  0  0  0  0  0  0  0  0  0  0
   29.6955  -20.9232   -7.6272 C   0  0  0  0  0  0  0  0  0  0  0  0
   29.2944  -20.3104   -6.4707 C   0  0  0  0  0  0  0  0  0  0  0  0
   27.9930  -19.8147   -6.3850 C   0  0  0  0  0  0  0  0  0  0  0  0
   27.1114  -19.9241   -7.4238 C   0  0  0  0  0  0  0  0  0  0  0  0
   27.5096  -20.5461   -8.6073 C   0  0  0  0  0  0  0  0  0  0  0  0
   23.4260  -20.7104  -11.4476 C   0  0  0  0  0  0  0  0  0  0  0  0
   22.8843  -19.6819  -10.9847 O   0  0  0  0  0  0  0  0  0  0  0  0
   19.1526  -18.6317  -12.5077 N   0  0  0  0  0  0  0  0  0  0  0  0
   19.6697  -19.7095  -13.2639 C   0  0  0  0  0  0  0  0  0  0  0  0
   18.9546  -20.2998  -14.0939 O   0  0  0  0  0  0  0  0  0  0  0  0
   21.0718  -20.1274  -13.0620 C   0  0  0  0  0  0  0  0  0  0  0  0
   21.1427  -21.3302  -12.1128 C   0  0  2  0  0  0  0  0  0  0  0  0
   22.5543  -21.6837  -12.0552 N   0  0  0  0  0  0  0  0  0  0  0  0
   20.3072  -22.3748  -12.7383 C   0  0  0  0  0  0  0  0  0  0  0  0
   19.0084  -22.5623  -12.3421 O   0  0  0  0  0  0  0  0  0  0  0  0
   20.7775  -23.1027  -13.6381 O   0  0  0  0  0  0  0  0  0  0  0  0
  2  3  2  0
  2  1  1  0
  4  3  1  0
  5  4  2  0
  6  7  1  0
  6  5  1  0
  7  8  1  1
  9  7  1  0
  9 10  2  0
 11  5  1  0
 11 12  2  0
 12  2  1  0
 13  9  1  0
 14 13  1  0
 14 25  1  0
 15 16  1  0
 14 15  1  1
 16 24  1  0
 17 18  1  0
 17 16  2  0
 18 19  1  0
 19 24  2  0
 19 20  1  0
 20 21  2  0
 21 22  1  0
 23 22  2  0
 24 23  1  0
 25 32  1  0
 26 25  2  0
 28 27  1  0
 29 28  2  0
 30 28  1  0
 31 30  1  6
 32 31  1  0
 33 31  1  0
 34 33  1  0
 35 33  2  0
M  END
$$$$
