YWN.pdb
     RDKit          3D

 35 37  0  0  1  0  0  0  0  0999 V2000
   30.3707  -17.4877  -20.1667 O   0  0  0  0  0  0  0  0  0  0  0  0
   29.5112  -18.2960  -19.4584 C   0  0  0  0  0  0  0  0  0  0  0  0
   29.2006  -17.9620  -18.1676 C   0  0  0  0  0  0  0  0  0  0  0  0
   28.3345  -18.7769  -17.4597 C   0  0  0  0  0  0  0  0  0  0  0  0
   27.8239  -19.8847  -18.0793 C   0  0  0  0  0  0  0  0  0  0  0  0
   26.8886  -20.7480  -17.2866 C   0  0  0  0  0  0  0  0  0  0  0  0
   27.7277  -21.5432  -16.3442 C   0  0  2  0  0  0  0  0  0  0  0  0
   28.1427  -22.8192  -16.8829 N   0  0  0  0  0  0  0  0  0  0  0  0
   27.0607  -21.7672  -15.0406 C   0  0  0  0  0  0  0  0  0  0  0  0
   26.2178  -22.6874  -14.8537 O   0  0  0  0  0  0  0  0  0  0  0  0
   28.1213  -20.2380  -19.3694 C   0  0  0  0  0  0  0  0  0  0  0  0
   28.9846  -19.4237  -20.0725 C   0  0  0  0  0  0  0  0  0  0  0  0
   27.3540  -20.9280  -13.9177 N   0  0  0  0  0  0  0  0  0  0  0  0
   26.6467  -21.1704  -12.6346 C   0  0  1  0  0  0  0  0  0  0  0  0
   27.4552  -20.5802  -11.5154 C   0  0  0  0  0  0  0  0  0  0  0  0
   26.7583  -20.4330  -10.2329 C   0  0  0  0  0  0  0  0  0  0  0  0
   25.4283  -20.2631   -9.9176 C   0  0  0  0  0  0  0  0  0  0  0  0
   25.2726  -20.1551   -8.5920 N   0  0  0  0  0  0  0  0  0  0  0  0
   26.4734  -20.2484   -8.0046 C   0  0  0  0  0  0  0  0  0  0  0  0
   26.8223  -20.1954   -6.6498 C   0  0  0  0  0  0  0  0  0  0  0  0
   28.1399  -20.3185   -6.2995 C   0  0  0  0  0  0  0  0  0  0  0  0
   29.0927  -20.4920   -7.3039 C   0  0  0  0  0  0  0  0  0  0  0  0
   28.7448  -20.5433   -8.6248 C   0  0  0  0  0  0  0  0  0  0  0  0
   27.4051  -20.4196   -8.9932 C   0  0  0  0  0  0  0  0  0  0  0  0
   25.3402  -20.5118  -12.7805 C   0  0  0  0  0  0  0  0  0  0  0  0
   25.1957  -19.5074  -13.5123 O   0  0  0  0  0  0  0  0  0  0  0  0
   20.5558  -20.1344  -13.9722 N   0  0  0  0  0  0  0  0  0  0  0  0
   21.5098  -20.9110  -14.6705 C   0  0  0  0  0  0  0  0  0  0  0  0
   21.2723  -21.3183  -15.8224 O   0  0  0  0  0  0  0  0  0  0  0  0
   22.7963  -21.2326  -14.0202 C   0  0  0  0  0  0  0  0  0  0  0  0
   22.8867  -20.5586  -12.6454 C   0  0  2  0  0  0  0  0  0  0  0  0
   24.1652  -20.9892  -12.0966 N   0  0  0  0  0  0  0  0  0  0  0  0
   21.7274  -21.0633  -11.8827 C   0  0  0  0  0  0  0  0  0  0  0  0
   20.5542  -20.3554  -11.8429 O   0  0  0  0  0  0  0  0  0  0  0  0
   21.8043  -22.1447  -11.2619 O   0  0  0  0  0  0  0  0  0  0  0  0
  2  3  2  0
  2  1  1  0
  4  3  1  0
  5  4  2  0
  6  7  1  0
  6  5  1  0
  7  8  1  6
  9  7  1  0
  9 10  2  0
 11  5  1  0
 11 12  2  0
 12  2  1  0
 13  9  1  0
 14 13  1  0
 14 25  1  0
 15 16  1  0
 14 15  1  1
 16 24  1  0
 17 18  1  0
 17 16  2  0
 18 19  1  0
 19 24  2  0
 19 20  1  0
 20 21  2  0
 21 22  1  0
 23 22  2  0
 24 23  1  0
 25 32  1  0
 26 25  2  0
 28 27  1  0
 29 28  2  0
 30 28  1  0
 31 30  1  6
 32 31  1  0
 33 31  1  0
 34 33  1  0
 35 33  2  0
M  END
$$$$
