YWN.pdb
     RDKit          3D

 35 37  0  0  1  0  0  0  0  0999 V2000
   28.3955  -24.6220  -20.1137 O   0  0  0  0  0  0  0  0  0  0  0  0
   28.1486  -24.2773  -18.8045 C   0  0  0  0  0  0  0  0  0  0  0  0
   28.7127  -23.1353  -18.3027 C   0  0  0  0  0  0  0  0  0  0  0  0
   28.4603  -22.7918  -16.9860 C   0  0  0  0  0  0  0  0  0  0  0  0
   27.6568  -23.6088  -16.2386 C   0  0  0  0  0  0  0  0  0  0  0  0
   27.4020  -23.2103  -14.8156 C   0  0  0  0  0  0  0  0  0  0  0  0
   25.9906  -22.7332  -14.7462 C   0  0  2  0  0  0  0  0  0  0  0  0
   25.7599  -21.5147  -15.4895 N   0  0  0  0  0  0  0  0  0  0  0  0
   25.5242  -22.5408  -13.3534 C   0  0  0  0  0  0  0  0  0  0  0  0
   25.5423  -23.4637  -12.4931 O   0  0  0  0  0  0  0  0  0  0  0  0
   27.0825  -24.7560  -16.7199 C   0  0  0  0  0  0  0  0  0  0  0  0
   27.3356  -25.0956  -18.0327 C   0  0  0  0  0  0  0  0  0  0  0  0
   25.0231  -21.2706  -12.9211 N   0  0  0  0  0  0  0  0  0  0  0  0
   24.6154  -21.1032  -11.5029 C   0  0  1  0  0  0  0  0  0  0  0  0
   25.4641  -20.0345  -10.8766 C   0  0  0  0  0  0  0  0  0  0  0  0
   26.7920  -20.4593  -10.4203 C   0  0  0  0  0  0  0  0  0  0  0  0
   27.8296  -21.0983  -11.0625 C   0  0  0  0  0  0  0  0  0  0  0  0
   28.8500  -21.2966  -10.2184 N   0  0  0  0  0  0  0  0  0  0  0  0
   28.5215  -20.8036   -9.0164 C   0  0  0  0  0  0  0  0  0  0  0  0
   29.2523  -20.7730   -7.8227 C   0  0  0  0  0  0  0  0  0  0  0  0
   28.6867  -20.2034   -6.7139 C   0  0  0  0  0  0  0  0  0  0  0  0
   27.4000  -19.6724   -6.8088 C   0  0  0  0  0  0  0  0  0  0  0  0
   26.6924  -19.7053   -7.9778 C   0  0  0  0  0  0  0  0  0  0  0  0
   27.2591  -20.2827   -9.1142 C   0  0  0  0  0  0  0  0  0  0  0  0
   23.1951  -20.7259  -11.5487 C   0  0  0  0  0  0  0  0  0  0  0  0
   22.5463  -20.5045  -10.5021 O   0  0  0  0  0  0  0  0  0  0  0  0
   22.0621  -18.6608  -15.8077 N   0  0  0  0  0  0  0  0  0  0  0  0
   21.3731  -18.6345  -14.5727 C   0  0  0  0  0  0  0  0  0  0  0  0
   21.3644  -17.6035  -13.8756 O   0  0  0  0  0  0  0  0  0  0  0  0
   20.6583  -19.8442  -14.1174 C   0  0  0  0  0  0  0  0  0  0  0  0
   21.0796  -20.2117  -12.6891 C   0  0  2  0  0  0  0  0  0  0  0  0
   22.4828  -20.5873  -12.7936 N   0  0  0  0  0  0  0  0  0  0  0  0
   20.2050  -21.3352  -12.2977 C   0  0  0  0  0  0  0  0  0  0  0  0
   20.3364  -22.5639  -12.8912 O   0  0  0  0  0  0  0  0  0  0  0  0
   19.3314  -21.1770  -11.4188 O   0  0  0  0  0  0  0  0  0  0  0  0
  2  3  2  0
  2  1  1  0
  4  3  1  0
  5  4  2  0
  6  7  1  0
  6  5  1  0
  7  8  1  6
  9  7  1  0
  9 10  2  0
 11  5  1  0
 11 12  2  0
 12  2  1  0
 13  9  1  0
 14 13  1  0
 14 25  1  0
 15 16  1  0
 14 15  1  6
 16 24  1  0
 17 18  1  0
 17 16  2  0
 18 19  1  0
 19 24  2  0
 19 20  1  0
 20 21  2  0
 21 22  1  0
 23 22  2  0
 24 23  1  0
 25 32  1  0
 26 25  2  0
 28 27  1  0
 29 28  2  0
 30 28  1  0
 31 30  1  6
 32 31  1  0
 33 31  1  0
 34 33  1  0
 35 33  2  0
M  END
$$$$
