YWN.pdb
     RDKit          3D

 35 37  0  0  1  0  0  0  0  0999 V2000
   17.2777  -34.5410   -6.5330 O   0  0  0  0  0  0  0  0  0  0  0  0
   17.9208  -33.8234   -5.5504 C   0  0  0  0  0  0  0  0  0  0  0  0
   17.7102  -34.1591   -4.2401 C   0  0  0  0  0  0  0  0  0  0  0  0
   18.3604  -33.4358   -3.2554 C   0  0  0  0  0  0  0  0  0  0  0  0
   19.1874  -32.4132   -3.6323 C   0  0  0  0  0  0  0  0  0  0  0  0
   19.8776  -31.6480   -2.5429 C   0  0  0  0  0  0  0  0  0  0  0  0
   18.8445  -30.7869   -1.8979 C   0  0  2  0  0  0  0  0  0  0  0  0
   18.2526  -29.8264   -2.8021 N   0  0  0  0  0  0  0  0  0  0  0  0
   19.3638  -30.0703   -0.7100 C   0  0  0  0  0  0  0  0  0  0  0  0
   20.0481  -29.0134   -0.7947 O   0  0  0  0  0  0  0  0  0  0  0  0
   19.4123  -32.0599   -4.9369 C   0  0  0  0  0  0  0  0  0  0  0  0
   18.7632  -32.7829   -5.9161 C   0  0  0  0  0  0  0  0  0  0  0  0
   19.1031  -30.5616    0.6098 N   0  0  0  0  0  0  0  0  0  0  0  0
   19.7101  -29.8621    1.7706 C   0  0  1  0  0  0  0  0  0  0  0  0
   18.6136  -29.2713    2.6093 C   0  0  0  0  0  0  0  0  0  0  0  0
   18.1441  -27.9424    2.2025 C   0  0  0  0  0  0  0  0  0  0  0  0
   17.1357  -27.5372    1.3561 C   0  0  0  0  0  0  0  0  0  0  0  0
   17.0971  -26.2007    1.2818 N   0  0  0  0  0  0  0  0  0  0  0  0
   18.0615  -25.6943    2.0623 C   0  0  0  0  0  0  0  0  0  0  0  0
   18.4141  -24.3627    2.3126 C   0  0  0  0  0  0  0  0  0  0  0  0
   19.4538  -24.1014    3.1639 C   0  0  0  0  0  0  0  0  0  0  0  0
   20.1289  -25.1703    3.7541 C   0  0  0  0  0  0  0  0  0  0  0  0
   19.7788  -26.4680    3.5055 C   0  0  0  0  0  0  0  0  0  0  0  0
   18.7206  -26.7460    2.6402 C   0  0  0  0  0  0  0  0  0  0  0  0
   20.4656  -30.8947    2.4951 C   0  0  0  0  0  0  0  0  0  0  0  0
   20.4681  -32.0866    2.1146 O   0  0  0  0  0  0  0  0  0  0  0  0
   23.5236  -33.7654    5.0768 N   0  0  0  0  0  0  0  0  0  0  0  0
   23.8324  -33.2249    3.8066 C   0  0  0  0  0  0  0  0  0  0  0  0
   24.7714  -33.6883    3.1339 O   0  0  0  0  0  0  0  0  0  0  0  0
   23.0258  -32.1044    3.2820 C   0  0  0  0  0  0  0  0  0  0  0  0
   21.9368  -31.7093    4.2873 C   0  0  2  0  0  0  0  0  0  0  0  0
   21.2413  -30.5884    3.6701 N   0  0  0  0  0  0  0  0  0  0  0  0
   22.6570  -31.3376    5.5217 C   0  0  0  0  0  0  0  0  0  0  0  0
   23.1065  -32.3015    6.3865 O   0  0  0  0  0  0  0  0  0  0  0  0
   22.8640  -30.1358    5.7927 O   0  0  0  0  0  0  0  0  0  0  0  0
  2  3  2  0
  2  1  1  0
  4  3  1  0
  5  4  2  0
  6  7  1  0
  6  5  1  0
  7  8  1  6
  9  7  1  0
  9 10  2  0
 11  5  1  0
 11 12  2  0
 12  2  1  0
 13  9  1  0
 14 13  1  0
 14 25  1  0
 15 16  1  0
 14 15  1  1
 16 24  1  0
 17 18  1  0
 17 16  2  0
 18 19  1  0
 19 24  2  0
 19 20  1  0
 20 21  2  0
 21 22  1  0
 23 22  2  0
 24 23  1  0
 25 32  1  0
 26 25  2  0
 28 27  1  0
 29 28  2  0
 30 28  1  0
 31 30  1  6
 32 31  1  0
 33 31  1  0
 34 33  1  0
 35 33  2  0
M  END
$$$$
