YWN.pdb
     RDKit          3D

 35 37  0  0  1  0  0  0  0  0999 V2000
   14.4527  -10.2691  -23.9837 O   0  0  0  0  0  0  0  0  0  0  0  0
   15.6995  -10.2566  -23.4013 C   0  0  0  0  0  0  0  0  0  0  0  0
   16.7061  -10.9851  -23.9759 C   0  0  0  0  0  0  0  0  0  0  0  0
   17.9588  -10.9682  -23.3876 C   0  0  0  0  0  0  0  0  0  0  0  0
   18.1399  -10.2237  -22.2542 C   0  0  0  0  0  0  0  0  0  0  0  0
   19.5079  -10.2254  -21.6400 C   0  0  0  0  0  0  0  0  0  0  0  0
   19.6533  -11.5186  -20.9113 C   0  0  2  0  0  0  0  0  0  0  0  0
   18.4066  -12.2353  -20.7605 N   0  0  0  0  0  0  0  0  0  0  0  0
   20.2747  -11.3517  -19.5770 C   0  0  0  0  0  0  0  0  0  0  0  0
   19.6029  -11.3235  -18.5091 O   0  0  0  0  0  0  0  0  0  0  0  0
   17.1472   -9.4879  -21.6622 C   0  0  0  0  0  0  0  0  0  0  0  0
   15.8999   -9.5064  -22.2510 C   0  0  0  0  0  0  0  0  0  0  0  0
   21.6940  -11.2123  -19.4458 N   0  0  0  0  0  0  0  0  0  0  0  0
   22.2751  -11.0116  -18.0939 C   0  0  1  0  0  0  0  0  0  0  0  0
   23.6799  -11.5419  -18.0855 C   0  0  0  0  0  0  0  0  0  0  0  0
   24.4276  -11.3491  -16.8382 C   0  0  0  0  0  0  0  0  0  0  0  0
   24.1262  -11.6378  -15.5255 C   0  0  0  0  0  0  0  0  0  0  0  0
   25.1269  -11.2563  -14.7217 N   0  0  0  0  0  0  0  0  0  0  0  0
   26.0999  -10.7142  -15.4668 C   0  0  0  0  0  0  0  0  0  0  0  0
   27.3349  -10.1758  -15.0860 C   0  0  0  0  0  0  0  0  0  0  0  0
   28.1662   -9.6763  -16.0521 C   0  0  0  0  0  0  0  0  0  0  0  0
   27.7557   -9.7191  -17.3849 C   0  0  0  0  0  0  0  0  0  0  0  0
   26.5486  -10.2467  -17.7495 C   0  0  0  0  0  0  0  0  0  0  0  0
   25.6937  -10.7591  -16.7735 C   0  0  0  0  0  0  0  0  0  0  0  0
   22.2301   -9.5602  -17.8631 C   0  0  0  0  0  0  0  0  0  0  0  0
   22.2826   -8.7480  -18.8134 O   0  0  0  0  0  0  0  0  0  0  0  0
   19.0454   -5.3862  -17.6154 N   0  0  0  0  0  0  0  0  0  0  0  0
   20.2978   -5.8376  -17.1375 C   0  0  0  0  0  0  0  0  0  0  0  0
   21.1438   -5.0270  -16.7179 O   0  0  0  0  0  0  0  0  0  0  0  0
   20.5927   -7.2848  -17.1373 C   0  0  0  0  0  0  0  0  0  0  0  0
   21.9453   -7.5575  -16.4673 C   0  0  2  0  0  0  0  0  0  0  0  0
   22.1186   -9.0017  -16.5395 N   0  0  0  0  0  0  0  0  0  0  0  0
   21.8075   -7.0573  -15.0848 C   0  0  0  0  0  0  0  0  0  0  0  0
   22.2787   -5.8173  -14.7392 O   0  0  0  0  0  0  0  0  0  0  0  0
   21.2590   -7.7623  -14.2114 O   0  0  0  0  0  0  0  0  0  0  0  0
  2  3  2  0
  2  1  1  0
  4  3  1  0
  5  4  2  0
  6  7  1  0
  6  5  1  0
  7  8  1  1
  9  7  1  0
  9 10  2  0
 11  5  1  0
 11 12  2  0
 12  2  1  0
 13  9  1  0
 14 13  1  0
 14 25  1  0
 15 16  1  0
 14 15  1  6
 16 24  1  0
 17 18  1  0
 17 16  2  0
 18 19  1  0
 19 24  2  0
 19 20  1  0
 20 21  2  0
 21 22  1  0
 23 22  2  0
 24 23  1  0
 25 32  1  0
 26 25  2  0
 28 27  1  0
 29 28  2  0
 30 28  1  0
 31 30  1  6
 32 31  1  0
 33 31  1  0
 34 33  1  0
 35 33  2  0
M  END
$$$$
