YWN.pdb
     RDKit          3D

 35 37  0  0  1  0  0  0  0  0999 V2000
   30.0752  -15.3429  -18.2001 O   0  0  0  0  0  0  0  0  0  0  0  0
   29.1673  -16.2379  -17.6820 C   0  0  0  0  0  0  0  0  0  0  0  0
   28.8290  -17.3402  -18.4199 C   0  0  0  0  0  0  0  0  0  0  0  0
   27.9168  -18.2384  -17.8941 C   0  0  0  0  0  0  0  0  0  0  0  0
   27.3892  -17.9873  -16.6571 C   0  0  0  0  0  0  0  0  0  0  0  0
   26.4035  -18.9784  -16.1142 C   0  0  0  0  0  0  0  0  0  0  0  0
   27.1895  -20.0143  -15.3835 C   0  0  2  0  0  0  0  0  0  0  0  0
   28.0963  -20.7522  -16.2342 N   0  0  0  0  0  0  0  0  0  0  0  0
   26.3263  -20.9738  -14.6564 C   0  0  0  0  0  0  0  0  0  0  0  0
   25.8066  -21.9812  -15.2109 O   0  0  0  0  0  0  0  0  0  0  0  0
   27.7129  -16.8909  -15.9017 C   0  0  0  0  0  0  0  0  0  0  0  0
   28.6227  -15.9977  -16.4283 C   0  0  0  0  0  0  0  0  0  0  0  0
   26.0423  -20.7897  -13.2648 N   0  0  0  0  0  0  0  0  0  0  0  0
   25.0974  -21.7189  -12.5945 C   0  0  1  0  0  0  0  0  0  0  0  0
   25.7502  -22.2673  -11.3585 C   0  0  0  0  0  0  0  0  0  0  0  0
   26.3122  -21.2727  -10.4383 C   0  0  0  0  0  0  0  0  0  0  0  0
   25.7233  -20.3613   -9.5898 C   0  0  0  0  0  0  0  0  0  0  0  0
   26.6579  -19.6421   -8.9554 N   0  0  0  0  0  0  0  0  0  0  0  0
   27.8686  -20.0500   -9.3597 C   0  0  0  0  0  0  0  0  0  0  0  0
   29.1424  -19.6063   -8.9849 C   0  0  0  0  0  0  0  0  0  0  0  0
   30.2418  -20.1942   -9.5503 C   0  0  0  0  0  0  0  0  0  0  0  0
   30.0574  -21.2160  -10.4823 C   0  0  0  0  0  0  0  0  0  0  0  0
   28.8106  -21.6445  -10.8432 C   0  0  0  0  0  0  0  0  0  0  0  0
   27.6833  -21.0531  -10.2729 C   0  0  0  0  0  0  0  0  0  0  0  0
   23.9117  -20.9079  -12.2807 C   0  0  0  0  0  0  0  0  0  0  0  0
   24.0183  -19.7329  -11.8645 O   0  0  0  0  0  0  0  0  0  0  0  0
   21.1440  -17.5340  -14.5070 N   0  0  0  0  0  0  0  0  0  0  0  0
   20.9200  -18.9266  -14.6131 C   0  0  0  0  0  0  0  0  0  0  0  0
   19.8688  -19.3611  -15.1182 O   0  0  0  0  0  0  0  0  0  0  0  0
   21.9496  -19.8642  -14.1210 C   0  0  0  0  0  0  0  0  0  0  0  0
   21.5470  -20.4365  -12.7560 C   0  0  2  0  0  0  0  0  0  0  0  0
   22.5742  -21.4195  -12.4403 N   0  0  0  0  0  0  0  0  0  0  0  0
   20.2125  -21.0352  -12.9585 C   0  0  0  0  0  0  0  0  0  0  0  0
   20.0673  -22.3916  -13.0931 O   0  0  0  0  0  0  0  0  0  0  0  0
   19.1975  -20.3088  -13.0109 O   0  0  0  0  0  0  0  0  0  0  0  0
  2  3  2  0
  2  1  1  0
  4  3  1  0
  5  4  2  0
  6  7  1  0
  6  5  1  0
  7  8  1  6
  9  7  1  0
  9 10  2  0
 11  5  1  0
 11 12  2  0
 12  2  1  0
 13  9  1  0
 14 13  1  0
 14 25  1  0
 15 16  1  0
 14 15  1  1
 16 24  1  0
 17 18  1  0
 17 16  2  0
 18 19  1  0
 19 24  2  0
 19 20  1  0
 20 21  2  0
 21 22  1  0
 23 22  2  0
 24 23  1  0
 25 32  1  0
 26 25  2  0
 28 27  1  0
 29 28  2  0
 30 28  1  0
 31 30  1  6
 32 31  1  0
 33 31  1  0
 34 33  1  0
 35 33  2  0
M  END
$$$$
