VFF.pdb
     RDKit          3D

 30 31  0  0  1  0  0  0  0  0999 V2000
   16.6512   -8.4660  -18.4537 C   0  0  0  0  0  0  0  0  0  0  0  0
   16.8056   -8.5360  -16.9435 C   0  0  1  0  0  0  0  0  0  0  0  0
   15.6176   -9.2735  -16.3705 C   0  0  0  0  0  0  0  0  0  0  0  0
   18.1048   -9.2622  -16.6738 C   0  0  2  0  0  0  0  0  0  0  0  0
   18.1193  -10.5707  -17.2838 N   0  0  0  0  0  0  0  0  0  0  0  0
   18.4329   -9.3333  -15.2238 C   0  0  0  0  0  0  0  0  0  0  0  0
   18.2709  -10.4199  -14.5723 O   0  0  0  0  0  0  0  0  0  0  0  0
   18.9340   -8.1993  -14.5285 N   0  0  0  0  0  0  0  0  0  0  0  0
   19.3242   -8.2343  -13.1389 C   0  0  1  0  0  0  0  0  0  0  0  0
   20.7357   -7.6831  -13.0920 C   0  0  0  0  0  0  0  0  0  0  0  0
   21.3117   -7.6633  -11.7263 C   0  0  0  0  0  0  0  0  0  0  0  0
   21.2209   -6.5661  -10.8948 C   0  0  0  0  0  0  0  0  0  0  0  0
   21.7624   -6.5648   -9.6187 C   0  0  0  0  0  0  0  0  0  0  0  0
   22.4210   -7.6693   -9.1204 C   0  0  0  0  0  0  0  0  0  0  0  0
   22.5161   -8.7702   -9.9455 C   0  0  0  0  0  0  0  0  0  0  0  0
   21.9765   -8.7697  -11.2157 C   0  0  0  0  0  0  0  0  0  0  0  0
   18.3659   -7.4554  -12.3489 C   0  0  0  0  0  0  0  0  0  0  0  0
   17.9742   -6.3498  -12.7742 O   0  0  0  0  0  0  0  0  0  0  0  0
   17.8759   -7.9287  -11.1173 N   0  0  0  0  0  0  0  0  0  0  0  0
   16.9010   -7.1349  -10.3528 C   0  0  1  0  0  0  0  0  0  0  0  0
   15.9004   -8.0271   -9.6835 C   0  0  0  0  0  0  0  0  0  0  0  0
   14.8692   -7.2785   -8.9395 C   0  0  0  0  0  0  0  0  0  0  0  0
   14.0693   -7.9447   -8.0366 C   0  0  0  0  0  0  0  0  0  0  0  0
   13.1047   -7.2793   -7.3144 C   0  0  0  0  0  0  0  0  0  0  0  0
   12.9254   -5.9160   -7.4897 C   0  0  0  0  0  0  0  0  0  0  0  0
   13.7134   -5.2419   -8.3836 C   0  0  0  0  0  0  0  0  0  0  0  0
   14.6769   -5.9266   -9.0999 C   0  0  0  0  0  0  0  0  0  0  0  0
   17.5801   -6.1893   -9.4547 C   0  0  0  0  0  0  0  0  0  0  0  0
   17.3019   -4.8507   -9.4884 O   0  0  0  0  0  0  0  0  0  0  0  0
   18.4338   -6.5995   -8.6355 O   0  0  0  0  0  0  0  0  0  0  0  0
  2  1  1  6
  2  3  1  0
  4  2  1  0
  4  5  1  1
  6  7  2  0
  6  4  1  0
  8  6  1  0
  9  8  1  0
 10 11  1  0
  9 10  1  6
 11 12  2  0
 11 16  1  0
 12 13  1  0
 13 14  2  0
 15 14  1  0
 16 15  2  0
 17  9  1  0
 17 18  2  0
 19 17  1  0
 20 19  1  0
 20 21  1  1
 22 21  1  0
 22 23  2  0
 24 23  1  0
 25 24  2  0
 26 27  2  0
 26 25  1  0
 27 22  1  0
 28 20  1  0
 29 28  1  0
 30 28  2  0
M  END
$$$$
