VFF.pdb
     RDKit          3D

 30 31  0  0  1  0  0  0  0  0999 V2000
   25.8686  -23.7036  -16.1734 C   0  0  0  0  0  0  0  0  0  0  0  0
   26.7792  -23.1242  -17.2432 C   0  0  1  0  0  0  0  0  0  0  0  0
   26.5300  -23.8600  -18.5395 C   0  0  0  0  0  0  0  0  0  0  0  0
   26.4381  -21.6547  -17.3535 C   0  0  2  0  0  0  0  0  0  0  0  0
   27.1129  -21.0343  -18.4691 N   0  0  0  0  0  0  0  0  0  0  0  0
   26.6823  -20.9115  -16.0873 C   0  0  0  0  0  0  0  0  0  0  0  0
   27.8722  -20.7161  -15.6664 O   0  0  0  0  0  0  0  0  0  0  0  0
   25.6026  -20.4009  -15.3166 N   0  0  0  0  0  0  0  0  0  0  0  0
   25.7884  -19.6632  -14.0895 C   0  0  1  0  0  0  0  0  0  0  0  0
   25.0860  -18.3355  -14.2952 C   0  0  0  0  0  0  0  0  0  0  0  0
   25.7908  -17.4408  -15.2440 C   0  0  0  0  0  0  0  0  0  0  0  0
   26.9589  -16.7820  -14.9199 C   0  0  0  0  0  0  0  0  0  0  0  0
   27.6076  -15.9511  -15.8202 C   0  0  0  0  0  0  0  0  0  0  0  0
   27.1095  -15.7449  -17.0895 C   0  0  0  0  0  0  0  0  0  0  0  0
   25.9421  -16.3997  -17.4212 C   0  0  0  0  0  0  0  0  0  0  0  0
   25.2977  -17.2266  -16.5238 C   0  0  0  0  0  0  0  0  0  0  0  0
   25.2489  -20.4428  -12.9713 C   0  0  0  0  0  0  0  0  0  0  0  0
   24.1640  -21.0436  -13.1082 O   0  0  0  0  0  0  0  0  0  0  0  0
   25.9300  -20.5293  -11.7427 N   0  0  0  0  0  0  0  0  0  0  0  0
   25.3809  -21.3425  -10.6462 C   0  0  1  0  0  0  0  0  0  0  0  0
   26.4364  -21.6338   -9.6232 C   0  0  0  0  0  0  0  0  0  0  0  0
   26.5403  -20.5859   -8.5897 C   0  0  0  0  0  0  0  0  0  0  0  0
   25.9147  -20.7691   -7.3756 C   0  0  0  0  0  0  0  0  0  0  0  0
   25.9984  -19.8204   -6.3817 C   0  0  0  0  0  0  0  0  0  0  0  0
   26.7215  -18.6569   -6.5939 C   0  0  0  0  0  0  0  0  0  0  0  0
   27.3480  -18.4623   -7.7955 C   0  0  0  0  0  0  0  0  0  0  0  0
   27.2528  -19.4258   -8.7818 C   0  0  0  0  0  0  0  0  0  0  0  0
   24.1519  -20.7407  -10.1084 C   0  0  0  0  0  0  0  0  0  0  0  0
   23.2084  -21.4982   -9.4708 O   0  0  0  0  0  0  0  0  0  0  0  0
   23.9475  -19.5110  -10.2269 O   0  0  0  0  0  0  0  0  0  0  0  0
  2  1  1  1
  2  3  1  0
  4  2  1  0
  4  5  1  6
  6  7  2  0
  6  4  1  0
  8  6  1  0
  9  8  1  0
 10 11  1  0
  9 10  1  6
 11 12  2  0
 11 16  1  0
 12 13  1  0
 13 14  2  0
 15 14  1  0
 16 15  2  0
 17  9  1  0
 17 18  2  0
 19 17  1  0
 20 19  1  0
 20 21  1  1
 22 21  1  0
 22 23  2  0
 24 23  1  0
 25 24  2  0
 26 27  2  0
 26 25  1  0
 27 22  1  0
 28 20  1  0
 29 28  1  0
 30 28  2  0
M  END
$$$$
