VFF.pdb
     RDKit          3D

 30 31  0  0  1  0  0  0  0  0999 V2000
   27.4805  -21.0392  -19.5773 C   0  0  0  0  0  0  0  0  0  0  0  0
   26.6856  -21.3100  -18.3107 C   0  0  1  0  0  0  0  0  0  0  0  0
   25.5207  -22.2091  -18.6548 C   0  0  0  0  0  0  0  0  0  0  0  0
   27.6362  -21.9662  -17.3342 C   0  0  2  0  0  0  0  0  0  0  0  0
   28.1683  -23.2017  -17.8586 N   0  0  0  0  0  0  0  0  0  0  0  0
   27.0327  -22.1610  -15.9876 C   0  0  0  0  0  0  0  0  0  0  0  0
   26.5226  -23.2849  -15.6593 O   0  0  0  0  0  0  0  0  0  0  0  0
   27.0089  -21.1063  -15.0349 N   0  0  0  0  0  0  0  0  0  0  0  0
   26.4147  -21.2385  -13.7257 C   0  0  1  0  0  0  0  0  0  0  0  0
   27.2226  -20.3375  -12.8125 C   0  0  0  0  0  0  0  0  0  0  0  0
   26.7230  -20.3185  -11.4169 C   0  0  0  0  0  0  0  0  0  0  0  0
   25.8674  -19.3446  -10.9447 C   0  0  0  0  0  0  0  0  0  0  0  0
   25.4066  -19.3430   -9.6372 C   0  0  0  0  0  0  0  0  0  0  0  0
   25.7866  -20.3228   -8.7441 C   0  0  0  0  0  0  0  0  0  0  0  0
   26.6418  -21.2998   -9.2085 C   0  0  0  0  0  0  0  0  0  0  0  0
   27.0995  -21.2999  -10.5104 C   0  0  0  0  0  0  0  0  0  0  0  0
   24.9966  -20.8748  -13.8005 C   0  0  0  0  0  0  0  0  0  0  0  0
   24.6508  -19.8862  -14.4786 O   0  0  0  0  0  0  0  0  0  0  0  0
   24.0128  -21.6186  -13.1224 N   0  0  0  0  0  0  0  0  0  0  0  0
   22.6130  -21.1655  -13.1171 C   0  0  1  0  0  0  0  0  0  0  0  0
   21.8895  -21.6953  -11.9165 C   0  0  0  0  0  0  0  0  0  0  0  0
   20.4455  -21.3930  -11.9355 C   0  0  0  0  0  0  0  0  0  0  0  0
   19.6375  -21.8893  -10.9356 C   0  0  0  0  0  0  0  0  0  0  0  0
   18.2879  -21.6193  -10.9115 C   0  0  0  0  0  0  0  0  0  0  0  0
   17.7204  -20.8360  -11.9045 C   0  0  0  0  0  0  0  0  0  0  0  0
   18.5118  -20.3365  -12.9038 C   0  0  0  0  0  0  0  0  0  0  0  0
   19.8649  -20.6182  -12.9117 C   0  0  0  0  0  0  0  0  0  0  0  0
   22.5303  -19.7080  -13.2918 C   0  0  0  0  0  0  0  0  0  0  0  0
   23.0844  -18.8495  -12.3827 O   0  0  0  0  0  0  0  0  0  0  0  0
   21.9446  -19.2241  -14.2873 O   0  0  0  0  0  0  0  0  0  0  0  0
  2  1  1  6
  2  3  1  0
  4  2  1  0
  4  5  1  6
  6  7  2  0
  6  4  1  0
  8  6  1  0
  9  8  1  0
 10 11  1  0
  9 10  1  1
 11 12  2  0
 11 16  1  0
 12 13  1  0
 13 14  2  0
 15 14  1  0
 16 15  2  0
 17  9  1  0
 17 18  2  0
 19 17  1  0
 20 19  1  0
 20 21  1  1
 22 21  1  0
 22 23  2  0
 24 23  1  0
 25 24  2  0
 26 27  2  0
 26 25  1  0
 27 22  1  0
 28 20  1  0
 29 28  1  0
 30 28  2  0
M  END
$$$$
