VFF.pdb
     RDKit          3D

 30 31  0  0  1  0  0  0  0  0999 V2000
   27.6819  -15.9661  -15.4708 C   0  0  0  0  0  0  0  0  0  0  0  0
   27.0390  -17.0122  -14.5752 C   0  0  1  0  0  0  0  0  0  0  0  0
   25.8129  -16.4081  -13.9306 C   0  0  0  0  0  0  0  0  0  0  0  0
   26.6901  -18.1869  -15.4620 C   0  0  2  0  0  0  0  0  0  0  0  0
   25.8794  -17.7823  -16.5861 N   0  0  0  0  0  0  0  0  0  0  0  0
   26.0601  -19.3067  -14.7107 C   0  0  0  0  0  0  0  0  0  0  0  0
   24.7895  -19.4305  -14.6714 O   0  0  0  0  0  0  0  0  0  0  0  0
   26.8521  -20.2645  -14.0210 N   0  0  0  0  0  0  0  0  0  0  0  0
   26.2913  -21.3984  -13.3250 C   0  0  1  0  0  0  0  0  0  0  0  0
   26.7832  -22.6244  -14.0689 C   0  0  0  0  0  0  0  0  0  0  0  0
   26.1381  -22.8052  -15.3913 C   0  0  0  0  0  0  0  0  0  0  0  0
   26.7011  -22.3465  -16.5644 C   0  0  0  0  0  0  0  0  0  0  0  0
   26.0862  -22.5268  -17.7937 C   0  0  0  0  0  0  0  0  0  0  0  0
   24.8749  -23.1777  -17.8986 C   0  0  0  0  0  0  0  0  0  0  0  0
   24.3056  -23.6391  -16.7304 C   0  0  0  0  0  0  0  0  0  0  0  0
   24.9191  -23.4588  -15.5075 C   0  0  0  0  0  0  0  0  0  0  0  0
   26.7112  -21.3589  -11.9211 C   0  0  0  0  0  0  0  0  0  0  0  0
   27.8813  -21.6710  -11.6208 O   0  0  0  0  0  0  0  0  0  0  0  0
   25.8210  -20.9750  -10.9007 N   0  0  0  0  0  0  0  0  0  0  0  0
   26.2556  -20.9851   -9.4950 C   0  0  1  0  0  0  0  0  0  0  0  0
   27.3632  -19.9998   -9.2762 C   0  0  0  0  0  0  0  0  0  0  0  0
   27.7129  -19.8344   -7.8524 C   0  0  0  0  0  0  0  0  0  0  0  0
   28.6548  -20.6660   -7.2863 C   0  0  0  0  0  0  0  0  0  0  0  0
   29.0169  -20.5352   -5.9647 C   0  0  0  0  0  0  0  0  0  0  0  0
   28.4312  -19.5542   -5.1798 C   0  0  0  0  0  0  0  0  0  0  0  0
   27.4940  -18.7213   -5.7297 C   0  0  0  0  0  0  0  0  0  0  0  0
   27.1429  -18.8674   -7.0584 C   0  0  0  0  0  0  0  0  0  0  0  0
   25.1086  -20.8330   -8.5878 C   0  0  0  0  0  0  0  0  0  0  0  0
   25.1211  -21.3669   -7.3287 O   0  0  0  0  0  0  0  0  0  0  0  0
   24.0903  -20.2051   -8.9581 O   0  0  0  0  0  0  0  0  0  0  0  0
  2  1  1  6
  2  3  1  0
  4  2  1  0
  4  5  1  6
  6  7  2  0
  6  4  1  0
  8  6  1  0
  9  8  1  0
 10 11  1  0
  9 10  1  6
 11 12  2  0
 11 16  1  0
 12 13  1  0
 13 14  2  0
 15 14  1  0
 16 15  2  0
 17  9  1  0
 17 18  2  0
 19 17  1  0
 20 19  1  0
 20 21  1  6
 22 21  1  0
 22 23  2  0
 24 23  1  0
 25 24  2  0
 26 27  2  0
 26 25  1  0
 27 22  1  0
 28 20  1  0
 29 28  1  0
 30 28  2  0
M  END
$$$$
