VFF.pdb
     RDKit          3D

 30 31  0  0  1  0  0  0  0  0999 V2000
   26.9231  -18.1397  -14.7018 C   0  0  0  0  0  0  0  0  0  0  0  0
   27.8638  -19.1757  -15.2945 C   0  0  1  0  0  0  0  0  0  0  0  0
   28.9935  -18.4570  -15.9952 C   0  0  0  0  0  0  0  0  0  0  0  0
   28.3604  -20.0201  -14.1421 C   0  0  2  0  0  0  0  0  0  0  0  0
   29.3518  -20.9774  -14.5727 N   0  0  0  0  0  0  0  0  0  0  0  0
   27.2550  -20.6794  -13.3947 C   0  0  0  0  0  0  0  0  0  0  0  0
   26.7549  -21.7794  -13.8084 O   0  0  0  0  0  0  0  0  0  0  0  0
   26.7292  -20.1055  -12.2053 N   0  0  0  0  0  0  0  0  0  0  0  0
   25.6745  -20.7180  -11.4326 C   0  0  1  0  0  0  0  0  0  0  0  0
   25.7029  -20.0342  -10.0798 C   0  0  0  0  0  0  0  0  0  0  0  0
   26.8012  -20.5107   -9.2055 C   0  0  0  0  0  0  0  0  0  0  0  0
   27.0164  -20.0090   -7.9385 C   0  0  0  0  0  0  0  0  0  0  0  0
   28.0463  -20.4680   -7.1320 C   0  0  0  0  0  0  0  0  0  0  0  0
   28.9080  -21.4540   -7.5647 C   0  0  0  0  0  0  0  0  0  0  0  0
   28.6996  -21.9605   -8.8302 C   0  0  0  0  0  0  0  0  0  0  0  0
   27.6737  -21.5025   -9.6317 C   0  0  0  0  0  0  0  0  0  0  0  0
   24.4015  -20.5581  -12.1418 C   0  0  0  0  0  0  0  0  0  0  0  0
   24.0340  -19.4195  -12.4955 O   0  0  0  0  0  0  0  0  0  0  0  0
   23.5819  -21.6644  -12.4341 N   0  0  0  0  0  0  0  0  0  0  0  0
   22.2809  -21.4697  -13.0932 C   0  0  1  0  0  0  0  0  0  0  0  0
   22.0002  -22.5873  -14.0511 C   0  0  0  0  0  0  0  0  0  0  0  0
   20.6629  -22.4941  -14.6676 C   0  0  0  0  0  0  0  0  0  0  0  0
   20.5043  -21.7775  -15.8339 C   0  0  0  0  0  0  0  0  0  0  0  0
   19.2753  -21.6775  -16.4459 C   0  0  0  0  0  0  0  0  0  0  0  0
   18.1712  -22.3039  -15.8892 C   0  0  0  0  0  0  0  0  0  0  0  0
   18.3149  -23.0192  -14.7307 C   0  0  0  0  0  0  0  0  0  0  0  0
   19.5565  -23.1085  -14.1302 C   0  0  0  0  0  0  0  0  0  0  0  0
   21.2205  -21.2258  -12.1043 C   0  0  0  0  0  0  0  0  0  0  0  0
   20.2394  -20.2992  -12.3264 O   0  0  0  0  0  0  0  0  0  0  0  0
   21.1988  -21.8702  -11.0307 O   0  0  0  0  0  0  0  0  0  0  0  0
  2  1  1  1
  2  3  1  0
  4  2  1  0
  4  5  1  6
  6  7  2  0
  6  4  1  0
  8  6  1  0
  9  8  1  0
 10 11  1  0
  9 10  1  1
 11 12  2  0
 11 16  1  0
 12 13  1  0
 13 14  2  0
 15 14  1  0
 16 15  2  0
 17  9  1  0
 17 18  2  0
 19 17  1  0
 20 19  1  0
 20 21  1  1
 22 21  1  0
 22 23  2  0
 24 23  1  0
 25 24  2  0
 26 27  2  0
 26 25  1  0
 27 22  1  0
 28 20  1  0
 29 28  1  0
 30 28  2  0
M  END
$$$$
