VFF.pdb
     RDKit          3D

 30 31  0  0  1  0  0  0  0  0999 V2000
   29.0266  -18.5376  -13.3336 C   0  0  0  0  0  0  0  0  0  0  0  0
   28.1418  -17.8662  -14.3708 C   0  0  1  0  0  0  0  0  0  0  0  0
   28.9983  -17.4665  -15.5499 C   0  0  0  0  0  0  0  0  0  0  0  0
   27.0843  -18.8761  -14.7576 C   0  0  2  0  0  0  0  0  0  0  0  0
   26.2796  -18.4075  -15.8610 N   0  0  0  0  0  0  0  0  0  0  0  0
   26.2393  -19.2931  -13.6055 C   0  0  0  0  0  0  0  0  0  0  0  0
   25.2804  -18.5532  -13.2001 O   0  0  0  0  0  0  0  0  0  0  0  0
   26.4750  -20.5210  -12.9294 N   0  0  0  0  0  0  0  0  0  0  0  0
   25.6233  -21.0175  -11.8746 C   0  0  1  0  0  0  0  0  0  0  0  0
   25.1031  -22.3564  -12.3594 C   0  0  0  0  0  0  0  0  0  0  0  0
   24.0250  -22.2350  -13.3697 C   0  0  0  0  0  0  0  0  0  0  0  0
   24.2244  -22.5024  -14.7084 C   0  0  0  0  0  0  0  0  0  0  0  0
   23.2044  -22.3872  -15.6401 C   0  0  0  0  0  0  0  0  0  0  0  0
   21.9355  -21.9970  -15.2666 C   0  0  0  0  0  0  0  0  0  0  0  0
   21.7282  -21.7277  -13.9301 C   0  0  0  0  0  0  0  0  0  0  0  0
   22.7447  -21.8430  -13.0039 C   0  0  0  0  0  0  0  0  0  0  0  0
   26.3958  -21.1057  -10.6318 C   0  0  0  0  0  0  0  0  0  0  0  0
   27.6036  -21.4148  -10.6798 O   0  0  0  0  0  0  0  0  0  0  0  0
   25.8034  -20.8483   -9.3813 N   0  0  0  0  0  0  0  0  0  0  0  0
   26.5954  -20.9674   -8.1470 C   0  0  1  0  0  0  0  0  0  0  0  0
   27.4791  -19.7706   -7.9675 C   0  0  0  0  0  0  0  0  0  0  0  0
   28.0840  -19.6988   -6.6236 C   0  0  0  0  0  0  0  0  0  0  0  0
   29.1884  -20.4714   -6.3369 C   0  0  0  0  0  0  0  0  0  0  0  0
   29.7885  -20.4233   -5.0990 C   0  0  0  0  0  0  0  0  0  0  0  0
   29.2825  -19.5871   -4.1160 C   0  0  0  0  0  0  0  0  0  0  0  0
   28.1857  -18.8141   -4.3876 C   0  0  0  0  0  0  0  0  0  0  0  0
   27.5962  -18.8757   -5.6362 C   0  0  0  0  0  0  0  0  0  0  0  0
   25.7340  -21.2747   -6.9958 C   0  0  0  0  0  0  0  0  0  0  0  0
   26.2348  -21.8693   -5.8706 O   0  0  0  0  0  0  0  0  0  0  0  0
   24.5141  -20.9936   -7.0279 O   0  0  0  0  0  0  0  0  0  0  0  0
  2  1  1  1
  2  3  1  0
  4  2  1  0
  4  5  1  6
  6  7  2  0
  6  4  1  0
  8  6  1  0
  9  8  1  0
 10 11  1  0
  9 10  1  6
 11 12  2  0
 11 16  1  0
 12 13  1  0
 13 14  2  0
 15 14  1  0
 16 15  2  0
 17  9  1  0
 17 18  2  0
 19 17  1  0
 20 19  1  0
 20 21  1  1
 22 21  1  0
 22 23  2  0
 24 23  1  0
 25 24  2  0
 26 27  2  0
 26 25  1  0
 27 22  1  0
 28 20  1  0
 29 28  1  0
 30 28  2  0
M  END
$$$$
