VFF.pdb
     RDKit          3D

 30 31  0  0  1  0  0  0  0  0999 V2000
   26.8841  -34.9413  -13.2144 C   0  0  0  0  0  0  0  0  0  0  0  0
   26.2257  -33.6422  -13.6484 C   0  0  1  0  0  0  0  0  0  0  0  0
   26.6535  -32.5445  -12.7019 C   0  0  0  0  0  0  0  0  0  0  0  0
   26.6834  -33.3763  -15.0653 C   0  0  2  0  0  0  0  0  0  0  0  0
   28.1237  -33.3596  -15.1646 N   0  0  0  0  0  0  0  0  0  0  0  0
   26.0831  -32.1420  -15.6409 C   0  0  0  0  0  0  0  0  0  0  0  0
   26.8013  -31.1080  -15.8556 O   0  0  0  0  0  0  0  0  0  0  0  0
   24.7008  -32.0816  -15.9666 N   0  0  0  0  0  0  0  0  0  0  0  0
   24.0805  -30.9229  -16.5642 C   0  0  1  0  0  0  0  0  0  0  0  0
   23.4974  -31.3988  -17.8802 C   0  0  0  0  0  0  0  0  0  0  0  0
   22.7465  -30.3450  -18.6035 C   0  0  0  0  0  0  0  0  0  0  0  0
   23.3686  -29.3631  -19.3465 C   0  0  0  0  0  0  0  0  0  0  0  0
   22.6514  -28.3864  -20.0198 C   0  0  0  0  0  0  0  0  0  0  0  0
   21.2734  -28.3533  -19.9759 C   0  0  0  0  0  0  0  0  0  0  0  0
   20.6440  -29.3314  -19.2351 C   0  0  0  0  0  0  0  0  0  0  0  0
   21.3596  -30.3030  -18.5655 C   0  0  0  0  0  0  0  0  0  0  0  0
   23.0774  -30.3827  -15.6416 C   0  0  0  0  0  0  0  0  0  0  0  0
   22.2633  -31.1561  -15.0979 O   0  0  0  0  0  0  0  0  0  0  0  0
   23.0123  -29.0065  -15.3543 N   0  0  0  0  0  0  0  0  0  0  0  0
   21.9656  -28.4841  -14.4617 C   0  0  1  0  0  0  0  0  0  0  0  0
   22.5652  -27.6334  -13.3837 C   0  0  0  0  0  0  0  0  0  0  0  0
   21.5604  -27.1102  -12.4383 C   0  0  0  0  0  0  0  0  0  0  0  0
   20.9118  -25.9288  -12.7259 C   0  0  0  0  0  0  0  0  0  0  0  0
   19.9595  -25.4146  -11.8753 C   0  0  0  0  0  0  0  0  0  0  0  0
   19.6389  -26.0875  -10.7066 C   0  0  0  0  0  0  0  0  0  0  0  0
   20.2757  -27.2623  -10.4087 C   0  0  0  0  0  0  0  0  0  0  0  0
   21.2292  -27.7634  -11.2747 C   0  0  0  0  0  0  0  0  0  0  0  0
   20.8922  -27.8372  -15.2306 C   0  0  0  0  0  0  0  0  0  0  0  0
   21.1445  -26.7668  -16.0435 O   0  0  0  0  0  0  0  0  0  0  0  0
   19.7165  -28.2612  -15.1523 O   0  0  0  0  0  0  0  0  0  0  0  0
  2  1  1  1
  2  3  1  0
  4  2  1  0
  4  5  1  1
  6  7  2  0
  6  4  1  0
  8  6  1  0
  9  8  1  0
 10 11  1  0
  9 10  1  6
 11 12  2  0
 11 16  1  0
 12 13  1  0
 13 14  2  0
 15 14  1  0
 16 15  2  0
 17  9  1  0
 17 18  2  0
 19 17  1  0
 20 19  1  0
 20 21  1  1
 22 21  1  0
 22 23  2  0
 24 23  1  0
 25 24  2  0
 26 27  2  0
 26 25  1  0
 27 22  1  0
 28 20  1  0
 29 28  1  0
 30 28  2  0
M  END
$$$$
