VFF.pdb
     RDKit          3D

 30 31  0  0  1  0  0  0  0  0999 V2000
   21.7429  -33.3831  -12.3462 C   0  0  0  0  0  0  0  0  0  0  0  0
   21.3126  -32.0293  -12.8862 C   0  0  1  0  0  0  0  0  0  0  0  0
   20.9896  -32.1760  -14.3552 C   0  0  0  0  0  0  0  0  0  0  0  0
   20.1036  -31.6060  -12.0818 C   0  0  2  0  0  0  0  0  0  0  0  0
   19.5355  -30.3767  -12.5823 N   0  0  0  0  0  0  0  0  0  0  0  0
   20.3851  -31.5217  -10.6227 C   0  0  0  0  0  0  0  0  0  0  0  0
   20.8696  -30.4552  -10.1138 O   0  0  0  0  0  0  0  0  0  0  0  0
   20.1224  -32.6207   -9.7602 N   0  0  0  0  0  0  0  0  0  0  0  0
   20.3151  -32.5656   -8.3304 C   0  0  1  0  0  0  0  0  0  0  0  0
   19.1232  -33.2807   -7.7251 C   0  0  0  0  0  0  0  0  0  0  0  0
   19.1801  -33.3655   -6.2462 C   0  0  0  0  0  0  0  0  0  0  0  0
   19.5838  -34.5041   -5.5798 C   0  0  0  0  0  0  0  0  0  0  0  0
   19.6346  -34.5660   -4.1958 C   0  0  0  0  0  0  0  0  0  0  0  0
   19.2807  -33.4833   -3.4183 C   0  0  0  0  0  0  0  0  0  0  0  0
   18.8758  -32.3414   -4.0770 C   0  0  0  0  0  0  0  0  0  0  0  0
   18.8259  -32.2815   -5.4548 C   0  0  0  0  0  0  0  0  0  0  0  0
   21.6009  -33.1833   -7.9926 C   0  0  0  0  0  0  0  0  0  0  0  0
   21.9515  -34.2298   -8.5745 O   0  0  0  0  0  0  0  0  0  0  0  0
   22.4520  -32.6200   -7.0233 N   0  0  0  0  0  0  0  0  0  0  0  0
   23.7430  -33.2536   -6.7121 C   0  0  1  0  0  0  0  0  0  0  0  0
   24.8514  -32.2461   -6.7562 C   0  0  0  0  0  0  0  0  0  0  0  0
   26.1610  -32.8152   -6.3844 C   0  0  0  0  0  0  0  0  0  0  0  0
   27.1292  -32.9726   -7.3522 C   0  0  0  0  0  0  0  0  0  0  0  0
   28.3674  -33.4884   -7.0426 C   0  0  0  0  0  0  0  0  0  0  0  0
   28.6570  -33.8592   -5.7387 C   0  0  0  0  0  0  0  0  0  0  0  0
   27.7040  -33.7080   -4.7674 C   0  0  0  0  0  0  0  0  0  0  0  0
   26.4664  -33.1885   -5.0969 C   0  0  0  0  0  0  0  0  0  0  0  0
   23.6632  -34.0266   -5.4639 C   0  0  0  0  0  0  0  0  0  0  0  0
   24.1892  -35.2856   -5.3715 O   0  0  0  0  0  0  0  0  0  0  0  0
   23.1060  -33.5385   -4.4542 O   0  0  0  0  0  0  0  0  0  0  0  0
  2  1  1  1
  2  3  1  0
  4  2  1  0
  4  5  1  6
  6  7  2  0
  6  4  1  0
  8  6  1  0
  9  8  1  0
 10 11  1  0
  9 10  1  1
 11 12  2  0
 11 16  1  0
 12 13  1  0
 13 14  2  0
 15 14  1  0
 16 15  2  0
 17  9  1  0
 17 18  2  0
 19 17  1  0
 20 19  1  0
 20 21  1  1
 22 21  1  0
 22 23  2  0
 24 23  1  0
 25 24  2  0
 26 27  2  0
 26 25  1  0
 27 22  1  0
 28 20  1  0
 29 28  1  0
 30 28  2  0
M  END
$$$$
