VFF.pdb
     RDKit          3D

 30 31  0  0  1  0  0  0  0  0999 V2000
   28.5421  -20.1175  -18.4491 C   0  0  0  0  0  0  0  0  0  0  0  0
   27.5627  -20.3741  -17.3158 C   0  0  1  0  0  0  0  0  0  0  0  0
   26.2536  -20.8442  -17.9063 C   0  0  0  0  0  0  0  0  0  0  0  0
   28.1919  -21.4254  -16.4287 C   0  0  2  0  0  0  0  0  0  0  0  0
   28.4553  -22.6454  -17.1545 N   0  0  0  0  0  0  0  0  0  0  0  0
   27.4003  -21.6852  -15.1954 C   0  0  0  0  0  0  0  0  0  0  0  0
   26.5665  -22.6515  -15.1486 O   0  0  0  0  0  0  0  0  0  0  0  0
   27.5512  -20.8691  -14.0414 N   0  0  0  0  0  0  0  0  0  0  0  0
   26.7544  -21.0335  -12.8487 C   0  0  1  0  0  0  0  0  0  0  0  0
   27.5528  -20.3979  -11.7275 C   0  0  0  0  0  0  0  0  0  0  0  0
   26.8277  -20.3700  -10.4349 C   0  0  0  0  0  0  0  0  0  0  0  0
   26.8524  -21.4226   -9.5434 C   0  0  0  0  0  0  0  0  0  0  0  0
   26.1712  -21.3793   -8.3368 C   0  0  0  0  0  0  0  0  0  0  0  0
   25.4330  -20.2731   -7.9719 C   0  0  0  0  0  0  0  0  0  0  0  0
   25.4032  -19.2167   -8.8577 C   0  0  0  0  0  0  0  0  0  0  0  0
   26.0819  -19.2615  -10.0585 C   0  0  0  0  0  0  0  0  0  0  0  0
   25.4420  -20.4139  -13.0559 C   0  0  0  0  0  0  0  0  0  0  0  0
   25.3749  -19.2580  -13.5206 O   0  0  0  0  0  0  0  0  0  0  0  0
   24.2519  -21.0964  -12.7415 N   0  0  0  0  0  0  0  0  0  0  0  0
   22.9465  -20.4752  -13.0153 C   0  0  1  0  0  0  0  0  0  0  0  0
   22.6775  -20.4362  -14.4889 C   0  0  0  0  0  0  0  0  0  0  0  0
   21.3592  -19.8609  -14.8178 C   0  0  0  0  0  0  0  0  0  0  0  0
   20.2681  -20.6943  -14.9360 C   0  0  0  0  0  0  0  0  0  0  0  0
   19.0195  -20.1945  -15.2295 C   0  0  0  0  0  0  0  0  0  0  0  0
   18.8442  -18.8316  -15.4115 C   0  0  0  0  0  0  0  0  0  0  0  0
   19.9198  -17.9923  -15.2968 C   0  0  0  0  0  0  0  0  0  0  0  0
   21.1660  -18.5121  -15.0017 C   0  0  0  0  0  0  0  0  0  0  0  0
   21.8861  -21.1019  -12.2125 C   0  0  0  0  0  0  0  0  0  0  0  0
   20.9385  -20.3505  -11.5738 O   0  0  0  0  0  0  0  0  0  0  0  0
   21.8332  -22.3480  -12.0997 O   0  0  0  0  0  0  0  0  0  0  0  0
  2  1  1  6
  2  3  1  0
  4  2  1  0
  4  5  1  6
  6  7  2  0
  6  4  1  0
  8  6  1  0
  9  8  1  0
 10 11  1  0
  9 10  1  1
 11 12  2  0
 11 16  1  0
 12 13  1  0
 13 14  2  0
 15 14  1  0
 16 15  2  0
 17  9  1  0
 17 18  2  0
 19 17  1  0
 20 19  1  0
 20 21  1  6
 22 21  1  0
 22 23  2  0
 24 23  1  0
 25 24  2  0
 26 27  2  0
 26 25  1  0
 27 22  1  0
 28 20  1  0
 29 28  1  0
 30 28  2  0
M  END
$$$$
