VFF.pdb
     RDKit          3D

 30 31  0  0  1  0  0  0  0  0999 V2000
   18.5844  -10.8680   10.0028 C   0  0  0  0  0  0  0  0  0  0  0  0
   17.1772  -10.3502   10.2499 C   0  0  1  0  0  0  0  0  0  0  0  0
   17.2706   -9.0076   10.9373 C   0  0  0  0  0  0  0  0  0  0  0  0
   16.5094  -10.2465    8.8967 C   0  0  2  0  0  0  0  0  0  0  0  0
   15.1449   -9.7884    9.0106 N   0  0  0  0  0  0  0  0  0  0  0  0
   16.5966  -11.5098    8.1147 C   0  0  0  0  0  0  0  0  0  0  0  0
   15.7712  -12.4622    8.3223 O   0  0  0  0  0  0  0  0  0  0  0  0
   17.5955  -11.6891    7.1195 N   0  0  0  0  0  0  0  0  0  0  0  0
   17.7072  -12.8860    6.3198 C   0  0  1  0  0  0  0  0  0  0  0  0
   17.9307  -12.4129    4.8969 C   0  0  0  0  0  0  0  0  0  0  0  0
   18.0877  -13.5238    3.9280 C   0  0  0  0  0  0  0  0  0  0  0  0
   17.2487  -14.6188    3.9071 C   0  0  0  0  0  0  0  0  0  0  0  0
   17.4072  -15.6481    2.9920 C   0  0  0  0  0  0  0  0  0  0  0  0
   18.4187  -15.6222    2.0550 C   0  0  0  0  0  0  0  0  0  0  0  0
   19.2617  -14.5309    2.0695 C   0  0  0  0  0  0  0  0  0  0  0  0
   19.1025  -13.5072    2.9811 C   0  0  0  0  0  0  0  0  0  0  0  0
   18.8004  -13.7132    6.8393 C   0  0  0  0  0  0  0  0  0  0  0  0
   19.9057  -13.1882    7.0828 O   0  0  0  0  0  0  0  0  0  0  0  0
   18.6302  -15.0910    7.0706 N   0  0  0  0  0  0  0  0  0  0  0  0
   19.7708  -15.9182    7.4945 C   0  0  1  0  0  0  0  0  0  0  0  0
   20.2602  -15.4927    8.8454 C   0  0  0  0  0  0  0  0  0  0  0  0
   21.4104  -16.2876    9.3170 C   0  0  0  0  0  0  0  0  0  0  0  0
   21.2249  -17.2186   10.3159 C   0  0  0  0  0  0  0  0  0  0  0  0
   22.2702  -17.9881   10.7743 C   0  0  0  0  0  0  0  0  0  0  0  0
   23.5355  -17.8329   10.2297 C   0  0  0  0  0  0  0  0  0  0  0  0
   23.7335  -16.9115    9.2366 C   0  0  0  0  0  0  0  0  0  0  0  0
   22.6721  -16.1477    8.7890 C   0  0  0  0  0  0  0  0  0  0  0  0
   19.4563  -17.3496    7.3766 C   0  0  0  0  0  0  0  0  0  0  0  0
   20.4172  -18.2646    7.0451 O   0  0  0  0  0  0  0  0  0  0  0  0
   18.2902  -17.7581    7.5802 O   0  0  0  0  0  0  0  0  0  0  0  0
  2  1  1  6
  2  3  1  0
  4  2  1  0
  4  5  1  1
  6  7  2  0
  6  4  1  0
  8  6  1  0
  9  8  1  0
 10 11  1  0
  9 10  1  6
 11 12  2  0
 11 16  1  0
 12 13  1  0
 13 14  2  0
 15 14  1  0
 16 15  2  0
 17  9  1  0
 17 18  2  0
 19 17  1  0
 20 19  1  0
 20 21  1  1
 22 21  1  0
 22 23  2  0
 24 23  1  0
 25 24  2  0
 26 27  2  0
 26 25  1  0
 27 22  1  0
 28 20  1  0
 29 28  1  0
 30 28  2  0
M  END
$$$$
