VFF.pdb
     RDKit          3D

 30 31  0  0  1  0  0  0  0  0999 V2000
   25.0607  -32.0167   -7.6660 C   0  0  0  0  0  0  0  0  0  0  0  0
   24.7519  -32.8081   -8.9261 C   0  0  1  0  0  0  0  0  0  0  0  0
   24.1669  -31.8684   -9.9550 C   0  0  0  0  0  0  0  0  0  0  0  0
   26.0589  -33.4112   -9.3906 C   0  0  2  0  0  0  0  0  0  0  0  0
   25.8713  -34.2695  -10.5363 N   0  0  0  0  0  0  0  0  0  0  0  0
   26.7887  -34.1116   -8.2987 C   0  0  0  0  0  0  0  0  0  0  0  0
   26.3742  -35.2353   -7.8553 O   0  0  0  0  0  0  0  0  0  0  0  0
   27.9618  -33.5516   -7.7236 N   0  0  0  0  0  0  0  0  0  0  0  0
   28.7087  -34.1956   -6.6692 C   0  0  1  0  0  0  0  0  0  0  0  0
   30.0746  -33.5378   -6.6692 C   0  0  0  0  0  0  0  0  0  0  0  0
   31.0232  -34.1574   -5.7133 C   0  0  0  0  0  0  0  0  0  0  0  0
   32.1752  -34.8002   -6.1171 C   0  0  0  0  0  0  0  0  0  0  0  0
   33.0538  -35.3717   -5.2098 C   0  0  0  0  0  0  0  0  0  0  0  0
   32.8127  -35.3225   -3.8529 C   0  0  0  0  0  0  0  0  0  0  0  0
   31.6631  -34.6818   -3.4412 C   0  0  0  0  0  0  0  0  0  0  0  0
   30.7895  -34.1133   -4.3457 C   0  0  0  0  0  0  0  0  0  0  0  0
   27.9861  -34.0423   -5.4029 C   0  0  0  0  0  0  0  0  0  0  0  0
   27.6145  -32.9076   -5.0410 O   0  0  0  0  0  0  0  0  0  0  0  0
   27.7007  -35.1506   -4.5836 N   0  0  0  0  0  0  0  0  0  0  0  0
   26.7949  -35.0082   -3.4328 C   0  0  1  0  0  0  0  0  0  0  0  0
   25.4029  -34.6947   -3.8903 C   0  0  0  0  0  0  0  0  0  0  0  0
   24.4161  -34.7269   -2.7938 C   0  0  0  0  0  0  0  0  0  0  0  0
   24.8566  -34.7640   -1.4886 C   0  0  0  0  0  0  0  0  0  0  0  0
   23.9674  -34.7825   -0.4378 C   0  0  0  0  0  0  0  0  0  0  0  0
   22.6035  -34.7636   -0.6843 C   0  0  0  0  0  0  0  0  0  0  0  0
   22.1524  -34.7266   -1.9764 C   0  0  0  0  0  0  0  0  0  0  0  0
   23.0599  -34.7087   -3.0187 C   0  0  0  0  0  0  0  0  0  0  0  0
   26.9008  -36.1659   -2.5326 C   0  0  0  0  0  0  0  0  0  0  0  0
   27.8381  -37.1412   -2.7344 O   0  0  0  0  0  0  0  0  0  0  0  0
   26.1255  -36.2783   -1.5556 O   0  0  0  0  0  0  0  0  0  0  0  0
  2  1  1  1
  2  3  1  0
  4  2  1  0
  4  5  1  6
  6  7  2  0
  6  4  1  0
  8  6  1  0
  9  8  1  0
 10 11  1  0
  9 10  1  1
 11 12  2  0
 11 16  1  0
 12 13  1  0
 13 14  2  0
 15 14  1  0
 16 15  2  0
 17  9  1  0
 17 18  2  0
 19 17  1  0
 20 19  1  0
 20 21  1  6
 22 21  1  0
 22 23  2  0
 24 23  1  0
 25 24  2  0
 26 27  2  0
 26 25  1  0
 27 22  1  0
 28 20  1  0
 29 28  1  0
 30 28  2  0
M  END
$$$$
