TCI.pdb
     RDKit          3D

 22 21  0  0  1  0  0  0  0  0999 V2000
   21.1784   -6.8763  -16.6541 C   0  0  0  0  0  0  0  0  0  0  0  0
   20.7134   -6.8358  -15.2237 C   0  0  1  0  0  0  0  0  0  0  0  0
   19.5176   -6.1362  -15.1291 O   0  0  0  0  0  0  0  0  0  0  0  0
   20.6368   -8.1985  -14.5887 C   0  0  2  0  0  0  0  0  0  0  0  0
   20.1026   -8.1063  -13.2688 N   0  0  0  0  0  0  0  0  0  0  0  0
   21.9984   -8.8148  -14.6112 C   0  0  0  0  0  0  0  0  0  0  0  0
   22.9078   -8.4452  -13.8265 O   0  0  0  0  0  0  0  0  0  0  0  0
   22.3354   -9.8635  -15.5343 N   0  0  0  0  0  0  0  0  0  0  0  0
   23.6549  -10.4531  -15.5750 C   0  0  1  0  0  0  0  0  0  0  0  0
   23.5908  -11.9650  -15.3795 C   0  0  0  0  0  0  0  0  0  0  0  0
   25.2251  -12.6680  -15.1088 S   0  0  0  0  0  0  0  0  0  0  0  0
   24.3721  -10.1538  -16.8270 C   0  0  0  0  0  0  0  0  0  0  0  0
   23.8210   -9.9226  -17.9284 O   0  0  0  0  0  0  0  0  0  0  0  0
   30.0679   -8.2159  -18.0720 C   0  0  0  0  0  0  0  0  0  0  0  0
   28.7721   -8.7520  -18.6272 C   0  0  0  0  0  0  0  0  0  0  0  0
   27.9363   -9.2629  -17.4820 C   0  0  2  0  0  0  0  0  0  0  0  0
   28.6682  -10.3294  -16.7331 C   0  0  0  0  0  0  0  0  0  0  0  0
   26.5757   -9.7395  -17.9415 C   0  0  2  0  0  0  0  0  0  0  0  0
   25.7927  -10.1239  -16.7883 N   0  0  0  0  0  0  0  0  0  0  0  0
   26.7939  -10.9404  -18.7808 C   0  0  0  0  0  0  0  0  0  0  0  0
   27.1713  -10.8550  -19.9822 O   0  0  0  0  0  0  0  0  0  0  0  0
   26.5765  -12.1927  -18.2277 O   0  0  0  0  0  0  0  0  0  0  0  0
  2  3  1  0
  2  1  1  6
  4  2  1  0
  4  5  1  1
  6  4  1  0
  6  8  1  0
  7  6  2  0
  9  8  1  0
  9 12  1  0
  9 10  1  6
 11 10  1  0
 12 19  1  0
 13 12  2  0
 15 14  1  0
 16 17  1  6
 16 15  1  0
 18 20  1  0
 18 16  1  0
 18 19  1  1
 20 22  1  0
 21 20  2  0
M  END
$$$$
