TCI.pdb
     RDKit          3D

 22 21  0  0  1  0  0  0  0  0999 V2000
   16.1264  -12.1462  -10.5038 C   0  0  0  0  0  0  0  0  0  0  0  0
   16.0423  -10.6822  -10.8410 C   0  0  1  0  0  0  0  0  0  0  0  0
   15.7254  -10.5180  -12.1831 O   0  0  0  0  0  0  0  0  0  0  0  0
   15.1168   -9.9189   -9.9318 C   0  0  2  0  0  0  0  0  0  0  0  0
   13.7668  -10.3386  -10.1250 N   0  0  0  0  0  0  0  0  0  0  0  0
   15.3003   -8.4563  -10.1796 C   0  0  0  0  0  0  0  0  0  0  0  0
   14.6896   -7.8567  -11.0999 O   0  0  0  0  0  0  0  0  0  0  0  0
   16.1872   -7.6615   -9.3751 N   0  0  0  0  0  0  0  0  0  0  0  0
   16.4285   -6.2635   -9.6542 C   0  0  1  0  0  0  0  0  0  0  0  0
   15.9278   -5.3785   -8.5166 C   0  0  0  0  0  0  0  0  0  0  0  0
   14.1995   -5.7041   -8.1352 S   0  0  0  0  0  0  0  0  0  0  0  0
   17.8506   -5.9724   -9.9081 C   0  0  0  0  0  0  0  0  0  0  0  0
   18.7384   -5.9224   -9.0251 O   0  0  0  0  0  0  0  0  0  0  0  0
   20.7712   -8.9912  -12.5496 C   0  0  0  0  0  0  0  0  0  0  0  0
   20.2644   -7.9010  -11.6390 C   0  0  0  0  0  0  0  0  0  0  0  0
   20.1488   -6.6274  -12.4363 C   0  0  2  0  0  0  0  0  0  0  0  0
   21.4547   -6.2918  -13.0813 C   0  0  0  0  0  0  0  0  0  0  0  0
   19.6307   -5.4789  -11.5983 C   0  0  2  0  0  0  0  0  0  0  0  0
   18.2499   -5.7299  -11.2506 N   0  0  0  0  0  0  0  0  0  0  0  0
   19.6877   -4.2623  -12.4415 C   0  0  0  0  0  0  0  0  0  0  0  0
   20.7630   -3.6273  -12.6246 O   0  0  0  0  0  0  0  0  0  0  0  0
   18.5246   -3.8109  -13.0455 O   0  0  0  0  0  0  0  0  0  0  0  0
  2  3  1  0
  2  1  1  1
  4  2  1  0
  4  5  1  6
  6  4  1  0
  6  8  1  0
  7  6  2  0
  9  8  1  0
  9 12  1  0
  9 10  1  1
 11 10  1  0
 12 19  1  0
 13 12  2  0
 15 14  1  0
 16 17  1  1
 16 15  1  0
 18 20  1  0
 18 16  1  0
 18 19  1  6
 20 22  1  0
 21 20  2  0
M  END
$$$$
