TCI.pdb
     RDKit          3D

 22 21  0  0  1  0  0  0  0  0999 V2000
   28.2633  -17.7759  -15.4844 C   0  0  0  0  0  0  0  0  0  0  0  0
   27.2589  -18.7269  -14.8921 C   0  0  1  0  0  0  0  0  0  0  0  0
   26.0530  -18.6349  -15.5745 O   0  0  0  0  0  0  0  0  0  0  0  0
   27.7657  -20.1416  -14.8036 C   0  0  2  0  0  0  0  0  0  0  0  0
   28.0097  -20.6682  -16.1071 N   0  0  0  0  0  0  0  0  0  0  0  0
   26.7770  -20.9575  -14.0348 C   0  0  0  0  0  0  0  0  0  0  0  0
   26.0278  -21.7957  -14.5964 O   0  0  0  0  0  0  0  0  0  0  0  0
   26.6342  -20.8228  -12.6111 N   0  0  0  0  0  0  0  0  0  0  0  0
   25.4540  -21.2816  -11.9130 C   0  0  1  0  0  0  0  0  0  0  0  0
   25.6256  -21.1645  -10.4015 C   0  0  0  0  0  0  0  0  0  0  0  0
   27.3618  -21.0786   -9.9362 S   0  0  0  0  0  0  0  0  0  0  0  0
   24.2360  -20.5602  -12.3224 C   0  0  0  0  0  0  0  0  0  0  0  0
   24.0882  -19.3172  -12.2643 O   0  0  0  0  0  0  0  0  0  0  0  0
   21.0180  -19.1534  -16.1025 C   0  0  0  0  0  0  0  0  0  0  0  0
   20.6166  -20.4607  -15.4666 C   0  0  0  0  0  0  0  0  0  0  0  0
   21.8355  -21.0767  -14.8295 C   0  0  2  0  0  0  0  0  0  0  0  0
   21.8302  -22.5601  -15.0126 C   0  0  0  0  0  0  0  0  0  0  0  0
   21.9663  -20.6966  -13.3708 C   0  0  2  0  0  0  0  0  0  0  0  0
   23.1462  -21.3252  -12.8201 N   0  0  0  0  0  0  0  0  0  0  0  0
   20.7779  -21.2365  -12.6704 C   0  0  0  0  0  0  0  0  0  0  0  0
   19.6847  -20.6070  -12.6292 O   0  0  0  0  0  0  0  0  0  0  0  0
   20.8727  -22.4690  -12.0431 O   0  0  0  0  0  0  0  0  0  0  0  0
  2  3  1  0
  2  1  1  6
  4  2  1  0
  4  5  1  6
  6  4  1  0
  6  8  1  0
  7  6  2  0
  9  8  1  0
  9 12  1  0
  9 10  1  1
 11 10  1  0
 12 19  1  0
 13 12  2  0
 15 14  1  0
 16 17  1  1
 16 15  1  0
 18 20  1  0
 18 16  1  0
 18 19  1  1
 20 22  1  0
 21 20  2  0
M  END
$$$$
