TCI.pdb
     RDKit          3D

 22 21  0  0  1  0  0  0  0  0999 V2000
   23.9890  -12.0200  -19.2299 C   0  0  0  0  0  0  0  0  0  0  0  0
   24.2188  -13.3365  -18.5384 C   0  0  1  0  0  0  0  0  0  0  0  0
   25.0060  -14.1619  -19.3306 O   0  0  0  0  0  0  0  0  0  0  0  0
   24.7641  -13.1838  -17.1437 C   0  0  2  0  0  0  0  0  0  0  0  0
   25.0949  -14.4580  -16.5934 N   0  0  0  0  0  0  0  0  0  0  0  0
   23.7613  -12.4476  -16.3150 C   0  0  0  0  0  0  0  0  0  0  0  0
   22.7383  -13.0128  -15.8528 O   0  0  0  0  0  0  0  0  0  0  0  0
   23.9182  -11.0530  -16.0054 N   0  0  0  0  0  0  0  0  0  0  0  0
   22.9113  -10.3118  -15.2792 C   0  0  1  0  0  0  0  0  0  0  0  0
   23.3883   -9.9645  -13.8722 C   0  0  0  0  0  0  0  0  0  0  0  0
   22.1163   -9.1030  -12.9350 S   0  0  0  0  0  0  0  0  0  0  0  0
   22.5035   -9.0778  -15.9739 C   0  0  0  0  0  0  0  0  0  0  0  0
   23.2880   -8.2933  -16.5565 O   0  0  0  0  0  0  0  0  0  0  0  0
   18.3004   -9.2830  -19.1017 C   0  0  0  0  0  0  0  0  0  0  0  0
   19.6265   -8.8405  -18.5359 C   0  0  0  0  0  0  0  0  0  0  0  0
   19.3668   -7.8851  -17.3997 C   0  0  2  0  0  0  0  0  0  0  0  0
   18.6854   -6.6514  -17.8970 C   0  0  0  0  0  0  0  0  0  0  0  0
   20.6312   -7.5536  -16.6374 C   0  0  2  0  0  0  0  0  0  0  0  0
   21.1208   -8.7486  -15.9871 N   0  0  0  0  0  0  0  0  0  0  0  0
   20.2661   -6.5684  -15.5932 C   0  0  0  0  0  0  0  0  0  0  0  0
   19.5975   -6.8940  -14.5734 O   0  0  0  0  0  0  0  0  0  0  0  0
   20.6721   -5.2515  -15.7435 O   0  0  0  0  0  0  0  0  0  0  0  0
  2  3  1  0
  2  1  1  6
  4  2  1  0
  4  5  1  1
  6  4  1  0
  6  8  1  0
  7  6  2  0
  9  8  1  0
  9 12  1  0
  9 10  1  1
 11 10  1  0
 12 19  1  0
 13 12  2  0
 15 14  1  0
 16 17  1  6
 16 15  1  0
 18 20  1  0
 18 16  1  0
 18 19  1  1
 20 22  1  0
 21 20  2  0
M  END
$$$$
