TCI.pdb
     RDKit          3D

 22 21  0  0  1  0  0  0  0  0999 V2000
   28.2339  -17.4732  -15.9003 C   0  0  0  0  0  0  0  0  0  0  0  0
   27.2802  -18.4232  -15.2280 C   0  0  1  0  0  0  0  0  0  0  0  0
   26.0744  -18.4573  -15.9160 O   0  0  0  0  0  0  0  0  0  0  0  0
   27.8633  -19.7949  -15.0170 C   0  0  2  0  0  0  0  0  0  0  0  0
   28.1523  -20.4140  -16.2696 N   0  0  0  0  0  0  0  0  0  0  0  0
   26.9118  -20.5980  -14.1899 C   0  0  0  0  0  0  0  0  0  0  0  0
   26.1177  -21.4243  -14.7055 O   0  0  0  0  0  0  0  0  0  0  0  0
   26.8584  -20.4639  -12.7600 N   0  0  0  0  0  0  0  0  0  0  0  0
   25.7375  -20.9500  -11.9867 C   0  0  1  0  0  0  0  0  0  0  0  0
   25.9750  -20.7621  -10.4913 C   0  0  0  0  0  0  0  0  0  0  0  0
   24.5219  -21.2088   -9.5282 S   0  0  0  0  0  0  0  0  0  0  0  0
   24.4665  -20.3062  -12.3628 C   0  0  0  0  0  0  0  0  0  0  0  0
   24.2430  -19.0748  -12.2992 O   0  0  0  0  0  0  0  0  0  0  0  0
   22.5622  -20.0313  -16.8765 C   0  0  0  0  0  0  0  0  0  0  0  0
   22.8542  -19.8664  -15.4062 C   0  0  0  0  0  0  0  0  0  0  0  0
   21.8640  -20.6926  -14.6264 C   0  0  2  0  0  0  0  0  0  0  0  0
   20.4643  -20.3073  -14.9815 C   0  0  0  0  0  0  0  0  0  0  0  0
   22.1036  -20.6062  -13.1348 C   0  0  2  0  0  0  0  0  0  0  0  0
   23.4138  -21.1379  -12.8326 N   0  0  0  0  0  0  0  0  0  0  0  0
   21.0881  -21.4623  -12.4789 C   0  0  0  0  0  0  0  0  0  0  0  0
   21.1941  -22.7196  -12.4495 O   0  0  0  0  0  0  0  0  0  0  0  0
   19.9910  -20.8619  -11.8811 O   0  0  0  0  0  0  0  0  0  0  0  0
  2  3  1  0
  2  1  1  6
  4  2  1  0
  4  5  1  6
  6  4  1  0
  6  8  1  0
  7  6  2  0
  9  8  1  0
  9 12  1  0
  9 10  1  1
 11 10  1  0
 12 19  1  0
 13 12  2  0
 15 14  1  0
 16 17  1  1
 16 15  1  0
 18 20  1  0
 18 16  1  0
 18 19  1  6
 20 22  1  0
 21 20  2  0
M  END
$$$$
