TCI.pdb
     RDKit          3D

 22 21  0  0  1  0  0  0  0  0999 V2000
   14.9706  -10.8320  -14.2070 C   0  0  0  0  0  0  0  0  0  0  0  0
   15.3847  -12.2753  -14.3030 C   0  0  1  0  0  0  0  0  0  0  0  0
   14.4012  -13.0922  -13.7609 O   0  0  0  0  0  0  0  0  0  0  0  0
   15.7727  -12.6869  -15.6980 C   0  0  2  0  0  0  0  0  0  0  0  0
   16.0504  -14.0856  -15.7482 N   0  0  0  0  0  0  0  0  0  0  0  0
   16.9371  -11.8582  -16.1357 C   0  0  0  0  0  0  0  0  0  0  0  0
   18.1207  -12.1759  -15.8569 O   0  0  0  0  0  0  0  0  0  0  0  0
   16.7597  -10.6535  -16.8991 N   0  0  0  0  0  0  0  0  0  0  0  0
   17.8797   -9.8416  -17.3198 C   0  0  1  0  0  0  0  0  0  0  0  0
   17.4926   -8.9214  -18.4736 C   0  0  0  0  0  0  0  0  0  0  0  0
   16.8725   -9.8516  -19.8838 S   0  0  0  0  0  0  0  0  0  0  0  0
   18.4410   -9.0357  -16.2211 C   0  0  0  0  0  0  0  0  0  0  0  0
   17.7860   -8.6072  -15.2425 O   0  0  0  0  0  0  0  0  0  0  0  0
   22.9590  -10.8259  -14.3099 C   0  0  0  0  0  0  0  0  0  0  0  0
   21.6055  -10.1997  -14.5338 C   0  0  0  0  0  0  0  0  0  0  0  0
   21.8029   -8.7485  -14.8890 C   0  0  2  0  0  0  0  0  0  0  0  0
   22.5780   -8.0475  -13.8206 C   0  0  0  0  0  0  0  0  0  0  0  0
   20.4906   -8.0507  -15.1732 C   0  0  2  0  0  0  0  0  0  0  0  0
   19.8256   -8.7181  -16.2700 N   0  0  0  0  0  0  0  0  0  0  0  0
   20.8133   -6.6674  -15.5933 C   0  0  0  0  0  0  0  0  0  0  0  0
   21.0655   -6.3770  -16.7954 O   0  0  0  0  0  0  0  0  0  0  0  0
   20.8383   -5.6652  -14.6360 O   0  0  0  0  0  0  0  0  0  0  0  0
  2  3  1  0
  2  1  1  6
  4  2  1  0
  4  5  1  1
  6  4  1  0
  6  8  1  0
  7  6  2  0
  9  8  1  0
  9 12  1  0
  9 10  1  6
 11 10  1  0
 12 19  1  0
 13 12  2  0
 15 14  1  0
 16 17  1  1
 16 15  1  0
 18 20  1  0
 18 16  1  0
 18 19  1  6
 20 22  1  0
 21 20  2  0
M  END
$$$$
