TCI.pdb
     RDKit          3D

 22 21  0  0  1  0  0  0  0  0999 V2000
   16.4494   -9.4479  -14.7235 C   0  0  0  0  0  0  0  0  0  0  0  0
   14.9604   -9.2806  -14.5857 C   0  0  1  0  0  0  0  0  0  0  0  0
   14.3071  -10.4184  -15.0407 O   0  0  0  0  0  0  0  0  0  0  0  0
   14.5363   -8.8884  -13.1957 C   0  0  2  0  0  0  0  0  0  0  0  0
   13.1163   -8.7703  -13.1203 N   0  0  0  0  0  0  0  0  0  0  0  0
   15.2347   -7.6210  -12.8213 C   0  0  0  0  0  0  0  0  0  0  0  0
   15.0723   -6.5566  -13.4695 O   0  0  0  0  0  0  0  0  0  0  0  0
   16.1291   -7.5573  -11.6981 N   0  0  0  0  0  0  0  0  0  0  0  0
   16.9125   -6.3770  -11.4090 C   0  0  1  0  0  0  0  0  0  0  0  0
   16.5337   -5.7798  -10.0571 C   0  0  0  0  0  0  0  0  0  0  0  0
   17.9464   -5.0048   -9.2557 S   0  0  0  0  0  0  0  0  0  0  0  0
   18.3627   -6.6371  -11.4376 C   0  0  0  0  0  0  0  0  0  0  0  0
   18.9816   -7.3271  -10.5943 O   0  0  0  0  0  0  0  0  0  0  0  0
   20.4080   -9.0933  -15.1782 C   0  0  0  0  0  0  0  0  0  0  0  0
   20.1351   -8.4071  -13.8632 C   0  0  0  0  0  0  0  0  0  0  0  0
   20.8310   -7.0704  -13.8679 C   0  0  2  0  0  0  0  0  0  0  0  0
   22.2993   -7.2441  -14.0863 C   0  0  0  0  0  0  0  0  0  0  0  0
   20.5453   -6.2780  -12.6108 C   0  0  2  0  0  0  0  0  0  0  0  0
   19.1196   -6.0662  -12.4968 N   0  0  0  0  0  0  0  0  0  0  0  0
   21.2036   -4.9601  -12.7661 C   0  0  0  0  0  0  0  0  0  0  0  0
   22.4481   -4.8141  -12.6152 O   0  0  0  0  0  0  0  0  0  0  0  0
   20.4273   -3.8573  -13.0865 O   0  0  0  0  0  0  0  0  0  0  0  0
  2  3  1  0
  2  1  1  1
  4  2  1  0
  4  5  1  6
  6  4  1  0
  6  8  1  0
  7  6  2  0
  9  8  1  0
  9 12  1  0
  9 10  1  1
 11 10  1  0
 12 19  1  0
 13 12  2  0
 15 14  1  0
 16 17  1  1
 16 15  1  0
 18 20  1  0
 18 16  1  0
 18 19  1  6
 20 22  1  0
 21 20  2  0
M  END
$$$$
