TCI.pdb
     RDKit          3D

 22 21  0  0  1  0  0  0  0  0999 V2000
   17.5185  -11.5883  -18.8227 C   0  0  0  0  0  0  0  0  0  0  0  0
   17.4292  -12.8618  -18.0262 C   0  0  1  0  0  0  0  0  0  0  0  0
   16.7892  -13.8459  -18.7681 O   0  0  0  0  0  0  0  0  0  0  0  0
   18.7597  -13.3173  -17.4893 C   0  0  2  0  0  0  0  0  0  0  0  0
   18.6408  -14.6032  -16.8825 N   0  0  0  0  0  0  0  0  0  0  0  0
   19.2722  -12.2834  -16.5391 C   0  0  0  0  0  0  0  0  0  0  0  0
   18.6811  -12.0203  -15.4617 O   0  0  0  0  0  0  0  0  0  0  0  0
   20.4697  -11.5371  -16.8121 N   0  0  0  0  0  0  0  0  0  0  0  0
   20.9064  -10.4522  -15.9619 C   0  0  1  0  0  0  0  0  0  0  0  0
   22.4287  -10.3562  -15.9266 C   0  0  0  0  0  0  0  0  0  0  0  0
   22.9852   -9.0584  -14.8111 S   0  0  0  0  0  0  0  0  0  0  0  0
   20.3455   -9.1515  -16.3683 C   0  0  0  0  0  0  0  0  0  0  0  0
   20.2749   -8.7418  -17.5504 O   0  0  0  0  0  0  0  0  0  0  0  0
   16.7668   -7.0607  -17.5198 C   0  0  0  0  0  0  0  0  0  0  0  0
   17.0503   -7.8252  -16.2511 C   0  0  0  0  0  0  0  0  0  0  0  0
   17.8506   -6.9417  -15.3291 C   0  0  2  0  0  0  0  0  0  0  0  0
   17.3191   -5.5449  -15.3486 C   0  0  0  0  0  0  0  0  0  0  0  0
   19.3289   -6.9791  -15.6497 C   0  0  2  0  0  0  0  0  0  0  0  0
   19.8469   -8.2952  -15.3492 N   0  0  0  0  0  0  0  0  0  0  0  0
   19.9939   -5.9996  -14.7593 C   0  0  0  0  0  0  0  0  0  0  0  0
   20.2990   -6.2813  -13.5674 O   0  0  0  0  0  0  0  0  0  0  0  0
   20.2882   -4.7380  -15.2526 O   0  0  0  0  0  0  0  0  0  0  0  0
  2  3  1  0
  2  1  1  6
  4  2  1  0
  4  5  1  1
  6  4  1  0
  6  8  1  0
  7  6  2  0
  9  8  1  0
  9 12  1  0
  9 10  1  6
 11 10  1  0
 12 19  1  0
 13 12  2  0
 15 14  1  0
 16 17  1  6
 16 15  1  0
 18 20  1  0
 18 16  1  0
 18 19  1  1
 20 22  1  0
 21 20  2  0
M  END
$$$$
