ISM.pdb
     RDKit          3D

 23 22  0  0  1  0  0  0  0  0999 V2000
   21.4237  -18.9761  -16.9494 C   0  0  0  0  0  0  0  0  0  0  0  0
   22.6772  -18.4759  -16.2311 C   0  0  0  0  0  0  0  0  0  0  0  0
   22.8598  -19.2615  -14.9703 C   0  0  2  0  0  0  0  0  0  0  0  0
   21.5852  -19.3924  -14.1765 C   0  0  0  0  0  0  0  0  0  0  0  0
   24.0455  -18.8323  -14.1340 C   0  0  2  0  0  0  0  0  0  0  0  0
   25.1650  -18.7409  -15.0470 N   0  0  0  0  0  0  0  0  0  0  0  0
   24.2521  -19.8096  -13.0666 C   0  0  0  0  0  0  0  0  0  0  0  0
   23.3220  -20.1072  -12.2779 O   0  0  0  0  0  0  0  0  0  0  0  0
   27.7781  -21.7362  -12.8931 O   0  0  0  0  0  0  0  0  0  0  0  0
   26.7448  -22.4552  -12.2746 C   0  0  0  0  0  0  0  0  0  0  0  0
   25.7339  -21.4290  -11.7963 C   0  0  2  0  0  0  0  0  0  0  0  0
   25.4944  -20.4907  -12.8357 N   0  0  0  0  0  0  0  0  0  0  0  0
   26.2649  -20.8291  -10.5491 C   0  0  0  0  0  0  0  0  0  0  0  0
   27.0121  -19.8283  -10.7026 O   0  0  0  0  0  0  0  0  0  0  0  0
   28.5925  -19.6524   -4.5580 C   0  0  0  0  0  0  0  0  0  0  0  0
   28.6671  -19.4985   -6.3801 S   0  0  0  0  0  0  0  0  0  0  0  0
   27.1378  -18.5883   -6.8590 C   0  0  0  0  0  0  0  0  0  0  0  0
   26.5587  -19.2165   -8.0853 C   0  0  0  0  0  0  0  0  0  0  0  0
   26.6386  -20.6987   -8.0823 C   0  0  2  0  0  0  0  0  0  0  0  0
   25.9986  -21.2872   -9.2597 N   0  0  0  0  0  0  0  0  0  0  0  0
   26.1481  -21.3559   -6.8425 C   0  0  0  0  0  0  0  0  0  0  0  0
   25.0155  -21.2301   -6.3540 O   0  0  0  0  0  0  0  0  0  0  0  0
   27.0135  -22.2080   -6.1203 O   0  0  0  0  0  0  0  0  0  0  0  0
  2  1  1  0
  3  4  1  1
  3  2  1  0
  5  6  1  6
  5  3  1  0
  7  5  1  0
  8  7  2  0
  9 10  1  0
 11 10  1  6
 11 12  1  0
 12  7  1  0
 13 11  1  0
 13 20  1  0
 14 13  2  0
 15 16  1  0
 17 16  1  0
 18 17  1  0
 19 20  1  0
 19 18  1  1
 19 21  1  0
 21 23  1  0
 22 21  2  0
M  END
$$$$
