ISM.pdb
     RDKit          3D

 23 22  0  0  1  0  0  0  0  0999 V2000
   27.9669  -17.5418  -17.1413 C   0  0  0  0  0  0  0  0  0  0  0  0
   28.5235  -18.7096  -16.3265 C   0  0  0  0  0  0  0  0  0  0  0  0
   27.4346  -19.2576  -15.4581 C   0  0  2  0  0  0  0  0  0  0  0  0
   26.7837  -18.1999  -14.6040 C   0  0  0  0  0  0  0  0  0  0  0  0
   27.8192  -20.4999  -14.6845 C   0  0  2  0  0  0  0  0  0  0  0  0
   28.3463  -21.4299  -15.6605 N   0  0  0  0  0  0  0  0  0  0  0  0
   26.6403  -21.0071  -13.9846 C   0  0  0  0  0  0  0  0  0  0  0  0
   25.7243  -21.5951  -14.6098 O   0  0  0  0  0  0  0  0  0  0  0  0
   25.8660  -19.8414  -10.1555 O   0  0  0  0  0  0  0  0  0  0  0  0
   25.5281  -21.1851  -10.3734 C   0  0  0  0  0  0  0  0  0  0  0  0
   25.2863  -21.3309  -11.8648 C   0  0  2  0  0  0  0  0  0  0  0  0
   26.4349  -20.8811  -12.5696 N   0  0  0  0  0  0  0  0  0  0  0  0
   24.0463  -20.5863  -12.1895 C   0  0  0  0  0  0  0  0  0  0  0  0
   24.1356  -19.3323  -12.1361 O   0  0  0  0  0  0  0  0  0  0  0  0
   22.3494  -16.5754  -16.6903 C   0  0  0  0  0  0  0  0  0  0  0  0
   22.0583  -18.3657  -16.4461 S   0  0  0  0  0  0  0  0  0  0  0  0
   21.8841  -18.5909  -14.6252 C   0  0  0  0  0  0  0  0  0  0  0  0
   21.6161  -20.0323  -14.3343 C   0  0  0  0  0  0  0  0  0  0  0  0
   21.6580  -20.3593  -12.8870 C   0  0  2  0  0  0  0  0  0  0  0  0
   22.8279  -21.1669  -12.5385 N   0  0  0  0  0  0  0  0  0  0  0  0
   20.4206  -20.9769  -12.3421 C   0  0  0  0  0  0  0  0  0  0  0  0
   19.2688  -20.5406  -12.4840 O   0  0  0  0  0  0  0  0  0  0  0  0
   20.5143  -22.1675  -11.5870 O   0  0  0  0  0  0  0  0  0  0  0  0
  2  1  1  0
  3  4  1  1
  3  2  1  0
  5  6  1  6
  5  3  1  0
  7  5  1  0
  8  7  2  0
  9 10  1  0
 11 10  1  1
 11 12  1  0
 12  7  1  0
 13 11  1  0
 13 20  1  0
 14 13  2  0
 15 16  1  0
 17 16  1  0
 18 17  1  0
 19 20  1  0
 19 18  1  6
 19 21  1  0
 21 23  1  0
 22 21  2  0
M  END
$$$$
