ISM.pdb
     RDKit          3D

 23 22  0  0  1  0  0  0  0  0999 V2000
   20.3420  -15.9043  -19.5982 C   0  0  0  0  0  0  0  0  0  0  0  0
   21.6101  -16.0306  -18.7537 C   0  0  0  0  0  0  0  0  0  0  0  0
   21.8222  -14.7533  -18.0031 C   0  0  2  0  0  0  0  0  0  0  0  0
   21.7047  -13.5350  -18.8827 C   0  0  0  0  0  0  0  0  0  0  0  0
   23.0551  -14.7426  -17.1258 C   0  0  2  0  0  0  0  0  0  0  0  0
   23.0365  -15.9929  -16.3968 N   0  0  0  0  0  0  0  0  0  0  0  0
   23.0084  -13.5687  -16.2558 C   0  0  0  0  0  0  0  0  0  0  0  0
   21.9508  -13.2525  -15.6581 O   0  0  0  0  0  0  0  0  0  0  0  0
   26.1239  -11.0019  -16.3134 O   0  0  0  0  0  0  0  0  0  0  0  0
   25.5086  -11.0002  -15.0530 C   0  0  0  0  0  0  0  0  0  0  0  0
   24.0914  -11.5000  -15.2660 C   0  0  2  0  0  0  0  0  0  0  0  0
   24.1299  -12.7050  -16.0176 N   0  0  0  0  0  0  0  0  0  0  0  0
   23.3265  -10.4071  -15.9124 C   0  0  0  0  0  0  0  0  0  0  0  0
   23.1434  -10.5307  -17.1512 O   0  0  0  0  0  0  0  0  0  0  0  0
   17.8405   -7.2992  -19.2230 C   0  0  0  0  0  0  0  0  0  0  0  0
   18.6936   -8.6203  -18.2869 S   0  0  0  0  0  0  0  0  0  0  0  0
   20.1186   -7.7944  -17.4599 C   0  0  0  0  0  0  0  0  0  0  0  0
   20.9574   -8.8292  -16.7821 C   0  0  0  0  0  0  0  0  0  0  0  0
   22.0580   -8.2554  -15.9680 C   0  0  2  0  0  0  0  0  0  0  0  0
   22.8139   -9.2881  -15.2578 N   0  0  0  0  0  0  0  0  0  0  0  0
   21.6546   -7.1726  -15.0329 C   0  0  0  0  0  0  0  0  0  0  0  0
   21.1675   -6.0792  -15.3557 O   0  0  0  0  0  0  0  0  0  0  0  0
   21.8235   -7.3586  -13.6424 O   0  0  0  0  0  0  0  0  0  0  0  0
  2  1  1  0
  3  4  1  6
  3  2  1  0
  5  6  1  1
  5  3  1  0
  7  5  1  0
  8  7  2  0
  9 10  1  0
 11 10  1  6
 11 12  1  0
 12  7  1  0
 13 11  1  0
 13 20  1  0
 14 13  2  0
 15 16  1  0
 17 16  1  0
 18 17  1  0
 19 20  1  0
 19 18  1  1
 19 21  1  0
 21 23  1  0
 22 21  2  0
M  END
$$$$
