ISM.pdb
     RDKit          3D

 23 22  0  0  1  0  0  0  0  0999 V2000
   12.8203  -25.6128  -11.7128 C   0  0  0  0  0  0  0  0  0  0  0  0
   14.2908  -25.4588  -12.1019 C   0  0  0  0  0  0  0  0  0  0  0  0
   15.1315  -25.5515  -10.8671 C   0  0  2  0  0  0  0  0  0  0  0  0
   14.6203  -24.6802   -9.7484 C   0  0  0  0  0  0  0  0  0  0  0  0
   16.6174  -25.4031  -11.1114 C   0  0  2  0  0  0  0  0  0  0  0  0
   16.9590  -26.3974  -12.1063 N   0  0  0  0  0  0  0  0  0  0  0  0
   17.3271  -25.5873   -9.8467 C   0  0  0  0  0  0  0  0  0  0  0  0
   17.2317  -26.6626   -9.2061 O   0  0  0  0  0  0  0  0  0  0  0  0
   19.3758  -22.5786   -8.7757 O   0  0  0  0  0  0  0  0  0  0  0  0
   19.7311  -23.5105   -7.7895 C   0  0  0  0  0  0  0  0  0  0  0  0
   18.8508  -24.7271   -8.0109 C   0  0  2  0  0  0  0  0  0  0  0  0
   18.1662  -24.5883   -9.2479 N   0  0  0  0  0  0  0  0  0  0  0  0
   17.9574  -24.8500   -6.8345 C   0  0  0  0  0  0  0  0  0  0  0  0
   16.7812  -24.4341   -6.9995 O   0  0  0  0  0  0  0  0  0  0  0  0
   13.3082  -27.1167   -5.8261 C   0  0  0  0  0  0  0  0  0  0  0  0
   13.9446  -27.7150   -4.2178 S   0  0  0  0  0  0  0  0  0  0  0  0
   15.2338  -26.4971   -3.7162 C   0  0  0  0  0  0  0  0  0  0  0  0
   16.1798  -26.2898   -4.8546 C   0  0  0  0  0  0  0  0  0  0  0  0
   17.3738  -25.4867   -4.4901 C   0  0  2  0  0  0  0  0  0  0  0  0
   18.3243  -25.3790   -5.5980 N   0  0  0  0  0  0  0  0  0  0  0  0
   18.0703  -25.9164   -3.2493 C   0  0  0  0  0  0  0  0  0  0  0  0
   19.2605  -26.2532   -3.1647 O   0  0  0  0  0  0  0  0  0  0  0  0
   17.3536  -25.9630   -2.0324 O   0  0  0  0  0  0  0  0  0  0  0  0
  2  1  1  0
  3  4  1  1
  3  2  1  0
  5  6  1  6
  5  3  1  0
  7  5  1  0
  8  7  2  0
  9 10  1  0
 11 10  1  1
 11 12  1  0
 12  7  1  0
 13 11  1  0
 13 20  1  0
 14 13  2  0
 15 16  1  0
 17 16  1  0
 18 17  1  0
 19 20  1  0
 19 18  1  6
 19 21  1  0
 21 23  1  0
 22 21  2  0
M  END
$$$$
