ISM.pdb
     RDKit          3D

 23 22  0  0  1  0  0  0  0  0999 V2000
   25.3750  -14.0469  -15.0860 C   0  0  0  0  0  0  0  0  0  0  0  0
   25.7760  -15.2510  -15.9385 C   0  0  0  0  0  0  0  0  0  0  0  0
   25.8594  -16.4604  -15.0607 C   0  0  2  0  0  0  0  0  0  0  0  0
   26.7951  -16.2696  -13.8946 C   0  0  0  0  0  0  0  0  0  0  0  0
   26.0869  -17.7576  -15.8059 C   0  0  2  0  0  0  0  0  0  0  0  0
   25.1264  -17.7689  -16.8887 N   0  0  0  0  0  0  0  0  0  0  0  0
   25.9199  -18.8740  -14.8771 C   0  0  0  0  0  0  0  0  0  0  0  0
   24.7850  -19.1804  -14.4368 O   0  0  0  0  0  0  0  0  0  0  0  0
   27.9229  -22.1850  -15.1253 O   0  0  0  0  0  0  0  0  0  0  0  0
   28.0252  -21.7666  -13.7905 C   0  0  0  0  0  0  0  0  0  0  0  0
   26.8675  -20.8153  -13.5485 C   0  0  2  0  0  0  0  0  0  0  0  0
   27.0025  -19.6893  -14.4040 N   0  0  0  0  0  0  0  0  0  0  0  0
   26.8603  -20.4814  -12.1043 C   0  0  0  0  0  0  0  0  0  0  0  0
   27.9214  -19.9724  -11.6588 O   0  0  0  0  0  0  0  0  0  0  0  0
   28.3125  -18.8759   -5.3723 C   0  0  0  0  0  0  0  0  0  0  0  0
   27.8562  -18.4225   -7.0857 S   0  0  0  0  0  0  0  0  0  0  0  0
   26.8188  -19.8154   -7.7024 C   0  0  0  0  0  0  0  0  0  0  0  0
   26.7700  -19.7649   -9.1954 C   0  0  0  0  0  0  0  0  0  0  0  0
   25.9838  -20.8708   -9.7973 C   0  0  2  0  0  0  0  0  0  0  0  0
   25.7891  -20.6883  -11.2364 N   0  0  0  0  0  0  0  0  0  0  0  0
   24.6869  -21.1600   -9.1312 C   0  0  0  0  0  0  0  0  0  0  0  0
   23.5683  -21.0965   -9.6621 O   0  0  0  0  0  0  0  0  0  0  0  0
   24.6762  -21.5441   -7.7714 O   0  0  0  0  0  0  0  0  0  0  0  0
  2  1  1  0
  3  4  1  1
  3  2  1  0
  5  6  1  6
  5  3  1  0
  7  5  1  0
  8  7  2  0
  9 10  1  0
 11 10  1  1
 11 12  1  0
 12  7  1  0
 13 11  1  0
 13 20  1  0
 14 13  2  0
 15 16  1  0
 17 16  1  0
 18 17  1  0
 19 20  1  0
 19 18  1  1
 19 21  1  0
 21 23  1  0
 22 21  2  0
M  END
$$$$
