ISM.pdb
     RDKit          3D

 23 22  0  0  1  0  0  0  0  0999 V2000
   21.4094  -20.1113  -15.3309 C   0  0  0  0  0  0  0  0  0  0  0  0
   21.1863  -21.4269  -14.5848 C   0  0  0  0  0  0  0  0  0  0  0  0
   22.3607  -21.6842  -13.6934 C   0  0  2  0  0  0  0  0  0  0  0  0
   22.3534  -20.8211  -12.4578 C   0  0  0  0  0  0  0  0  0  0  0  0
   23.6947  -21.6978  -14.4074 C   0  0  2  0  0  0  0  0  0  0  0  0
   23.5707  -22.6781  -15.4652 N   0  0  0  0  0  0  0  0  0  0  0  0
   24.7455  -22.0210  -13.4439 C   0  0  0  0  0  0  0  0  0  0  0  0
   24.7596  -23.1295  -12.8550 O   0  0  0  0  0  0  0  0  0  0  0  0
   27.6272  -19.2722  -12.7111 O   0  0  0  0  0  0  0  0  0  0  0  0
   28.0657  -20.5847  -12.4825 C   0  0  0  0  0  0  0  0  0  0  0  0
   26.8300  -21.3972  -12.1410 C   0  0  2  0  0  0  0  0  0  0  0  0
   25.8161  -21.1290  -13.0992 N   0  0  0  0  0  0  0  0  0  0  0  0
   26.4497  -21.0643  -10.7475 C   0  0  0  0  0  0  0  0  0  0  0  0
   25.3819  -20.4116  -10.6166 O   0  0  0  0  0  0  0  0  0  0  0  0
   28.9577  -19.9327   -3.3814 C   0  0  0  0  0  0  0  0  0  0  0  0
   29.4417  -20.3835   -5.0878 S   0  0  0  0  0  0  0  0  0  0  0  0
   27.9087  -20.2074   -6.0957 C   0  0  0  0  0  0  0  0  0  0  0  0
   28.1203  -20.8570   -7.4250 C   0  0  0  0  0  0  0  0  0  0  0  0
   26.9321  -20.7854   -8.3120 C   0  0  2  0  0  0  0  0  0  0  0  0
   27.1751  -21.4162   -9.6102 N   0  0  0  0  0  0  0  0  0  0  0  0
   26.3607  -19.4255   -8.4950 C   0  0  0  0  0  0  0  0  0  0  0  0
   25.3649  -18.9723   -7.9116 O   0  0  0  0  0  0  0  0  0  0  0  0
   26.9708  -18.5337   -9.4055 O   0  0  0  0  0  0  0  0  0  0  0  0
  2  1  1  0
  3  4  1  1
  3  2  1  0
  5  6  1  6
  5  3  1  0
  7  5  1  0
  8  7  2  0
  9 10  1  0
 11 10  1  6
 11 12  1  0
 12  7  1  0
 13 11  1  0
 13 20  1  0
 14 13  2  0
 15 16  1  0
 17 16  1  0
 18 17  1  0
 19 20  1  0
 19 18  1  6
 19 21  1  0
 21 23  1  0
 22 21  2  0
M  END
$$$$
