ISM.pdb
     RDKit          3D

 23 22  0  0  1  0  0  0  0  0999 V2000
   24.4558  -15.2533  -17.2169 C   0  0  0  0  0  0  0  0  0  0  0  0
   25.5697  -15.5397  -16.2096 C   0  0  0  0  0  0  0  0  0  0  0  0
   25.1833  -16.7266  -15.3837 C   0  0  2  0  0  0  0  0  0  0  0  0
   23.8010  -16.6016  -14.7961 C   0  0  0  0  0  0  0  0  0  0  0  0
   26.2277  -17.1509  -14.3743 C   0  0  2  0  0  0  0  0  0  0  0  0
   27.4929  -17.1303  -15.0772 N   0  0  0  0  0  0  0  0  0  0  0  0
   25.8785  -18.4729  -13.8571 C   0  0  0  0  0  0  0  0  0  0  0  0
   24.6877  -18.8700  -13.8577 O   0  0  0  0  0  0  0  0  0  0  0  0
   28.7244  -21.2223  -13.3693 O   0  0  0  0  0  0  0  0  0  0  0  0
   27.4153  -21.7213  -13.4348 C   0  0  0  0  0  0  0  0  0  0  0  0
   26.5249  -20.6782  -12.7844 C   0  0  2  0  0  0  0  0  0  0  0  0
   26.8346  -19.4001  -13.3219 N   0  0  0  0  0  0  0  0  0  0  0  0
   26.7164  -20.7814  -11.3182 C   0  0  0  0  0  0  0  0  0  0  0  0
   27.9120  -20.8113  -10.9270 O   0  0  0  0  0  0  0  0  0  0  0  0
   28.4834  -19.5525   -4.4679 C   0  0  0  0  0  0  0  0  0  0  0  0
   28.2021  -19.1021   -6.2193 S   0  0  0  0  0  0  0  0  0  0  0  0
   27.0292  -20.3666   -6.8691 C   0  0  0  0  0  0  0  0  0  0  0  0
   26.8852  -20.1868   -8.3459 C   0  0  0  0  0  0  0  0  0  0  0  0
   25.9512  -21.1573   -8.9697 C   0  0  2  0  0  0  0  0  0  0  0  0
   25.6910  -20.8454  -10.3759 N   0  0  0  0  0  0  0  0  0  0  0  0
   24.6733  -21.3641   -8.2393 C   0  0  0  0  0  0  0  0  0  0  0  0
   23.5372  -21.1630   -8.6934 O   0  0  0  0  0  0  0  0  0  0  0  0
   24.7044  -21.8288   -6.9052 O   0  0  0  0  0  0  0  0  0  0  0  0
  2  1  1  0
  3  4  1  1
  3  2  1  0
  5  6  1  6
  5  3  1  0
  7  5  1  0
  8  7  2  0
  9 10  1  0
 11 10  1  6
 11 12  1  0
 12  7  1  0
 13 11  1  0
 13 20  1  0
 14 13  2  0
 15 16  1  0
 17 16  1  0
 18 17  1  0
 19 20  1  0
 19 18  1  1
 19 21  1  0
 21 23  1  0
 22 21  2  0
M  END
$$$$
