ISM.pdb
     RDKit          3D

 23 22  0  0  1  0  0  0  0  0999 V2000
   16.3476  -15.8766  -15.9688 C   0  0  0  0  0  0  0  0  0  0  0  0
   15.8055  -15.0033  -17.1005 C   0  0  0  0  0  0  0  0  0  0  0  0
   16.5879  -13.7283  -17.1467 C   0  0  2  0  0  0  0  0  0  0  0  0
   16.7504  -13.0958  -15.7882 C   0  0  0  0  0  0  0  0  0  0  0  0
   16.1313  -12.7542  -18.2108 C   0  0  2  0  0  0  0  0  0  0  0  0
   16.1113  -13.4997  -19.4514 N   0  0  0  0  0  0  0  0  0  0  0  0
   17.0488  -11.6166  -18.2380 C   0  0  0  0  0  0  0  0  0  0  0  0
   18.2432  -11.7617  -18.5959 O   0  0  0  0  0  0  0  0  0  0  0  0
   15.8836   -7.9984  -16.7005 O   0  0  0  0  0  0  0  0  0  0  0  0
   16.7190   -7.8855  -17.8215 C   0  0  0  0  0  0  0  0  0  0  0  0
   17.5464   -9.1571  -17.8704 C   0  0  2  0  0  0  0  0  0  0  0  0
   16.6762  -10.2800  -17.8702 N   0  0  0  0  0  0  0  0  0  0  0  0
   18.4876   -9.1199  -16.7259 C   0  0  0  0  0  0  0  0  0  0  0  0
   18.1153   -9.7391  -15.6956 O   0  0  0  0  0  0  0  0  0  0  0  0
   23.9946  -11.4245  -12.8721 C   0  0  0  0  0  0  0  0  0  0  0  0
   23.8211  -10.7360  -14.5589 S   0  0  0  0  0  0  0  0  0  0  0  0
   22.5794   -9.3822  -14.4113 C   0  0  0  0  0  0  0  0  0  0  0  0
   21.6626   -9.4289  -15.5907 C   0  0  0  0  0  0  0  0  0  0  0  0
   20.5674   -8.4289  -15.5262 C   0  0  2  0  0  0  0  0  0  0  0  0
   19.7181   -8.4646  -16.7177 N   0  0  0  0  0  0  0  0  0  0  0  0
   20.9991   -7.0360  -15.2385 C   0  0  0  0  0  0  0  0  0  0  0  0
   21.1443   -6.1337  -16.0763 O   0  0  0  0  0  0  0  0  0  0  0  0
   21.2825   -6.6589  -13.9066 O   0  0  0  0  0  0  0  0  0  0  0  0
  2  1  1  0
  3  4  1  1
  3  2  1  0
  5  6  1  6
  5  3  1  0
  7  5  1  0
  8  7  2  0
  9 10  1  0
 11 10  1  1
 11 12  1  0
 12  7  1  0
 13 11  1  0
 13 20  1  0
 14 13  2  0
 15 16  1  0
 17 16  1  0
 18 17  1  0
 19 20  1  0
 19 18  1  6
 19 21  1  0
 21 23  1  0
 22 21  2  0
M  END
$$$$
