ISM.pdb
     RDKit          3D

 23 22  0  0  1  0  0  0  0  0999 V2000
   26.0724  -13.8087  -15.3834 C   0  0  0  0  0  0  0  0  0  0  0  0
   26.2294  -15.0733  -16.2283 C   0  0  0  0  0  0  0  0  0  0  0  0
   26.0049  -16.2695  -15.3572 C   0  0  2  0  0  0  0  0  0  0  0  0
   26.8144  -16.2242  -14.0866 C   0  0  0  0  0  0  0  0  0  0  0  0
   26.0990  -17.5949  -16.0811 C   0  0  2  0  0  0  0  0  0  0  0  0
   25.2587  -17.4695  -17.2530 N   0  0  0  0  0  0  0  0  0  0  0  0
   25.6703  -18.6608  -15.1773 C   0  0  0  0  0  0  0  0  0  0  0  0
   24.5165  -18.6599  -14.6828 O   0  0  0  0  0  0  0  0  0  0  0  0
   28.3045  -21.5979  -14.2126 O   0  0  0  0  0  0  0  0  0  0  0  0
   26.9701  -22.0265  -14.1573 C   0  0  0  0  0  0  0  0  0  0  0  0
   26.1331  -20.7908  -13.8808 C   0  0  2  0  0  0  0  0  0  0  0  0
   26.5033  -19.7638  -14.7898 N   0  0  0  0  0  0  0  0  0  0  0  0
   26.3231  -20.4347  -12.4545 C   0  0  0  0  0  0  0  0  0  0  0  0
   27.4735  -20.0303  -12.1438 O   0  0  0  0  0  0  0  0  0  0  0  0
   27.4324  -17.9182   -7.5512 C   0  0  0  0  0  0  0  0  0  0  0  0
   27.9630  -19.6172   -7.1254 S   0  0  0  0  0  0  0  0  0  0  0  0
   26.7641  -20.7325   -7.9713 C   0  0  0  0  0  0  0  0  0  0  0  0
   26.6331  -20.3156   -9.4006 C   0  0  0  0  0  0  0  0  0  0  0  0
   25.6154  -21.0935  -10.1507 C   0  0  2  0  0  0  0  0  0  0  0  0
   25.3418  -20.5165  -11.4677 N   0  0  0  0  0  0  0  0  0  0  0  0
   24.3454  -21.3433   -9.4199 C   0  0  0  0  0  0  0  0  0  0  0  0
   24.2352  -21.5295   -8.1991 O   0  0  0  0  0  0  0  0  0  0  0  0
   23.1288  -21.3832  -10.1374 O   0  0  0  0  0  0  0  0  0  0  0  0
  2  1  1  0
  3  4  1  1
  3  2  1  0
  5  6  1  6
  5  3  1  0
  7  5  1  0
  8  7  2  0
  9 10  1  0
 11 10  1  6
 11 12  1  0
 12  7  1  0
 13 11  1  0
 13 20  1  0
 14 13  2  0
 15 16  1  0
 17 16  1  0
 18 17  1  0
 19 20  1  0
 19 18  1  1
 19 21  1  0
 21 23  1  0
 22 21  2  0
M  END
$$$$
