ISM.pdb
     RDKit          3D

 23 22  0  0  1  0  0  0  0  0999 V2000
   24.6227  -13.1496  -15.2681 C   0  0  0  0  0  0  0  0  0  0  0  0
   23.6805  -13.2319  -16.4694 C   0  0  0  0  0  0  0  0  0  0  0  0
   23.1886  -11.8563  -16.7949 C   0  0  2  0  0  0  0  0  0  0  0  0
   22.6024  -11.1499  -15.5994 C   0  0  0  0  0  0  0  0  0  0  0  0
   22.3102  -11.7828  -18.0249 C   0  0  2  0  0  0  0  0  0  0  0  0
   23.0064  -12.5218  -19.0566 N   0  0  0  0  0  0  0  0  0  0  0  0
   22.0932  -10.3789  -18.3698 C   0  0  0  0  0  0  0  0  0  0  0  0
   23.0621   -9.6192  -18.6144 O   0  0  0  0  0  0  0  0  0  0  0  0
   18.2682   -8.9229  -18.7890 O   0  0  0  0  0  0  0  0  0  0  0  0
   19.2559   -8.3210  -19.5823 C   0  0  0  0  0  0  0  0  0  0  0  0
   20.5516   -8.4108  -18.7969 C   0  0  2  0  0  0  0  0  0  0  0  0
   20.7971   -9.7679  -18.4558 N   0  0  0  0  0  0  0  0  0  0  0  0
   20.4281   -7.5057  -17.6296 C   0  0  0  0  0  0  0  0  0  0  0  0
   20.0818   -8.0537  -16.5511 O   0  0  0  0  0  0  0  0  0  0  0  0
   21.8182   -7.6853  -12.9766 C   0  0  0  0  0  0  0  0  0  0  0  0
   22.2184   -5.9165  -12.7308 S   0  0  0  0  0  0  0  0  0  0  0  0
   21.3582   -5.0243  -14.0949 C   0  0  0  0  0  0  0  0  0  0  0  0
   21.3572   -5.8843  -15.3173 C   0  0  0  0  0  0  0  0  0  0  0  0
   20.5698   -5.3138  -16.4389 C   0  0  2  0  0  0  0  0  0  0  0  0
   20.6629   -6.1317  -17.6491 N   0  0  0  0  0  0  0  0  0  0  0  0
   20.8562   -3.8893  -16.7523 C   0  0  0  0  0  0  0  0  0  0  0  0
   21.4618   -3.4737  -17.7511 O   0  0  0  0  0  0  0  0  0  0  0  0
   20.4209   -2.8823  -15.8618 O   0  0  0  0  0  0  0  0  0  0  0  0
  2  1  1  0
  3  4  1  1
  3  2  1  0
  5  6  1  6
  5  3  1  0
  7  5  1  0
  8  7  2  0
  9 10  1  0
 11 10  1  1
 11 12  1  0
 12  7  1  0
 13 11  1  0
 13 20  1  0
 14 13  2  0
 15 16  1  0
 17 16  1  0
 18 17  1  0
 19 20  1  0
 19 18  1  1
 19 21  1  0
 21 23  1  0
 22 21  2  0
M  END
$$$$
