AFG.pdb
     RDKit          3D

 21 21  0  0  1  0  0  0  0  0999 V2000
    7.3467  -13.2164   20.5009 C   0  0  0  0  0  0  0  0  0  0  0  0
    7.9231  -14.5965   20.8155 C   0  0  2  0  0  0  0  0  0  0  0  0
    6.8354  -15.5254   20.8251 N   0  0  0  0  0  0  0  0  0  0  0  0
    8.5938  -14.5029   22.1532 C   0  0  0  0  0  0  0  0  0  0  0  0
    9.6197  -13.7803   22.2397 O   0  0  0  0  0  0  0  0  0  0  0  0
    8.1441  -15.1685   23.2943 N   0  0  0  0  0  0  0  0  0  0  0  0
    8.8492  -15.0677   24.5760 C   0  0  1  0  0  0  0  0  0  0  0  0
    7.8760  -14.9947   25.7044 C   0  0  0  0  0  0  0  0  0  0  0  0
    7.3534  -13.6806   26.0374 C   0  0  0  0  0  0  0  0  0  0  0  0
    8.1596  -12.5974   26.3825 C   0  0  0  0  0  0  0  0  0  0  0  0
    7.6586  -11.3508   26.6850 C   0  0  0  0  0  0  0  0  0  0  0  0
    6.3040  -11.1501   26.6492 C   0  0  0  0  0  0  0  0  0  0  0  0
    5.4958  -12.1982   26.3133 C   0  0  0  0  0  0  0  0  0  0  0  0
    5.9920  -13.4585   26.0068 C   0  0  0  0  0  0  0  0  0  0  0  0
    9.7481  -16.2160   24.7718 C   0  0  0  0  0  0  0  0  0  0  0  0
   10.3787  -16.3954   25.8430 O   0  0  0  0  0  0  0  0  0  0  0  0
    9.9637  -17.2052   23.7543 N   0  0  0  0  0  0  0  0  0  0  0  0
   10.7776  -18.3732   24.0299 C   0  0  0  0  0  0  0  0  0  0  0  0
   12.1804  -18.1791   23.6269 C   0  0  0  0  0  0  0  0  0  0  0  0
   12.5644  -17.0785   23.1602 O   0  0  0  0  0  0  0  0  0  0  0  0
   13.0613  -19.2563   23.7820 O   0  0  0  0  0  0  0  0  0  0  0  0
  2  1  1  1
  3  2  1  0
  4  5  2  0
  4  2  1  0
  6  4  1  0
  7  6  1  0
  7 15  1  0
  7  8  1  1
  9  8  1  0
 10  9  2  0
 11 10  1  0
 12 11  2  0
 12 13  1  0
 13 14  2  0
 14  9  1  0
 15 17  1  0
 16 15  2  0
 17 18  1  0
 19 21  1  0
 19 18  1  0
 20 19  2  0
M  END
$$$$
