AFG.pdb
     RDKit          3D

 21 21  0  0  1  0  0  0  0  0999 V2000
    8.4019  -19.9165   21.9120 C   0  0  0  0  0  0  0  0  0  0  0  0
    7.2724  -18.9227   21.6429 C   0  0  2  0  0  0  0  0  0  0  0  0
    7.1397  -18.7955   20.2245 N   0  0  0  0  0  0  0  0  0  0  0  0
    7.6586  -17.6262   22.2896 C   0  0  0  0  0  0  0  0  0  0  0  0
    8.3923  -16.8446   21.6319 O   0  0  0  0  0  0  0  0  0  0  0  0
    7.2508  -17.2462   23.5689 N   0  0  0  0  0  0  0  0  0  0  0  0
    7.6958  -15.9901   24.1806 C   0  0  1  0  0  0  0  0  0  0  0  0
    6.6971  -15.5122   25.1804 C   0  0  0  0  0  0  0  0  0  0  0  0
    6.9560  -14.2259   25.8046 C   0  0  0  0  0  0  0  0  0  0  0  0
    7.9653  -14.0157   26.7424 C   0  0  0  0  0  0  0  0  0  0  0  0
    8.2136  -12.7909   27.3211 C   0  0  0  0  0  0  0  0  0  0  0  0
    7.4394  -11.7175   26.9678 C   0  0  0  0  0  0  0  0  0  0  0  0
    6.4449  -11.9015   26.0503 C   0  0  0  0  0  0  0  0  0  0  0  0
    6.1873  -13.1326   25.4617 C   0  0  0  0  0  0  0  0  0  0  0  0
    9.0048  -16.1585   24.8310 C   0  0  0  0  0  0  0  0  0  0  0  0
    9.1353  -16.7676   25.9216 O   0  0  0  0  0  0  0  0  0  0  0  0
   10.2170  -15.6394   24.2640 N   0  0  0  0  0  0  0  0  0  0  0  0
   11.4829  -15.8268   24.9459 C   0  0  0  0  0  0  0  0  0  0  0  0
   12.6284  -15.7258   24.0264 C   0  0  0  0  0  0  0  0  0  0  0  0
   12.4467  -15.6407   22.7869 O   0  0  0  0  0  0  0  0  0  0  0  0
   13.9145  -15.7282   24.5797 O   0  0  0  0  0  0  0  0  0  0  0  0
  2  1  1  6
  3  2  1  0
  4  5  2  0
  4  2  1  0
  6  4  1  0
  7  6  1  0
  7 15  1  0
  7  8  1  1
  9  8  1  0
 10  9  2  0
 11 10  1  0
 12 11  2  0
 12 13  1  0
 13 14  2  0
 14  9  1  0
 15 17  1  0
 16 15  2  0
 17 18  1  0
 19 21  1  0
 19 18  1  0
 20 19  2  0
M  END
$$$$
