AFG.pdb
     RDKit          3D

 21 21  0  0  1  0  0  0  0  0999 V2000
    6.9359  -13.6293   20.9010 C   0  0  0  0  0  0  0  0  0  0  0  0
    7.7131  -14.9185   21.1650 C   0  0  2  0  0  0  0  0  0  0  0  0
    6.7587  -15.9722   21.3217 N   0  0  0  0  0  0  0  0  0  0  0  0
    8.5211  -14.7027   22.4095 C   0  0  0  0  0  0  0  0  0  0  0  0
    9.4793  -13.8903   22.3467 O   0  0  0  0  0  0  0  0  0  0  0  0
    8.2680  -15.3490   23.6201 N   0  0  0  0  0  0  0  0  0  0  0  0
    9.0951  -15.1160   24.8082 C   0  0  1  0  0  0  0  0  0  0  0  0
    8.2441  -15.0370   26.0309 C   0  0  0  0  0  0  0  0  0  0  0  0
    7.5472  -13.7841   26.2666 C   0  0  0  0  0  0  0  0  0  0  0  0
    8.1949  -12.5572   26.3996 C   0  0  0  0  0  0  0  0  0  0  0  0
    7.5274  -11.3712   26.6104 C   0  0  0  0  0  0  0  0  0  0  0  0
    6.1603  -11.3817   26.6957 C   0  0  0  0  0  0  0  0  0  0  0  0
    5.5058  -12.5733   26.5681 C   0  0  0  0  0  0  0  0  0  0  0  0
    6.1703  -13.7739   26.3553 C   0  0  0  0  0  0  0  0  0  0  0  0
   10.0942  -16.1840   24.9693 C   0  0  0  0  0  0  0  0  0  0  0  0
   10.8180  -16.2727   25.9919 O   0  0  0  0  0  0  0  0  0  0  0  0
   10.3079  -17.1933   23.9712 N   0  0  0  0  0  0  0  0  0  0  0  0
   11.2141  -18.2958   24.2276 C   0  0  0  0  0  0  0  0  0  0  0  0
   12.5874  -17.9986   23.7878 C   0  0  0  0  0  0  0  0  0  0  0  0
   13.4962  -18.8568   23.9077 O   0  0  0  0  0  0  0  0  0  0  0  0
   12.8399  -16.7367   23.2364 O   0  0  0  0  0  0  0  0  0  0  0  0
  2  1  1  1
  3  2  1  0
  4  5  2  0
  4  2  1  0
  6  4  1  0
  7  6  1  0
  7 15  1  0
  7  8  1  1
  9  8  1  0
 10  9  2  0
 11 10  1  0
 12 11  2  0
 12 13  1  0
 13 14  2  0
 14  9  1  0
 15 17  1  0
 16 15  2  0
 17 18  1  0
 19 21  1  0
 19 18  1  0
 20 19  2  0
M  END
$$$$
