AFG.pdb
     RDKit          3D

 21 21  0  0  1  0  0  0  0  0999 V2000
    6.8585  -17.2456   20.4824 C   0  0  0  0  0  0  0  0  0  0  0  0
    6.7796  -15.7562   20.8158 C   0  0  2  0  0  0  0  0  0  0  0  0
    7.2205  -15.0330   19.6632 N   0  0  0  0  0  0  0  0  0  0  0  0
    7.6668  -15.5191   22.0011 C   0  0  0  0  0  0  0  0  0  0  0  0
    8.8316  -15.0991   21.7803 O   0  0  0  0  0  0  0  0  0  0  0  0
    7.2716  -15.7379   23.3214 N   0  0  0  0  0  0  0  0  0  0  0  0
    8.1022  -15.3215   24.4557 C   0  0  1  0  0  0  0  0  0  0  0  0
    7.2499  -14.9862   25.6333 C   0  0  0  0  0  0  0  0  0  0  0  0
    7.0127  -13.5764   25.8926 C   0  0  0  0  0  0  0  0  0  0  0  0
    7.7847  -12.5535   25.3449 C   0  0  0  0  0  0  0  0  0  0  0  0
    7.5467  -11.2184   25.5847 C   0  0  0  0  0  0  0  0  0  0  0  0
    6.5041  -10.8628   26.3990 C   0  0  0  0  0  0  0  0  0  0  0  0
    5.7350  -11.8496   26.9460 C   0  0  0  0  0  0  0  0  0  0  0  0
    5.9673  -13.1981   26.7098 C   0  0  0  0  0  0  0  0  0  0  0  0
    9.0578  -16.3787   24.8220 C   0  0  0  0  0  0  0  0  0  0  0  0
    8.7150  -17.3878   25.4866 O   0  0  0  0  0  0  0  0  0  0  0  0
   10.4419  -16.3276   24.4452 N   0  0  0  0  0  0  0  0  0  0  0  0
   11.3016  -17.4754   24.6597 C   0  0  0  0  0  0  0  0  0  0  0  0
   12.7002  -17.1967   24.2936 C   0  0  0  0  0  0  0  0  0  0  0  0
   12.9692  -16.4251   23.3402 O   0  0  0  0  0  0  0  0  0  0  0  0
   13.7088  -17.8176   25.0402 O   0  0  0  0  0  0  0  0  0  0  0  0
  2  1  1  6
  3  2  1  0
  4  5  2  0
  4  2  1  0
  6  4  1  0
  7  6  1  0
  7 15  1  0
  7  8  1  1
  9  8  1  0
 10  9  2  0
 11 10  1  0
 12 11  2  0
 12 13  1  0
 13 14  2  0
 14  9  1  0
 15 17  1  0
 16 15  2  0
 17 18  1  0
 19 21  1  0
 19 18  1  0
 20 19  2  0
M  END
$$$$
