AFG.pdb
     RDKit          3D

 21 21  0  0  1  0  0  0  0  0999 V2000
    6.8589  -19.4183   26.0233 C   0  0  0  0  0  0  0  0  0  0  0  0
    6.1521  -18.8387   24.7984 C   0  0  2  0  0  0  0  0  0  0  0  0
    5.8193  -19.9305   23.9365 N   0  0  0  0  0  0  0  0  0  0  0  0
    7.1045  -17.8801   24.1487 C   0  0  0  0  0  0  0  0  0  0  0  0
    7.8928  -18.3406   23.2836 O   0  0  0  0  0  0  0  0  0  0  0  0
    7.1610  -16.5188   24.4507 N   0  0  0  0  0  0  0  0  0  0  0  0
    8.1152  -15.6204   23.7932 C   0  0  1  0  0  0  0  0  0  0  0  0
    7.5722  -14.2322   23.7348 C   0  0  0  0  0  0  0  0  0  0  0  0
    7.2686  -13.5914   25.0030 C   0  0  0  0  0  0  0  0  0  0  0  0
    8.1831  -12.8116   25.7087 C   0  0  0  0  0  0  0  0  0  0  0  0
    7.8851  -12.1966   26.9043 C   0  0  0  0  0  0  0  0  0  0  0  0
    6.6331  -12.3494   27.4387 C   0  0  0  0  0  0  0  0  0  0  0  0
    5.7216  -13.1094   26.7633 C   0  0  0  0  0  0  0  0  0  0  0  0
    6.0131  -13.7332   25.5574 C   0  0  0  0  0  0  0  0  0  0  0  0
    9.4054  -15.6173   24.5006 C   0  0  0  0  0  0  0  0  0  0  0  0
    9.4800  -15.5699   25.7534 O   0  0  0  0  0  0  0  0  0  0  0  0
   10.6616  -15.6680   23.8079 N   0  0  0  0  0  0  0  0  0  0  0  0
   11.9077  -15.5996   24.5462 C   0  0  0  0  0  0  0  0  0  0  0  0
   13.0808  -15.7460   23.6687 C   0  0  0  0  0  0  0  0  0  0  0  0
   12.9367  -15.9191   22.4334 O   0  0  0  0  0  0  0  0  0  0  0  0
   14.3501  -15.6857   24.2566 O   0  0  0  0  0  0  0  0  0  0  0  0
  2  1  1  1
  3  2  1  0
  4  5  2  0
  4  2  1  0
  6  4  1  0
  7  6  1  0
  7 15  1  0
  7  8  1  1
  9  8  1  0
 10  9  2  0
 11 10  1  0
 12 11  2  0
 12 13  1  0
 13 14  2  0
 14  9  1  0
 15 17  1  0
 16 15  2  0
 17 18  1  0
 19 21  1  0
 19 18  1  0
 20 19  2  0
M  END
$$$$
