AFG.pdb
     RDKit          3D

 21 21  0  0  1  0  0  0  0  0999 V2000
   10.0180  -19.4950   20.4469 C   0  0  0  0  0  0  0  0  0  0  0  0
    9.5010  -18.1331   19.9846 C   0  0  2  0  0  0  0  0  0  0  0  0
   10.0944  -17.8563   18.7130 N   0  0  0  0  0  0  0  0  0  0  0  0
    9.9041  -17.1296   21.0231 C   0  0  0  0  0  0  0  0  0  0  0  0
   10.9271  -16.4348   20.7937 O   0  0  0  0  0  0  0  0  0  0  0  0
    9.2108  -16.9287   22.2175 N   0  0  0  0  0  0  0  0  0  0  0  0
    9.5424  -15.8281   23.1277 C   0  0  1  0  0  0  0  0  0  0  0  0
    8.3671  -14.9275   23.3100 C   0  0  0  0  0  0  0  0  0  0  0  0
    7.8746  -14.2424   22.1271 C   0  0  0  0  0  0  0  0  0  0  0  0
    6.8037  -14.7018   21.3625 C   0  0  0  0  0  0  0  0  0  0  0  0
    6.3337  -14.0409   20.2495 C   0  0  0  0  0  0  0  0  0  0  0  0
    6.9377  -12.8739   19.8625 C   0  0  0  0  0  0  0  0  0  0  0  0
    7.9888  -12.4059   20.5979 C   0  0  0  0  0  0  0  0  0  0  0  0
    8.4695  -13.0654   21.7215 C   0  0  0  0  0  0  0  0  0  0  0  0
    9.9787  -16.3424   24.4354 C   0  0  0  0  0  0  0  0  0  0  0  0
   10.3825  -15.5831   25.3508 O   0  0  0  0  0  0  0  0  0  0  0  0
    9.9719  -17.7425   24.7516 N   0  0  0  0  0  0  0  0  0  0  0  0
   11.1482  -18.5540   24.5057 C   0  0  0  0  0  0  0  0  0  0  0  0
   12.2862  -18.1506   25.3484 C   0  0  0  0  0  0  0  0  0  0  0  0
   12.5539  -16.9361   25.5213 O   0  0  0  0  0  0  0  0  0  0  0  0
   13.0508  -19.1611   25.9438 O   0  0  0  0  0  0  0  0  0  0  0  0
  2  1  1  1
  3  2  1  0
  4  5  2  0
  4  2  1  0
  6  4  1  0
  7  6  1  0
  7 15  1  0
  7  8  1  1
  9  8  1  0
 10  9  2  0
 11 10  1  0
 12 11  2  0
 12 13  1  0
 13 14  2  0
 14  9  1  0
 15 17  1  0
 16 15  2  0
 17 18  1  0
 19 21  1  0
 19 18  1  0
 20 19  2  0
M  END
$$$$
