AFG.pdb
     RDKit          3D

 21 21  0  0  1  0  0  0  0  0999 V2000
    5.7907  -18.2333   20.2097 C   0  0  0  0  0  0  0  0  0  0  0  0
    6.2223  -18.8215   21.5526 C   0  0  2  0  0  0  0  0  0  0  0  0
    5.0560  -18.9184   22.3750 N   0  0  0  0  0  0  0  0  0  0  0  0
    7.2452  -17.8931   22.1356 C   0  0  0  0  0  0  0  0  0  0  0  0
    8.3603  -17.8206   21.5581 O   0  0  0  0  0  0  0  0  0  0  0  0
    7.0268  -17.1142   23.2727 N   0  0  0  0  0  0  0  0  0  0  0  0
    8.0757  -16.2587   23.8364 C   0  0  1  0  0  0  0  0  0  0  0  0
    7.6883  -14.8215   23.7375 C   0  0  0  0  0  0  0  0  0  0  0  0
    7.7956  -14.2006   22.4282 C   0  0  0  0  0  0  0  0  0  0  0  0
    6.7536  -13.5025   21.8207 C   0  0  0  0  0  0  0  0  0  0  0  0
    6.8659  -12.9055   20.5847 C   0  0  0  0  0  0  0  0  0  0  0  0
    8.0532  -12.9935   19.9073 C   0  0  0  0  0  0  0  0  0  0  0  0
    9.0873  -13.6730   20.4847 C   0  0  0  0  0  0  0  0  0  0  0  0
    8.9833  -14.2779   21.7303 C   0  0  0  0  0  0  0  0  0  0  0  0
    8.3354  -16.6050   25.2427 C   0  0  0  0  0  0  0  0  0  0  0  0
    9.2028  -16.0089   25.9281 O   0  0  0  0  0  0  0  0  0  0  0  0
    7.6168  -17.6445   25.9234 N   0  0  0  0  0  0  0  0  0  0  0  0
    7.9081  -17.9479   27.3110 C   0  0  0  0  0  0  0  0  0  0  0  0
    8.9023  -19.0255   27.4461 C   0  0  0  0  0  0  0  0  0  0  0  0
    9.4672  -19.5040   26.4319 O   0  0  0  0  0  0  0  0  0  0  0  0
    9.1915  -19.4921   28.7341 O   0  0  0  0  0  0  0  0  0  0  0  0
  2  1  1  6
  3  2  1  0
  4  5  2  0
  4  2  1  0
  6  4  1  0
  7  6  1  0
  7 15  1  0
  7  8  1  1
  9  8  1  0
 10  9  2  0
 11 10  1  0
 12 11  2  0
 12 13  1  0
 13 14  2  0
 14  9  1  0
 15 17  1  0
 16 15  2  0
 17 18  1  0
 19 21  1  0
 19 18  1  0
 20 19  2  0
M  END
$$$$
