AFG.pdb
     RDKit          3D

 21 21  0  0  1  0  0  0  0  0999 V2000
    7.8648  -13.4992   18.5007 C   0  0  0  0  0  0  0  0  0  0  0  0
    8.4951  -14.6268   19.3174 C   0  0  2  0  0  0  0  0  0  0  0  0
    7.6142  -15.7517   19.2499 N   0  0  0  0  0  0  0  0  0  0  0  0
    8.6559  -14.1224   20.7202 C   0  0  0  0  0  0  0  0  0  0  0  0
    9.5059  -13.2168   20.9183 O   0  0  0  0  0  0  0  0  0  0  0  0
    7.9197  -14.6003   21.8051 N   0  0  0  0  0  0  0  0  0  0  0  0
    8.1122  -14.0759   23.1608 C   0  0  1  0  0  0  0  0  0  0  0  0
    6.7999  -13.7263   23.7780 C   0  0  0  0  0  0  0  0  0  0  0  0
    6.8377  -13.0514   25.0641 C   0  0  0  0  0  0  0  0  0  0  0  0
    6.1069  -13.4709   26.1743 C   0  0  0  0  0  0  0  0  0  0  0  0
    6.1568  -12.8339   27.3943 C   0  0  0  0  0  0  0  0  0  0  0  0
    6.9592  -11.7332   27.5393 C   0  0  0  0  0  0  0  0  0  0  0  0
    7.6839  -11.3054   26.4640 C   0  0  0  0  0  0  0  0  0  0  0  0
    7.6399  -11.9412   25.2302 C   0  0  0  0  0  0  0  0  0  0  0  0
    8.8116  -15.0552   24.0074 C   0  0  0  0  0  0  0  0  0  0  0  0
    9.0580  -14.8351   25.2191 O   0  0  0  0  0  0  0  0  0  0  0  0
    9.2579  -16.3241   23.5064 N   0  0  0  0  0  0  0  0  0  0  0  0
    9.9358  -17.2596   24.3827 C   0  0  0  0  0  0  0  0  0  0  0  0
   11.3984  -17.2106   24.2209 C   0  0  0  0  0  0  0  0  0  0  0  0
   11.9254  -16.4013   23.4184 O   0  0  0  0  0  0  0  0  0  0  0  0
   12.1720  -18.0907   24.9873 O   0  0  0  0  0  0  0  0  0  0  0  0
  2  1  1  6
  3  2  1  0
  4  5  2  0
  4  2  1  0
  6  4  1  0
  7  6  1  0
  7 15  1  0
  7  8  1  1
  9  8  1  0
 10  9  2  0
 11 10  1  0
 12 11  2  0
 12 13  1  0
 13 14  2  0
 14  9  1  0
 15 17  1  0
 16 15  2  0
 17 18  1  0
 19 21  1  0
 19 18  1  0
 20 19  2  0
M  END
$$$$
