AFG.pdb
     RDKit          3D

 21 21  0  0  1  0  0  0  0  0999 V2000
   10.1093  -19.7009   19.7716 C   0  0  0  0  0  0  0  0  0  0  0  0
    9.5439  -18.3368   19.3775 C   0  0  2  0  0  0  0  0  0  0  0  0
    9.9719  -18.0634   18.0404 N   0  0  0  0  0  0  0  0  0  0  0  0
   10.0804  -17.3346   20.3552 C   0  0  0  0  0  0  0  0  0  0  0  0
   11.1303  -16.7186   20.0388 O   0  0  0  0  0  0  0  0  0  0  0  0
    9.4821  -17.0532   21.5841 N   0  0  0  0  0  0  0  0  0  0  0  0
    9.9806  -15.9886   22.4605 C   0  0  1  0  0  0  0  0  0  0  0  0
    8.8526  -15.1468   22.9551 C   0  0  0  0  0  0  0  0  0  0  0  0
    8.0798  -14.4303   21.9549 C   0  0  0  0  0  0  0  0  0  0  0  0
    6.8751  -14.8986   21.4334 C   0  0  0  0  0  0  0  0  0  0  0  0
    6.1410  -14.2085   20.4946 C   0  0  0  0  0  0  0  0  0  0  0  0
    6.6042  -13.0016   20.0417 C   0  0  0  0  0  0  0  0  0  0  0  0
    7.7826  -12.5242   20.5397 C   0  0  0  0  0  0  0  0  0  0  0  0
    8.5295  -13.2130   21.4864 C   0  0  0  0  0  0  0  0  0  0  0  0
   10.7155  -16.5519   23.6039 C   0  0  0  0  0  0  0  0  0  0  0  0
   11.2132  -15.8268   24.5005 O   0  0  0  0  0  0  0  0  0  0  0  0
   10.9122  -17.9639   23.7707 N   0  0  0  0  0  0  0  0  0  0  0  0
   11.6237  -18.4722   24.9274 C   0  0  0  0  0  0  0  0  0  0  0  0
   13.0830  -18.4564   24.7319 C   0  0  0  0  0  0  0  0  0  0  0  0
   13.6239  -19.2241   23.8985 O   0  0  0  0  0  0  0  0  0  0  0  0
   13.8373  -17.5628   25.5018 O   0  0  0  0  0  0  0  0  0  0  0  0
  2  1  1  1
  3  2  1  0
  4  5  2  0
  4  2  1  0
  6  4  1  0
  7  6  1  0
  7 15  1  0
  7  8  1  1
  9  8  1  0
 10  9  2  0
 11 10  1  0
 12 11  2  0
 12 13  1  0
 13 14  2  0
 14  9  1  0
 15 17  1  0
 16 15  2  0
 17 18  1  0
 19 21  1  0
 19 18  1  0
 20 19  2  0
M  END
$$$$
