IPI.pdb
     RDKit          3D

 24 24  0  0  1  0  0  0  0  0999 V2000
   14.6310  -10.3143  -17.6765 C   0  0  0  0  0  0  0  0  0  0  0  0
   15.9462  -10.7056  -17.0583 C   0  0  0  0  0  0  0  0  0  0  0  0
   16.1729  -10.0713  -15.7108 C   0  0  2  0  0  0  0  0  0  0  0  0
   16.3685   -8.5840  -15.9154 C   0  0  0  0  0  0  0  0  0  0  0  0
   17.4043  -10.6031  -15.0225 C   0  0  2  0  0  0  0  0  0  0  0  0
   17.3691  -12.0057  -14.7915 N   0  0  0  0  0  0  0  0  0  0  0  0
   17.5422   -9.9041  -13.7228 C   0  0  0  0  0  0  0  0  0  0  0  0
   16.5969  -10.1145  -12.8986 O   0  0  0  0  0  0  0  0  0  0  0  0
   18.6460   -9.0486  -13.3913 N   0  0  0  0  0  0  0  0  0  0  0  0
   19.7570   -8.6261  -14.1814 C   0  0  0  0  0  0  0  0  0  0  0  0
   20.7814   -8.1425  -13.1808 C   0  0  0  0  0  0  0  0  0  0  0  0
   19.9318   -7.5156  -12.1165 C   0  0  0  0  0  0  0  0  0  0  0  0
   18.7621   -8.4646  -12.0687 C   0  0  1  0  0  0  0  0  0  0  0  0
   17.5678   -7.7058  -11.6793 C   0  0  0  0  0  0  0  0  0  0  0  0
   16.8778   -7.1237  -12.5360 O   0  0  0  0  0  0  0  0  0  0  0  0
   13.5638   -9.7684   -9.1920 C   0  0  0  0  0  0  0  0  0  0  0  0
   14.4554   -8.8214   -9.9449 C   0  0  0  0  0  0  0  0  0  0  0  0
   15.1103   -7.7656   -9.1270 C   0  0  2  0  0  0  0  0  0  0  0  0
   13.9880   -6.9108   -8.5100 C   0  0  0  0  0  0  0  0  0  0  0  0
   16.0609   -6.8601   -9.8222 C   0  0  2  0  0  0  0  0  0  0  0  0
   17.1936   -7.6322  -10.3223 N   0  0  0  0  0  0  0  0  0  0  0  0
   16.5735   -5.7334   -9.0271 C   0  0  0  0  0  0  0  0  0  0  0  0
   16.0341   -4.4712   -9.1959 O   0  0  0  0  0  0  0  0  0  0  0  0
   17.5065   -5.8858   -8.1832 O   0  0  0  0  0  0  0  0  0  0  0  0
  2  1  1  0
  3  2  1  0
  3  4  1  6
  5  7  1  0
  5  3  1  0
  5  6  1  1
  7  8  2  0
  9 13  1  0
  9  7  1  0
 10  9  1  0
 11 10  1  0
 11 12  1  0
 12 13  1  0
 14 15  2  0
 13 14  1  6
 17 16  1  0
 17 18  1  0
 18 20  1  0
 18 19  1  6
 20 22  1  0
 20 21  1  1
 21 14  1  0
 22 23  1  0
 24 22  2  0
M  END
$$$$
