IPI.pdb
     RDKit          3D

 24 24  0  0  1  0  0  0  0  0999 V2000
   23.9748  -18.1244  -13.8230 C   0  0  0  0  0  0  0  0  0  0  0  0
   24.3895  -19.5589  -13.6350 C   0  0  0  0  0  0  0  0  0  0  0  0
   25.1434  -19.7881  -12.3511 C   0  0  2  0  0  0  0  0  0  0  0  0
   26.4404  -19.0101  -12.4191 C   0  0  0  0  0  0  0  0  0  0  0  0
   25.4925  -21.2393  -12.1381 C   0  0  2  0  0  0  0  0  0  0  0  0
   24.3584  -22.0916  -12.0411 N   0  0  0  0  0  0  0  0  0  0  0  0
   26.2817  -21.3434  -10.8879 C   0  0  0  0  0  0  0  0  0  0  0  0
   25.5932  -21.3463   -9.8186 O   0  0  0  0  0  0  0  0  0  0  0  0
   27.7137  -21.4346  -10.8547 N   0  0  0  0  0  0  0  0  0  0  0  0
   28.6644  -21.4305  -11.9193 C   0  0  0  0  0  0  0  0  0  0  0  0
   29.9238  -22.0078  -11.3150 C   0  0  0  0  0  0  0  0  0  0  0  0
   29.8914  -21.4748   -9.9142 C   0  0  0  0  0  0  0  0  0  0  0  0
   28.4211  -21.5602   -9.5947 C   0  0  1  0  0  0  0  0  0  0  0  0
   28.0906  -20.4854   -8.6516 C   0  0  0  0  0  0  0  0  0  0  0  0
   27.6522  -19.3946   -9.0600 O   0  0  0  0  0  0  0  0  0  0  0  0
   25.3995  -21.2839   -4.0390 C   0  0  0  0  0  0  0  0  0  0  0  0
   26.0350  -20.6515   -5.2451 C   0  0  0  0  0  0  0  0  0  0  0  0
   27.4373  -20.1886   -5.0661 C   0  0  2  0  0  0  0  0  0  0  0  0
   27.4191  -19.1041   -3.9732 C   0  0  0  0  0  0  0  0  0  0  0  0
   28.1285  -19.6389   -6.2607 C   0  0  2  0  0  0  0  0  0  0  0  0
   28.2696  -20.6853   -7.2678 N   0  0  0  0  0  0  0  0  0  0  0  0
   29.4490  -19.0371   -6.0188 C   0  0  0  0  0  0  0  0  0  0  0  0
   29.5610  -17.6687   -5.8529 O   0  0  0  0  0  0  0  0  0  0  0  0
   30.4999  -19.7428   -5.9587 O   0  0  0  0  0  0  0  0  0  0  0  0
  2  1  1  0
  3  2  1  0
  3  4  1  6
  5  7  1  0
  5  3  1  0
  5  6  1  1
  7  8  2  0
  9 13  1  0
  9  7  1  0
 10  9  1  0
 11 10  1  0
 11 12  1  0
 12 13  1  0
 14 15  2  0
 13 14  1  1
 17 16  1  0
 17 18  1  0
 18 20  1  0
 18 19  1  1
 20 22  1  0
 20 21  1  6
 21 14  1  0
 22 23  1  0
 24 22  2  0
M  END
$$$$
