IPI.pdb
     RDKit          3D

 24 24  0  0  1  0  0  0  0  0999 V2000
   21.5035  -19.8240  -13.5478 C   0  0  0  0  0  0  0  0  0  0  0  0
   22.6595  -20.7126  -13.9210 C   0  0  0  0  0  0  0  0  0  0  0  0
   23.6509  -20.8871  -12.8003 C   0  0  2  0  0  0  0  0  0  0  0  0
   24.2713  -19.5384  -12.5036 C   0  0  0  0  0  0  0  0  0  0  0  0
   24.7678  -21.8339  -13.1601 C   0  0  2  0  0  0  0  0  0  0  0  0
   24.3234  -23.1454  -13.4831 N   0  0  0  0  0  0  0  0  0  0  0  0
   25.6952  -21.9099  -12.0066 C   0  0  0  0  0  0  0  0  0  0  0  0
   25.2360  -22.5198  -10.9895 O   0  0  0  0  0  0  0  0  0  0  0  0
   27.0157  -21.3475  -12.0073 N   0  0  0  0  0  0  0  0  0  0  0  0
   27.7411  -20.6947  -13.0490 C   0  0  0  0  0  0  0  0  0  0  0  0
   29.1855  -20.7496  -12.6072 C   0  0  0  0  0  0  0  0  0  0  0  0
   29.0815  -20.5898  -11.1202 C   0  0  0  0  0  0  0  0  0  0  0  0
   27.8442  -21.3951  -10.8177 C   0  0  1  0  0  0  0  0  0  0  0  0
   27.1851  -20.8062   -9.6462 C   0  0  0  0  0  0  0  0  0  0  0  0
   26.0634  -20.2767   -9.7479 O   0  0  0  0  0  0  0  0  0  0  0  0
   29.6904  -21.8085   -4.5855 C   0  0  0  0  0  0  0  0  0  0  0  0
   28.5659  -21.6912   -5.5756 C   0  0  0  0  0  0  0  0  0  0  0  0
   28.3008  -20.3208   -6.0898 C   0  0  2  0  0  0  0  0  0  0  0  0
   27.8183  -19.4759   -4.8965 C   0  0  0  0  0  0  0  0  0  0  0  0
   27.3106  -20.1879   -7.1893 C   0  0  2  0  0  0  0  0  0  0  0  0
   27.8245  -20.8377   -8.3904 N   0  0  0  0  0  0  0  0  0  0  0  0
   26.9110  -18.8140   -7.5316 C   0  0  0  0  0  0  0  0  0  0  0  0
   25.6490  -18.3606   -7.1931 O   0  0  0  0  0  0  0  0  0  0  0  0
   27.6967  -18.0245   -8.1358 O   0  0  0  0  0  0  0  0  0  0  0  0
  2  1  1  0
  3  2  1  0
  3  4  1  6
  5  7  1  0
  5  3  1  0
  5  6  1  1
  7  8  2  0
  9 13  1  0
  9  7  1  0
 10  9  1  0
 11 10  1  0
 11 12  1  0
 12 13  1  0
 14 15  2  0
 13 14  1  1
 17 16  1  0
 17 18  1  0
 18 20  1  0
 18 19  1  1
 20 22  1  0
 20 21  1  6
 21 14  1  0
 22 23  1  0
 24 22  2  0
M  END
$$$$
