IPI.pdb
     RDKit          3D

 24 24  0  0  1  0  0  0  0  0999 V2000
   22.1380  -18.4290  -13.3238 C   0  0  0  0  0  0  0  0  0  0  0  0
   22.8815  -19.7301  -13.4633 C   0  0  0  0  0  0  0  0  0  0  0  0
   23.8500  -19.9761  -12.3360 C   0  0  2  0  0  0  0  0  0  0  0  0
   24.9455  -18.9344  -12.4182 C   0  0  0  0  0  0  0  0  0  0  0  0
   24.5028  -21.3325  -12.4216 C   0  0  2  0  0  0  0  0  0  0  0  0
   23.5806  -22.4140  -12.3814 N   0  0  0  0  0  0  0  0  0  0  0  0
   25.4459  -21.4610  -11.2856 C   0  0  0  0  0  0  0  0  0  0  0  0
   24.9021  -21.7135  -10.1640 O   0  0  0  0  0  0  0  0  0  0  0  0
   26.8685  -21.3163  -11.4105 N   0  0  0  0  0  0  0  0  0  0  0  0
   27.6739  -21.0661  -12.5619 C   0  0  0  0  0  0  0  0  0  0  0  0
   29.0703  -21.4753  -12.1533 C   0  0  0  0  0  0  0  0  0  0  0  0
   29.1221  -21.0739  -10.7098 C   0  0  0  0  0  0  0  0  0  0  0  0
   27.7313  -21.4278  -10.2499 C   0  0  1  0  0  0  0  0  0  0  0  0
   27.3524  -20.5052   -9.1734 C   0  0  0  0  0  0  0  0  0  0  0  0
   26.6055  -19.5360   -9.4011 O   0  0  0  0  0  0  0  0  0  0  0  0
   27.3748  -22.3130   -3.8509 C   0  0  0  0  0  0  0  0  0  0  0  0
   27.0210  -21.5724   -5.1097 C   0  0  0  0  0  0  0  0  0  0  0  0
   27.9309  -20.4542   -5.4765 C   0  0  2  0  0  0  0  0  0  0  0  0
   27.8451  -19.4124   -4.3460 C   0  0  0  0  0  0  0  0  0  0  0  0
   27.6752  -19.7665   -6.7683 C   0  0  2  0  0  0  0  0  0  0  0  0
   27.8364  -20.7141   -7.8661 N   0  0  0  0  0  0  0  0  0  0  0  0
   28.5056  -18.5833   -7.0417 C   0  0  0  0  0  0  0  0  0  0  0  0
   28.0006  -17.3185   -6.8012 O   0  0  0  0  0  0  0  0  0  0  0  0
   29.6831  -18.6890   -7.4981 O   0  0  0  0  0  0  0  0  0  0  0  0
  2  1  1  0
  3  2  1  0
  3  4  1  6
  5  7  1  0
  5  3  1  0
  5  6  1  1
  7  8  2  0
  9 13  1  0
  9  7  1  0
 10  9  1  0
 11 10  1  0
 11 12  1  0
 12 13  1  0
 14 15  2  0
 13 14  1  1
 17 16  1  0
 17 18  1  0
 18 20  1  0
 18 19  1  1
 20 22  1  0
 20 21  1  6
 21 14  1  0
 22 23  1  0
 24 22  2  0
M  END
$$$$
