IPI.pdb
     RDKit          3D

 24 24  0  0  1  0  0  0  0  0999 V2000
   23.4057  -22.7295  -19.3881 C   0  0  0  0  0  0  0  0  0  0  0  0
   24.8434  -22.3196  -19.2144 C   0  0  0  0  0  0  0  0  0  0  0  0
   25.2043  -22.0398  -17.7789 C   0  0  2  0  0  0  0  0  0  0  0  0
   24.3298  -20.9075  -17.2836 C   0  0  0  0  0  0  0  0  0  0  0  0
   26.6407  -21.6108  -17.6180 C   0  0  2  0  0  0  0  0  0  0  0  0
   27.5802  -22.6319  -17.9289 N   0  0  0  0  0  0  0  0  0  0  0  0
   26.8386  -21.1859  -16.2120 C   0  0  0  0  0  0  0  0  0  0  0  0
   27.0038  -22.1365  -15.3834 O   0  0  0  0  0  0  0  0  0  0  0  0
   26.8475  -19.8149  -15.7875 N   0  0  0  0  0  0  0  0  0  0  0  0
   26.6735  -18.6141  -16.5392 C   0  0  0  0  0  0  0  0  0  0  0  0
   27.2360  -17.5219  -15.6587 C   0  0  0  0  0  0  0  0  0  0  0  0
   26.8583  -17.9809  -14.2825 C   0  0  0  0  0  0  0  0  0  0  0  0
   27.0644  -19.4695  -14.3956 C   0  0  1  0  0  0  0  0  0  0  0  0
   26.1179  -20.1364  -13.4938 C   0  0  0  0  0  0  0  0  0  0  0  0
   25.0452  -20.5959  -13.9260 O   0  0  0  0  0  0  0  0  0  0  0  0
   28.1605  -20.8089   -8.3192 C   0  0  0  0  0  0  0  0  0  0  0  0
   27.4026  -21.2742   -9.5306 C   0  0  0  0  0  0  0  0  0  0  0  0
   26.0930  -20.6090   -9.7656 C   0  0  2  0  0  0  0  0  0  0  0  0
   25.1059  -21.1751   -8.7284 C   0  0  0  0  0  0  0  0  0  0  0  0
   25.4898  -20.7552  -11.1154 C   0  0  2  0  0  0  0  0  0  0  0  0
   26.4220  -20.2605  -12.1230 N   0  0  0  0  0  0  0  0  0  0  0  0
   24.1894  -20.0960  -11.3129 C   0  0  0  0  0  0  0  0  0  0  0  0
   24.1171  -18.7154  -11.3500 O   0  0  0  0  0  0  0  0  0  0  0  0
   23.1206  -20.7628  -11.4502 O   0  0  0  0  0  0  0  0  0  0  0  0
  2  1  1  0
  3  2  1  0
  3  4  1  6
  5  7  1  0
  5  3  1  0
  5  6  1  1
  7  8  2  0
  9 13  1  0
  9  7  1  0
 10  9  1  0
 11 10  1  0
 11 12  1  0
 12 13  1  0
 14 15  2  0
 13 14  1  1
 17 16  1  0
 17 18  1  0
 18 20  1  0
 18 19  1  1
 20 22  1  0
 20 21  1  6
 21 14  1  0
 22 23  1  0
 24 22  2  0
M  END
$$$$
