IPI.pdb
     RDKit          3D

 24 24  0  0  1  0  0  0  0  0999 V2000
   23.3256  -18.1917  -14.4996 C   0  0  0  0  0  0  0  0  0  0  0  0
   23.8298  -19.5890  -14.2577 C   0  0  0  0  0  0  0  0  0  0  0  0
   24.5582  -19.7310  -12.9468 C   0  0  2  0  0  0  0  0  0  0  0  0
   25.7976  -18.8631  -12.9982 C   0  0  0  0  0  0  0  0  0  0  0  0
   25.0035  -21.1474  -12.6846 C   0  0  2  0  0  0  0  0  0  0  0  0
   23.9354  -22.0855  -12.6525 N   0  0  0  0  0  0  0  0  0  0  0  0
   25.7073  -21.1739  -11.3806 C   0  0  0  0  0  0  0  0  0  0  0  0
   24.9488  -21.1170  -10.3614 O   0  0  0  0  0  0  0  0  0  0  0  0
   27.1340  -21.2561  -11.2465 N   0  0  0  0  0  0  0  0  0  0  0  0
   28.1622  -21.1417  -12.2297 C   0  0  0  0  0  0  0  0  0  0  0  0
   29.3812  -21.7643  -11.5886 C   0  0  0  0  0  0  0  0  0  0  0  0
   29.2347  -21.3692  -10.1499 C   0  0  0  0  0  0  0  0  0  0  0  0
   27.7460  -21.4969   -9.9538 C   0  0  1  0  0  0  0  0  0  0  0  0
   27.3286  -20.5209   -8.9404 C   0  0  0  0  0  0  0  0  0  0  0  0
   26.7040  -19.4950   -9.2661 O   0  0  0  0  0  0  0  0  0  0  0  0
   27.3436  -20.1520   -2.6939 C   0  0  0  0  0  0  0  0  0  0  0  0
   27.3207  -19.4703   -4.0330 C   0  0  0  0  0  0  0  0  0  0  0  0
   27.4602  -20.3647   -5.2134 C   0  0  2  0  0  0  0  0  0  0  0  0
   28.7188  -21.2218   -4.9848 C   0  0  0  0  0  0  0  0  0  0  0  0
   27.5693  -19.7178   -6.5463 C   0  0  2  0  0  0  0  0  0  0  0  0
   27.6356  -20.7428   -7.5826 N   0  0  0  0  0  0  0  0  0  0  0  0
   28.7024  -18.7961   -6.7225 C   0  0  0  0  0  0  0  0  0  0  0  0
   28.5931  -17.4836   -6.3005 O   0  0  0  0  0  0  0  0  0  0  0  0
   29.7880  -19.1724   -7.2570 O   0  0  0  0  0  0  0  0  0  0  0  0
  2  1  1  0
  3  2  1  0
  3  4  1  6
  5  7  1  0
  5  3  1  0
  5  6  1  1
  7  8  2  0
  9 13  1  0
  9  7  1  0
 10  9  1  0
 11 10  1  0
 11 12  1  0
 12 13  1  0
 14 15  2  0
 13 14  1  1
 17 16  1  0
 17 18  1  0
 18 20  1  0
 18 19  1  1
 20 22  1  0
 20 21  1  6
 21 14  1  0
 22 23  1  0
 24 22  2  0
M  END
$$$$
