IPI.pdb
     RDKit          3D

 24 24  0  0  1  0  0  0  0  0999 V2000
   15.4282  -28.8181   -5.8894 C   0  0  0  0  0  0  0  0  0  0  0  0
   15.4762  -27.3139   -5.9072 C   0  0  0  0  0  0  0  0  0  0  0  0
   15.6679  -26.7169   -4.5374 C   0  0  2  0  0  0  0  0  0  0  0  0
   14.4145  -26.9767   -3.7289 C   0  0  0  0  0  0  0  0  0  0  0  0
   15.8805  -25.2250   -4.5828 C   0  0  2  0  0  0  0  0  0  0  0  0
   17.0445  -24.8352   -5.3005 N   0  0  0  0  0  0  0  0  0  0  0  0
   15.9871  -24.7334   -3.1886 C   0  0  0  0  0  0  0  0  0  0  0  0
   17.1188  -24.9210   -2.6397 O   0  0  0  0  0  0  0  0  0  0  0  0
   14.9128  -24.0918   -2.4856 N   0  0  0  0  0  0  0  0  0  0  0  0
   13.5713  -23.8248   -2.8933 C   0  0  0  0  0  0  0  0  0  0  0  0
   13.0856  -22.7517   -1.9462 C   0  0  0  0  0  0  0  0  0  0  0  0
   13.7524  -23.1244   -0.6563 C   0  0  0  0  0  0  0  0  0  0  0  0
   15.1030  -23.5866   -1.1393 C   0  0  1  0  0  0  0  0  0  0  0  0
   15.5971  -24.6138   -0.2149 C   0  0  0  0  0  0  0  0  0  0  0  0
   15.4849  -25.8224   -0.4897 O   0  0  0  0  0  0  0  0  0  0  0  0
   20.4685  -25.6467    3.0402 C   0  0  0  0  0  0  0  0  0  0  0  0
   18.9717  -25.7784    3.0642 C   0  0  0  0  0  0  0  0  0  0  0  0
   18.2393  -24.9915    2.0360 C   0  0  2  0  0  0  0  0  0  0  0  0
   18.5364  -23.5054    2.3080 C   0  0  0  0  0  0  0  0  0  0  0  0
   16.7661  -25.1700    1.9665 C   0  0  2  0  0  0  0  0  0  0  0  0
   16.2059  -24.2333    0.9981 N   0  0  0  0  0  0  0  0  0  0  0  0
   16.0403  -25.0233    3.2378 C   0  0  0  0  0  0  0  0  0  0  0  0
   15.6223  -23.7711    3.6502 O   0  0  0  0  0  0  0  0  0  0  0  0
   15.7848  -26.0211    3.9760 O   0  0  0  0  0  0  0  0  0  0  0  0
  2  1  1  0
  3  2  1  0
  3  4  1  1
  5  7  1  0
  5  3  1  0
  5  6  1  6
  7  8  2  0
  9 13  1  0
  9  7  1  0
 10  9  1  0
 11 10  1  0
 11 12  1  0
 12 13  1  0
 14 15  2  0
 13 14  1  1
 17 16  1  0
 17 18  1  0
 18 20  1  0
 18 19  1  1
 20 22  1  0
 20 21  1  6
 21 14  1  0
 22 23  1  0
 24 22  2  0
M  END
$$$$
