IPI.pdb
     RDKit          3D

 24 24  0  0  1  0  0  0  0  0999 V2000
   19.5844  -21.6159  -14.3627 C   0  0  0  0  0  0  0  0  0  0  0  0
   19.5778  -23.1094  -14.5485 C   0  0  0  0  0  0  0  0  0  0  0  0
   19.2695  -23.8573  -13.2777 C   0  0  2  0  0  0  0  0  0  0  0  0
   20.4897  -23.7936  -12.3838 C   0  0  0  0  0  0  0  0  0  0  0  0
   18.9603  -25.3121  -13.5248 C   0  0  2  0  0  0  0  0  0  0  0  0
   17.9182  -25.5224  -14.4691 N   0  0  0  0  0  0  0  0  0  0  0  0
   18.5706  -25.9249  -12.2328 C   0  0  0  0  0  0  0  0  0  0  0  0
   17.5842  -25.3699  -11.6527 O   0  0  0  0  0  0  0  0  0  0  0  0
   19.2364  -27.0576  -11.6550 N   0  0  0  0  0  0  0  0  0  0  0  0
   20.3024  -27.8599  -12.1619 C   0  0  0  0  0  0  0  0  0  0  0  0
   20.2494  -29.1323  -11.3479 C   0  0  0  0  0  0  0  0  0  0  0  0
   19.8386  -28.6398   -9.9929 C   0  0  0  0  0  0  0  0  0  0  0  0
   18.8467  -27.5638  -10.3528 C   0  0  1  0  0  0  0  0  0  0  0  0
   18.8867  -26.5317   -9.3103 C   0  0  0  0  0  0  0  0  0  0  0  0
   19.7043  -25.5957   -9.3743 O   0  0  0  0  0  0  0  0  0  0  0  0
   14.8991  -23.5412   -8.0056 C   0  0  0  0  0  0  0  0  0  0  0  0
   16.2230  -24.2347   -8.1628 C   0  0  0  0  0  0  0  0  0  0  0  0
   16.6945  -24.9992   -6.9770 C   0  0  2  0  0  0  0  0  0  0  0  0
   16.7561  -24.0112   -5.7977 C   0  0  0  0  0  0  0  0  0  0  0  0
   18.0102  -25.6802   -7.0874 C   0  0  2  0  0  0  0  0  0  0  0  0
   17.9920  -26.5964   -8.2229 N   0  0  0  0  0  0  0  0  0  0  0  0
   18.4541  -26.4177   -5.8944 C   0  0  0  0  0  0  0  0  0  0  0  0
   19.1921  -25.7698   -4.9206 O   0  0  0  0  0  0  0  0  0  0  0  0
   18.1789  -27.6438   -5.7306 O   0  0  0  0  0  0  0  0  0  0  0  0
  2  1  1  0
  3  2  1  0
  3  4  1  1
  5  7  1  0
  5  3  1  0
  5  6  1  6
  7  8  2  0
  9 13  1  0
  9  7  1  0
 10  9  1  0
 11 10  1  0
 11 12  1  0
 12 13  1  0
 14 15  2  0
 13 14  1  1
 17 16  1  0
 17 18  1  0
 18 20  1  0
 18 19  1  1
 20 22  1  0
 20 21  1  6
 21 14  1  0
 22 23  1  0
 24 22  2  0
M  END
$$$$
