IPI.pdb
     RDKit          3D

 24 24  0  0  1  0  0  0  0  0999 V2000
   26.4788  -24.9725  -14.9216 C   0  0  0  0  0  0  0  0  0  0  0  0
   25.5299  -23.8439  -14.6202 C   0  0  0  0  0  0  0  0  0  0  0  0
   25.8942  -23.0897  -13.3680 C   0  0  2  0  0  0  0  0  0  0  0  0
   24.9695  -23.5421  -12.2578 C   0  0  0  0  0  0  0  0  0  0  0  0
   25.7267  -21.5994  -13.5225 C   0  0  2  0  0  0  0  0  0  0  0  0
   26.5833  -21.0266  -14.5024 N   0  0  0  0  0  0  0  0  0  0  0  0
   26.0044  -20.9673  -12.2111 C   0  0  0  0  0  0  0  0  0  0  0  0
   27.2129  -21.0477  -11.8230 O   0  0  0  0  0  0  0  0  0  0  0  0
   25.0070  -20.3084  -11.4167 N   0  0  0  0  0  0  0  0  0  0  0  0
   23.6019  -20.1707  -11.6264 C   0  0  0  0  0  0  0  0  0  0  0  0
   23.1891  -19.0207  -10.7367 C   0  0  0  0  0  0  0  0  0  0  0  0
   24.0752  -19.1954   -9.5401 C   0  0  0  0  0  0  0  0  0  0  0  0
   25.3654  -19.6339  -10.1837 C   0  0  1  0  0  0  0  0  0  0  0  0
   26.0745  -20.5114   -9.2451 C   0  0  0  0  0  0  0  0  0  0  0  0
   25.9206  -21.7456   -9.2897 O   0  0  0  0  0  0  0  0  0  0  0  0
   31.2824  -20.8088   -7.8717 C   0  0  0  0  0  0  0  0  0  0  0  0
   29.8197  -21.1364   -7.9799 C   0  0  0  0  0  0  0  0  0  0  0  0
   28.9296  -20.4349   -7.0164 C   0  0  2  0  0  0  0  0  0  0  0  0
   29.3808  -20.8457   -5.6028 C   0  0  0  0  0  0  0  0  0  0  0  0
   27.4700  -20.6857   -7.1341 C   0  0  2  0  0  0  0  0  0  0  0  0
   26.9401  -19.9560   -8.2812 N   0  0  0  0  0  0  0  0  0  0  0  0
   26.6631  -20.3517   -5.9500 C   0  0  0  0  0  0  0  0  0  0  0  0
   25.9947  -19.1423   -5.8924 O   0  0  0  0  0  0  0  0  0  0  0  0
   26.5621  -21.1473   -4.9689 O   0  0  0  0  0  0  0  0  0  0  0  0
  2  1  1  0
  3  2  1  0
  3  4  1  1
  5  7  1  0
  5  3  1  0
  5  6  1  6
  7  8  2  0
  9 13  1  0
  9  7  1  0
 10  9  1  0
 11 10  1  0
 11 12  1  0
 12 13  1  0
 14 15  2  0
 13 14  1  1
 17 16  1  0
 17 18  1  0
 18 20  1  0
 18 19  1  1
 20 22  1  0
 20 21  1  6
 21 14  1  0
 22 23  1  0
 24 22  2  0
M  END
$$$$
