MMW.pdb
     RDKit          3D

 31 32  0  0  1  0  0  0  0  0999 V2000
    2.2688  -17.9866   19.9728 C   0  0  0  0  0  0  0  0  0  0  0  0
    2.7661  -19.1757   21.2269 S   0  0  0  0  0  0  0  0  0  0  0  0
    4.1846  -20.1759   20.7298 C   0  0  0  0  0  0  0  0  0  0  0  0
    5.2823  -19.2922   20.1993 C   0  0  0  0  0  0  0  0  0  0  0  0
    6.5354  -19.4360   21.0147 C   0  0  2  0  0  0  0  0  0  0  0  0
    6.3041  -19.1521   22.4139 N   0  0  0  0  0  0  0  0  0  0  0  0
    7.6301  -18.5256   20.5156 C   0  0  0  0  0  0  0  0  0  0  0  0
    7.8404  -18.4336   19.2862 O   0  0  0  0  0  0  0  0  0  0  0  0
    7.2586  -11.2032   20.5226 C   0  0  0  0  0  0  0  0  0  0  0  0
    6.7853  -12.9385   20.3390 S   0  0  0  0  0  0  0  0  0  0  0  0
    8.1035  -14.0215   20.9587 C   0  0  0  0  0  0  0  0  0  0  0  0
    7.6597  -15.4630   20.9880 C   0  0  0  0  0  0  0  0  0  0  0  0
    8.7223  -16.4110   21.4652 C   0  0  2  0  0  0  0  0  0  0  0  0
    8.3915  -17.7983   21.4378 N   0  0  0  0  0  0  0  0  0  0  0  0
    9.4471  -15.9992   22.6674 C   0  0  0  0  0  0  0  0  0  0  0  0
   10.2568  -15.0023   22.5977 O   0  0  0  0  0  0  0  0  0  0  0  0
    9.3227  -16.6285   23.9324 N   0  0  0  0  0  0  0  0  0  0  0  0
   10.1576  -16.3472   25.0786 C   0  0  1  0  0  0  0  0  0  0  0  0
    9.3887  -16.2477   26.3480 C   0  0  0  0  0  0  0  0  0  0  0  0
    8.1545  -15.4437   26.2285 C   0  0  0  0  0  0  0  0  0  0  0  0
    6.8851  -15.9008   25.9513 C   0  0  0  0  0  0  0  0  0  0  0  0
    6.0538  -14.8651   25.9307 N   0  0  0  0  0  0  0  0  0  0  0  0
    6.6947  -13.7180   26.1813 C   0  0  0  0  0  0  0  0  0  0  0  0
    6.2754  -12.4105   26.2649 C   0  0  0  0  0  0  0  0  0  0  0  0
    7.1754  -11.3970   26.5440 C   0  0  0  0  0  0  0  0  0  0  0  0
    8.4968  -11.7434   26.7334 C   0  0  0  0  0  0  0  0  0  0  0  0
    8.9067  -13.0577   26.6473 C   0  0  0  0  0  0  0  0  0  0  0  0
    8.0332  -14.0779   26.3721 C   0  0  0  0  0  0  0  0  0  0  0  0
   11.3608  -17.1892   25.1748 C   0  0  0  0  0  0  0  0  0  0  0  0
   12.2829  -17.0046   26.1878 O   0  0  0  0  0  0  0  0  0  0  0  0
   11.5601  -18.0861   24.3335 O   0  0  0  0  0  0  0  0  0  0  0  0
  2  1  1  0
  3  2  1  0
  4  3  1  0
  5  4  1  0
  5  6  1  1
  7  8  2  0
  7  5  1  0
 10  9  1  0
 11 10  1  0
 11 12  1  0
 13 12  1  1
 13 14  1  0
 14  7  1  0
 15 17  1  0
 15 13  1  0
 16 15  2  0
 18 17  1  0
 18 29  1  0
 19 20  1  0
 18 19  1  1
 20 28  1  0
 21 20  2  0
 21 22  1  0
 22 23  1  0
 23 24  1  0
 24 25  2  0
 26 25  1  0
 27 26  2  0
 28 23  2  0
 28 27  1  0
 29 30  1  0
 31 29  2  0
M  END
$$$$
