MMW.pdb
     RDKit          3D

 31 32  0  0  1  0  0  0  0  0999 V2000
    7.0293  -12.2690   17.1616 C   0  0  0  0  0  0  0  0  0  0  0  0
    7.7371  -13.4548   16.0096 S   0  0  0  0  0  0  0  0  0  0  0  0
    8.6753  -14.7621   16.8281 C   0  0  0  0  0  0  0  0  0  0  0  0
    8.4579  -14.7026   18.3170 C   0  0  0  0  0  0  0  0  0  0  0  0
    9.3034  -15.7194   19.0291 C   0  0  2  0  0  0  0  0  0  0  0  0
    9.1663  -17.0369   18.4484 N   0  0  0  0  0  0  0  0  0  0  0  0
    8.9548  -15.8030   20.4946 C   0  0  0  0  0  0  0  0  0  0  0  0
    9.1832  -14.8234   21.2378 O   0  0  0  0  0  0  0  0  0  0  0  0
    6.0679  -21.5905   23.6215 C   0  0  0  0  0  0  0  0  0  0  0  0
    5.1959  -20.0200   23.8270 S   0  0  0  0  0  0  0  0  0  0  0  0
    6.3697  -18.6361   23.7878 C   0  0  0  0  0  0  0  0  0  0  0  0
    6.8521  -18.3667   22.3841 C   0  0  0  0  0  0  0  0  0  0  0  0
    7.8689  -17.2647   22.2975 C   0  0  2  0  0  0  0  0  0  0  0  0
    8.3805  -16.9762   20.9976 N   0  0  0  0  0  0  0  0  0  0  0  0
    8.8859  -17.2553   23.3491 C   0  0  0  0  0  0  0  0  0  0  0  0
    9.3027  -18.3753   23.8247 O   0  0  0  0  0  0  0  0  0  0  0  0
    9.4607  -16.0800   23.8966 N   0  0  0  0  0  0  0  0  0  0  0  0
   10.2396  -16.0332   25.1137 C   0  0  1  0  0  0  0  0  0  0  0  0
    9.4334  -16.3149   26.3316 C   0  0  0  0  0  0  0  0  0  0  0  0
    8.1799  -15.5353   26.4024 C   0  0  0  0  0  0  0  0  0  0  0  0
    6.8972  -16.0265   26.5041 C   0  0  0  0  0  0  0  0  0  0  0  0
    6.0504  -15.0038   26.5412 N   0  0  0  0  0  0  0  0  0  0  0  0
    6.6937  -13.8331   26.4699 C   0  0  0  0  0  0  0  0  0  0  0  0
    6.2625  -12.5268   26.4708 C   0  0  0  0  0  0  0  0  0  0  0  0
    7.1685  -11.4844   26.3831 C   0  0  0  0  0  0  0  0  0  0  0  0
    8.5079  -11.8010   26.2953 C   0  0  0  0  0  0  0  0  0  0  0  0
    8.9295  -13.1144   26.2953 C   0  0  0  0  0  0  0  0  0  0  0  0
    8.0504  -14.1629   26.3814 C   0  0  0  0  0  0  0  0  0  0  0  0
   11.5073  -16.7782   25.0524 C   0  0  0  0  0  0  0  0  0  0  0  0
   12.7196  -16.1426   25.2456 O   0  0  0  0  0  0  0  0  0  0  0  0
   11.4978  -18.0027   24.8231 O   0  0  0  0  0  0  0  0  0  0  0  0
  2  1  1  0
  3  2  1  0
  4  3  1  0
  5  4  1  0
  5  6  1  6
  7  8  2  0
  7  5  1  0
 10  9  1  0
 11 10  1  0
 11 12  1  0
 13 12  1  6
 13 14  1  0
 14  7  1  0
 15 17  1  0
 15 13  1  0
 16 15  2  0
 18 17  1  0
 18 29  1  0
 19 20  1  0
 18 19  1  1
 20 28  1  0
 21 20  2  0
 21 22  1  0
 22 23  1  0
 23 24  1  0
 24 25  2  0
 26 25  1  0
 27 26  2  0
 28 23  2  0
 28 27  1  0
 29 30  1  0
 31 29  2  0
M  END
$$$$
