MMW.pdb
     RDKit          3D

 31 32  0  0  1  0  0  0  0  0999 V2000
    7.7742  -11.9345   20.6762 C   0  0  0  0  0  0  0  0  0  0  0  0
    6.4441  -12.9487   20.0156 S   0  0  0  0  0  0  0  0  0  0  0  0
    7.0345  -14.4571   19.2184 C   0  0  0  0  0  0  0  0  0  0  0  0
    7.5134  -15.4387   20.2551 C   0  0  0  0  0  0  0  0  0  0  0  0
    9.0130  -15.4493   20.3394 C   0  0  2  0  0  0  0  0  0  0  0  0
    9.6224  -15.7761   19.0691 N   0  0  0  0  0  0  0  0  0  0  0  0
    9.5040  -16.4321   21.3735 C   0  0  0  0  0  0  0  0  0  0  0  0
    8.8548  -16.5876   22.4311 O   0  0  0  0  0  0  0  0  0  0  0  0
   14.7899  -19.0126   18.5671 C   0  0  0  0  0  0  0  0  0  0  0  0
   13.7328  -20.2059   19.4200 S   0  0  0  0  0  0  0  0  0  0  0  0
   12.2874  -19.3718   20.1341 C   0  0  0  0  0  0  0  0  0  0  0  0
   12.6455  -18.6520   21.4105 C   0  0  0  0  0  0  0  0  0  0  0  0
   11.4952  -17.9074   22.0253 C   0  0  2  0  0  0  0  0  0  0  0  0
   10.6782  -17.1543   21.1308 N   0  0  0  0  0  0  0  0  0  0  0  0
   11.7841  -17.2198   23.2839 C   0  0  0  0  0  0  0  0  0  0  0  0
   12.2802  -16.0337   23.2478 O   0  0  0  0  0  0  0  0  0  0  0  0
   11.5538  -17.7726   24.5695 N   0  0  0  0  0  0  0  0  0  0  0  0
   11.0373  -17.0377   25.7023 C   0  0  1  0  0  0  0  0  0  0  0  0
    9.8160  -16.2528   25.3787 C   0  0  0  0  0  0  0  0  0  0  0  0
    9.2114  -15.5914   26.5539 C   0  0  0  0  0  0  0  0  0  0  0  0
    8.6117  -16.1981   27.6353 C   0  0  0  0  0  0  0  0  0  0  0  0
    8.1964  -15.2574   28.4761 N   0  0  0  0  0  0  0  0  0  0  0  0
    8.4837  -14.0328   28.0209 C   0  0  0  0  0  0  0  0  0  0  0  0
    8.2604  -12.7716   28.5227 C   0  0  0  0  0  0  0  0  0  0  0  0
    8.6733  -11.6506   27.8242 C   0  0  0  0  0  0  0  0  0  0  0  0
    9.3114  -11.8431   26.6169 C   0  0  0  0  0  0  0  0  0  0  0  0
    9.5304  -13.1122   26.1228 C   0  0  0  0  0  0  0  0  0  0  0  0
    9.1303  -14.2368   26.7972 C   0  0  0  0  0  0  0  0  0  0  0  0
   10.9285  -17.8269   26.9397 C   0  0  0  0  0  0  0  0  0  0  0  0
   11.4304  -17.3516   28.1368 O   0  0  0  0  0  0  0  0  0  0  0  0
   10.3761  -18.9433   26.9178 O   0  0  0  0  0  0  0  0  0  0  0  0
  2  1  1  0
  3  2  1  0
  4  3  1  0
  5  4  1  0
  5  6  1  6
  7  8  2  0
  7  5  1  0
 10  9  1  0
 11 10  1  0
 11 12  1  0
 13 12  1  6
 13 14  1  0
 14  7  1  0
 15 17  1  0
 15 13  1  0
 16 15  2  0
 18 17  1  0
 18 29  1  0
 19 20  1  0
 18 19  1  6
 20 28  1  0
 21 20  2  0
 21 22  1  0
 22 23  1  0
 23 24  1  0
 24 25  2  0
 26 25  1  0
 27 26  2  0
 28 23  2  0
 28 27  1  0
 29 30  1  0
 31 29  2  0
M  END
$$$$
