MMW.pdb
     RDKit          3D

 31 32  0  0  1  0  0  0  0  0999 V2000
    9.5763  -20.1162   15.0312 C   0  0  0  0  0  0  0  0  0  0  0  0
    9.7724  -18.8827   16.3251 S   0  0  0  0  0  0  0  0  0  0  0  0
   11.3304  -19.0418   17.2233 C   0  0  0  0  0  0  0  0  0  0  0  0
   11.5237  -17.8629   18.1398 C   0  0  0  0  0  0  0  0  0  0  0  0
   11.1393  -18.2049   19.5509 C   0  0  2  0  0  0  0  0  0  0  0  0
    9.8711  -18.8977   19.6117 N   0  0  0  0  0  0  0  0  0  0  0  0
   11.0541  -16.9727   20.4173 C   0  0  0  0  0  0  0  0  0  0  0  0
   12.0316  -16.1948   20.4778 O   0  0  0  0  0  0  0  0  0  0  0  0
    6.7709  -12.2938   21.2663 C   0  0  0  0  0  0  0  0  0  0  0  0
    7.0519  -13.3795   19.8480 S   0  0  0  0  0  0  0  0  0  0  0  0
    8.3244  -14.6132   20.2395 C   0  0  0  0  0  0  0  0  0  0  0  0
    8.5867  -14.6775   21.7236 C   0  0  0  0  0  0  0  0  0  0  0  0
    9.5990  -15.7168   22.1120 C   0  0  2  0  0  0  0  0  0  0  0  0
    9.8812  -16.7205   21.1384 N   0  0  0  0  0  0  0  0  0  0  0  0
    9.4892  -16.2310   23.4772 C   0  0  0  0  0  0  0  0  0  0  0  0
    8.8272  -17.3140   23.6851 O   0  0  0  0  0  0  0  0  0  0  0  0
   10.0696  -15.6137   24.6145 N   0  0  0  0  0  0  0  0  0  0  0  0
   10.0785  -16.1794   25.9450 C   0  0  1  0  0  0  0  0  0  0  0  0
    8.7222  -16.5548   26.4265 C   0  0  0  0  0  0  0  0  0  0  0  0
    7.7057  -15.5054   26.2037 C   0  0  0  0  0  0  0  0  0  0  0  0
    6.4999  -15.6377   25.5514 C   0  0  0  0  0  0  0  0  0  0  0  0
    5.8768  -14.4647   25.5646 N   0  0  0  0  0  0  0  0  0  0  0  0
    6.6000  -13.5336   26.1964 C   0  0  0  0  0  0  0  0  0  0  0  0
    6.3838  -12.2011   26.4616 C   0  0  0  0  0  0  0  0  0  0  0  0
    7.3249  -11.4569   27.1511 C   0  0  0  0  0  0  0  0  0  0  0  0
    8.4776  -12.0949   27.5589 C   0  0  0  0  0  0  0  0  0  0  0  0
    8.6843  -13.4315   27.2878 C   0  0  0  0  0  0  0  0  0  0  0  0
    7.7663  -14.1883   26.6066 C   0  0  0  0  0  0  0  0  0  0  0  0
   11.0955  -17.2222   26.1548 C   0  0  0  0  0  0  0  0  0  0  0  0
   11.9399  -17.6127   25.1324 O   0  0  0  0  0  0  0  0  0  0  0  0
   11.2049  -17.7678   27.2694 O   0  0  0  0  0  0  0  0  0  0  0  0
  2  1  1  0
  3  2  1  0
  4  3  1  0
  5  4  1  0
  5  6  1  6
  7  8  2  0
  7  5  1  0
 10  9  1  0
 11 10  1  0
 11 12  1  0
 13 12  1  6
 13 14  1  0
 14  7  1  0
 15 17  1  0
 15 13  1  0
 16 15  2  0
 18 17  1  0
 18 29  1  0
 19 20  1  0
 18 19  1  6
 20 28  1  0
 21 20  2  0
 21 22  1  0
 22 23  1  0
 23 24  1  0
 24 25  2  0
 26 25  1  0
 27 26  2  0
 28 23  2  0
 28 27  1  0
 29 30  1  0
 31 29  2  0
M  END
$$$$
