MMW.pdb
     RDKit          3D

 31 32  0  0  1  0  0  0  0  0999 V2000
    6.2689  -13.5889   26.5431 C   0  0  0  0  0  0  0  0  0  0  0  0
    6.5071  -15.0446   27.5719 S   0  0  0  0  0  0  0  0  0  0  0  0
    6.1443  -16.5878   26.7080 C   0  0  0  0  0  0  0  0  0  0  0  0
    7.0489  -16.7390   25.5137 C   0  0  0  0  0  0  0  0  0  0  0  0
    6.3683  -17.4985   24.4111 C   0  0  2  0  0  0  0  0  0  0  0  0
    6.2445  -18.9056   24.7219 N   0  0  0  0  0  0  0  0  0  0  0  0
    7.1073  -17.3599   23.1031 C   0  0  0  0  0  0  0  0  0  0  0  0
    7.6945  -18.3531   22.6204 O   0  0  0  0  0  0  0  0  0  0  0  0
    8.1109  -11.0499   20.5472 C   0  0  0  0  0  0  0  0  0  0  0  0
    8.1499  -12.1924   19.1465 S   0  0  0  0  0  0  0  0  0  0  0  0
    8.5429  -13.8718   19.7121 C   0  0  0  0  0  0  0  0  0  0  0  0
    7.6268  -14.3013   20.8311 C   0  0  0  0  0  0  0  0  0  0  0  0
    7.9848  -15.6335   21.4250 C   0  0  2  0  0  0  0  0  0  0  0  0
    7.1223  -16.1213   22.4512 N   0  0  0  0  0  0  0  0  0  0  0  0
    9.4065  -15.8462   21.6963 C   0  0  0  0  0  0  0  0  0  0  0  0
   10.2443  -15.7836   20.7224 O   0  0  0  0  0  0  0  0  0  0  0  0
    9.9443  -16.1221   22.9793 N   0  0  0  0  0  0  0  0  0  0  0  0
   11.3544  -16.2477   23.2725 C   0  0  1  0  0  0  0  0  0  0  0  0
   11.8100  -15.3244   24.3459 C   0  0  0  0  0  0  0  0  0  0  0  0
   11.1481  -15.5593   25.6462 C   0  0  0  0  0  0  0  0  0  0  0  0
   10.8193  -16.7735   26.2071 C   0  0  0  0  0  0  0  0  0  0  0  0
   10.2384  -16.5574   27.3819 N   0  0  0  0  0  0  0  0  0  0  0  0
   10.1537  -15.2502   27.6528 C   0  0  0  0  0  0  0  0  0  0  0  0
    9.6451  -14.5466   28.7199 C   0  0  0  0  0  0  0  0  0  0  0  0
    9.6890  -13.1635   28.7389 C   0  0  0  0  0  0  0  0  0  0  0  0
   10.2563  -12.5224   27.6577 C   0  0  0  0  0  0  0  0  0  0  0  0
   10.7633  -13.2377   26.5927 C   0  0  0  0  0  0  0  0  0  0  0  0
   10.7309  -14.6076   26.5523 C   0  0  0  0  0  0  0  0  0  0  0  0
   11.8183  -17.6341   23.4418 C   0  0  0  0  0  0  0  0  0  0  0  0
   10.9326  -18.6944   23.3966 O   0  0  0  0  0  0  0  0  0  0  0  0
   13.0279  -17.8658   23.6295 O   0  0  0  0  0  0  0  0  0  0  0  0
  2  1  1  0
  3  2  1  0
  4  3  1  0
  5  4  1  0
  5  6  1  1
  7  8  2  0
  7  5  1  0
 10  9  1  0
 11 10  1  0
 11 12  1  0
 13 12  1  1
 13 14  1  0
 14  7  1  0
 15 17  1  0
 15 13  1  0
 16 15  2  0
 18 17  1  0
 18 29  1  0
 19 20  1  0
 18 19  1  1
 20 28  1  0
 21 20  2  0
 21 22  1  0
 22 23  1  0
 23 24  1  0
 24 25  2  0
 26 25  1  0
 27 26  2  0
 28 23  2  0
 28 27  1  0
 29 30  1  0
 31 29  2  0
M  END
$$$$
