MMW.pdb
     RDKit          3D

 31 32  0  0  1  0  0  0  0  0999 V2000
    7.4432  -21.2590   26.1649 C   0  0  0  0  0  0  0  0  0  0  0  0
    5.8688  -21.4374   25.3144 S   0  0  0  0  0  0  0  0  0  0  0  0
    5.8853  -20.7504   23.6449 C   0  0  0  0  0  0  0  0  0  0  0  0
    6.9952  -19.7417   23.5098 C   0  0  0  0  0  0  0  0  0  0  0  0
    7.1349  -19.2769   22.0884 C   0  0  2  0  0  0  0  0  0  0  0  0
    7.0805  -20.3785   21.1528 N   0  0  0  0  0  0  0  0  0  0  0  0
    8.4273  -18.5288   21.8734 C   0  0  0  0  0  0  0  0  0  0  0  0
    9.4860  -19.1699   21.6932 O   0  0  0  0  0  0  0  0  0  0  0  0
    5.5454  -13.0735   20.2230 C   0  0  0  0  0  0  0  0  0  0  0  0
    7.2596  -13.1590   20.7916 S   0  0  0  0  0  0  0  0  0  0  0  0
    7.9448  -14.8116   20.4852 C   0  0  0  0  0  0  0  0  0  0  0  0
    9.3234  -14.9522   21.0813 C   0  0  0  0  0  0  0  0  0  0  0  0
    9.5049  -16.2040   21.8910 C   0  0  2  0  0  0  0  0  0  0  0  0
    8.4191  -17.1291   21.8781 N   0  0  0  0  0  0  0  0  0  0  0  0
   10.1138  -16.0248   23.2091 C   0  0  0  0  0  0  0  0  0  0  0  0
   11.1856  -15.3211   23.3113 O   0  0  0  0  0  0  0  0  0  0  0  0
    9.6017  -16.5793   24.4098 N   0  0  0  0  0  0  0  0  0  0  0  0
   10.2146  -16.4355   25.7113 C   0  0  1  0  0  0  0  0  0  0  0  0
    9.2220  -16.2725   26.8069 C   0  0  0  0  0  0  0  0  0  0  0  0
    8.0823  -15.4038   26.4458 C   0  0  0  0  0  0  0  0  0  0  0  0
    6.8437  -15.7994   25.9914 C   0  0  0  0  0  0  0  0  0  0  0  0
    6.1014  -14.7183   25.7806 N   0  0  0  0  0  0  0  0  0  0  0  0
    6.7741  -13.5988   26.0699 C   0  0  0  0  0  0  0  0  0  0  0  0
    6.4402  -12.2655   26.0141 C   0  0  0  0  0  0  0  0  0  0  0  0
    7.3540  -11.2930   26.3806 C   0  0  0  0  0  0  0  0  0  0  0  0
    8.6010  -11.7066   26.8002 C   0  0  0  0  0  0  0  0  0  0  0  0
    8.9254  -13.0463   26.8524 C   0  0  0  0  0  0  0  0  0  0  0  0
    8.0366  -14.0268   26.4944 C   0  0  0  0  0  0  0  0  0  0  0  0
   11.2650  -17.4249   26.0006 C   0  0  0  0  0  0  0  0  0  0  0  0
   12.0231  -17.3457   27.1537 O   0  0  0  0  0  0  0  0  0  0  0  0
   11.4818  -18.3532   25.1985 O   0  0  0  0  0  0  0  0  0  0  0  0
  2  1  1  0
  3  2  1  0
  4  3  1  0
  5  4  1  0
  5  6  1  6
  7  8  2  0
  7  5  1  0
 10  9  1  0
 11 10  1  0
 11 12  1  0
 13 12  1  1
 13 14  1  0
 14  7  1  0
 15 17  1  0
 15 13  1  0
 16 15  2  0
 18 17  1  0
 18 29  1  0
 19 20  1  0
 18 19  1  1
 20 28  1  0
 21 20  2  0
 21 22  1  0
 22 23  1  0
 23 24  1  0
 24 25  2  0
 26 25  1  0
 27 26  2  0
 28 23  2  0
 28 27  1  0
 29 30  1  0
 31 29  2  0
M  END
$$$$
