MMW.pdb
     RDKit          3D

 31 32  0  0  1  0  0  0  0  0999 V2000
    2.7396  -18.9953   23.0735 C   0  0  0  0  0  0  0  0  0  0  0  0
    2.9937  -18.0168   21.5863 S   0  0  0  0  0  0  0  0  0  0  0  0
    3.7676  -18.9510   20.2491 C   0  0  0  0  0  0  0  0  0  0  0  0
    4.9809  -18.2192   19.7395 C   0  0  0  0  0  0  0  0  0  0  0  0
    6.2388  -18.7597   20.3571 C   0  0  2  0  0  0  0  0  0  0  0  0
    6.0861  -18.9922   21.7765 N   0  0  0  0  0  0  0  0  0  0  0  0
    7.4057  -17.8268   20.1472 C   0  0  0  0  0  0  0  0  0  0  0  0
    7.8206  -17.6126   18.9869 O   0  0  0  0  0  0  0  0  0  0  0  0
    7.2177  -12.4085   19.0713 C   0  0  0  0  0  0  0  0  0  0  0  0
    7.6382  -12.4003   20.8298 S   0  0  0  0  0  0  0  0  0  0  0  0
    7.7379  -14.0984   21.4631 C   0  0  0  0  0  0  0  0  0  0  0  0
    8.7540  -14.9096   20.6981 C   0  0  0  0  0  0  0  0  0  0  0  0
    9.0480  -16.2458   21.3175 C   0  0  2  0  0  0  0  0  0  0  0  0
    8.0039  -17.2158   21.2554 N   0  0  0  0  0  0  0  0  0  0  0  0
    9.7466  -16.2100   22.6024 C   0  0  0  0  0  0  0  0  0  0  0  0
   10.7155  -15.3796   22.7635 O   0  0  0  0  0  0  0  0  0  0  0  0
    9.4305  -17.0389   23.7090 N   0  0  0  0  0  0  0  0  0  0  0  0
    9.9353  -16.8507   25.0506 C   0  0  1  0  0  0  0  0  0  0  0  0
    9.7953  -15.4510   25.5339 C   0  0  0  0  0  0  0  0  0  0  0  0
    8.3914  -15.0307   25.7250 C   0  0  0  0  0  0  0  0  0  0  0  0
    7.2619  -15.8052   25.5786 C   0  0  0  0  0  0  0  0  0  0  0  0
    6.1954  -15.0577   25.8397 N   0  0  0  0  0  0  0  0  0  0  0  0
    6.5415  -13.8057   26.1589 C   0  0  0  0  0  0  0  0  0  0  0  0
    5.8113  -12.6909   26.5000 C   0  0  0  0  0  0  0  0  0  0  0  0
    6.4434  -11.4939   26.7877 C   0  0  0  0  0  0  0  0  0  0  0  0
    7.8204  -11.4603   26.7202 C   0  0  0  0  0  0  0  0  0  0  0  0
    8.5430  -12.5841   26.3771 C   0  0  0  0  0  0  0  0  0  0  0  0
    7.9385  -13.7802   26.0882 C   0  0  0  0  0  0  0  0  0  0  0  0
    9.4824  -17.8636   26.0176 C   0  0  0  0  0  0  0  0  0  0  0  0
    9.9699  -17.8851   27.3108 O   0  0  0  0  0  0  0  0  0  0  0  0
    8.6455  -18.7201   25.6738 O   0  0  0  0  0  0  0  0  0  0  0  0
  2  1  1  0
  3  2  1  0
  4  3  1  0
  5  4  1  0
  5  6  1  1
  7  8  2  0
  7  5  1  0
 10  9  1  0
 11 10  1  0
 11 12  1  0
 13 12  1  1
 13 14  1  0
 14  7  1  0
 15 17  1  0
 15 13  1  0
 16 15  2  0
 18 17  1  0
 18 29  1  0
 19 20  1  0
 18 19  1  1
 20 28  1  0
 21 20  2  0
 21 22  1  0
 22 23  1  0
 23 24  1  0
 24 25  2  0
 26 25  1  0
 27 26  2  0
 28 23  2  0
 28 27  1  0
 29 30  1  0
 31 29  2  0
M  END
$$$$
