MMW.pdb
     RDKit          3D

 31 32  0  0  1  0  0  0  0  0999 V2000
    7.5525  -12.1171   17.6855 C   0  0  0  0  0  0  0  0  0  0  0  0
    6.9253  -13.7062   17.1241 S   0  0  0  0  0  0  0  0  0  0  0  0
    7.3445  -15.0648   18.2367 C   0  0  0  0  0  0  0  0  0  0  0  0
    8.5465  -14.7025   19.0683 C   0  0  0  0  0  0  0  0  0  0  0  0
    8.9371  -15.8326   19.9772 C   0  0  2  0  0  0  0  0  0  0  0  0
    7.8478  -16.7619   20.1813 N   0  0  0  0  0  0  0  0  0  0  0  0
    9.3961  -15.3291   21.3234 C   0  0  0  0  0  0  0  0  0  0  0  0
   10.5349  -14.8244   21.4354 O   0  0  0  0  0  0  0  0  0  0  0  0
    6.2376  -12.5602   26.5237 C   0  0  0  0  0  0  0  0  0  0  0  0
    6.7326  -11.7636   24.9779 S   0  0  0  0  0  0  0  0  0  0  0  0
    7.2665  -13.0079   23.7691 C   0  0  0  0  0  0  0  0  0  0  0  0
    7.6078  -14.3142   24.4419 C   0  0  0  0  0  0  0  0  0  0  0  0
    8.7378  -15.0533   23.7845 C   0  0  2  0  0  0  0  0  0  0  0  0
    8.5383  -15.4347   22.4245 N   0  0  0  0  0  0  0  0  0  0  0  0
    9.3819  -16.0835   24.5995 C   0  0  0  0  0  0  0  0  0  0  0  0
    8.8351  -16.4338   25.7097 O   0  0  0  0  0  0  0  0  0  0  0  0
   10.5896  -16.7407   24.2517 N   0  0  0  0  0  0  0  0  0  0  0  0
   11.5640  -17.2311   25.2005 C   0  0  1  0  0  0  0  0  0  0  0  0
   10.9663  -18.0918   26.2560 C   0  0  0  0  0  0  0  0  0  0  0  0
    9.9062  -17.4190   27.0355 C   0  0  0  0  0  0  0  0  0  0  0  0
    8.5753  -17.7666   27.1064 C   0  0  0  0  0  0  0  0  0  0  0  0
    7.9541  -16.9136   27.9131 N   0  0  0  0  0  0  0  0  0  0  0  0
    8.7980  -15.9967   28.3992 C   0  0  0  0  0  0  0  0  0  0  0  0
    8.6316  -14.9308   29.2528 C   0  0  0  0  0  0  0  0  0  0  0  0
    9.7044  -14.1262   29.5948 C   0  0  0  0  0  0  0  0  0  0  0  0
   10.9356  -14.4298   29.0527 C   0  0  0  0  0  0  0  0  0  0  0  0
   11.0914  -15.5011   28.1978 C   0  0  0  0  0  0  0  0  0  0  0  0
   10.0434  -16.3116   27.8452 C   0  0  0  0  0  0  0  0  0  0  0  0
   12.7778  -17.7946   24.5880 C   0  0  0  0  0  0  0  0  0  0  0  0
   12.9017  -17.9020   23.2155 O   0  0  0  0  0  0  0  0  0  0  0  0
   13.7148  -18.1841   25.3108 O   0  0  0  0  0  0  0  0  0  0  0  0
  2  1  1  0
  3  2  1  0
  4  3  1  0
  5  4  1  0
  5  6  1  1
  7  8  2  0
  7  5  1  0
 10  9  1  0
 11 10  1  0
 11 12  1  0
 13 12  1  1
 13 14  1  0
 14  7  1  0
 15 17  1  0
 15 13  1  0
 16 15  2  0
 18 17  1  0
 18 29  1  0
 19 20  1  0
 18 19  1  6
 20 28  1  0
 21 20  2  0
 21 22  1  0
 22 23  1  0
 23 24  1  0
 24 25  2  0
 26 25  1  0
 27 26  2  0
 28 23  2  0
 28 27  1  0
 29 30  1  0
 31 29  2  0
M  END
$$$$
