MMW.pdb
     RDKit          3D

 31 32  0  0  1  0  0  0  0  0999 V2000
   10.4583  -19.2025   15.5060 C   0  0  0  0  0  0  0  0  0  0  0  0
   10.2785  -20.7551   16.3955 S   0  0  0  0  0  0  0  0  0  0  0  0
    9.8500  -20.5280   18.1346 C   0  0  0  0  0  0  0  0  0  0  0  0
   10.1885  -19.1281   18.5739 C   0  0  0  0  0  0  0  0  0  0  0  0
   10.2593  -19.0322   20.0711 C   0  0  2  0  0  0  0  0  0  0  0  0
    9.0793  -19.5802   20.7031 N   0  0  0  0  0  0  0  0  0  0  0  0
   10.4288  -17.6046   20.5287 C   0  0  0  0  0  0  0  0  0  0  0  0
   11.3972  -16.9348   20.1072 O   0  0  0  0  0  0  0  0  0  0  0  0
    7.1755  -12.0514   19.6578 C   0  0  0  0  0  0  0  0  0  0  0  0
    6.8799  -12.5260   21.3772 S   0  0  0  0  0  0  0  0  0  0  0  0
    8.2806  -13.4871   22.0167 C   0  0  0  0  0  0  0  0  0  0  0  0
    8.2301  -14.9158   21.5349 C   0  0  0  0  0  0  0  0  0  0  0  0
    9.4136  -15.7370   21.9597 C   0  0  2  0  0  0  0  0  0  0  0  0
    9.4980  -17.0536   21.4171 N   0  0  0  0  0  0  0  0  0  0  0  0
    9.7652  -15.6579   23.3776 C   0  0  0  0  0  0  0  0  0  0  0  0
   10.4155  -14.6331   23.8034 O   0  0  0  0  0  0  0  0  0  0  0  0
    9.4368  -16.6461   24.3404 N   0  0  0  0  0  0  0  0  0  0  0  0
   10.0506  -16.7629   25.6441 C   0  0  1  0  0  0  0  0  0  0  0  0
    9.1352  -16.3857   26.7541 C   0  0  0  0  0  0  0  0  0  0  0  0
    7.9316  -15.6558   26.3038 C   0  0  0  0  0  0  0  0  0  0  0  0
    6.8103  -16.1860   25.7050 C   0  0  0  0  0  0  0  0  0  0  0  0
    5.9546  -15.2015   25.4544 N   0  0  0  0  0  0  0  0  0  0  0  0
    6.4376  -14.0198   25.8540 C   0  0  0  0  0  0  0  0  0  0  0  0
    5.9348  -12.7401   25.8103 C   0  0  0  0  0  0  0  0  0  0  0  0
    6.6673  -11.6765   26.3075 C   0  0  0  0  0  0  0  0  0  0  0  0
    7.9093  -11.9447   26.8436 C   0  0  0  0  0  0  0  0  0  0  0  0
    8.4040  -13.2318   26.8825 C   0  0  0  0  0  0  0  0  0  0  0  0
    7.6963  -14.3005   26.3962 C   0  0  0  0  0  0  0  0  0  0  0  0
   10.7675  -18.0288   25.8666 C   0  0  0  0  0  0  0  0  0  0  0  0
   10.7022  -19.0581   24.9463 O   0  0  0  0  0  0  0  0  0  0  0  0
   11.4473  -18.1845   26.8988 O   0  0  0  0  0  0  0  0  0  0  0  0
  2  1  1  0
  3  2  1  0
  4  3  1  0
  5  4  1  0
  5  6  1  1
  7  8  2  0
  7  5  1  0
 10  9  1  0
 11 10  1  0
 11 12  1  0
 13 12  1  1
 13 14  1  0
 14  7  1  0
 15 17  1  0
 15 13  1  0
 16 15  2  0
 18 17  1  0
 18 29  1  0
 19 20  1  0
 18 19  1  1
 20 28  1  0
 21 20  2  0
 21 22  1  0
 22 23  1  0
 23 24  1  0
 24 25  2  0
 26 25  1  0
 27 26  2  0
 28 23  2  0
 28 27  1  0
 29 30  1  0
 31 29  2  0
M  END
$$$$
