HGP.pdb
     RDKit          3D

 22 23  0  0  1  0  0  0  0  0999 V2000
    8.0948  -16.3172   20.8877 N   0  0  0  0  0  0  0  0  0  0  0  0
    8.0474  -14.9737   21.4188 C   0  0  1  0  0  0  0  0  0  0  0  0
    7.0184  -14.1305   20.6889 C   0  0  0  0  0  0  0  0  0  0  0  0
    7.4256  -14.0268   19.2744 C   0  0  0  0  0  0  0  0  0  0  0  0
    8.2604  -13.0957   18.7159 C   0  0  0  0  0  0  0  0  0  0  0  0
    8.3440  -13.3873   17.4060 N   0  0  0  0  0  0  0  0  0  0  0  0
    7.5967  -14.4598   17.1275 C   0  0  0  0  0  0  0  0  0  0  0  0
    7.0328  -14.8462   18.2952 N   0  0  0  0  0  0  0  0  0  0  0  0
    7.7203  -14.9836   22.8678 C   0  0  0  0  0  0  0  0  0  0  0  0
    6.5767  -14.6990   23.2875 O   0  0  0  0  0  0  0  0  0  0  0  0
    8.7462  -15.3276   23.7852 N   0  0  0  0  0  0  0  0  0  0  0  0
    8.4349  -15.4689   25.1887 C   0  0  0  0  0  0  0  0  0  0  0  0
    9.6624  -15.6877   25.9940 C   0  0  0  0  0  0  0  0  0  0  0  0
   10.5564  -16.4250   25.5111 O   0  0  0  0  0  0  0  0  0  0  0  0
    9.8241  -15.0855   27.2679 N   0  0  0  0  0  0  0  0  0  0  0  0
    8.8689  -14.1795   27.8750 C   0  0  0  0  0  0  0  0  0  0  0  0
    9.2829  -14.1652   29.3300 C   0  0  0  0  0  0  0  0  0  0  0  0
   10.8100  -14.1709   29.1791 C   0  0  0  0  0  0  0  0  0  0  0  0
   10.9592  -15.2825   28.1492 C   0  0  1  0  0  0  0  0  0  0  0  0
   10.7453  -16.5669   28.8775 C   0  0  0  0  0  0  0  0  0  0  0  0
    9.6190  -17.1364   28.8512 O   0  0  0  0  0  0  0  0  0  0  0  0
   11.7406  -17.1963   29.6069 O   0  0  0  0  0  0  0  0  0  0  0  0
  2  1  1  6
  2  3  1  0
  3  4  1  0
  4  5  2  0
  5  6  1  0
  7  6  1  0
  8  4  1  0
  8  7  2  0
  9  2  1  0
  9 11  1  0
 10  9  2  0
 12 11  1  0
 12 13  1  0
 13 15  1  0
 14 13  2  0
 15 16  1  0
 15 19  1  0
 16 17  1  0
 17 18  1  0
 19 20  1  1
 19 18  1  0
 20 22  1  0
 21 20  2  0
M  END
$$$$
