HGP.pdb
     RDKit          3D

 22 23  0  0  1  0  0  0  0  0999 V2000
    6.0344  -14.5724   20.9578 N   0  0  0  0  0  0  0  0  0  0  0  0
    7.3503  -14.9109   21.4510 C   0  0  1  0  0  0  0  0  0  0  0  0
    8.4222  -14.0790   20.7716 C   0  0  0  0  0  0  0  0  0  0  0  0
    8.2907  -14.2584   19.3129 C   0  0  0  0  0  0  0  0  0  0  0  0
    7.6173  -15.2532   18.6552 C   0  0  0  0  0  0  0  0  0  0  0  0
    7.7662  -15.0170   17.3399 N   0  0  0  0  0  0  0  0  0  0  0  0
    8.5035  -13.9181   17.1531 C   0  0  0  0  0  0  0  0  0  0  0  0
    8.8221  -13.4577   18.3849 N   0  0  0  0  0  0  0  0  0  0  0  0
    7.4398  -14.7040   22.9192 C   0  0  0  0  0  0  0  0  0  0  0  0
    7.3315  -13.5684   23.4329 O   0  0  0  0  0  0  0  0  0  0  0  0
    7.6542  -15.8374   23.7449 N   0  0  0  0  0  0  0  0  0  0  0  0
    7.7320  -15.6755   25.1783 C   0  0  0  0  0  0  0  0  0  0  0  0
    9.1378  -15.7292   25.6516 C   0  0  0  0  0  0  0  0  0  0  0  0
    9.9525  -16.4194   24.9911 O   0  0  0  0  0  0  0  0  0  0  0  0
    9.5515  -15.0256   26.8114 N   0  0  0  0  0  0  0  0  0  0  0  0
    8.7511  -14.0298   27.4967 C   0  0  0  0  0  0  0  0  0  0  0  0
    9.4313  -13.9062   28.8424 C   0  0  0  0  0  0  0  0  0  0  0  0
   10.9022  -13.9907   28.4131 C   0  0  0  0  0  0  0  0  0  0  0  0
   10.8265  -15.1934   27.4824 C   0  0  1  0  0  0  0  0  0  0  0  0
   10.7201  -16.3989   28.3550 C   0  0  0  0  0  0  0  0  0  0  0  0
    9.5960  -16.9279   28.5794 O   0  0  0  0  0  0  0  0  0  0  0  0
   11.8163  -16.9955   28.9558 O   0  0  0  0  0  0  0  0  0  0  0  0
  2  1  1  6
  2  3  1  0
  3  4  1  0
  4  5  2  0
  5  6  1  0
  7  6  1  0
  8  4  1  0
  8  7  2  0
  9  2  1  0
  9 11  1  0
 10  9  2  0
 12 11  1  0
 12 13  1  0
 13 15  1  0
 14 13  2  0
 15 16  1  0
 15 19  1  0
 16 17  1  0
 17 18  1  0
 19 20  1  1
 19 18  1  0
 20 22  1  0
 21 20  2  0
M  END
$$$$
