HGP.pdb
     RDKit          3D

 22 23  0  0  1  0  0  0  0  0999 V2000
    8.8451  -15.7622   21.1254 N   0  0  0  0  0  0  0  0  0  0  0  0
    8.3735  -14.4679   21.5635 C   0  0  1  0  0  0  0  0  0  0  0  0
    7.1790  -14.0129   20.7456 C   0  0  0  0  0  0  0  0  0  0  0  0
    7.5766  -13.9826   19.3249 C   0  0  0  0  0  0  0  0  0  0  0  0
    8.2718  -12.9963   18.6772 C   0  0  0  0  0  0  0  0  0  0  0  0
    8.4055  -13.3925   17.3993 N   0  0  0  0  0  0  0  0  0  0  0  0
    7.8230  -14.5828   17.2261 C   0  0  0  0  0  0  0  0  0  0  0  0
    7.3130  -14.9372   18.4282 N   0  0  0  0  0  0  0  0  0  0  0  0
    7.9906  -14.4967   22.9984 C   0  0  0  0  0  0  0  0  0  0  0  0
    7.6143  -13.4671   23.6013 O   0  0  0  0  0  0  0  0  0  0  0  0
    8.0603  -15.7351   23.6869 N   0  0  0  0  0  0  0  0  0  0  0  0
    7.8765  -15.7700   25.1194 C   0  0  0  0  0  0  0  0  0  0  0  0
    9.1794  -15.7692   25.8304 C   0  0  0  0  0  0  0  0  0  0  0  0
   10.1059  -16.4717   25.3568 O   0  0  0  0  0  0  0  0  0  0  0  0
    9.3757  -15.0013   27.0066 N   0  0  0  0  0  0  0  0  0  0  0  0
    8.3915  -14.0993   27.5719 C   0  0  0  0  0  0  0  0  0  0  0  0
    8.8994  -13.8716   28.9786 C   0  0  0  0  0  0  0  0  0  0  0  0
   10.4082  -13.7833   28.7128 C   0  0  0  0  0  0  0  0  0  0  0  0
   10.5796  -15.0015   27.8155 C   0  0  1  0  0  0  0  0  0  0  0  0
   10.5221  -16.1964   28.7070 C   0  0  0  0  0  0  0  0  0  0  0  0
    9.4397  -16.8279   28.8599 O   0  0  0  0  0  0  0  0  0  0  0  0
   11.6210  -16.6735   29.4024 O   0  0  0  0  0  0  0  0  0  0  0  0
  2  1  1  6
  2  3  1  0
  3  4  1  0
  4  5  2  0
  5  6  1  0
  7  6  1  0
  8  4  1  0
  8  7  2  0
  9  2  1  0
  9 11  1  0
 10  9  2  0
 12 11  1  0
 12 13  1  0
 13 15  1  0
 14 13  2  0
 15 16  1  0
 15 19  1  0
 16 17  1  0
 17 18  1  0
 19 20  1  1
 19 18  1  0
 20 22  1  0
 21 20  2  0
M  END
$$$$
