HGP.pdb
     RDKit          3D

 22 23  0  0  1  0  0  0  0  0999 V2000
    7.9286  -15.5386   26.2271 N   0  0  0  0  0  0  0  0  0  0  0  0
    7.8666  -14.7499   25.0173 C   0  0  1  0  0  0  0  0  0  0  0  0
    8.1723  -13.2901   25.2971 C   0  0  0  0  0  0  0  0  0  0  0  0
    7.2337  -12.8115   26.3301 C   0  0  0  0  0  0  0  0  0  0  0  0
    5.9134  -12.4859   26.1669 C   0  0  0  0  0  0  0  0  0  0  0  0
    5.4578  -12.1020   27.3722 N   0  0  0  0  0  0  0  0  0  0  0  0
    6.4389  -12.1753   28.2768 C   0  0  0  0  0  0  0  0  0  0  0  0
    7.5347  -12.6166   27.6170 N   0  0  0  0  0  0  0  0  0  0  0  0
    8.8244  -15.2554   24.0006 C   0  0  0  0  0  0  0  0  0  0  0  0
   10.0152  -15.5114   24.2864 O   0  0  0  0  0  0  0  0  0  0  0  0
    8.3573  -15.4466   22.6749 N   0  0  0  0  0  0  0  0  0  0  0  0
    9.3051  -15.6361   21.6013 C   0  0  0  0  0  0  0  0  0  0  0  0
    8.6166  -15.8005   20.2967 C   0  0  0  0  0  0  0  0  0  0  0  0
    8.1414  -16.9300   20.0232 O   0  0  0  0  0  0  0  0  0  0  0  0
    8.4971  -14.7199   19.3860 N   0  0  0  0  0  0  0  0  0  0  0  0
    8.9484  -13.3681   19.6523 C   0  0  0  0  0  0  0  0  0  0  0  0
    8.9822  -12.7381   18.2773 C   0  0  0  0  0  0  0  0  0  0  0  0
    7.7109  -13.3444   17.6682 C   0  0  0  0  0  0  0  0  0  0  0  0
    7.9108  -14.8017   18.0619 C   0  0  1  0  0  0  0  0  0  0  0  0
    8.9503  -15.3504   17.1430 C   0  0  0  0  0  0  0  0  0  0  0  0
    8.6527  -15.6663   15.9576 O   0  0  0  0  0  0  0  0  0  0  0  0
   10.2687  -15.5418   17.5224 O   0  0  0  0  0  0  0  0  0  0  0  0
  2  1  1  1
  2  3  1  0
  3  4  1  0
  4  5  2  0
  5  6  1  0
  7  6  1  0
  8  4  1  0
  8  7  2  0
  9  2  1  0
  9 11  1  0
 10  9  2  0
 12 11  1  0
 12 13  1  0
 13 15  1  0
 14 13  2  0
 15 16  1  0
 15 19  1  0
 16 17  1  0
 17 18  1  0
 19 20  1  6
 19 18  1  0
 20 22  1  0
 21 20  2  0
M  END
$$$$
