HGP.pdb
     RDKit          3D

 22 23  0  0  1  0  0  0  0  0999 V2000
    6.6263  -16.9005   20.9388 N   0  0  0  0  0  0  0  0  0  0  0  0
    7.2072  -15.6523   21.3792 C   0  0  1  0  0  0  0  0  0  0  0  0
    6.5671  -14.4700   20.6754 C   0  0  0  0  0  0  0  0  0  0  0  0
    7.5172  -13.9633   19.6665 C   0  0  0  0  0  0  0  0  0  0  0  0
    8.2766  -12.8257   19.7374 C   0  0  0  0  0  0  0  0  0  0  0  0
    8.9891  -12.7647   18.5988 N   0  0  0  0  0  0  0  0  0  0  0  0
    8.7045  -13.8159   17.8241 C   0  0  0  0  0  0  0  0  0  0  0  0
    7.7904  -14.5511   18.4984 N   0  0  0  0  0  0  0  0  0  0  0  0
    7.0525  -15.4796   22.8464 C   0  0  0  0  0  0  0  0  0  0  0  0
    6.0145  -14.9931   23.3473 O   0  0  0  0  0  0  0  0  0  0  0  0
    8.1222  -15.8833   23.6862 N   0  0  0  0  0  0  0  0  0  0  0  0
    8.0100  -15.7219   25.1174 C   0  0  0  0  0  0  0  0  0  0  0  0
    9.3420  -15.5354   25.7451 C   0  0  0  0  0  0  0  0  0  0  0  0
   10.3536  -15.8820   25.0872 O   0  0  0  0  0  0  0  0  0  0  0  0
    9.4724  -14.9842   27.0454 N   0  0  0  0  0  0  0  0  0  0  0  0
    8.3912  -14.3653   27.7869 C   0  0  0  0  0  0  0  0  0  0  0  0
    8.9180  -14.3348   29.2048 C   0  0  0  0  0  0  0  0  0  0  0  0
   10.3854  -13.9705   28.9426 C   0  0  0  0  0  0  0  0  0  0  0  0
   10.6958  -14.9559   27.8241 C   0  0  1  0  0  0  0  0  0  0  0  0
   10.8501  -16.2931   28.4676 C   0  0  0  0  0  0  0  0  0  0  0  0
    9.8792  -17.0989   28.5071 O   0  0  0  0  0  0  0  0  0  0  0  0
   12.0342  -16.7212   29.0450 O   0  0  0  0  0  0  0  0  0  0  0  0
  2  1  1  6
  2  3  1  0
  3  4  1  0
  4  5  2  0
  5  6  1  0
  7  6  1  0
  8  4  1  0
  8  7  2  0
  9  2  1  0
  9 11  1  0
 10  9  2  0
 12 11  1  0
 12 13  1  0
 13 15  1  0
 14 13  2  0
 15 16  1  0
 15 19  1  0
 16 17  1  0
 17 18  1  0
 19 20  1  1
 19 18  1  0
 20 22  1  0
 21 20  2  0
M  END
$$$$
