HGP.pdb
     RDKit          3D

 22 23  0  0  1  0  0  0  0  0999 V2000
    6.3658  -14.7765   21.4503 N   0  0  0  0  0  0  0  0  0  0  0  0
    7.6809  -15.3763   21.4336 C   0  0  1  0  0  0  0  0  0  0  0  0
    8.7371  -14.3723   21.0104 C   0  0  0  0  0  0  0  0  0  0  0  0
    8.5111  -14.0342   19.5921 C   0  0  0  0  0  0  0  0  0  0  0  0
    7.7546  -13.0076   19.0926 C   0  0  0  0  0  0  0  0  0  0  0  0
    7.8358  -13.0835   17.7526 N   0  0  0  0  0  0  0  0  0  0  0  0
    8.6106  -14.1134   17.3989 C   0  0  0  0  0  0  0  0  0  0  0  0
    9.0227  -14.6943   18.5494 N   0  0  0  0  0  0  0  0  0  0  0  0
    8.0387  -15.9159   22.7705 C   0  0  0  0  0  0  0  0  0  0  0  0
    9.0150  -16.6811   22.9329 O   0  0  0  0  0  0  0  0  0  0  0  0
    7.2396  -15.5417   23.8812 N   0  0  0  0  0  0  0  0  0  0  0  0
    7.4954  -16.1258   25.1774 C   0  0  0  0  0  0  0  0  0  0  0  0
    8.8871  -15.8634   25.6220 C   0  0  0  0  0  0  0  0  0  0  0  0
    9.8175  -16.4379   25.0051 O   0  0  0  0  0  0  0  0  0  0  0  0
    9.1614  -14.9929   26.7076 N   0  0  0  0  0  0  0  0  0  0  0  0
    8.1972  -14.0825   27.2938 C   0  0  0  0  0  0  0  0  0  0  0  0
    8.8273  -13.7194   28.6203 C   0  0  0  0  0  0  0  0  0  0  0  0
   10.2982  -13.5995   28.1999 C   0  0  0  0  0  0  0  0  0  0  0  0
   10.4362  -14.8818   27.3904 C   0  0  1  0  0  0  0  0  0  0  0  0
   10.5172  -15.9989   28.3760 C   0  0  0  0  0  0  0  0  0  0  0  0
   11.5981  -16.2388   28.9824 O   0  0  0  0  0  0  0  0  0  0  0  0
    9.4424  -16.8188   28.6783 O   0  0  0  0  0  0  0  0  0  0  0  0
  2  1  1  1
  2  3  1  0
  3  4  1  0
  4  5  2  0
  5  6  1  0
  7  6  1  0
  8  4  1  0
  8  7  2  0
  9  2  1  0
  9 11  1  0
 10  9  2  0
 12 11  1  0
 12 13  1  0
 13 15  1  0
 14 13  2  0
 15 16  1  0
 15 19  1  0
 16 17  1  0
 17 18  1  0
 19 20  1  1
 19 18  1  0
 20 22  1  0
 21 20  2  0
M  END
$$$$
