HGP.pdb
     RDKit          3D

 22 23  0  0  1  0  0  0  0  0999 V2000
    8.2816  -18.5826   21.0482 N   0  0  0  0  0  0  0  0  0  0  0  0
    7.9518  -18.0280   22.3418 C   0  0  1  0  0  0  0  0  0  0  0  0
    8.8739  -18.5650   23.4208 C   0  0  0  0  0  0  0  0  0  0  0  0
    8.1485  -19.6081   24.1711 C   0  0  0  0  0  0  0  0  0  0  0  0
    6.9170  -20.1341   23.8838 C   0  0  0  0  0  0  0  0  0  0  0  0
    6.6567  -21.0504   24.8327 N   0  0  0  0  0  0  0  0  0  0  0  0
    7.6742  -21.1157   25.6969 C   0  0  0  0  0  0  0  0  0  0  0  0
    8.5924  -20.2160   25.2747 N   0  0  0  0  0  0  0  0  0  0  0  0
    8.0425  -16.5454   22.3260 C   0  0  0  0  0  0  0  0  0  0  0  0
    8.9939  -15.9489   21.7745 O   0  0  0  0  0  0  0  0  0  0  0  0
    7.0125  -15.8032   22.9589 N   0  0  0  0  0  0  0  0  0  0  0  0
    7.0775  -14.3602   22.9788 C   0  0  0  0  0  0  0  0  0  0  0  0
    7.9176  -13.8737   24.1016 C   0  0  0  0  0  0  0  0  0  0  0  0
    9.1311  -14.1954   24.1077 O   0  0  0  0  0  0  0  0  0  0  0  0
    7.3714  -13.0714   25.1358 N   0  0  0  0  0  0  0  0  0  0  0  0
    5.9816  -12.6661   25.2132 C   0  0  0  0  0  0  0  0  0  0  0  0
    5.8332  -12.2135   26.6492 C   0  0  0  0  0  0  0  0  0  0  0  0
    7.1736  -11.4933   26.8480 C   0  0  0  0  0  0  0  0  0  0  0  0
    8.1130  -12.5392   26.2630 C   0  0  1  0  0  0  0  0  0  0  0  0
    8.2253  -13.6248   27.2802 C   0  0  0  0  0  0  0  0  0  0  0  0
    8.9879  -13.4898   28.2771 O   0  0  0  0  0  0  0  0  0  0  0  0
    7.5201  -14.8141   27.1965 O   0  0  0  0  0  0  0  0  0  0  0  0
  2  1  1  6
  2  3  1  0
  3  4  1  0
  4  5  2  0
  5  6  1  0
  7  6  1  0
  8  4  1  0
  8  7  2  0
  9  2  1  0
  9 11  1  0
 10  9  2  0
 12 11  1  0
 12 13  1  0
 13 15  1  0
 14 13  2  0
 15 16  1  0
 15 19  1  0
 16 17  1  0
 17 18  1  0
 19 20  1  1
 19 18  1  0
 20 22  1  0
 21 20  2  0
M  END
$$$$
