QGF.pdb
     RDKit          3D

 25 25  0  0  1  0  0  0  0  0999 V2000
   25.8668  -23.0613  -18.0952 N   0  0  0  0  0  0  0  0  0  0  0  0
   24.6030  -23.4580  -17.6038 C   0  0  0  0  0  0  0  0  0  0  0  0
   23.9681  -24.3000  -18.2870 O   0  0  0  0  0  0  0  0  0  0  0  0
   23.9968  -22.9557  -16.3672 C   0  0  0  0  0  0  0  0  0  0  0  0
   24.7919  -21.9995  -15.5803 C   0  0  0  0  0  0  0  0  0  0  0  0
   25.9608  -22.5701  -14.8306 C   0  0  2  0  0  0  0  0  0  0  0  0
   25.4089  -23.4307  -13.7547 N   0  0  0  0  0  0  0  0  0  0  0  0
   26.8606  -21.5650  -14.2301 C   0  0  0  0  0  0  0  0  0  0  0  0
   27.1780  -20.5185  -14.8923 O   0  0  0  0  0  0  0  0  0  0  0  0
   27.4369  -21.6371  -12.9350 N   0  0  0  0  0  0  0  0  0  0  0  0
   27.3939  -20.5366  -12.0105 C   0  0  0  0  0  0  0  0  0  0  0  0
   26.8760  -20.8723  -10.6793 C   0  0  0  0  0  0  0  0  0  0  0  0
   26.4619  -22.0644  -10.5077 O   0  0  0  0  0  0  0  0  0  0  0  0
   26.7919  -20.0126   -9.5799 N   0  0  0  0  0  0  0  0  0  0  0  0
   26.2084  -20.4995   -8.3239 C   0  0  1  0  0  0  0  0  0  0  0  0
   26.4670  -19.4289   -7.2552 C   0  0  0  0  0  0  0  0  0  0  0  0
   27.6726  -19.8190   -6.4632 C   0  0  0  0  0  0  0  0  0  0  0  0
   28.8773  -20.0708   -7.0793 C   0  0  0  0  0  0  0  0  0  0  0  0
   30.0096  -20.4340   -6.3680 C   0  0  0  0  0  0  0  0  0  0  0  0
   29.9276  -20.5468   -5.0004 C   0  0  0  0  0  0  0  0  0  0  0  0
   28.7178  -20.2927   -4.3936 C   0  0  0  0  0  0  0  0  0  0  0  0
   27.6054  -19.9343   -5.1094 C   0  0  0  0  0  0  0  0  0  0  0  0
   24.7617  -20.6761   -8.4788 C   0  0  0  0  0  0  0  0  0  0  0  0
   24.1227  -21.3215   -7.6247 O   0  0  0  0  0  0  0  0  0  0  0  0
   24.1206  -20.1223   -9.5751 O   0  0  0  0  0  0  0  0  0  0  0  0
  2  4  1  0
  2  1  1  0
  3  2  2  0
  5  4  1  0
  6  8  1  0
  6  5  1  0
  6  7  1  1
  8 10  1  0
  9  8  2  0
 10 11  1  0
 11 12  1  0
 12 13  2  0
 12 14  1  0
 14 15  1  0
 15 23  1  0
 15 16  1  1
 17 16  1  0
 18 17  2  0
 19 18  1  0
 20 19  2  0
 20 21  1  0
 21 22  2  0
 22 17  1  0
 23 24  2  0
 23 25  1  0
M  END
$$$$
