QGF.pdb
     RDKit          3D

 25 25  0  0  1  0  0  0  0  0999 V2000
   28.6168  -19.9810  -16.4826 N   0  0  0  0  0  0  0  0  0  0  0  0
   27.4999  -19.1271  -16.6219 C   0  0  0  0  0  0  0  0  0  0  0  0
   27.7339  -17.9364  -16.9482 O   0  0  0  0  0  0  0  0  0  0  0  0
   26.1083  -19.5376  -16.4123 C   0  0  0  0  0  0  0  0  0  0  0  0
   25.5651  -19.3695  -15.0550 C   0  0  0  0  0  0  0  0  0  0  0  0
   26.3462  -20.0119  -13.9454 C   0  0  2  0  0  0  0  0  0  0  0  0
   26.6053  -21.4155  -14.3524 N   0  0  0  0  0  0  0  0  0  0  0  0
   25.6721  -20.0076  -12.6317 C   0  0  0  0  0  0  0  0  0  0  0  0
   25.3142  -18.8997  -12.1036 O   0  0  0  0  0  0  0  0  0  0  0  0
   25.3616  -21.1547  -11.8556 N   0  0  0  0  0  0  0  0  0  0  0  0
   24.7349  -21.0648  -10.5645 C   0  0  0  0  0  0  0  0  0  0  0  0
   25.6541  -21.1759   -9.4263 C   0  0  0  0  0  0  0  0  0  0  0  0
   26.2362  -22.2972   -9.2651 O   0  0  0  0  0  0  0  0  0  0  0  0
   25.9546  -20.1721   -8.5006 N   0  0  0  0  0  0  0  0  0  0  0  0
   26.9077  -20.4478   -7.4185 C   0  0  1  0  0  0  0  0  0  0  0  0
   27.7361  -19.1738   -7.2043 C   0  0  0  0  0  0  0  0  0  0  0  0
   28.5080  -19.3084   -5.9319 C   0  0  0  0  0  0  0  0  0  0  0  0
   27.9939  -18.8581   -4.7372 C   0  0  0  0  0  0  0  0  0  0  0  0
   28.6891  -18.9710   -3.5439 C   0  0  0  0  0  0  0  0  0  0  0  0
   29.9348  -19.5525   -3.5529 C   0  0  0  0  0  0  0  0  0  0  0  0
   30.4402  -19.9997   -4.7534 C   0  0  0  0  0  0  0  0  0  0  0  0
   29.7416  -19.8817   -5.9266 C   0  0  0  0  0  0  0  0  0  0  0  0
   26.1854  -20.7581   -6.1816 C   0  0  0  0  0  0  0  0  0  0  0  0
   25.0354  -20.3090   -6.0079 O   0  0  0  0  0  0  0  0  0  0  0  0
   26.7910  -21.5485   -5.2182 O   0  0  0  0  0  0  0  0  0  0  0  0
  2  4  1  0
  2  1  1  0
  3  2  2  0
  5  4  1  0
  6  8  1  0
  6  5  1  0
  6  7  1  6
  8 10  1  0
  9  8  2  0
 10 11  1  0
 11 12  1  0
 12 13  2  0
 12 14  1  0
 14 15  1  0
 15 23  1  0
 15 16  1  1
 17 16  1  0
 18 17  2  0
 19 18  1  0
 20 19  2  0
 20 21  1  0
 21 22  2  0
 22 17  1  0
 23 24  2  0
 23 25  1  0
M  END
$$$$
