QGF.pdb
     RDKit          3D

 25 25  0  0  1  0  0  0  0  0999 V2000
   16.8040  -23.4310  -10.8997 N   0  0  0  0  0  0  0  0  0  0  0  0
   16.6037  -23.0919  -12.2565 C   0  0  0  0  0  0  0  0  0  0  0  0
   15.5009  -23.4151  -12.7646 O   0  0  0  0  0  0  0  0  0  0  0  0
   17.5869  -22.3983  -13.0939 C   0  0  0  0  0  0  0  0  0  0  0  0
   18.8529  -22.0142  -12.4495 C   0  0  0  0  0  0  0  0  0  0  0  0
   19.7983  -21.1978  -13.2823 C   0  0  2  0  0  0  0  0  0  0  0  0
   19.3848  -21.3638  -14.6980 N   0  0  0  0  0  0  0  0  0  0  0  0
   21.2206  -21.5712  -13.1486 C   0  0  0  0  0  0  0  0  0  0  0  0
   21.8176  -21.4133  -12.0291 O   0  0  0  0  0  0  0  0  0  0  0  0
   22.0351  -22.1143  -14.1763 N   0  0  0  0  0  0  0  0  0  0  0  0
   23.3971  -22.5154  -13.9488 C   0  0  0  0  0  0  0  0  0  0  0  0
   24.3693  -21.4165  -13.9484 C   0  0  0  0  0  0  0  0  0  0  0  0
   23.9354  -20.2653  -14.2777 O   0  0  0  0  0  0  0  0  0  0  0  0
   25.7259  -21.5080  -13.6221 N   0  0  0  0  0  0  0  0  0  0  0  0
   26.5400  -20.2877  -13.5654 C   0  0  1  0  0  0  0  0  0  0  0  0
   27.5391  -20.4588  -12.4131 C   0  0  0  0  0  0  0  0  0  0  0  0
   26.7806  -20.5904  -11.1323 C   0  0  0  0  0  0  0  0  0  0  0  0
   26.3120  -19.4810  -10.4661 C   0  0  0  0  0  0  0  0  0  0  0  0
   25.6063  -19.5759   -9.2774 C   0  0  0  0  0  0  0  0  0  0  0  0
   25.3657  -20.8202   -8.7449 C   0  0  0  0  0  0  0  0  0  0  0  0
   25.8387  -21.9239   -9.4192 C   0  0  0  0  0  0  0  0  0  0  0  0
   26.5355  -21.8156  -10.5944 C   0  0  0  0  0  0  0  0  0  0  0  0
   27.2834  -20.1227  -14.8177 C   0  0  0  0  0  0  0  0  0  0  0  0
   27.4011  -21.0875  -15.5985 O   0  0  0  0  0  0  0  0  0  0  0  0
   27.8473  -18.8936  -15.1191 O   0  0  0  0  0  0  0  0  0  0  0  0
  2  4  1  0
  2  1  1  0
  3  2  2  0
  5  4  1  0
  6  8  1  0
  6  5  1  0
  6  7  1  6
  8 10  1  0
  9  8  2  0
 10 11  1  0
 11 12  1  0
 12 13  2  0
 12 14  1  0
 14 15  1  0
 15 23  1  0
 15 16  1  1
 17 16  1  0
 18 17  2  0
 19 18  1  0
 20 19  2  0
 20 21  1  0
 21 22  2  0
 22 17  1  0
 23 24  2  0
 23 25  1  0
M  END
$$$$
