QGF.pdb
     RDKit          3D

 25 25  0  0  1  0  0  0  0  0999 V2000
   21.8502  -23.6348  -16.2491 N   0  0  0  0  0  0  0  0  0  0  0  0
   22.4981  -24.8092  -15.8051 C   0  0  0  0  0  0  0  0  0  0  0  0
   22.2691  -25.8618  -16.4519 O   0  0  0  0  0  0  0  0  0  0  0  0
   23.4053  -24.8741  -14.6554 C   0  0  0  0  0  0  0  0  0  0  0  0
   23.6364  -23.6194  -13.9220 C   0  0  0  0  0  0  0  0  0  0  0  0
   24.6012  -22.6547  -14.5486 C   0  0  2  0  0  0  0  0  0  0  0  0
   25.7781  -23.4431  -14.9915 N   0  0  0  0  0  0  0  0  0  0  0  0
   25.0561  -21.5687  -13.6576 C   0  0  0  0  0  0  0  0  0  0  0  0
   24.2086  -20.7370  -13.1839 O   0  0  0  0  0  0  0  0  0  0  0  0
   26.3957  -21.3382  -13.2490 N   0  0  0  0  0  0  0  0  0  0  0  0
   26.7617  -20.2448  -12.3897 C   0  0  0  0  0  0  0  0  0  0  0  0
   26.8821  -20.5933  -10.9695 C   0  0  0  0  0  0  0  0  0  0  0  0
   27.2880  -21.7698  -10.6989 O   0  0  0  0  0  0  0  0  0  0  0  0
   26.5953  -19.7611   -9.8831 N   0  0  0  0  0  0  0  0  0  0  0  0
   26.9471  -20.1965   -8.5259 C   0  0  1  0  0  0  0  0  0  0  0  0
   27.4262  -18.9566   -7.7587 C   0  0  0  0  0  0  0  0  0  0  0  0
   27.8488  -19.3716   -6.3868 C   0  0  0  0  0  0  0  0  0  0  0  0
   29.1765  -19.5639   -6.0794 C   0  0  0  0  0  0  0  0  0  0  0  0
   29.5944  -19.9484   -4.8155 C   0  0  0  0  0  0  0  0  0  0  0  0
   28.6513  -20.1447   -3.8347 C   0  0  0  0  0  0  0  0  0  0  0  0
   27.3255  -19.9497   -4.1525 C   0  0  0  0  0  0  0  0  0  0  0  0
   26.9260  -19.5693   -5.4071 C   0  0  0  0  0  0  0  0  0  0  0  0
   25.7656  -20.7438   -7.8533 C   0  0  0  0  0  0  0  0  0  0  0  0
   24.6450  -20.2399   -8.0644 O   0  0  0  0  0  0  0  0  0  0  0  0
   25.9090  -21.8171   -6.9889 O   0  0  0  0  0  0  0  0  0  0  0  0
  2  4  1  0
  2  1  1  0
  3  2  2  0
  5  4  1  0
  6  8  1  0
  6  5  1  0
  6  7  1  1
  8 10  1  0
  9  8  2  0
 10 11  1  0
 11 12  1  0
 12 13  2  0
 12 14  1  0
 14 15  1  0
 15 23  1  0
 15 16  1  1
 17 16  1  0
 18 17  2  0
 19 18  1  0
 20 19  2  0
 20 21  1  0
 21 22  2  0
 22 17  1  0
 23 24  2  0
 23 25  1  0
M  END
$$$$
