QGF.pdb
     RDKit          3D

 25 25  0  0  1  0  0  0  0  0999 V2000
   27.3008  -16.0523  -14.6210 N   0  0  0  0  0  0  0  0  0  0  0  0
   27.0904  -15.9596  -16.0150 C   0  0  0  0  0  0  0  0  0  0  0  0
   27.2054  -14.8197  -16.5310 O   0  0  0  0  0  0  0  0  0  0  0  0
   26.7513  -17.0923  -16.8817 C   0  0  0  0  0  0  0  0  0  0  0  0
   26.7657  -18.4275  -16.2632 C   0  0  0  0  0  0  0  0  0  0  0  0
   25.4507  -19.1505  -16.2192 C   0  0  2  0  0  0  0  0  0  0  0  0
   24.7985  -18.9469  -17.5368 N   0  0  0  0  0  0  0  0  0  0  0  0
   24.5335  -18.7014  -15.1528 C   0  0  0  0  0  0  0  0  0  0  0  0
   24.8330  -18.9076  -13.9271 O   0  0  0  0  0  0  0  0  0  0  0  0
   23.2976  -18.0319  -15.3501 N   0  0  0  0  0  0  0  0  0  0  0  0
   22.1579  -18.6775  -15.9433 C   0  0  0  0  0  0  0  0  0  0  0  0
   21.5840  -19.7666  -15.1449 C   0  0  0  0  0  0  0  0  0  0  0  0
   20.4480  -20.2108  -15.5112 O   0  0  0  0  0  0  0  0  0  0  0  0
   22.1612  -20.3654  -14.0209 N   0  0  0  0  0  0  0  0  0  0  0  0
   21.5797  -21.6003  -13.4805 C   0  0  1  0  0  0  0  0  0  0  0  0
   22.7440  -22.5039  -13.0525 C   0  0  0  0  0  0  0  0  0  0  0  0
   23.6251  -21.7439  -12.1148 C   0  0  0  0  0  0  0  0  0  0  0  0
   24.8021  -21.1765  -12.5473 C   0  0  0  0  0  0  0  0  0  0  0  0
   25.6365  -20.4672  -11.6984 C   0  0  0  0  0  0  0  0  0  0  0  0
   25.2770  -20.3250  -10.3791 C   0  0  0  0  0  0  0  0  0  0  0  0
   24.0975  -20.8965   -9.9564 C   0  0  0  0  0  0  0  0  0  0  0  0
   23.2814  -21.5956  -10.8070 C   0  0  0  0  0  0  0  0  0  0  0  0
   20.7587  -21.2951  -12.3054 C   0  0  0  0  0  0  0  0  0  0  0  0
   20.7113  -20.1277  -11.8706 O   0  0  0  0  0  0  0  0  0  0  0  0
   20.0436  -22.3103  -11.6909 O   0  0  0  0  0  0  0  0  0  0  0  0
  2  4  1  0
  2  1  1  0
  3  2  2  0
  5  4  1  0
  6  8  1  0
  6  5  1  0
  6  7  1  6
  8 10  1  0
  9  8  2  0
 10 11  1  0
 11 12  1  0
 12 13  2  0
 12 14  1  0
 14 15  1  0
 15 23  1  0
 15 16  1  1
 17 16  1  0
 18 17  2  0
 19 18  1  0
 20 19  2  0
 20 21  1  0
 21 22  2  0
 22 17  1  0
 23 24  2  0
 23 25  1  0
M  END
$$$$
