QGF.pdb
     RDKit          3D

 25 25  0  0  1  0  0  0  0  0999 V2000
   28.3408  -24.9273  -19.3169 N   0  0  0  0  0  0  0  0  0  0  0  0
   27.8910  -23.6540  -19.7321 C   0  0  0  0  0  0  0  0  0  0  0  0
   27.6143  -23.5202  -20.9505 O   0  0  0  0  0  0  0  0  0  0  0  0
   27.7305  -22.4987  -18.8440 C   0  0  0  0  0  0  0  0  0  0  0  0
   28.6994  -22.3689  -17.7440 C   0  0  0  0  0  0  0  0  0  0  0  0
   28.3065  -22.9977  -16.4385 C   0  0  2  0  0  0  0  0  0  0  0  0
   27.5686  -24.2444  -16.7613 N   0  0  0  0  0  0  0  0  0  0  0  0
   27.4638  -22.1493  -15.5723 C   0  0  0  0  0  0  0  0  0  0  0  0
   27.9548  -21.0942  -15.0432 O   0  0  0  0  0  0  0  0  0  0  0  0
   26.1023  -22.3883  -15.2499 N   0  0  0  0  0  0  0  0  0  0  0  0
   25.3436  -21.5040  -14.4073 C   0  0  0  0  0  0  0  0  0  0  0  0
   25.6748  -21.5806  -12.9800 C   0  0  0  0  0  0  0  0  0  0  0  0
   26.1274  -22.6923  -12.5540 O   0  0  0  0  0  0  0  0  0  0  0  0
   25.5427  -20.5536  -12.0405 N   0  0  0  0  0  0  0  0  0  0  0  0
   26.0086  -20.7673  -10.6649 C   0  0  1  0  0  0  0  0  0  0  0  0
   27.1017  -19.7267  -10.3864 C   0  0  0  0  0  0  0  0  0  0  0  0
   27.4665  -19.7857   -8.9385 C   0  0  0  0  0  0  0  0  0  0  0  0
   26.8551  -18.9661   -8.0171 C   0  0  0  0  0  0  0  0  0  0  0  0
   27.1751  -19.0012   -6.6694 C   0  0  0  0  0  0  0  0  0  0  0  0
   28.1358  -19.8845   -6.2372 C   0  0  0  0  0  0  0  0  0  0  0  0
   28.7415  -20.7001   -7.1670 C   0  0  0  0  0  0  0  0  0  0  0  0
   28.4153  -20.6550   -8.4973 C   0  0  0  0  0  0  0  0  0  0  0  0
   24.9044  -20.5595   -9.7239 C   0  0  0  0  0  0  0  0  0  0  0  0
   24.9734  -21.0374   -8.5745 O   0  0  0  0  0  0  0  0  0  0  0  0
   23.7948  -19.8327  -10.1242 O   0  0  0  0  0  0  0  0  0  0  0  0
  2  4  1  0
  2  1  1  0
  3  2  2  0
  5  4  1  0
  6  8  1  0
  6  5  1  0
  6  7  1  6
  8 10  1  0
  9  8  2  0
 10 11  1  0
 11 12  1  0
 12 13  2  0
 12 14  1  0
 14 15  1  0
 15 23  1  0
 15 16  1  1
 17 16  1  0
 18 17  2  0
 19 18  1  0
 20 19  2  0
 20 21  1  0
 21 22  2  0
 22 17  1  0
 23 24  2  0
 23 25  1  0
M  END
$$$$
