QGF.pdb
     RDKit          3D

 25 25  0  0  1  0  0  0  0  0999 V2000
   28.0225  -19.8489  -18.2978 N   0  0  0  0  0  0  0  0  0  0  0  0
   26.7690  -19.3264  -17.9080 C   0  0  0  0  0  0  0  0  0  0  0  0
   26.1064  -18.7254  -18.7904 O   0  0  0  0  0  0  0  0  0  0  0  0
   26.2037  -19.4400  -16.5602 C   0  0  0  0  0  0  0  0  0  0  0  0
   27.0228  -20.1353  -15.5545 C   0  0  0  0  0  0  0  0  0  0  0  0
   26.7850  -19.7467  -14.1240 C   0  0  2  0  0  0  0  0  0  0  0  0
   27.1396  -18.3109  -13.9989 N   0  0  0  0  0  0  0  0  0  0  0  0
   27.5604  -20.5226  -13.1354 C   0  0  0  0  0  0  0  0  0  0  0  0
   27.3728  -21.7825  -13.0265 O   0  0  0  0  0  0  0  0  0  0  0  0
   28.5394  -19.9967  -12.2526 N   0  0  0  0  0  0  0  0  0  0  0  0
   29.1304  -20.7812  -11.2023 C   0  0  0  0  0  0  0  0  0  0  0  0
   28.2602  -21.0118  -10.0437 C   0  0  0  0  0  0  0  0  0  0  0  0
   28.4125  -22.1121   -9.4206 O   0  0  0  0  0  0  0  0  0  0  0  0
   27.2796  -20.1428   -9.5556 N   0  0  0  0  0  0  0  0  0  0  0  0
   26.4310  -20.5660   -8.4349 C   0  0  1  0  0  0  0  0  0  0  0  0
   26.4149  -19.4186   -7.4159 C   0  0  0  0  0  0  0  0  0  0  0  0
   27.4449  -19.6896   -6.3677 C   0  0  0  0  0  0  0  0  0  0  0  0
   28.6728  -19.0688   -6.4000 C   0  0  0  0  0  0  0  0  0  0  0  0
   29.6448  -19.3027   -5.4406 C   0  0  0  0  0  0  0  0  0  0  0  0
   29.3740  -20.1847   -4.4214 C   0  0  0  0  0  0  0  0  0  0  0  0
   28.1425  -20.8006   -4.3982 C   0  0  0  0  0  0  0  0  0  0  0  0
   27.1900  -20.5600   -5.3538 C   0  0  0  0  0  0  0  0  0  0  0  0
   25.0630  -20.8036   -8.9041 C   0  0  0  0  0  0  0  0  0  0  0  0
   24.1959  -21.2057   -8.1037 O   0  0  0  0  0  0  0  0  0  0  0  0
   24.7495  -20.5777  -10.2347 O   0  0  0  0  0  0  0  0  0  0  0  0
  2  4  1  0
  2  1  1  0
  3  2  2  0
  5  4  1  0
  6  8  1  0
  6  5  1  0
  6  7  1  6
  8 10  1  0
  9  8  2  0
 10 11  1  0
 11 12  1  0
 12 13  2  0
 12 14  1  0
 14 15  1  0
 15 23  1  0
 15 16  1  1
 17 16  1  0
 18 17  2  0
 19 18  1  0
 20 19  2  0
 20 21  1  0
 21 22  2  0
 22 17  1  0
 23 24  2  0
 23 25  1  0
M  END
$$$$
