QGF.pdb
     RDKit          3D

 25 25  0  0  1  0  0  0  0  0999 V2000
   14.1748   -8.5914  -17.1907 N   0  0  0  0  0  0  0  0  0  0  0  0
   14.4157   -8.4936  -18.5794 C   0  0  0  0  0  0  0  0  0  0  0  0
   13.4439   -8.1555  -19.3007 O   0  0  0  0  0  0  0  0  0  0  0  0
   15.7076   -8.7582  -19.2197 C   0  0  0  0  0  0  0  0  0  0  0  0
   15.9229  -10.1176  -19.7405 C   0  0  0  0  0  0  0  0  0  0  0  0
   17.0738  -10.8784  -19.1484 C   0  0  2  0  0  0  0  0  0  0  0  0
   16.7525  -11.1087  -17.7178 N   0  0  0  0  0  0  0  0  0  0  0  0
   18.3805  -10.1977  -19.2455 C   0  0  0  0  0  0  0  0  0  0  0  0
   18.8141   -9.8120  -20.3846 O   0  0  0  0  0  0  0  0  0  0  0  0
   19.2476   -9.9094  -18.1594 N   0  0  0  0  0  0  0  0  0  0  0  0
   20.4879   -9.2021  -18.3306 C   0  0  0  0  0  0  0  0  0  0  0  0
   20.6214   -7.9896  -17.5152 C   0  0  0  0  0  0  0  0  0  0  0  0
   19.5877   -7.6115  -16.8743 O   0  0  0  0  0  0  0  0  0  0  0  0
   21.7716   -7.2077  -17.3719 N   0  0  0  0  0  0  0  0  0  0  0  0
   21.7639   -6.0738  -16.4395 C   0  0  1  0  0  0  0  0  0  0  0  0
   21.6269   -6.6487  -15.0231 C   0  0  0  0  0  0  0  0  0  0  0  0
   22.5547   -7.8116  -14.8825 C   0  0  0  0  0  0  0  0  0  0  0  0
   23.8933   -7.6934  -15.1801 C   0  0  0  0  0  0  0  0  0  0  0  0
   24.7743   -8.7560  -15.0581 C   0  0  0  0  0  0  0  0  0  0  0  0
   24.2955   -9.9699  -14.6253 C   0  0  0  0  0  0  0  0  0  0  0  0
   22.9547  -10.0777  -14.3302 C   0  0  0  0  0  0  0  0  0  0  0  0
   22.0943   -9.0183  -14.4553 C   0  0  0  0  0  0  0  0  0  0  0  0
   23.0286   -5.3392  -16.5335 C   0  0  0  0  0  0  0  0  0  0  0  0
   23.9120   -5.7277  -17.3227 O   0  0  0  0  0  0  0  0  0  0  0  0
   23.2271   -4.2193  -15.7423 O   0  0  0  0  0  0  0  0  0  0  0  0
  2  4  1  0
  2  1  1  0
  3  2  2  0
  5  4  1  0
  6  8  1  0
  6  5  1  0
  6  7  1  1
  8 10  1  0
  9  8  2  0
 10 11  1  0
 11 12  1  0
 12 13  2  0
 12 14  1  0
 14 15  1  0
 15 23  1  0
 15 16  1  1
 17 16  1  0
 18 17  2  0
 19 18  1  0
 20 19  2  0
 20 21  1  0
 21 22  2  0
 22 17  1  0
 23 24  2  0
 23 25  1  0
M  END
$$$$
