QGF.pdb
     RDKit          3D

 25 25  0  0  1  0  0  0  0  0999 V2000
   15.3019  -12.6482  -17.2874 N   0  0  0  0  0  0  0  0  0  0  0  0
   13.9823  -13.0381  -16.9671 C   0  0  0  0  0  0  0  0  0  0  0  0
   13.1929  -13.2104  -17.9293 O   0  0  0  0  0  0  0  0  0  0  0  0
   13.4858  -13.2501  -15.6041 C   0  0  0  0  0  0  0  0  0  0  0  0
   14.4358  -13.0051  -14.5072 C   0  0  0  0  0  0  0  0  0  0  0  0
   13.9106  -12.2207  -13.3398 C   0  0  2  0  0  0  0  0  0  0  0  0
   12.8510  -11.3219  -13.8616 N   0  0  0  0  0  0  0  0  0  0  0  0
   14.9234  -11.4120  -12.6324 C   0  0  0  0  0  0  0  0  0  0  0  0
   15.9598  -11.9772  -12.1417 O   0  0  0  0  0  0  0  0  0  0  0  0
   14.8697  -10.0081  -12.4304 N   0  0  0  0  0  0  0  0  0  0  0  0
   15.9891   -9.2589  -11.9269 C   0  0  0  0  0  0  0  0  0  0  0  0
   15.6327   -8.0324  -11.2047 C   0  0  0  0  0  0  0  0  0  0  0  0
   14.6050   -7.4019  -11.6151 O   0  0  0  0  0  0  0  0  0  0  0  0
   16.3098   -7.4869  -10.1097 N   0  0  0  0  0  0  0  0  0  0  0  0
   15.8261   -6.2377   -9.5093 C   0  0  1  0  0  0  0  0  0  0  0  0
   15.7011   -6.4761   -7.9983 C   0  0  0  0  0  0  0  0  0  0  0  0
   14.3728   -7.0998   -7.7164 C   0  0  0  0  0  0  0  0  0  0  0  0
   13.2468   -6.3275   -7.5431 C   0  0  0  0  0  0  0  0  0  0  0  0
   12.0039   -6.8810   -7.2809 C   0  0  0  0  0  0  0  0  0  0  0  0
   11.8909   -8.2481   -7.1907 C   0  0  0  0  0  0  0  0  0  0  0  0
   13.0234   -9.0119   -7.3657 C   0  0  0  0  0  0  0  0  0  0  0  0
   14.2468   -8.4512   -7.6246 C   0  0  0  0  0  0  0  0  0  0  0  0
   16.7941   -5.1622   -9.7418 C   0  0  0  0  0  0  0  0  0  0  0  0
   17.9170   -5.4320  -10.2116 O   0  0  0  0  0  0  0  0  0  0  0  0
   16.4486   -3.8558   -9.4360 O   0  0  0  0  0  0  0  0  0  0  0  0
  2  4  1  0
  2  1  1  0
  3  2  2  0
  5  4  1  0
  6  8  1  0
  6  5  1  0
  6  7  1  6
  8 10  1  0
  9  8  2  0
 10 11  1  0
 11 12  1  0
 12 13  2  0
 12 14  1  0
 14 15  1  0
 15 23  1  0
 15 16  1  1
 17 16  1  0
 18 17  2  0
 19 18  1  0
 20 19  2  0
 20 21  1  0
 21 22  2  0
 22 17  1  0
 23 24  2  0
 23 25  1  0
M  END
$$$$
