FKS.pdb
     RDKit          3D

 27 27  0  0  1  0  0  0  0  0999 V2000
    7.5076  -17.5788   26.6505 N   0  0  0  0  0  0  0  0  0  0  0  0
    6.8277  -16.5761   25.8676 C   0  0  1  0  0  0  0  0  0  0  0  0
    6.6651  -15.3025   26.6724 C   0  0  0  0  0  0  0  0  0  0  0  0
    7.9709  -14.9927   27.3136 C   0  0  0  0  0  0  0  0  0  0  0  0
    8.7243  -13.9064   26.9167 C   0  0  0  0  0  0  0  0  0  0  0  0
    9.9323  -13.6356   27.5233 C   0  0  0  0  0  0  0  0  0  0  0  0
   10.4190  -14.4326   28.5335 C   0  0  0  0  0  0  0  0  0  0  0  0
    9.6627  -15.5215   28.9306 C   0  0  0  0  0  0  0  0  0  0  0  0
    8.4475  -15.8031   28.3280 C   0  0  0  0  0  0  0  0  0  0  0  0
    7.6777  -16.2440   24.6993 C   0  0  0  0  0  0  0  0  0  0  0  0
    8.7295  -16.8885   24.4646 O   0  0  0  0  0  0  0  0  0  0  0  0
    7.3075  -15.1892   23.8320 N   0  0  0  0  0  0  0  0  0  0  0  0
    8.0563  -14.9897   22.6137 C   0  0  1  0  0  0  0  0  0  0  0  0
    7.6182  -13.7354   21.8944 C   0  0  0  0  0  0  0  0  0  0  0  0
    8.3914  -13.4411   20.6669 C   0  0  0  0  0  0  0  0  0  0  0  0
    7.6445  -13.9039   19.4479 C   0  0  0  0  0  0  0  0  0  0  0  0
    8.4959  -13.6630   18.2247 C   0  0  0  0  0  0  0  0  0  0  0  0
    7.8034  -14.0817   17.0106 N   0  0  0  0  0  0  0  0  0  0  0  0
    9.4944  -15.0655   22.8552 C   0  0  0  0  0  0  0  0  0  0  0  0
   10.1331  -14.3335   23.6502 O   0  0  0  0  0  0  0  0  0  0  0  0
   11.3763  -18.4842   22.4236 O   0  0  0  0  0  0  0  0  0  0  0  0
   12.0864  -17.4298   22.9955 C   0  0  0  0  0  0  0  0  0  0  0  0
   11.6659  -16.1583   22.2696 C   0  0  2  0  0  0  0  0  0  0  0  0
   10.2442  -16.0396   22.1418 N   0  0  0  0  0  0  0  0  0  0  0  0
   12.3144  -16.0345   20.9603 C   0  0  0  0  0  0  0  0  0  0  0  0
   13.7019  -15.9979   20.8324 O   0  0  0  0  0  0  0  0  0  0  0  0
   11.6108  -15.9588   19.9203 O   0  0  0  0  0  0  0  0  0  0  0  0
  2  3  1  0
  2  1  1  1
  4  3  1  0
  5  4  2  0
  6  5  1  0
  7  8  1  0
  7  6  2  0
  8  9  2  0
  9  4  1  0
 10  2  1  0
 11 10  2  0
 12 10  1  0
 13 19  1  0
 13 12  1  0
 13 14  1  1
 15 14  1  0
 16 15  1  0
 17 16  1  0
 18 17  1  0
 19 24  1  0
 20 19  2  0
 22 21  1  0
 23 22  1  6
 23 25  1  0
 24 23  1  0
 25 27  2  0
 25 26  1  0
M  END
$$$$
