FKS.pdb
     RDKit          3D

 27 27  0  0  1  0  0  0  0  0999 V2000
    6.6127  -17.3031   26.0911 N   0  0  0  0  0  0  0  0  0  0  0  0
    6.8620  -16.0309   25.4586 C   0  0  1  0  0  0  0  0  0  0  0  0
    7.8010  -15.1976   26.3072 C   0  0  0  0  0  0  0  0  0  0  0  0
    7.1290  -13.9042   26.6037 C   0  0  0  0  0  0  0  0  0  0  0  0
    7.4387  -13.1790   27.7365 C   0  0  0  0  0  0  0  0  0  0  0  0
    6.8049  -11.9821   27.9940 C   0  0  0  0  0  0  0  0  0  0  0  0
    5.8533  -11.4789   27.1375 C   0  0  0  0  0  0  0  0  0  0  0  0
    5.5436  -12.2070   26.0020 C   0  0  0  0  0  0  0  0  0  0  0  0
    6.1742  -13.4108   25.7332 C   0  0  0  0  0  0  0  0  0  0  0  0
    7.5503  -16.2803   24.1694 C   0  0  0  0  0  0  0  0  0  0  0  0
    8.0146  -17.4146   23.8966 O   0  0  0  0  0  0  0  0  0  0  0  0
    7.6906  -15.2332   23.2282 N   0  0  0  0  0  0  0  0  0  0  0  0
    8.2849  -15.5217   21.9443 C   0  0  1  0  0  0  0  0  0  0  0  0
    8.0244  -14.4121   20.9525 C   0  0  0  0  0  0  0  0  0  0  0  0
    8.5808  -14.6636   19.6041 C   0  0  0  0  0  0  0  0  0  0  0  0
    8.2516  -13.5286   18.6761 C   0  0  0  0  0  0  0  0  0  0  0  0
    8.7577  -13.8578   17.2925 C   0  0  0  0  0  0  0  0  0  0  0  0
    8.4695  -12.7770   16.3555 N   0  0  0  0  0  0  0  0  0  0  0  0
    9.6939  -15.8803   22.0793 C   0  0  0  0  0  0  0  0  0  0  0  0
   10.5183  -15.3011   22.8279 O   0  0  0  0  0  0  0  0  0  0  0  0
   13.0904  -19.1189   20.9026 O   0  0  0  0  0  0  0  0  0  0  0  0
   11.7623  -18.7534   20.6887 C   0  0  0  0  0  0  0  0  0  0  0  0
   11.5381  -17.4305   21.4099 C   0  0  2  0  0  0  0  0  0  0  0  0
   10.1860  -16.9686   21.3090 N   0  0  0  0  0  0  0  0  0  0  0  0
   12.4729  -16.3947   20.9586 C   0  0  0  0  0  0  0  0  0  0  0  0
   13.6268  -16.0880   21.6778 O   0  0  0  0  0  0  0  0  0  0  0  0
   12.2374  -15.7613   19.8977 O   0  0  0  0  0  0  0  0  0  0  0  0
  2  3  1  0
  2  1  1  1
  4  3  1  0
  5  4  2  0
  6  5  1  0
  7  8  1  0
  7  6  2  0
  8  9  2  0
  9  4  1  0
 10  2  1  0
 11 10  2  0
 12 10  1  0
 13 19  1  0
 13 12  1  0
 13 14  1  6
 15 14  1  0
 16 15  1  0
 17 16  1  0
 18 17  1  0
 19 24  1  0
 20 19  2  0
 22 21  1  0
 23 22  1  6
 23 25  1  0
 24 23  1  0
 25 27  2  0
 25 26  1  0
M  END
$$$$
