FKS.pdb
     RDKit          3D

 27 27  0  0  1  0  0  0  0  0999 V2000
    5.9624  -17.9214   25.7960 N   0  0  0  0  0  0  0  0  0  0  0  0
    6.3060  -16.5327   25.6119 C   0  0  1  0  0  0  0  0  0  0  0  0
    7.1065  -16.0284   26.7956 C   0  0  0  0  0  0  0  0  0  0  0  0
    7.1318  -14.5424   26.7354 C   0  0  0  0  0  0  0  0  0  0  0  0
    5.9728  -13.8010   26.8450 C   0  0  0  0  0  0  0  0  0  0  0  0
    6.0167  -12.4243   26.7869 C   0  0  0  0  0  0  0  0  0  0  0  0
    7.2063  -11.7539   26.6194 C   0  0  0  0  0  0  0  0  0  0  0  0
    8.3678  -12.4985   26.5096 C   0  0  0  0  0  0  0  0  0  0  0  0
    8.3354  -13.8822   26.5667 C   0  0  0  0  0  0  0  0  0  0  0  0
    7.1814  -16.4251   24.4203 C   0  0  0  0  0  0  0  0  0  0  0  0
    8.0610  -17.2904   24.1876 O   0  0  0  0  0  0  0  0  0  0  0  0
    7.0315  -15.3372   23.5282 N   0  0  0  0  0  0  0  0  0  0  0  0
    7.8934  -15.2562   22.3726 C   0  0  1  0  0  0  0  0  0  0  0  0
    7.5026  -14.1090   21.4705 C   0  0  0  0  0  0  0  0  0  0  0  0
    8.3017  -14.0178   20.2278 C   0  0  0  0  0  0  0  0  0  0  0  0
    7.4498  -13.5419   19.0851 C   0  0  0  0  0  0  0  0  0  0  0  0
    8.1345  -13.8803   17.7829 C   0  0  0  0  0  0  0  0  0  0  0  0
    9.2586  -12.9847   17.5310 N   0  0  0  0  0  0  0  0  0  0  0  0
    9.3017  -15.2564   22.7587 C   0  0  0  0  0  0  0  0  0  0  0  0
    9.8149  -14.5003   23.6193 O   0  0  0  0  0  0  0  0  0  0  0  0
   11.5292  -18.5036   21.8746 O   0  0  0  0  0  0  0  0  0  0  0  0
   12.0758  -17.5933   22.7776 C   0  0  0  0  0  0  0  0  0  0  0  0
   11.5815  -16.2094   22.3761 C   0  0  2  0  0  0  0  0  0  0  0  0
   10.1727  -16.1793   22.1188 N   0  0  0  0  0  0  0  0  0  0  0  0
   12.3268  -15.6711   21.2337 C   0  0  0  0  0  0  0  0  0  0  0  0
   13.6926  -15.4041   21.3125 O   0  0  0  0  0  0  0  0  0  0  0  0
   11.7289  -15.4408   20.1513 O   0  0  0  0  0  0  0  0  0  0  0  0
  2  3  1  0
  2  1  1  1
  4  3  1  0
  5  4  2  0
  6  5  1  0
  7  8  1  0
  7  6  2  0
  8  9  2  0
  9  4  1  0
 10  2  1  0
 11 10  2  0
 12 10  1  0
 13 19  1  0
 13 12  1  0
 13 14  1  1
 15 14  1  0
 16 15  1  0
 17 16  1  0
 18 17  1  0
 19 24  1  0
 20 19  2  0
 22 21  1  0
 23 22  1  6
 23 25  1  0
 24 23  1  0
 25 27  2  0
 25 26  1  0
M  END
$$$$
