FKS.pdb
     RDKit          3D

 27 27  0  0  1  0  0  0  0  0999 V2000
    5.8839  -17.8085   25.6368 N   0  0  0  0  0  0  0  0  0  0  0  0
    6.2955  -16.4521   25.3700 C   0  0  1  0  0  0  0  0  0  0  0  0
    7.0934  -15.9063   26.5369 C   0  0  0  0  0  0  0  0  0  0  0  0
    7.0088  -14.4218   26.4989 C   0  0  0  0  0  0  0  0  0  0  0  0
    5.8598  -13.7596   26.8815 C   0  0  0  0  0  0  0  0  0  0  0  0
    5.8008  -12.3828   26.8393 C   0  0  0  0  0  0  0  0  0  0  0  0
    6.8755  -11.6342   26.4185 C   0  0  0  0  0  0  0  0  0  0  0  0
    8.0270  -12.2994   26.0351 C   0  0  0  0  0  0  0  0  0  0  0  0
    8.0975  -13.6824   26.0735 C   0  0  0  0  0  0  0  0  0  0  0  0
    7.1998  -16.4639   24.1954 C   0  0  0  0  0  0  0  0  0  0  0  0
    7.9775  -17.4284   23.9914 O   0  0  0  0  0  0  0  0  0  0  0  0
    7.1940  -15.3791   23.2870 N   0  0  0  0  0  0  0  0  0  0  0  0
    8.0227  -15.4504   22.1068 C   0  0  1  0  0  0  0  0  0  0  0  0
    7.6518  -14.3817   21.1053 C   0  0  0  0  0  0  0  0  0  0  0  0
    8.4454  -14.4220   19.8564 C   0  0  0  0  0  0  0  0  0  0  0  0
    7.9107  -13.4345   18.8580 C   0  0  0  0  0  0  0  0  0  0  0  0
    8.6802  -13.5706   17.5664 C   0  0  0  0  0  0  0  0  0  0  0  0
    8.3576  -12.4864   16.6447 N   0  0  0  0  0  0  0  0  0  0  0  0
    9.4409  -15.4742   22.4537 C   0  0  0  0  0  0  0  0  0  0  0  0
   10.0226  -14.6273   23.1748 O   0  0  0  0  0  0  0  0  0  0  0  0
   11.4462  -18.9233   21.6980 O   0  0  0  0  0  0  0  0  0  0  0  0
   12.0551  -18.0562   22.6037 C   0  0  0  0  0  0  0  0  0  0  0  0
   11.6398  -16.6415   22.2208 C   0  0  2  0  0  0  0  0  0  0  0  0
   10.2389  -16.5333   21.9424 N   0  0  0  0  0  0  0  0  0  0  0  0
   12.4308  -16.1223   21.1004 C   0  0  0  0  0  0  0  0  0  0  0  0
   13.7517  -15.7098   21.2675 O   0  0  0  0  0  0  0  0  0  0  0  0
   11.9144  -16.0428   19.9562 O   0  0  0  0  0  0  0  0  0  0  0  0
  2  3  1  0
  2  1  1  1
  4  3  1  0
  5  4  2  0
  6  5  1  0
  7  8  1  0
  7  6  2  0
  8  9  2  0
  9  4  1  0
 10  2  1  0
 11 10  2  0
 12 10  1  0
 13 19  1  0
 13 12  1  0
 13 14  1  6
 15 14  1  0
 16 15  1  0
 17 16  1  0
 18 17  1  0
 19 24  1  0
 20 19  2  0
 22 21  1  0
 23 22  1  6
 23 25  1  0
 24 23  1  0
 25 27  2  0
 25 26  1  0
M  END
$$$$
