FKS.pdb
     RDKit          3D

 27 27  0  0  1  0  0  0  0  0999 V2000
    6.0127  -17.9960   25.8720 N   0  0  0  0  0  0  0  0  0  0  0  0
    6.3390  -16.6003   25.7104 C   0  0  1  0  0  0  0  0  0  0  0  0
    6.9977  -16.0662   26.9663 C   0  0  0  0  0  0  0  0  0  0  0  0
    7.0387  -14.5825   26.8699 C   0  0  0  0  0  0  0  0  0  0  0  0
    5.8988  -13.8219   27.0356 C   0  0  0  0  0  0  0  0  0  0  0  0
    5.9570  -12.4476   26.9426 C   0  0  0  0  0  0  0  0  0  0  0  0
    7.1422  -11.7987   26.6842 C   0  0  0  0  0  0  0  0  0  0  0  0
    8.2844  -12.5624   26.5182 C   0  0  0  0  0  0  0  0  0  0  0  0
    8.2375  -13.9439   26.6095 C   0  0  0  0  0  0  0  0  0  0  0  0
    7.3320  -16.4793   24.6163 C   0  0  0  0  0  0  0  0  0  0  0  0
    8.2577  -17.3185   24.4914 O   0  0  0  0  0  0  0  0  0  0  0  0
    7.2439  -15.4081   23.6961 N   0  0  0  0  0  0  0  0  0  0  0  0
    8.1242  -15.3948   22.5516 C   0  0  1  0  0  0  0  0  0  0  0  0
    7.7361  -14.3157   21.5680 C   0  0  0  0  0  0  0  0  0  0  0  0
    8.4858  -14.3622   20.2925 C   0  0  0  0  0  0  0  0  0  0  0  0
    7.8914  -13.4090   19.2947 C   0  0  0  0  0  0  0  0  0  0  0  0
    8.5312  -13.6405   17.9471 C   0  0  0  0  0  0  0  0  0  0  0  0
    7.9343  -12.7849   16.9269 N   0  0  0  0  0  0  0  0  0  0  0  0
    9.5256  -15.3520   22.9594 C   0  0  0  0  0  0  0  0  0  0  0  0
   10.0371  -14.4740   23.6964 O   0  0  0  0  0  0  0  0  0  0  0  0
   13.5612  -17.7848   23.5899 O   0  0  0  0  0  0  0  0  0  0  0  0
   12.2130  -17.8535   23.2427 C   0  0  0  0  0  0  0  0  0  0  0  0
   11.7729  -16.4444   22.8666 C   0  0  2  0  0  0  0  0  0  0  0  0
   10.3916  -16.3781   22.4935 N   0  0  0  0  0  0  0  0  0  0  0  0
   12.6196  -15.8672   21.8176 C   0  0  0  0  0  0  0  0  0  0  0  0
   13.8941  -15.3756   22.0950 O   0  0  0  0  0  0  0  0  0  0  0  0
   12.1953  -15.8094   20.6349 O   0  0  0  0  0  0  0  0  0  0  0  0
  2  3  1  0
  2  1  1  1
  4  3  1  0
  5  4  2  0
  6  5  1  0
  7  8  1  0
  7  6  2  0
  8  9  2  0
  9  4  1  0
 10  2  1  0
 11 10  2  0
 12 10  1  0
 13 19  1  0
 13 12  1  0
 13 14  1  6
 15 14  1  0
 16 15  1  0
 17 16  1  0
 18 17  1  0
 19 24  1  0
 20 19  2  0
 22 21  1  0
 23 22  1  6
 23 25  1  0
 24 23  1  0
 25 27  2  0
 25 26  1  0
M  END
$$$$
