FKS.pdb
     RDKit          3D

 27 27  0  0  1  0  0  0  0  0999 V2000
    6.6471  -17.9527   25.9566 N   0  0  0  0  0  0  0  0  0  0  0  0
    6.8155  -16.5669   25.5936 C   0  0  1  0  0  0  0  0  0  0  0  0
    7.5837  -15.8310   26.6728 C   0  0  0  0  0  0  0  0  0  0  0  0
    7.0939  -14.4271   26.7113 C   0  0  0  0  0  0  0  0  0  0  0  0
    5.9581  -14.0455   26.0263 C   0  0  0  0  0  0  0  0  0  0  0  0
    5.5198  -12.7392   26.0743 C   0  0  0  0  0  0  0  0  0  0  0  0
    6.1953  -11.7853   26.7998 C   0  0  0  0  0  0  0  0  0  0  0  0
    7.3340  -12.1692   27.4862 C   0  0  0  0  0  0  0  0  0  0  0  0
    7.7835  -13.4790   27.4451 C   0  0  0  0  0  0  0  0  0  0  0  0
    7.6364  -16.5063   24.3606 C   0  0  0  0  0  0  0  0  0  0  0  0
    8.5299  -17.3604   24.1396 O   0  0  0  0  0  0  0  0  0  0  0  0
    7.4178  -15.4767   23.4151 N   0  0  0  0  0  0  0  0  0  0  0  0
    8.2466  -15.4242   22.2339 C   0  0  1  0  0  0  0  0  0  0  0  0
    7.7364  -14.4019   21.2454 C   0  0  0  0  0  0  0  0  0  0  0  0
    8.4769  -14.3781   19.9639 C   0  0  0  0  0  0  0  0  0  0  0  0
    7.8854  -13.3601   19.0303 C   0  0  0  0  0  0  0  0  0  0  0  0
    8.6255  -13.4056   17.7152 C   0  0  0  0  0  0  0  0  0  0  0  0
    8.0786  -12.4382   16.7697 N   0  0  0  0  0  0  0  0  0  0  0  0
    9.6562  -15.2651   22.5803 C   0  0  0  0  0  0  0  0  0  0  0  0
   10.2159  -14.1736   22.8466 O   0  0  0  0  0  0  0  0  0  0  0  0
   11.7347  -18.6753   23.4133 O   0  0  0  0  0  0  0  0  0  0  0  0
   12.2884  -17.4915   23.8981 C   0  0  0  0  0  0  0  0  0  0  0  0
   11.8654  -16.3761   22.9508 C   0  0  2  0  0  0  0  0  0  0  0  0
   10.4719  -16.4281   22.6235 N   0  0  0  0  0  0  0  0  0  0  0  0
   12.6816  -16.3523   21.7327 C   0  0  0  0  0  0  0  0  0  0  0  0
   12.1168  -16.5302   20.4709 O   0  0  0  0  0  0  0  0  0  0  0  0
   13.9229  -16.1676   21.8171 O   0  0  0  0  0  0  0  0  0  0  0  0
  2  3  1  0
  2  1  1  1
  4  3  1  0
  5  4  2  0
  6  5  1  0
  7  8  1  0
  7  6  2  0
  8  9  2  0
  9  4  1  0
 10  2  1  0
 11 10  2  0
 12 10  1  0
 13 19  1  0
 13 12  1  0
 13 14  1  6
 15 14  1  0
 16 15  1  0
 17 16  1  0
 18 17  1  0
 19 24  1  0
 20 19  2  0
 22 21  1  0
 23 22  1  1
 23 25  1  0
 24 23  1  0
 25 27  2  0
 25 26  1  0
M  END
$$$$
