FKS.pdb
     RDKit          3D

 27 27  0  0  1  0  0  0  0  0999 V2000
    6.6905  -17.2043   25.5143 N   0  0  0  0  0  0  0  0  0  0  0  0
    6.8479  -15.8760   24.9744 C   0  0  1  0  0  0  0  0  0  0  0  0
    7.8830  -15.1055   25.7689 C   0  0  0  0  0  0  0  0  0  0  0  0
    7.2529  -13.8459   26.2471 C   0  0  0  0  0  0  0  0  0  0  0  0
    6.4301  -13.1001   25.4274 C   0  0  0  0  0  0  0  0  0  0  0  0
    5.8551  -11.9352   25.8889 C   0  0  0  0  0  0  0  0  0  0  0  0
    6.0821  -11.4849   27.1689 C   0  0  0  0  0  0  0  0  0  0  0  0
    6.9073  -12.2335   27.9899 C   0  0  0  0  0  0  0  0  0  0  0  0
    7.4903  -13.4056   27.5366 C   0  0  0  0  0  0  0  0  0  0  0  0
    7.3661  -15.9957   23.5906 C   0  0  0  0  0  0  0  0  0  0  0  0
    7.8443  -17.0794   23.1738 O   0  0  0  0  0  0  0  0  0  0  0  0
    7.3257  -14.8804   22.7210 N   0  0  0  0  0  0  0  0  0  0  0  0
    7.8843  -15.0061   21.3955 C   0  0  1  0  0  0  0  0  0  0  0  0
    7.6782  -13.7467   20.5867 C   0  0  0  0  0  0  0  0  0  0  0  0
    7.3785  -13.9883   19.1574 C   0  0  0  0  0  0  0  0  0  0  0  0
    8.6427  -13.9901   18.3451 C   0  0  0  0  0  0  0  0  0  0  0  0
    8.2904  -14.1049   16.8816 C   0  0  0  0  0  0  0  0  0  0  0  0
    9.4897  -14.1112   16.0505 N   0  0  0  0  0  0  0  0  0  0  0  0
    9.2708  -15.4617   21.4440 C   0  0  0  0  0  0  0  0  0  0  0  0
   10.1579  -14.9971   22.2008 O   0  0  0  0  0  0  0  0  0  0  0  0
   10.0921  -19.0585   19.7500 O   0  0  0  0  0  0  0  0  0  0  0  0
   11.0171  -18.5652   20.6687 C   0  0  0  0  0  0  0  0  0  0  0  0
   10.9920  -17.0459   20.5607 C   0  0  2  0  0  0  0  0  0  0  0  0
    9.6623  -16.5132   20.5717 N   0  0  0  0  0  0  0  0  0  0  0  0
   11.7304  -16.5673   19.3876 C   0  0  0  0  0  0  0  0  0  0  0  0
   13.1043  -16.7642   19.2585 O   0  0  0  0  0  0  0  0  0  0  0  0
   11.1189  -15.9631   18.4693 O   0  0  0  0  0  0  0  0  0  0  0  0
  2  3  1  0
  2  1  1  1
  4  3  1  0
  5  4  2  0
  6  5  1  0
  7  8  1  0
  7  6  2  0
  8  9  2  0
  9  4  1  0
 10  2  1  0
 11 10  2  0
 12 10  1  0
 13 19  1  0
 13 12  1  0
 13 14  1  1
 15 14  1  0
 16 15  1  0
 17 16  1  0
 18 17  1  0
 19 24  1  0
 20 19  2  0
 22 21  1  0
 23 22  1  6
 23 25  1  0
 24 23  1  0
 25 27  2  0
 25 26  1  0
M  END
$$$$
