FKS.pdb
     RDKit          3D

 27 27  0  0  1  0  0  0  0  0999 V2000
    5.9034  -18.0803   25.7572 N   0  0  0  0  0  0  0  0  0  0  0  0
    6.2115  -16.6815   25.5875 C   0  0  1  0  0  0  0  0  0  0  0  0
    6.8348  -16.1240   26.8512 C   0  0  0  0  0  0  0  0  0  0  0  0
    6.9214  -14.6459   26.7090 C   0  0  0  0  0  0  0  0  0  0  0  0
    8.1407  -14.0040   26.6289 C   0  0  0  0  0  0  0  0  0  0  0  0
    8.2004  -12.6329   26.4973 C   0  0  0  0  0  0  0  0  0  0  0  0
    7.0569  -11.8701   26.4424 C   0  0  0  0  0  0  0  0  0  0  0  0
    5.8350  -12.5149   26.5228 C   0  0  0  0  0  0  0  0  0  0  0  0
    5.7631  -13.8920   26.6552 C   0  0  0  0  0  0  0  0  0  0  0  0
    7.2258  -16.5565   24.5135 C   0  0  0  0  0  0  0  0  0  0  0  0
    8.1340  -17.4137   24.3829 O   0  0  0  0  0  0  0  0  0  0  0  0
    7.1781  -15.4609   23.6194 N   0  0  0  0  0  0  0  0  0  0  0  0
    8.0691  -15.4459   22.4832 C   0  0  1  0  0  0  0  0  0  0  0  0
    7.6920  -14.3634   21.4990 C   0  0  0  0  0  0  0  0  0  0  0  0
    8.4962  -14.3694   20.2563 C   0  0  0  0  0  0  0  0  0  0  0  0
    7.9524  -13.3749   19.2698 C   0  0  0  0  0  0  0  0  0  0  0  0
    8.7111  -13.5008   17.9708 C   0  0  0  0  0  0  0  0  0  0  0  0
    8.1702  -12.6026   16.9560 N   0  0  0  0  0  0  0  0  0  0  0  0
    9.4668  -15.4066   22.9042 C   0  0  0  0  0  0  0  0  0  0  0  0
    9.9627  -14.5576   23.6844 O   0  0  0  0  0  0  0  0  0  0  0  0
   11.7284  -18.6998   22.0940 O   0  0  0  0  0  0  0  0  0  0  0  0
   12.2151  -17.8494   23.0854 C   0  0  0  0  0  0  0  0  0  0  0  0
   11.7367  -16.4434   22.7467 C   0  0  2  0  0  0  0  0  0  0  0  0
   10.3476  -16.4012   22.3995 N   0  0  0  0  0  0  0  0  0  0  0  0
   12.5510  -15.8256   21.6951 C   0  0  0  0  0  0  0  0  0  0  0  0
   13.8999  -15.5347   21.8914 O   0  0  0  0  0  0  0  0  0  0  0  0
   12.0294  -15.5472   20.5849 O   0  0  0  0  0  0  0  0  0  0  0  0
  2  3  1  0
  2  1  1  1
  4  3  1  0
  5  4  2  0
  6  5  1  0
  7  8  1  0
  7  6  2  0
  8  9  2  0
  9  4  1  0
 10  2  1  0
 11 10  2  0
 12 10  1  0
 13 19  1  0
 13 12  1  0
 13 14  1  6
 15 14  1  0
 16 15  1  0
 17 16  1  0
 18 17  1  0
 19 24  1  0
 20 19  2  0
 22 21  1  0
 23 22  1  6
 23 25  1  0
 24 23  1  0
 25 27  2  0
 25 26  1  0
M  END
$$$$
