FKS.pdb
     RDKit          3D

 27 27  0  0  1  0  0  0  0  0999 V2000
    6.6034  -16.9250   25.6165 N   0  0  0  0  0  0  0  0  0  0  0  0
    6.8732  -15.6967   24.9101 C   0  0  1  0  0  0  0  0  0  0  0  0
    7.9382  -14.8978   25.6338 C   0  0  0  0  0  0  0  0  0  0  0  0
    7.2704  -13.7691   26.3356 C   0  0  0  0  0  0  0  0  0  0  0  0
    6.3263  -12.9882   25.7000 C   0  0  0  0  0  0  0  0  0  0  0  0
    5.7182  -11.9464   26.3675 C   0  0  0  0  0  0  0  0  0  0  0  0
    6.0311  -11.6563   27.6753 C   0  0  0  0  0  0  0  0  0  0  0  0
    6.9779  -12.4400   28.3115 C   0  0  0  0  0  0  0  0  0  0  0  0
    7.5952  -13.4893   27.6506 C   0  0  0  0  0  0  0  0  0  0  0  0
    7.4213  -16.0392   23.5759 C   0  0  0  0  0  0  0  0  0  0  0  0
    7.8932  -17.1801   23.3475 O   0  0  0  0  0  0  0  0  0  0  0  0
    7.4170  -15.0749   22.5405 N   0  0  0  0  0  0  0  0  0  0  0  0
    8.0733  -15.3856   21.2925 C   0  0  1  0  0  0  0  0  0  0  0  0
    7.8815  -14.2831   20.2774 C   0  0  0  0  0  0  0  0  0  0  0  0
    8.3564  -14.6242   18.9175 C   0  0  0  0  0  0  0  0  0  0  0  0
    8.0316  -13.5199   17.9516 C   0  0  0  0  0  0  0  0  0  0  0  0
    8.4183  -13.9519   16.5577 C   0  0  0  0  0  0  0  0  0  0  0  0
    8.0485  -12.9417   15.5719 N   0  0  0  0  0  0  0  0  0  0  0  0
    9.4679  -15.7628   21.5048 C   0  0  0  0  0  0  0  0  0  0  0  0
   10.2311  -15.2550   22.3623 O   0  0  0  0  0  0  0  0  0  0  0  0
   12.7060  -19.0286   21.6678 O   0  0  0  0  0  0  0  0  0  0  0  0
   11.3714  -18.6373   21.5730 C   0  0  0  0  0  0  0  0  0  0  0  0
   11.3478  -17.2852   20.8719 C   0  0  2  0  0  0  0  0  0  0  0  0
   10.0193  -16.7835   20.6839 N   0  0  0  0  0  0  0  0  0  0  0  0
   12.0736  -17.3153   19.5980 C   0  0  0  0  0  0  0  0  0  0  0  0
   13.4629  -17.4182   19.5506 O   0  0  0  0  0  0  0  0  0  0  0  0
   11.4367  -17.2474   18.5154 O   0  0  0  0  0  0  0  0  0  0  0  0
  2  3  1  0
  2  1  1  1
  4  3  1  0
  5  4  2  0
  6  5  1  0
  7  8  1  0
  7  6  2  0
  8  9  2  0
  9  4  1  0
 10  2  1  0
 11 10  2  0
 12 10  1  0
 13 19  1  0
 13 12  1  0
 13 14  1  6
 15 14  1  0
 16 15  1  0
 17 16  1  0
 18 17  1  0
 19 24  1  0
 20 19  2  0
 22 21  1  0
 23 22  1  6
 23 25  1  0
 24 23  1  0
 25 27  2  0
 25 26  1  0
M  END
$$$$
