FKS.pdb
     RDKit          3D

 27 27  0  0  1  0  0  0  0  0999 V2000
    5.8441  -17.6948   25.7566 N   0  0  0  0  0  0  0  0  0  0  0  0
    6.2893  -16.3523   25.4739 C   0  0  1  0  0  0  0  0  0  0  0  0
    7.0445  -15.7887   26.6607 C   0  0  0  0  0  0  0  0  0  0  0  0
    6.9858  -14.3046   26.5817 C   0  0  0  0  0  0  0  0  0  0  0  0
    8.1003  -13.5599   26.2523 C   0  0  0  0  0  0  0  0  0  0  0  0
    8.0259  -12.1850   26.1841 C   0  0  0  0  0  0  0  0  0  0  0  0
    6.8493  -11.5196   26.4401 C   0  0  0  0  0  0  0  0  0  0  0  0
    5.7326  -12.2674   26.7703 C   0  0  0  0  0  0  0  0  0  0  0  0
    5.7958  -13.6494   26.8417 C   0  0  0  0  0  0  0  0  0  0  0  0
    7.2438  -16.4086   24.3410 C   0  0  0  0  0  0  0  0  0  0  0  0
    7.9681  -17.4180   24.1591 O   0  0  0  0  0  0  0  0  0  0  0  0
    7.3470  -15.3160   23.4479 N   0  0  0  0  0  0  0  0  0  0  0  0
    8.1976  -15.4388   22.2876 C   0  0  1  0  0  0  0  0  0  0  0  0
    7.8312  -14.4301   21.2241 C   0  0  0  0  0  0  0  0  0  0  0  0
    8.6059  -14.5654   19.9701 C   0  0  0  0  0  0  0  0  0  0  0  0
    8.1508  -13.5546   18.9558 C   0  0  0  0  0  0  0  0  0  0  0  0
    8.8813  -13.7937   17.6565 C   0  0  0  0  0  0  0  0  0  0  0  0
    8.4963  -12.8123   16.6477 N   0  0  0  0  0  0  0  0  0  0  0  0
    9.6095  -15.4249   22.6596 C   0  0  0  0  0  0  0  0  0  0  0  0
   10.1761  -14.5136   23.3108 O   0  0  0  0  0  0  0  0  0  0  0  0
   11.7394  -18.8450   21.8799 O   0  0  0  0  0  0  0  0  0  0  0  0
   12.2638  -18.0286   22.8806 C   0  0  0  0  0  0  0  0  0  0  0  0
   11.8128  -16.6046   22.5817 C   0  0  2  0  0  0  0  0  0  0  0  0
   10.4194  -16.5224   22.2603 N   0  0  0  0  0  0  0  0  0  0  0  0
   12.6232  -15.9823   21.5298 C   0  0  0  0  0  0  0  0  0  0  0  0
   13.9243  -15.5449   21.7720 O   0  0  0  0  0  0  0  0  0  0  0  0
   12.1421  -15.8346   20.3770 O   0  0  0  0  0  0  0  0  0  0  0  0
  2  3  1  0
  2  1  1  1
  4  3  1  0
  5  4  2  0
  6  5  1  0
  7  8  1  0
  7  6  2  0
  8  9  2  0
  9  4  1  0
 10  2  1  0
 11 10  2  0
 12 10  1  0
 13 19  1  0
 13 12  1  0
 13 14  1  6
 15 14  1  0
 16 15  1  0
 17 16  1  0
 18 17  1  0
 19 24  1  0
 20 19  2  0
 22 21  1  0
 23 22  1  6
 23 25  1  0
 24 23  1  0
 25 27  2  0
 25 26  1  0
M  END
$$$$
