NFT.pdb
     RDKit          3D

 27 27  0  0  1  0  0  0  0  0999 V2000
   18.3449  -12.7330  -22.0082 N   0  0  0  0  0  0  0  0  0  0  0  0
   19.2328  -11.8878  -21.3117 C   0  0  0  0  0  0  0  0  0  0  0  0
   20.3378  -11.6055  -21.8114 O   0  0  0  0  0  0  0  0  0  0  0  0
   18.8483  -11.3447  -19.9984 C   0  0  0  0  0  0  0  0  0  0  0  0
   19.9231  -11.6557  -18.9530 C   0  0  2  0  0  0  0  0  0  0  0  0
   19.7117  -13.0358  -18.5573 N   0  0  0  0  0  0  0  0  0  0  0  0
   19.7845  -10.7670  -17.7772 C   0  0  0  0  0  0  0  0  0  0  0  0
   18.9014  -11.0324  -16.9274 O   0  0  0  0  0  0  0  0  0  0  0  0
   20.6362   -9.6472  -17.6282 N   0  0  0  0  0  0  0  0  0  0  0  0
   20.5632   -8.7973  -16.4135 C   0  0  1  0  0  0  0  0  0  0  0  0
   21.8746   -8.9683  -15.7397 C   0  0  0  0  0  0  0  0  0  0  0  0
   22.1454   -8.1120  -14.5785 C   0  0  0  0  0  0  0  0  0  0  0  0
   22.6110   -6.8277  -14.7491 C   0  0  0  0  0  0  0  0  0  0  0  0
   22.8548   -5.9682  -13.7050 C   0  0  0  0  0  0  0  0  0  0  0  0
   22.6132   -6.4355  -12.4116 C   0  0  0  0  0  0  0  0  0  0  0  0
   22.1487   -7.7123  -12.2142 C   0  0  0  0  0  0  0  0  0  0  0  0
   21.9119   -8.5595  -13.3032 C   0  0  0  0  0  0  0  0  0  0  0  0
   20.1834   -7.4700  -16.8663 C   0  0  0  0  0  0  0  0  0  0  0  0
   20.8273   -6.8850  -17.8200 O   0  0  0  0  0  0  0  0  0  0  0  0
   16.7644   -5.9692  -17.9781 C   0  0  0  0  0  0  0  0  0  0  0  0
   17.3597   -5.0371  -16.9481 C   0  0  1  0  0  0  0  0  0  0  0  0
   16.7757   -5.3737  -15.7265 O   0  0  0  0  0  0  0  0  0  0  0  0
   18.8381   -5.3445  -16.8787 C   0  0  2  0  0  0  0  0  0  0  0  0
   19.1188   -6.6551  -16.3810 N   0  0  0  0  0  0  0  0  0  0  0  0
   19.4363   -4.3245  -16.0132 C   0  0  0  0  0  0  0  0  0  0  0  0
   19.5257   -3.0218  -16.4362 O   0  0  0  0  0  0  0  0  0  0  0  0
   19.8744   -4.6212  -14.8801 O   0  0  0  0  0  0  0  0  0  0  0  0
  2  1  1  0
  3  2  2  0
  4  2  1  0
  4  5  1  0
  5  7  1  0
  5  6  1  1
  7  8  2  0
  9 10  1  0
  9  7  1  0
 10 18  1  0
 10 11  1  6
 12 11  1  0
 12 17  2  0
 13 12  1  0
 14 13  2  0
 14 15  1  0
 15 16  2  0
 16 17  1  0
 18 24  1  0
 18 19  2  0
 21 20  1  6
 21 23  1  0
 22 21  1  0
 23 25  1  0
 23 24  1  1
 25 27  2  0
 25 26  1  0
M  END
$$$$
