NFT.pdb
     RDKit          3D

 27 27  0  0  1  0  0  0  0  0999 V2000
   19.0990  -11.5791  -22.6633 N   0  0  0  0  0  0  0  0  0  0  0  0
   19.9597  -10.9207  -21.7614 C   0  0  0  0  0  0  0  0  0  0  0  0
   21.1117  -10.6121  -22.1194 O   0  0  0  0  0  0  0  0  0  0  0  0
   19.4914  -10.6023  -20.4023 C   0  0  0  0  0  0  0  0  0  0  0  0
   20.5197  -11.0525  -19.3608 C   0  0  2  0  0  0  0  0  0  0  0  0
   20.3305  -12.4824  -19.2010 N   0  0  0  0  0  0  0  0  0  0  0  0
   20.2932  -10.3663  -18.0687 C   0  0  0  0  0  0  0  0  0  0  0  0
   19.3120  -10.7149  -17.3701 O   0  0  0  0  0  0  0  0  0  0  0  0
   21.1720   -9.3421  -17.6442 N   0  0  0  0  0  0  0  0  0  0  0  0
   20.9113   -8.5933  -16.3894 C   0  0  1  0  0  0  0  0  0  0  0  0
   22.1425   -8.7559  -15.5765 C   0  0  0  0  0  0  0  0  0  0  0  0
   22.2171   -8.0012  -14.3195 C   0  0  0  0  0  0  0  0  0  0  0  0
   22.4901   -6.6519  -14.3282 C   0  0  0  0  0  0  0  0  0  0  0  0
   22.5438   -5.8852  -13.1891 C   0  0  0  0  0  0  0  0  0  0  0  0
   22.3075   -6.5212  -11.9687 C   0  0  0  0  0  0  0  0  0  0  0  0
   22.0332   -7.8659  -11.9325 C   0  0  0  0  0  0  0  0  0  0  0  0
   21.9868   -8.6146  -13.1146 C   0  0  0  0  0  0  0  0  0  0  0  0
   20.5149   -7.2537  -16.7883 C   0  0  0  0  0  0  0  0  0  0  0  0
   21.2341   -6.5665  -17.6111 O   0  0  0  0  0  0  0  0  0  0  0  0
   17.3647   -5.7507  -18.4619 C   0  0  0  0  0  0  0  0  0  0  0  0
   17.6086   -4.9976  -17.1745 C   0  0  1  0  0  0  0  0  0  0  0  0
   16.8186   -5.6117  -16.2021 O   0  0  0  0  0  0  0  0  0  0  0  0
   19.0628   -5.1998  -16.8151 C   0  0  2  0  0  0  0  0  0  0  0  0
   19.3565   -6.5296  -16.3799 N   0  0  0  0  0  0  0  0  0  0  0  0
   19.3704   -4.2312  -15.7593 C   0  0  0  0  0  0  0  0  0  0  0  0
   19.6163   -4.6569  -14.4779 O   0  0  0  0  0  0  0  0  0  0  0  0
   19.4133   -3.0058  -16.0056 O   0  0  0  0  0  0  0  0  0  0  0  0
  2  1  1  0
  3  2  2  0
  4  2  1  0
  4  5  1  0
  5  7  1  0
  5  6  1  1
  7  8  2  0
  9 10  1  0
  9  7  1  0
 10 18  1  0
 10 11  1  1
 12 11  1  0
 12 17  2  0
 13 12  1  0
 14 13  2  0
 14 15  1  0
 15 16  2  0
 16 17  1  0
 18 24  1  0
 18 19  2  0
 21 20  1  6
 21 23  1  0
 22 21  1  0
 23 25  1  0
 23 24  1  1
 25 27  2  0
 25 26  1  0
M  END
$$$$
