KTW.pdb
     RDKit          3D

 31 32  0  0  1  0  0  0  0  0999 V2000
    9.7034  -15.9952   18.3934 N   0  0  0  0  0  0  0  0  0  0  0  0
    8.9070  -15.1882   19.2593 C   0  0  1  0  0  0  0  0  0  0  0  0
    7.6016  -14.8011   18.6138 C   0  0  0  0  0  0  0  0  0  0  0  0
    7.7334  -14.5787   17.1364 C   0  0  0  0  0  0  0  0  0  0  0  0
    8.1095  -13.1824   16.7594 C   0  0  0  0  0  0  0  0  0  0  0  0
    7.4632  -12.6916   15.4888 C   0  0  0  0  0  0  0  0  0  0  0  0
    7.4615  -13.7240   14.4709 N   0  0  0  0  0  0  0  0  0  0  0  0
    8.7013  -15.8728   20.5612 C   0  0  0  0  0  0  0  0  0  0  0  0
    7.7097  -15.6178   21.2959 O   0  0  0  0  0  0  0  0  0  0  0  0
   10.0917  -19.7041   20.9221 C   0  0  0  0  0  0  0  0  0  0  0  0
   10.4159  -18.8349   22.1149 C   0  0  1  0  0  0  0  0  0  0  0  0
   11.7454  -18.4406   21.9858 O   0  0  0  0  0  0  0  0  0  0  0  0
    9.5286  -17.6223   22.1936 C   0  0  2  0  0  0  0  0  0  0  0  0
    9.6516  -16.8499   21.0007 N   0  0  0  0  0  0  0  0  0  0  0  0
    9.9795  -16.8392   23.4020 C   0  0  0  0  0  0  0  0  0  0  0  0
   10.6684  -15.8051   23.2325 O   0  0  0  0  0  0  0  0  0  0  0  0
    9.6415  -17.2471   24.7156 N   0  0  0  0  0  0  0  0  0  0  0  0
   10.0236  -16.4555   25.8756 C   0  0  1  0  0  0  0  0  0  0  0  0
    9.7535  -15.0281   25.6068 C   0  0  0  0  0  0  0  0  0  0  0  0
    8.3577  -14.6220   25.5179 C   0  0  0  0  0  0  0  0  0  0  0  0
    7.2725  -15.4494   25.1890 C   0  0  0  0  0  0  0  0  0  0  0  0
    6.1893  -14.6768   25.1956 N   0  0  0  0  0  0  0  0  0  0  0  0
    6.5076  -13.4100   25.5070 C   0  0  0  0  0  0  0  0  0  0  0  0
    5.7311  -12.2720   25.6464 C   0  0  0  0  0  0  0  0  0  0  0  0
    6.2700  -11.0533   25.9925 C   0  0  0  0  0  0  0  0  0  0  0  0
    7.6364  -10.9931   26.2020 C   0  0  0  0  0  0  0  0  0  0  0  0
    8.4243  -12.1086   26.0687 C   0  0  0  0  0  0  0  0  0  0  0  0
    7.8884  -13.3328   25.7213 C   0  0  0  0  0  0  0  0  0  0  0  0
    9.5238  -17.0483   27.1061 C   0  0  0  0  0  0  0  0  0  0  0  0
    8.8118  -18.2668   27.0130 O   0  0  0  0  0  0  0  0  0  0  0  0
    9.6436  -16.6123   28.2663 O   0  0  0  0  0  0  0  0  0  0  0  0
  2  1  1  6
  3  2  1  0
  3  4  1  0
  5  4  1  0
  6  5  1  0
  7  6  1  0
  8  9  2  0
  8  2  1  0
 11 10  1  6
 11 13  1  0
 12 11  1  0
 13 14  1  6
 14  8  1  0
 15 13  1  0
 15 17  1  0
 16 15  2  0
 18 17  1  0
 18 29  1  0
 18 19  1  6
 19 20  1  0
 20 28  1  0
 21 20  2  0
 21 22  1  0
 22 23  1  0
 23 24  2  0
 24 25  1  0
 26 25  2  0
 27 26  1  0
 28 27  2  0
 28 23  1  0
 29 30  1  0
 31 29  2  0
M  END
$$$$
