KTW.pdb
     RDKit          3D

 31 32  0  0  1  0  0  0  0  0999 V2000
    9.3022  -13.1614   19.7887 N   0  0  0  0  0  0  0  0  0  0  0  0
    7.9937  -13.7255   19.8601 C   0  0  1  0  0  0  0  0  0  0  0  0
    7.4234  -13.9822   18.4892 C   0  0  0  0  0  0  0  0  0  0  0  0
    8.4742  -14.3707   17.4919 C   0  0  0  0  0  0  0  0  0  0  0  0
    7.9577  -14.5620   16.1027 C   0  0  0  0  0  0  0  0  0  0  0  0
    9.0281  -14.8518   15.0814 C   0  0  0  0  0  0  0  0  0  0  0  0
    8.4578  -15.0157   13.7586 N   0  0  0  0  0  0  0  0  0  0  0  0
    8.0042  -14.9532   20.6961 C   0  0  0  0  0  0  0  0  0  0  0  0
    6.9893  -15.6927   20.8019 O   0  0  0  0  0  0  0  0  0  0  0  0
   10.2101  -17.8954   20.3525 C   0  0  0  0  0  0  0  0  0  0  0  0
   10.4798  -17.3164   21.7219 C   0  0  1  0  0  0  0  0  0  0  0  0
   11.6301  -16.5381   21.6187 O   0  0  0  0  0  0  0  0  0  0  0  0
    9.3362  -16.4747   22.2193 C   0  0  2  0  0  0  0  0  0  0  0  0
    9.1957  -15.3124   21.4046 N   0  0  0  0  0  0  0  0  0  0  0  0
    9.6633  -16.1075   23.6459 C   0  0  0  0  0  0  0  0  0  0  0  0
   10.2589  -15.0274   23.8730 O   0  0  0  0  0  0  0  0  0  0  0  0
    9.3127  -16.9538   24.7261 N   0  0  0  0  0  0  0  0  0  0  0  0
    9.6817  -16.6253   26.0951 C   0  0  1  0  0  0  0  0  0  0  0  0
    8.4598  -16.4938   26.9152 C   0  0  0  0  0  0  0  0  0  0  0  0
    7.4542  -15.5436   26.4603 C   0  0  0  0  0  0  0  0  0  0  0  0
    6.2498  -15.8578   25.8112 C   0  0  0  0  0  0  0  0  0  0  0  0
    5.6460  -14.7015   25.5491 N   0  0  0  0  0  0  0  0  0  0  0  0
    6.3825  -13.6676   25.9871 C   0  0  0  0  0  0  0  0  0  0  0  0
    6.1651  -12.3005   25.9520 C   0  0  0  0  0  0  0  0  0  0  0  0
    7.0619  -11.4007   26.4823 C   0  0  0  0  0  0  0  0  0  0  0  0
    8.2106  -11.9076   27.0636 C   0  0  0  0  0  0  0  0  0  0  0  0
    8.4459  -13.2587   27.1086 C   0  0  0  0  0  0  0  0  0  0  0  0
    7.5497  -14.1650   26.5777 C   0  0  0  0  0  0  0  0  0  0  0  0
   10.7607  -17.4775   26.5692 C   0  0  0  0  0  0  0  0  0  0  0  0
   11.3309  -17.1849   27.8300 O   0  0  0  0  0  0  0  0  0  0  0  0
   11.2643  -18.4610   25.9950 O   0  0  0  0  0  0  0  0  0  0  0  0
  2  1  1  6
  3  2  1  0
  3  4  1  0
  5  4  1  0
  6  5  1  0
  7  6  1  0
  8  9  2  0
  8  2  1  0
 11 10  1  6
 11 13  1  0
 12 11  1  0
 13 14  1  6
 14  8  1  0
 15 13  1  0
 15 17  1  0
 16 15  2  0
 18 17  1  0
 18 29  1  0
 18 19  1  1
 19 20  1  0
 20 28  1  0
 21 20  2  0
 21 22  1  0
 22 23  1  0
 23 24  2  0
 24 25  1  0
 26 25  2  0
 27 26  1  0
 28 27  2  0
 28 23  1  0
 29 30  1  0
 31 29  2  0
M  END
$$$$
