KTW.pdb
     RDKit          3D

 31 32  0  0  1  0  0  0  0  0999 V2000
   10.1110  -16.5971   17.3368 N   0  0  0  0  0  0  0  0  0  0  0  0
    9.6159  -15.7818   18.3977 C   0  0  1  0  0  0  0  0  0  0  0  0
    8.5568  -14.8246   17.9155 C   0  0  0  0  0  0  0  0  0  0  0  0
    8.7578  -14.4158   16.4865 C   0  0  0  0  0  0  0  0  0  0  0  0
    8.0538  -13.1534   16.1069 C   0  0  0  0  0  0  0  0  0  0  0  0
    8.2235  -12.7639   14.6604 C   0  0  0  0  0  0  0  0  0  0  0  0
    7.6148  -13.7425   13.7808 N   0  0  0  0  0  0  0  0  0  0  0  0
    9.1312  -16.6280   19.5180 C   0  0  0  0  0  0  0  0  0  0  0  0
    8.2963  -17.5545   19.3370 O   0  0  0  0  0  0  0  0  0  0  0  0
    9.4714  -19.2278   20.3931 C   0  0  0  0  0  0  0  0  0  0  0  0
   10.0313  -18.6125   21.6546 C   0  0  1  0  0  0  0  0  0  0  0  0
   11.4057  -18.4812   21.4718 O   0  0  0  0  0  0  0  0  0  0  0  0
    9.4243  -17.2679   21.9500 C   0  0  2  0  0  0  0  0  0  0  0  0
    9.6207  -16.3904   20.8427 N   0  0  0  0  0  0  0  0  0  0  0  0
   10.1131  -16.7496   23.1885 C   0  0  0  0  0  0  0  0  0  0  0  0
   11.1993  -16.1347   23.0663 O   0  0  0  0  0  0  0  0  0  0  0  0
    9.5598  -16.9430   24.4779 N   0  0  0  0  0  0  0  0  0  0  0  0
   10.2148  -16.4213   25.6683 C   0  0  1  0  0  0  0  0  0  0  0  0
    9.7558  -15.0390   25.9157 C   0  0  0  0  0  0  0  0  0  0  0  0
    8.3484  -14.8554   26.2424 C   0  0  0  0  0  0  0  0  0  0  0  0
    7.3545  -15.8462   26.2147 C   0  0  0  0  0  0  0  0  0  0  0  0
    6.2140  -15.2505   26.5537 N   0  0  0  0  0  0  0  0  0  0  0  0
    6.4107  -13.9447   26.7971 C   0  0  0  0  0  0  0  0  0  0  0  0
    5.5425  -12.9384   27.1858 C   0  0  0  0  0  0  0  0  0  0  0  0
    5.9652  -11.6454   27.3977 C   0  0  0  0  0  0  0  0  0  0  0  0
    7.3080  -11.3710   27.2085 C   0  0  0  0  0  0  0  0  0  0  0  0
    8.1852  -12.3531   26.8229 C   0  0  0  0  0  0  0  0  0  0  0  0
    7.7660  -13.6511   26.6087 C   0  0  0  0  0  0  0  0  0  0  0  0
   10.1727  -17.3840   26.7577 C   0  0  0  0  0  0  0  0  0  0  0  0
   10.8788  -17.0740   27.9434 O   0  0  0  0  0  0  0  0  0  0  0  0
    9.5789  -18.4781   26.7864 O   0  0  0  0  0  0  0  0  0  0  0  0
  2  1  1  6
  3  2  1  0
  3  4  1  0
  5  4  1  0
  6  5  1  0
  7  6  1  0
  8  9  2  0
  8  2  1  0
 11 10  1  6
 11 13  1  0
 12 11  1  0
 13 14  1  6
 14  8  1  0
 15 13  1  0
 15 17  1  0
 16 15  2  0
 18 17  1  0
 18 29  1  0
 18 19  1  1
 19 20  1  0
 20 28  1  0
 21 20  2  0
 21 22  1  0
 22 23  1  0
 23 24  2  0
 24 25  1  0
 26 25  2  0
 27 26  1  0
 28 27  2  0
 28 23  1  0
 29 30  1  0
 31 29  2  0
M  END
$$$$
