KTW.pdb
     RDKit          3D

 31 32  0  0  1  0  0  0  0  0999 V2000
    9.8883  -13.6757   18.8449 N   0  0  0  0  0  0  0  0  0  0  0  0
    8.5282  -13.5643   19.2607 C   0  0  1  0  0  0  0  0  0  0  0  0
    7.5963  -13.4309   18.0842 C   0  0  0  0  0  0  0  0  0  0  0  0
    8.2928  -13.6360   16.7718 C   0  0  0  0  0  0  0  0  0  0  0  0
    7.4493  -14.2937   15.7281 C   0  0  0  0  0  0  0  0  0  0  0  0
    8.1365  -14.4634   14.3970 C   0  0  0  0  0  0  0  0  0  0  0  0
    7.2879  -15.1694   13.4571 N   0  0  0  0  0  0  0  0  0  0  0  0
    8.1589  -14.7069   20.1350 C   0  0  0  0  0  0  0  0  0  0  0  0
    6.9699  -14.9031   20.5040 O   0  0  0  0  0  0  0  0  0  0  0  0
    8.9945  -18.3979   19.6527 C   0  0  0  0  0  0  0  0  0  0  0  0
    9.6081  -17.9449   20.9572 C   0  0  1  0  0  0  0  0  0  0  0  0
   10.9605  -17.7154   20.7164 O   0  0  0  0  0  0  0  0  0  0  0  0
    8.9632  -16.6920   21.4847 C   0  0  2  0  0  0  0  0  0  0  0  0
    9.1758  -15.6140   20.5752 N   0  0  0  0  0  0  0  0  0  0  0  0
    9.6009  -16.4130   22.8235 C   0  0  0  0  0  0  0  0  0  0  0  0
   10.4667  -15.5095   22.9067 O   0  0  0  0  0  0  0  0  0  0  0  0
    9.2426  -17.1473   23.9805 N   0  0  0  0  0  0  0  0  0  0  0  0
    9.7181  -16.7593   25.3002 C   0  0  1  0  0  0  0  0  0  0  0  0
    9.4983  -15.3114   25.4956 C   0  0  0  0  0  0  0  0  0  0  0  0
    8.1269  -14.8714   25.7110 C   0  0  0  0  0  0  0  0  0  0  0  0
    6.9692  -15.6433   25.5253 C   0  0  0  0  0  0  0  0  0  0  0  0
    5.9361  -14.8534   25.8061 N   0  0  0  0  0  0  0  0  0  0  0  0
    6.3541  -13.6272   26.1597 C   0  0  0  0  0  0  0  0  0  0  0  0
    5.6605  -12.4918   26.5433 C   0  0  0  0  0  0  0  0  0  0  0  0
    6.2998  -11.3212   26.8843 C   0  0  0  0  0  0  0  0  0  0  0  0
    7.6824  -11.3076   26.8329 C   0  0  0  0  0  0  0  0  0  0  0  0
    8.3891  -12.4213   26.4550 C   0  0  0  0  0  0  0  0  0  0  0  0
    7.7524  -13.5974   26.1116 C   0  0  0  0  0  0  0  0  0  0  0  0
    9.2557  -17.6867   26.3207 C   0  0  0  0  0  0  0  0  0  0  0  0
    9.8117  -17.5771   27.6166 O   0  0  0  0  0  0  0  0  0  0  0  0
    8.4089  -18.5919   26.2016 O   0  0  0  0  0  0  0  0  0  0  0  0
  2  1  1  6
  3  2  1  0
  3  4  1  0
  5  4  1  0
  6  5  1  0
  7  6  1  0
  8  9  2  0
  8  2  1  0
 11 10  1  6
 11 13  1  0
 12 11  1  0
 13 14  1  6
 14  8  1  0
 15 13  1  0
 15 17  1  0
 16 15  2  0
 18 17  1  0
 18 29  1  0
 18 19  1  1
 19 20  1  0
 20 28  1  0
 21 20  2  0
 21 22  1  0
 22 23  1  0
 23 24  2  0
 24 25  1  0
 26 25  2  0
 27 26  1  0
 28 27  2  0
 28 23  1  0
 29 30  1  0
 31 29  2  0
M  END
$$$$
