KTW.pdb
     RDKit          3D

 31 32  0  0  1  0  0  0  0  0999 V2000
   10.3176  -13.7247   18.9202 N   0  0  0  0  0  0  0  0  0  0  0  0
    9.0824  -13.3766   19.5434 C   0  0  1  0  0  0  0  0  0  0  0  0
    8.0474  -12.9587   18.5312 C   0  0  0  0  0  0  0  0  0  0  0  0
    8.2594  -13.6005   17.1922 C   0  0  0  0  0  0  0  0  0  0  0  0
    7.2014  -14.5849   16.8117 C   0  0  0  0  0  0  0  0  0  0  0  0
    7.3470  -15.1379   15.4167 C   0  0  0  0  0  0  0  0  0  0  0  0
    8.7435  -15.2880   15.0572 N   0  0  0  0  0  0  0  0  0  0  0  0
    8.6029  -14.4908   20.4005 C   0  0  0  0  0  0  0  0  0  0  0  0
    7.4296  -14.5175   20.8596 O   0  0  0  0  0  0  0  0  0  0  0  0
    9.1948  -18.3461   19.8459 C   0  0  0  0  0  0  0  0  0  0  0  0
    9.7898  -17.9080   21.1640 C   0  0  1  0  0  0  0  0  0  0  0  0
   11.1610  -17.7646   20.9675 O   0  0  0  0  0  0  0  0  0  0  0  0
    9.2046  -16.6095   21.6491 C   0  0  2  0  0  0  0  0  0  0  0  0
    9.4923  -15.5672   20.7188 N   0  0  0  0  0  0  0  0  0  0  0  0
    9.8319  -16.3325   22.9932 C   0  0  0  0  0  0  0  0  0  0  0  0
   10.9249  -15.7191   23.0378 O   0  0  0  0  0  0  0  0  0  0  0  0
    9.2139  -16.7493   24.1976 N   0  0  0  0  0  0  0  0  0  0  0  0
    9.8474  -16.5280   25.4890 C   0  0  1  0  0  0  0  0  0  0  0  0
    9.5669  -15.1508   25.9444 C   0  0  0  0  0  0  0  0  0  0  0  0
    8.1745  -14.7240   25.9495 C   0  0  0  0  0  0  0  0  0  0  0  0
    7.0555  -15.5420   25.7278 C   0  0  0  0  0  0  0  0  0  0  0  0
    5.9873  -14.7515   25.7938 N   0  0  0  0  0  0  0  0  0  0  0  0
    6.3468  -13.4819   26.0434 C   0  0  0  0  0  0  0  0  0  0  0  0
    5.5999  -12.3277   26.2079 C   0  0  0  0  0  0  0  0  0  0  0  0
    6.1813  -11.1090   26.4767 C   0  0  0  0  0  0  0  0  0  0  0  0
    7.5604  -11.0659   26.5805 C   0  0  0  0  0  0  0  0  0  0  0  0
    8.3194  -12.1977   26.4205 C   0  0  0  0  0  0  0  0  0  0  0  0
    7.7409  -13.4219   26.1503 C   0  0  0  0  0  0  0  0  0  0  0  0
    9.5948  -17.6360   26.3967 C   0  0  0  0  0  0  0  0  0  0  0  0
   10.2840  -17.6511   27.6317 O   0  0  0  0  0  0  0  0  0  0  0  0
    8.8284  -18.6025   26.2260 O   0  0  0  0  0  0  0  0  0  0  0  0
  2  1  1  6
  3  2  1  0
  3  4  1  0
  5  4  1  0
  6  5  1  0
  7  6  1  0
  8  9  2  0
  8  2  1  0
 11 10  1  6
 11 13  1  0
 12 11  1  0
 13 14  1  6
 14  8  1  0
 15 13  1  0
 15 17  1  0
 16 15  2  0
 18 17  1  0
 18 29  1  0
 18 19  1  1
 19 20  1  0
 20 28  1  0
 21 20  2  0
 21 22  1  0
 22 23  1  0
 23 24  2  0
 24 25  1  0
 26 25  2  0
 27 26  1  0
 28 27  2  0
 28 23  1  0
 29 30  1  0
 31 29  2  0
M  END
$$$$
