RYR.pdb
     RDKit          3D

 35 35  0  0  1  0  0  0  0  0999 V2000
   12.3790  -15.3141   15.5430 N   0  0  0  0  0  0  0  0  0  0  0  0
   11.1421  -16.0056   15.4861 C   0  0  0  0  0  0  0  0  0  0  0  0
   10.1243  -15.6006   14.8280 N   0  0  0  0  0  0  0  0  0  0  0  0
   11.0558  -17.2429   16.2132 N   0  0  0  0  0  0  0  0  0  0  0  0
   10.0193  -17.4254   17.2192 C   0  0  0  0  0  0  0  0  0  0  0  0
   10.4791  -18.1748   18.4152 C   0  0  0  0  0  0  0  0  0  0  0  0
   10.8195  -17.3699   19.6351 C   0  0  0  0  0  0  0  0  0  0  0  0
   10.0858  -17.8254   20.8778 C   0  0  2  0  0  0  0  0  0  0  0  0
    8.7826  -18.3534   20.5367 N   0  0  0  0  0  0  0  0  0  0  0  0
    9.8826  -16.6709   21.8453 C   0  0  0  0  0  0  0  0  0  0  0  0
   10.9200  -16.0579   22.2055 O   0  0  0  0  0  0  0  0  0  0  0  0
    9.1899  -15.9969   14.7836 O   0  0  0  0  0  0  0  0  0  0  0  0
    8.2470  -12.9624   17.1878 C   0  0  0  0  0  0  0  0  0  0  0  0
    7.9849  -13.2650   18.5332 C   0  0  0  0  0  0  0  0  0  0  0  0
    8.4565  -12.4897   19.5666 C   0  0  0  0  0  0  0  0  0  0  0  0
    8.1778  -12.8278   20.8804 C   0  0  0  0  0  0  0  0  0  0  0  0
    7.4183  -13.9528   21.1841 C   0  0  0  0  0  0  0  0  0  0  0  0
    7.2040  -14.3317   22.5770 C   0  0  2  0  0  0  0  0  0  0  0  0
    8.3117  -15.1649   23.2225 N   0  0  0  0  0  0  0  0  0  0  0  0
    8.6295  -16.2963   22.3201 C   0  0  0  0  0  0  0  0  0  0  0  0
    7.9727  -15.7322   24.5164 O   0  0  0  0  0  0  0  0  0  0  0  0
    6.7216  -15.7885   24.8710 C   0  0  0  0  0  0  0  0  0  0  0  0
    6.9632  -14.6969   20.1371 C   0  0  0  0  0  0  0  0  0  0  0  0
    7.2249  -14.3865   18.8126 N   0  0  0  0  0  0  0  0  0  0  0  0
    4.6378  -22.9763   24.3533 C   0  0  0  0  0  0  0  0  0  0  0  0
    5.9732  -22.6166   24.6356 N   0  0  0  0  0  0  0  0  0  0  0  0
    6.9176  -23.4320   24.3184 N   0  0  0  0  0  0  0  0  0  0  0  0
    6.3131  -21.3727   25.2696 C   0  0  0  0  0  0  0  0  0  0  0  0
    7.7127  -21.1201   25.5238 C   0  0  0  0  0  0  0  0  0  0  0  0
    8.0006  -19.8723   26.3016 C   0  0  0  0  0  0  0  0  0  0  0  0
    8.2493  -18.6587   25.4494 C   0  0  1  0  0  0  0  0  0  0  0  0
    8.4797  -17.4137   26.2991 N   0  0  0  0  0  0  0  0  0  0  0  0
    8.8648  -16.2549   25.4795 C   0  0  0  0  0  0  0  0  0  0  0  0
    9.5283  -17.6508   27.2937 O   0  0  0  0  0  0  0  0  0  0  0  0
    9.3533  -18.5102   28.1972 O   0  0  0  0  0  0  0  0  0  0  0  0
  2  3  2  0
  2  1  1  0
  4  2  1  0
  5  4  1  0
  6  5  1  0
  7  8  1  0
  7  6  1  0
  8 10  1  0
  8  9  1  6
 10 11  2  0
 12 13  1  0
 13 14  2  0
 13 23  1  0
 14 15  1  0
 15 16  2  0
 16 17  1  0
 18 17  1  6
 19 10  1  0
 19 18  1  0
 20 18  1  0
 20 32  1  0
 21 20  2  0
 22 16  1  0
 23 22  2  0
 24 25  1  0
 25 27  1  0
 26 25  2  0
 27 28  1  0
 29 28  1  0
 30 29  1  0
 31 33  1  0
 31 32  1  0
 31 30  1  6
 33 35  1  0
 34 33  2  0
M  END
$$$$
