RYR.pdb
     RDKit          3D

 35 35  0  0  1  0  0  0  0  0999 V2000
    9.6247  -14.2908   14.6506 N   0  0  0  0  0  0  0  0  0  0  0  0
    8.2560  -13.9289   14.7355 C   0  0  0  0  0  0  0  0  0  0  0  0
    7.7824  -12.8153   14.3248 N   0  0  0  0  0  0  0  0  0  0  0  0
    7.3632  -14.8965   15.3131 N   0  0  0  0  0  0  0  0  0  0  0  0
    7.2814  -15.0392   16.7597 C   0  0  0  0  0  0  0  0  0  0  0  0
    7.0668  -13.7542   17.4712 C   0  0  0  0  0  0  0  0  0  0  0  0
    6.8671  -13.8223   18.9569 C   0  0  0  0  0  0  0  0  0  0  0  0
    7.5560  -15.0059   19.6007 C   0  0  2  0  0  0  0  0  0  0  0  0
    6.5903  -16.0134   19.9825 N   0  0  0  0  0  0  0  0  0  0  0  0
    8.3095  -14.5843   20.8516 C   0  0  0  0  0  0  0  0  0  0  0  0
    9.3750  -13.9415   20.6691 O   0  0  0  0  0  0  0  0  0  0  0  0
    6.8285  -12.4686   14.3692 O   0  0  0  0  0  0  0  0  0  0  0  0
    9.3183  -13.6851   29.7392 C   0  0  0  0  0  0  0  0  0  0  0  0
    8.8203  -13.8729   28.4404 C   0  0  0  0  0  0  0  0  0  0  0  0
    8.6969  -15.1196   27.8733 C   0  0  0  0  0  0  0  0  0  0  0  0
    8.2047  -15.2588   26.5862 C   0  0  0  0  0  0  0  0  0  0  0  0
    7.8255  -14.1473   25.8411 C   0  0  0  0  0  0  0  0  0  0  0  0
    7.3837  -14.3132   24.4602 C   0  0  1  0  0  0  0  0  0  0  0  0
    8.4903  -14.4824   23.4187 N   0  0  0  0  0  0  0  0  0  0  0  0
    7.8654  -14.8826   22.1361 C   0  0  0  0  0  0  0  0  0  0  0  0
    9.4841  -15.4912   23.7433 O   0  0  0  0  0  0  0  0  0  0  0  0
    9.1291  -16.7434   23.7571 C   0  0  0  0  0  0  0  0  0  0  0  0
    7.9569  -12.9272   26.4337 C   0  0  0  0  0  0  0  0  0  0  0  0
    8.4461  -12.7541   27.7181 N   0  0  0  0  0  0  0  0  0  0  0  0
   17.9430  -16.2958   21.8075 C   0  0  0  0  0  0  0  0  0  0  0  0
   17.7953  -16.9143   23.0678 N   0  0  0  0  0  0  0  0  0  0  0  0
   18.8414  -17.3702   23.6637 N   0  0  0  0  0  0  0  0  0  0  0  0
   16.5154  -17.0563   23.7053 C   0  0  0  0  0  0  0  0  0  0  0  0
   15.3499  -17.0816   22.8518 C   0  0  0  0  0  0  0  0  0  0  0  0
   14.0475  -17.2864   23.5634 C   0  0  0  0  0  0  0  0  0  0  0  0
   13.1127  -16.1110   23.4882 C   0  0  2  0  0  0  0  0  0  0  0  0
   11.7738  -16.4153   24.1513 N   0  0  0  0  0  0  0  0  0  0  0  0
   10.8453  -15.2786   24.0573 C   0  0  0  0  0  0  0  0  0  0  0  0
   11.9588  -16.7509   25.5648 O   0  0  0  0  0  0  0  0  0  0  0  0
   11.8416  -15.8559   26.4427 O   0  0  0  0  0  0  0  0  0  0  0  0
  2  3  2  0
  2  1  1  0
  4  2  1  0
  5  4  1  0
  6  5  1  0
  7  8  1  0
  7  6  1  0
  8 10  1  0
  8  9  1  1
 10 11  2  0
 12 13  1  0
 13 14  2  0
 13 23  1  0
 14 15  1  0
 15 16  2  0
 16 17  1  0
 18 17  1  6
 19 10  1  0
 19 18  1  0
 20 18  1  0
 20 32  1  0
 21 20  2  0
 22 16  1  0
 23 22  2  0
 24 25  1  0
 25 27  1  0
 26 25  2  0
 27 28  1  0
 29 28  1  0
 30 29  1  0
 31 33  1  0
 31 32  1  0
 31 30  1  6
 33 35  1  0
 34 33  2  0
M  END
$$$$
