RYR.pdb
     RDKit          3D

 35 35  0  0  1  0  0  0  0  0999 V2000
    8.1526  -17.2188   14.3333 N   0  0  0  0  0  0  0  0  0  0  0  0
    8.5892  -18.1795   15.2809 C   0  0  0  0  0  0  0  0  0  0  0  0
    9.2127  -19.2530   14.9778 N   0  0  0  0  0  0  0  0  0  0  0  0
    8.3113  -17.9004   16.6636 N   0  0  0  0  0  0  0  0  0  0  0  0
    7.4979  -16.7480   17.0246 C   0  0  0  0  0  0  0  0  0  0  0  0
    8.2049  -15.4518   16.8717 C   0  0  0  0  0  0  0  0  0  0  0  0
    8.8452  -14.8752   18.1003 C   0  0  0  0  0  0  0  0  0  0  0  0
    7.9942  -13.8274   18.7843 C   0  0  2  0  0  0  0  0  0  0  0  0
    8.0591  -12.5708   18.0699 N   0  0  0  0  0  0  0  0  0  0  0  0
    8.4708  -13.5807   20.2063 C   0  0  0  0  0  0  0  0  0  0  0  0
    9.4607  -12.8158   20.3363 O   0  0  0  0  0  0  0  0  0  0  0  0
    9.5652  -19.9842   15.5887 O   0  0  0  0  0  0  0  0  0  0  0  0
    7.5305  -12.5394   28.9874 C   0  0  0  0  0  0  0  0  0  0  0  0
    7.3518  -12.7863   27.6172 C   0  0  0  0  0  0  0  0  0  0  0  0
    7.2625  -14.0596   27.1052 C   0  0  0  0  0  0  0  0  0  0  0  0
    7.0907  -14.2578   25.7452 C   0  0  0  0  0  0  0  0  0  0  0  0
    7.0047  -13.1800   24.8703 C   0  0  0  0  0  0  0  0  0  0  0  0
    6.9022  -13.4153   23.4337 C   0  0  1  0  0  0  0  0  0  0  0  0
    8.1742  -13.9088   22.7434 N   0  0  0  0  0  0  0  0  0  0  0  0
    7.8628  -14.1585   21.3165 C   0  0  0  0  0  0  0  0  0  0  0  0
    8.7222  -15.1411   23.2835 O   0  0  0  0  0  0  0  0  0  0  0  0
    8.8965  -15.2425   24.5695 C   0  0  0  0  0  0  0  0  0  0  0  0
    7.0930  -11.9320   25.4105 C   0  0  0  0  0  0  0  0  0  0  0  0
    7.2655  -11.7000   26.7653 N   0  0  0  0  0  0  0  0  0  0  0  0
   15.4007  -14.9899   20.7067 C   0  0  0  0  0  0  0  0  0  0  0  0
   14.9354  -14.8164   19.3854 N   0  0  0  0  0  0  0  0  0  0  0  0
   15.6550  -14.1450   18.5555 N   0  0  0  0  0  0  0  0  0  0  0  0
   13.6831  -15.3601   18.9374 C   0  0  0  0  0  0  0  0  0  0  0  0
   13.0031  -16.2748   19.8252 C   0  0  0  0  0  0  0  0  0  0  0  0
   12.5847  -15.6895   21.1394 C   0  0  0  0  0  0  0  0  0  0  0  0
   11.0980  -15.5287   21.2969 C   0  0  1  0  0  0  0  0  0  0  0  0
   10.5226  -16.5528   22.2692 N   0  0  0  0  0  0  0  0  0  0  0  0
    9.1046  -16.2940   22.5614 C   0  0  0  0  0  0  0  0  0  0  0  0
   11.2674  -16.5470   23.5302 O   0  0  0  0  0  0  0  0  0  0  0  0
   12.3913  -17.1106   23.5977 O   0  0  0  0  0  0  0  0  0  0  0  0
  2  3  2  0
  2  1  1  0
  4  2  1  0
  5  4  1  0
  6  5  1  0
  7  8  1  0
  7  6  1  0
  8 10  1  0
  8  9  1  6
 10 11  2  0
 12 13  1  0
 13 14  2  0
 13 23  1  0
 14 15  1  0
 15 16  2  0
 16 17  1  0
 18 17  1  6
 19 10  1  0
 19 18  1  0
 20 18  1  0
 20 32  1  0
 21 20  2  0
 22 16  1  0
 23 22  2  0
 24 25  1  0
 25 27  1  0
 26 25  2  0
 27 28  1  0
 29 28  1  0
 30 29  1  0
 31 33  1  0
 31 32  1  0
 31 30  1  6
 33 35  1  0
 34 33  2  0
M  END
$$$$
