RYR.pdb
     RDKit          3D

 35 35  0  0  1  0  0  0  0  0999 V2000
   11.9938  -19.3249   15.9659 N   0  0  0  0  0  0  0  0  0  0  0  0
   10.7455  -19.9463   15.7073 C   0  0  0  0  0  0  0  0  0  0  0  0
   10.3791  -20.3675   14.5578 N   0  0  0  0  0  0  0  0  0  0  0  0
    9.8584  -20.1118   16.8266 N   0  0  0  0  0  0  0  0  0  0  0  0
   10.1056  -19.3871   18.0649 C   0  0  0  0  0  0  0  0  0  0  0  0
    9.6195  -17.9848   18.0386 C   0  0  0  0  0  0  0  0  0  0  0  0
   10.0252  -17.1008   19.1814 C   0  0  0  0  0  0  0  0  0  0  0  0
    9.5955  -17.6316   20.5317 C   0  0  2  0  0  0  0  0  0  0  0  0
    8.2005  -18.0151   20.5094 N   0  0  0  0  0  0  0  0  0  0  0  0
    9.7724  -16.5785   21.6134 C   0  0  0  0  0  0  0  0  0  0  0  0
   10.9539  -16.2193   21.8519 O   0  0  0  0  0  0  0  0  0  0  0  0
    9.4943  -20.7813   14.2784 O   0  0  0  0  0  0  0  0  0  0  0  0
    6.4044  -10.9317   27.8981 C   0  0  0  0  0  0  0  0  0  0  0  0
    6.6848  -11.7617   26.8014 C   0  0  0  0  0  0  0  0  0  0  0  0
    7.4108  -11.3274   25.7172 C   0  0  0  0  0  0  0  0  0  0  0  0
    7.6602  -12.1789   24.6538 C   0  0  0  0  0  0  0  0  0  0  0  0
    7.1854  -13.4863   24.6575 C   0  0  0  0  0  0  0  0  0  0  0  0
    7.3942  -14.3395   23.4922 C   0  0  1  0  0  0  0  0  0  0  0  0
    8.7609  -15.0184   23.3953 N   0  0  0  0  0  0  0  0  0  0  0  0
    8.7028  -16.0298   22.3140 C   0  0  0  0  0  0  0  0  0  0  0  0
    9.1869  -15.7063   24.6019 O   0  0  0  0  0  0  0  0  0  0  0  0
    8.5762  -16.8013   24.9515 C   0  0  0  0  0  0  0  0  0  0  0  0
    6.4730  -13.8860   25.7483 C   0  0  0  0  0  0  0  0  0  0  0  0
    6.2057  -13.0591   26.8271 N   0  0  0  0  0  0  0  0  0  0  0  0
    9.5503  -20.3767   29.9673 C   0  0  0  0  0  0  0  0  0  0  0  0
   10.8772  -20.1067   30.3660 N   0  0  0  0  0  0  0  0  0  0  0  0
   11.3564  -20.7214   31.3906 N   0  0  0  0  0  0  0  0  0  0  0  0
   11.7091  -19.1650   29.6690 C   0  0  0  0  0  0  0  0  0  0  0  0
   11.2361  -18.6821   28.3921 C   0  0  0  0  0  0  0  0  0  0  0  0
   12.1555  -17.7258   27.6959 C   0  0  0  0  0  0  0  0  0  0  0  0
   11.6046  -17.1632   26.4149 C   0  0  1  0  0  0  0  0  0  0  0  0
   10.5189  -16.1256   26.6787 N   0  0  0  0  0  0  0  0  0  0  0  0
   10.2250  -15.3240   25.4812 C   0  0  0  0  0  0  0  0  0  0  0  0
   10.9170  -15.2209   27.7594 O   0  0  0  0  0  0  0  0  0  0  0  0
   11.4390  -14.1081   27.4859 O   0  0  0  0  0  0  0  0  0  0  0  0
  2  3  2  0
  2  1  1  0
  4  2  1  0
  5  4  1  0
  6  5  1  0
  7  8  1  0
  7  6  1  0
  8 10  1  0
  8  9  1  6
 10 11  2  0
 12 13  1  0
 13 14  2  0
 13 23  1  0
 14 15  1  0
 15 16  2  0
 16 17  1  0
 18 17  1  6
 19 10  1  0
 19 18  1  0
 20 18  1  0
 20 32  1  0
 21 20  2  0
 22 16  1  0
 23 22  2  0
 24 25  1  0
 25 27  1  0
 26 25  2  0
 27 28  1  0
 29 28  1  0
 30 29  1  0
 31 33  1  0
 31 32  1  0
 31 30  1  6
 33 35  1  0
 34 33  2  0
M  END
$$$$
