RYR.pdb
     RDKit          3D

 35 35  0  0  1  0  0  0  0  0999 V2000
    9.2339  -16.5402   15.0983 N   0  0  0  0  0  0  0  0  0  0  0  0
    7.8163  -16.4982   15.1120 C   0  0  0  0  0  0  0  0  0  0  0  0
    7.0672  -17.4624   14.7349 N   0  0  0  0  0  0  0  0  0  0  0  0
    7.2072  -15.2889   15.5953 N   0  0  0  0  0  0  0  0  0  0  0  0
    7.7876  -14.5842   16.7295 C   0  0  0  0  0  0  0  0  0  0  0  0
    8.0374  -15.4562   17.9045 C   0  0  0  0  0  0  0  0  0  0  0  0
    8.6805  -14.8195   19.1017 C   0  0  0  0  0  0  0  0  0  0  0  0
    7.6821  -14.2645   20.0942 C   0  0  2  0  0  0  0  0  0  0  0  0
    7.0792  -13.0506   19.5877 N   0  0  0  0  0  0  0  0  0  0  0  0
    8.3538  -13.9349   21.4172 C   0  0  0  0  0  0  0  0  0  0  0  0
    9.1188  -12.9367   21.4191 O   0  0  0  0  0  0  0  0  0  0  0  0
    6.0529  -17.5120   14.7031 O   0  0  0  0  0  0  0  0  0  0  0  0
    9.8653  -15.2293   30.2698 C   0  0  0  0  0  0  0  0  0  0  0  0
    9.3945  -15.0581   28.9585 C   0  0  0  0  0  0  0  0  0  0  0  0
    9.1030  -13.8191   28.4378 C   0  0  0  0  0  0  0  0  0  0  0  0
    8.6360  -13.6964   27.1397 C   0  0  0  0  0  0  0  0  0  0  0  0
    8.4522  -14.8169   26.3365 C   0  0  0  0  0  0  0  0  0  0  0  0
    7.8856  -14.6690   24.9998 C   0  0  1  0  0  0  0  0  0  0  0  0
    8.8917  -14.5795   23.8520 N   0  0  0  0  0  0  0  0  0  0  0  0
    8.1499  -14.6818   22.5734 C   0  0  0  0  0  0  0  0  0  0  0  0
    9.9027  -15.6228   23.8444 O   0  0  0  0  0  0  0  0  0  0  0  0
    9.5912  -16.7981   23.3796 C   0  0  0  0  0  0  0  0  0  0  0  0
    8.7540  -16.0289   26.8816 C   0  0  0  0  0  0  0  0  0  0  0  0
    9.2219  -16.1856   28.1760 N   0  0  0  0  0  0  0  0  0  0  0  0
   18.5648  -17.0909   21.9454 C   0  0  0  0  0  0  0  0  0  0  0  0
   17.8590  -16.5284   23.0307 N   0  0  0  0  0  0  0  0  0  0  0  0
   18.2432  -16.7979   24.2295 N   0  0  0  0  0  0  0  0  0  0  0  0
   16.7230  -15.6690   22.8419 C   0  0  0  0  0  0  0  0  0  0  0  0
   15.6442  -16.1686   22.0209 C   0  0  0  0  0  0  0  0  0  0  0  0
   14.5001  -16.7728   22.7764 C   0  0  0  0  0  0  0  0  0  0  0  0
   13.4028  -15.8016   23.1134 C   0  0  1  0  0  0  0  0  0  0  0  0
   12.2517  -16.4860   23.8424 N   0  0  0  0  0  0  0  0  0  0  0  0
   11.2384  -15.5206   24.2941 C   0  0  0  0  0  0  0  0  0  0  0  0
   12.7419  -17.2269   25.0067 O   0  0  0  0  0  0  0  0  0  0  0  0
   13.6340  -18.1038   24.8623 O   0  0  0  0  0  0  0  0  0  0  0  0
  2  3  2  0
  2  1  1  0
  4  2  1  0
  5  4  1  0
  6  5  1  0
  7  8  1  0
  7  6  1  0
  8 10  1  0
  8  9  1  6
 10 11  2  0
 12 13  1  0
 13 14  2  0
 13 23  1  0
 14 15  1  0
 15 16  2  0
 16 17  1  0
 18 17  1  6
 19 10  1  0
 19 18  1  0
 20 18  1  0
 20 32  1  0
 21 20  2  0
 22 16  1  0
 23 22  2  0
 24 25  1  0
 25 27  1  0
 26 25  2  0
 27 28  1  0
 29 28  1  0
 30 29  1  0
 31 33  1  0
 31 32  1  0
 31 30  1  6
 33 35  1  0
 34 33  2  0
M  END
$$$$
