WDN.pdb
     RDKit          3D

 31 32  0  0  1  0  0  0  0  0999 V2000
    6.6068  -17.3514   23.4925 N   0  0  0  0  0  0  0  0  0  0  0  0
    7.7510  -16.4426   23.2634 C   0  0  1  0  0  0  0  0  0  0  0  0
    8.3233  -15.9933   24.5589 C   0  0  0  0  0  0  0  0  0  0  0  0
    7.4675  -15.1278   25.3784 C   0  0  0  0  0  0  0  0  0  0  0  0
    6.3915  -15.5314   26.1442 C   0  0  0  0  0  0  0  0  0  0  0  0
    5.8254  -14.4858   26.7339 N   0  0  0  0  0  0  0  0  0  0  0  0
    6.5050  -13.3596   26.3806 C   0  0  0  0  0  0  0  0  0  0  0  0
    6.3341  -12.0297   26.7252 C   0  0  0  0  0  0  0  0  0  0  0  0
    7.1827  -11.0464   26.2381 C   0  0  0  0  0  0  0  0  0  0  0  0
    8.2156  -11.4396   25.3889 C   0  0  0  0  0  0  0  0  0  0  0  0
    8.3691  -12.7657   25.0575 C   0  0  0  0  0  0  0  0  0  0  0  0
    7.5267  -13.7554   25.5380 C   0  0  0  0  0  0  0  0  0  0  0  0
    8.6551  -17.1270   22.3279 C   0  0  0  0  0  0  0  0  0  0  0  0
    8.7222  -18.4035   22.2614 O   0  0  0  0  0  0  0  0  0  0  0  0
    9.5181  -16.4343   21.4316 N   0  0  0  0  0  0  0  0  0  0  0  0
   10.4534  -17.1778   20.5559 C   0  0  1  0  0  0  0  0  0  0  0  0
   10.3528  -16.6164   19.1625 C   0  0  0  0  0  0  0  0  0  0  0  0
    9.3019  -17.1383   18.3159 C   0  0  0  0  0  0  0  0  0  0  0  0
    9.0605  -18.3933   18.3735 O   0  0  0  0  0  0  0  0  0  0  0  0
   11.7995  -17.1539   21.1459 C   0  0  0  0  0  0  0  0  0  0  0  0
   12.7039  -16.5098   20.5568 O   0  0  0  0  0  0  0  0  0  0  0  0
    8.5440  -16.3572   17.4479 O   0  0  0  0  0  0  0  0  0  0  0  0
   16.1035  -15.5208   23.1047 N   0  0  0  0  0  0  0  0  0  0  0  0
   14.9684  -15.9674   23.8204 C   0  0  0  0  0  0  0  0  0  0  0  0
   15.0614  -16.1513   25.0476 O   0  0  0  0  0  0  0  0  0  0  0  0
   13.7109  -16.1929   23.0480 C   0  0  0  0  0  0  0  0  0  0  0  0
   13.4316  -17.7025   22.9742 C   0  0  2  0  0  0  0  0  0  0  0  0
   12.1284  -17.8089   22.3348 N   0  0  0  0  0  0  0  0  0  0  0  0
   13.5191  -18.3306   24.2872 C   0  0  0  0  0  0  0  0  0  0  0  0
   12.4561  -18.6568   25.1130 O   0  0  0  0  0  0  0  0  0  0  0  0
   14.6643  -18.6211   24.7518 O   0  0  0  0  0  0  0  0  0  0  0  0
  2  1  1  1
  2 13  1  0
  2  3  1  0
  3  4  1  0
  4 12  1  0
  4  5  2  0
  5  6  1  0
  7  6  1  0
  7  8  2  0
  9  8  1  0
 10  9  2  0
 11 12  2  0
 11 10  1  0
 12  7  1  0
 13 14  2  0
 15 16  1  0
 15 13  1  0
 17 18  1  0
 16 17  1  6
 18 19  2  0
 20 16  1  0
 20 21  2  0
 22 18  1  0
 23 24  1  0
 24 25  2  0
 24 26  1  0
 27 26  1  1
 27 28  1  0
 28 20  1  0
 29 27  1  0
 29 30  1  0
 31 29  2  0
M  END
$$$$
