WDN.pdb
     RDKit          3D

 31 32  0  0  1  0  0  0  0  0999 V2000
    7.4446  -17.4454   23.6979 N   0  0  0  0  0  0  0  0  0  0  0  0
    8.4159  -16.3472   23.5024 C   0  0  1  0  0  0  0  0  0  0  0  0
    8.7548  -15.7172   24.8047 C   0  0  0  0  0  0  0  0  0  0  0  0
    7.6502  -15.0587   25.5112 C   0  0  0  0  0  0  0  0  0  0  0  0
    6.5062  -15.6680   25.9879 C   0  0  0  0  0  0  0  0  0  0  0  0
    5.7050  -14.7719   26.5506 N   0  0  0  0  0  0  0  0  0  0  0  0
    6.2893  -13.5444   26.4665 C   0  0  0  0  0  0  0  0  0  0  0  0
    5.8835  -12.2949   26.9034 C   0  0  0  0  0  0  0  0  0  0  0  0
    6.6768  -11.1735   26.7099 C   0  0  0  0  0  0  0  0  0  0  0  0
    7.8983  -11.3439   26.0606 C   0  0  0  0  0  0  0  0  0  0  0  0
    8.2840  -12.5932   25.6332 C   0  0  0  0  0  0  0  0  0  0  0  0
    7.4989  -13.7194   25.8209 C   0  0  0  0  0  0  0  0  0  0  0  0
    9.5253  -16.8986   22.7110 C   0  0  0  0  0  0  0  0  0  0  0  0
    9.8536  -18.1342   22.7729 O   0  0  0  0  0  0  0  0  0  0  0  0
   10.3141  -16.1129   21.8230 N   0  0  0  0  0  0  0  0  0  0  0  0
   11.6428  -16.5869   21.3711 C   0  0  1  0  0  0  0  0  0  0  0  0
   12.0824  -15.7393   20.2069 C   0  0  0  0  0  0  0  0  0  0  0  0
   13.3173  -16.1105   19.5506 C   0  0  0  0  0  0  0  0  0  0  0  0
   14.0388  -15.1714   19.0667 O   0  0  0  0  0  0  0  0  0  0  0  0
   12.5678  -16.6120   22.5132 C   0  0  0  0  0  0  0  0  0  0  0  0
   12.9536  -15.5191   22.9997 O   0  0  0  0  0  0  0  0  0  0  0  0
   13.7615  -17.4230   19.4166 O   0  0  0  0  0  0  0  0  0  0  0  0
   12.2360  -17.9455   26.6642 N   0  0  0  0  0  0  0  0  0  0  0  0
   12.3350  -18.8993   25.6248 C   0  0  0  0  0  0  0  0  0  0  0  0
   11.3206  -19.5391   25.2928 O   0  0  0  0  0  0  0  0  0  0  0  0
   13.6694  -19.0814   24.9807 C   0  0  0  0  0  0  0  0  0  0  0  0
   14.0137  -17.8189   24.1745 C   0  0  2  0  0  0  0  0  0  0  0  0
   13.0404  -17.7916   23.0925 N   0  0  0  0  0  0  0  0  0  0  0  0
   15.4060  -17.8201   23.7416 C   0  0  0  0  0  0  0  0  0  0  0  0
   15.8581  -17.8466   22.4327 O   0  0  0  0  0  0  0  0  0  0  0  0
   16.3208  -17.7951   24.6217 O   0  0  0  0  0  0  0  0  0  0  0  0
  2  1  1  1
  2 13  1  0
  2  3  1  0
  3  4  1  0
  4 12  1  0
  4  5  2  0
  5  6  1  0
  7  6  1  0
  7  8  2  0
  9  8  1  0
 10  9  2  0
 11 12  2  0
 11 10  1  0
 12  7  1  0
 13 14  2  0
 15 16  1  0
 15 13  1  0
 17 18  1  0
 16 17  1  6
 18 19  2  0
 20 16  1  0
 20 21  2  0
 22 18  1  0
 23 24  1  0
 24 25  2  0
 24 26  1  0
 27 26  1  6
 27 28  1  0
 28 20  1  0
 29 27  1  0
 29 30  1  0
 31 29  2  0
M  END
$$$$
