WDN.pdb
     RDKit          3D

 31 32  0  0  1  0  0  0  0  0999 V2000
    6.7516  -17.4102   23.3609 N   0  0  0  0  0  0  0  0  0  0  0  0
    7.8704  -16.4596   23.1807 C   0  0  1  0  0  0  0  0  0  0  0  0
    8.3646  -15.9850   24.4991 C   0  0  0  0  0  0  0  0  0  0  0  0
    7.4271  -15.1786   25.2889 C   0  0  0  0  0  0  0  0  0  0  0  0
    6.3969  -15.6580   26.0738 C   0  0  0  0  0  0  0  0  0  0  0  0
    5.7297  -14.6523   26.6261 N   0  0  0  0  0  0  0  0  0  0  0  0
    6.2936  -13.4782   26.2279 C   0  0  0  0  0  0  0  0  0  0  0  0
    5.9912  -12.1599   26.5229 C   0  0  0  0  0  0  0  0  0  0  0  0
    6.7376  -11.1161   25.9957 C   0  0  0  0  0  0  0  0  0  0  0  0
    7.8042  -11.4365   25.1577 C   0  0  0  0  0  0  0  0  0  0  0  0
    8.0888  -12.7524   24.8757 C   0  0  0  0  0  0  0  0  0  0  0  0
    7.3494  -13.8021   25.3965 C   0  0  0  0  0  0  0  0  0  0  0  0
    8.8420  -17.1122   22.2913 C   0  0  0  0  0  0  0  0  0  0  0  0
    9.0792  -18.3686   22.3520 O   0  0  0  0  0  0  0  0  0  0  0  0
    9.5882  -16.4088   21.3032 N   0  0  0  0  0  0  0  0  0  0  0  0
   10.9332  -16.8770   20.8957 C   0  0  1  0  0  0  0  0  0  0  0  0
   11.3231  -16.1660   19.6270 C   0  0  0  0  0  0  0  0  0  0  0  0
   10.7646  -16.6697   18.3909 C   0  0  0  0  0  0  0  0  0  0  0  0
   10.7626  -17.9365   18.2123 O   0  0  0  0  0  0  0  0  0  0  0  0
   11.8685  -16.7150   22.0180 C   0  0  0  0  0  0  0  0  0  0  0  0
   11.6785  -15.7739   22.8293 O   0  0  0  0  0  0  0  0  0  0  0  0
   10.2332  -15.8591   17.3917 O   0  0  0  0  0  0  0  0  0  0  0  0
   12.2105  -18.4586   26.7026 N   0  0  0  0  0  0  0  0  0  0  0  0
   12.6450  -19.1583   25.5530 C   0  0  0  0  0  0  0  0  0  0  0  0
   13.3466  -20.1763   25.6941 O   0  0  0  0  0  0  0  0  0  0  0  0
   12.2284  -18.6248   24.2224 C   0  0  0  0  0  0  0  0  0  0  0  0
   13.4314  -17.9349   23.5597 C   0  0  2  0  0  0  0  0  0  0  0  0
   12.9608  -17.5579   22.2349 N   0  0  0  0  0  0  0  0  0  0  0  0
   14.6125  -18.7898   23.5661 C   0  0  0  0  0  0  0  0  0  0  0  0
   14.6663  -20.1177   23.1758 O   0  0  0  0  0  0  0  0  0  0  0  0
   15.7172  -18.3049   23.9617 O   0  0  0  0  0  0  0  0  0  0  0  0
  2  1  1  1
  2 13  1  0
  2  3  1  0
  3  4  1  0
  4 12  1  0
  4  5  2  0
  5  6  1  0
  7  6  1  0
  7  8  2  0
  9  8  1  0
 10  9  2  0
 11 12  2  0
 11 10  1  0
 12  7  1  0
 13 14  2  0
 15 16  1  0
 15 13  1  0
 17 18  1  0
 16 17  1  6
 18 19  2  0
 20 16  1  0
 20 21  2  0
 22 18  1  0
 23 24  1  0
 24 25  2  0
 24 26  1  0
 27 26  1  6
 27 28  1  0
 28 20  1  0
 29 27  1  0
 29 30  1  0
 31 29  2  0
M  END
$$$$
