WDN.pdb
     RDKit          3D

 31 32  0  0  1  0  0  0  0  0999 V2000
    7.0129  -17.6201   24.0750 N   0  0  0  0  0  0  0  0  0  0  0  0
    8.0060  -16.5698   23.7616 C   0  0  1  0  0  0  0  0  0  0  0  0
    8.4005  -15.8445   24.9969 C   0  0  0  0  0  0  0  0  0  0  0  0
    7.3504  -15.0486   25.6427 C   0  0  0  0  0  0  0  0  0  0  0  0
    6.1580  -15.5264   26.1496 C   0  0  0  0  0  0  0  0  0  0  0  0
    5.4306  -14.5296   26.6381 N   0  0  0  0  0  0  0  0  0  0  0  0
    6.1141  -13.3632   26.4724 C   0  0  0  0  0  0  0  0  0  0  0  0
    5.8103  -12.0565   26.8143 C   0  0  0  0  0  0  0  0  0  0  0  0
    6.6940  -11.0205   26.5494 C   0  0  0  0  0  0  0  0  0  0  0  0
    7.9003  -11.3365   25.9269 C   0  0  0  0  0  0  0  0  0  0  0  0
    8.1841  -12.6407   25.5943 C   0  0  0  0  0  0  0  0  0  0  0  0
    7.3082  -13.6826   25.8539 C   0  0  0  0  0  0  0  0  0  0  0  0
    9.0761  -17.2156   22.9878 C   0  0  0  0  0  0  0  0  0  0  0  0
    9.1078  -18.4813   22.8003 O   0  0  0  0  0  0  0  0  0  0  0  0
   10.1500  -16.4947   22.3920 N   0  0  0  0  0  0  0  0  0  0  0  0
   11.2317  -17.2066   21.6727 C   0  0  1  0  0  0  0  0  0  0  0  0
   11.3453  -16.6290   20.2868 C   0  0  0  0  0  0  0  0  0  0  0  0
   12.4292  -17.1113   19.4586 C   0  0  0  0  0  0  0  0  0  0  0  0
   13.6248  -16.8929   19.8577 O   0  0  0  0  0  0  0  0  0  0  0  0
   12.4636  -17.1620   22.4735 C   0  0  0  0  0  0  0  0  0  0  0  0
   13.5221  -17.6225   21.9762 O   0  0  0  0  0  0  0  0  0  0  0  0
   12.2455  -17.7948   18.2598 O   0  0  0  0  0  0  0  0  0  0  0  0
   13.2786  -18.9043   27.0891 N   0  0  0  0  0  0  0  0  0  0  0  0
   11.9167  -18.7003   26.7668 C   0  0  0  0  0  0  0  0  0  0  0  0
   11.0420  -19.2376   27.4700 O   0  0  0  0  0  0  0  0  0  0  0  0
   11.6090  -17.8401   25.5860 C   0  0  0  0  0  0  0  0  0  0  0  0
   12.9270  -17.3980   24.9305 C   0  0  2  0  0  0  0  0  0  0  0  0
   12.5221  -16.6288   23.7630 N   0  0  0  0  0  0  0  0  0  0  0  0
   13.7918  -18.5355   24.6407 C   0  0  0  0  0  0  0  0  0  0  0  0
   14.9817  -18.8449   25.2784 O   0  0  0  0  0  0  0  0  0  0  0  0
   13.4541  -19.3425   23.7205 O   0  0  0  0  0  0  0  0  0  0  0  0
  2  1  1  1
  2 13  1  0
  2  3  1  0
  3  4  1  0
  4 12  1  0
  4  5  2  0
  5  6  1  0
  7  6  1  0
  7  8  2  0
  9  8  1  0
 10  9  2  0
 11 12  2  0
 11 10  1  0
 12  7  1  0
 13 14  2  0
 15 16  1  0
 15 13  1  0
 17 18  1  0
 16 17  1  6
 18 19  2  0
 20 16  1  0
 20 21  2  0
 22 18  1  0
 23 24  1  0
 24 25  2  0
 24 26  1  0
 27 26  1  6
 27 28  1  0
 28 20  1  0
 29 27  1  0
 29 30  1  0
 31 29  2  0
M  END
$$$$
