WDN.pdb
     RDKit          3D

 31 32  0  0  1  0  0  0  0  0999 V2000
   10.0413  -15.1057   25.1221 N   0  0  0  0  0  0  0  0  0  0  0  0
    8.7505  -15.7940   25.3407 C   0  0  1  0  0  0  0  0  0  0  0  0
    7.8657  -15.6234   24.1592 C   0  0  0  0  0  0  0  0  0  0  0  0
    7.4052  -14.2569   23.8883 C   0  0  0  0  0  0  0  0  0  0  0  0
    7.3108  -13.6572   22.6479 C   0  0  0  0  0  0  0  0  0  0  0  0
    6.8839  -12.4064   22.7701 N   0  0  0  0  0  0  0  0  0  0  0  0
    6.6815  -12.1371   24.0898 C   0  0  0  0  0  0  0  0  0  0  0  0
    6.2347  -11.0019   24.7443 C   0  0  0  0  0  0  0  0  0  0  0  0
    6.0940  -10.9766   26.1241 C   0  0  0  0  0  0  0  0  0  0  0  0
    6.4171  -12.1322   26.8331 C   0  0  0  0  0  0  0  0  0  0  0  0
    6.8600  -13.2501   26.1652 C   0  0  0  0  0  0  0  0  0  0  0  0
    7.0046  -13.2857   24.7876 C   0  0  0  0  0  0  0  0  0  0  0  0
    9.0678  -17.1690   25.7527 C   0  0  0  0  0  0  0  0  0  0  0  0
   10.2564  -17.5254   26.0665 O   0  0  0  0  0  0  0  0  0  0  0  0
    8.0912  -18.2022   25.8350 N   0  0  0  0  0  0  0  0  0  0  0  0
    8.3575  -19.4343   26.6130 C   0  0  1  0  0  0  0  0  0  0  0  0
    7.0462  -20.1247   26.8792 C   0  0  0  0  0  0  0  0  0  0  0  0
    7.0369  -21.1515   27.8986 C   0  0  0  0  0  0  0  0  0  0  0  0
    8.1610  -21.5042   28.3971 O   0  0  0  0  0  0  0  0  0  0  0  0
    9.3632  -20.2468   25.9136 C   0  0  0  0  0  0  0  0  0  0  0  0
    9.1159  -20.6359   24.7443 O   0  0  0  0  0  0  0  0  0  0  0  0
    5.8816  -21.7731   28.3642 O   0  0  0  0  0  0  0  0  0  0  0  0
   12.9437  -20.2940   22.6441 N   0  0  0  0  0  0  0  0  0  0  0  0
   13.0250  -19.6138   23.8814 C   0  0  0  0  0  0  0  0  0  0  0  0
   14.1036  -19.0894   24.2132 O   0  0  0  0  0  0  0  0  0  0  0  0
   11.7938  -19.5661   24.7243 C   0  0  0  0  0  0  0  0  0  0  0  0
   11.8171  -20.7426   25.7131 C   0  0  2  0  0  0  0  0  0  0  0  0
   10.5875  -20.6081   26.4804 N   0  0  0  0  0  0  0  0  0  0  0  0
   13.0364  -20.7492   26.5127 C   0  0  0  0  0  0  0  0  0  0  0  0
   13.1228  -20.5380   27.8788 O   0  0  0  0  0  0  0  0  0  0  0  0
   14.1461  -20.9658   25.9351 O   0  0  0  0  0  0  0  0  0  0  0  0
  2  1  1  6
  2 13  1  0
  2  3  1  0
  3  4  1  0
  4 12  1  0
  4  5  2  0
  5  6  1  0
  7  6  1  0
  7  8  2  0
  9  8  1  0
 10  9  2  0
 11 12  2  0
 11 10  1  0
 12  7  1  0
 13 14  2  0
 15 16  1  0
 15 13  1  0
 17 18  1  0
 16 17  1  6
 18 19  2  0
 20 16  1  0
 20 21  2  0
 22 18  1  0
 23 24  1  0
 24 25  2  0
 24 26  1  0
 27 26  1  6
 27 28  1  0
 28 20  1  0
 29 27  1  0
 29 30  1  0
 31 29  2  0
M  END
$$$$
