WDN.pdb
     RDKit          3D

 31 32  0  0  1  0  0  0  0  0999 V2000
    6.3329  -17.6070   24.1793 N   0  0  0  0  0  0  0  0  0  0  0  0
    7.1377  -16.4855   23.6481 C   0  0  1  0  0  0  0  0  0  0  0  0
    7.8494  -15.7902   24.7516 C   0  0  0  0  0  0  0  0  0  0  0  0
    7.0507  -14.8480   25.5436 C   0  0  0  0  0  0  0  0  0  0  0  0
    5.9487  -15.1586   26.3158 C   0  0  0  0  0  0  0  0  0  0  0  0
    5.4515  -14.0622   26.8744 N   0  0  0  0  0  0  0  0  0  0  0  0
    6.2046  -12.9932   26.4932 C   0  0  0  0  0  0  0  0  0  0  0  0
    6.1210  -11.6460   26.8007 C   0  0  0  0  0  0  0  0  0  0  0  0
    7.0337  -10.7345   26.2903 C   0  0  0  0  0  0  0  0  0  0  0  0
    8.0403  -11.2181   25.4564 C   0  0  0  0  0  0  0  0  0  0  0  0
    8.1067  -12.5601   25.1619 C   0  0  0  0  0  0  0  0  0  0  0  0
    7.1999  -13.4785   25.6658 C   0  0  0  0  0  0  0  0  0  0  0  0
    7.9565  -17.0314   22.5559 C   0  0  0  0  0  0  0  0  0  0  0  0
    8.6468  -18.1002   22.6953 O   0  0  0  0  0  0  0  0  0  0  0  0
    8.0465  -16.4233   21.2714 N   0  0  0  0  0  0  0  0  0  0  0  0
    9.1521  -16.7675   20.3475 C   0  0  1  0  0  0  0  0  0  0  0  0
    8.8657  -16.1462   19.0063 C   0  0  0  0  0  0  0  0  0  0  0  0
    9.6852  -16.5740   17.8932 C   0  0  0  0  0  0  0  0  0  0  0  0
   10.5974  -17.4403   18.1252 O   0  0  0  0  0  0  0  0  0  0  0  0
   10.4345  -16.3844   20.9551 C   0  0  0  0  0  0  0  0  0  0  0  0
   10.4558  -15.4168   21.7570 O   0  0  0  0  0  0  0  0  0  0  0  0
    9.5380  -16.0989   16.5930 O   0  0  0  0  0  0  0  0  0  0  0  0
   13.3399  -19.7259   24.0729 N   0  0  0  0  0  0  0  0  0  0  0  0
   12.9599  -18.3778   23.8775 C   0  0  0  0  0  0  0  0  0  0  0  0
   13.4539  -17.4987   24.6066 O   0  0  0  0  0  0  0  0  0  0  0  0
   11.9758  -18.0890   22.7926 C   0  0  0  0  0  0  0  0  0  0  0  0
   12.6673  -17.2650   21.6948 C   0  0  2  0  0  0  0  0  0  0  0  0
   11.6368  -17.0442   20.6907 N   0  0  0  0  0  0  0  0  0  0  0  0
   13.8678  -17.9282   21.1999 C   0  0  0  0  0  0  0  0  0  0  0  0
   15.1763  -17.5846   21.4967 O   0  0  0  0  0  0  0  0  0  0  0  0
   13.7409  -18.9209   20.4186 O   0  0  0  0  0  0  0  0  0  0  0  0
  2  1  1  1
  2 13  1  0
  2  3  1  0
  3  4  1  0
  4 12  1  0
  4  5  2  0
  5  6  1  0
  7  6  1  0
  7  8  2  0
  9  8  1  0
 10  9  2  0
 11 12  2  0
 11 10  1  0
 12  7  1  0
 13 14  2  0
 15 16  1  0
 15 13  1  0
 17 18  1  0
 16 17  1  6
 18 19  2  0
 20 16  1  0
 20 21  2  0
 22 18  1  0
 23 24  1  0
 24 25  2  0
 24 26  1  0
 27 26  1  1
 27 28  1  0
 28 20  1  0
 29 27  1  0
 29 30  1  0
 31 29  2  0
M  END
$$$$
