WDN.pdb
     RDKit          3D

 31 32  0  0  1  0  0  0  0  0999 V2000
    7.1213  -17.7861   24.3196 N   0  0  0  0  0  0  0  0  0  0  0  0
    8.1794  -16.7942   24.0292 C   0  0  1  0  0  0  0  0  0  0  0  0
    8.5052  -16.0120   25.2497 C   0  0  0  0  0  0  0  0  0  0  0  0
    7.4525  -15.1178   25.7449 C   0  0  0  0  0  0  0  0  0  0  0  0
    6.2550  -15.5025   26.3151 C   0  0  0  0  0  0  0  0  0  0  0  0
    5.5265  -14.4370   26.6242 N   0  0  0  0  0  0  0  0  0  0  0  0
    6.2143  -13.3157   26.2712 C   0  0  0  0  0  0  0  0  0  0  0  0
    5.9115  -11.9698   26.3873 C   0  0  0  0  0  0  0  0  0  0  0  0
    6.7999  -10.9939   25.9598 C   0  0  0  0  0  0  0  0  0  0  0  0
    8.0101  -11.4112   25.4086 C   0  0  0  0  0  0  0  0  0  0  0  0
    8.2929  -12.7531   25.3011 C   0  0  0  0  0  0  0  0  0  0  0  0
    7.4123  -13.7356   25.7243 C   0  0  0  0  0  0  0  0  0  0  0  0
    9.2792  -17.5246   23.3827 C   0  0  0  0  0  0  0  0  0  0  0  0
    9.5014  -18.7629   23.6184 O   0  0  0  0  0  0  0  0  0  0  0  0
   10.1745  -16.9215   22.4539 N   0  0  0  0  0  0  0  0  0  0  0  0
   11.4649  -17.5673   22.1189 C   0  0  1  0  0  0  0  0  0  0  0  0
   12.1252  -16.7758   21.0214 C   0  0  0  0  0  0  0  0  0  0  0  0
   13.3043  -17.3513   20.4116 C   0  0  0  0  0  0  0  0  0  0  0  0
   13.5902  -18.5646   20.6991 O   0  0  0  0  0  0  0  0  0  0  0  0
   12.2630  -17.7294   23.3426 C   0  0  0  0  0  0  0  0  0  0  0  0
   12.8527  -16.7246   23.8144 O   0  0  0  0  0  0  0  0  0  0  0  0
   14.1397  -16.6636   19.5356 O   0  0  0  0  0  0  0  0  0  0  0  0
   10.0951  -20.0681   26.6442 N   0  0  0  0  0  0  0  0  0  0  0  0
   11.4357  -19.6900   26.8893 C   0  0  0  0  0  0  0  0  0  0  0  0
   11.6825  -18.9139   27.8302 O   0  0  0  0  0  0  0  0  0  0  0  0
   12.4865  -20.2540   25.9913 C   0  0  0  0  0  0  0  0  0  0  0  0
   13.1726  -19.1035   25.2378 C   0  0  2  0  0  0  0  0  0  0  0  0
   12.3989  -18.9459   24.0150 N   0  0  0  0  0  0  0  0  0  0  0  0
   14.5918  -19.3666   25.0310 C   0  0  0  0  0  0  0  0  0  0  0  0
   15.2459  -19.4266   23.8116 O   0  0  0  0  0  0  0  0  0  0  0  0
   15.3315  -19.5652   26.0436 O   0  0  0  0  0  0  0  0  0  0  0  0
  2  1  1  1
  2 13  1  0
  2  3  1  0
  3  4  1  0
  4 12  1  0
  4  5  2  0
  5  6  1  0
  7  6  1  0
  7  8  2  0
  9  8  1  0
 10  9  2  0
 11 12  2  0
 11 10  1  0
 12  7  1  0
 13 14  2  0
 15 16  1  0
 15 13  1  0
 17 18  1  0
 16 17  1  6
 18 19  2  0
 20 16  1  0
 20 21  2  0
 22 18  1  0
 23 24  1  0
 24 25  2  0
 24 26  1  0
 27 26  1  6
 27 28  1  0
 28 20  1  0
 29 27  1  0
 29 30  1  0
 31 29  2  0
M  END
$$$$
