RPL.pdb
     RDKit          3D

 27 27  0  0  1  0  0  0  0  0999 V2000
   20.9393  -18.2733  -17.1797 N   0  0  0  0  0  0  0  0  0  0  0  0
   20.6248  -19.5039  -16.5497 C   0  0  0  0  0  0  0  0  0  0  0  0
   19.8765  -20.3710  -17.1376 N   0  0  0  0  0  0  0  0  0  0  0  0
   21.1349  -19.7956  -15.2566 N   0  0  0  0  0  0  0  0  0  0  0  0
   21.8862  -18.8184  -14.4862 C   0  0  0  0  0  0  0  0  0  0  0  0
   23.3341  -18.7399  -14.9866 C   0  0  0  0  0  0  0  0  0  0  0  0
   24.2149  -19.3590  -13.9292 C   0  0  0  0  0  0  0  0  0  0  0  0
   24.9645  -20.5715  -14.4444 C   0  0  2  0  0  0  0  0  0  0  0  0
   24.1376  -21.4408  -15.2300 N   0  0  0  0  0  0  0  0  0  0  0  0
   25.7724  -21.2136  -13.4122 C   0  0  0  0  0  0  0  0  0  0  0  0
   25.3438  -22.3302  -12.9790 O   0  0  0  0  0  0  0  0  0  0  0  0
   19.6200  -21.2521  -16.6710 N   0  0  0  0  0  0  0  0  0  0  0  0
   26.9863  -20.7179  -12.8423 C   0  0  0  0  0  0  0  0  0  0  0  0
   27.6316  -19.4896  -13.1846 C   0  0  0  0  0  0  0  0  0  0  0  0
   29.0521  -19.6268  -12.7171 C   0  0  0  0  0  0  0  0  0  0  0  0
   29.1787  -21.0770  -12.2303 C   0  0  1  0  0  0  0  0  0  0  0  0
   27.7743  -21.3642  -11.8174 C   0  0  0  0  0  0  0  0  0  0  0  0
   27.4213  -20.9118  -10.4578 O   0  0  0  0  0  0  0  0  0  0  0  0
   27.0463  -19.7184  -10.3260 C   0  0  0  0  0  0  0  0  0  0  0  0
   28.1701  -18.1542   -6.2738 C   0  0  1  0  0  0  0  0  0  0  0  0
   27.6494  -19.5984   -6.2155 C   0  0  0  0  0  0  0  0  0  0  0  0
   28.4127  -20.2623   -5.0729 C   0  0  0  0  0  0  0  0  0  0  0  0
   27.9718  -20.2145   -7.5364 C   0  0  2  0  0  0  0  0  0  0  0  0
   27.0503  -21.3101   -7.9749 N   0  0  0  0  0  0  0  0  0  0  0  0
   27.4750  -21.7199   -9.3007 C   0  0  0  0  0  0  0  0  0  0  0  0
   25.6257  -20.8790   -7.9817 O   0  0  0  0  0  0  0  0  0  0  0  0
   25.2254  -19.8533   -8.6134 O   0  0  0  0  0  0  0  0  0  0  0  0
  2  1  1  0
  3  2  2  0
  4  2  1  0
  5  6  1  0
  5  4  1  0
  6  7  1  0
  7  8  1  0
  8  9  1  1
 10  8  1  0
 11 10  2  0
 12 10  1  0
 12 16  1  0
 13 14  1  0
 13 12  1  0
 14 15  1  0
 15 16  1  0
 16 17  1  1
 17 18  2  0
 20 19  1  1
 20 22  1  0
 21 20  1  0
 23 22  1  1
 23 24  1  0
 24 17  1  0
 25 23  1  0
 25 27  1  0
 26 25  2  0
M  END
$$$$
