RPL.pdb
     RDKit          3D

 27 27  0  0  1  0  0  0  0  0999 V2000
   22.7973  -18.7003  -19.7686 N   0  0  0  0  0  0  0  0  0  0  0  0
   22.3034  -17.6002  -19.0227 C   0  0  0  0  0  0  0  0  0  0  0  0
   21.0475  -17.4952  -18.7596 N   0  0  0  0  0  0  0  0  0  0  0  0
   23.1933  -16.5970  -18.5546 N   0  0  0  0  0  0  0  0  0  0  0  0
   24.5637  -16.8986  -18.1752 C   0  0  0  0  0  0  0  0  0  0  0  0
   24.5914  -17.7553  -16.9031 C   0  0  0  0  0  0  0  0  0  0  0  0
   26.0381  -17.9736  -16.5334 C   0  0  0  0  0  0  0  0  0  0  0  0
   26.4473  -19.4283  -16.6509 C   0  0  2  0  0  0  0  0  0  0  0  0
   25.8069  -20.0966  -17.7462 N   0  0  0  0  0  0  0  0  0  0  0  0
   26.4198  -20.1255  -15.3689 C   0  0  0  0  0  0  0  0  0  0  0  0
   25.4536  -20.9337  -15.1911 O   0  0  0  0  0  0  0  0  0  0  0  0
   20.6897  -16.7177  -18.1875 N   0  0  0  0  0  0  0  0  0  0  0  0
   27.3607  -19.9921  -14.3006 C   0  0  0  0  0  0  0  0  0  0  0  0
   28.5220  -19.1594  -14.3068 C   0  0  0  0  0  0  0  0  0  0  0  0
   29.4205  -19.6982  -13.2309 C   0  0  0  0  0  0  0  0  0  0  0  0
   28.7350  -20.9795  -12.7364 C   0  0  1  0  0  0  0  0  0  0  0  0
   27.3047  -20.6685  -13.0245 C   0  0  0  0  0  0  0  0  0  0  0  0
   26.6207  -19.8721  -11.9874 O   0  0  0  0  0  0  0  0  0  0  0  0
   26.3368  -18.6797  -12.2694 C   0  0  0  0  0  0  0  0  0  0  0  0
   22.4911  -19.0533  -11.3520 C   0  0  2  0  0  0  0  0  0  0  0  0
   23.3794  -20.0698  -12.0855 C   0  0  0  0  0  0  0  0  0  0  0  0
   22.4378  -20.8547  -12.9943 C   0  0  0  0  0  0  0  0  0  0  0  0
   23.9883  -20.9331  -11.0309 C   0  0  2  0  0  0  0  0  0  0  0  0
   24.9466  -20.2423  -10.1109 N   0  0  0  0  0  0  0  0  0  0  0  0
   26.2649  -20.3518  -10.7075 C   0  0  0  0  0  0  0  0  0  0  0  0
   24.9319  -20.8249   -8.7413 O   0  0  0  0  0  0  0  0  0  0  0  0
   24.2046  -20.3616   -7.8098 O   0  0  0  0  0  0  0  0  0  0  0  0
  2  1  1  0
  3  2  2  0
  4  2  1  0
  5  6  1  0
  5  4  1  0
  6  7  1  0
  7  8  1  0
  8  9  1  6
 10  8  1  0
 11 10  2  0
 12 10  1  0
 12 16  1  0
 13 14  1  0
 13 12  1  0
 14 15  1  0
 15 16  1  0
 16 17  1  1
 17 18  2  0
 20 19  1  6
 20 22  1  0
 21 20  1  0
 23 22  1  6
 23 24  1  0
 24 17  1  0
 25 23  1  0
 25 27  1  0
 26 25  2  0
M  END
$$$$
