RPL.pdb
     RDKit          3D

 27 27  0  0  1  0  0  0  0  0999 V2000
   19.2386  -21.3773  -12.1217 N   0  0  0  0  0  0  0  0  0  0  0  0
   19.9144  -21.2233  -10.8848 C   0  0  0  0  0  0  0  0  0  0  0  0
   19.4408  -21.7453   -9.8075 N   0  0  0  0  0  0  0  0  0  0  0  0
   21.1279  -20.4880  -10.8203 N   0  0  0  0  0  0  0  0  0  0  0  0
   21.6171  -19.7082  -11.9452 C   0  0  0  0  0  0  0  0  0  0  0  0
   23.0702  -20.0818  -12.2648 C   0  0  0  0  0  0  0  0  0  0  0  0
   23.0418  -21.3135  -13.1362 C   0  0  0  0  0  0  0  0  0  0  0  0
   24.4322  -21.7671  -13.5342 C   0  0  2  0  0  0  0  0  0  0  0  0
   24.4137  -22.8795  -14.4390 N   0  0  0  0  0  0  0  0  0  0  0  0
   25.3342  -21.8831  -12.3924 C   0  0  0  0  0  0  0  0  0  0  0  0
   25.1080  -22.8486  -11.5955 O   0  0  0  0  0  0  0  0  0  0  0  0
   19.9337  -21.6445   -8.9093 N   0  0  0  0  0  0  0  0  0  0  0  0
   26.4365  -21.0276  -12.0809 C   0  0  0  0  0  0  0  0  0  0  0  0
   26.7589  -19.8028  -12.7428 C   0  0  0  0  0  0  0  0  0  0  0  0
   28.2004  -19.5290  -12.4225 C   0  0  0  0  0  0  0  0  0  0  0  0
   28.6879  -20.7703  -11.6624 C   0  0  2  0  0  0  0  0  0  0  0  0
   27.4169  -21.2431  -11.0409 C   0  0  0  0  0  0  0  0  0  0  0  0
   27.0590  -20.5765   -9.7739 O   0  0  0  0  0  0  0  0  0  0  0  0
   26.4213  -19.4951   -9.8510 C   0  0  0  0  0  0  0  0  0  0  0  0
   28.5230  -19.1344   -4.8994 C   0  0  1  0  0  0  0  0  0  0  0  0
   27.7703  -20.4707   -4.8088 C   0  0  0  0  0  0  0  0  0  0  0  0
   28.5157  -21.2892   -3.7584 C   0  0  0  0  0  0  0  0  0  0  0  0
   27.8523  -21.0915   -6.1638 C   0  0  1  0  0  0  0  0  0  0  0  0
   27.0846  -20.3872   -7.2393 N   0  0  0  0  0  0  0  0  0  0  0  0
   27.3807  -21.0644   -8.4882 C   0  0  0  0  0  0  0  0  0  0  0  0
   27.4291  -18.9416   -7.3228 O   0  0  0  0  0  0  0  0  0  0  0  0
   26.6823  -18.0328   -6.8456 O   0  0  0  0  0  0  0  0  0  0  0  0
  2  1  1  0
  3  2  2  0
  4  2  1  0
  5  6  1  0
  5  4  1  0
  6  7  1  0
  7  8  1  0
  8  9  1  1
 10  8  1  0
 11 10  2  0
 12 10  1  0
 12 16  1  0
 13 14  1  0
 13 12  1  0
 14 15  1  0
 15 16  1  0
 16 17  1  1
 17 18  2  0
 20 19  1  1
 20 22  1  0
 21 20  1  0
 23 22  1  1
 23 24  1  0
 24 17  1  0
 25 23  1  0
 25 27  1  0
 26 25  2  0
M  END
$$$$
