RPL.pdb
     RDKit          3D

 27 27  0  0  1  0  0  0  0  0999 V2000
   19.6545  -23.7530   -8.9689 N   0  0  0  0  0  0  0  0  0  0  0  0
   18.5647  -23.7278   -9.8756 C   0  0  0  0  0  0  0  0  0  0  0  0
   17.4610  -24.3276   -9.5935 N   0  0  0  0  0  0  0  0  0  0  0  0
   18.6788  -23.0366  -11.1111 N   0  0  0  0  0  0  0  0  0  0  0  0
   19.3875  -23.6016  -12.2475 C   0  0  0  0  0  0  0  0  0  0  0  0
   20.9037  -23.4972  -12.0394 C   0  0  0  0  0  0  0  0  0  0  0  0
   21.4441  -22.5633  -13.0944 C   0  0  0  0  0  0  0  0  0  0  0  0
   21.6180  -21.1499  -12.5751 C   0  0  2  0  0  0  0  0  0  0  0  0
   20.4775  -20.3204  -12.8352 N   0  0  0  0  0  0  0  0  0  0  0  0
   22.9175  -20.5807  -12.9182 C   0  0  0  0  0  0  0  0  0  0  0  0
   22.8999  -19.4294  -13.4589 O   0  0  0  0  0  0  0  0  0  0  0  0
   16.6499  -24.2683  -10.2247 N   0  0  0  0  0  0  0  0  0  0  0  0
   24.1980  -21.1820  -12.7110 C   0  0  0  0  0  0  0  0  0  0  0  0
   24.4341  -22.4854  -12.1746 C   0  0  0  0  0  0  0  0  0  0  0  0
   25.8600  -22.4843  -11.7033 C   0  0  0  0  0  0  0  0  0  0  0  0
   26.3431  -21.0382  -11.8812 C   0  0  1  0  0  0  0  0  0  0  0  0
   25.4799  -20.5849  -13.0102 C   0  0  0  0  0  0  0  0  0  0  0  0
   25.9749  -20.9425  -14.3536 O   0  0  0  0  0  0  0  0  0  0  0  0
   25.5797  -22.0316  -14.8431 C   0  0  0  0  0  0  0  0  0  0  0  0
   25.9354  -18.4778  -18.2354 C   0  0  1  0  0  0  0  0  0  0  0  0
   26.9665  -18.0733  -17.1709 C   0  0  0  0  0  0  0  0  0  0  0  0
   27.6588  -16.8307  -17.7237 C   0  0  0  0  0  0  0  0  0  0  0  0
   27.9066  -19.2252  -17.0379 C   0  0  2  0  0  0  0  0  0  0  0  0
   27.3132  -20.4740  -16.4633 N   0  0  0  0  0  0  0  0  0  0  0  0
   26.8566  -20.1524  -15.1239 C   0  0  0  0  0  0  0  0  0  0  0  0
   28.2861  -21.6002  -16.4381 O   0  0  0  0  0  0  0  0  0  0  0  0
   28.8927  -21.9553  -15.3810 O   0  0  0  0  0  0  0  0  0  0  0  0
  2  1  1  0
  3  2  2  0
  4  2  1  0
  5  6  1  0
  5  4  1  0
  6  7  1  0
  7  8  1  0
  8  9  1  6
 10  8  1  0
 11 10  2  0
 12 10  1  0
 12 16  1  0
 13 14  1  0
 13 12  1  0
 14 15  1  0
 15 16  1  0
 16 17  1  6
 17 18  2  0
 20 19  1  1
 20 22  1  0
 21 20  1  0
 23 22  1  6
 23 24  1  0
 24 17  1  0
 25 23  1  0
 25 27  1  0
 26 25  2  0
M  END
$$$$
