RPL.pdb
     RDKit          3D

 27 27  0  0  1  0  0  0  0  0999 V2000
   21.1719  -21.4128  -13.0288 N   0  0  0  0  0  0  0  0  0  0  0  0
   20.0532  -20.7035  -13.5347 C   0  0  0  0  0  0  0  0  0  0  0  0
   18.8764  -20.9008  -13.0513 N   0  0  0  0  0  0  0  0  0  0  0  0
   20.2194  -19.7622  -14.5853 N   0  0  0  0  0  0  0  0  0  0  0  0
   21.3668  -19.7972  -15.4769 C   0  0  0  0  0  0  0  0  0  0  0  0
   22.6611  -19.5396  -14.6950 C   0  0  0  0  0  0  0  0  0  0  0  0
   23.6884  -19.0248  -15.6732 C   0  0  0  0  0  0  0  0  0  0  0  0
   24.6167  -20.1198  -16.1599 C   0  0  2  0  0  0  0  0  0  0  0  0
   23.9763  -21.0243  -17.0699 N   0  0  0  0  0  0  0  0  0  0  0  0
   25.3805  -20.7319  -15.0771 C   0  0  0  0  0  0  0  0  0  0  0  0
   25.0021  -21.8894  -14.7092 O   0  0  0  0  0  0  0  0  0  0  0  0
   18.0651  -20.3721  -13.4007 N   0  0  0  0  0  0  0  0  0  0  0  0
   26.5011  -20.1663  -14.3927 C   0  0  0  0  0  0  0  0  0  0  0  0
   26.9617  -18.8188  -14.5115 C   0  0  0  0  0  0  0  0  0  0  0  0
   28.3813  -18.8244  -14.0217 C   0  0  0  0  0  0  0  0  0  0  0  0
   28.7152  -20.3011  -13.7683 C   0  0  1  0  0  0  0  0  0  0  0  0
   27.3639  -20.8508  -13.4567 C   0  0  0  0  0  0  0  0  0  0  0  0
   26.9321  -20.6817  -12.0557 O   0  0  0  0  0  0  0  0  0  0  0  0
   26.3077  -19.6285  -11.7675 C   0  0  0  0  0  0  0  0  0  0  0  0
   25.9549  -19.4750   -7.5539 C   0  0  1  0  0  0  0  0  0  0  0  0
   27.1730  -20.4077   -7.4725 C   0  0  0  0  0  0  0  0  0  0  0  0
   28.2363  -19.6256   -6.7065 C   0  0  0  0  0  0  0  0  0  0  0  0
   27.5862  -20.6824   -8.8804 C   0  0  2  0  0  0  0  0  0  0  0  0
   26.6353  -21.5225   -9.6754 N   0  0  0  0  0  0  0  0  0  0  0  0
   27.1695  -21.6139  -11.0216 C   0  0  0  0  0  0  0  0  0  0  0  0
   25.2583  -20.9576   -9.6862 O   0  0  0  0  0  0  0  0  0  0  0  0
   24.9925  -19.8149  -10.1708 O   0  0  0  0  0  0  0  0  0  0  0  0
  2  1  1  0
  3  2  2  0
  4  2  1  0
  5  6  1  0
  5  4  1  0
  6  7  1  0
  7  8  1  0
  8  9  1  1
 10  8  1  0
 11 10  2  0
 12 10  1  0
 12 16  1  0
 13 14  1  0
 13 12  1  0
 14 15  1  0
 15 16  1  0
 16 17  1  1
 17 18  2  0
 20 19  1  1
 20 22  1  0
 21 20  1  0
 23 22  1  1
 23 24  1  0
 24 17  1  0
 25 23  1  0
 25 27  1  0
 26 25  2  0
M  END
$$$$
