RPL.pdb
     RDKit          3D

 27 27  0  0  1  0  0  0  0  0999 V2000
   19.8345  -19.4786  -15.6388 N   0  0  0  0  0  0  0  0  0  0  0  0
   19.8221  -20.1129  -14.3707 C   0  0  0  0  0  0  0  0  0  0  0  0
   18.8787  -20.9294  -14.0534 N   0  0  0  0  0  0  0  0  0  0  0  0
   20.8558  -19.8536  -13.4318 N   0  0  0  0  0  0  0  0  0  0  0  0
   21.8826  -18.8533  -13.6729 C   0  0  0  0  0  0  0  0  0  0  0  0
   22.9620  -19.4086  -14.6107 C   0  0  0  0  0  0  0  0  0  0  0  0
   24.2090  -19.6274  -13.7895 C   0  0  0  0  0  0  0  0  0  0  0  0
   24.6027  -21.0896  -13.7224 C   0  0  2  0  0  0  0  0  0  0  0  0
   23.5638  -21.9642  -14.1831 N   0  0  0  0  0  0  0  0  0  0  0  0
   25.2258  -21.4464  -12.4517 C   0  0  0  0  0  0  0  0  0  0  0  0
   24.5250  -22.1586  -11.6643 O   0  0  0  0  0  0  0  0  0  0  0  0
   18.8576  -21.3803  -13.1281 N   0  0  0  0  0  0  0  0  0  0  0  0
   26.5333  -21.0784  -12.0052 C   0  0  0  0  0  0  0  0  0  0  0  0
   27.4319  -20.1971  -12.6820 C   0  0  0  0  0  0  0  0  0  0  0  0
   28.7948  -20.4910  -12.1240 C   0  0  0  0  0  0  0  0  0  0  0  0
   28.6009  -21.7026  -11.2018 C   0  0  1  0  0  0  0  0  0  0  0  0
   27.1779  -21.5251  -10.7911 C   0  0  0  0  0  0  0  0  0  0  0  0
   26.9679  -20.5993   -9.6612 O   0  0  0  0  0  0  0  0  0  0  0  0
   26.8942  -19.3721   -9.9268 C   0  0  0  0  0  0  0  0  0  0  0  0
   28.6512  -19.3320   -4.8701 C   0  0  1  0  0  0  0  0  0  0  0  0
   27.3869  -20.1860   -4.6899 C   0  0  0  0  0  0  0  0  0  0  0  0
   27.6848  -21.1148   -3.5162 C   0  0  0  0  0  0  0  0  0  0  0  0
   27.2030  -20.9382   -5.9661 C   0  0  1  0  0  0  0  0  0  0  0  0
   26.9125  -20.0968   -7.1701 N   0  0  0  0  0  0  0  0  0  0  0  0
   26.8449  -20.9922   -8.3102 C   0  0  0  0  0  0  0  0  0  0  0  0
   27.9412  -19.0421   -7.3818 O   0  0  0  0  0  0  0  0  0  0  0  0
   29.0920  -19.2953   -7.8539 O   0  0  0  0  0  0  0  0  0  0  0  0
  2  1  1  0
  3  2  2  0
  4  2  1  0
  5  6  1  0
  5  4  1  0
  6  7  1  0
  7  8  1  0
  8  9  1  1
 10  8  1  0
 11 10  2  0
 12 10  1  0
 12 16  1  0
 13 14  1  0
 13 12  1  0
 14 15  1  0
 15 16  1  0
 16 17  1  1
 17 18  2  0
 20 19  1  1
 20 22  1  0
 21 20  1  0
 23 22  1  1
 23 24  1  0
 24 17  1  0
 25 23  1  0
 25 27  1  0
 26 25  2  0
M  END
$$$$
