RPL.pdb
     RDKit          3D

 27 27  0  0  1  0  0  0  0  0999 V2000
   21.9877  -19.2084  -14.2607 N   0  0  0  0  0  0  0  0  0  0  0  0
   21.1831  -19.8740  -13.3016 C   0  0  0  0  0  0  0  0  0  0  0  0
   19.9739  -20.2160  -13.5817 N   0  0  0  0  0  0  0  0  0  0  0  0
   21.7049  -20.1730  -12.0149 N   0  0  0  0  0  0  0  0  0  0  0  0
   23.0724  -19.8492  -11.6436 C   0  0  0  0  0  0  0  0  0  0  0  0
   23.9471  -21.1091  -11.6684 C   0  0  0  0  0  0  0  0  0  0  0  0
   24.9117  -20.9703  -12.8205 C   0  0  0  0  0  0  0  0  0  0  0  0
   25.8950  -22.1219  -12.8877 C   0  0  2  0  0  0  0  0  0  0  0  0
   25.2843  -23.3469  -13.3155 N   0  0  0  0  0  0  0  0  0  0  0  0
   26.7432  -22.2068  -11.7029 C   0  0  0  0  0  0  0  0  0  0  0  0
   26.4784  -23.1494  -10.8906 O   0  0  0  0  0  0  0  0  0  0  0  0
   19.3859  -20.6983  -12.8878 N   0  0  0  0  0  0  0  0  0  0  0  0
   27.8320  -21.3441  -11.3650 C   0  0  0  0  0  0  0  0  0  0  0  0
   28.2768  -20.2195  -12.1264 C   0  0  0  0  0  0  0  0  0  0  0  0
   29.6792  -19.9404  -11.6676 C   0  0  0  0  0  0  0  0  0  0  0  0
   30.0258  -21.0873  -10.7080 C   0  0  1  0  0  0  0  0  0  0  0  0
   28.6731  -21.4496  -10.1942 C   0  0  0  0  0  0  0  0  0  0  0  0
   28.1923  -20.6214   -9.0713 O   0  0  0  0  0  0  0  0  0  0  0  0
   27.2598  -19.8117   -9.3095 C   0  0  0  0  0  0  0  0  0  0  0  0
   30.2479  -20.9323   -3.6145 C   0  0  1  0  0  0  0  0  0  0  0  0
   29.7414  -21.2505   -5.0296 C   0  0  0  0  0  0  0  0  0  0  0  0
   30.9939  -21.4915   -5.8674 C   0  0  0  0  0  0  0  0  0  0  0  0
   28.9861  -20.0464   -5.4857 C   0  0  2  0  0  0  0  0  0  0  0  0
   27.9731  -20.2940   -6.5602 N   0  0  0  0  0  0  0  0  0  0  0  0
   28.7031  -20.6736   -7.7556 C   0  0  0  0  0  0  0  0  0  0  0  0
   27.1186  -19.1020   -6.8142 O   0  0  0  0  0  0  0  0  0  0  0  0
   27.4250  -18.2105   -7.6642 O   0  0  0  0  0  0  0  0  0  0  0  0
  2  1  1  0
  3  2  2  0
  4  2  1  0
  5  6  1  0
  5  4  1  0
  6  7  1  0
  7  8  1  0
  8  9  1  1
 10  8  1  0
 11 10  2  0
 12 10  1  0
 12 16  1  0
 13 14  1  0
 13 12  1  0
 14 15  1  0
 15 16  1  0
 16 17  1  1
 17 18  2  0
 20 19  1  1
 20 22  1  0
 21 20  1  0
 23 22  1  1
 23 24  1  0
 24 17  1  0
 25 23  1  0
 25 27  1  0
 26 25  2  0
M  END
$$$$
