RPL.pdb
     RDKit          3D

 27 27  0  0  1  0  0  0  0  0999 V2000
   19.8414  -22.4314  -14.3324 N   0  0  0  0  0  0  0  0  0  0  0  0
   19.9636  -21.0694  -14.7073 C   0  0  0  0  0  0  0  0  0  0  0  0
   18.9894  -20.4564  -15.2841 N   0  0  0  0  0  0  0  0  0  0  0  0
   21.1682  -20.3625  -14.4490 N   0  0  0  0  0  0  0  0  0  0  0  0
   22.0213  -20.6819  -13.3163 C   0  0  0  0  0  0  0  0  0  0  0  0
   23.2797  -19.8047  -13.3291 C   0  0  0  0  0  0  0  0  0  0  0  0
   24.1253  -20.2056  -12.1453 C   0  0  0  0  0  0  0  0  0  0  0  0
   24.9483  -21.4479  -12.4223 C   0  0  2  0  0  0  0  0  0  0  0  0
   24.1514  -22.5494  -12.8786 N   0  0  0  0  0  0  0  0  0  0  0  0
   25.8991  -21.7422  -11.3546 C   0  0  0  0  0  0  0  0  0  0  0  0
   25.5583  -22.6548  -10.5366 O   0  0  0  0  0  0  0  0  0  0  0  0
   19.0897  -19.4814  -15.5988 N   0  0  0  0  0  0  0  0  0  0  0  0
   27.1640  -21.1126  -11.1362 C   0  0  0  0  0  0  0  0  0  0  0  0
   27.7516  -20.1051  -11.9619 C   0  0  0  0  0  0  0  0  0  0  0  0
   29.2176  -20.1094  -11.6362 C   0  0  0  0  0  0  0  0  0  0  0  0
   29.4160  -21.2959  -10.6827 C   0  0  1  0  0  0  0  0  0  0  0  0
   28.0712  -21.3765  -10.0422 C   0  0  0  0  0  0  0  0  0  0  0  0
   27.8698  -20.4613   -8.9022 O   0  0  0  0  0  0  0  0  0  0  0  0
   27.2572  -19.3860   -9.1268 C   0  0  0  0  0  0  0  0  0  0  0  0
   27.3880  -21.5479   -3.9425 C   0  0  1  0  0  0  0  0  0  0  0  0
   28.6579  -21.6756   -4.7978 C   0  0  0  0  0  0  0  0  0  0  0  0
   29.7472  -22.1559   -3.8430 C   0  0  0  0  0  0  0  0  0  0  0  0
   28.9434  -20.3112   -5.3317 C   0  0  2  0  0  0  0  0  0  0  0  0
   28.0456  -19.8554   -6.4399 N   0  0  0  0  0  0  0  0  0  0  0  0
   28.3145  -20.7063   -7.5843 C   0  0  0  0  0  0  0  0  0  0  0  0
   28.2552  -18.4219   -6.7813 O   0  0  0  0  0  0  0  0  0  0  0  0
   27.6307  -17.4826   -6.1989 O   0  0  0  0  0  0  0  0  0  0  0  0
  2  1  1  0
  3  2  2  0
  4  2  1  0
  5  6  1  0
  5  4  1  0
  6  7  1  0
  7  8  1  0
  8  9  1  1
 10  8  1  0
 11 10  2  0
 12 10  1  0
 12 16  1  0
 13 14  1  0
 13 12  1  0
 14 15  1  0
 15 16  1  0
 16 17  1  1
 17 18  2  0
 20 19  1  6
 20 22  1  0
 21 20  1  0
 23 22  1  1
 23 24  1  0
 24 17  1  0
 25 23  1  0
 25 27  1  0
 26 25  2  0
M  END
$$$$
