RPL.pdb
     RDKit          3D

 27 27  0  0  1  0  0  0  0  0999 V2000
   16.4200  -25.6530  -14.8078 N   0  0  0  0  0  0  0  0  0  0  0  0
   16.2772  -27.0535  -14.9767 C   0  0  0  0  0  0  0  0  0  0  0  0
   15.3564  -27.5332  -15.7380 N   0  0  0  0  0  0  0  0  0  0  0  0
   17.1531  -27.9473  -14.3050 N   0  0  0  0  0  0  0  0  0  0  0  0
   18.1884  -27.4768  -13.3996 C   0  0  0  0  0  0  0  0  0  0  0  0
   18.9349  -28.6631  -12.7763 C   0  0  0  0  0  0  0  0  0  0  0  0
   18.9505  -28.4558  -11.2817 C   0  0  0  0  0  0  0  0  0  0  0  0
   20.1111  -27.5894  -10.8346 C   0  0  2  0  0  0  0  0  0  0  0  0
   21.3659  -28.2826  -10.8720 N   0  0  0  0  0  0  0  0  0  0  0  0
   19.8220  -26.8507   -9.6093 C   0  0  0  0  0  0  0  0  0  0  0  0
   20.4926  -27.1857   -8.5815 O   0  0  0  0  0  0  0  0  0  0  0  0
   15.2666  -28.5482  -15.8850 N   0  0  0  0  0  0  0  0  0  0  0  0
   18.8680  -25.7981   -9.4482 C   0  0  0  0  0  0  0  0  0  0  0  0
   17.9056  -25.3842  -10.4203 C   0  0  0  0  0  0  0  0  0  0  0  0
   17.4863  -23.9988  -10.0203 C   0  0  0  0  0  0  0  0  0  0  0  0
   18.4002  -23.6236   -8.8455 C   0  0  1  0  0  0  0  0  0  0  0  0
   18.7014  -24.9690   -8.2760 C   0  0  0  0  0  0  0  0  0  0  0  0
   17.6812  -25.4937   -7.3478 O   0  0  0  0  0  0  0  0  0  0  0  0
   16.6662  -26.0377   -7.8537 C   0  0  0  0  0  0  0  0  0  0  0  0
   18.0126  -28.4920   -4.3751 C   0  0  1  0  0  0  0  0  0  0  0  0
   18.5814  -27.1633   -3.8543 C   0  0  0  0  0  0  0  0  0  0  0  0
   19.1994  -27.4872   -2.4971 C   0  0  0  0  0  0  0  0  0  0  0  0
   17.4230  -26.2295   -3.7332 C   0  0  2  0  0  0  0  0  0  0  0  0
   16.7387  -25.8865   -5.0201 N   0  0  0  0  0  0  0  0  0  0  0  0
   17.7636  -25.4279   -5.9394 C   0  0  0  0  0  0  0  0  0  0  0  0
   15.6843  -24.8517   -4.8389 O   0  0  0  0  0  0  0  0  0  0  0  0
   15.8656  -23.6318   -5.1396 O   0  0  0  0  0  0  0  0  0  0  0  0
  2  1  1  0
  3  2  2  0
  4  2  1  0
  5  6  1  0
  5  4  1  0
  6  7  1  0
  7  8  1  0
  8  9  1  1
 10  8  1  0
 11 10  2  0
 12 10  1  0
 12 16  1  0
 13 14  1  0
 13 12  1  0
 14 15  1  0
 15 16  1  0
 16 17  1  1
 17 18  2  0
 20 19  1  6
 20 22  1  0
 21 20  1  0
 23 22  1  6
 23 24  1  0
 24 17  1  0
 25 23  1  0
 25 27  1  0
 26 25  2  0
M  END
$$$$
