RPL.pdb
     RDKit          3D

 27 27  0  0  1  0  0  0  0  0999 V2000
   11.0423  -21.3538   -5.8663 N   0  0  0  0  0  0  0  0  0  0  0  0
   12.0825  -22.2301   -6.2668 C   0  0  0  0  0  0  0  0  0  0  0  0
   12.2902  -22.4775   -7.5130 N   0  0  0  0  0  0  0  0  0  0  0  0
   12.9116  -22.8474   -5.2927 N   0  0  0  0  0  0  0  0  0  0  0  0
   12.5681  -22.8531   -3.8803 C   0  0  0  0  0  0  0  0  0  0  0  0
   13.5694  -22.0088   -3.0818 C   0  0  0  0  0  0  0  0  0  0  0  0
   13.1210  -22.0137   -1.6409 C   0  0  0  0  0  0  0  0  0  0  0  0
   13.7341  -23.1541   -0.8529 C   0  0  2  0  0  0  0  0  0  0  0  0
   13.0987  -24.4127   -1.1153 N   0  0  0  0  0  0  0  0  0  0  0  0
   13.9398  -22.8195    0.5529 C   0  0  0  0  0  0  0  0  0  0  0  0
   13.0721  -23.2673    1.3683 O   0  0  0  0  0  0  0  0  0  0  0  0
   13.0753  -23.0731   -7.8109 N   0  0  0  0  0  0  0  0  0  0  0  0
   15.0085  -22.0444    1.1017 C   0  0  0  0  0  0  0  0  0  0  0  0
   16.1074  -21.4971    0.3701 C   0  0  0  0  0  0  0  0  0  0  0  0
   17.1746  -21.2072    1.3861 C   0  0  0  0  0  0  0  0  0  0  0  0
   16.6394  -21.7761    2.7075 C   0  0  1  0  0  0  0  0  0  0  0  0
   15.1675  -21.6714    2.4891 C   0  0  0  0  0  0  0  0  0  0  0  0
   14.5864  -20.3495    2.7934 O   0  0  0  0  0  0  0  0  0  0  0  0
   14.5457  -19.5082    1.8592 C   0  0  0  0  0  0  0  0  0  0  0  0
   10.3296  -18.7445    6.7467 C   0  0  1  0  0  0  0  0  0  0  0  0
   11.1299  -18.1980    5.5545 C   0  0  0  0  0  0  0  0  0  0  0  0
   10.1080  -17.9779    4.4427 C   0  0  0  0  0  0  0  0  0  0  0  0
   12.1256  -19.2517    5.1989 C   0  0  2  0  0  0  0  0  0  0  0  0
   13.2337  -18.8079    4.2950 N   0  0  0  0  0  0  0  0  0  0  0  0
   14.0760  -19.9646    4.0528 C   0  0  0  0  0  0  0  0  0  0  0  0
   14.0219  -17.6880    4.8781 O   0  0  0  0  0  0  0  0  0  0  0  0
   13.5781  -16.5004    4.9406 O   0  0  0  0  0  0  0  0  0  0  0  0
  2  1  1  0
  3  2  2  0
  4  2  1  0
  5  6  1  0
  5  4  1  0
  6  7  1  0
  7  8  1  0
  8  9  1  1
 10  8  1  0
 11 10  2  0
 12 10  1  0
 12 16  1  0
 13 14  1  0
 13 12  1  0
 14 15  1  0
 15 16  1  0
 16 17  1  1
 17 18  2  0
 20 19  1  1
 20 22  1  0
 21 20  1  0
 23 22  1  6
 23 24  1  0
 24 17  1  0
 25 23  1  0
 25 27  1  0
 26 25  2  0
M  END
$$$$
