RPL.pdb
     RDKit          3D

 27 27  0  0  1  0  0  0  0  0999 V2000
   30.9566  -23.7990  -14.7565 N   0  0  0  0  0  0  0  0  0  0  0  0
   30.6908  -24.0970  -16.1170 C   0  0  0  0  0  0  0  0  0  0  0  0
   30.8828  -25.2829  -16.5798 N   0  0  0  0  0  0  0  0  0  0  0  0
   30.2068  -23.0855  -16.9887 N   0  0  0  0  0  0  0  0  0  0  0  0
   29.8065  -21.7756  -16.5021 C   0  0  0  0  0  0  0  0  0  0  0  0
   28.5111  -21.8797  -15.6870 C   0  0  0  0  0  0  0  0  0  0  0  0
   27.3689  -21.5039  -16.5988 C   0  0  0  0  0  0  0  0  0  0  0  0
   26.8915  -20.0843  -16.3657 C   0  0  2  0  0  0  0  0  0  0  0  0
   27.8015  -19.1028  -16.8807 N   0  0  0  0  0  0  0  0  0  0  0  0
   26.4170  -19.8673  -15.0026 C   0  0  0  0  0  0  0  0  0  0  0  0
   27.1146  -19.0822  -14.2847 O   0  0  0  0  0  0  0  0  0  0  0  0
   30.7802  -25.4821  -17.5846 N   0  0  0  0  0  0  0  0  0  0  0  0
   25.2576  -20.4442  -14.3968 C   0  0  0  0  0  0  0  0  0  0  0  0
   24.4473  -21.4794  -14.9573 C   0  0  0  0  0  0  0  0  0  0  0  0
   23.1336  -21.4115  -14.2330 C   0  0  0  0  0  0  0  0  0  0  0  0
   23.2285  -20.1663  -13.3404 C   0  0  1  0  0  0  0  0  0  0  0  0
   24.7005  -20.0899  -13.1110 C   0  0  0  0  0  0  0  0  0  0  0  0
   25.2043  -20.9434  -12.0175 O   0  0  0  0  0  0  0  0  0  0  0  0
   25.9783  -21.8843  -12.3299 C   0  0  0  0  0  0  0  0  0  0  0  0
   28.8282  -19.6956   -9.5387 C   0  0  1  0  0  0  0  0  0  0  0  0
   27.3304  -19.8287   -9.2239 C   0  0  0  0  0  0  0  0  0  0  0  0
   27.2027  -19.5670   -7.7259 C   0  0  0  0  0  0  0  0  0  0  0  0
   26.9487  -21.2266   -9.5824 C   0  0  1  0  0  0  0  0  0  0  0  0
   25.4800  -21.5169   -9.5567 N   0  0  0  0  0  0  0  0  0  0  0  0
   24.8800  -20.7791  -10.6528 C   0  0  0  0  0  0  0  0  0  0  0  0
   24.8547  -21.1439   -8.2584 O   0  0  0  0  0  0  0  0  0  0  0  0
   25.0863  -21.7760   -7.1822 O   0  0  0  0  0  0  0  0  0  0  0  0
  2  1  1  0
  3  2  2  0
  4  2  1  0
  5  6  1  0
  5  4  1  0
  6  7  1  0
  7  8  1  0
  8  9  1  1
 10  8  1  0
 11 10  2  0
 12 10  1  0
 12 16  1  0
 13 14  1  0
 13 12  1  0
 14 15  1  0
 15 16  1  0
 16 17  1  1
 17 18  2  0
 20 19  1  6
 20 22  1  0
 21 20  1  0
 23 22  1  6
 23 24  1  0
 24 17  1  0
 25 23  1  0
 25 27  1  0
 26 25  2  0
M  END
$$$$
