RFF.pdb
     RDKit          3D

 34 35  0  0  1  0  0  0  0  0999 V2000
    5.7154  -18.9583   23.7519 N   0  0  0  0  0  0  0  0  0  0  0  0
    6.1914  -20.2954   23.8985 C   0  0  0  0  0  0  0  0  0  0  0  0
    5.9756  -20.9320   24.9853 N   0  0  0  0  0  0  0  0  0  0  0  0
    6.9084  -20.9467   22.8557 N   0  0  0  0  0  0  0  0  0  0  0  0
    7.4267  -20.2568   21.7018 C   0  0  0  0  0  0  0  0  0  0  0  0
    8.7141  -19.5461   22.0250 C   0  0  0  0  0  0  0  0  0  0  0  0
    9.7064  -19.6214   20.8848 C   0  0  0  0  0  0  0  0  0  0  0  0
    9.7528  -18.3262   20.1086 C   0  0  2  0  0  0  0  0  0  0  0  0
   10.6772  -18.3558   19.0196 N   0  0  0  0  0  0  0  0  0  0  0  0
   10.0795  -17.2364   21.0889 C   0  0  0  0  0  0  0  0  0  0  0  0
   11.2728  -16.9039   21.3023 O   0  0  0  0  0  0  0  0  0  0  0  0
    6.3316  -21.8899   25.1099 N   0  0  0  0  0  0  0  0  0  0  0  0
    9.0671  -16.5479   21.8041 C   0  0  2  0  0  0  0  0  0  0  0  0
    9.3146  -15.4392   22.6946 C   0  0  0  0  0  0  0  0  0  0  0  0
    8.1323  -14.4964   22.7702 C   0  0  0  0  0  0  0  0  0  0  0  0
    7.8811  -13.8025   21.4818 C   0  0  0  0  0  0  0  0  0  0  0  0
    6.9091  -14.2651   20.5973 C   0  0  0  0  0  0  0  0  0  0  0  0
    6.6640  -13.6338   19.3997 C   0  0  0  0  0  0  0  0  0  0  0  0
    7.3621  -12.5227   19.0200 C   0  0  0  0  0  0  0  0  0  0  0  0
    8.3340  -12.0433   19.8823 C   0  0  0  0  0  0  0  0  0  0  0  0
    8.5795  -12.6812   21.0892 C   0  0  0  0  0  0  0  0  0  0  0  0
    9.5797  -15.9167   24.0719 O   0  0  0  0  0  0  0  0  0  0  0  0
   10.7520  -15.8731   24.5099 N   0  0  0  0  0  0  0  0  0  0  0  0
    8.5692  -16.4234   24.9246 C   0  0  1  0  0  0  0  0  0  0  0  0
    8.8031  -16.7134   26.3463 C   0  0  0  0  0  0  0  0  0  0  0  0
    7.5998  -16.2261   27.0857 C   0  0  0  0  0  0  0  0  0  0  0  0
    7.2663  -14.8203   26.8793 C   0  0  0  0  0  0  0  0  0  0  0  0
    6.0825  -14.4911   26.2514 C   0  0  0  0  0  0  0  0  0  0  0  0
    5.7095  -13.1647   26.0269 C   0  0  0  0  0  0  0  0  0  0  0  0
    6.5480  -12.1451   26.4443 C   0  0  0  0  0  0  0  0  0  0  0  0
    7.7332  -12.4548   27.0726 C   0  0  0  0  0  0  0  0  0  0  0  0
    8.0875  -13.7916   27.2875 C   0  0  0  0  0  0  0  0  0  0  0  0
    9.0531  -18.1512   26.4533 O   0  0  0  0  0  0  0  0  0  0  0  0
    9.0275  -19.0331   25.3693 O   0  0  0  0  0  0  0  0  0  0  0  0
  2  3  2  0
  2  1  1  0
  4  2  1  0
  5  4  1  0
  6  7  1  0
  6  5  1  0
  8  9  1  6
  8  7  1  0
 10 12  1  0
 10  8  1  0
 11 10  2  0
 13 21  1  0
 13 14  1  6
 13 12  1  0
 15 16  2  0
 15 14  1  0
 17 16  1  0
 18 17  2  0
 19 18  1  0
 19 20  2  0
 20 15  1  0
 21 23  1  0
 22 21  2  0
 23 24  1  0
 24 25  1  1
 25 26  1  0
 26 27  2  0
 26 31  1  0
 27 28  1  0
 28 29  2  0
 30 29  1  0
 31 30  2  0
 32 33  1  0
 32 24  1  0
 34 32  2  0
M  END
$$$$
