RFF.pdb
     RDKit          3D

 34 35  0  0  1  0  0  0  0  0999 V2000
   13.2008  -17.9046   16.8614 N   0  0  0  0  0  0  0  0  0  0  0  0
   12.9759  -19.2934   17.0994 C   0  0  0  0  0  0  0  0  0  0  0  0
   13.8393  -20.1530   16.7137 N   0  0  0  0  0  0  0  0  0  0  0  0
   11.8029  -19.7526   17.7618 N   0  0  0  0  0  0  0  0  0  0  0  0
   10.7756  -18.8701   18.2537 C   0  0  0  0  0  0  0  0  0  0  0  0
   11.2549  -18.0892   19.4484 C   0  0  0  0  0  0  0  0  0  0  0  0
   10.1909  -17.1531   19.9794 C   0  0  0  0  0  0  0  0  0  0  0  0
    9.6119  -17.6586   21.2800 C   0  0  2  0  0  0  0  0  0  0  0  0
    8.3207  -18.2512   21.1284 N   0  0  0  0  0  0  0  0  0  0  0  0
    9.5848  -16.4968   22.2314 C   0  0  0  0  0  0  0  0  0  0  0  0
   10.6062  -15.7840   22.4004 O   0  0  0  0  0  0  0  0  0  0  0  0
   13.6849  -21.1580   16.8750 N   0  0  0  0  0  0  0  0  0  0  0  0
    8.4202  -16.1622   22.9676 C   0  0  1  0  0  0  0  0  0  0  0  0
    8.3684  -15.1349   23.9803 C   0  0  0  0  0  0  0  0  0  0  0  0
    6.9739  -14.5681   24.1436 C   0  0  0  0  0  0  0  0  0  0  0  0
    6.9041  -13.5420   25.2146 C   0  0  0  0  0  0  0  0  0  0  0  0
    6.2454  -13.8032   26.4141 C   0  0  0  0  0  0  0  0  0  0  0  0
    6.1715  -12.8635   27.4164 C   0  0  0  0  0  0  0  0  0  0  0  0
    6.7407  -11.6288   27.2836 C   0  0  0  0  0  0  0  0  0  0  0  0
    7.4014  -11.3450   26.1000 C   0  0  0  0  0  0  0  0  0  0  0  0
    7.4747  -12.2937   25.0908 C   0  0  0  0  0  0  0  0  0  0  0  0
    8.7776  -15.6717   25.2991 O   0  0  0  0  0  0  0  0  0  0  0  0
    8.0802  -16.5672   25.8283 N   0  0  0  0  0  0  0  0  0  0  0  0
    9.9244  -15.2218   25.9972 C   0  0  1  0  0  0  0  0  0  0  0  0
   10.3312  -15.7775   27.2956 C   0  0  0  0  0  0  0  0  0  0  0  0
   11.6025  -16.5265   27.0606 C   0  0  0  0  0  0  0  0  0  0  0  0
   11.4589  -17.7952   26.3536 C   0  0  0  0  0  0  0  0  0  0  0  0
   11.9157  -17.9018   25.0560 C   0  0  0  0  0  0  0  0  0  0  0  0
   11.8066  -19.0891   24.3298 C   0  0  0  0  0  0  0  0  0  0  0  0
   11.2237  -20.1956   24.9237 C   0  0  0  0  0  0  0  0  0  0  0  0
   10.7622  -20.1076   26.2178 C   0  0  0  0  0  0  0  0  0  0  0  0
   10.8818  -18.9073   26.9276 C   0  0  0  0  0  0  0  0  0  0  0  0
   10.4399  -14.6534   28.2260 O   0  0  0  0  0  0  0  0  0  0  0  0
   10.4999  -14.7904   29.6157 O   0  0  0  0  0  0  0  0  0  0  0  0
  2  3  2  0
  2  1  1  0
  4  2  1  0
  5  4  1  0
  6  7  1  0
  6  5  1  0
  8  9  1  6
  8  7  1  0
 10 12  1  0
 10  8  1  0
 11 10  2  0
 13 21  1  0
 13 14  1  1
 13 12  1  0
 15 16  2  0
 15 14  1  0
 17 16  1  0
 18 17  2  0
 19 18  1  0
 19 20  2  0
 20 15  1  0
 21 23  1  0
 22 21  2  0
 23 24  1  0
 24 25  1  1
 25 26  1  0
 26 27  2  0
 26 31  1  0
 27 28  1  0
 28 29  2  0
 30 29  1  0
 31 30  2  0
 32 33  1  0
 32 24  1  0
 34 32  2  0
M  END
$$$$
