RFF.pdb
     RDKit          3D

 34 35  0  0  1  0  0  0  0  0999 V2000
    7.2226  -21.7627   16.0864 N   0  0  0  0  0  0  0  0  0  0  0  0
    7.0643  -22.2183   17.4293 C   0  0  0  0  0  0  0  0  0  0  0  0
    5.9032  -22.5292   17.8630 N   0  0  0  0  0  0  0  0  0  0  0  0
    8.1769  -22.3370   18.3089 N   0  0  0  0  0  0  0  0  0  0  0  0
    8.8884  -21.2030   18.8416 C   0  0  0  0  0  0  0  0  0  0  0  0
    8.3953  -20.8489   20.2195 C   0  0  0  0  0  0  0  0  0  0  0  0
    9.2620  -19.7993   20.8808 C   0  0  0  0  0  0  0  0  0  0  0  0
    9.3497  -18.5476   20.0395 C   0  0  2  0  0  0  0  0  0  0  0  0
   10.3430  -18.6264   19.0156 N   0  0  0  0  0  0  0  0  0  0  0  0
    9.6046  -17.4030   20.9778 C   0  0  0  0  0  0  0  0  0  0  0  0
   10.7741  -17.1238   21.3442 O   0  0  0  0  0  0  0  0  0  0  0  0
    5.7871  -22.9367   18.8013 N   0  0  0  0  0  0  0  0  0  0  0  0
    8.5488  -16.6018   21.4815 C   0  0  2  0  0  0  0  0  0  0  0  0
    8.7302  -15.5114   22.4098 C   0  0  0  0  0  0  0  0  0  0  0  0
    7.6756  -14.4385   22.2390 C   0  0  0  0  0  0  0  0  0  0  0  0
    7.8558  -13.6653   20.9843 C   0  0  0  0  0  0  0  0  0  0  0  0
    9.0256  -13.7779   20.2360 C   0  0  0  0  0  0  0  0  0  0  0  0
    9.2084  -13.0685   19.0713 C   0  0  0  0  0  0  0  0  0  0  0  0
    8.2514  -12.2194   18.5925 C   0  0  0  0  0  0  0  0  0  0  0  0
    7.0793  -12.0902   19.3187 C   0  0  0  0  0  0  0  0  0  0  0  0
    6.8970  -12.8062   20.4925 C   0  0  0  0  0  0  0  0  0  0  0  0
    8.6430  -15.9890   23.8096 O   0  0  0  0  0  0  0  0  0  0  0  0
    7.7823  -16.8510   24.1000 N   0  0  0  0  0  0  0  0  0  0  0  0
    9.4882  -15.5181   24.8434 C   0  0  2  0  0  0  0  0  0  0  0  0
    9.3577  -15.9620   26.2384 C   0  0  0  0  0  0  0  0  0  0  0  0
    7.9093  -15.8527   26.5882 C   0  0  0  0  0  0  0  0  0  0  0  0
    7.3779  -14.4941   26.6324 C   0  0  0  0  0  0  0  0  0  0  0  0
    6.1090  -14.2481   26.1494 C   0  0  0  0  0  0  0  0  0  0  0  0
    5.5473  -12.9702   26.1659 C   0  0  0  0  0  0  0  0  0  0  0  0
    6.2802  -11.9145   26.6808 C   0  0  0  0  0  0  0  0  0  0  0  0
    7.5481  -12.1412   27.1671 C   0  0  0  0  0  0  0  0  0  0  0  0
    8.0917  -13.4306   27.1408 C   0  0  0  0  0  0  0  0  0  0  0  0
    9.9095  -17.3155   26.3091 O   0  0  0  0  0  0  0  0  0  0  0  0
   10.2025  -17.9800   27.5033 O   0  0  0  0  0  0  0  0  0  0  0  0
  2  3  2  0
  2  1  1  0
  4  2  1  0
  5  4  1  0
  6  7  1  0
  6  5  1  0
  8  9  1  6
  8  7  1  0
 10 12  1  0
 10  8  1  0
 11 10  2  0
 13 21  1  0
 13 14  1  6
 13 12  1  0
 15 16  2  0
 15 14  1  0
 17 16  1  0
 18 17  2  0
 19 18  1  0
 19 20  2  0
 20 15  1  0
 21 23  1  0
 22 21  2  0
 23 24  1  0
 24 25  1  6
 25 26  1  0
 26 27  2  0
 26 31  1  0
 27 28  1  0
 28 29  2  0
 30 29  1  0
 31 30  2  0
 32 33  1  0
 32 24  1  0
 34 32  2  0
M  END
$$$$
