RFF.pdb
     RDKit          3D

 34 35  0  0  1  0  0  0  0  0999 V2000
    7.3532  -18.6546   16.9155 N   0  0  0  0  0  0  0  0  0  0  0  0
    8.6997  -18.9631   16.5578 C   0  0  0  0  0  0  0  0  0  0  0  0
    9.3590  -18.1625   15.8113 N   0  0  0  0  0  0  0  0  0  0  0  0
    9.3354  -20.1517   17.0147 N   0  0  0  0  0  0  0  0  0  0  0  0
    8.6712  -21.1441   17.8209 C   0  0  0  0  0  0  0  0  0  0  0  0
    8.4110  -20.6304   19.2120 C   0  0  0  0  0  0  0  0  0  0  0  0
    9.5652  -20.9160   20.1483 C   0  0  0  0  0  0  0  0  0  0  0  0
    9.2912  -20.3885   21.5372 C   0  0  2  0  0  0  0  0  0  0  0  0
    7.9976  -20.7435   22.0288 N   0  0  0  0  0  0  0  0  0  0  0  0
    9.4807  -18.8994   21.4882 C   0  0  0  0  0  0  0  0  0  0  0  0
   10.6007  -18.4057   21.2022 O   0  0  0  0  0  0  0  0  0  0  0  0
   10.2995  -18.4143   15.4765 N   0  0  0  0  0  0  0  0  0  0  0  0
    8.4166  -18.0025   21.7595 C   0  0  1  0  0  0  0  0  0  0  0  0
    8.5214  -16.5663   21.6603 C   0  0  0  0  0  0  0  0  0  0  0  0
    7.1730  -15.9117   21.4465 C   0  0  0  0  0  0  0  0  0  0  0  0
    7.2829  -14.4434   21.2552 C   0  0  0  0  0  0  0  0  0  0  0  0
    7.5672  -13.9042   20.0024 C   0  0  0  0  0  0  0  0  0  0  0  0
    7.6724  -12.5462   19.8083 C   0  0  0  0  0  0  0  0  0  0  0  0
    7.5032  -11.6609   20.8348 C   0  0  0  0  0  0  0  0  0  0  0  0
    7.2197  -12.1725   22.0901 C   0  0  0  0  0  0  0  0  0  0  0  0
    7.1140  -13.5419   22.2837 C   0  0  0  0  0  0  0  0  0  0  0  0
    9.0930  -15.9913   22.9003 O   0  0  0  0  0  0  0  0  0  0  0  0
    9.7184  -14.9086   22.8303 N   0  0  0  0  0  0  0  0  0  0  0  0
    8.9682  -16.6067   24.1694 C   0  0  1  0  0  0  0  0  0  0  0  0
    9.5611  -16.0382   25.3881 C   0  0  0  0  0  0  0  0  0  0  0  0
    8.4239  -15.6099   26.2573 C   0  0  0  0  0  0  0  0  0  0  0  0
    8.0267  -14.2119   26.1230 C   0  0  0  0  0  0  0  0  0  0  0  0
    6.7036  -13.9050   25.8804 C   0  0  0  0  0  0  0  0  0  0  0  0
    6.2642  -12.5871   25.7433 C   0  0  0  0  0  0  0  0  0  0  0  0
    7.1784  -11.5531   25.8530 C   0  0  0  0  0  0  0  0  0  0  0  0
    8.5029  -11.8405   26.0950 C   0  0  0  0  0  0  0  0  0  0  0  0
    8.9216  -13.1692   26.2290 C   0  0  0  0  0  0  0  0  0  0  0  0
   10.4240  -17.0700   25.9645 O   0  0  0  0  0  0  0  0  0  0  0  0
   11.3232  -16.8441   27.0104 O   0  0  0  0  0  0  0  0  0  0  0  0
  2  3  2  0
  2  1  1  0
  4  2  1  0
  5  4  1  0
  6  7  1  0
  6  5  1  0
  8  9  1  6
  8  7  1  0
 10 12  1  0
 10  8  1  0
 11 10  2  0
 13 21  1  0
 13 14  1  1
 13 12  1  0
 15 16  2  0
 15 14  1  0
 17 16  1  0
 18 17  2  0
 19 18  1  0
 19 20  2  0
 20 15  1  0
 21 23  1  0
 22 21  2  0
 23 24  1  0
 24 25  1  1
 25 26  1  0
 26 27  2  0
 26 31  1  0
 27 28  1  0
 28 29  2  0
 30 29  1  0
 31 30  2  0
 32 33  1  0
 32 24  1  0
 34 32  2  0
M  END
$$$$
