RFF.pdb
     RDKit          3D

 34 35  0  0  1  0  0  0  0  0999 V2000
    9.0615  -12.4314   18.4614 N   0  0  0  0  0  0  0  0  0  0  0  0
    8.4153  -13.6171   18.0001 C   0  0  0  0  0  0  0  0  0  0  0  0
    7.2547  -13.9212   18.4397 N   0  0  0  0  0  0  0  0  0  0  0  0
    9.0355  -14.4800   17.0533 N   0  0  0  0  0  0  0  0  0  0  0  0
    9.4322  -15.8317   17.3561 C   0  0  0  0  0  0  0  0  0  0  0  0
    8.4491  -16.4925   18.2855 C   0  0  0  0  0  0  0  0  0  0  0  0
    9.0877  -16.8905   19.5985 C   0  0  0  0  0  0  0  0  0  0  0  0
    8.3794  -18.0715   20.2198 C   0  0  2  0  0  0  0  0  0  0  0  0
    7.4493  -18.6987   19.3352 N   0  0  0  0  0  0  0  0  0  0  0  0
    7.7131  -17.5769   21.4716 C   0  0  0  0  0  0  0  0  0  0  0  0
    6.4597  -17.5346   21.5557 O   0  0  0  0  0  0  0  0  0  0  0  0
    6.7740  -14.7680   18.1052 N   0  0  0  0  0  0  0  0  0  0  0  0
    8.4625  -17.1432   22.5944 C   0  0  1  0  0  0  0  0  0  0  0  0
    8.2642  -15.8792   23.2625 C   0  0  0  0  0  0  0  0  0  0  0  0
    6.9213  -15.8089   23.9583 C   0  0  0  0  0  0  0  0  0  0  0  0
    6.7802  -14.5870   24.7899 C   0  0  0  0  0  0  0  0  0  0  0  0
    6.5080  -14.6766   26.1533 C   0  0  0  0  0  0  0  0  0  0  0  0
    6.3743  -13.5542   26.9378 C   0  0  0  0  0  0  0  0  0  0  0  0
    6.5021  -12.2976   26.4175 C   0  0  0  0  0  0  0  0  0  0  0  0
    6.7728  -12.1822   25.0643 C   0  0  0  0  0  0  0  0  0  0  0  0
    6.9072  -13.3149   24.2751 C   0  0  0  0  0  0  0  0  0  0  0  0
    9.3024  -15.6592   24.2962 O   0  0  0  0  0  0  0  0  0  0  0  0
    9.7333  -14.4979   24.4804 N   0  0  0  0  0  0  0  0  0  0  0  0
    9.8366  -16.7012   25.0924 C   0  0  1  0  0  0  0  0  0  0  0  0
   11.2800  -16.8721   25.3107 C   0  0  0  0  0  0  0  0  0  0  0  0
   11.8097  -15.5394   25.7300 C   0  0  0  0  0  0  0  0  0  0  0  0
   11.2892  -15.0297   26.9946 C   0  0  0  0  0  0  0  0  0  0  0  0
   10.7233  -13.7720   27.0353 C   0  0  0  0  0  0  0  0  0  0  0  0
   10.2083  -13.2317   28.2150 C   0  0  0  0  0  0  0  0  0  0  0  0
   10.2642  -13.9749   29.3817 C   0  0  0  0  0  0  0  0  0  0  0  0
   10.8253  -15.2320   29.3600 C   0  0  0  0  0  0  0  0  0  0  0  0
   11.3357  -15.7542   28.1660 C   0  0  0  0  0  0  0  0  0  0  0  0
   11.4388  -17.9386   26.2999 O   0  0  0  0  0  0  0  0  0  0  0  0
   10.3733  -18.6235   26.8907 O   0  0  0  0  0  0  0  0  0  0  0  0
  2  3  2  0
  2  1  1  0
  4  2  1  0
  5  4  1  0
  6  7  1  0
  6  5  1  0
  8  9  1  6
  8  7  1  0
 10 12  1  0
 10  8  1  0
 11 10  2  0
 13 21  1  0
 13 14  1  6
 13 12  1  0
 15 16  2  0
 15 14  1  0
 17 16  1  0
 18 17  2  0
 19 18  1  0
 19 20  2  0
 20 15  1  0
 21 23  1  0
 22 21  2  0
 23 24  1  0
 24 25  1  6
 25 26  1  0
 26 27  2  0
 26 31  1  0
 27 28  1  0
 28 29  2  0
 30 29  1  0
 31 30  2  0
 32 33  1  0
 32 24  1  0
 34 32  2  0
M  END
$$$$
