RFF.pdb
     RDKit          3D

 34 35  0  0  1  0  0  0  0  0999 V2000
   11.9626  -20.5210   17.1205 N   0  0  0  0  0  0  0  0  0  0  0  0
   12.0522  -21.0735   18.4331 C   0  0  0  0  0  0  0  0  0  0  0  0
   12.9389  -21.9563   18.6926 N   0  0  0  0  0  0  0  0  0  0  0  0
   11.1707  -20.6637   19.4726 N   0  0  0  0  0  0  0  0  0  0  0  0
   10.5871  -19.3482   19.5421 C   0  0  0  0  0  0  0  0  0  0  0  0
   11.6204  -18.3120   19.8962 C   0  0  0  0  0  0  0  0  0  0  0  0
   11.2899  -17.5987   21.1893 C   0  0  0  0  0  0  0  0  0  0  0  0
    9.8407  -17.1739   21.2291 C   0  0  2  0  0  0  0  0  0  0  0  0
    9.3427  -16.7529   19.9578 N   0  0  0  0  0  0  0  0  0  0  0  0
    9.7279  -16.0881   22.2605 C   0  0  0  0  0  0  0  0  0  0  0  0
   10.7175  -15.3652   22.5397 O   0  0  0  0  0  0  0  0  0  0  0  0
   13.0323  -22.3401   19.6434 N   0  0  0  0  0  0  0  0  0  0  0  0
    8.5153  -15.8385   22.9517 C   0  0  2  0  0  0  0  0  0  0  0  0
    8.3862  -14.9182   24.0562 C   0  0  0  0  0  0  0  0  0  0  0  0
    6.9643  -14.4252   24.2216 C   0  0  0  0  0  0  0  0  0  0  0  0
    6.8448  -13.3939   25.2830 C   0  0  0  0  0  0  0  0  0  0  0  0
    7.3204  -12.1001   25.0807 C   0  0  0  0  0  0  0  0  0  0  0  0
    7.2175  -11.1329   26.0539 C   0  0  0  0  0  0  0  0  0  0  0  0
    6.6439  -11.3947   27.2657 C   0  0  0  0  0  0  0  0  0  0  0  0
    6.1634  -12.6739   27.4911 C   0  0  0  0  0  0  0  0  0  0  0  0
    6.2681  -13.6475   26.5088 C   0  0  0  0  0  0  0  0  0  0  0  0
    8.7740  -15.5653   25.3313 O   0  0  0  0  0  0  0  0  0  0  0  0
    8.1064  -16.5434   25.7385 N   0  0  0  0  0  0  0  0  0  0  0  0
    9.8680  -15.1323   26.1191 C   0  0  1  0  0  0  0  0  0  0  0  0
   10.3014  -15.8404   27.3318 C   0  0  0  0  0  0  0  0  0  0  0  0
   11.7931  -15.9065   27.2782 C   0  0  0  0  0  0  0  0  0  0  0  0
   12.3469  -16.5916   26.1145 C   0  0  0  0  0  0  0  0  0  0  0  0
   12.5190  -17.9600   26.1537 C   0  0  0  0  0  0  0  0  0  0  0  0
   13.0430  -18.6698   25.0718 C   0  0  0  0  0  0  0  0  0  0  0  0
   13.4024  -17.9860   23.9229 C   0  0  0  0  0  0  0  0  0  0  0  0
   13.2378  -16.6203   23.8658 C   0  0  0  0  0  0  0  0  0  0  0  0
   12.7104  -15.9287   24.9623 C   0  0  0  0  0  0  0  0  0  0  0  0
    9.7568  -15.1047   28.4735 O   0  0  0  0  0  0  0  0  0  0  0  0
    9.8148  -15.5556   29.7951 O   0  0  0  0  0  0  0  0  0  0  0  0
  2  3  2  0
  2  1  1  0
  4  2  1  0
  5  4  1  0
  6  7  1  0
  6  5  1  0
  8  9  1  6
  8  7  1  0
 10 12  1  0
 10  8  1  0
 11 10  2  0
 13 21  1  0
 13 14  1  6
 13 12  1  0
 15 16  2  0
 15 14  1  0
 17 16  1  0
 18 17  2  0
 19 18  1  0
 19 20  2  0
 20 15  1  0
 21 23  1  0
 22 21  2  0
 23 24  1  0
 24 25  1  1
 25 26  1  0
 26 27  2  0
 26 31  1  0
 27 28  1  0
 28 29  2  0
 30 29  1  0
 31 30  2  0
 32 33  1  0
 32 24  1  0
 34 32  2  0
M  END
$$$$
