ETN.pdb
     RDKit          3D

 25 24  0  0  1  0  0  0  0  0999 V2000
   17.3309  -12.5262  -16.5254 N   0  0  0  0  0  0  0  0  0  0  0  0
   18.2849  -11.5860  -17.1518 C   0  0  1  0  0  0  0  0  0  0  0  0
   17.4371  -10.5410  -17.8078 C   0  0  0  0  0  0  0  0  0  0  0  0
   16.3487   -9.9706  -16.9671 C   0  0  0  0  0  0  0  0  0  0  0  0
   15.6355   -8.8428  -17.5948 C   0  0  0  0  0  0  0  0  0  0  0  0
   14.7238   -8.2326  -16.9924 O   0  0  0  0  0  0  0  0  0  0  0  0
   19.1429  -10.9747  -16.1075 C   0  0  0  0  0  0  0  0  0  0  0  0
   18.7987  -10.8236  -14.9225 O   0  0  0  0  0  0  0  0  0  0  0  0
   15.9713   -8.4352  -18.8851 O   0  0  0  0  0  0  0  0  0  0  0  0
   23.6502   -9.6947  -14.6417 C   0  0  0  0  0  0  0  0  0  0  0  0
   22.7022  -10.3319  -15.6310 C   0  0  1  0  0  0  0  0  0  0  0  0
   22.6931  -11.7042  -15.3462 O   0  0  0  0  0  0  0  0  0  0  0  0
   21.2821   -9.8328  -15.4410 C   0  0  2  0  0  0  0  0  0  0  0  0
   20.4649  -10.5099  -16.4292 N   0  0  0  0  0  0  0  0  0  0  0  0
   21.3025   -8.3535  -15.6962 C   0  0  0  0  0  0  0  0  0  0  0  0
   20.9652   -7.8840  -16.8236 O   0  0  0  0  0  0  0  0  0  0  0  0
   21.1186   -3.3230  -15.4313 N   0  0  0  0  0  0  0  0  0  0  0  0
   20.0129   -4.2021  -15.5037 C   0  0  0  0  0  0  0  0  0  0  0  0
   18.8809   -3.7299  -15.7458 O   0  0  0  0  0  0  0  0  0  0  0  0
   20.2081   -5.6342  -15.2966 C   0  0  0  0  0  0  0  0  0  0  0  0
   21.6338   -5.9955  -14.9474 C   0  0  2  0  0  0  0  0  0  0  0  0
   21.6936   -7.4256  -14.7045 N   0  0  0  0  0  0  0  0  0  0  0  0
   22.1365   -5.2201  -13.7895 C   0  0  0  0  0  0  0  0  0  0  0  0
   23.0067   -4.1769  -14.0565 O   0  0  0  0  0  0  0  0  0  0  0  0
   21.8283   -5.4469  -12.6122 O   0  0  0  0  0  0  0  0  0  0  0  0
  2  1  1  1
  2  7  1  0
  3  2  1  0
  4  5  1  0
  4  3  1  0
  5  9  1  0
  6  5  2  0
  7 14  1  0
  7  8  2  0
 11 10  1  1
 12 11  1  0
 13 11  1  0
 13 14  1  6
 15 13  1  0
 15 22  1  0
 16 15  2  0
 18 17  1  0
 19 18  2  0
 21 20  1  1
 20 18  1  0
 21 22  1  0
 21 23  1  0
 23 24  1  0
 25 23  2  0
M  END
$$$$
