ETN.pdb
     RDKit          3D

 25 24  0  0  1  0  0  0  0  0999 V2000
   17.4785  -12.9617  -17.6348 N   0  0  0  0  0  0  0  0  0  0  0  0
   18.7453  -12.4742  -17.0484 C   0  0  1  0  0  0  0  0  0  0  0  0
   19.7796  -13.4790  -17.4508 C   0  0  0  0  0  0  0  0  0  0  0  0
   19.5569  -14.8672  -16.9610 C   0  0  0  0  0  0  0  0  0  0  0  0
   20.6680  -15.7914  -17.2541 C   0  0  0  0  0  0  0  0  0  0  0  0
   21.6719  -15.4182  -17.9016 O   0  0  0  0  0  0  0  0  0  0  0  0
   19.0749  -11.1407  -17.6081 C   0  0  0  0  0  0  0  0  0  0  0  0
   19.5162  -10.9557  -18.7555 O   0  0  0  0  0  0  0  0  0  0  0  0
   20.6147  -17.1113  -16.8082 O   0  0  0  0  0  0  0  0  0  0  0  0
   16.9401   -8.3802  -18.3961 C   0  0  0  0  0  0  0  0  0  0  0  0
   17.9058   -7.8531  -17.3604 C   0  0  1  0  0  0  0  0  0  0  0  0
   17.3012   -8.0566  -16.1124 O   0  0  0  0  0  0  0  0  0  0  0  0
   19.2019   -8.6417  -17.3562 C   0  0  2  0  0  0  0  0  0  0  0  0
   18.8923   -9.9527  -16.8191 N   0  0  0  0  0  0  0  0  0  0  0  0
   20.1530   -7.9118  -16.4527 C   0  0  0  0  0  0  0  0  0  0  0  0
   20.9067   -8.5450  -15.6550 O   0  0  0  0  0  0  0  0  0  0  0  0
   23.4153   -4.5883  -14.4501 N   0  0  0  0  0  0  0  0  0  0  0  0
   23.7023   -5.6284  -15.3648 C   0  0  0  0  0  0  0  0  0  0  0  0
   24.8965   -5.9175  -15.5951 O   0  0  0  0  0  0  0  0  0  0  0  0
   22.6099   -6.3422  -16.0199 C   0  0  0  0  0  0  0  0  0  0  0  0
   21.2441   -5.8207  -15.6358 C   0  0  2  0  0  0  0  0  0  0  0  0
   20.2526   -6.5020  -16.4484 N   0  0  0  0  0  0  0  0  0  0  0  0
   21.1513   -4.3488  -15.7752 C   0  0  0  0  0  0  0  0  0  0  0  0
   20.4019   -3.8593  -16.8314 O   0  0  0  0  0  0  0  0  0  0  0  0
   21.6973   -3.5407  -15.0127 O   0  0  0  0  0  0  0  0  0  0  0  0
  2  1  1  6
  2  7  1  0
  3  2  1  0
  4  5  1  0
  4  3  1  0
  5  9  1  0
  6  5  2  0
  7 14  1  0
  7  8  2  0
 11 10  1  6
 12 11  1  0
 13 11  1  0
 13 14  1  1
 15 13  1  0
 15 22  1  0
 16 15  2  0
 18 17  1  0
 19 18  2  0
 21 20  1  6
 20 18  1  0
 21 22  1  0
 21 23  1  0
 23 24  1  0
 25 23  2  0
M  END
$$$$
