ETN.pdb
     RDKit          3D

 25 24  0  0  1  0  0  0  0  0999 V2000
   22.2468  -12.5970  -19.0122 N   0  0  0  0  0  0  0  0  0  0  0  0
   21.8294  -11.1906  -19.1963 C   0  0  1  0  0  0  0  0  0  0  0  0
   20.3612  -11.1725  -18.9044 C   0  0  0  0  0  0  0  0  0  0  0  0
   19.8930  -12.1516  -17.8852 C   0  0  0  0  0  0  0  0  0  0  0  0
   19.0693  -11.5564  -16.8166 C   0  0  0  0  0  0  0  0  0  0  0  0
   19.5211  -10.6603  -16.0688 O   0  0  0  0  0  0  0  0  0  0  0  0
   22.5576  -10.3234  -18.2381 C   0  0  0  0  0  0  0  0  0  0  0  0
   23.6110  -10.6494  -17.6640 O   0  0  0  0  0  0  0  0  0  0  0  0
   17.7585  -11.9896  -16.6218 O   0  0  0  0  0  0  0  0  0  0  0  0
   24.8447   -8.7658  -18.4610 C   0  0  0  0  0  0  0  0  0  0  0  0
   23.9853   -7.6133  -17.9959 C   0  0  1  0  0  0  0  0  0  0  0  0
   23.4098   -7.0565  -19.1461 O   0  0  0  0  0  0  0  0  0  0  0  0
   22.8434   -8.0899  -17.1181 C   0  0  2  0  0  0  0  0  0  0  0  0
   22.0599   -9.0137  -17.9155 N   0  0  0  0  0  0  0  0  0  0  0  0
   22.0314   -6.8780  -16.7635 C   0  0  0  0  0  0  0  0  0  0  0  0
   20.9840   -6.5849  -17.4133 O   0  0  0  0  0  0  0  0  0  0  0  0
   19.5414   -3.3048  -14.2151 N   0  0  0  0  0  0  0  0  0  0  0  0
   19.2311   -4.6843  -14.2539 C   0  0  0  0  0  0  0  0  0  0  0  0
   18.1063   -5.0615  -13.8599 O   0  0  0  0  0  0  0  0  0  0  0  0
   20.2197   -5.6379  -14.7492 C   0  0  0  0  0  0  0  0  0  0  0  0
   21.4893   -4.9786  -15.2375 C   0  0  2  0  0  0  0  0  0  0  0  0
   22.3911   -6.0172  -15.7018 N   0  0  0  0  0  0  0  0  0  0  0  0
   22.1149   -4.1345  -14.1931 C   0  0  0  0  0  0  0  0  0  0  0  0
   23.3647   -4.5162  -13.7358 O   0  0  0  0  0  0  0  0  0  0  0  0
   21.5928   -3.1207  -13.7111 O   0  0  0  0  0  0  0  0  0  0  0  0
  2  1  1  1
  2  7  1  0
  3  2  1  0
  4  5  1  0
  4  3  1  0
  5  9  1  0
  6  5  2  0
  7 14  1  0
  7  8  2  0
 11 10  1  6
 12 11  1  0
 13 11  1  0
 13 14  1  6
 15 13  1  0
 15 22  1  0
 16 15  2  0
 18 17  1  0
 19 18  2  0
 21 20  1  1
 20 18  1  0
 21 22  1  0
 21 23  1  0
 23 24  1  0
 25 23  2  0
M  END
$$$$
