ETN.pdb
     RDKit          3D

 25 24  0  0  1  0  0  0  0  0999 V2000
   11.9998  -10.1446   -9.5973 N   0  0  0  0  0  0  0  0  0  0  0  0
   13.4725  -10.2767   -9.5961 C   0  0  1  0  0  0  0  0  0  0  0  0
   13.7730  -11.3607  -10.5840 C   0  0  0  0  0  0  0  0  0  0  0  0
   13.4202  -12.7420  -10.1548 C   0  0  0  0  0  0  0  0  0  0  0  0
   13.7371  -13.7792  -11.1540 C   0  0  0  0  0  0  0  0  0  0  0  0
   12.8557  -14.2463  -11.9098 O   0  0  0  0  0  0  0  0  0  0  0  0
   14.0895   -8.9986  -10.0277 C   0  0  0  0  0  0  0  0  0  0  0  0
   13.6783   -8.3120  -10.9790 O   0  0  0  0  0  0  0  0  0  0  0  0
   15.0403  -14.2603  -11.2720 O   0  0  0  0  0  0  0  0  0  0  0  0
   16.6190   -5.0629   -8.6590 C   0  0  0  0  0  0  0  0  0  0  0  0
   15.9754   -6.4072   -8.4109 C   0  0  1  0  0  0  0  0  0  0  0  0
   14.6893   -6.1478   -7.9180 O   0  0  0  0  0  0  0  0  0  0  0  0
   15.8040   -7.1882   -9.7003 C   0  0  2  0  0  0  0  0  0  0  0  0
   15.2370   -8.4731   -9.3392 N   0  0  0  0  0  0  0  0  0  0  0  0
   17.1738   -7.3620  -10.2896 C   0  0  0  0  0  0  0  0  0  0  0  0
   18.1109   -7.8812   -9.6132 O   0  0  0  0  0  0  0  0  0  0  0  0
   21.2055   -7.5870  -13.4540 N   0  0  0  0  0  0  0  0  0  0  0  0
   20.1629   -8.5194  -13.6650 C   0  0  0  0  0  0  0  0  0  0  0  0
   20.3704   -9.4977  -14.4151 O   0  0  0  0  0  0  0  0  0  0  0  0
   18.8723   -8.3272  -13.0096 C   0  0  0  0  0  0  0  0  0  0  0  0
   18.8244   -7.0902  -12.1421 C   0  0  2  0  0  0  0  0  0  0  0  0
   17.4801   -6.9605  -11.6096 N   0  0  0  0  0  0  0  0  0  0  0  0
   19.2419   -5.8760  -12.8812 C   0  0  0  0  0  0  0  0  0  0  0  0
   20.6017   -5.6596  -13.0255 O   0  0  0  0  0  0  0  0  0  0  0  0
   18.4567   -5.0538  -13.3712 O   0  0  0  0  0  0  0  0  0  0  0  0
  2  1  1  6
  2  7  1  0
  3  2  1  0
  4  5  1  0
  4  3  1  0
  5  9  1  0
  6  5  2  0
  7 14  1  0
  7  8  2  0
 11 10  1  6
 12 11  1  0
 13 11  1  0
 13 14  1  1
 15 13  1  0
 15 22  1  0
 16 15  2  0
 18 17  1  0
 19 18  2  0
 21 20  1  6
 20 18  1  0
 21 22  1  0
 21 23  1  0
 23 24  1  0
 25 23  2  0
M  END
$$$$
