ETN.pdb
     RDKit          3D

 25 24  0  0  1  0  0  0  0  0999 V2000
   16.2455   -6.2401  -13.3958 N   0  0  0  0  0  0  0  0  0  0  0  0
   15.7311   -6.7131  -14.6988 C   0  0  1  0  0  0  0  0  0  0  0  0
   16.7639   -6.3056  -15.7031 C   0  0  0  0  0  0  0  0  0  0  0  0
   16.9199   -4.8396  -15.9109 C   0  0  0  0  0  0  0  0  0  0  0  0
   18.0526   -4.2475  -15.1756 C   0  0  0  0  0  0  0  0  0  0  0  0
   18.7874   -4.9445  -14.4402 O   0  0  0  0  0  0  0  0  0  0  0  0
   15.5886   -8.1895  -14.6740 C   0  0  0  0  0  0  0  0  0  0  0  0
   15.1347   -8.8621  -15.6159 O   0  0  0  0  0  0  0  0  0  0  0  0
   18.3244   -2.8849  -15.2907 O   0  0  0  0  0  0  0  0  0  0  0  0
   18.3938  -10.5768  -13.7456 C   0  0  0  0  0  0  0  0  0  0  0  0
   17.1994  -10.8876  -12.8737 C   0  0  1  0  0  0  0  0  0  0  0  0
   17.3784  -10.1701  -11.6832 O   0  0  0  0  0  0  0  0  0  0  0  0
   15.9099  -10.3895  -13.4990 C   0  0  2  0  0  0  0  0  0  0  0  0
   15.9842   -8.9414  -13.5142 N   0  0  0  0  0  0  0  0  0  0  0  0
   14.7894  -10.8518  -12.6132 C   0  0  0  0  0  0  0  0  0  0  0  0
   14.4259  -12.0655  -12.6053 O   0  0  0  0  0  0  0  0  0  0  0  0
   10.8807  -10.9872   -9.2444 N   0  0  0  0  0  0  0  0  0  0  0  0
   11.7445   -9.9313   -8.8704 C   0  0  0  0  0  0  0  0  0  0  0  0
   11.5264   -9.3231   -7.8002 O   0  0  0  0  0  0  0  0  0  0  0  0
   12.8673   -9.5712   -9.7316 C   0  0  0  0  0  0  0  0  0  0  0  0
   12.9497  -10.4131  -10.9844 C   0  0  2  0  0  0  0  0  0  0  0  0
   14.0953   -9.9674  -11.7567 N   0  0  0  0  0  0  0  0  0  0  0  0
   11.6985  -10.3571  -11.7755 C   0  0  0  0  0  0  0  0  0  0  0  0
   10.7112  -11.2762  -11.4638 O   0  0  0  0  0  0  0  0  0  0  0  0
   11.4861   -9.5471  -12.6874 O   0  0  0  0  0  0  0  0  0  0  0  0
  2  1  1  1
  2  7  1  0
  3  2  1  0
  4  5  1  0
  4  3  1  0
  5  9  1  0
  6  5  2  0
  7 14  1  0
  7  8  2  0
 11 10  1  6
 12 11  1  0
 13 11  1  0
 13 14  1  1
 15 13  1  0
 15 22  1  0
 16 15  2  0
 18 17  1  0
 19 18  2  0
 21 20  1  1
 20 18  1  0
 21 22  1  0
 21 23  1  0
 23 24  1  0
 25 23  2  0
M  END
$$$$
