ETN.pdb
     RDKit          3D

 25 24  0  0  1  0  0  0  0  0999 V2000
   12.1909  -10.0719   -9.6271 N   0  0  0  0  0  0  0  0  0  0  0  0
   13.6188  -10.2525   -9.9661 C   0  0  1  0  0  0  0  0  0  0  0  0
   13.6305  -11.1560  -11.1597 C   0  0  0  0  0  0  0  0  0  0  0  0
   13.1443  -12.5435  -10.9245 C   0  0  0  0  0  0  0  0  0  0  0  0
   14.0030  -13.5872  -11.5143 C   0  0  0  0  0  0  0  0  0  0  0  0
   14.9886  -13.2935  -12.2275 O   0  0  0  0  0  0  0  0  0  0  0  0
   14.2220   -8.9404  -10.3052 C   0  0  0  0  0  0  0  0  0  0  0  0
   13.5673   -7.9021  -10.5028 O   0  0  0  0  0  0  0  0  0  0  0  0
   13.7250  -14.9337  -11.2827 O   0  0  0  0  0  0  0  0  0  0  0  0
   14.5049   -6.5728   -9.0569 C   0  0  0  0  0  0  0  0  0  0  0  0
   15.9880   -6.7312   -9.2988 C   0  0  1  0  0  0  0  0  0  0  0  0
   16.4825   -7.5092   -8.2431 O   0  0  0  0  0  0  0  0  0  0  0  0
   16.2639   -7.4982  -10.5784 C   0  0  2  0  0  0  0  0  0  0  0  0
   15.6479   -8.8021  -10.4259 N   0  0  0  0  0  0  0  0  0  0  0  0
   17.7549   -7.6287  -10.6951 C   0  0  0  0  0  0  0  0  0  0  0  0
   18.3586   -8.6342  -10.2156 O   0  0  0  0  0  0  0  0  0  0  0  0
   20.6790   -9.7081  -14.2967 N   0  0  0  0  0  0  0  0  0  0  0  0
   20.2419   -8.3693  -14.1661 C   0  0  0  0  0  0  0  0  0  0  0  0
   20.7471   -7.4945  -14.9024 O   0  0  0  0  0  0  0  0  0  0  0  0
   19.2166   -8.0321  -13.1825 C   0  0  0  0  0  0  0  0  0  0  0  0
   19.6837   -7.0226  -12.1590 C   0  0  2  0  0  0  0  0  0  0  0  0
   18.5467   -6.6496  -11.3370 N   0  0  0  0  0  0  0  0  0  0  0  0
   20.3156   -5.8412  -12.7911 C   0  0  0  0  0  0  0  0  0  0  0  0
   21.6939   -5.7403  -12.7075 O   0  0  0  0  0  0  0  0  0  0  0  0
   19.6920   -4.9500  -13.3824 O   0  0  0  0  0  0  0  0  0  0  0  0
  2  1  1  6
  2  7  1  0
  3  2  1  0
  4  5  1  0
  4  3  1  0
  5  9  1  0
  6  5  2  0
  7 14  1  0
  7  8  2  0
 11 10  1  1
 12 11  1  0
 13 11  1  0
 13 14  1  1
 15 13  1  0
 15 22  1  0
 16 15  2  0
 18 17  1  0
 19 18  2  0
 21 20  1  6
 20 18  1  0
 21 22  1  0
 21 23  1  0
 23 24  1  0
 25 23  2  0
M  END
$$$$
