ETN.pdb
     RDKit          3D

 25 24  0  0  1  0  0  0  0  0999 V2000
   23.6864  -16.4307  -16.9237 N   0  0  0  0  0  0  0  0  0  0  0  0
   23.3052  -17.7688  -17.4242 C   0  0  1  0  0  0  0  0  0  0  0  0
   23.4265  -17.6829  -18.9139 C   0  0  0  0  0  0  0  0  0  0  0  0
   22.1606  -17.8630  -19.6767 C   0  0  0  0  0  0  0  0  0  0  0  0
   21.2282  -16.7258  -19.5672 C   0  0  0  0  0  0  0  0  0  0  0  0
   20.0749  -16.7805  -20.0500 O   0  0  0  0  0  0  0  0  0  0  0  0
   24.2395  -18.7883  -16.8876 C   0  0  0  0  0  0  0  0  0  0  0  0
   24.2661  -19.9743  -17.2595 O   0  0  0  0  0  0  0  0  0  0  0  0
   21.6238  -15.5585  -18.9156 O   0  0  0  0  0  0  0  0  0  0  0  0
   27.7982  -18.8423  -17.1615 C   0  0  0  0  0  0  0  0  0  0  0  0
   27.5298  -18.8729  -15.6749 C   0  0  1  0  0  0  0  0  0  0  0  0
   27.5514  -17.5409  -15.2391 O   0  0  0  0  0  0  0  0  0  0  0  0
   26.1454  -19.4138  -15.3707 C   0  0  2  0  0  0  0  0  0  0  0  0
   25.1958  -18.4393  -15.8723 N   0  0  0  0  0  0  0  0  0  0  0  0
   26.0422  -19.5319  -13.8777 C   0  0  0  0  0  0  0  0  0  0  0  0
   25.8579  -18.5069  -13.1561 O   0  0  0  0  0  0  0  0  0  0  0  0
   25.3605  -20.1422   -8.9834 N   0  0  0  0  0  0  0  0  0  0  0  0
   24.3935  -20.5287   -9.9406 C   0  0  0  0  0  0  0  0  0  0  0  0
   23.3112  -21.0128   -9.5442 O   0  0  0  0  0  0  0  0  0  0  0  0
   24.6710  -20.3579  -11.3640 C   0  0  0  0  0  0  0  0  0  0  0  0
   26.0352  -20.8676  -11.7691 C   0  0  2  0  0  0  0  0  0  0  0  0
   26.1441  -20.7755  -13.2138 N   0  0  0  0  0  0  0  0  0  0  0  0
   26.2795  -22.2469  -11.2867 C   0  0  0  0  0  0  0  0  0  0  0  0
   26.1919  -23.2676  -12.2179 O   0  0  0  0  0  0  0  0  0  0  0  0
   26.5539  -22.5370  -10.1149 O   0  0  0  0  0  0  0  0  0  0  0  0
  2  1  1  1
  2  7  1  0
  3  2  1  0
  4  5  1  0
  4  3  1  0
  5  9  1  0
  6  5  2  0
  7 14  1  0
  7  8  2  0
 11 10  1  6
 12 11  1  0
 13 11  1  0
 13 14  1  1
 15 13  1  0
 15 22  1  0
 16 15  2  0
 18 17  1  0
 19 18  2  0
 21 20  1  6
 20 18  1  0
 21 22  1  0
 21 23  1  0
 23 24  1  0
 25 23  2  0
M  END
$$$$
