ETN.pdb
     RDKit          3D

 25 24  0  0  1  0  0  0  0  0999 V2000
   16.9824  -11.3872  -14.9144 N   0  0  0  0  0  0  0  0  0  0  0  0
   18.2248  -11.7677  -15.6202 C   0  0  1  0  0  0  0  0  0  0  0  0
   17.8091  -12.7953  -16.6263 C   0  0  0  0  0  0  0  0  0  0  0  0
   16.7584  -13.7503  -16.1782 C   0  0  0  0  0  0  0  0  0  0  0  0
   15.4235  -13.1431  -16.0236 C   0  0  0  0  0  0  0  0  0  0  0  0
   14.9141  -12.4499  -16.9326 O   0  0  0  0  0  0  0  0  0  0  0  0
   18.7971  -10.5802  -16.3005 C   0  0  0  0  0  0  0  0  0  0  0  0
   19.8316  -10.6025  -16.9897 O   0  0  0  0  0  0  0  0  0  0  0  0
   14.7007  -13.3353  -14.8469 O   0  0  0  0  0  0  0  0  0  0  0  0
   16.9326   -8.3291  -18.6486 C   0  0  0  0  0  0  0  0  0  0  0  0
   17.5166   -7.4574  -17.5613 C   0  0  1  0  0  0  0  0  0  0  0  0
   16.5136   -7.3011  -16.5949 O   0  0  0  0  0  0  0  0  0  0  0  0
   18.6882   -8.1343  -16.8751 C   0  0  2  0  0  0  0  0  0  0  0  0
   18.1574   -9.2973  -16.1906 N   0  0  0  0  0  0  0  0  0  0  0  0
   19.2439   -7.1486  -15.8885 C   0  0  0  0  0  0  0  0  0  0  0  0
   18.7922   -7.0878  -14.7063 O   0  0  0  0  0  0  0  0  0  0  0  0
   22.4241   -4.3258  -13.1630 N   0  0  0  0  0  0  0  0  0  0  0  0
   22.2234   -5.7242  -13.0933 C   0  0  0  0  0  0  0  0  0  0  0  0
   22.6940   -6.3541  -12.1214 O   0  0  0  0  0  0  0  0  0  0  0  0
   21.4764   -6.4048  -14.1474 C   0  0  0  0  0  0  0  0  0  0  0  0
   20.9559   -5.4638  -15.2097 C   0  0  2  0  0  0  0  0  0  0  0  0
   20.2839   -6.2531  -16.2260 N   0  0  0  0  0  0  0  0  0  0  0  0
   22.0329   -4.6266  -15.7874 C   0  0  0  0  0  0  0  0  0  0  0  0
   22.2857   -4.7665  -17.1414 O   0  0  0  0  0  0  0  0  0  0  0  0
   22.7118   -3.8193  -15.1391 O   0  0  0  0  0  0  0  0  0  0  0  0
  2  1  1  6
  2  7  1  0
  3  2  1  0
  4  5  1  0
  4  3  1  0
  5  9  1  0
  6  5  2  0
  7 14  1  0
  7  8  2  0
 11 10  1  6
 12 11  1  0
 13 11  1  0
 13 14  1  1
 15 13  1  0
 15 22  1  0
 16 15  2  0
 18 17  1  0
 19 18  2  0
 21 20  1  1
 20 18  1  0
 21 22  1  0
 21 23  1  0
 23 24  1  0
 25 23  2  0
M  END
$$$$
