IWI.pdb
     RDKit          3D

 31 32  0  0  1  0  0  0  0  0999 V2000
   29.7529  -18.5067  -15.7514 C   0  0  0  0  0  0  0  0  0  0  0  0
   28.6953  -18.3373  -14.6529 C   0  0  0  0  0  0  0  0  0  0  0  0
   27.3659  -18.6816  -15.2755 C   0  0  2  0  0  0  0  0  0  0  0  0
   27.0694  -17.8878  -16.5041 C   0  0  0  0  0  0  0  0  0  0  0  0
   26.2028  -18.5532  -14.3349 C   0  0  2  0  0  0  0  0  0  0  0  0
   26.1869  -17.1513  -13.9001 N   0  0  0  0  0  0  0  0  0  0  0  0
   26.3179  -19.4509  -13.1619 C   0  0  0  0  0  0  0  0  0  0  0  0
   26.2844  -20.6925  -13.3490 O   0  0  0  0  0  0  0  0  0  0  0  0
   26.4641  -18.9809  -11.8417 N   0  0  0  0  0  0  0  0  0  0  0  0
   26.5087  -19.8990  -10.6745 C   0  0  1  0  0  0  0  0  0  0  0  0
   27.5187  -19.2998   -9.7505 C   0  0  0  0  0  0  0  0  0  0  0  0
   27.8341  -20.1078   -8.5562 C   0  0  0  0  0  0  0  0  0  0  0  0
   28.0381  -21.4626   -8.4426 C   0  0  0  0  0  0  0  0  0  0  0  0
   28.2708  -21.7890   -7.1638 N   0  0  0  0  0  0  0  0  0  0  0  0
   28.2295  -20.6802   -6.4007 C   0  0  0  0  0  0  0  0  0  0  0  0
   28.3995  -20.4669   -5.0345 C   0  0  0  0  0  0  0  0  0  0  0  0
   28.3025  -19.2079   -4.5042 C   0  0  0  0  0  0  0  0  0  0  0  0
   28.0304  -18.1661   -5.3779 C   0  0  0  0  0  0  0  0  0  0  0  0
   27.8577  -18.3507   -6.7351 C   0  0  0  0  0  0  0  0  0  0  0  0
   27.9598  -19.6341   -7.2537 C   0  0  0  0  0  0  0  0  0  0  0  0
   25.1677  -19.8880  -10.0748 C   0  0  0  0  0  0  0  0  0  0  0  0
   24.6160  -18.7356   -9.9129 O   0  0  0  0  0  0  0  0  0  0  0  0
   19.7541  -21.0432  -11.2387 C   0  0  0  0  0  0  0  0  0  0  0  0
   20.6625  -20.8256  -10.0188 C   0  0  0  0  0  0  0  0  0  0  0  0
   22.1007  -21.0897  -10.3894 C   0  0  2  0  0  0  0  0  0  0  0  0
   22.2497  -22.4551  -11.0216 C   0  0  0  0  0  0  0  0  0  0  0  0
   23.0580  -20.9124   -9.2257 C   0  0  2  0  0  0  0  0  0  0  0  0
   24.4324  -21.0491   -9.6658 N   0  0  0  0  0  0  0  0  0  0  0  0
   22.7225  -21.7199   -8.0582 C   0  0  0  0  0  0  0  0  0  0  0  0
   23.4607  -22.6827   -7.7330 O   0  0  0  0  0  0  0  0  0  0  0  0
   21.6130  -21.4990   -7.2499 O   0  0  0  0  0  0  0  0  0  0  0  0
  2  3  1  0
  2  1  1  0
  3  4  1  6
  5  6  1  1
  5  3  1  0
  7  8  2  0
  7  5  1  0
  9  7  1  0
 10 21  1  0
 10  9  1  0
 10 11  1  1
 12 11  1  0
 13 12  2  0
 14 13  1  0
 15 14  1  0
 15 20  2  0
 16 15  1  0
 17 16  2  0
 17 18  1  0
 18 19  2  0
 19 20  1  0
 20 12  1  0
 21 28  1  0
 22 21  2  0
 23 24  1  0
 24 25  1  0
 25 26  1  1
 25 27  1  0
 27 29  1  0
 27 28  1  6
 29 30  2  0
 29 31  1  0
M  END
$$$$
