IWI.pdb
     RDKit          3D

 31 32  0  0  1  0  0  0  0  0999 V2000
   20.0498  -17.2183  -15.6692 C   0  0  0  0  0  0  0  0  0  0  0  0
   18.8581  -16.5148  -16.3317 C   0  0  0  0  0  0  0  0  0  0  0  0
   19.2658  -15.0784  -16.5415 C   0  0  2  0  0  0  0  0  0  0  0  0
   19.8079  -14.4354  -15.3085 C   0  0  0  0  0  0  0  0  0  0  0  0
   18.1702  -14.2093  -17.0879 C   0  0  2  0  0  0  0  0  0  0  0  0
   17.7207  -14.8558  -18.3266 N   0  0  0  0  0  0  0  0  0  0  0  0
   18.6264  -12.8279  -17.3687 C   0  0  0  0  0  0  0  0  0  0  0  0
   19.7884  -12.6569  -17.8138 O   0  0  0  0  0  0  0  0  0  0  0  0
   17.8196  -11.6916  -17.1614 N   0  0  0  0  0  0  0  0  0  0  0  0
   18.3385  -10.3099  -17.3322 C   0  0  1  0  0  0  0  0  0  0  0  0
   17.1208   -9.4485  -17.4206 C   0  0  0  0  0  0  0  0  0  0  0  0
   17.3833   -8.0025  -17.5580 C   0  0  0  0  0  0  0  0  0  0  0  0
   18.4196   -7.3552  -18.1883 C   0  0  0  0  0  0  0  0  0  0  0  0
   18.2892   -6.0289  -18.0480 N   0  0  0  0  0  0  0  0  0  0  0  0
   17.1810   -5.7579  -17.3324 C   0  0  0  0  0  0  0  0  0  0  0  0
   16.5979   -4.5655  -16.9093 C   0  0  0  0  0  0  0  0  0  0  0  0
   15.4421   -4.5724  -16.1745 C   0  0  0  0  0  0  0  0  0  0  0  0
   14.8840   -5.8057  -15.8736 C   0  0  0  0  0  0  0  0  0  0  0  0
   15.4417   -7.0011  -16.2806 C   0  0  0  0  0  0  0  0  0  0  0  0
   16.6132   -6.9734  -17.0244 C   0  0  0  0  0  0  0  0  0  0  0  0
   19.1225   -9.9997  -16.1293 C   0  0  0  0  0  0  0  0  0  0  0  0
   18.6220  -10.3689  -15.0016 O   0  0  0  0  0  0  0  0  0  0  0  0
   23.8238  -10.7935  -12.8849 C   0  0  0  0  0  0  0  0  0  0  0  0
   22.7710   -9.7155  -13.1850 C   0  0  0  0  0  0  0  0  0  0  0  0
   22.0967  -10.0020  -14.5037 C   0  0  2  0  0  0  0  0  0  0  0  0
   23.1168  -10.1171  -15.6138 C   0  0  0  0  0  0  0  0  0  0  0  0
   21.0144   -8.9967  -14.8501 C   0  0  2  0  0  0  0  0  0  0  0  0
   20.3903   -9.3296  -16.1154 N   0  0  0  0  0  0  0  0  0  0  0  0
   21.4451   -7.6071  -14.7449 C   0  0  0  0  0  0  0  0  0  0  0  0
   21.8078   -7.1493  -13.6330 O   0  0  0  0  0  0  0  0  0  0  0  0
   21.4876   -6.7206  -15.8153 O   0  0  0  0  0  0  0  0  0  0  0  0
  2  3  1  0
  2  1  1  0
  3  4  1  1
  5  6  1  6
  5  3  1  0
  7  8  2  0
  7  5  1  0
  9  7  1  0
 10 21  1  0
 10  9  1  0
 10 11  1  1
 12 11  1  0
 13 12  2  0
 14 13  1  0
 15 14  1  0
 15 20  2  0
 16 15  1  0
 17 16  2  0
 17 18  1  0
 18 19  2  0
 19 20  1  0
 20 12  1  0
 21 28  1  0
 22 21  2  0
 23 24  1  0
 24 25  1  0
 25 26  1  6
 25 27  1  0
 27 29  1  0
 27 28  1  6
 29 30  2  0
 29 31  1  0
M  END
$$$$
