IWI.pdb
     RDKit          3D

 31 32  0  0  1  0  0  0  0  0999 V2000
   31.1333  -24.9025  -15.3465 C   0  0  0  0  0  0  0  0  0  0  0  0
   30.4388  -23.6720  -15.9444 C   0  0  0  0  0  0  0  0  0  0  0  0
   29.4819  -24.1819  -16.9922 C   0  0  2  0  0  0  0  0  0  0  0  0
   30.0871  -25.2083  -17.8909 C   0  0  0  0  0  0  0  0  0  0  0  0
   28.8800  -23.1012  -17.8430 C   0  0  2  0  0  0  0  0  0  0  0  0
   29.9886  -22.5326  -18.6190 N   0  0  0  0  0  0  0  0  0  0  0  0
   28.2234  -22.0438  -17.0393 C   0  0  0  0  0  0  0  0  0  0  0  0
   28.8777  -21.0095  -16.7566 O   0  0  0  0  0  0  0  0  0  0  0  0
   26.8968  -22.1395  -16.5743 N   0  0  0  0  0  0  0  0  0  0  0  0
   26.2013  -20.9991  -15.9239 C   0  0  1  0  0  0  0  0  0  0  0  0
   25.0201  -20.7197  -16.7952 C   0  0  0  0  0  0  0  0  0  0  0  0
   24.0941  -19.6892  -16.2861 C   0  0  0  0  0  0  0  0  0  0  0  0
   24.3620  -18.4280  -15.8088 C   0  0  0  0  0  0  0  0  0  0  0  0
   23.2274  -17.8314  -15.4181 N   0  0  0  0  0  0  0  0  0  0  0  0
   22.1877  -18.6631  -15.6202 C   0  0  0  0  0  0  0  0  0  0  0  0
   20.8195  -18.5383  -15.3896 C   0  0  0  0  0  0  0  0  0  0  0  0
   19.9614  -19.5619  -15.6925 C   0  0  0  0  0  0  0  0  0  0  0  0
   20.5089  -20.7156  -16.2328 C   0  0  0  0  0  0  0  0  0  0  0  0
   21.8605  -20.8645  -16.4709 C   0  0  0  0  0  0  0  0  0  0  0  0
   22.7142  -19.8160  -16.1573 C   0  0  0  0  0  0  0  0  0  0  0  0
   25.7827  -21.4608  -14.5935 C   0  0  0  0  0  0  0  0  0  0  0  0
   25.4776  -22.7070  -14.4834 O   0  0  0  0  0  0  0  0  0  0  0  0
   25.9207  -20.3850   -8.5163 C   0  0  0  0  0  0  0  0  0  0  0  0
   25.4557  -21.2670   -9.6852 C   0  0  0  0  0  0  0  0  0  0  0  0
   25.9458  -20.6960  -10.9927 C   0  0  2  0  0  0  0  0  0  0  0  0
   25.9698  -19.1849  -10.9425 C   0  0  0  0  0  0  0  0  0  0  0  0
   25.1628  -21.1964  -12.1921 C   0  0  2  0  0  0  0  0  0  0  0  0
   25.6943  -20.6404  -13.4207 N   0  0  0  0  0  0  0  0  0  0  0  0
   23.7174  -21.0590  -12.0515 C   0  0  0  0  0  0  0  0  0  0  0  0
   23.1493  -20.0112  -12.4476 O   0  0  0  0  0  0  0  0  0  0  0  0
   22.8921  -22.0302  -11.4956 O   0  0  0  0  0  0  0  0  0  0  0  0
  2  3  1  0
  2  1  1  0
  3  4  1  6
  5  6  1  1
  5  3  1  0
  7  8  2  0
  7  5  1  0
  9  7  1  0
 10 21  1  0
 10  9  1  0
 10 11  1  6
 12 11  1  0
 13 12  2  0
 14 13  1  0
 15 14  1  0
 15 20  2  0
 16 15  1  0
 17 16  2  0
 17 18  1  0
 18 19  2  0
 19 20  1  0
 20 12  1  0
 21 28  1  0
 22 21  2  0
 23 24  1  0
 24 25  1  0
 25 26  1  1
 25 27  1  0
 27 29  1  0
 27 28  1  6
 29 30  2  0
 29 31  1  0
M  END
$$$$
