IWI.pdb
     RDKit          3D

 31 32  0  0  1  0  0  0  0  0999 V2000
   27.5294  -19.8056  -17.5620 C   0  0  0  0  0  0  0  0  0  0  0  0
   27.9001  -18.9729  -16.3278 C   0  0  0  0  0  0  0  0  0  0  0  0
   27.1288  -19.5512  -15.1684 C   0  0  2  0  0  0  0  0  0  0  0  0
   26.4467  -18.5134  -14.3405 C   0  0  0  0  0  0  0  0  0  0  0  0
   27.9543  -20.4161  -14.2603 C   0  0  2  0  0  0  0  0  0  0  0  0
   28.3138  -21.6017  -15.0474 N   0  0  0  0  0  0  0  0  0  0  0  0
   27.2219  -20.8178  -13.0366 C   0  0  0  0  0  0  0  0  0  0  0  0
   26.3699  -21.7368  -13.1198 O   0  0  0  0  0  0  0  0  0  0  0  0
   27.4338  -20.2191  -11.7788 N   0  0  0  0  0  0  0  0  0  0  0  0
   26.7373  -20.6856  -10.5522 C   0  0  1  0  0  0  0  0  0  0  0  0
   27.5435  -20.1389   -9.4191 C   0  0  0  0  0  0  0  0  0  0  0  0
   27.0650  -20.5083   -8.0726 C   0  0  0  0  0  0  0  0  0  0  0  0
   25.9698  -21.2536   -7.7047 C   0  0  0  0  0  0  0  0  0  0  0  0
   25.8852  -21.3221   -6.3691 N   0  0  0  0  0  0  0  0  0  0  0  0
   26.9041  -20.6362   -5.8169 C   0  0  0  0  0  0  0  0  0  0  0  0
   27.2744  -20.3953   -4.4956 C   0  0  0  0  0  0  0  0  0  0  0  0
   28.3829  -19.6456   -4.2038 C   0  0  0  0  0  0  0  0  0  0  0  0
   29.1124  -19.1424   -5.2703 C   0  0  0  0  0  0  0  0  0  0  0  0
   28.7670  -19.3665   -6.5880 C   0  0  0  0  0  0  0  0  0  0  0  0
   27.6402  -20.1287   -6.8635 C   0  0  0  0  0  0  0  0  0  0  0  0
   25.3915  -20.0973  -10.5791 C   0  0  0  0  0  0  0  0  0  0  0  0
   25.3110  -18.8518  -10.8964 O   0  0  0  0  0  0  0  0  0  0  0  0
   22.0207  -19.9100  -14.6376 C   0  0  0  0  0  0  0  0  0  0  0  0
   21.8067  -19.9072  -13.1162 C   0  0  0  0  0  0  0  0  0  0  0  0
   23.0435  -20.4154  -12.4177 C   0  0  2  0  0  0  0  0  0  0  0  0
   23.4026  -21.8015  -12.9034 C   0  0  0  0  0  0  0  0  0  0  0  0
   22.9339  -20.3713  -10.9050 C   0  0  2  0  0  0  0  0  0  0  0  0
   24.1743  -20.7972  -10.2876 N   0  0  0  0  0  0  0  0  0  0  0  0
   21.7471  -21.0376  -10.3804 C   0  0  0  0  0  0  0  0  0  0  0  0
   20.6090  -20.5615  -10.6169 O   0  0  0  0  0  0  0  0  0  0  0  0
   21.7783  -22.1974   -9.6142 O   0  0  0  0  0  0  0  0  0  0  0  0
  2  3  1  0
  2  1  1  0
  3  4  1  1
  5  6  1  6
  5  3  1  0
  7  8  2  0
  7  5  1  0
  9  7  1  0
 10 21  1  0
 10  9  1  0
 10 11  1  1
 12 11  1  0
 13 12  2  0
 14 13  1  0
 15 14  1  0
 15 20  2  0
 16 15  1  0
 17 16  2  0
 17 18  1  0
 18 19  2  0
 19 20  1  0
 20 12  1  0
 21 28  1  0
 22 21  2  0
 23 24  1  0
 24 25  1  0
 25 26  1  6
 25 27  1  0
 27 29  1  0
 27 28  1  1
 29 30  2  0
 29 31  1  0
M  END
$$$$
