IWI.pdb
     RDKit          3D

 31 32  0  0  1  0  0  0  0  0999 V2000
   24.6722  -18.2132  -17.4874 C   0  0  0  0  0  0  0  0  0  0  0  0
   25.9885  -18.2828  -16.7022 C   0  0  0  0  0  0  0  0  0  0  0  0
   25.7030  -19.0699  -15.4482 C   0  0  2  0  0  0  0  0  0  0  0  0
   24.4848  -18.6008  -14.7247 C   0  0  0  0  0  0  0  0  0  0  0  0
   26.8482  -19.1035  -14.4779 C   0  0  2  0  0  0  0  0  0  0  0  0
   27.9757  -19.7012  -15.2032 N   0  0  0  0  0  0  0  0  0  0  0  0
   26.5427  -19.8970  -13.2645 C   0  0  0  0  0  0  0  0  0  0  0  0
   26.0729  -21.0534  -13.4045 O   0  0  0  0  0  0  0  0  0  0  0  0
   26.7536  -19.4186  -11.9562 N   0  0  0  0  0  0  0  0  0  0  0  0
   26.5496  -20.2730  -10.7579 C   0  0  1  0  0  0  0  0  0  0  0  0
   27.4308  -19.6804   -9.7068 C   0  0  0  0  0  0  0  0  0  0  0  0
   27.4396  -20.3981   -8.4171 C   0  0  0  0  0  0  0  0  0  0  0  0
   27.2461  -21.7338   -8.1553 C   0  0  0  0  0  0  0  0  0  0  0  0
   27.3069  -21.9594   -6.8357 N   0  0  0  0  0  0  0  0  0  0  0  0
   27.5388  -20.8004   -6.1902 C   0  0  0  0  0  0  0  0  0  0  0  0
   27.6872  -20.4835   -4.8418 C   0  0  0  0  0  0  0  0  0  0  0  0
   27.9209  -19.1931   -4.4466 C   0  0  0  0  0  0  0  0  0  0  0  0
   28.0023  -18.2265   -5.4375 C   0  0  0  0  0  0  0  0  0  0  0  0
   27.8589  -18.5143   -6.7801 C   0  0  0  0  0  0  0  0  0  0  0  0
   27.6226  -19.8279   -7.1608 C   0  0  0  0  0  0  0  0  0  0  0  0
   25.1321  -20.1565  -10.3904 C   0  0  0  0  0  0  0  0  0  0  0  0
   24.6608  -18.9636  -10.2746 O   0  0  0  0  0  0  0  0  0  0  0  0
   20.9743  -23.3058  -12.2836 C   0  0  0  0  0  0  0  0  0  0  0  0
   21.8753  -22.9404  -11.0940 C   0  0  0  0  0  0  0  0  0  0  0  0
   21.9320  -21.4422  -10.9273 C   0  0  2  0  0  0  0  0  0  0  0  0
   22.2881  -20.7702  -12.2341 C   0  0  0  0  0  0  0  0  0  0  0  0
   22.8586  -21.0019   -9.8094 C   0  0  2  0  0  0  0  0  0  0  0  0
   24.2421  -21.2568  -10.1587 N   0  0  0  0  0  0  0  0  0  0  0  0
   22.4739  -21.5010   -8.4939 C   0  0  0  0  0  0  0  0  0  0  0  0
   23.2782  -22.2054   -7.8346 O   0  0  0  0  0  0  0  0  0  0  0  0
   21.2459  -21.2488   -7.8925 O   0  0  0  0  0  0  0  0  0  0  0  0
  2  3  1  0
  2  1  1  0
  3  4  1  1
  5  6  1  6
  5  3  1  0
  7  8  2  0
  7  5  1  0
  9  7  1  0
 10 21  1  0
 10  9  1  0
 10 11  1  1
 12 11  1  0
 13 12  2  0
 14 13  1  0
 15 14  1  0
 15 20  2  0
 16 15  1  0
 17 16  2  0
 17 18  1  0
 18 19  2  0
 19 20  1  0
 20 12  1  0
 21 28  1  0
 22 21  2  0
 23 24  1  0
 24 25  1  0
 25 26  1  6
 25 27  1  0
 27 29  1  0
 27 28  1  6
 29 30  2  0
 29 31  1  0
M  END
$$$$
