IWI.pdb
     RDKit          3D

 31 32  0  0  1  0  0  0  0  0999 V2000
   27.2991  -16.7929  -15.6901 C   0  0  0  0  0  0  0  0  0  0  0  0
   27.0481  -18.2362  -16.1458 C   0  0  0  0  0  0  0  0  0  0  0  0
   26.7808  -19.0428  -14.9003 C   0  0  2  0  0  0  0  0  0  0  0  0
   25.6414  -18.5164  -14.0927 C   0  0  0  0  0  0  0  0  0  0  0  0
   27.9744  -19.1856  -14.0008 C   0  0  2  0  0  0  0  0  0  0  0  0
   28.9825  -19.9154  -14.7791 N   0  0  0  0  0  0  0  0  0  0  0  0
   27.6618  -19.9204  -12.7528 C   0  0  0  0  0  0  0  0  0  0  0  0
   27.3442  -21.1330  -12.8322 O   0  0  0  0  0  0  0  0  0  0  0  0
   27.7032  -19.3257  -11.4761 N   0  0  0  0  0  0  0  0  0  0  0  0
   27.4852  -20.1067  -10.2312 C   0  0  1  0  0  0  0  0  0  0  0  0
   28.2351  -19.3641   -9.1734 C   0  0  0  0  0  0  0  0  0  0  0  0
   28.5964  -20.1599   -7.9840 C   0  0  0  0  0  0  0  0  0  0  0  0
   29.0939  -21.4389   -7.9025 C   0  0  0  0  0  0  0  0  0  0  0  0
   29.2549  -21.7910   -6.6196 N   0  0  0  0  0  0  0  0  0  0  0  0
   28.8760  -20.7743   -5.8219 C   0  0  0  0  0  0  0  0  0  0  0  0
   28.8423  -20.6218   -4.4376 C   0  0  0  0  0  0  0  0  0  0  0  0
   28.4002  -19.4556   -3.8714 C   0  0  0  0  0  0  0  0  0  0  0  0
   27.9919  -18.4445   -4.7280 C   0  0  0  0  0  0  0  0  0  0  0  0
   28.0153  -18.5704   -6.1025 C   0  0  0  0  0  0  0  0  0  0  0  0
   28.4667  -19.7598   -6.6574 C   0  0  0  0  0  0  0  0  0  0  0  0
   26.0400  -20.0909   -9.9682 C   0  0  0  0  0  0  0  0  0  0  0  0
   25.4740  -18.9352   -9.9175 O   0  0  0  0  0  0  0  0  0  0  0  0
   22.8073  -21.9036  -13.2937 C   0  0  0  0  0  0  0  0  0  0  0  0
   23.5448  -21.1955  -12.1468 C   0  0  0  0  0  0  0  0  0  0  0  0
   23.0651  -21.7236  -10.8176 C   0  0  2  0  0  0  0  0  0  0  0  0
   21.5658  -21.5738  -10.6905 C   0  0  0  0  0  0  0  0  0  0  0  0
   23.7845  -21.1022   -9.6350 C   0  0  2  0  0  0  0  0  0  0  0  0
   25.2199  -21.2507   -9.7713 N   0  0  0  0  0  0  0  0  0  0  0  0
   23.2617  -21.5228   -8.3398 C   0  0  0  0  0  0  0  0  0  0  0  0
   23.9216  -22.3227   -7.6311 O   0  0  0  0  0  0  0  0  0  0  0  0
   22.0502  -21.0921   -7.8106 O   0  0  0  0  0  0  0  0  0  0  0  0
  2  3  1  0
  2  1  1  0
  3  4  1  1
  5  6  1  6
  5  3  1  0
  7  8  2  0
  7  5  1  0
  9  7  1  0
 10 21  1  0
 10  9  1  0
 10 11  1  1
 12 11  1  0
 13 12  2  0
 14 13  1  0
 15 14  1  0
 15 20  2  0
 16 15  1  0
 17 16  2  0
 17 18  1  0
 18 19  2  0
 19 20  1  0
 20 12  1  0
 21 28  1  0
 22 21  2  0
 23 24  1  0
 24 25  1  0
 25 26  1  1
 25 27  1  0
 27 29  1  0
 27 28  1  1
 29 30  2  0
 29 31  1  0
M  END
$$$$
