QTI.pdb
     RDKit          3D

 25 24  0  0  1  0  0  0  0  0999 V2000
   14.5726  -14.3885   20.6580 N   0  0  0  0  0  0  0  0  0  0  0  0
   14.5024  -14.6177   19.2701 C   0  0  0  0  0  0  0  0  0  0  0  0
   15.4020  -14.1601   18.5044 O   0  0  0  0  0  0  0  0  0  0  0  0
   13.3440  -15.4081   18.7506 C   0  0  0  0  0  0  0  0  0  0  0  0
   12.0929  -14.8055   19.3332 C   0  0  0  0  0  0  0  0  0  0  0  0
   10.8581  -15.5961   18.9838 C   0  0  2  0  0  0  0  0  0  0  0  0
   10.5231  -15.3017   17.6060 N   0  0  0  0  0  0  0  0  0  0  0  0
    9.7602  -15.1813   19.9081 C   0  0  0  0  0  0  0  0  0  0  0  0
    9.0859  -14.1425   19.6742 O   0  0  0  0  0  0  0  0  0  0  0  0
    6.5111  -16.6190   20.5513 C   0  0  0  0  0  0  0  0  0  0  0  0
    7.1854  -16.5369   21.8815 C   0  0  1  0  0  0  0  0  0  0  0  0
    7.7586  -17.7406   22.2889 O   0  0  0  0  0  0  0  0  0  0  0  0
    8.3158  -15.5012   21.8960 C   0  0  2  0  0  0  0  0  0  0  0  0
    9.4131  -15.9094   21.0789 N   0  0  0  0  0  0  0  0  0  0  0  0
    8.6959  -15.1952   23.2934 C   0  0  0  0  0  0  0  0  0  0  0  0
    9.8750  -15.4808   23.6339 O   0  0  0  0  0  0  0  0  0  0  0  0
    5.5141  -11.9135   26.2141 C   0  0  0  0  0  0  0  0  0  0  0  0
    6.8597  -12.3333   25.6618 C   0  0  0  0  0  0  0  0  0  0  0  0
    7.2951  -13.5792   26.4013 C   0  0  2  0  0  0  0  0  0  0  0  0
    7.8065  -13.1944   27.7538 C   0  0  0  0  0  0  0  0  0  0  0  0
    8.2964  -14.3823   25.6028 C   0  0  2  0  0  0  0  0  0  0  0  0
    7.8504  -14.6194   24.2500 N   0  0  0  0  0  0  0  0  0  0  0  0
    8.5073  -15.6786   26.3285 C   0  0  0  0  0  0  0  0  0  0  0  0
    7.8185  -16.8342   25.9885 O   0  0  0  0  0  0  0  0  0  0  0  0
    9.3282  -15.7469   27.2783 O   0  0  0  0  0  0  0  0  0  0  0  0
  2  1  1  0
  3  2  2  0
  4  2  1  0
  5  4  1  0
  6  5  1  0
  6  7  1  6
  8  9  2  0
  8  6  1  0
 11 10  1  6
 11 12  1  0
 13 11  1  0
 13 14  1  6
 14  8  1  0
 15 13  1  0
 15 16  2  0
 18 19  1  0
 18 17  1  0
 19 21  1  0
 19 20  1  1
 21 22  1  6
 21 23  1  0
 22 15  1  0
 23 25  2  0
 23 24  1  0
M  END
$$$$
