QTI.pdb
     RDKit          3D

 25 24  0  0  1  0  0  0  0  0999 V2000
    7.7235  -14.5781   14.8542 N   0  0  0  0  0  0  0  0  0  0  0  0
    8.8895  -15.3682   14.8646 C   0  0  0  0  0  0  0  0  0  0  0  0
    9.5571  -15.5293   13.8002 O   0  0  0  0  0  0  0  0  0  0  0  0
    9.2963  -15.9954   16.1599 C   0  0  0  0  0  0  0  0  0  0  0  0
    8.3597  -15.4808   17.2208 C   0  0  0  0  0  0  0  0  0  0  0  0
    9.0931  -14.9477   18.4248 C   0  0  2  0  0  0  0  0  0  0  0  0
   10.2899  -15.7444   18.5987 N   0  0  0  0  0  0  0  0  0  0  0  0
    8.1908  -15.0610   19.6101 C   0  0  0  0  0  0  0  0  0  0  0  0
    6.9391  -15.0630   19.4627 O   0  0  0  0  0  0  0  0  0  0  0  0
    6.2671  -16.8232   20.5720 C   0  0  0  0  0  0  0  0  0  0  0  0
    7.0476  -16.7703   21.8442 C   0  0  1  0  0  0  0  0  0  0  0  0
    8.0278  -17.7574   21.9360 O   0  0  0  0  0  0  0  0  0  0  0  0
    7.7736  -15.4320   22.0243 C   0  0  2  0  0  0  0  0  0  0  0  0
    8.6699  -15.1709   20.9441 N   0  0  0  0  0  0  0  0  0  0  0  0
    8.4179  -15.3878   23.3562 C   0  0  0  0  0  0  0  0  0  0  0  0
    9.6509  -15.6445   23.3965 O   0  0  0  0  0  0  0  0  0  0  0  0
    6.0755  -11.7564   26.4965 C   0  0  0  0  0  0  0  0  0  0  0  0
    7.0997  -12.5015   25.6671 C   0  0  0  0  0  0  0  0  0  0  0  0
    7.6624  -13.6172   26.5200 C   0  0  2  0  0  0  0  0  0  0  0  0
    8.4261  -13.0251   27.6623 C   0  0  0  0  0  0  0  0  0  0  0  0
    8.4874  -14.5846   25.7022 C   0  0  2  0  0  0  0  0  0  0  0  0
    7.7640  -15.0854   24.5571 N   0  0  0  0  0  0  0  0  0  0  0  0
    8.8872  -15.7085   26.6124 C   0  0  0  0  0  0  0  0  0  0  0  0
   10.0253  -15.6468   27.4037 O   0  0  0  0  0  0  0  0  0  0  0  0
    8.1863  -16.7500   26.6789 O   0  0  0  0  0  0  0  0  0  0  0  0
  2  1  1  0
  3  2  2  0
  4  2  1  0
  5  4  1  0
  6  5  1  0
  6  7  1  1
  8  9  2  0
  8  6  1  0
 11 10  1  6
 11 12  1  0
 13 11  1  0
 13 14  1  6
 14  8  1  0
 15 13  1  0
 15 16  2  0
 18 19  1  0
 18 17  1  0
 19 21  1  0
 19 20  1  1
 21 22  1  6
 21 23  1  0
 22 15  1  0
 23 25  2  0
 23 24  1  0
M  END
$$$$
