QTI.pdb
     RDKit          3D

 25 24  0  0  1  0  0  0  0  0999 V2000
   16.3298  -17.2499   21.1298 N   0  0  0  0  0  0  0  0  0  0  0  0
   16.0721  -18.2580   20.1805 C   0  0  0  0  0  0  0  0  0  0  0  0
   16.9160  -19.1838   19.9921 O   0  0  0  0  0  0  0  0  0  0  0  0
   14.7857  -18.1892   19.4208 C   0  0  0  0  0  0  0  0  0  0  0  0
   13.6696  -18.1579   20.4312 C   0  0  0  0  0  0  0  0  0  0  0  0
   12.3120  -18.0555   19.7843 C   0  0  2  0  0  0  0  0  0  0  0  0
   12.4841  -17.4047   18.5021 N   0  0  0  0  0  0  0  0  0  0  0  0
   11.4252  -17.2560   20.6822 C   0  0  0  0  0  0  0  0  0  0  0  0
   11.2476  -16.0256   20.4748 O   0  0  0  0  0  0  0  0  0  0  0  0
    7.4991  -16.7532   23.4053 C   0  0  0  0  0  0  0  0  0  0  0  0
    8.4318  -17.5709   22.5732 C   0  0  1  0  0  0  0  0  0  0  0  0
    8.0604  -17.6439   21.2315 O   0  0  0  0  0  0  0  0  0  0  0  0
    9.8611  -17.0166   22.5892 C   0  0  2  0  0  0  0  0  0  0  0  0
   10.7427  -17.8135   21.7978 N   0  0  0  0  0  0  0  0  0  0  0  0
   10.3131  -16.8389   23.9874 C   0  0  0  0  0  0  0  0  0  0  0  0
   11.1286  -17.6912   24.4305 O   0  0  0  0  0  0  0  0  0  0  0  0
    9.8961  -13.1256   28.9403 C   0  0  0  0  0  0  0  0  0  0  0  0
   10.3312  -14.4524   28.3552 C   0  0  0  0  0  0  0  0  0  0  0  0
    9.8799  -14.4918   26.9118 C   0  0  2  0  0  0  0  0  0  0  0  0
    8.3994  -14.2827   26.8540 C   0  0  0  0  0  0  0  0  0  0  0  0
   10.3195  -15.7636   26.2229 C   0  0  2  0  0  0  0  0  0  0  0  0
    9.9047  -15.8059   24.8403 N   0  0  0  0  0  0  0  0  0  0  0  0
    9.7318  -16.9113   26.9902 C   0  0  0  0  0  0  0  0  0  0  0  0
   10.3945  -17.5008   28.0573 O   0  0  0  0  0  0  0  0  0  0  0  0
    8.6049  -17.3722   26.6770 O   0  0  0  0  0  0  0  0  0  0  0  0
  2  1  1  0
  3  2  2  0
  4  2  1  0
  5  4  1  0
  6  5  1  0
  6  7  1  6
  8  9  2  0
  8  6  1  0
 11 10  1  1
 11 12  1  0
 13 11  1  0
 13 14  1  1
 14  8  1  0
 15 13  1  0
 15 16  2  0
 18 19  1  0
 18 17  1  0
 19 21  1  0
 19 20  1  1
 21 22  1  6
 21 23  1  0
 22 15  1  0
 23 25  2  0
 23 24  1  0
M  END
$$$$
