QTI.pdb
     RDKit          3D

 25 24  0  0  1  0  0  0  0  0999 V2000
   13.2429  -14.3680   20.1870 N   0  0  0  0  0  0  0  0  0  0  0  0
   13.0848  -14.6662   18.8195 C   0  0  0  0  0  0  0  0  0  0  0  0
   14.1022  -14.8535   18.0884 O   0  0  0  0  0  0  0  0  0  0  0  0
   11.6926  -14.7503   18.2798 C   0  0  0  0  0  0  0  0  0  0  0  0
   10.7514  -14.4747   19.4226 C   0  0  0  0  0  0  0  0  0  0  0  0
    9.3074  -14.6708   19.0375 C   0  0  2  0  0  0  0  0  0  0  0  0
    8.8906  -13.5047   18.2866 N   0  0  0  0  0  0  0  0  0  0  0  0
    8.5061  -14.8232   20.2891 C   0  0  0  0  0  0  0  0  0  0  0  0
    7.7541  -13.8921   20.6840 O   0  0  0  0  0  0  0  0  0  0  0  0
    6.2454  -17.7826   23.4976 C   0  0  0  0  0  0  0  0  0  0  0  0
    7.2029  -17.6084   22.3648 C   0  0  1  0  0  0  0  0  0  0  0  0
    6.6826  -18.0005   21.1323 O   0  0  0  0  0  0  0  0  0  0  0  0
    7.6426  -16.1493   22.1959 C   0  0  2  0  0  0  0  0  0  0  0  0
    8.5378  -15.9943   21.0945 N   0  0  0  0  0  0  0  0  0  0  0  0
    8.1803  -15.6376   23.4765 C   0  0  0  0  0  0  0  0  0  0  0  0
    9.4333  -15.6508   23.6090 O   0  0  0  0  0  0  0  0  0  0  0  0
    5.2002  -12.2310   26.6194 C   0  0  0  0  0  0  0  0  0  0  0  0
    6.3302  -12.7777   25.7731 C   0  0  0  0  0  0  0  0  0  0  0  0
    7.0399  -13.8421   26.5806 C   0  0  2  0  0  0  0  0  0  0  0  0
    7.6825  -13.2071   27.7734 C   0  0  0  0  0  0  0  0  0  0  0  0
    8.0182  -14.6258   25.7356 C   0  0  2  0  0  0  0  0  0  0  0  0
    7.4066  -15.1469   24.5357 N   0  0  0  0  0  0  0  0  0  0  0  0
    8.5503  -15.7397   26.5886 C   0  0  0  0  0  0  0  0  0  0  0  0
    9.7612  -15.6408   27.2589 O   0  0  0  0  0  0  0  0  0  0  0  0
    7.8981  -16.8068   26.7169 O   0  0  0  0  0  0  0  0  0  0  0  0
  2  1  1  0
  3  2  2  0
  4  2  1  0
  5  4  1  0
  6  5  1  0
  6  7  1  1
  8  9  2  0
  8  6  1  0
 11 10  1  1
 11 12  1  0
 13 11  1  0
 13 14  1  6
 14  8  1  0
 15 13  1  0
 15 16  2  0
 18 19  1  0
 18 17  1  0
 19 21  1  0
 19 20  1  1
 21 22  1  6
 21 23  1  0
 22 15  1  0
 23 25  2  0
 23 24  1  0
M  END
$$$$
