QTI.pdb
     RDKit          3D

 25 24  0  0  1  0  0  0  0  0999 V2000
    8.2987  -12.8572   16.8630 N   0  0  0  0  0  0  0  0  0  0  0  0
    8.1649  -14.0585   16.1399 C   0  0  0  0  0  0  0  0  0  0  0  0
    8.0406  -14.0309   14.8796 O   0  0  0  0  0  0  0  0  0  0  0  0
    8.1758  -15.3411   16.9090 C   0  0  0  0  0  0  0  0  0  0  0  0
    9.3317  -15.2765   17.8720 C   0  0  0  0  0  0  0  0  0  0  0  0
    9.3741  -16.4644   18.7988 C   0  0  2  0  0  0  0  0  0  0  0  0
    8.9972  -17.6337   18.0321 N   0  0  0  0  0  0  0  0  0  0  0  0
    8.4152  -16.2189   19.9178 C   0  0  0  0  0  0  0  0  0  0  0  0
    7.1769  -16.3775   19.7449 O   0  0  0  0  0  0  0  0  0  0  0  0
    6.5143  -17.6966   21.3705 C   0  0  0  0  0  0  0  0  0  0  0  0
    7.3390  -17.2399   22.5290 C   0  0  1  0  0  0  0  0  0  0  0  0
    8.4291  -18.0671   22.7951 O   0  0  0  0  0  0  0  0  0  0  0  0
    7.9138  -15.8349   22.3139 C   0  0  2  0  0  0  0  0  0  0  0  0
    8.8237  -15.8021   21.2142 N   0  0  0  0  0  0  0  0  0  0  0  0
    8.4922  -15.3320   23.5802 C   0  0  0  0  0  0  0  0  0  0  0  0
    9.7387  -15.4527   23.7195 O   0  0  0  0  0  0  0  0  0  0  0  0
    5.7543  -11.8859   27.3067 C   0  0  0  0  0  0  0  0  0  0  0  0
    6.2676  -13.0890   26.5444 C   0  0  0  0  0  0  0  0  0  0  0  0
    7.6822  -12.7869   26.1012 C   0  0  2  0  0  0  0  0  0  0  0  0
    7.6475  -11.7592   25.0141 C   0  0  0  0  0  0  0  0  0  0  0  0
    8.4220  -14.0419   25.6978 C   0  0  2  0  0  0  0  0  0  0  0  0
    7.7630  -14.7402   24.6191 N   0  0  0  0  0  0  0  0  0  0  0  0
    8.5176  -14.9130   26.9158 C   0  0  0  0  0  0  0  0  0  0  0  0
    9.3019  -14.5697   28.0077 O   0  0  0  0  0  0  0  0  0  0  0  0
    7.8770  -15.9932   26.9743 O   0  0  0  0  0  0  0  0  0  0  0  0
  2  1  1  0
  3  2  2  0
  4  2  1  0
  5  4  1  0
  6  5  1  0
  6  7  1  6
  8  9  2  0
  8  6  1  0
 11 10  1  6
 11 12  1  0
 13 11  1  0
 13 14  1  6
 14  8  1  0
 15 13  1  0
 15 16  2  0
 18 19  1  0
 18 17  1  0
 19 21  1  0
 19 20  1  6
 21 22  1  6
 21 23  1  0
 22 15  1  0
 23 25  2  0
 23 24  1  0
M  END
$$$$
