KEC.pdb
     RDKit          3D

 25 24  0  0  1  0  0  0  0  0999 V2000
    6.2569  -15.7860   20.1541 N   0  0  0  0  0  0  0  0  0  0  0  0
    7.5045  -15.2185   20.5433 C   0  0  1  0  0  0  0  0  0  0  0  0
    7.5916  -13.7203   20.3826 C   0  0  0  0  0  0  0  0  0  0  0  0
    7.2888  -13.2567   18.9950 C   0  0  0  0  0  0  0  0  0  0  0  0
    8.3838  -13.7297   18.0721 C   0  0  0  0  0  0  0  0  0  0  0  0
    8.1589  -13.3645   16.6294 C   0  0  0  0  0  0  0  0  0  0  0  0
    9.1816  -13.9595   15.7699 N   0  0  0  0  0  0  0  0  0  0  0  0
    7.8601  -15.6261   21.9209 C   0  0  0  0  0  0  0  0  0  0  0  0
    6.9717  -15.6614   22.8238 O   0  0  0  0  0  0  0  0  0  0  0  0
    9.1982  -15.9699   22.1989 N   0  0  0  0  0  0  0  0  0  0  0  0
    9.5570  -16.3956   23.5681 C   0  0  1  0  0  0  0  0  0  0  0  0
   10.7489  -17.2658   23.4127 C   0  0  0  0  0  0  0  0  0  0  0  0
   11.3344  -17.7996   24.6766 C   0  0  0  0  0  0  0  0  0  0  0  0
   12.4708  -18.6976   24.3970 C   0  0  0  0  0  0  0  0  0  0  0  0
   13.1787  -19.1801   25.3461 O   0  0  0  0  0  0  0  0  0  0  0  0
    9.6225  -15.2104   24.4036 C   0  0  0  0  0  0  0  0  0  0  0  0
   10.3525  -14.2427   24.0654 O   0  0  0  0  0  0  0  0  0  0  0  0
   12.7624  -19.0132   23.0837 O   0  0  0  0  0  0  0  0  0  0  0  0
    8.8821  -15.1040   25.6044 N   0  0  0  0  0  0  0  0  0  0  0  0
    9.1478  -13.9863   26.4847 C   0  0  1  0  0  0  0  0  0  0  0  0
    8.0482  -12.9557   26.2203 C   0  0  0  0  0  0  0  0  0  0  0  0
    6.5381  -13.3578   27.1336 S   0  0  0  0  0  0  0  0  0  0  0  0
    9.1779  -14.3834   27.9015 C   0  0  0  0  0  0  0  0  0  0  0  0
    8.8434  -15.5513   28.2120 O   0  0  0  0  0  0  0  0  0  0  0  0
    9.5707  -13.4734   28.8660 O   0  0  0  0  0  0  0  0  0  0  0  0
  2  8  1  0
  2  1  1  1
  3  2  1  0
  4  5  1  0
  4  3  1  0
  6  7  1  0
  6  5  1  0
  8  9  2  0
 10 11  1  0
 10  8  1  0
 11 12  1  6
 12 13  1  0
 13 14  1  0
 14 18  1  0
 14 15  2  0
 16 17  2  0
 16 11  1  0
 19 16  1  0
 20 23  1  0
 20 19  1  0
 20 21  1  1
 22 21  1  0
 23 25  1  0
 24 23  2  0
M  END
$$$$
