KEC.pdb
     RDKit          3D

 25 24  0  0  1  0  0  0  0  0999 V2000
    7.5345  -16.6249   18.9715 N   0  0  0  0  0  0  0  0  0  0  0  0
    8.4287  -15.8357   19.7509 C   0  0  1  0  0  0  0  0  0  0  0  0
    8.4059  -14.3604   19.4334 C   0  0  0  0  0  0  0  0  0  0  0  0
    7.1673  -13.9295   18.7176 C   0  0  0  0  0  0  0  0  0  0  0  0
    7.5603  -13.1723   17.4740 C   0  0  0  0  0  0  0  0  0  0  0  0
    7.7350  -14.0479   16.2624 C   0  0  0  0  0  0  0  0  0  0  0  0
    7.9683  -13.2457   15.0620 N   0  0  0  0  0  0  0  0  0  0  0  0
    8.2136  -16.0710   21.1962 C   0  0  0  0  0  0  0  0  0  0  0  0
    7.0961  -16.5000   21.6121 O   0  0  0  0  0  0  0  0  0  0  0  0
    9.2727  -15.8080   22.0879 N   0  0  0  0  0  0  0  0  0  0  0  0
    9.0859  -16.0986   23.5250 C   0  0  1  0  0  0  0  0  0  0  0  0
   10.2832  -16.8756   23.9308 C   0  0  0  0  0  0  0  0  0  0  0  0
   10.3799  -17.2126   25.3807 C   0  0  0  0  0  0  0  0  0  0  0  0
   11.5829  -18.0197   25.6587 C   0  0  0  0  0  0  0  0  0  0  0  0
   11.7580  -19.1560   25.0995 O   0  0  0  0  0  0  0  0  0  0  0  0
    8.7624  -14.8528   24.1960 C   0  0  0  0  0  0  0  0  0  0  0  0
    9.1463  -13.7581   23.7082 O   0  0  0  0  0  0  0  0  0  0  0  0
   12.5264  -17.5266   26.5396 O   0  0  0  0  0  0  0  0  0  0  0  0
    8.0183  -14.8265   25.3990 N   0  0  0  0  0  0  0  0  0  0  0  0
    7.7436  -13.5459   26.0151 C   0  0  1  0  0  0  0  0  0  0  0  0
    6.2708  -13.2383   25.7366 C   0  0  0  0  0  0  0  0  0  0  0  0
    5.7277  -11.7623   26.6326 S   0  0  0  0  0  0  0  0  0  0  0  0
    8.0251  -13.5469   27.4596 C   0  0  0  0  0  0  0  0  0  0  0  0
    8.3240  -14.6283   28.0192 O   0  0  0  0  0  0  0  0  0  0  0  0
    7.9573  -12.3668   28.1776 O   0  0  0  0  0  0  0  0  0  0  0  0
  2  8  1  0
  2  1  1  6
  3  2  1  0
  4  5  1  0
  4  3  1  0
  6  7  1  0
  6  5  1  0
  8  9  2  0
 10 11  1  0
 10  8  1  0
 11 12  1  1
 12 13  1  0
 13 14  1  0
 14 18  1  0
 14 15  2  0
 16 17  2  0
 16 11  1  0
 19 16  1  0
 20 23  1  0
 20 19  1  0
 20 21  1  1
 22 21  1  0
 23 25  1  0
 24 23  2  0
M  END
$$$$
