KEC.pdb
     RDKit          3D

 25 24  0  0  1  0  0  0  0  0999 V2000
    6.9103  -17.6935   21.4148 N   0  0  0  0  0  0  0  0  0  0  0  0
    8.0741  -16.8740   21.4760 C   0  0  1  0  0  0  0  0  0  0  0  0
    7.8284  -15.4106   21.2004 C   0  0  0  0  0  0  0  0  0  0  0  0
    7.8703  -15.0683   19.7467 C   0  0  0  0  0  0  0  0  0  0  0  0
    7.6311  -13.5880   19.5863 C   0  0  0  0  0  0  0  0  0  0  0  0
    7.5915  -13.1334   18.1521 C   0  0  0  0  0  0  0  0  0  0  0  0
    7.4374  -11.6817   18.0637 N   0  0  0  0  0  0  0  0  0  0  0  0
    8.7807  -17.0603   22.7631 C   0  0  0  0  0  0  0  0  0  0  0  0
    8.1255  -17.3086   23.8190 O   0  0  0  0  0  0  0  0  0  0  0  0
   10.1859  -16.9552   22.7831 N   0  0  0  0  0  0  0  0  0  0  0  0
   10.8937  -17.0818   24.0745 C   0  0  1  0  0  0  0  0  0  0  0  0
   12.3086  -17.3607   23.7249 C   0  0  0  0  0  0  0  0  0  0  0  0
   13.2640  -17.4119   24.8694 C   0  0  0  0  0  0  0  0  0  0  0  0
   14.6290  -17.7265   24.4073 C   0  0  0  0  0  0  0  0  0  0  0  0
   14.9970  -18.9355   24.2132 O   0  0  0  0  0  0  0  0  0  0  0  0
   10.5564  -15.9263   24.8857 C   0  0  0  0  0  0  0  0  0  0  0  0
   10.3154  -14.8206   24.3351 O   0  0  0  0  0  0  0  0  0  0  0  0
   15.5125  -16.6877   24.1851 O   0  0  0  0  0  0  0  0  0  0  0  0
   10.4884  -16.0014   26.2968 N   0  0  0  0  0  0  0  0  0  0  0  0
   10.1801  -14.7983   27.0400 C   0  0  1  0  0  0  0  0  0  0  0  0
    8.7456  -14.4160   26.6698 C   0  0  0  0  0  0  0  0  0  0  0  0
    8.1510  -13.0387   27.6825 S   0  0  0  0  0  0  0  0  0  0  0  0
   10.3253  -14.9841   28.4927 C   0  0  0  0  0  0  0  0  0  0  0  0
   10.4366  -16.1470   28.9479 O   0  0  0  0  0  0  0  0  0  0  0  0
   10.3370  -13.8850   29.3321 O   0  0  0  0  0  0  0  0  0  0  0  0
  2  8  1  0
  2  1  1  1
  3  2  1  0
  4  5  1  0
  4  3  1  0
  6  7  1  0
  6  5  1  0
  8  9  2  0
 10 11  1  0
 10  8  1  0
 11 12  1  6
 12 13  1  0
 13 14  1  0
 14 18  1  0
 14 15  2  0
 16 17  2  0
 16 11  1  0
 19 16  1  0
 20 23  1  0
 20 19  1  0
 20 21  1  1
 22 21  1  0
 23 25  1  0
 24 23  2  0
M  END
$$$$
