KEC.pdb
     RDKit          3D

 25 24  0  0  1  0  0  0  0  0999 V2000
    6.9779  -19.4569   21.1666 N   0  0  0  0  0  0  0  0  0  0  0  0
    6.5290  -18.1843   21.6239 C   0  0  1  0  0  0  0  0  0  0  0  0
    5.0941  -18.1538   22.0908 C   0  0  0  0  0  0  0  0  0  0  0  0
    4.2439  -19.2052   21.4554 C   0  0  0  0  0  0  0  0  0  0  0  0
    2.8370  -19.0812   21.9844 C   0  0  0  0  0  0  0  0  0  0  0  0
    1.8620  -20.0284   21.3382 C   0  0  0  0  0  0  0  0  0  0  0  0
    0.5094  -19.8264   21.8562 N   0  0  0  0  0  0  0  0  0  0  0  0
    7.4369  -17.6493   22.6631 C   0  0  0  0  0  0  0  0  0  0  0  0
    7.6510  -18.3102   23.7230 O   0  0  0  0  0  0  0  0  0  0  0  0
    8.0499  -16.3992   22.4454 N   0  0  0  0  0  0  0  0  0  0  0  0
    8.9509  -15.8547   23.4828 C   0  0  1  0  0  0  0  0  0  0  0  0
   10.2105  -15.5158   22.7753 C   0  0  0  0  0  0  0  0  0  0  0  0
   11.2021  -16.6225   22.6453 C   0  0  0  0  0  0  0  0  0  0  0  0
   12.3963  -16.1801   21.9008 C   0  0  0  0  0  0  0  0  0  0  0  0
   13.4918  -15.9201   22.5066 O   0  0  0  0  0  0  0  0  0  0  0  0
    8.2263  -14.8313   24.2138 C   0  0  0  0  0  0  0  0  0  0  0  0
    8.0124  -13.7111   23.6815 O   0  0  0  0  0  0  0  0  0  0  0  0
   12.3142  -16.0494   20.5278 O   0  0  0  0  0  0  0  0  0  0  0  0
    7.7444  -15.0531   25.5254 N   0  0  0  0  0  0  0  0  0  0  0  0
    7.9661  -14.0313   26.5263 C   0  0  1  0  0  0  0  0  0  0  0  0
    6.5843  -13.6201   27.0389 C   0  0  0  0  0  0  0  0  0  0  0  0
    5.5828  -12.8950   25.7170 S   0  0  0  0  0  0  0  0  0  0  0  0
    8.8255  -14.5002   27.6252 C   0  0  0  0  0  0  0  0  0  0  0  0
    9.2527  -15.6787   27.6014 O   0  0  0  0  0  0  0  0  0  0  0  0
    9.1494  -13.6446   28.6623 O   0  0  0  0  0  0  0  0  0  0  0  0
  2  8  1  0
  2  1  1  1
  3  2  1  0
  4  5  1  0
  4  3  1  0
  6  7  1  0
  6  5  1  0
  8  9  2  0
 10 11  1  0
 10  8  1  0
 11 12  1  6
 12 13  1  0
 13 14  1  0
 14 18  1  0
 14 15  2  0
 16 17  2  0
 16 11  1  0
 19 16  1  0
 20 23  1  0
 20 19  1  0
 20 21  1  1
 22 21  1  0
 23 25  1  0
 24 23  2  0
M  END
$$$$
