KEC.pdb
     RDKit          3D

 25 24  0  0  1  0  0  0  0  0999 V2000
    9.4204  -12.6849   19.1761 N   0  0  0  0  0  0  0  0  0  0  0  0
    8.1702  -13.2625   19.5411 C   0  0  1  0  0  0  0  0  0  0  0  0
    7.4072  -13.8857   18.3977 C   0  0  0  0  0  0  0  0  0  0  0  0
    8.2746  -14.6677   17.4658 C   0  0  0  0  0  0  0  0  0  0  0  0
    7.4432  -15.1267   16.2942 C   0  0  0  0  0  0  0  0  0  0  0  0
    8.2343  -15.8493   15.2372 C   0  0  0  0  0  0  0  0  0  0  0  0
    7.3777  -16.2551   14.1235 N   0  0  0  0  0  0  0  0  0  0  0  0
    8.3406  -14.2249   20.6525 C   0  0  0  0  0  0  0  0  0  0  0  0
    7.3322  -14.8129   21.1458 O   0  0  0  0  0  0  0  0  0  0  0  0
    9.6395  -14.4672   21.1425 N   0  0  0  0  0  0  0  0  0  0  0  0
    9.8317  -15.5090   22.1732 C   0  0  1  0  0  0  0  0  0  0  0  0
   11.0884  -16.2056   21.8027 C   0  0  0  0  0  0  0  0  0  0  0  0
   10.9277  -17.5543   21.1858 C   0  0  0  0  0  0  0  0  0  0  0  0
   12.2363  -18.1335   20.8282 C   0  0  0  0  0  0  0  0  0  0  0  0
   12.8496  -17.7712   19.7665 O   0  0  0  0  0  0  0  0  0  0  0  0
    9.7021  -14.8808   23.4753 C   0  0  0  0  0  0  0  0  0  0  0  0
   10.3237  -13.8151   23.7236 O   0  0  0  0  0  0  0  0  0  0  0  0
   12.7953  -19.0814   21.6638 O   0  0  0  0  0  0  0  0  0  0  0  0
    8.8879  -15.4342   24.4913 N   0  0  0  0  0  0  0  0  0  0  0  0
    8.7714  -14.7255   25.7479 C   0  0  1  0  0  0  0  0  0  0  0  0
    7.5954  -13.7590   25.5928 C   0  0  0  0  0  0  0  0  0  0  0  0
    7.2587  -12.8812   27.1395 S   0  0  0  0  0  0  0  0  0  0  0  0
    8.5689  -15.6345   26.8875 C   0  0  0  0  0  0  0  0  0  0  0  0
    8.3060  -16.8398   26.6634 O   0  0  0  0  0  0  0  0  0  0  0  0
    8.6695  -15.1545   28.1806 O   0  0  0  0  0  0  0  0  0  0  0  0
  2  8  1  0
  2  1  1  6
  3  2  1  0
  4  5  1  0
  4  3  1  0
  6  7  1  0
  6  5  1  0
  8  9  2  0
 10 11  1  0
 10  8  1  0
 11 12  1  1
 12 13  1  0
 13 14  1  0
 14 18  1  0
 14 15  2  0
 16 17  2  0
 16 11  1  0
 19 16  1  0
 20 23  1  0
 20 19  1  0
 20 21  1  6
 22 21  1  0
 23 25  1  0
 24 23  2  0
M  END
$$$$
