KEC.pdb
     RDKit          3D

 25 24  0  0  1  0  0  0  0  0999 V2000
   -1.6866  -27.7619   27.9035 N   0  0  0  0  0  0  0  0  0  0  0  0
   -1.5409  -26.4902   28.5292 C   0  0  1  0  0  0  0  0  0  0  0  0
   -0.6591  -25.5191   27.7828 C   0  0  0  0  0  0  0  0  0  0  0  0
    0.7603  -25.9729   27.6752 C   0  0  0  0  0  0  0  0  0  0  0  0
    1.5360  -24.9631   26.8670 C   0  0  0  0  0  0  0  0  0  0  0  0
    2.9889  -25.3153   26.6925 C   0  0  0  0  0  0  0  0  0  0  0  0
    3.6914  -25.3036   27.9751 N   0  0  0  0  0  0  0  0  0  0  0  0
   -2.8636  -25.8922   28.8180 C   0  0  0  0  0  0  0  0  0  0  0  0
   -2.9432  -24.8034   29.4614 O   0  0  0  0  0  0  0  0  0  0  0  0
   -4.0193  -26.5584   28.3637 N   0  0  0  0  0  0  0  0  0  0  0  0
   -5.3457  -26.0250   28.7390 C   0  0  1  0  0  0  0  0  0  0  0  0
   -6.1739  -26.1236   27.5117 C   0  0  0  0  0  0  0  0  0  0  0  0
   -7.6160  -25.7765   27.6699 C   0  0  0  0  0  0  0  0  0  0  0  0
   -8.3262  -25.8591   26.3796 C   0  0  0  0  0  0  0  0  0  0  0  0
   -9.0802  -24.9070   25.9801 O   0  0  0  0  0  0  0  0  0  0  0  0
   -5.7670  -26.6888   29.9591 C   0  0  0  0  0  0  0  0  0  0  0  0
   -5.6597  -27.9383   30.0641 O   0  0  0  0  0  0  0  0  0  0  0  0
   -8.1641  -26.9895   25.6018 O   0  0  0  0  0  0  0  0  0  0  0  0
   -6.3030  -25.9679   31.0520 N   0  0  0  0  0  0  0  0  0  0  0  0
   -6.8248  -26.7086   32.1808 C   0  0  1  0  0  0  0  0  0  0  0  0
   -6.0620  -26.2158   33.4122 C   0  0  0  0  0  0  0  0  0  0  0  0
   -6.8343  -26.8017   34.9408 S   0  0  0  0  0  0  0  0  0  0  0  0
   -8.2764  -26.5307   32.3453 C   0  0  0  0  0  0  0  0  0  0  0  0
   -8.7792  -25.4039   32.1224 O   0  0  0  0  0  0  0  0  0  0  0  0
   -9.0629  -27.5975   32.7403 O   0  0  0  0  0  0  0  0  0  0  0  0
  2  8  1  0
  2  1  1  6
  3  2  1  0
  4  5  1  0
  4  3  1  0
  6  7  1  0
  6  5  1  0
  8  9  2  0
 10 11  1  0
 10  8  1  0
 11 12  1  6
 12 13  1  0
 13 14  1  0
 14 18  1  0
 14 15  2  0
 16 17  2  0
 16 11  1  0
 19 16  1  0
 20 23  1  0
 20 19  1  0
 20 21  1  1
 22 21  1  0
 23 25  1  0
 24 23  2  0
M  END
$$$$
