SGA.pdb
     RDKit          3D

 16 15  0  0  1  0  0  0  0  0999 V2000
   19.2724  -12.5838  -17.6599 O   0  0  0  0  0  0  0  0  0  0  0  0
   18.4882  -11.5230  -17.2086 C   0  0  0  0  0  0  0  0  0  0  0  0
   19.3541  -10.3872  -16.7477 C   0  0  2  0  0  0  0  0  0  0  0  0
   20.4193  -10.8294  -15.8693 N   0  0  0  0  0  0  0  0  0  0  0  0
   18.6410   -9.2898  -16.1110 C   0  0  0  0  0  0  0  0  0  0  0  0
   17.8515   -9.5786  -15.1477 O   0  0  0  0  0  0  0  0  0  0  0  0
   18.7390   -7.9190  -16.4603 N   0  0  0  0  0  0  0  0  0  0  0  0
   17.9892   -6.8734  -15.7988 C   0  0  0  0  0  0  0  0  0  0  0  0
   18.9102   -6.1515  -14.8635 C   0  0  0  0  0  0  0  0  0  0  0  0
   18.6584   -4.9770  -14.4621 O   0  0  0  0  0  0  0  0  0  0  0  0
   21.7729   -7.1694  -12.7375 C   0  0  0  0  0  0  0  0  0  0  0  0
   20.9458   -6.0798  -13.4194 C   0  0  2  0  0  0  0  0  0  0  0  0
   20.1044   -6.7416  -14.3817 N   0  0  0  0  0  0  0  0  0  0  0  0
   21.8882   -5.1262  -14.0765 C   0  0  0  0  0  0  0  0  0  0  0  0
   22.5934   -4.3493  -13.3855 O   0  0  0  0  0  0  0  0  0  0  0  0
   21.9799   -5.1035  -15.4489 O   0  0  0  0  0  0  0  0  0  0  0  0
  2  1  1  0
  3  2  1  0
  3  4  1  1
  5  3  1  0
  6  5  2  0
  7  5  1  0
  8  7  1  0
  9 13  1  0
  9  8  1  0
 10  9  2  0
 12 11  1  6
 12 13  1  0
 12 14  1  0
 14 16  1  0
 15 14  2  0
M  END
$$$$
