SGA.pdb
     RDKit          3D

 16 15  0  0  1  0  0  0  0  0999 V2000
   16.4886  -11.7163  -16.0951 O   0  0  0  0  0  0  0  0  0  0  0  0
   17.7277  -11.2780  -16.5602 C   0  0  0  0  0  0  0  0  0  0  0  0
   18.6334  -10.9447  -15.4110 C   0  0  2  0  0  0  0  0  0  0  0  0
   18.0814   -9.9104  -14.5581 N   0  0  0  0  0  0  0  0  0  0  0  0
   19.9904  -10.5749  -15.7851 C   0  0  0  0  0  0  0  0  0  0  0  0
   20.7077  -11.4640  -16.3590 O   0  0  0  0  0  0  0  0  0  0  0  0
   20.5981   -9.3116  -15.5718 N   0  0  0  0  0  0  0  0  0  0  0  0
   21.9513   -9.0005  -15.9780 C   0  0  0  0  0  0  0  0  0  0  0  0
   22.2146   -7.5569  -15.6763 C   0  0  0  0  0  0  0  0  0  0  0  0
   23.3445   -7.0298  -15.8987 O   0  0  0  0  0  0  0  0  0  0  0  0
   20.1307   -4.5941  -15.0477 C   0  0  0  0  0  0  0  0  0  0  0  0
   21.4653   -5.3170  -14.8668 C   0  0  2  0  0  0  0  0  0  0  0  0
   21.2190   -6.7106  -15.1296 N   0  0  0  0  0  0  0  0  0  0  0  0
   21.9257   -5.0949  -13.4639 C   0  0  0  0  0  0  0  0  0  0  0  0
   21.8922   -6.0309  -12.6266 O   0  0  0  0  0  0  0  0  0  0  0  0
   22.3887   -3.8539  -13.0925 O   0  0  0  0  0  0  0  0  0  0  0  0
  2  1  1  0
  3  2  1  0
  3  4  1  6
  5  3  1  0
  6  5  2  0
  7  5  1  0
  8  7  1  0
  9 13  1  0
  9  8  1  0
 10  9  2  0
 12 11  1  1
 12 13  1  0
 12 14  1  0
 14 16  1  0
 15 14  2  0
M  END
$$$$
