SGA.pdb
     RDKit          3D

 16 15  0  0  1  0  0  0  0  0999 V2000
   24.7078  -11.0495  -15.0265 O   0  0  0  0  0  0  0  0  0  0  0  0
   23.6233  -10.9301  -14.1585 C   0  0  0  0  0  0  0  0  0  0  0  0
   22.3345  -10.9036  -14.9270 C   0  0  2  0  0  0  0  0  0  0  0  0
   22.1239  -12.1187  -15.6894 N   0  0  0  0  0  0  0  0  0  0  0  0
   22.1679   -9.7575  -15.8084 C   0  0  0  0  0  0  0  0  0  0  0  0
   22.0562   -9.9873  -17.0611 O   0  0  0  0  0  0  0  0  0  0  0  0
   22.1172   -8.3985  -15.4068 N   0  0  0  0  0  0  0  0  0  0  0  0
   21.8124   -7.3118  -16.3120 C   0  0  0  0  0  0  0  0  0  0  0  0
   21.9283   -6.0226  -15.5577 C   0  0  0  0  0  0  0  0  0  0  0  0
   22.1201   -6.0033  -14.3059 O   0  0  0  0  0  0  0  0  0  0  0  0
   21.9558   -2.4084  -16.5209 C   0  0  0  0  0  0  0  0  0  0  0  0
   21.9705   -3.5274  -15.4797 C   0  0  2  0  0  0  0  0  0  0  0  0
   21.8300   -4.7648  -16.2015 N   0  0  0  0  0  0  0  0  0  0  0  0
   20.8288   -3.3040  -14.5438 C   0  0  0  0  0  0  0  0  0  0  0  0
   19.7076   -3.8234  -14.7710 O   0  0  0  0  0  0  0  0  0  0  0  0
   21.0130   -2.5227  -13.4267 O   0  0  0  0  0  0  0  0  0  0  0  0
  2  1  1  0
  3  2  1  0
  3  4  1  6
  5  3  1  0
  6  5  2  0
  7  5  1  0
  8  7  1  0
  9 13  1  0
  9  8  1  0
 10  9  2  0
 12 11  1  6
 12 13  1  0
 12 14  1  0
 14 16  1  0
 15 14  2  0
M  END
$$$$
