SGA.pdb
     RDKit          3D

 16 15  0  0  1  0  0  0  0  0999 V2000
   19.2425  -14.5312  -16.7622 O   0  0  0  0  0  0  0  0  0  0  0  0
   18.9499  -13.1696  -16.8271 C   0  0  0  0  0  0  0  0  0  0  0  0
   20.2116  -12.3578  -16.7921 C   0  0  2  0  0  0  0  0  0  0  0  0
   20.9830  -12.5925  -15.5873 N   0  0  0  0  0  0  0  0  0  0  0  0
   20.0251  -10.9245  -16.9627 C   0  0  0  0  0  0  0  0  0  0  0  0
   19.9073  -10.4823  -18.1565 O   0  0  0  0  0  0  0  0  0  0  0  0
   19.9612   -9.9634  -15.9221 N   0  0  0  0  0  0  0  0  0  0  0  0
   19.6630   -8.5656  -16.1468 C   0  0  0  0  0  0  0  0  0  0  0  0
   20.8077   -7.7496  -15.6289 C   0  0  0  0  0  0  0  0  0  0  0  0
   21.7117   -8.2623  -14.9051 O   0  0  0  0  0  0  0  0  0  0  0  0
   22.0145   -4.2647  -16.2055 C   0  0  0  0  0  0  0  0  0  0  0  0
   22.0612   -5.5971  -15.4577 C   0  0  2  0  0  0  0  0  0  0  0  0
   20.9381   -6.3696  -15.9201 N   0  0  0  0  0  0  0  0  0  0  0  0
   21.9672   -5.3108  -13.9954 C   0  0  0  0  0  0  0  0  0  0  0  0
   20.8523   -5.3132  -13.4161 O   0  0  0  0  0  0  0  0  0  0  0  0
   23.1134   -5.0434  -13.2834 O   0  0  0  0  0  0  0  0  0  0  0  0
  2  1  1  0
  3  2  1  0
  3  4  1  1
  5  3  1  0
  6  5  2  0
  7  5  1  0
  8  7  1  0
  9 13  1  0
  9  8  1  0
 10  9  2  0
 12 11  1  6
 12 13  1  0
 12 14  1  0
 14 16  1  0
 15 14  2  0
M  END
$$$$
