SGA.pdb
     RDKit          3D

 16 15  0  0  1  0  0  0  0  0999 V2000
   15.4764   -8.7337  -16.5263 O   0  0  0  0  0  0  0  0  0  0  0  0
   16.3422   -8.9396  -15.4531 C   0  0  0  0  0  0  0  0  0  0  0  0
   17.7571   -9.0709  -15.9361 C   0  0  2  0  0  0  0  0  0  0  0  0
   17.9396  -10.2233  -16.7965 N   0  0  0  0  0  0  0  0  0  0  0  0
   18.7646   -9.1002  -14.8863 C   0  0  0  0  0  0  0  0  0  0  0  0
   18.8422  -10.1576  -14.1718 O   0  0  0  0  0  0  0  0  0  0  0  0
   19.6763   -8.0590  -14.5776 N   0  0  0  0  0  0  0  0  0  0  0  0
   20.6891   -8.1662  -13.5500 C   0  0  0  0  0  0  0  0  0  0  0  0
   21.5212   -6.9207  -13.5755 C   0  0  0  0  0  0  0  0  0  0  0  0
   22.3997   -6.6936  -12.6920 O   0  0  0  0  0  0  0  0  0  0  0  0
   22.1650   -4.2026  -16.0080 C   0  0  0  0  0  0  0  0  0  0  0  0
   22.1184   -4.7080  -14.5661 C   0  0  2  0  0  0  0  0  0  0  0  0
   21.3697   -5.9373  -14.5836 N   0  0  0  0  0  0  0  0  0  0  0  0
   21.4474   -3.6672  -13.7321 C   0  0  0  0  0  0  0  0  0  0  0  0
   22.0717   -2.6372  -13.3746 O   0  0  0  0  0  0  0  0  0  0  0  0
   20.1360   -3.8436  -13.3561 O   0  0  0  0  0  0  0  0  0  0  0  0
  2  1  1  0
  3  2  1  0
  3  4  1  1
  5  3  1  0
  6  5  2  0
  7  5  1  0
  8  7  1  0
  9 13  1  0
  9  8  1  0
 10  9  2  0
 12 11  1  6
 12 13  1  0
 12 14  1  0
 14 16  1  0
 15 14  2  0
M  END
$$$$
