SGA.pdb
     RDKit          3D

 16 15  0  0  1  0  0  0  0  0999 V2000
   22.1722   -9.6812  -18.2874 O   0  0  0  0  0  0  0  0  0  0  0  0
   23.4541   -9.4536  -17.7887 C   0  0  0  0  0  0  0  0  0  0  0  0
   23.5482   -9.8956  -16.3576 C   0  0  2  0  0  0  0  0  0  0  0  0
   23.1861  -11.2891  -16.1877 N   0  0  0  0  0  0  0  0  0  0  0  0
   22.7865   -9.0906  -15.4143 C   0  0  0  0  0  0  0  0  0  0  0  0
   22.0941   -9.7087  -14.5350 O   0  0  0  0  0  0  0  0  0  0  0  0
   22.7385   -7.6739  -15.3772 N   0  0  0  0  0  0  0  0  0  0  0  0
   22.0407   -6.9277  -14.3528 C   0  0  0  0  0  0  0  0  0  0  0  0
   22.1247   -5.4705  -14.6905 C   0  0  0  0  0  0  0  0  0  0  0  0
   23.2115   -4.9400  -15.0666 O   0  0  0  0  0  0  0  0  0  0  0  0
   19.6490   -2.6882  -14.9767 C   0  0  0  0  0  0  0  0  0  0  0  0
   21.0836   -3.2134  -14.9255 C   0  0  2  0  0  0  0  0  0  0  0  0
   20.9992   -4.6146  -14.6073 N   0  0  0  0  0  0  0  0  0  0  0  0
   21.8177   -2.4531  -13.8709 C   0  0  0  0  0  0  0  0  0  0  0  0
   22.3170   -1.3289  -14.1268 O   0  0  0  0  0  0  0  0  0  0  0  0
   21.9444   -2.9932  -12.6121 O   0  0  0  0  0  0  0  0  0  0  0  0
  2  1  1  0
  3  2  1  0
  3  4  1  6
  5  3  1  0
  6  5  2  0
  7  5  1  0
  8  7  1  0
  9 13  1  0
  9  8  1  0
 10  9  2  0
 12 11  1  1
 12 13  1  0
 12 14  1  0
 14 16  1  0
 15 14  2  0
M  END
$$$$
