SGA.pdb
     RDKit          3D

 16 15  0  0  1  0  0  0  0  0999 V2000
   13.1705   -8.4693  -13.9515 O   0  0  0  0  0  0  0  0  0  0  0  0
   14.5404   -8.4396  -14.2086 C   0  0  0  0  0  0  0  0  0  0  0  0
   14.8048   -7.9283  -15.5946 C   0  0  2  0  0  0  0  0  0  0  0  0
   14.1328   -8.7167  -16.6088 N   0  0  0  0  0  0  0  0  0  0  0  0
   16.2117   -7.8053  -15.9463 C   0  0  0  0  0  0  0  0  0  0  0  0
   16.7993   -8.8450  -16.4028 O   0  0  0  0  0  0  0  0  0  0  0  0
   16.9996   -6.6322  -15.8301 N   0  0  0  0  0  0  0  0  0  0  0  0
   18.3870   -6.5618  -16.2345 C   0  0  0  0  0  0  0  0  0  0  0  0
   19.2197   -6.2905  -15.0190 C   0  0  0  0  0  0  0  0  0  0  0  0
   18.7057   -5.8447  -13.9508 O   0  0  0  0  0  0  0  0  0  0  0  0
   22.6854   -7.0885  -13.9671 C   0  0  0  0  0  0  0  0  0  0  0  0
   21.4181   -6.2438  -13.8364 C   0  0  2  0  0  0  0  0  0  0  0  0
   20.6178   -6.5173  -15.0010 N   0  0  0  0  0  0  0  0  0  0  0  0
   21.8231   -4.8082  -13.7720 C   0  0  0  0  0  0  0  0  0  0  0  0
   22.3254   -4.3343  -12.7224 O   0  0  0  0  0  0  0  0  0  0  0  0
   21.6422   -4.0043  -14.8736 O   0  0  0  0  0  0  0  0  0  0  0  0
  2  1  1  0
  3  2  1  0
  3  4  1  6
  5  3  1  0
  6  5  2  0
  7  5  1  0
  8  7  1  0
  9 13  1  0
  9  8  1  0
 10  9  2  0
 12 11  1  6
 12 13  1  0
 12 14  1  0
 14 16  1  0
 15 14  2  0
M  END
$$$$
