CIP.pdb
     RDKit          3D

 22 22  0  0  1  0  0  0  0  0999 V2000
    9.1366  -14.7251   20.4303 N   0  0  0  0  0  0  0  0  0  0  0  0
    8.4321  -15.4612   21.4588 C   0  0  1  0  0  0  0  0  0  0  0  0
    8.7827  -16.9125   21.2894 C   0  0  0  0  0  0  0  0  0  0  0  0
    7.9173  -17.9621   22.4856 S   0  0  0  0  0  0  0  0  0  0  0  0
    8.7477  -14.9047   22.7648 C   0  0  0  0  0  0  0  0  0  0  0  0
    9.9200  -14.4747   22.9624 O   0  0  0  0  0  0  0  0  0  0  0  0
    5.5141  -11.8090   25.8638 C   0  0  0  0  0  0  0  0  0  0  0  0
    6.7281  -12.4328   25.2364 C   0  0  0  0  0  0  0  0  0  0  0  0
    7.0766  -13.7304   25.8841 C   0  0  2  0  0  0  0  0  0  0  0  0
    7.4380  -13.5493   27.3589 C   0  0  0  0  0  0  0  0  0  0  0  0
    8.2608  -14.3789   25.2047 C   0  0  2  0  0  0  0  0  0  0  0  0
    7.8651  -14.7938   23.8518 N   0  0  0  0  0  0  0  0  0  0  0  0
    8.8710  -15.4823   25.9447 C   0  0  0  0  0  0  0  0  0  0  0  0
    8.6436  -16.6745   25.4940 O   0  0  0  0  0  0  0  0  0  0  0  0
    9.6789  -15.3805   27.0905 N   0  0  0  0  0  0  0  0  0  0  0  0
    9.7066  -14.2898   28.0327 C   0  0  0  0  0  0  0  0  0  0  0  0
   11.1047  -14.3266   28.6652 C   0  0  0  0  0  0  0  0  0  0  0  0
   11.8165  -15.3475   27.8263 C   0  0  0  0  0  0  0  0  0  0  0  0
   10.6852  -16.3542   27.5646 C   0  0  1  0  0  0  0  0  0  0  0  0
   10.2997  -16.9259   28.8653 C   0  0  0  0  0  0  0  0  0  0  0  0
   11.1606  -17.8353   29.4517 O   0  0  0  0  0  0  0  0  0  0  0  0
    9.2424  -16.6489   29.4865 O   0  0  0  0  0  0  0  0  0  0  0  0
  2  1  1  6
  2  5  1  0
  2  3  1  0
  4  3  1  0
  5  6  2  0
  7  8  1  0
  8  9  1  0
  9 10  1  1
  9 11  1  0
 11 12  1  6
 12  5  1  0
 13 11  1  0
 13 15  1  0
 14 13  2  0
 15 16  1  0
 17 18  1  0
 17 16  1  0
 18 19  1  0
 19 15  1  0
 19 20  1  1
 20 22  2  0
 20 21  1  0
M  END
$$$$
