CIP.pdb
     RDKit          3D

 22 22  0  0  1  0  0  0  0  0999 V2000
    9.3183  -14.9472   20.4876 N   0  0  0  0  0  0  0  0  0  0  0  0
    8.6393  -15.6981   21.5225 C   0  0  1  0  0  0  0  0  0  0  0  0
    9.0867  -17.1277   21.4040 C   0  0  0  0  0  0  0  0  0  0  0  0
    7.7551  -18.2076   20.8190 S   0  0  0  0  0  0  0  0  0  0  0  0
    8.8879  -15.0854   22.8177 C   0  0  0  0  0  0  0  0  0  0  0  0
   10.0464  -14.6371   23.0528 O   0  0  0  0  0  0  0  0  0  0  0  0
    5.3634  -12.0990   25.7548 C   0  0  0  0  0  0  0  0  0  0  0  0
    6.6322  -12.6530   25.1720 C   0  0  0  0  0  0  0  0  0  0  0  0
    7.0499  -13.9097   25.8583 C   0  0  2  0  0  0  0  0  0  0  0  0
    7.3693  -13.6706   27.3345 C   0  0  0  0  0  0  0  0  0  0  0  0
    8.2865  -14.4966   25.2173 C   0  0  2  0  0  0  0  0  0  0  0  0
    7.9534  -14.9375   23.8557 N   0  0  0  0  0  0  0  0  0  0  0  0
    8.9327  -15.5628   25.9809 C   0  0  0  0  0  0  0  0  0  0  0  0
    8.7966  -16.7653   25.5211 O   0  0  0  0  0  0  0  0  0  0  0  0
    9.6863  -15.4151   27.1582 N   0  0  0  0  0  0  0  0  0  0  0  0
    9.6073  -14.3289   28.1028 C   0  0  0  0  0  0  0  0  0  0  0  0
   10.9787  -14.2799   28.7905 C   0  0  0  0  0  0  0  0  0  0  0  0
   11.7867  -15.2500   27.9788 C   0  0  0  0  0  0  0  0  0  0  0  0
   10.7328  -16.3252   27.6702 C   0  0  1  0  0  0  0  0  0  0  0  0
   10.3330  -16.9258   28.9535 C   0  0  0  0  0  0  0  0  0  0  0  0
   11.2221  -17.7887   29.5675 O   0  0  0  0  0  0  0  0  0  0  0  0
    9.2396  -16.7131   29.5363 O   0  0  0  0  0  0  0  0  0  0  0  0
  2  1  1  6
  2  5  1  0
  2  3  1  0
  4  3  1  0
  5  6  2  0
  7  8  1  0
  8  9  1  0
  9 10  1  1
  9 11  1  0
 11 12  1  6
 12  5  1  0
 13 11  1  0
 13 15  1  0
 14 13  2  0
 15 16  1  0
 17 18  1  0
 17 16  1  0
 18 19  1  0
 19 15  1  0
 19 20  1  1
 20 22  2  0
 20 21  1  0
M  END
$$$$
