CIP.pdb
     RDKit          3D

 22 22  0  0  1  0  0  0  0  0999 V2000
    5.5351  -19.5057   25.7299 N   0  0  0  0  0  0  0  0  0  0  0  0
    6.5077  -18.5533   26.2228 C   0  0  1  0  0  0  0  0  0  0  0  0
    7.8486  -19.2310   26.1994 C   0  0  0  0  0  0  0  0  0  0  0  0
    8.7477  -19.0069   27.7560 S   0  0  0  0  0  0  0  0  0  0  0  0
    6.4299  -17.3256   25.4472 C   0  0  0  0  0  0  0  0  0  0  0  0
    5.9694  -17.3910   24.2717 O   0  0  0  0  0  0  0  0  0  0  0  0
    6.3583  -12.1141   27.4254 C   0  0  0  0  0  0  0  0  0  0  0  0
    6.1155  -13.2400   26.4611 C   0  0  0  0  0  0  0  0  0  0  0  0
    7.3801  -13.6886   25.8097 C   0  0  2  0  0  0  0  0  0  0  0  0
    7.9501  -12.6171   24.8794 C   0  0  0  0  0  0  0  0  0  0  0  0
    7.1560  -14.9333   24.9820 C   0  0  2  0  0  0  0  0  0  0  0  0
    6.8223  -16.0480   25.8794 N   0  0  0  0  0  0  0  0  0  0  0  0
    8.2529  -15.2831   24.0809 C   0  0  0  0  0  0  0  0  0  0  0  0
    9.1226  -16.1292   24.5323 O   0  0  0  0  0  0  0  0  0  0  0  0
    8.4571  -14.7977   22.7777 N   0  0  0  0  0  0  0  0  0  0  0  0
    7.8834  -13.6078   22.2003 C   0  0  0  0  0  0  0  0  0  0  0  0
    7.8615  -13.8539   20.6853 C   0  0  0  0  0  0  0  0  0  0  0  0
    8.2486  -15.3004   20.5832 C   0  0  0  0  0  0  0  0  0  0  0  0
    9.2828  -15.4091   21.7147 C   0  0  1  0  0  0  0  0  0  0  0  0
   10.4157  -14.5400   21.3560 C   0  0  0  0  0  0  0  0  0  0  0  0
   11.3116  -15.0042   20.4105 O   0  0  0  0  0  0  0  0  0  0  0  0
   10.6315  -13.4027   21.8461 O   0  0  0  0  0  0  0  0  0  0  0  0
  2  1  1  6
  2  5  1  0
  2  3  1  0
  4  3  1  0
  5  6  2  0
  7  8  1  0
  8  9  1  0
  9 10  1  6
  9 11  1  0
 11 12  1  1
 12  5  1  0
 13 11  1  0
 13 15  1  0
 14 13  2  0
 15 16  1  0
 17 18  1  0
 17 16  1  0
 18 19  1  0
 19 15  1  0
 19 20  1  6
 20 22  2  0
 20 21  1  0
M  END
$$$$
