CIP.pdb
     RDKit          3D

 22 22  0  0  1  0  0  0  0  0999 V2000
    4.6569  -18.9514   23.6023 N   0  0  0  0  0  0  0  0  0  0  0  0
    5.5506  -18.5339   24.6620 C   0  0  1  0  0  0  0  0  0  0  0  0
    6.4897  -19.6757   24.9304 C   0  0  0  0  0  0  0  0  0  0  0  0
    6.4609  -20.1816   26.6696 S   0  0  0  0  0  0  0  0  0  0  0  0
    6.1973  -17.2840   24.2954 C   0  0  0  0  0  0  0  0  0  0  0  0
    6.5350  -17.1188   23.0884 O   0  0  0  0  0  0  0  0  0  0  0  0
    6.0016  -12.3782   26.8948 C   0  0  0  0  0  0  0  0  0  0  0  0
    6.1629  -13.4428   25.8474 C   0  0  0  0  0  0  0  0  0  0  0  0
    7.4660  -14.1556   25.9839 C   0  0  2  0  0  0  0  0  0  0  0  0
    8.6525  -13.2124   25.7810 C   0  0  0  0  0  0  0  0  0  0  0  0
    7.5907  -15.2649   24.9649 C   0  0  2  0  0  0  0  0  0  0  0  0
    6.4912  -16.2193   25.1631 N   0  0  0  0  0  0  0  0  0  0  0  0
    8.8869  -15.9408   24.9414 C   0  0  0  0  0  0  0  0  0  0  0  0
    9.1053  -16.8022   25.8828 O   0  0  0  0  0  0  0  0  0  0  0  0
    9.9156  -15.7529   24.0022 N   0  0  0  0  0  0  0  0  0  0  0  0
   10.0654  -14.6407   23.0972 C   0  0  0  0  0  0  0  0  0  0  0  0
   10.8824  -15.1787   21.9143 C   0  0  0  0  0  0  0  0  0  0  0  0
   10.9293  -16.6528   22.1925 C   0  0  0  0  0  0  0  0  0  0  0  0
   11.0498  -16.6597   23.7246 C   0  0  1  0  0  0  0  0  0  0  0  0
   12.3335  -16.0242   24.0645 C   0  0  0  0  0  0  0  0  0  0  0  0
   13.4849  -16.7759   23.9185 O   0  0  0  0  0  0  0  0  0  0  0  0
   12.4633  -14.8446   24.4795 O   0  0  0  0  0  0  0  0  0  0  0  0
  2  1  1  6
  2  5  1  0
  2  3  1  0
  4  3  1  0
  5  6  2  0
  7  8  1  0
  8  9  1  0
  9 10  1  6
  9 11  1  0
 11 12  1  1
 12  5  1  0
 13 11  1  0
 13 15  1  0
 14 13  2  0
 15 16  1  0
 17 18  1  0
 17 16  1  0
 18 19  1  0
 19 15  1  0
 19 20  1  6
 20 22  2  0
 20 21  1  0
M  END
$$$$
