CIP.pdb
     RDKit          3D

 22 22  0  0  1  0  0  0  0  0999 V2000
    9.7663  -15.1421   20.5020 N   0  0  0  0  0  0  0  0  0  0  0  0
    8.9991  -15.8516   21.5039 C   0  0  1  0  0  0  0  0  0  0  0  0
    9.4175  -17.2938   21.4487 C   0  0  0  0  0  0  0  0  0  0  0  0
    8.2653  -18.2960   20.4742 S   0  0  0  0  0  0  0  0  0  0  0  0
    9.1737  -15.2139   22.7992 C   0  0  0  0  0  0  0  0  0  0  0  0
   10.3215  -14.7770   23.0989 O   0  0  0  0  0  0  0  0  0  0  0  0
    5.6033  -12.0437   25.6140 C   0  0  0  0  0  0  0  0  0  0  0  0
    6.8834  -12.6339   25.0949 C   0  0  0  0  0  0  0  0  0  0  0  0
    7.1588  -13.9689   25.7003 C   0  0  2  0  0  0  0  0  0  0  0  0
    7.3213  -13.8807   27.2183 C   0  0  0  0  0  0  0  0  0  0  0  0
    8.4294  -14.5690   25.1437 C   0  0  2  0  0  0  0  0  0  0  0  0
    8.1769  -15.0299   23.7714 N   0  0  0  0  0  0  0  0  0  0  0  0
    9.0247  -15.6252   25.9608 C   0  0  0  0  0  0  0  0  0  0  0  0
    8.9062  -16.8350   25.5153 O   0  0  0  0  0  0  0  0  0  0  0  0
    9.7126  -15.4609   27.1755 N   0  0  0  0  0  0  0  0  0  0  0  0
    9.5768  -14.3654   28.1027 C   0  0  0  0  0  0  0  0  0  0  0  0
   10.9087  -14.3013   28.8632 C   0  0  0  0  0  0  0  0  0  0  0  0
   11.7644  -15.2752   28.1070 C   0  0  0  0  0  0  0  0  0  0  0  0
   10.7344  -16.3595   27.7533 C   0  0  1  0  0  0  0  0  0  0  0  0
   10.2686  -16.9490   29.0194 C   0  0  0  0  0  0  0  0  0  0  0  0
   11.1352  -17.7841   29.7003 O   0  0  0  0  0  0  0  0  0  0  0  0
    9.1376  -16.7500   29.5310 O   0  0  0  0  0  0  0  0  0  0  0  0
  2  1  1  6
  2  5  1  0
  2  3  1  0
  4  3  1  0
  5  6  2  0
  7  8  1  0
  8  9  1  0
  9 10  1  1
  9 11  1  0
 11 12  1  6
 12  5  1  0
 13 11  1  0
 13 15  1  0
 14 13  2  0
 15 16  1  0
 17 18  1  0
 17 16  1  0
 18 19  1  0
 19 15  1  0
 19 20  1  1
 20 22  2  0
 20 21  1  0
M  END
$$$$
