CIP.pdb
     RDKit          3D

 22 22  0  0  1  0  0  0  0  0999 V2000
   10.3524  -17.9011   16.3997 N   0  0  0  0  0  0  0  0  0  0  0  0
    9.1609  -17.8237   17.2184 C   0  0  1  0  0  0  0  0  0  0  0  0
    8.7139  -19.2321   17.4913 C   0  0  0  0  0  0  0  0  0  0  0  0
    9.8827  -20.1195   18.5534 S   0  0  0  0  0  0  0  0  0  0  0  0
    9.4309  -17.0275   18.4050 C   0  0  0  0  0  0  0  0  0  0  0  0
   10.6326  -16.8984   18.7759 O   0  0  0  0  0  0  0  0  0  0  0  0
    6.9097  -12.3952   19.7914 C   0  0  0  0  0  0  0  0  0  0  0  0
    7.9587  -13.4616   19.6542 C   0  0  0  0  0  0  0  0  0  0  0  0
    7.7578  -14.5611   20.6419 C   0  0  2  0  0  0  0  0  0  0  0  0
    7.8928  -14.0624   22.0812 C   0  0  0  0  0  0  0  0  0  0  0  0
    8.7749  -15.6621   20.4475 C   0  0  2  0  0  0  0  0  0  0  0  0
    8.4734  -16.3735   19.1976 N   0  0  0  0  0  0  0  0  0  0  0  0
    8.9065  -16.5884   21.5709 C   0  0  0  0  0  0  0  0  0  0  0  0
    8.0724  -17.5780   21.6033 O   0  0  0  0  0  0  0  0  0  0  0  0
    9.8451  -16.5155   22.6146 N   0  0  0  0  0  0  0  0  0  0  0  0
   10.6805  -15.3885   22.9467 C   0  0  0  0  0  0  0  0  0  0  0  0
   11.9051  -15.9787   23.6596 C   0  0  0  0  0  0  0  0  0  0  0  0
   11.7204  -17.4546   23.4593 C   0  0  0  0  0  0  0  0  0  0  0  0
   10.1934  -17.5794   23.5802 C   0  0  1  0  0  0  0  0  0  0  0  0
    9.8307  -17.1905   24.9530 C   0  0  0  0  0  0  0  0  0  0  0  0
    9.2754  -15.9386   25.1441 O   0  0  0  0  0  0  0  0  0  0  0  0
    9.9883  -17.9132   25.9695 O   0  0  0  0  0  0  0  0  0  0  0  0
  2  1  1  6
  2  5  1  0
  2  3  1  0
  4  3  1  0
  5  6  2  0
  7  8  1  0
  8  9  1  0
  9 10  1  1
  9 11  1  0
 11 12  1  6
 12  5  1  0
 13 11  1  0
 13 15  1  0
 14 13  2  0
 15 16  1  0
 17 18  1  0
 17 16  1  0
 18 19  1  0
 19 15  1  0
 19 20  1  1
 20 22  2  0
 20 21  1  0
M  END
$$$$
