CIP.pdb
     RDKit          3D

 22 22  0  0  1  0  0  0  0  0999 V2000
    8.9613  -14.8000   20.5720 N   0  0  0  0  0  0  0  0  0  0  0  0
    8.1874  -15.4422   21.6135 C   0  0  1  0  0  0  0  0  0  0  0  0
    8.4020  -16.9234   21.4809 C   0  0  0  0  0  0  0  0  0  0  0  0
    7.5006  -17.8541   22.7470 S   0  0  0  0  0  0  0  0  0  0  0  0
    8.5483  -14.8858   22.9077 C   0  0  0  0  0  0  0  0  0  0  0  0
    9.7432  -14.5123   23.0840 O   0  0  0  0  0  0  0  0  0  0  0  0
    5.4630  -11.6279   25.9253 C   0  0  0  0  0  0  0  0  0  0  0  0
    6.6280  -12.3318   25.2898 C   0  0  0  0  0  0  0  0  0  0  0  0
    6.9871  -13.5773   26.0276 C   0  0  2  0  0  0  0  0  0  0  0  0
    7.4286  -13.2801   27.4613 C   0  0  0  0  0  0  0  0  0  0  0  0
    8.1224  -14.3069   25.3469 C   0  0  2  0  0  0  0  0  0  0  0  0
    7.6876  -14.7175   24.0047 N   0  0  0  0  0  0  0  0  0  0  0  0
    8.6725  -15.4340   26.0982 C   0  0  0  0  0  0  0  0  0  0  0  0
    8.1897  -16.6027   25.8208 O   0  0  0  0  0  0  0  0  0  0  0  0
    9.6708  -15.3781   27.0862 N   0  0  0  0  0  0  0  0  0  0  0  0
    9.9928  -14.2506   27.9248 C   0  0  0  0  0  0  0  0  0  0  0  0
   11.4634  -14.4391   28.3225 C   0  0  0  0  0  0  0  0  0  0  0  0
   11.8906  -15.5906   27.4599 C   0  0  0  0  0  0  0  0  0  0  0  0
   10.6165  -16.4500   27.4636 C   0  0  1  0  0  0  0  0  0  0  0  0
   10.3922  -16.8925   28.8497 C   0  0  0  0  0  0  0  0  0  0  0  0
    9.3898  -16.2712   29.5717 O   0  0  0  0  0  0  0  0  0  0  0  0
   11.0457  -17.7964   29.4296 O   0  0  0  0  0  0  0  0  0  0  0  0
  2  1  1  6
  2  5  1  0
  2  3  1  0
  4  3  1  0
  5  6  2  0
  7  8  1  0
  8  9  1  0
  9 10  1  1
  9 11  1  0
 11 12  1  6
 12  5  1  0
 13 11  1  0
 13 15  1  0
 14 13  2  0
 15 16  1  0
 17 18  1  0
 17 16  1  0
 18 19  1  0
 19 15  1  0
 19 20  1  1
 20 22  2  0
 20 21  1  0
M  END
$$$$
