ESN.pdb
     RDKit          3D

 24 23  0  0  1  0  0  0  0  0999 V2000
   19.1466  -12.7745  -18.0592 N   0  0  0  0  0  0  0  0  0  0  0  0
   20.2942  -11.9446  -18.2396 C   0  0  1  0  0  0  0  0  0  0  0  0
   20.0954  -11.0231  -19.3875 C   0  0  0  0  0  0  0  0  0  0  0  0
   18.9167  -10.1181  -19.3146 C   0  0  0  0  0  0  0  0  0  0  0  0
   18.7440   -9.2405  -20.4775 C   0  0  0  0  0  0  0  0  0  0  0  0
   18.3985   -9.7014  -21.5837 O   0  0  0  0  0  0  0  0  0  0  0  0
   20.6075  -11.1414  -17.0122 C   0  0  0  0  0  0  0  0  0  0  0  0
   19.6505  -10.7711  -16.2841 O   0  0  0  0  0  0  0  0  0  0  0  0
   18.9603   -7.8664  -20.3831 O   0  0  0  0  0  0  0  0  0  0  0  0
   24.4928  -10.3101  -16.0619 O   0  0  0  0  0  0  0  0  0  0  0  0
   23.5918  -10.5178  -15.0048 C   0  0  0  0  0  0  0  0  0  0  0  0
   22.2230  -10.0566  -15.5249 C   0  0  2  0  0  0  0  0  0  0  0  0
   21.9546  -10.8188  -16.6991 N   0  0  0  0  0  0  0  0  0  0  0  0
   22.2922   -8.6029  -15.7540 C   0  0  0  0  0  0  0  0  0  0  0  0
   22.3898   -8.1613  -16.9262 O   0  0  0  0  0  0  0  0  0  0  0  0
   20.2487   -3.4032  -16.2859 N   0  0  0  0  0  0  0  0  0  0  0  0
   21.3809   -4.2304  -16.0888 C   0  0  0  0  0  0  0  0  0  0  0  0
   22.5198   -3.7039  -16.0974 O   0  0  0  0  0  0  0  0  0  0  0  0
   21.2771   -5.6926  -15.8726 C   0  0  0  0  0  0  0  0  0  0  0  0
   22.3094   -6.2192  -14.9356 C   0  0  2  0  0  0  0  0  0  0  0  0
   22.2552   -7.6238  -14.7025 N   0  0  0  0  0  0  0  0  0  0  0  0
   22.3013   -5.4246  -13.6694 C   0  0  0  0  0  0  0  0  0  0  0  0
   22.6446   -4.0847  -13.7633 O   0  0  0  0  0  0  0  0  0  0  0  0
   22.0088   -5.8968  -12.5665 O   0  0  0  0  0  0  0  0  0  0  0  0
  2  1  1  1
  3  2  1  0
  3  4  1  0
  4  5  1  0
  5  6  2  0
  5  9  1  0
  7  2  1  0
  7  8  2  0
 10 11  1  0
 12 11  1  6
 12 13  1  0
 13  7  1  0
 14 12  1  0
 15 14  2  0
 17 16  1  0
 17 18  2  0
 20 19  1  6
 19 17  1  0
 20 21  1  0
 21 14  1  0
 22 20  1  0
 23 22  1  0
 24 22  2  0
M  END
$$$$
