ESN.pdb
     RDKit          3D

 24 23  0  0  1  0  0  0  0  0999 V2000
   13.7520   -8.9708   -8.6961 N   0  0  0  0  0  0  0  0  0  0  0  0
   14.1354   -8.1057   -9.7652 C   0  0  1  0  0  0  0  0  0  0  0  0
   14.3957   -6.7342   -9.2577 C   0  0  0  0  0  0  0  0  0  0  0  0
   14.1517   -6.5065   -7.8078 C   0  0  0  0  0  0  0  0  0  0  0  0
   14.4193   -5.1393   -7.3478 C   0  0  0  0  0  0  0  0  0  0  0  0
   14.9087   -4.2878   -8.1164 O   0  0  0  0  0  0  0  0  0  0  0  0
   15.3538   -8.6040  -10.4842 C   0  0  0  0  0  0  0  0  0  0  0  0
   16.2758   -9.1218   -9.8024 O   0  0  0  0  0  0  0  0  0  0  0  0
   14.1357   -4.7496   -6.0396 O   0  0  0  0  0  0  0  0  0  0  0  0
   15.5151   -8.4229  -14.5454 O   0  0  0  0  0  0  0  0  0  0  0  0
   16.2468   -9.4431  -13.9160 C   0  0  0  0  0  0  0  0  0  0  0  0
   16.6491   -8.8841  -12.5440 C   0  0  2  0  0  0  0  0  0  0  0  0
   15.4437   -8.4848  -11.8965 N   0  0  0  0  0  0  0  0  0  0  0  0
   17.6055   -7.7855  -12.7655 C   0  0  0  0  0  0  0  0  0  0  0  0
   17.1914   -6.6004  -12.8165 O   0  0  0  0  0  0  0  0  0  0  0  0
   21.8038   -4.8438  -13.7064 N   0  0  0  0  0  0  0  0  0  0  0  0
   22.0280   -5.7278  -12.6232 C   0  0  0  0  0  0  0  0  0  0  0  0
   23.0455   -5.5583  -11.9087 O   0  0  0  0  0  0  0  0  0  0  0  0
   21.1110   -6.8453  -12.2979 C   0  0  0  0  0  0  0  0  0  0  0  0
   19.9293   -6.9136  -13.2033 C   0  0  2  0  0  0  0  0  0  0  0  0
   19.0200   -7.9767  -12.9326 N   0  0  0  0  0  0  0  0  0  0  0  0
   20.3775   -6.8880  -14.6291 C   0  0  0  0  0  0  0  0  0  0  0  0
   20.8686   -5.6859  -15.1145 O   0  0  0  0  0  0  0  0  0  0  0  0
   20.3315   -7.8680  -15.3790 O   0  0  0  0  0  0  0  0  0  0  0  0
  2  1  1  1
  3  2  1  0
  3  4  1  0
  4  5  1  0
  5  6  2  0
  5  9  1  0
  7  2  1  0
  7  8  2  0
 10 11  1  0
 12 11  1  6
 12 13  1  0
 13  7  1  0
 14 12  1  0
 15 14  2  0
 17 16  1  0
 17 18  2  0
 20 19  1  1
 19 17  1  0
 20 21  1  0
 21 14  1  0
 22 20  1  0
 23 22  1  0
 24 22  2  0
M  END
$$$$
