ESN.pdb
     RDKit          3D

 24 23  0  0  1  0  0  0  0  0999 V2000
   13.1777  -10.0777   -9.9556 N   0  0  0  0  0  0  0  0  0  0  0  0
   14.5908   -9.8740   -9.9591 C   0  0  1  0  0  0  0  0  0  0  0  0
   15.2455  -10.7825  -10.9351 C   0  0  0  0  0  0  0  0  0  0  0  0
   14.9995  -12.2386  -10.7536 C   0  0  0  0  0  0  0  0  0  0  0  0
   15.6649  -13.1006  -11.7368 C   0  0  0  0  0  0  0  0  0  0  0  0
   16.3308  -14.0912  -11.3754 O   0  0  0  0  0  0  0  0  0  0  0  0
   14.9552   -8.4561  -10.2855 C   0  0  0  0  0  0  0  0  0  0  0  0
   14.0343   -7.6694  -10.6262 O   0  0  0  0  0  0  0  0  0  0  0  0
   15.5740  -12.8401  -13.1035 O   0  0  0  0  0  0  0  0  0  0  0  0
   16.8108   -6.0016   -8.2664 O   0  0  0  0  0  0  0  0  0  0  0  0
   15.9944   -5.8236   -9.3953 C   0  0  0  0  0  0  0  0  0  0  0  0
   16.6238   -6.6767  -10.5055 C   0  0  2  0  0  0  0  0  0  0  0  0
   16.3088   -8.0341  -10.2055 N   0  0  0  0  0  0  0  0  0  0  0  0
   18.0679   -6.3868  -10.5357 C   0  0  0  0  0  0  0  0  0  0  0  0
   18.8405   -6.9894   -9.7493 O   0  0  0  0  0  0  0  0  0  0  0  0
   22.5636   -7.1277  -12.8248 N   0  0  0  0  0  0  0  0  0  0  0  0
   21.3206   -7.1361  -13.5029 C   0  0  0  0  0  0  0  0  0  0  0  0
   21.3149   -7.2961  -14.7474 O   0  0  0  0  0  0  0  0  0  0  0  0
   20.0254   -6.9638  -12.8040 C   0  0  0  0  0  0  0  0  0  0  0  0
   19.9174   -5.6619  -12.0869 C   0  0  2  0  0  0  0  0  0  0  0  0
   18.6754   -5.4361  -11.4261 N   0  0  0  0  0  0  0  0  0  0  0  0
   20.2942   -4.5425  -13.0032 C   0  0  0  0  0  0  0  0  0  0  0  0
   19.3067   -4.0588  -13.8474 O   0  0  0  0  0  0  0  0  0  0  0  0
   21.4211   -4.0391  -13.0419 O   0  0  0  0  0  0  0  0  0  0  0  0
  2  1  1  6
  3  2  1  0
  3  4  1  0
  4  5  1  0
  5  6  2  0
  5  9  1  0
  7  2  1  0
  7  8  2  0
 10 11  1  0
 12 11  1  1
 12 13  1  0
 13  7  1  0
 14 12  1  0
 15 14  2  0
 17 16  1  0
 17 18  2  0
 20 19  1  6
 19 17  1  0
 20 21  1  0
 21 14  1  0
 22 20  1  0
 23 22  1  0
 24 22  2  0
M  END
$$$$
