ESN.pdb
     RDKit          3D

 24 23  0  0  1  0  0  0  0  0999 V2000
   22.3685  -23.1048  -14.4883 N   0  0  0  0  0  0  0  0  0  0  0  0
   21.4426  -22.1856  -15.0680 C   0  0  1  0  0  0  0  0  0  0  0  0
   20.1114  -22.3091  -14.4206 C   0  0  0  0  0  0  0  0  0  0  0  0
   19.4739  -23.6527  -14.4669 C   0  0  0  0  0  0  0  0  0  0  0  0
   18.1380  -23.7192  -13.8643 C   0  0  0  0  0  0  0  0  0  0  0  0
   17.9870  -23.6465  -12.6285 O   0  0  0  0  0  0  0  0  0  0  0  0
   21.9137  -20.7658  -14.9575 C   0  0  0  0  0  0  0  0  0  0  0  0
   22.5113  -20.4182  -13.9062 O   0  0  0  0  0  0  0  0  0  0  0  0
   16.9972  -23.8653  -14.6525 O   0  0  0  0  0  0  0  0  0  0  0  0
   22.2477  -18.5015  -18.2249 O   0  0  0  0  0  0  0  0  0  0  0  0
   23.0233  -18.2122  -17.0903 C   0  0  0  0  0  0  0  0  0  0  0  0
   22.1234  -18.5075  -15.8821 C   0  0  2  0  0  0  0  0  0  0  0  0
   21.6812  -19.8553  -16.0222 N   0  0  0  0  0  0  0  0  0  0  0  0
   21.0348  -17.5148  -15.8750 C   0  0  0  0  0  0  0  0  0  0  0  0
   19.9677  -17.7566  -16.4923 O   0  0  0  0  0  0  0  0  0  0  0  0
   19.4474  -16.8056  -12.3477 N   0  0  0  0  0  0  0  0  0  0  0  0
   18.8061  -15.9149  -13.2424 C   0  0  0  0  0  0  0  0  0  0  0  0
   17.5749  -16.0480  -13.4449 O   0  0  0  0  0  0  0  0  0  0  0  0
   19.5282  -14.8316  -13.9498 C   0  0  0  0  0  0  0  0  0  0  0  0
   20.0850  -15.2618  -15.2635 C   0  0  2  0  0  0  0  0  0  0  0  0
   21.1072  -16.2520  -15.1927 N   0  0  0  0  0  0  0  0  0  0  0  0
   20.4966  -14.0650  -16.0591 C   0  0  0  0  0  0  0  0  0  0  0  0
   19.5264  -13.1052  -16.3024 O   0  0  0  0  0  0  0  0  0  0  0  0
   21.6373  -13.8955  -16.5006 O   0  0  0  0  0  0  0  0  0  0  0  0
  2  1  1  1
  3  2  1  0
  3  4  1  0
  4  5  1  0
  5  6  2  0
  5  9  1  0
  7  2  1  0
  7  8  2  0
 10 11  1  0
 12 11  1  6
 12 13  1  0
 13  7  1  0
 14 12  1  0
 15 14  2  0
 17 16  1  0
 17 18  2  0
 20 19  1  1
 19 17  1  0
 20 21  1  0
 21 14  1  0
 22 20  1  0
 23 22  1  0
 24 22  2  0
M  END
$$$$
