ESN.pdb
     RDKit          3D

 24 23  0  0  1  0  0  0  0  0999 V2000
   19.4958  -13.1007  -16.5985 N   0  0  0  0  0  0  0  0  0  0  0  0
   19.3431  -11.7052  -16.8587 C   0  0  1  0  0  0  0  0  0  0  0  0
   17.9105  -11.3660  -17.0566 C   0  0  0  0  0  0  0  0  0  0  0  0
   17.2220  -12.0344  -18.1936 C   0  0  0  0  0  0  0  0  0  0  0  0
   15.8270  -11.6257  -18.3921 C   0  0  0  0  0  0  0  0  0  0  0  0
   14.8917  -12.2553  -17.8590 O   0  0  0  0  0  0  0  0  0  0  0  0
   19.9003  -10.8610  -15.7512 C   0  0  0  0  0  0  0  0  0  0  0  0
   19.5015  -11.0808  -14.5783 O   0  0  0  0  0  0  0  0  0  0  0  0
   15.5035  -10.5228  -19.1813 O   0  0  0  0  0  0  0  0  0  0  0  0
   23.4103   -9.1831  -16.0383 O   0  0  0  0  0  0  0  0  0  0  0  0
   22.8082   -9.3671  -14.7829 C   0  0  0  0  0  0  0  0  0  0  0  0
   21.3242   -9.0249  -14.9765 C   0  0  2  0  0  0  0  0  0  0  0  0
   20.8513   -9.8468  -16.0407 N   0  0  0  0  0  0  0  0  0  0  0  0
   21.2239   -7.5793  -15.2425 C   0  0  0  0  0  0  0  0  0  0  0  0
   21.2937   -7.1574  -16.4238 O   0  0  0  0  0  0  0  0  0  0  0  0
   19.3570   -2.4465  -15.4156 N   0  0  0  0  0  0  0  0  0  0  0  0
   19.8767   -3.0047  -14.2227 C   0  0  0  0  0  0  0  0  0  0  0  0
   20.3862   -2.2369  -13.3710 O   0  0  0  0  0  0  0  0  0  0  0  0
   19.8442   -4.4584  -13.9376 C   0  0  0  0  0  0  0  0  0  0  0  0
   21.0276   -5.1860  -14.4772 C   0  0  2  0  0  0  0  0  0  0  0  0
   21.0466   -6.5870  -14.2181 N   0  0  0  0  0  0  0  0  0  0  0  0
   22.2857   -4.5034  -14.0462 C   0  0  0  0  0  0  0  0  0  0  0  0
   22.8045   -3.5405  -14.8978 O   0  0  0  0  0  0  0  0  0  0  0  0
   22.8720   -4.7525  -12.9883 O   0  0  0  0  0  0  0  0  0  0  0  0
  2  1  1  1
  3  2  1  0
  3  4  1  0
  4  5  1  0
  5  6  2  0
  5  9  1  0
  7  2  1  0
  7  8  2  0
 10 11  1  0
 12 11  1  6
 12 13  1  0
 13  7  1  0
 14 12  1  0
 15 14  2  0
 17 16  1  0
 17 18  2  0
 20 19  1  1
 19 17  1  0
 20 21  1  0
 21 14  1  0
 22 20  1  0
 23 22  1  0
 24 22  2  0
M  END
$$$$
