ESN.pdb
     RDKit          3D

 24 23  0  0  1  0  0  0  0  0999 V2000
   30.8176  -27.9699  -17.2730 N   0  0  0  0  0  0  0  0  0  0  0  0
   29.7443  -28.6283  -16.6000 C   0  0  1  0  0  0  0  0  0  0  0  0
   28.4716  -27.8893  -16.8016 C   0  0  0  0  0  0  0  0  0  0  0  0
   28.4383  -26.4825  -16.3183 C   0  0  0  0  0  0  0  0  0  0  0  0
   27.1689  -25.7843  -16.5492 C   0  0  0  0  0  0  0  0  0  0  0  0
   27.0873  -24.8596  -17.3822 O   0  0  0  0  0  0  0  0  0  0  0  0
   29.5707  -30.0436  -17.0656 C   0  0  0  0  0  0  0  0  0  0  0  0
   30.0246  -30.3569  -18.1965 O   0  0  0  0  0  0  0  0  0  0  0  0
   26.0160  -26.1316  -15.8463 O   0  0  0  0  0  0  0  0  0  0  0  0
   27.6164  -32.5173  -14.6682 O   0  0  0  0  0  0  0  0  0  0  0  0
   28.5994  -33.1929  -15.4096 C   0  0  0  0  0  0  0  0  0  0  0  0
   28.8313  -32.3444  -16.6678 C   0  0  2  0  0  0  0  0  0  0  0  0
   28.9090  -30.9880  -16.2368 N   0  0  0  0  0  0  0  0  0  0  0  0
   27.7283  -32.6153  -17.6061 C   0  0  0  0  0  0  0  0  0  0  0  0
   26.9454  -31.6879  -17.9310 O   0  0  0  0  0  0  0  0  0  0  0  0
   24.1363  -34.3473  -20.7957 N   0  0  0  0  0  0  0  0  0  0  0  0
   25.2250  -33.5329  -21.1915 C   0  0  0  0  0  0  0  0  0  0  0  0
   25.1688  -32.9508  -22.3016 O   0  0  0  0  0  0  0  0  0  0  0  0
   26.4285  -33.3391  -20.3492 C   0  0  0  0  0  0  0  0  0  0  0  0
   26.4054  -34.1536  -19.1013 C   0  0  2  0  0  0  0  0  0  0  0  0
   27.4751  -33.9019  -18.1944 N   0  0  0  0  0  0  0  0  0  0  0  0
   26.2672  -35.6027  -19.4411 C   0  0  0  0  0  0  0  0  0  0  0  0
   25.0071  -36.1648  -19.3066 O   0  0  0  0  0  0  0  0  0  0  0  0
   27.2043  -36.3077  -19.8281 O   0  0  0  0  0  0  0  0  0  0  0  0
  2  1  1  6
  3  2  1  0
  3  4  1  0
  4  5  1  0
  5  6  2  0
  5  9  1  0
  7  2  1  0
  7  8  2  0
 10 11  1  0
 12 11  1  1
 12 13  1  0
 13  7  1  0
 14 12  1  0
 15 14  2  0
 17 16  1  0
 17 18  2  0
 20 19  1  6
 19 17  1  0
 20 21  1  0
 21 14  1  0
 22 20  1  0
 23 22  1  0
 24 22  2  0
M  END
$$$$
