ESN.pdb
     RDKit          3D

 24 23  0  0  1  0  0  0  0  0999 V2000
   20.8989  -13.4597  -18.3142 N   0  0  0  0  0  0  0  0  0  0  0  0
   20.4141  -12.1233  -18.4453 C   0  0  1  0  0  0  0  0  0  0  0  0
   18.9589  -12.0660  -18.1522 C   0  0  0  0  0  0  0  0  0  0  0  0
   18.1778  -13.3016  -18.4294 C   0  0  0  0  0  0  0  0  0  0  0  0
   17.6026  -13.9431  -17.2421 C   0  0  0  0  0  0  0  0  0  0  0  0
   16.5217  -13.5496  -16.7600 O   0  0  0  0  0  0  0  0  0  0  0  0
   21.1363  -11.1702  -17.5399 C   0  0  0  0  0  0  0  0  0  0  0  0
   21.2152  -11.4564  -16.3172 O   0  0  0  0  0  0  0  0  0  0  0  0
   18.2446  -15.0108  -16.6163 O   0  0  0  0  0  0  0  0  0  0  0  0
   23.6494   -8.4895  -19.1419 O   0  0  0  0  0  0  0  0  0  0  0  0
   23.8771   -9.0355  -17.8682 C   0  0  0  0  0  0  0  0  0  0  0  0
   22.4945   -9.1584  -17.2124 C   0  0  2  0  0  0  0  0  0  0  0  0
   21.7083   -9.9829  -18.0691 N   0  0  0  0  0  0  0  0  0  0  0  0
   21.9583   -7.7986  -17.0281 C   0  0  0  0  0  0  0  0  0  0  0  0
   21.2262   -7.2925  -17.9149 O   0  0  0  0  0  0  0  0  0  0  0  0
   20.8622   -2.9698  -15.4237 N   0  0  0  0  0  0  0  0  0  0  0  0
   20.7197   -3.8813  -14.3495 C   0  0  0  0  0  0  0  0  0  0  0  0
   20.1902   -3.4792  -13.2853 O   0  0  0  0  0  0  0  0  0  0  0  0
   21.1697   -5.2907  -14.4294 C   0  0  0  0  0  0  0  0  0  0  0  0
   21.7764   -5.6364  -15.7460 C   0  0  2  0  0  0  0  0  0  0  0  0
   22.2197   -6.9846  -15.8728 N   0  0  0  0  0  0  0  0  0  0  0  0
   22.8402   -4.6452  -16.0929 C   0  0  0  0  0  0  0  0  0  0  0  0
   22.4298   -3.3503  -16.3698 O   0  0  0  0  0  0  0  0  0  0  0  0
   24.0428   -4.9209  -16.1430 O   0  0  0  0  0  0  0  0  0  0  0  0
  2  1  1  1
  3  2  1  0
  3  4  1  0
  4  5  1  0
  5  6  2  0
  5  9  1  0
  7  2  1  0
  7  8  2  0
 10 11  1  0
 12 11  1  6
 12 13  1  0
 13  7  1  0
 14 12  1  0
 15 14  2  0
 17 16  1  0
 17 18  2  0
 20 19  1  1
 19 17  1  0
 20 21  1  0
 21 14  1  0
 22 20  1  0
 23 22  1  0
 24 22  2  0
M  END
$$$$
