ESN.pdb
     RDKit          3D

 24 23  0  0  1  0  0  0  0  0999 V2000
   19.0763  -10.5817  -16.5215 N   0  0  0  0  0  0  0  0  0  0  0  0
   18.7584   -9.2705  -16.0547 C   0  0  1  0  0  0  0  0  0  0  0  0
   17.3950   -8.8775  -16.4942 C   0  0  0  0  0  0  0  0  0  0  0  0
   17.1968   -8.6964  -17.9576 C   0  0  0  0  0  0  0  0  0  0  0  0
   15.8841   -8.1629  -18.3377 C   0  0  0  0  0  0  0  0  0  0  0  0
   15.7759   -7.0342  -18.8570 O   0  0  0  0  0  0  0  0  0  0  0  0
   18.8424   -9.1684  -14.5606 C   0  0  0  0  0  0  0  0  0  0  0  0
   18.4563  -10.1503  -13.8752 O   0  0  0  0  0  0  0  0  0  0  0  0
   14.7184   -8.8992  -18.1307 O   0  0  0  0  0  0  0  0  0  0  0  0
   21.6624   -7.3930  -12.3080 O   0  0  0  0  0  0  0  0  0  0  0  0
   20.3942   -6.8025  -12.1835 C   0  0  0  0  0  0  0  0  0  0  0  0
   19.3836   -7.9036  -12.5341 C   0  0  2  0  0  0  0  0  0  0  0  0
   19.3473   -7.9864  -13.9567 N   0  0  0  0  0  0  0  0  0  0  0  0
   18.0934   -7.5466  -11.9191 C   0  0  0  0  0  0  0  0  0  0  0  0
   17.3841   -6.6483  -12.4372 O   0  0  0  0  0  0  0  0  0  0  0  0
   13.6727   -7.3985   -9.1980 N   0  0  0  0  0  0  0  0  0  0  0  0
   14.2885   -8.6492   -8.9499 C   0  0  0  0  0  0  0  0  0  0  0  0
   13.6454   -9.5219   -8.3179 O   0  0  0  0  0  0  0  0  0  0  0  0
   15.6612   -8.9710   -9.4056 C   0  0  0  0  0  0  0  0  0  0  0  0
   16.2899   -7.8697  -10.1884 C   0  0  2  0  0  0  0  0  0  0  0  0
   17.5715   -8.1699  -10.7339 N   0  0  0  0  0  0  0  0  0  0  0  0
   16.2864   -6.6080   -9.3866 C   0  0  0  0  0  0  0  0  0  0  0  0
   15.0615   -5.9898   -9.1886 O   0  0  0  0  0  0  0  0  0  0  0  0
   17.3033   -6.1017   -8.9025 O   0  0  0  0  0  0  0  0  0  0  0  0
  2  1  1  1
  3  2  1  0
  3  4  1  0
  4  5  1  0
  5  6  2  0
  5  9  1  0
  7  2  1  0
  7  8  2  0
 10 11  1  0
 12 11  1  6
 12 13  1  0
 13  7  1  0
 14 12  1  0
 15 14  2  0
 17 16  1  0
 17 18  2  0
 20 19  1  1
 19 17  1  0
 20 21  1  0
 21 14  1  0
 22 20  1  0
 23 22  1  0
 24 22  2  0
M  END
$$$$
