ESN.pdb
     RDKit          3D

 24 23  0  0  1  0  0  0  0  0999 V2000
   22.5400  -10.4702  -15.9501 N   0  0  0  0  0  0  0  0  0  0  0  0
   23.1084   -9.2088  -15.5979 C   0  0  1  0  0  0  0  0  0  0  0  0
   24.5256   -9.1354  -16.0368 C   0  0  0  0  0  0  0  0  0  0  0  0
   25.4497  -10.1525  -15.4664 C   0  0  0  0  0  0  0  0  0  0  0  0
   26.8259  -10.0821  -15.9698 C   0  0  0  0  0  0  0  0  0  0  0  0
   27.1817  -10.7505  -16.9609 O   0  0  0  0  0  0  0  0  0  0  0  0
   22.3483   -8.0617  -16.1947 C   0  0  0  0  0  0  0  0  0  0  0  0
   22.4929   -7.8278  -17.4225 O   0  0  0  0  0  0  0  0  0  0  0  0
   27.7775   -9.2676  -15.3576 O   0  0  0  0  0  0  0  0  0  0  0  0
   19.1406   -6.7429  -14.3025 O   0  0  0  0  0  0  0  0  0  0  0  0
   19.2328   -6.6222  -15.6987 C   0  0  0  0  0  0  0  0  0  0  0  0
   20.6967   -6.2645  -15.9919 C   0  0  2  0  0  0  0  0  0  0  0  0
   21.4943   -7.2739  -15.3781 N   0  0  0  0  0  0  0  0  0  0  0  0
   20.9430   -4.9066  -15.4761 C   0  0  0  0  0  0  0  0  0  0  0  0
   21.5867   -4.7537  -14.4080 O   0  0  0  0  0  0  0  0  0  0  0  0
   21.3901    0.1877  -14.6532 N   0  0  0  0  0  0  0  0  0  0  0  0
   22.4446   -0.6956  -14.9889 C   0  0  0  0  0  0  0  0  0  0  0  0
   23.6277   -0.3039  -14.8421 O   0  0  0  0  0  0  0  0  0  0  0  0
   22.2097   -2.0639  -15.5067 C   0  0  0  0  0  0  0  0  0  0  0  0
   20.7634   -2.3980  -15.6389 C   0  0  2  0  0  0  0  0  0  0  0  0
   20.4868   -3.7084  -16.1254 N   0  0  0  0  0  0  0  0  0  0  0  0
   20.0638   -1.3336  -16.4214 C   0  0  0  0  0  0  0  0  0  0  0  0
   19.6995   -0.1842  -15.7373 O   0  0  0  0  0  0  0  0  0  0  0  0
   19.8010   -1.4290  -17.6242 O   0  0  0  0  0  0  0  0  0  0  0  0
  2  1  1  6
  3  2  1  0
  3  4  1  0
  4  5  1  0
  5  6  2  0
  5  9  1  0
  7  2  1  0
  7  8  2  0
 10 11  1  0
 12 11  1  1
 12 13  1  0
 13  7  1  0
 14 12  1  0
 15 14  2  0
 17 16  1  0
 17 18  2  0
 20 19  1  6
 19 17  1  0
 20 21  1  0
 21 14  1  0
 22 20  1  0
 23 22  1  0
 24 22  2  0
M  END
$$$$
