ESN.pdb
     RDKit          3D

 24 23  0  0  1  0  0  0  0  0999 V2000
   19.3667  -13.3483  -17.7931 N   0  0  0  0  0  0  0  0  0  0  0  0
   18.6651  -12.4550  -16.9283 C   0  0  1  0  0  0  0  0  0  0  0  0
   18.9388  -12.7846  -15.5060 C   0  0  0  0  0  0  0  0  0  0  0  0
   18.4161  -14.0883  -15.0153 C   0  0  0  0  0  0  0  0  0  0  0  0
   17.0235  -14.0570  -14.5548 C   0  0  0  0  0  0  0  0  0  0  0  0
   16.4615  -15.0899  -14.1393 O   0  0  0  0  0  0  0  0  0  0  0  0
   19.0310  -11.0224  -17.1807 C   0  0  0  0  0  0  0  0  0  0  0  0
   20.2400  -10.7465  -17.3934 O   0  0  0  0  0  0  0  0  0  0  0  0
   16.2858  -12.8740  -14.5671 O   0  0  0  0  0  0  0  0  0  0  0  0
   16.3038   -8.0218  -16.5753 O   0  0  0  0  0  0  0  0  0  0  0  0
   17.1132   -7.8949  -17.7160 C   0  0  0  0  0  0  0  0  0  0  0  0
   18.4032   -8.6653  -17.4015 C   0  0  2  0  0  0  0  0  0  0  0  0
   18.0244  -10.0207  -17.1753 N   0  0  0  0  0  0  0  0  0  0  0  0
   19.0457   -8.0190  -16.2439 C   0  0  0  0  0  0  0  0  0  0  0  0
   19.2472   -8.6797  -15.1945 O   0  0  0  0  0  0  0  0  0  0  0  0
   22.9168   -4.7476  -13.7146 N   0  0  0  0  0  0  0  0  0  0  0  0
   22.0722   -5.8793  -13.6104 C   0  0  0  0  0  0  0  0  0  0  0  0
   21.8260   -6.3437  -12.4709 O   0  0  0  0  0  0  0  0  0  0  0  0
   21.4666   -6.5387  -14.7910 C   0  0  0  0  0  0  0  0  0  0  0  0
   20.1004   -6.0331  -15.1056 C   0  0  2  0  0  0  0  0  0  0  0  0
   19.4715   -6.6464  -16.2274 N   0  0  0  0  0  0  0  0  0  0  0  0
   20.1183   -4.5413  -15.1997 C   0  0  0  0  0  0  0  0  0  0  0  0
   19.9769   -3.9871  -16.4625 O   0  0  0  0  0  0  0  0  0  0  0  0
   20.2505   -3.7952  -14.2246 O   0  0  0  0  0  0  0  0  0  0  0  0
  2  1  1  6
  3  2  1  0
  3  4  1  0
  4  5  1  0
  5  6  2  0
  5  9  1  0
  7  2  1  0
  7  8  2  0
 10 11  1  0
 12 11  1  1
 12 13  1  0
 13  7  1  0
 14 12  1  0
 15 14  2  0
 17 16  1  0
 17 18  2  0
 20 19  1  6
 19 17  1  0
 20 21  1  0
 21 14  1  0
 22 20  1  0
 23 22  1  0
 24 22  2  0
M  END
$$$$
