ESN.pdb
     RDKit          3D

 24 23  0  0  1  0  0  0  0  0999 V2000
   17.5906  -12.6709  -15.1532 N   0  0  0  0  0  0  0  0  0  0  0  0
   16.6862  -11.5705  -15.0550 C   0  0  1  0  0  0  0  0  0  0  0  0
   15.3814  -12.0164  -14.5025 C   0  0  0  0  0  0  0  0  0  0  0  0
   14.5692  -12.9164  -15.3650 C   0  0  0  0  0  0  0  0  0  0  0  0
   13.2726  -13.3038  -14.7983 C   0  0  0  0  0  0  0  0  0  0  0  0
   12.4708  -14.0030  -15.4492 O   0  0  0  0  0  0  0  0  0  0  0  0
   17.2321  -10.4669  -14.1983 C   0  0  0  0  0  0  0  0  0  0  0  0
   17.9531  -10.7790  -13.2155 O   0  0  0  0  0  0  0  0  0  0  0  0
   12.8966  -12.9035  -13.5168 O   0  0  0  0  0  0  0  0  0  0  0  0
   18.6951   -6.1267  -13.6380 O   0  0  0  0  0  0  0  0  0  0  0  0
   18.1680   -7.0859  -14.5181 C   0  0  0  0  0  0  0  0  0  0  0  0
   17.4094   -8.0892  -13.6379 C   0  0  2  0  0  0  0  0  0  0  0  0
   16.9311   -9.1136  -14.5060 N   0  0  0  0  0  0  0  0  0  0  0  0
   16.3461   -7.3562  -12.9291 C   0  0  0  0  0  0  0  0  0  0  0  0
   15.2666   -7.1007  -13.5188 O   0  0  0  0  0  0  0  0  0  0  0  0
   15.4891   -8.3339   -8.1371 N   0  0  0  0  0  0  0  0  0  0  0  0
   14.8220   -7.4458   -9.0153 C   0  0  0  0  0  0  0  0  0  0  0  0
   13.6790   -7.7553   -9.4304 O   0  0  0  0  0  0  0  0  0  0  0  0
   15.4172   -6.1656   -9.4650 C   0  0  0  0  0  0  0  0  0  0  0  0
   15.4983   -6.0484  -10.9485 C   0  0  2  0  0  0  0  0  0  0  0  0
   16.4574   -6.8983  -11.5713 N   0  0  0  0  0  0  0  0  0  0  0  0
   15.6602   -4.6144  -11.3383 C   0  0  0  0  0  0  0  0  0  0  0  0
   14.6217   -3.7530  -11.0201 O   0  0  0  0  0  0  0  0  0  0  0  0
   16.6558   -4.1708  -11.9187 O   0  0  0  0  0  0  0  0  0  0  0  0
  2  1  1  1
  3  2  1  0
  3  4  1  0
  4  5  1  0
  5  6  2  0
  5  9  1  0
  7  2  1  0
  7  8  2  0
 10 11  1  0
 12 11  1  6
 12 13  1  0
 13  7  1  0
 14 12  1  0
 15 14  2  0
 17 16  1  0
 17 18  2  0
 20 19  1  1
 19 17  1  0
 20 21  1  0
 21 14  1  0
 22 20  1  0
 23 22  1  0
 24 22  2  0
M  END
$$$$
