EVE.pdb
     RDKit          3D

 26 25  0  0  1  0  0  0  0  0999 V2000
    8.0443  -16.8638   16.2316 N   0  0  0  0  0  0  0  0  0  0  0  0
    7.8294  -17.2212   17.6167 C   0  0  1  0  0  0  0  0  0  0  0  0
    8.1030  -18.6775   17.7919 C   0  0  0  0  0  0  0  0  0  0  0  0
    7.3855  -19.5185   16.7685 C   0  0  0  0  0  0  0  0  0  0  0  0
    7.5508  -20.9702   16.9901 C   0  0  0  0  0  0  0  0  0  0  0  0
    6.6349  -21.6090   17.5474 O   0  0  0  0  0  0  0  0  0  0  0  0
    8.7301  -16.3892   18.5119 C   0  0  0  0  0  0  0  0  0  0  0  0
    9.9255  -16.2295   18.1739 O   0  0  0  0  0  0  0  0  0  0  0  0
    8.6911  -21.6477   16.5990 O   0  0  0  0  0  0  0  0  0  0  0  0
    7.1854  -13.2557   20.0129 C   0  0  0  0  0  0  0  0  0  0  0  0
    7.9365  -13.8946   21.1940 C   0  0  1  0  0  0  0  0  0  0  0  0
    6.8077  -14.6117   21.9433 C   0  0  0  0  0  0  0  0  0  0  0  0
    8.8795  -14.9391   20.6377 C   0  0  2  0  0  0  0  0  0  0  0  0
    8.2326  -15.8189   19.6803 N   0  0  0  0  0  0  0  0  0  0  0  0
    9.6646  -15.6760   21.5939 C   0  0  0  0  0  0  0  0  0  0  0  0
    9.2167  -16.8532   21.9322 O   0  0  0  0  0  0  0  0  0  0  0  0
   10.8647  -15.3480   22.2417 N   0  0  0  0  0  0  0  0  0  0  0  0
   11.6809  -16.2851   23.0058 C   0  0  1  0  0  0  0  0  0  0  0  0
   13.1213  -15.9705   22.7255 C   0  0  0  0  0  0  0  0  0  0  0  0
   14.0893  -16.8338   23.4752 C   0  0  0  0  0  0  0  0  0  0  0  0
   15.4647  -16.4607   23.1179 C   0  0  0  0  0  0  0  0  0  0  0  0
   15.7754  -15.3153   22.7770 O   0  0  0  0  0  0  0  0  0  0  0  0
   11.3823  -16.2007   24.4571 C   0  0  0  0  0  0  0  0  0  0  0  0
   10.7353  -15.2491   24.9249 O   0  0  0  0  0  0  0  0  0  0  0  0
   16.4608  -17.4466   23.1666 O   0  0  0  0  0  0  0  0  0  0  0  0
   11.8324  -17.1963   25.2954 O   0  0  0  0  0  0  0  0  0  0  0  0
  2  1  1  6
  2  3  1  0
  4  5  1  0
  4  3  1  0
  5  6  2  0
  7  2  1  0
  8  7  2  0
  9  5  1  0
 11 10  1  6
 11 13  1  0
 12 11  1  0
 13 14  1  1
 14  7  1  0
 15 13  1  0
 15 16  2  0
 17 15  1  0
 18 19  1  1
 18 17  1  0
 20 21  1  0
 20 19  1  0
 21 22  2  0
 23 18  1  0
 24 23  2  0
 25 21  1  0
 26 23  1  0
M  END
$$$$
