EVE.pdb
     RDKit          3D

 26 25  0  0  1  0  0  0  0  0999 V2000
    7.9927  -15.3429   20.7325 N   0  0  0  0  0  0  0  0  0  0  0  0
    8.6452  -16.1795   21.7156 C   0  0  1  0  0  0  0  0  0  0  0  0
    9.8410  -16.8196   21.0938 C   0  0  0  0  0  0  0  0  0  0  0  0
    9.4917  -17.5847   19.8440 C   0  0  0  0  0  0  0  0  0  0  0  0
   10.6581  -18.2453   19.2219 C   0  0  0  0  0  0  0  0  0  0  0  0
   10.4862  -19.2937   18.5672 O   0  0  0  0  0  0  0  0  0  0  0  0
    9.0418  -15.3476   22.9221 C   0  0  0  0  0  0  0  0  0  0  0  0
   10.2027  -14.8798   22.9696 O   0  0  0  0  0  0  0  0  0  0  0  0
   11.9392  -17.7385   19.3411 O   0  0  0  0  0  0  0  0  0  0  0  0
    7.3968  -12.7175   26.7867 C   0  0  0  0  0  0  0  0  0  0  0  0
    7.0815  -13.5232   25.5144 C   0  0  1  0  0  0  0  0  0  0  0  0
    6.9614  -12.4203   24.4565 C   0  0  0  0  0  0  0  0  0  0  0  0
    8.2916  -14.3703   25.1861 C   0  0  2  0  0  0  0  0  0  0  0  0
    8.1313  -15.1133   23.9487 N   0  0  0  0  0  0  0  0  0  0  0  0
    8.8057  -15.2006   26.2445 C   0  0  0  0  0  0  0  0  0  0  0  0
    8.0500  -16.1926   26.6262 O   0  0  0  0  0  0  0  0  0  0  0  0
   10.0129  -15.1363   26.9557 N   0  0  0  0  0  0  0  0  0  0  0  0
   10.4301  -16.0929   27.9751 C   0  0  1  0  0  0  0  0  0  0  0  0
   11.8113  -16.5626   27.6231 C   0  0  0  0  0  0  0  0  0  0  0  0
   12.0053  -18.0414   27.7645 C   0  0  0  0  0  0  0  0  0  0  0  0
   13.3648  -18.4048   27.3423 C   0  0  0  0  0  0  0  0  0  0  0  0
   13.6163  -19.4552   26.7437 O   0  0  0  0  0  0  0  0  0  0  0  0
   10.3945  -15.4870   29.3293 C   0  0  0  0  0  0  0  0  0  0  0  0
   10.2487  -14.2629   29.4812 O   0  0  0  0  0  0  0  0  0  0  0  0
   14.4152  -17.5223   27.6325 O   0  0  0  0  0  0  0  0  0  0  0  0
   10.5262  -16.2997   30.4334 O   0  0  0  0  0  0  0  0  0  0  0  0
  2  1  1  6
  2  3  1  0
  4  5  1  0
  4  3  1  0
  5  6  2  0
  7  2  1  0
  8  7  2  0
  9  5  1  0
 11 10  1  1
 11 13  1  0
 12 11  1  0
 13 14  1  6
 14  7  1  0
 15 13  1  0
 15 16  2  0
 17 15  1  0
 18 19  1  6
 18 17  1  0
 20 21  1  0
 20 19  1  0
 21 22  2  0
 23 18  1  0
 24 23  2  0
 25 21  1  0
 26 23  1  0
M  END
$$$$
