EVE.pdb
     RDKit          3D

 26 25  0  0  1  0  0  0  0  0999 V2000
    9.5982  -16.6455   15.4107 N   0  0  0  0  0  0  0  0  0  0  0  0
    8.8828  -16.9906   16.6196 C   0  0  1  0  0  0  0  0  0  0  0  0
    9.0738  -18.4435   16.9006 C   0  0  0  0  0  0  0  0  0  0  0  0
    8.4864  -19.3140   15.8206 C   0  0  0  0  0  0  0  0  0  0  0  0
    8.6817  -20.7579   16.0676 C   0  0  0  0  0  0  0  0  0  0  0  0
    8.2426  -21.5819   15.2395 O   0  0  0  0  0  0  0  0  0  0  0  0
    9.3831  -16.1446   17.7767 C   0  0  0  0  0  0  0  0  0  0  0  0
   10.6119  -15.9187   17.8641 O   0  0  0  0  0  0  0  0  0  0  0  0
    9.3376  -21.2288   17.1902 O   0  0  0  0  0  0  0  0  0  0  0  0
    7.9296  -13.2154   21.5749 C   0  0  0  0  0  0  0  0  0  0  0  0
    7.5364  -14.0385   20.3357 C   0  0  1  0  0  0  0  0  0  0  0  0
    7.2902  -12.9461   19.2887 C   0  0  0  0  0  0  0  0  0  0  0  0
    8.7430  -14.8458   19.9092 C   0  0  2  0  0  0  0  0  0  0  0  0
    8.4912  -15.6340   18.7157 N   0  0  0  0  0  0  0  0  0  0  0  0
    9.3971  -15.6202   20.9321 C   0  0  0  0  0  0  0  0  0  0  0  0
    8.7749  -16.6917   21.3392 O   0  0  0  0  0  0  0  0  0  0  0  0
   10.6236  -15.4270   21.5844 N   0  0  0  0  0  0  0  0  0  0  0  0
   11.2123  -16.3569   22.5421 C   0  0  1  0  0  0  0  0  0  0  0  0
   12.7007  -16.3271   22.3523 C   0  0  0  0  0  0  0  0  0  0  0  0
   13.3365  -15.0255   22.7343 C   0  0  0  0  0  0  0  0  0  0  0  0
   14.7537  -15.0344   22.3470 C   0  0  0  0  0  0  0  0  0  0  0  0
   15.1426  -14.6495   21.2400 O   0  0  0  0  0  0  0  0  0  0  0  0
   10.8384  -16.0049   23.9345 C   0  0  0  0  0  0  0  0  0  0  0  0
   10.2890  -14.9224   24.1974 O   0  0  0  0  0  0  0  0  0  0  0  0
   15.6988  -15.4992   23.2729 O   0  0  0  0  0  0  0  0  0  0  0  0
   11.1074  -16.8966   24.9490 O   0  0  0  0  0  0  0  0  0  0  0  0
  2  1  1  6
  2  3  1  0
  4  5  1  0
  4  3  1  0
  5  6  2  0
  7  2  1  0
  8  7  2  0
  9  5  1  0
 11 10  1  1
 11 13  1  0
 12 11  1  0
 13 14  1  6
 14  7  1  0
 15 13  1  0
 15 16  2  0
 17 15  1  0
 18 19  1  1
 18 17  1  0
 20 21  1  0
 20 19  1  0
 21 22  2  0
 23 18  1  0
 24 23  2  0
 25 21  1  0
 26 23  1  0
M  END
$$$$
