EVE.pdb
     RDKit          3D

 26 25  0  0  1  0  0  0  0  0999 V2000
    9.5305  -17.9001   18.4778 N   0  0  0  0  0  0  0  0  0  0  0  0
   10.7877  -18.1778   19.1370 C   0  0  1  0  0  0  0  0  0  0  0  0
   11.9038  -17.9476   18.1739 C   0  0  0  0  0  0  0  0  0  0  0  0
   11.7302  -18.7367   16.9024 C   0  0  0  0  0  0  0  0  0  0  0  0
   12.8464  -18.5581   15.9506 C   0  0  0  0  0  0  0  0  0  0  0  0
   12.5974  -18.4633   14.7314 O   0  0  0  0  0  0  0  0  0  0  0  0
   10.9372  -17.2924   20.3612 C   0  0  0  0  0  0  0  0  0  0  0  0
   12.0767  -17.1526   20.8618 O   0  0  0  0  0  0  0  0  0  0  0  0
   14.1634  -18.4921   16.3672 O   0  0  0  0  0  0  0  0  0  0  0  0
    7.2616  -15.8570   22.3485 C   0  0  0  0  0  0  0  0  0  0  0  0
    8.4893  -14.9621   22.1050 C   0  0  1  0  0  0  0  0  0  0  0  0
    8.5104  -14.0937   23.3681 C   0  0  0  0  0  0  0  0  0  0  0  0
    9.7188  -15.8441   22.1110 C   0  0  2  0  0  0  0  0  0  0  0  0
    9.8291  -16.6527   20.9097 N   0  0  0  0  0  0  0  0  0  0  0  0
    9.9506  -16.6216   23.3009 C   0  0  0  0  0  0  0  0  0  0  0  0
    9.2318  -17.7008   23.4411 O   0  0  0  0  0  0  0  0  0  0  0  0
   10.8425  -16.4245   24.3652 N   0  0  0  0  0  0  0  0  0  0  0  0
   11.0591  -17.3695   25.4553 C   0  0  1  0  0  0  0  0  0  0  0  0
   12.4880  -17.8236   25.3893 C   0  0  0  0  0  0  0  0  0  0  0  0
   12.8413  -18.8692   26.4024 C   0  0  0  0  0  0  0  0  0  0  0  0
   14.2530  -19.2472   26.2519 C   0  0  0  0  0  0  0  0  0  0  0  0
   14.9873  -18.7466   25.3946 O   0  0  0  0  0  0  0  0  0  0  0  0
   10.7477  -16.7560   26.7702 C   0  0  0  0  0  0  0  0  0  0  0  0
   10.7662  -17.4299   27.8134 O   0  0  0  0  0  0  0  0  0  0  0  0
   14.7837  -20.2148   27.1171 O   0  0  0  0  0  0  0  0  0  0  0  0
   10.4330  -15.4166   26.8298 O   0  0  0  0  0  0  0  0  0  0  0  0
  2  1  1  6
  2  3  1  0
  4  5  1  0
  4  3  1  0
  5  6  2  0
  7  2  1  0
  8  7  2  0
  9  5  1  0
 11 10  1  1
 11 13  1  0
 12 11  1  0
 13 14  1  6
 14  7  1  0
 15 13  1  0
 15 16  2  0
 17 15  1  0
 18 19  1  1
 18 17  1  0
 20 21  1  0
 20 19  1  0
 21 22  2  0
 23 18  1  0
 24 23  2  0
 25 21  1  0
 26 23  1  0
M  END
$$$$
