FEI.pdb
     RDKit          3D

 29 29  0  0  1  0  0  0  0  0999 V2000
    5.8178  -16.7484   25.1934 N   0  0  0  0  0  0  0  0  0  0  0  0
    6.5232  -16.6848   23.9306 C   0  0  1  0  0  0  0  0  0  0  0  0
    6.2909  -15.3325   23.3199 C   0  0  0  0  0  0  0  0  0  0  0  0
    6.6856  -14.3105   24.3106 C   0  0  0  0  0  0  0  0  0  0  0  0
    5.9329  -14.1292   25.4377 C   0  0  0  0  0  0  0  0  0  0  0  0
    6.3308  -13.1582   26.3525 C   0  0  0  0  0  0  0  0  0  0  0  0
    7.4555  -12.4063   26.1164 C   0  0  0  0  0  0  0  0  0  0  0  0
    8.2020  -12.6008   24.9779 C   0  0  0  0  0  0  0  0  0  0  0  0
    7.8058  -13.5571   24.0820 C   0  0  0  0  0  0  0  0  0  0  0  0
    8.0050  -16.8700   24.2096 C   0  0  0  0  0  0  0  0  0  0  0  0
    8.3827  -17.1185   25.3785 O   0  0  0  0  0  0  0  0  0  0  0  0
    8.9502  -16.7642   23.1665 N   0  0  0  0  0  0  0  0  0  0  0  0
   10.3756  -16.9298   23.2720 C   0  0  1  0  0  0  0  0  0  0  0  0
   11.1526  -16.6363   22.0011 C   0  0  0  0  0  0  0  0  0  0  0  0
   12.6079  -16.8475   22.2035 C   0  0  0  0  0  0  0  0  0  0  0  0
   13.2347  -17.5791   21.0580 C   0  0  0  0  0  0  0  0  0  0  0  0
   14.2353  -17.0934   20.4776 O   0  0  0  0  0  0  0  0  0  0  0  0
   10.9807  -16.4290   24.4938 C   0  0  0  0  0  0  0  0  0  0  0  0
   11.6408  -15.3351   24.4266 O   0  0  0  0  0  0  0  0  0  0  0  0
   12.7157  -18.7856   20.6386 O   0  0  0  0  0  0  0  0  0  0  0  0
   10.6493  -13.2612   28.6564 C   0  0  0  0  0  0  0  0  0  0  0  0
   10.9295  -14.7422   28.8061 C   0  0  0  0  0  0  0  0  0  0  0  0
   10.4091  -15.4257   27.5591 C   0  0  2  0  0  0  0  0  0  0  0  0
    9.0812  -16.0529   27.8395 C   0  0  0  0  0  0  0  0  0  0  0  0
   11.4168  -16.3859   26.9745 C   0  0  2  0  0  0  0  0  0  0  0  0
   10.9199  -17.0263   25.7700 N   0  0  0  0  0  0  0  0  0  0  0  0
   11.6487  -17.4482   27.9853 C   0  0  0  0  0  0  0  0  0  0  0  0
   10.9473  -18.4706   27.9516 O   0  0  0  0  0  0  0  0  0  0  0  0
   12.6223  -17.3325   28.9626 O   0  0  0  0  0  0  0  0  0  0  0  0
  2  1  1  1
  2 10  1  0
  3  2  1  0
  4  3  1  0
  5  4  2  0
  6  5  1  0
  7  8  1  0
  7  6  2  0
  8  9  2  0
  9  4  1  0
 10 11  2  0
 12 10  1  0
 12 13  1  0
 13 14  1  6
 15 14  1  0
 16 20  1  0
 16 15  1  0
 17 16  2  0
 18 26  1  0
 18 13  1  0
 19 18  2  0
 21 22  1  0
 22 23  1  0
 23 25  1  0
 23 24  1  1
 25 27  1  0
 25 26  1  6
 27 29  1  0
 28 27  2  0
M  END
$$$$
