FEI.pdb
     RDKit          3D

 29 29  0  0  1  0  0  0  0  0999 V2000
    5.5692  -17.2013   24.6549 N   0  0  0  0  0  0  0  0  0  0  0  0
    6.6889  -16.2859   24.5886 C   0  0  1  0  0  0  0  0  0  0  0  0
    6.7256  -15.4816   25.8564 C   0  0  0  0  0  0  0  0  0  0  0  0
    6.3474  -14.0923   25.5265 C   0  0  0  0  0  0  0  0  0  0  0  0
    5.2485  -13.5289   26.1137 C   0  0  0  0  0  0  0  0  0  0  0  0
    4.9179  -12.2177   25.7823 C   0  0  0  0  0  0  0  0  0  0  0  0
    5.6861  -11.5174   24.8849 C   0  0  0  0  0  0  0  0  0  0  0  0
    6.7884  -12.0983   24.3029 C   0  0  0  0  0  0  0  0  0  0  0  0
    7.1085  -13.3878   24.6326 C   0  0  0  0  0  0  0  0  0  0  0  0
    7.9614  -17.1071   24.4692 C   0  0  0  0  0  0  0  0  0  0  0  0
    8.0842  -18.1510   25.1519 O   0  0  0  0  0  0  0  0  0  0  0  0
    8.9975  -16.7026   23.5999 N   0  0  0  0  0  0  0  0  0  0  0  0
   10.4034  -16.9701   23.7480 C   0  0  1  0  0  0  0  0  0  0  0  0
   11.2404  -16.7152   22.5072 C   0  0  0  0  0  0  0  0  0  0  0  0
   12.6291  -17.2071   22.6887 C   0  0  0  0  0  0  0  0  0  0  0  0
   13.4629  -17.0030   21.4626 C   0  0  0  0  0  0  0  0  0  0  0  0
   13.2676  -16.0017   20.7325 O   0  0  0  0  0  0  0  0  0  0  0  0
   11.0019  -16.5299   24.9961 C   0  0  0  0  0  0  0  0  0  0  0  0
   11.8072  -15.5367   24.9529 O   0  0  0  0  0  0  0  0  0  0  0  0
   14.4453  -17.9124   21.1329 O   0  0  0  0  0  0  0  0  0  0  0  0
    9.9782  -13.2222   28.0836 C   0  0  0  0  0  0  0  0  0  0  0  0
   10.7778  -14.2574   27.3198 C   0  0  0  0  0  0  0  0  0  0  0  0
   10.8011  -15.5165   28.1607 C   0  0  2  0  0  0  0  0  0  0  0  0
   11.3580  -15.2135   29.5148 C   0  0  0  0  0  0  0  0  0  0  0  0
   11.5049  -16.6543   27.4614 C   0  0  2  0  0  0  0  0  0  0  0  0
   10.7893  -17.0867   26.2744 N   0  0  0  0  0  0  0  0  0  0  0  0
   11.5383  -17.7977   28.4076 C   0  0  0  0  0  0  0  0  0  0  0  0
   10.6430  -18.6539   28.3443 O   0  0  0  0  0  0  0  0  0  0  0  0
   12.5363  -17.9372   29.3566 O   0  0  0  0  0  0  0  0  0  0  0  0
  2  1  1  1
  2 10  1  0
  3  2  1  0
  4  3  1  0
  5  4  2  0
  6  5  1  0
  7  8  1  0
  7  6  2  0
  8  9  2  0
  9  4  1  0
 10 11  2  0
 12 10  1  0
 12 13  1  0
 13 14  1  6
 15 14  1  0
 16 20  1  0
 16 15  1  0
 17 16  2  0
 18 26  1  0
 18 13  1  0
 19 18  2  0
 21 22  1  0
 22 23  1  0
 23 25  1  0
 23 24  1  1
 25 27  1  0
 25 26  1  6
 27 29  1  0
 28 27  2  0
M  END
$$$$
