FEI.pdb
     RDKit          3D

 29 29  0  0  1  0  0  0  0  0999 V2000
    5.8994  -17.9441   23.1281 N   0  0  0  0  0  0  0  0  0  0  0  0
    6.5372  -16.7014   23.5092 C   0  0  1  0  0  0  0  0  0  0  0  0
    5.7173  -16.0535   24.5879 C   0  0  0  0  0  0  0  0  0  0  0  0
    6.3350  -14.7510   24.9104 C   0  0  0  0  0  0  0  0  0  0  0  0
    7.0754  -14.0967   23.9651 C   0  0  0  0  0  0  0  0  0  0  0  0
    7.6447  -12.8710   24.2994 C   0  0  0  0  0  0  0  0  0  0  0  0
    7.4593  -12.3422   25.5532 C   0  0  0  0  0  0  0  0  0  0  0  0
    6.7118  -13.0128   26.4929 C   0  0  0  0  0  0  0  0  0  0  0  0
    6.1545  -14.2176   26.1584 C   0  0  0  0  0  0  0  0  0  0  0  0
    7.9199  -17.0279   24.0470 C   0  0  0  0  0  0  0  0  0  0  0  0
    8.0257  -17.6685   25.1190 O   0  0  0  0  0  0  0  0  0  0  0  0
    9.0765  -16.6162   23.3501 N   0  0  0  0  0  0  0  0  0  0  0  0
   10.4425  -16.9101   23.6933 C   0  0  1  0  0  0  0  0  0  0  0  0
   11.4228  -16.8526   22.5353 C   0  0  0  0  0  0  0  0  0  0  0  0
   12.7945  -17.2073   22.9780 C   0  0  0  0  0  0  0  0  0  0  0  0
   13.7827  -17.1399   21.8559 C   0  0  0  0  0  0  0  0  0  0  0  0
   14.4730  -16.1054   21.6912 O   0  0  0  0  0  0  0  0  0  0  0  0
   10.9209  -16.3280   24.9351 C   0  0  0  0  0  0  0  0  0  0  0  0
   11.6656  -15.2905   24.8586 O   0  0  0  0  0  0  0  0  0  0  0  0
   13.9367  -18.2116   21.0022 O   0  0  0  0  0  0  0  0  0  0  0  0
    8.9113  -13.1728   27.9161 C   0  0  0  0  0  0  0  0  0  0  0  0
   10.0076  -13.9750   27.2462 C   0  0  0  0  0  0  0  0  0  0  0  0
   10.2261  -15.2200   28.0799 C   0  0  2  0  0  0  0  0  0  0  0  0
   10.6016  -14.8379   29.4758 C   0  0  0  0  0  0  0  0  0  0  0  0
   11.2024  -16.1730   27.4336 C   0  0  2  0  0  0  0  0  0  0  0  0
   10.6499  -16.7885   26.2403 N   0  0  0  0  0  0  0  0  0  0  0  0
   11.4735  -17.2552   28.4131 C   0  0  0  0  0  0  0  0  0  0  0  0
   10.8099  -18.3012   28.3490 O   0  0  0  0  0  0  0  0  0  0  0  0
   12.4425  -17.1325   29.3940 O   0  0  0  0  0  0  0  0  0  0  0  0
  2  1  1  1
  2 10  1  0
  3  2  1  0
  4  3  1  0
  5  4  2  0
  6  5  1  0
  7  8  1  0
  7  6  2  0
  8  9  2  0
  9  4  1  0
 10 11  2  0
 12 10  1  0
 12 13  1  0
 13 14  1  6
 15 14  1  0
 16 20  1  0
 16 15  1  0
 17 16  2  0
 18 26  1  0
 18 13  1  0
 19 18  2  0
 21 22  1  0
 22 23  1  0
 23 25  1  0
 23 24  1  1
 25 27  1  0
 25 26  1  6
 27 29  1  0
 28 27  2  0
M  END
$$$$
