FEI.pdb
     RDKit          3D

 29 29  0  0  1  0  0  0  0  0999 V2000
    6.8537  -18.0028   19.1443 N   0  0  0  0  0  0  0  0  0  0  0  0
    7.3983  -16.7520   19.6290 C   0  0  1  0  0  0  0  0  0  0  0  0
    6.3051  -15.7222   19.6302 C   0  0  0  0  0  0  0  0  0  0  0  0
    6.8546  -14.4740   20.1976 C   0  0  0  0  0  0  0  0  0  0  0  0
    6.6594  -14.1841   21.5196 C   0  0  0  0  0  0  0  0  0  0  0  0
    7.1896  -13.0001   22.0248 C   0  0  0  0  0  0  0  0  0  0  0  0
    7.8906  -12.1514   21.2035 C   0  0  0  0  0  0  0  0  0  0  0  0
    8.0782  -12.4573   19.8759 C   0  0  0  0  0  0  0  0  0  0  0  0
    7.5545  -13.6229   19.3849 C   0  0  0  0  0  0  0  0  0  0  0  0
    7.8919  -16.9726   21.0487 C   0  0  0  0  0  0  0  0  0  0  0  0
    7.0938  -17.3976   21.9166 O   0  0  0  0  0  0  0  0  0  0  0  0
    9.2345  -16.7031   21.3916 N   0  0  0  0  0  0  0  0  0  0  0  0
    9.8672  -16.9444   22.6611 C   0  0  1  0  0  0  0  0  0  0  0  0
   11.2325  -17.6040   22.5836 C   0  0  0  0  0  0  0  0  0  0  0  0
   11.7615  -17.8987   23.9390 C   0  0  0  0  0  0  0  0  0  0  0  0
   13.1323  -18.4975   23.8898 C   0  0  0  0  0  0  0  0  0  0  0  0
   13.2815  -19.7333   24.0460 O   0  0  0  0  0  0  0  0  0  0  0  0
    9.7544  -15.8741   23.6365 C   0  0  0  0  0  0  0  0  0  0  0  0
   10.4434  -14.8141   23.4400 O   0  0  0  0  0  0  0  0  0  0  0  0
   14.2322  -17.6948   23.6732 O   0  0  0  0  0  0  0  0  0  0  0  0
    6.7009  -11.8207   26.3515 C   0  0  0  0  0  0  0  0  0  0  0  0
    7.8823  -12.7256   26.6337 C   0  0  0  0  0  0  0  0  0  0  0  0
    7.8185  -13.8691   25.6432 C   0  0  2  0  0  0  0  0  0  0  0  0
    6.4892  -14.5475   25.7344 C   0  0  0  0  0  0  0  0  0  0  0  0
    8.9873  -14.8135   25.7888 C   0  0  2  0  0  0  0  0  0  0  0  0
    8.9541  -15.8740   24.7978 N   0  0  0  0  0  0  0  0  0  0  0  0
    8.8768  -15.4456   27.1275 C   0  0  0  0  0  0  0  0  0  0  0  0
    8.4288  -16.5993   27.2101 O   0  0  0  0  0  0  0  0  0  0  0  0
    9.2578  -14.7878   28.2843 O   0  0  0  0  0  0  0  0  0  0  0  0
  2  1  1  1
  2 10  1  0
  3  2  1  0
  4  3  1  0
  5  4  2  0
  6  5  1  0
  7  8  1  0
  7  6  2  0
  8  9  2  0
  9  4  1  0
 10 11  2  0
 12 10  1  0
 12 13  1  0
 13 14  1  6
 15 14  1  0
 16 20  1  0
 16 15  1  0
 17 16  2  0
 18 26  1  0
 18 13  1  0
 19 18  2  0
 21 22  1  0
 22 23  1  0
 23 25  1  0
 23 24  1  1
 25 27  1  0
 25 26  1  6
 27 29  1  0
 28 27  2  0
M  END
$$$$
