FEI.pdb
     RDKit          3D

 29 29  0  0  1  0  0  0  0  0999 V2000
    5.7484  -17.9371   22.6084 N   0  0  0  0  0  0  0  0  0  0  0  0
    6.4824  -16.7828   23.0829 C   0  0  1  0  0  0  0  0  0  0  0  0
    5.7441  -16.1924   24.2499 C   0  0  0  0  0  0  0  0  0  0  0  0
    6.4505  -14.9622   24.6617 C   0  0  0  0  0  0  0  0  0  0  0  0
    7.1361  -14.2285   23.7336 C   0  0  0  0  0  0  0  0  0  0  0  0
    7.7917  -13.0740   24.1526 C   0  0  0  0  0  0  0  0  0  0  0  0
    7.7430  -12.6919   25.4709 C   0  0  0  0  0  0  0  0  0  0  0  0
    7.0491  -13.4408   26.3923 C   0  0  0  0  0  0  0  0  0  0  0  0
    6.4065  -14.5750   25.9743 C   0  0  0  0  0  0  0  0  0  0  0  0
    7.8556  -17.2510   23.5330 C   0  0  0  0  0  0  0  0  0  0  0  0
    7.9431  -18.1734   24.3770 O   0  0  0  0  0  0  0  0  0  0  0  0
    9.0239  -16.6566   23.0089 N   0  0  0  0  0  0  0  0  0  0  0  0
   10.3848  -17.0111   23.3129 C   0  0  1  0  0  0  0  0  0  0  0  0
   11.3288  -17.0155   22.1238 C   0  0  0  0  0  0  0  0  0  0  0  0
   12.7225  -17.2995   22.5487 C   0  0  0  0  0  0  0  0  0  0  0  0
   13.6660  -17.3460   21.3878 C   0  0  0  0  0  0  0  0  0  0  0  0
   14.8712  -17.0366   21.5480 O   0  0  0  0  0  0  0  0  0  0  0  0
   10.9301  -16.4365   24.5304 C   0  0  0  0  0  0  0  0  0  0  0  0
   11.6640  -15.3943   24.4206 O   0  0  0  0  0  0  0  0  0  0  0  0
   13.2146  -17.7278   20.1422 O   0  0  0  0  0  0  0  0  0  0  0  0
    9.9720  -13.2868   29.0420 C   0  0  0  0  0  0  0  0  0  0  0  0
   10.9085  -14.4335   28.7219 C   0  0  0  0  0  0  0  0  0  0  0  0
   10.3612  -15.1306   27.4941 C   0  0  2  0  0  0  0  0  0  0  0  0
    8.9559  -15.5749   27.7456 C   0  0  0  0  0  0  0  0  0  0  0  0
   11.2674  -16.2407   27.0192 C   0  0  2  0  0  0  0  0  0  0  0  0
   10.7361  -16.9093   25.8450 N   0  0  0  0  0  0  0  0  0  0  0  0
   11.3433  -17.2432   28.1114 C   0  0  0  0  0  0  0  0  0  0  0  0
   10.6091  -18.2416   28.0602 O   0  0  0  0  0  0  0  0  0  0  0  0
   12.2069  -17.0979   29.1834 O   0  0  0  0  0  0  0  0  0  0  0  0
  2  1  1  1
  2 10  1  0
  3  2  1  0
  4  3  1  0
  5  4  2  0
  6  5  1  0
  7  8  1  0
  7  6  2  0
  8  9  2  0
  9  4  1  0
 10 11  2  0
 12 10  1  0
 12 13  1  0
 13 14  1  6
 15 14  1  0
 16 20  1  0
 16 15  1  0
 17 16  2  0
 18 26  1  0
 18 13  1  0
 19 18  2  0
 21 22  1  0
 22 23  1  0
 23 25  1  0
 23 24  1  1
 25 27  1  0
 25 26  1  6
 27 29  1  0
 28 27  2  0
M  END
$$$$
