FEI.pdb
     RDKit          3D

 29 29  0  0  1  0  0  0  0  0999 V2000
    7.1470  -17.9264   19.1024 N   0  0  0  0  0  0  0  0  0  0  0  0
    7.6352  -16.6669   19.6234 C   0  0  1  0  0  0  0  0  0  0  0  0
    6.6558  -15.5873   19.2618 C   0  0  0  0  0  0  0  0  0  0  0  0
    7.2080  -14.2971   19.7227 C   0  0  0  0  0  0  0  0  0  0  0  0
    8.0539  -13.5911   18.9129 C   0  0  0  0  0  0  0  0  0  0  0  0
    8.5578  -12.3786   19.3755 C   0  0  0  0  0  0  0  0  0  0  0  0
    8.2054  -11.9135   20.6187 C   0  0  0  0  0  0  0  0  0  0  0  0
    7.3534  -12.6354   21.4214 C   0  0  0  0  0  0  0  0  0  0  0  0
    6.8611  -13.8270   20.9610 C   0  0  0  0  0  0  0  0  0  0  0  0
    7.7261  -16.7867   21.1350 C   0  0  0  0  0  0  0  0  0  0  0  0
    6.6773  -16.7316   21.8190 O   0  0  0  0  0  0  0  0  0  0  0  0
    8.9766  -16.9583   21.7673 N   0  0  0  0  0  0  0  0  0  0  0  0
    9.2148  -17.1510   23.1731 C   0  0  1  0  0  0  0  0  0  0  0  0
   10.1454  -18.3006   23.5157 C   0  0  0  0  0  0  0  0  0  0  0  0
   10.2842  -18.4563   24.9854 C   0  0  0  0  0  0  0  0  0  0  0  0
   11.2184  -19.5682   25.3474 C   0  0  0  0  0  0  0  0  0  0  0  0
   12.0413  -19.9946   24.5019 O   0  0  0  0  0  0  0  0  0  0  0  0
    9.4178  -15.9411   23.9508 C   0  0  0  0  0  0  0  0  0  0  0  0
   10.3306  -15.1316   23.5656 O   0  0  0  0  0  0  0  0  0  0  0  0
   11.1775  -20.1256   26.6078 O   0  0  0  0  0  0  0  0  0  0  0  0
    5.9040  -13.0675   27.3836 C   0  0  0  0  0  0  0  0  0  0  0  0
    6.7899  -14.1604   26.8222 C   0  0  0  0  0  0  0  0  0  0  0  0
    8.0170  -13.4895   26.2416 C   0  0  2  0  0  0  0  0  0  0  0  0
    7.6362  -12.6842   25.0408 C   0  0  0  0  0  0  0  0  0  0  0  0
    9.1315  -14.4731   25.9778 C   0  0  2  0  0  0  0  0  0  0  0  0
    8.7065  -15.5527   25.1050 N   0  0  0  0  0  0  0  0  0  0  0  0
    9.5069  -15.0718   27.2834 C   0  0  0  0  0  0  0  0  0  0  0  0
    9.1901  -16.2483   27.5161 O   0  0  0  0  0  0  0  0  0  0  0  0
   10.1985  -14.3584   28.2472 O   0  0  0  0  0  0  0  0  0  0  0  0
  2  1  1  6
  2 10  1  0
  3  2  1  0
  4  3  1  0
  5  4  2  0
  6  5  1  0
  7  8  1  0
  7  6  2  0
  8  9  2  0
  9  4  1  0
 10 11  2  0
 12 10  1  0
 12 13  1  0
 13 14  1  6
 15 14  1  0
 16 20  1  0
 16 15  1  0
 17 16  2  0
 18 26  1  0
 18 13  1  0
 19 18  2  0
 21 22  1  0
 22 23  1  0
 23 25  1  0
 23 24  1  6
 25 27  1  0
 25 26  1  6
 27 29  1  0
 28 27  2  0
M  END
$$$$
