FEI.pdb
     RDKit          3D

 29 29  0  0  1  0  0  0  0  0999 V2000
    5.6631  -17.9878   20.8863 N   0  0  0  0  0  0  0  0  0  0  0  0
    6.5493  -16.8434   20.8493 C   0  0  1  0  0  0  0  0  0  0  0  0
    5.7191  -15.5929   20.9011 C   0  0  0  0  0  0  0  0  0  0  0  0
    6.6350  -14.4349   20.8568 C   0  0  0  0  0  0  0  0  0  0  0  0
    7.1491  -14.0198   19.6597 C   0  0  0  0  0  0  0  0  0  0  0  0
    8.0095  -12.9254   19.6506 C   0  0  0  0  0  0  0  0  0  0  0  0
    8.3266  -12.2862   20.8241 C   0  0  0  0  0  0  0  0  0  0  0  0
    7.8011  -12.7160   22.0201 C   0  0  0  0  0  0  0  0  0  0  0  0
    6.9557  -13.7927   22.0227 C   0  0  0  0  0  0  0  0  0  0  0  0
    7.4511  -16.9071   22.0701 C   0  0  0  0  0  0  0  0  0  0  0  0
    6.9482  -17.1485   23.1924 O   0  0  0  0  0  0  0  0  0  0  0  0
    8.8417  -16.6973   21.9467 N   0  0  0  0  0  0  0  0  0  0  0  0
    9.8425  -16.9238   22.9553 C   0  0  1  0  0  0  0  0  0  0  0  0
   11.1450  -17.5155   22.4467 C   0  0  0  0  0  0  0  0  0  0  0  0
   12.0394  -17.8856   23.5722 C   0  0  0  0  0  0  0  0  0  0  0  0
   13.3139  -18.5092   23.0959 C   0  0  0  0  0  0  0  0  0  0  0  0
   13.3598  -19.7415   22.8651 O   0  0  0  0  0  0  0  0  0  0  0  0
    9.9889  -15.8726   23.9469 C   0  0  0  0  0  0  0  0  0  0  0  0
   10.9521  -15.0436   23.7985 O   0  0  0  0  0  0  0  0  0  0  0  0
   14.4383  -17.7332   22.9100 O   0  0  0  0  0  0  0  0  0  0  0  0
    5.9986  -13.1369   26.5412 C   0  0  0  0  0  0  0  0  0  0  0  0
    6.9906  -14.2593   26.3162 C   0  0  0  0  0  0  0  0  0  0  0  0
    8.3610  -13.6280   26.1880 C   0  0  2  0  0  0  0  0  0  0  0  0
    8.3656  -12.6473   25.0594 C   0  0  0  0  0  0  0  0  0  0  0  0
    9.4566  -14.6622   26.0911 C   0  0  2  0  0  0  0  0  0  0  0  0
    9.1713  -15.6606   25.0764 N   0  0  0  0  0  0  0  0  0  0  0  0
    9.5207  -15.3579   27.4009 C   0  0  0  0  0  0  0  0  0  0  0  0
    9.8759  -14.7181   28.4023 O   0  0  0  0  0  0  0  0  0  0  0  0
    9.1967  -16.6967   27.5383 O   0  0  0  0  0  0  0  0  0  0  0  0
  2  1  1  1
  2 10  1  0
  3  2  1  0
  4  3  1  0
  5  4  2  0
  6  5  1  0
  7  8  1  0
  7  6  2  0
  8  9  2  0
  9  4  1  0
 10 11  2  0
 12 10  1  0
 12 13  1  0
 13 14  1  6
 15 14  1  0
 16 20  1  0
 16 15  1  0
 17 16  2  0
 18 26  1  0
 18 13  1  0
 19 18  2  0
 21 22  1  0
 22 23  1  0
 23 25  1  0
 23 24  1  6
 25 27  1  0
 25 26  1  6
 27 29  1  0
 28 27  2  0
M  END
$$$$
