FEI.pdb
     RDKit          3D

 29 29  0  0  1  0  0  0  0  0999 V2000
    6.9995  -17.0826   20.9260 N   0  0  0  0  0  0  0  0  0  0  0  0
    7.3194  -16.0588   21.8985 C   0  0  1  0  0  0  0  0  0  0  0  0
    6.0651  -15.6932   22.6391 C   0  0  0  0  0  0  0  0  0  0  0  0
    6.3753  -14.5548   23.5278 C   0  0  0  0  0  0  0  0  0  0  0  0
    6.1807  -14.6718   24.8762 C   0  0  0  0  0  0  0  0  0  0  0  0
    6.4823  -13.5813   25.6874 C   0  0  0  0  0  0  0  0  0  0  0  0
    6.9636  -12.4205   25.1334 C   0  0  0  0  0  0  0  0  0  0  0  0
    7.1538  -12.3186   23.7752 C   0  0  0  0  0  0  0  0  0  0  0  0
    6.8554  -13.3942   22.9826 C   0  0  0  0  0  0  0  0  0  0  0  0
    8.3355  -16.6342   22.8703 C   0  0  0  0  0  0  0  0  0  0  0  0
    7.9714  -17.5062   23.6936 O   0  0  0  0  0  0  0  0  0  0  0  0
    9.6767  -16.1944   22.8501 N   0  0  0  0  0  0  0  0  0  0  0  0
   10.7902  -16.7846   23.5444 C   0  0  1  0  0  0  0  0  0  0  0  0
   11.9841  -17.1265   22.6710 C   0  0  0  0  0  0  0  0  0  0  0  0
   13.0454  -17.8036   23.4575 C   0  0  0  0  0  0  0  0  0  0  0  0
   14.2185  -18.1834   22.6091 C   0  0  0  0  0  0  0  0  0  0  0  0
   15.3684  -18.2161   23.1096 O   0  0  0  0  0  0  0  0  0  0  0  0
   11.1166  -16.1948   24.8309 C   0  0  0  0  0  0  0  0  0  0  0  0
   11.9731  -15.2445   24.8505 O   0  0  0  0  0  0  0  0  0  0  0  0
   14.0392  -18.4976   21.2787 O   0  0  0  0  0  0  0  0  0  0  0  0
    9.6792  -12.6241   27.7373 C   0  0  0  0  0  0  0  0  0  0  0  0
   10.4837  -13.7150   27.0611 C   0  0  0  0  0  0  0  0  0  0  0  0
   10.3790  -14.9524   27.9275 C   0  0  2  0  0  0  0  0  0  0  0  0
   10.7676  -14.6235   29.3333 C   0  0  0  0  0  0  0  0  0  0  0  0
   11.1441  -16.1181   27.3488 C   0  0  2  0  0  0  0  0  0  0  0  0
   10.5837  -16.5603   26.0845 N   0  0  0  0  0  0  0  0  0  0  0  0
   11.0253  -17.2424   28.3109 C   0  0  0  0  0  0  0  0  0  0  0  0
   10.0309  -17.9813   28.2490 O   0  0  0  0  0  0  0  0  0  0  0  0
   11.9888  -17.4908   29.2732 O   0  0  0  0  0  0  0  0  0  0  0  0
  2  1  1  6
  2 10  1  0
  3  2  1  0
  4  3  1  0
  5  4  2  0
  6  5  1  0
  7  8  1  0
  7  6  2  0
  8  9  2  0
  9  4  1  0
 10 11  2  0
 12 10  1  0
 12 13  1  0
 13 14  1  6
 15 14  1  0
 16 20  1  0
 16 15  1  0
 17 16  2  0
 18 26  1  0
 18 13  1  0
 19 18  2  0
 21 22  1  0
 22 23  1  0
 23 25  1  0
 23 24  1  1
 25 27  1  0
 25 26  1  6
 27 29  1  0
 28 27  2  0
M  END
$$$$
