YSR.pdb
     RDKit          3D

 30 30  0  0  1  0  0  0  0  0999 V2000
    5.6820  -11.4504   18.3916 O   0  0  0  0  0  0  0  0  0  0  0  0
    6.7739  -12.1674   18.8391 C   0  0  0  0  0  0  0  0  0  0  0  0
    8.0512  -11.9310   18.3385 C   0  0  0  0  0  0  0  0  0  0  0  0
    9.1356  -12.6512   18.7907 C   0  0  0  0  0  0  0  0  0  0  0  0
    8.9450  -13.6359   19.7697 C   0  0  0  0  0  0  0  0  0  0  0  0
   10.1286  -14.3917   20.2136 C   0  0  0  0  0  0  0  0  0  0  0  0
   10.6057  -15.3265   19.1306 C   0  0  2  0  0  0  0  0  0  0  0  0
    9.5316  -16.3029   18.9505 N   0  0  0  0  0  0  0  0  0  0  0  0
   11.8427  -16.0016   19.5828 C   0  0  0  0  0  0  0  0  0  0  0  0
   11.7682  -17.0130   20.2996 O   0  0  0  0  0  0  0  0  0  0  0  0
    7.6837  -13.8704   20.2646 C   0  0  0  0  0  0  0  0  0  0  0  0
    6.6021  -13.1441   19.8064 C   0  0  0  0  0  0  0  0  0  0  0  0
   15.5258  -14.3772   18.6587 O   0  0  0  0  0  0  0  0  0  0  0  0
   15.4770  -15.7576   18.6442 C   0  0  0  0  0  0  0  0  0  0  0  0
   14.3397  -16.2021   19.5505 C   0  0  2  0  0  0  0  0  0  0  0  0
   13.1139  -15.4987   19.2001 N   0  0  0  0  0  0  0  0  0  0  0  0
   14.6717  -15.9119   20.9441 C   0  0  0  0  0  0  0  0  0  0  0  0
   14.5049  -14.7182   21.3725 O   0  0  0  0  0  0  0  0  0  0  0  0
   12.2341  -21.4795   22.3792 N   0  0  0  0  0  0  0  0  0  0  0  0
   12.1784  -21.2313   23.8108 C   0  0  0  0  0  0  0  0  0  0  0  0
   11.6432  -22.0826   24.5902 N   0  0  0  0  0  0  0  0  0  0  0  0
   12.7200  -20.0466   24.3522 N   0  0  0  0  0  0  0  0  0  0  0  0
   13.3454  -19.0156   23.6389 C   0  0  0  0  0  0  0  0  0  0  0  0
   13.8294  -17.7974   24.3225 C   0  0  0  0  0  0  0  0  0  0  0  0
   15.3105  -17.5680   24.2018 C   0  0  0  0  0  0  0  0  0  0  0  0
   15.5322  -16.4311   23.2254 C   0  0  2  0  0  0  0  0  0  0  0  0
   15.1725  -16.8458   21.8927 N   0  0  0  0  0  0  0  0  0  0  0  0
   16.9287  -15.9115   23.2939 C   0  0  0  0  0  0  0  0  0  0  0  0
   17.6956  -16.1706   22.3404 O   0  0  0  0  0  0  0  0  0  0  0  0
   17.4205  -15.1653   24.3436 O   0  0  0  0  0  0  0  0  0  0  0  0
  2  1  1  0
  3  2  2  0
  4  3  1  0
  5 11  1  0
  5  4  2  0
  6  5  1  0
  7  6  1  0
  7  8  1  1
  9  7  1  0
  9 10  2  0
 11 12  2  0
 12  2  1  0
 13 14  1  0
 15 14  1  6
 15 16  1  0
 16  9  1  0
 17 15  1  0
 18 17  2  0
 19 20  1  0
 20 22  1  0
 21 20  2  0
 22 23  1  0
 23 24  1  0
 24 25  1  0
 26 25  1  1
 26 28  1  0
 26 27  1  0
 27 17  1  0
 28 30  1  0
 29 28  2  0
M  END
$$$$
