YSR.pdb
     RDKit          3D

 30 30  0  0  1  0  0  0  0  0999 V2000
    7.7998  -16.7760   11.5554 O   0  0  0  0  0  0  0  0  0  0  0  0
    8.1885  -16.5039   12.8521 C   0  0  0  0  0  0  0  0  0  0  0  0
    7.4786  -17.0014   13.9414 C   0  0  0  0  0  0  0  0  0  0  0  0
    7.8735  -16.7250   15.2324 C   0  0  0  0  0  0  0  0  0  0  0  0
    9.0079  -15.9304   15.4475 C   0  0  0  0  0  0  0  0  0  0  0  0
    9.3857  -15.6479   16.8427 C   0  0  0  0  0  0  0  0  0  0  0  0
    8.5655  -14.5124   17.4014 C   0  0  2  0  0  0  0  0  0  0  0  0
    9.0400  -13.3092   16.7182 N   0  0  0  0  0  0  0  0  0  0  0  0
    8.8112  -14.4069   18.8570 C   0  0  0  0  0  0  0  0  0  0  0  0
    9.9049  -13.9882   19.2705 O   0  0  0  0  0  0  0  0  0  0  0  0
    9.7096  -15.4383   14.3723 C   0  0  0  0  0  0  0  0  0  0  0  0
    9.3074  -15.7200   13.0814 C   0  0  0  0  0  0  0  0  0  0  0  0
    6.9023  -14.6089   23.2984 O   0  0  0  0  0  0  0  0  0  0  0  0
    6.6679  -14.7489   21.9444 C   0  0  0  0  0  0  0  0  0  0  0  0
    7.9969  -14.6205   21.2166 C   0  0  2  0  0  0  0  0  0  0  0  0
    7.8021  -14.7813   19.7826 N   0  0  0  0  0  0  0  0  0  0  0  0
    8.9234  -15.6482   21.6878 C   0  0  0  0  0  0  0  0  0  0  0  0
    8.7676  -16.8460   21.2667 O   0  0  0  0  0  0  0  0  0  0  0  0
   14.9811  -13.2595   19.1623 N   0  0  0  0  0  0  0  0  0  0  0  0
   14.1283  -14.4152   18.9362 C   0  0  0  0  0  0  0  0  0  0  0  0
   13.2178  -14.3779   18.0484 N   0  0  0  0  0  0  0  0  0  0  0  0
   14.3028  -15.5914   19.6951 N   0  0  0  0  0  0  0  0  0  0  0  0
   13.9179  -15.7864   21.0281 C   0  0  0  0  0  0  0  0  0  0  0  0
   12.5188  -16.1092   21.3804 C   0  0  0  0  0  0  0  0  0  0  0  0
   12.2719  -16.2595   22.8560 C   0  0  0  0  0  0  0  0  0  0  0  0
   10.7993  -16.5514   23.0589 C   0  0  2  0  0  0  0  0  0  0  0  0
   10.0057  -15.4443   22.5880 N   0  0  0  0  0  0  0  0  0  0  0  0
   10.4971  -16.8948   24.4787 C   0  0  0  0  0  0  0  0  0  0  0  0
    9.6847  -16.1702   25.0946 O   0  0  0  0  0  0  0  0  0  0  0  0
   11.0599  -17.9606   25.1481 O   0  0  0  0  0  0  0  0  0  0  0  0
  2  1  1  0
  3  2  2  0
  4  3  1  0
  5 11  1  0
  5  4  2  0
  6  5  1  0
  7  6  1  0
  7  8  1  6
  9  7  1  0
  9 10  2  0
 11 12  2  0
 12  2  1  0
 13 14  1  0
 15 14  1  1
 15 16  1  0
 16  9  1  0
 17 15  1  0
 18 17  2  0
 19 20  1  0
 20 22  1  0
 21 20  2  0
 22 23  1  0
 23 24  1  0
 24 25  1  0
 26 25  1  1
 26 28  1  0
 26 27  1  0
 27 17  1  0
 28 30  1  0
 29 28  2  0
M  END
$$$$
