YSR.pdb
     RDKit          3D

 30 30  0  0  1  0  0  0  0  0999 V2000
    7.8548  -11.5176   17.8960 O   0  0  0  0  0  0  0  0  0  0  0  0
    8.0236  -12.4289   18.9195 C   0  0  0  0  0  0  0  0  0  0  0  0
    9.2818  -12.6969   19.4516 C   0  0  0  0  0  0  0  0  0  0  0  0
    9.4414  -13.6079   20.4732 C   0  0  0  0  0  0  0  0  0  0  0  0
    8.3169  -14.2727   20.9812 C   0  0  0  0  0  0  0  0  0  0  0  0
    8.5347  -15.2488   22.0625 C   0  0  0  0  0  0  0  0  0  0  0  0
    9.3845  -16.3991   21.5839 C   0  0  2  0  0  0  0  0  0  0  0  0
    8.6293  -17.0223   20.4972 N   0  0  0  0  0  0  0  0  0  0  0  0
    9.5720  -17.3586   22.6949 C   0  0  0  0  0  0  0  0  0  0  0  0
    8.6874  -18.1931   22.9469 O   0  0  0  0  0  0  0  0  0  0  0  0
    7.0737  -14.0091   20.4561 C   0  0  0  0  0  0  0  0  0  0  0  0
    6.9222  -13.0944   19.4325 C   0  0  0  0  0  0  0  0  0  0  0  0
   12.8284  -17.1259   25.3542 O   0  0  0  0  0  0  0  0  0  0  0  0
   12.5151  -18.3606   24.8202 C   0  0  0  0  0  0  0  0  0  0  0  0
   11.0372  -18.3619   24.4621 C   0  0  2  0  0  0  0  0  0  0  0  0
   10.7590  -17.3301   23.4732 N   0  0  0  0  0  0  0  0  0  0  0  0
   10.2357  -18.1028   25.6567 C   0  0  0  0  0  0  0  0  0  0  0  0
   10.0576  -16.8885   26.0173 O   0  0  0  0  0  0  0  0  0  0  0  0
    5.4760  -24.4496   27.7788 N   0  0  0  0  0  0  0  0  0  0  0  0
    5.1463  -23.3750   28.7010 C   0  0  0  0  0  0  0  0  0  0  0  0
    4.3986  -23.5976   29.7061 N   0  0  0  0  0  0  0  0  0  0  0  0
    5.6541  -22.0752   28.4946 N   0  0  0  0  0  0  0  0  0  0  0  0
    6.4248  -21.6461   27.4061 C   0  0  0  0  0  0  0  0  0  0  0  0
    7.6616  -20.8615   27.6072 C   0  0  0  0  0  0  0  0  0  0  0  0
    7.4650  -19.3719   27.5483 C   0  0  0  0  0  0  0  0  0  0  0  0
    8.8280  -18.7146   27.6210 C   0  0  2  0  0  0  0  0  0  0  0  0
    9.6198  -19.0887   26.4763 N   0  0  0  0  0  0  0  0  0  0  0  0
    9.5192  -19.0222   28.9066 C   0  0  0  0  0  0  0  0  0  0  0  0
   10.5469  -19.7337   28.8612 O   0  0  0  0  0  0  0  0  0  0  0  0
    9.0918  -18.5693   30.1365 O   0  0  0  0  0  0  0  0  0  0  0  0
  2  1  1  0
  3  2  2  0
  4  3  1  0
  5 11  1  0
  5  4  2  0
  6  5  1  0
  7  6  1  0
  7  8  1  6
  9  7  1  0
  9 10  2  0
 11 12  2  0
 12  2  1  0
 13 14  1  0
 15 14  1  1
 15 16  1  0
 16  9  1  0
 17 15  1  0
 18 17  2  0
 19 20  1  0
 20 22  1  0
 21 20  2  0
 22 23  1  0
 23 24  1  0
 24 25  1  0
 26 25  1  1
 26 28  1  0
 26 27  1  0
 27 17  1  0
 28 30  1  0
 29 28  2  0
M  END
$$$$
