YSR.pdb
     RDKit          3D

 30 30  0  0  1  0  0  0  0  0999 V2000
    6.7054  -11.3300   19.2823 O   0  0  0  0  0  0  0  0  0  0  0  0
    7.3577  -12.5195   19.5399 C   0  0  0  0  0  0  0  0  0  0  0  0
    7.2167  -13.1743   20.7602 C   0  0  0  0  0  0  0  0  0  0  0  0
    7.8713  -14.3612   21.0089 C   0  0  0  0  0  0  0  0  0  0  0  0
    8.6907  -14.9139   20.0151 C   0  0  0  0  0  0  0  0  0  0  0  0
    9.3830  -16.1756   20.3284 C   0  0  0  0  0  0  0  0  0  0  0  0
    9.0224  -17.2476   19.3308 C   0  0  2  0  0  0  0  0  0  0  0  0
    7.6248  -17.5840   19.6009 N   0  0  0  0  0  0  0  0  0  0  0  0
    9.8869  -18.4280   19.5536 C   0  0  0  0  0  0  0  0  0  0  0  0
    9.6205  -19.2256   20.4675 O   0  0  0  0  0  0  0  0  0  0  0  0
    8.8309  -14.2677   18.8095 C   0  0  0  0  0  0  0  0  0  0  0  0
    8.1712  -13.0787   18.5679 C   0  0  0  0  0  0  0  0  0  0  0  0
   13.2473  -18.9515   17.2201 O   0  0  0  0  0  0  0  0  0  0  0  0
   12.6230  -20.1190   17.6141 C   0  0  0  0  0  0  0  0  0  0  0  0
   11.8510  -19.8362   18.8934 C   0  0  2  0  0  0  0  0  0  0  0  0
   11.0187  -18.6531   18.7267 N   0  0  0  0  0  0  0  0  0  0  0  0
   12.7825  -19.6096   19.9967 C   0  0  0  0  0  0  0  0  0  0  0  0
   13.0134  -18.4048   20.3594 O   0  0  0  0  0  0  0  0  0  0  0  0
   10.4413  -23.2879   25.8967 N   0  0  0  0  0  0  0  0  0  0  0  0
   11.7922  -22.7740   25.7389 C   0  0  0  0  0  0  0  0  0  0  0  0
   12.0816  -21.5975   26.1274 N   0  0  0  0  0  0  0  0  0  0  0  0
   12.7978  -23.5742   25.1573 N   0  0  0  0  0  0  0  0  0  0  0  0
   13.7356  -23.1665   24.1995 C   0  0  0  0  0  0  0  0  0  0  0  0
   13.5350  -21.9327   23.4102 C   0  0  0  0  0  0  0  0  0  0  0  0
   14.7268  -21.5231   22.5899 C   0  0  0  0  0  0  0  0  0  0  0  0
   14.3561  -20.2777   21.8111 C   0  0  2  0  0  0  0  0  0  0  0  0
   13.4729  -20.6182   20.7242 N   0  0  0  0  0  0  0  0  0  0  0  0
   15.5657  -19.5417   21.3421 C   0  0  0  0  0  0  0  0  0  0  0  0
   16.0751  -19.8889   20.2538 O   0  0  0  0  0  0  0  0  0  0  0  0
   16.1521  -18.5052   22.0368 O   0  0  0  0  0  0  0  0  0  0  0  0
  2  1  1  0
  3  2  2  0
  4  3  1  0
  5 11  1  0
  5  4  2  0
  6  5  1  0
  7  6  1  0
  7  8  1  1
  9  7  1  0
  9 10  2  0
 11 12  2  0
 12  2  1  0
 13 14  1  0
 15 14  1  6
 15 16  1  0
 16  9  1  0
 17 15  1  0
 18 17  2  0
 19 20  1  0
 20 22  1  0
 21 20  2  0
 22 23  1  0
 23 24  1  0
 24 25  1  0
 26 25  1  6
 26 28  1  0
 26 27  1  0
 27 17  1  0
 28 30  1  0
 29 28  2  0
M  END
$$$$
