YSR.pdb
     RDKit          3D

 30 30  0  0  1  0  0  0  0  0999 V2000
   13.1690  -25.9715   14.4493 O   0  0  0  0  0  0  0  0  0  0  0  0
   13.2011  -25.0937   15.5147 C   0  0  0  0  0  0  0  0  0  0  0  0
   12.0776  -24.8729   16.3064 C   0  0  0  0  0  0  0  0  0  0  0  0
   12.1183  -23.9951   17.3680 C   0  0  0  0  0  0  0  0  0  0  0  0
   13.3114  -23.3164   17.6513 C   0  0  0  0  0  0  0  0  0  0  0  0
   13.3065  -22.3767   18.7854 C   0  0  0  0  0  0  0  0  0  0  0  0
   12.4195  -21.1917   18.4968 C   0  0  2  0  0  0  0  0  0  0  0  0
   13.1048  -20.4309   17.4522 N   0  0  0  0  0  0  0  0  0  0  0  0
   12.2870  -20.3748   19.7237 C   0  0  0  0  0  0  0  0  0  0  0  0
   13.2724  -19.7640   20.1690 O   0  0  0  0  0  0  0  0  0  0  0  0
   14.4217  -23.5335   16.8697 C   0  0  0  0  0  0  0  0  0  0  0  0
   14.3728  -24.4150   15.8077 C   0  0  0  0  0  0  0  0  0  0  0  0
    8.5996  -20.0075   21.5103 O   0  0  0  0  0  0  0  0  0  0  0  0
    9.4924  -18.9845   21.7636 C   0  0  0  0  0  0  0  0  0  0  0  0
   10.9016  -19.5420   21.6377 C   0  0  2  0  0  0  0  0  0  0  0  0
   11.0384  -20.2854   20.3932 N   0  0  0  0  0  0  0  0  0  0  0  0
   11.1845  -20.4366   22.7585 C   0  0  0  0  0  0  0  0  0  0  0  0
   11.2345  -21.6949   22.5340 O   0  0  0  0  0  0  0  0  0  0  0  0
   17.7251  -24.0652   25.3243 N   0  0  0  0  0  0  0  0  0  0  0  0
   16.9703  -23.3894   24.2815 C   0  0  0  0  0  0  0  0  0  0  0  0
   17.4633  -23.2541   23.1164 N   0  0  0  0  0  0  0  0  0  0  0  0
   15.6822  -22.8798   24.5479 N   0  0  0  0  0  0  0  0  0  0  0  0
   14.9330  -23.0798   25.7149 C   0  0  0  0  0  0  0  0  0  0  0  0
   13.5732  -22.5174   25.8560 C   0  0  0  0  0  0  0  0  0  0  0  0
   13.2361  -21.4545   24.8472 C   0  0  0  0  0  0  0  0  0  0  0  0
   11.8154  -20.9957   25.1045 C   0  0  2  0  0  0  0  0  0  0  0  0
   11.4156  -20.0382   24.1042 N   0  0  0  0  0  0  0  0  0  0  0  0
   11.6512  -20.4636   26.4883 C   0  0  0  0  0  0  0  0  0  0  0  0
   11.4207  -19.2414   26.6205 O   0  0  0  0  0  0  0  0  0  0  0  0
   11.7389  -21.2386   27.6251 O   0  0  0  0  0  0  0  0  0  0  0  0
  2  1  1  0
  3  2  2  0
  4  3  1  0
  5 11  1  0
  5  4  2  0
  6  5  1  0
  7  6  1  0
  7  8  1  6
  9  7  1  0
  9 10  2  0
 11 12  2  0
 12  2  1  0
 13 14  1  0
 15 14  1  1
 15 16  1  0
 16  9  1  0
 17 15  1  0
 18 17  2  0
 19 20  1  0
 20 22  1  0
 21 20  2  0
 22 23  1  0
 23 24  1  0
 24 25  1  0
 26 25  1  6
 26 28  1  0
 26 27  1  0
 27 17  1  0
 28 30  1  0
 29 28  2  0
M  END
$$$$
