YSR.pdb
     RDKit          3D

 30 30  0  0  1  0  0  0  0  0999 V2000
    7.0134  -13.7795   15.1352 O   0  0  0  0  0  0  0  0  0  0  0  0
    7.3158  -14.1214   16.4384 C   0  0  0  0  0  0  0  0  0  0  0  0
    7.1305  -13.2229   17.4854 C   0  0  0  0  0  0  0  0  0  0  0  0
    7.4347  -13.5725   18.7833 C   0  0  0  0  0  0  0  0  0  0  0  0
    7.9382  -14.8533   19.0486 C   0  0  0  0  0  0  0  0  0  0  0  0
    8.2638  -15.1798   20.4474 C   0  0  0  0  0  0  0  0  0  0  0  0
    9.2360  -14.1789   21.0198 C   0  0  2  0  0  0  0  0  0  0  0  0
   10.4461  -14.2945   20.2064 N   0  0  0  0  0  0  0  0  0  0  0  0
    9.5269  -14.5353   22.4264 C   0  0  0  0  0  0  0  0  0  0  0  0
   10.6671  -14.9095   22.7461 O   0  0  0  0  0  0  0  0  0  0  0  0
    8.1219  -15.7415   18.0151 C   0  0  0  0  0  0  0  0  0  0  0  0
    7.8143  -15.3836   16.7171 C   0  0  0  0  0  0  0  0  0  0  0  0
    6.5126  -15.0517   25.1921 O   0  0  0  0  0  0  0  0  0  0  0  0
    7.5880  -14.3284   25.6699 C   0  0  0  0  0  0  0  0  0  0  0  0
    8.8033  -14.6680   24.8213 C   0  0  2  0  0  0  0  0  0  0  0  0
    8.5087  -14.4502   23.4121 N   0  0  0  0  0  0  0  0  0  0  0  0
    9.1719  -16.0686   25.0182 C   0  0  0  0  0  0  0  0  0  0  0  0
    8.3509  -16.9724   24.6367 O   0  0  0  0  0  0  0  0  0  0  0  0
   14.5331  -15.0605   22.6221 N   0  0  0  0  0  0  0  0  0  0  0  0
   13.5972  -15.9977   22.0221 C   0  0  0  0  0  0  0  0  0  0  0  0
   12.8965  -15.6520   21.0180 N   0  0  0  0  0  0  0  0  0  0  0  0
   13.4579  -17.3010   22.5435 N   0  0  0  0  0  0  0  0  0  0  0  0
   13.1759  -17.6395   23.8734 C   0  0  0  0  0  0  0  0  0  0  0  0
   11.9000  -18.2883   24.2430 C   0  0  0  0  0  0  0  0  0  0  0  0
   11.7389  -18.5407   25.7166 C   0  0  0  0  0  0  0  0  0  0  0  0
   10.4659  -17.8586   26.1741 C   0  0  2  0  0  0  0  0  0  0  0  0
   10.3800  -16.5374   25.6045 N   0  0  0  0  0  0  0  0  0  0  0  0
   10.3576  -17.8368   27.6616 C   0  0  0  0  0  0  0  0  0  0  0  0
   10.2853  -16.7227   28.2256 O   0  0  0  0  0  0  0  0  0  0  0  0
   10.3327  -18.9695   28.4470 O   0  0  0  0  0  0  0  0  0  0  0  0
  2  1  1  0
  3  2  2  0
  4  3  1  0
  5 11  1  0
  5  4  2  0
  6  5  1  0
  7  6  1  0
  7  8  1  6
  9  7  1  0
  9 10  2  0
 11 12  2  0
 12  2  1  0
 13 14  1  0
 15 14  1  1
 15 16  1  0
 16  9  1  0
 17 15  1  0
 18 17  2  0
 19 20  1  0
 20 22  1  0
 21 20  2  0
 22 23  1  0
 23 24  1  0
 24 25  1  0
 26 25  1  1
 26 28  1  0
 26 27  1  0
 27 17  1  0
 28 30  1  0
 29 28  2  0
M  END
$$$$
