YSR.pdb
     RDKit          3D

 30 30  0  0  1  0  0  0  0  0999 V2000
    8.1263  -11.2190   26.3631 O   0  0  0  0  0  0  0  0  0  0  0  0
    7.7476  -12.5451   26.2947 C   0  0  0  0  0  0  0  0  0  0  0  0
    8.6593  -13.5722   26.5222 C   0  0  0  0  0  0  0  0  0  0  0  0
    8.2729  -14.8931   26.4520 C   0  0  0  0  0  0  0  0  0  0  0  0
    6.9405  -15.2027   26.1465 C   0  0  0  0  0  0  0  0  0  0  0  0
    6.5742  -16.6270   26.0672 C   0  0  0  0  0  0  0  0  0  0  0  0
    6.0898  -16.9803   24.6833 C   0  0  2  0  0  0  0  0  0  0  0  0
    5.5454  -18.3338   24.7893 N   0  0  0  0  0  0  0  0  0  0  0  0
    7.2368  -16.9601   23.7482 C   0  0  0  0  0  0  0  0  0  0  0  0
    8.1203  -17.8286   23.8348 O   0  0  0  0  0  0  0  0  0  0  0  0
    6.0392  -14.1889   25.9212 C   0  0  0  0  0  0  0  0  0  0  0  0
    6.4344  -12.8675   25.9937 C   0  0  0  0  0  0  0  0  0  0  0  0
    7.8287  -13.7190   21.2941 O   0  0  0  0  0  0  0  0  0  0  0  0
    8.1578  -14.9216   20.6996 C   0  0  0  0  0  0  0  0  0  0  0  0
    8.4317  -15.9357   21.7991 C   0  0  2  0  0  0  0  0  0  0  0  0
    7.3310  -15.9530   22.7521 N   0  0  0  0  0  0  0  0  0  0  0  0
    9.6637  -15.5853   22.5032 C   0  0  0  0  0  0  0  0  0  0  0  0
    9.6776  -14.5190   23.2096 O   0  0  0  0  0  0  0  0  0  0  0  0
    9.7303  -20.4450   26.3373 N   0  0  0  0  0  0  0  0  0  0  0  0
    9.6315  -19.2761   27.1963 C   0  0  0  0  0  0  0  0  0  0  0  0
    8.5931  -19.0867   27.9066 N   0  0  0  0  0  0  0  0  0  0  0  0
   10.6863  -18.3412   27.2549 N   0  0  0  0  0  0  0  0  0  0  0  0
   11.6233  -18.0795   26.2468 C   0  0  0  0  0  0  0  0  0  0  0  0
   11.3586  -17.0690   25.2007 C   0  0  0  0  0  0  0  0  0  0  0  0
   12.4763  -16.8979   24.2095 C   0  0  0  0  0  0  0  0  0  0  0  0
   12.0443  -15.8669   23.1871 C   0  0  2  0  0  0  0  0  0  0  0  0
   10.8759  -16.3291   22.4811 N   0  0  0  0  0  0  0  0  0  0  0  0
   13.1572  -15.5125   22.2592 C   0  0  0  0  0  0  0  0  0  0  0  0
   13.0259  -15.8066   21.0507 O   0  0  0  0  0  0  0  0  0  0  0  0
   14.3174  -14.8822   22.6560 O   0  0  0  0  0  0  0  0  0  0  0  0
  2  1  1  0
  3  2  2  0
  4  3  1  0
  5 11  1  0
  5  4  2  0
  6  5  1  0
  7  6  1  0
  7  8  1  1
  9  7  1  0
  9 10  2  0
 11 12  2  0
 12  2  1  0
 13 14  1  0
 15 14  1  6
 15 16  1  0
 16  9  1  0
 17 15  1  0
 18 17  2  0
 19 20  1  0
 20 22  1  0
 21 20  2  0
 22 23  1  0
 23 24  1  0
 24 25  1  0
 26 25  1  1
 26 28  1  0
 26 27  1  0
 27 17  1  0
 28 30  1  0
 29 28  2  0
M  END
$$$$
