YSR.pdb
     RDKit          3D

 30 30  0  0  1  0  0  0  0  0999 V2000
    7.4233  -11.6154   17.2067 O   0  0  0  0  0  0  0  0  0  0  0  0
    7.7291  -12.6332   18.0882 C   0  0  0  0  0  0  0  0  0  0  0  0
    7.3636  -12.5648   19.4297 C   0  0  0  0  0  0  0  0  0  0  0  0
    7.6727  -13.5853   20.3028 C   0  0  0  0  0  0  0  0  0  0  0  0
    8.3659  -14.7073   19.8286 C   0  0  0  0  0  0  0  0  0  0  0  0
    8.6887  -15.7675   20.7987 C   0  0  0  0  0  0  0  0  0  0  0  0
    8.7302  -17.1164   20.1256 C   0  0  2  0  0  0  0  0  0  0  0  0
    7.3549  -17.3933   19.7114 N   0  0  0  0  0  0  0  0  0  0  0  0
    9.1868  -18.1314   21.1011 C   0  0  0  0  0  0  0  0  0  0  0  0
    8.5668  -18.2883   22.1658 O   0  0  0  0  0  0  0  0  0  0  0  0
    8.7277  -14.7758   18.5037 C   0  0  0  0  0  0  0  0  0  0  0  0
    8.4140  -13.7490   17.6351 C   0  0  0  0  0  0  0  0  0  0  0  0
   12.9085  -19.8016   20.7140 O   0  0  0  0  0  0  0  0  0  0  0  0
   11.9709  -20.6971   21.1904 C   0  0  0  0  0  0  0  0  0  0  0  0
   10.8178  -19.9050   21.7867 C   0  0  2  0  0  0  0  0  0  0  0  0
   10.3295  -18.9271   20.8249 N   0  0  0  0  0  0  0  0  0  0  0  0
   11.2647  -19.2053   22.9898 C   0  0  0  0  0  0  0  0  0  0  0  0
   11.6274  -17.9834   22.8826 O   0  0  0  0  0  0  0  0  0  0  0  0
    9.9346  -13.7364   30.3487 N   0  0  0  0  0  0  0  0  0  0  0  0
    9.6711  -14.2821   29.0271 C   0  0  0  0  0  0  0  0  0  0  0  0
    8.6845  -13.8608   28.3430 N   0  0  0  0  0  0  0  0  0  0  0  0
   10.5074  -15.2813   28.4867 N   0  0  0  0  0  0  0  0  0  0  0  0
   10.2511  -16.0541   27.3465 C   0  0  0  0  0  0  0  0  0  0  0  0
   11.1785  -17.1254   26.9248 C   0  0  0  0  0  0  0  0  0  0  0  0
   10.7407  -17.8739   25.6965 C   0  0  0  0  0  0  0  0  0  0  0  0
   11.7583  -18.9619   25.4212 C   0  0  2  0  0  0  0  0  0  0  0  0
   11.3376  -19.7603   24.2974 N   0  0  0  0  0  0  0  0  0  0  0  0
   12.0181  -19.7916   26.6333 C   0  0  0  0  0  0  0  0  0  0  0  0
   11.6358  -20.9824   26.6188 O   0  0  0  0  0  0  0  0  0  0  0  0
   12.6527  -19.3228   27.7638 O   0  0  0  0  0  0  0  0  0  0  0  0
  2  1  1  0
  3  2  2  0
  4  3  1  0
  5 11  1  0
  5  4  2  0
  6  5  1  0
  7  6  1  0
  7  8  1  1
  9  7  1  0
  9 10  2  0
 11 12  2  0
 12  2  1  0
 13 14  1  0
 15 14  1  6
 15 16  1  0
 16  9  1  0
 17 15  1  0
 18 17  2  0
 19 20  1  0
 20 22  1  0
 21 20  2  0
 22 23  1  0
 23 24  1  0
 24 25  1  0
 26 25  1  1
 26 28  1  0
 26 27  1  0
 27 17  1  0
 28 30  1  0
 29 28  2  0
M  END
$$$$
