KDG.pdb
     RDKit          3D

 22 21  0  0  1  0  0  0  0  0999 V2000
   23.3314  -11.4063  -15.7513 N   0  0  0  0  0  0  0  0  0  0  0  0
   23.5703  -10.4728  -16.8613 C   0  0  1  0  0  0  0  0  0  0  0  0
   23.0495  -11.1329  -18.1066 C   0  0  0  0  0  0  0  0  0  0  0  0
   23.3315  -12.5962  -18.1892 C   0  0  0  0  0  0  0  0  0  0  0  0
   22.7775  -13.2357  -19.4386 C   0  0  0  0  0  0  0  0  0  0  0  0
   23.1026  -14.7021  -19.4420 C   0  0  0  0  0  0  0  0  0  0  0  0
   22.6259  -15.3721  -20.6334 N   0  0  0  0  0  0  0  0  0  0  0  0
   22.7438   -9.2769  -16.5697 C   0  0  0  0  0  0  0  0  0  0  0  0
   22.7089   -8.3437  -17.3991 O   0  0  0  0  0  0  0  0  0  0  0  0
   21.9777   -9.1157  -15.3964 N   0  0  0  0  0  0  0  0  0  0  0  0
   21.1306   -7.9953  -15.2076 C   0  0  1  0  0  0  0  0  0  0  0  0
   19.7248   -8.3100  -14.8186 C   0  0  0  0  0  0  0  0  0  0  0  0
   19.0935   -9.2236  -15.7794 C   0  0  0  0  0  0  0  0  0  0  0  0
   18.9874   -8.9970  -17.0111 O   0  0  0  0  0  0  0  0  0  0  0  0
   21.7346   -7.0281  -14.2558 C   0  0  0  0  0  0  0  0  0  0  0  0
   22.3194   -7.4306  -13.2183 O   0  0  0  0  0  0  0  0  0  0  0  0
   18.5468  -10.4563  -15.3674 O   0  0  0  0  0  0  0  0  0  0  0  0
   21.6716   -5.6297  -14.4859 N   0  0  0  0  0  0  0  0  0  0  0  0
   22.3433   -4.6570  -13.6648 C   0  0  0  0  0  0  0  0  0  0  0  0
   21.9692   -3.2676  -14.0086 C   0  0  0  0  0  0  0  0  0  0  0  0
   22.3633   -2.1485  -13.2920 O   0  0  0  0  0  0  0  0  0  0  0  0
   21.2447   -3.0768  -15.0176 O   0  0  0  0  0  0  0  0  0  0  0  0
  2  8  1  0
  2  1  1  1
  3  2  1  0
  4  3  1  0
  5  4  1  0
  6  7  1  0
  6  5  1  0
  8  9  2  0
 10  8  1  0
 10 11  1  0
 11 12  1  1
 13 17  1  0
 13 12  1  0
 14 13  2  0
 15 18  1  0
 15 11  1  0
 16 15  2  0
 19 18  1  0
 20 19  1  0
 21 20  1  0
 22 20  2  0
M  END
$$$$
