KDG.pdb
     RDKit          3D

 22 21  0  0  1  0  0  0  0  0999 V2000
   17.0064  -12.1267  -17.7696 N   0  0  0  0  0  0  0  0  0  0  0  0
   16.1884  -11.2907  -16.8794 C   0  0  1  0  0  0  0  0  0  0  0  0
   15.9180  -12.1027  -15.6444 C   0  0  0  0  0  0  0  0  0  0  0  0
   14.9805  -13.2449  -15.8541 C   0  0  0  0  0  0  0  0  0  0  0  0
   13.8221  -13.2444  -14.8872 C   0  0  0  0  0  0  0  0  0  0  0  0
   12.8500  -14.3260  -15.2632 C   0  0  0  0  0  0  0  0  0  0  0  0
   11.6354  -14.2764  -14.4773 N   0  0  0  0  0  0  0  0  0  0  0  0
   17.0396  -10.1324  -16.5161 C   0  0  0  0  0  0  0  0  0  0  0  0
   18.2810  -10.2692  -16.5028 O   0  0  0  0  0  0  0  0  0  0  0  0
   16.5350   -8.8595  -16.1773 N   0  0  0  0  0  0  0  0  0  0  0  0
   17.3939   -7.7622  -15.9186 C   0  0  1  0  0  0  0  0  0  0  0  0
   16.7996   -6.4125  -16.1462 C   0  0  0  0  0  0  0  0  0  0  0  0
   17.8048   -5.3519  -16.0016 C   0  0  0  0  0  0  0  0  0  0  0  0
   18.9030   -5.3257  -16.6124 O   0  0  0  0  0  0  0  0  0  0  0  0
   17.9780   -7.8556  -14.5561 C   0  0  0  0  0  0  0  0  0  0  0  0
   17.2933   -8.2863  -13.5938 O   0  0  0  0  0  0  0  0  0  0  0  0
   17.5951   -4.2569  -15.1384 O   0  0  0  0  0  0  0  0  0  0  0  0
   19.3174   -7.4650  -14.2996 N   0  0  0  0  0  0  0  0  0  0  0  0
   19.9502   -7.5899  -13.0129 C   0  0  0  0  0  0  0  0  0  0  0  0
   21.1998   -8.3800  -13.0684 C   0  0  0  0  0  0  0  0  0  0  0  0
   22.0435   -8.5910  -11.9892 O   0  0  0  0  0  0  0  0  0  0  0  0
   21.5287   -8.9004  -14.1641 O   0  0  0  0  0  0  0  0  0  0  0  0
  2  8  1  0
  2  1  1  6
  3  2  1  0
  4  3  1  0
  5  4  1  0
  6  7  1  0
  6  5  1  0
  8  9  2  0
 10  8  1  0
 10 11  1  0
 11 12  1  1
 13 17  1  0
 13 12  1  0
 14 13  2  0
 15 18  1  0
 15 11  1  0
 16 15  2  0
 19 18  1  0
 20 19  1  0
 21 20  1  0
 22 20  2  0
M  END
$$$$
