KDG.pdb
     RDKit          3D

 22 21  0  0  1  0  0  0  0  0999 V2000
   18.3826  -10.5478  -17.5641 N   0  0  0  0  0  0  0  0  0  0  0  0
   18.4207  -10.6866  -16.1013 C   0  0  1  0  0  0  0  0  0  0  0  0
   18.5014  -12.1573  -15.8043 C   0  0  0  0  0  0  0  0  0  0  0  0
   17.3618  -12.9557  -16.3443 C   0  0  0  0  0  0  0  0  0  0  0  0
   17.4435  -14.4195  -15.9871 C   0  0  0  0  0  0  0  0  0  0  0  0
   16.3603  -14.7607  -15.0041 C   0  0  0  0  0  0  0  0  0  0  0  0
   16.7570  -15.8049  -14.0835 N   0  0  0  0  0  0  0  0  0  0  0  0
   19.6811  -10.0385  -15.6655 C   0  0  0  0  0  0  0  0  0  0  0  0
   20.0003  -10.0773  -14.4587 O   0  0  0  0  0  0  0  0  0  0  0  0
   20.5637   -9.3670  -16.5370 N   0  0  0  0  0  0  0  0  0  0  0  0
   21.7666   -8.7793  -16.0719 C   0  0  1  0  0  0  0  0  0  0  0  0
   22.9346   -8.8889  -16.9939 C   0  0  0  0  0  0  0  0  0  0  0  0
   24.1676   -8.4076  -16.3581 C   0  0  0  0  0  0  0  0  0  0  0  0
   24.2302   -7.9378  -15.1940 O   0  0  0  0  0  0  0  0  0  0  0  0
   21.5458   -7.3665  -15.6700 C   0  0  0  0  0  0  0  0  0  0  0  0
   21.0567   -6.5390  -16.4803 O   0  0  0  0  0  0  0  0  0  0  0  0
   25.4034   -8.4430  -17.0362 O   0  0  0  0  0  0  0  0  0  0  0  0
   21.8771   -6.9095  -14.3685 N   0  0  0  0  0  0  0  0  0  0  0  0
   21.5729   -5.5874  -13.8879 C   0  0  0  0  0  0  0  0  0  0  0  0
   22.4273   -4.5484  -14.5036 C   0  0  0  0  0  0  0  0  0  0  0  0
   22.3750   -3.2001  -14.1866 O   0  0  0  0  0  0  0  0  0  0  0  0
   23.2614   -4.9009  -15.3751 O   0  0  0  0  0  0  0  0  0  0  0  0
  2  8  1  0
  2  1  1  6
  3  2  1  0
  4  3  1  0
  5  4  1  0
  6  7  1  0
  6  5  1  0
  8  9  2  0
 10  8  1  0
 10 11  1  0
 11 12  1  6
 13 17  1  0
 13 12  1  0
 14 13  2  0
 15 18  1  0
 15 11  1  0
 16 15  2  0
 19 18  1  0
 20 19  1  0
 21 20  1  0
 22 20  2  0
M  END
$$$$
