KDG.pdb
     RDKit          3D

 22 21  0  0  1  0  0  0  0  0999 V2000
   20.4260  -21.5775  -14.0449 N   0  0  0  0  0  0  0  0  0  0  0  0
   19.4902  -20.9978  -15.0190 C   0  0  1  0  0  0  0  0  0  0  0  0
   18.1353  -20.9873  -14.3696 C   0  0  0  0  0  0  0  0  0  0  0  0
   17.6722  -22.3242  -13.8943 C   0  0  0  0  0  0  0  0  0  0  0  0
   16.8478  -23.0634  -14.9193 C   0  0  0  0  0  0  0  0  0  0  0  0
   16.4626  -24.4115  -14.3806 C   0  0  0  0  0  0  0  0  0  0  0  0
   15.7557  -25.2156  -15.3548 N   0  0  0  0  0  0  0  0  0  0  0  0
   19.9353  -19.5986  -15.2251 C   0  0  0  0  0  0  0  0  0  0  0  0
   19.3213  -18.6737  -14.6528 O   0  0  0  0  0  0  0  0  0  0  0  0
   21.0267  -19.2310  -16.0395 N   0  0  0  0  0  0  0  0  0  0  0  0
   21.4043  -17.8760  -16.2123 C   0  0  1  0  0  0  0  0  0  0  0  0
   22.7749  -17.6549  -16.7593 C   0  0  0  0  0  0  0  0  0  0  0  0
   23.8040  -18.2049  -15.8680 C   0  0  0  0  0  0  0  0  0  0  0  0
   23.6208  -18.4794  -14.6552 O   0  0  0  0  0  0  0  0  0  0  0  0
   20.3936  -17.1421  -17.0160 C   0  0  0  0  0  0  0  0  0  0  0  0
   20.0076  -17.5915  -18.1249 O   0  0  0  0  0  0  0  0  0  0  0  0
   25.1091  -18.4696  -16.3316 O   0  0  0  0  0  0  0  0  0  0  0  0
   19.8354  -15.9198  -16.5611 N   0  0  0  0  0  0  0  0  0  0  0  0
   18.8324  -15.1845  -17.2855 C   0  0  0  0  0  0  0  0  0  0  0  0
   17.4580  -15.6199  -16.9535 C   0  0  0  0  0  0  0  0  0  0  0  0
   16.7781  -16.6370  -17.6051 O   0  0  0  0  0  0  0  0  0  0  0  0
   16.8560  -15.0346  -16.0185 O   0  0  0  0  0  0  0  0  0  0  0  0
  2  8  1  0
  2  1  1  1
  3  2  1  0
  4  3  1  0
  5  4  1  0
  6  7  1  0
  6  5  1  0
  8  9  2  0
 10  8  1  0
 10 11  1  0
 11 12  1  6
 13 17  1  0
 13 12  1  0
 14 13  2  0
 15 18  1  0
 15 11  1  0
 16 15  2  0
 19 18  1  0
 20 19  1  0
 21 20  1  0
 22 20  2  0
M  END
$$$$
