KDG.pdb
     RDKit          3D

 22 21  0  0  1  0  0  0  0  0999 V2000
   21.4309  -20.7197  -13.2166 N   0  0  0  0  0  0  0  0  0  0  0  0
   20.7502  -20.2933  -14.4475 C   0  0  1  0  0  0  0  0  0  0  0  0
   19.2840  -20.5549  -14.2485 C   0  0  0  0  0  0  0  0  0  0  0  0
   18.8621  -21.9521  -14.5605 C   0  0  0  0  0  0  0  0  0  0  0  0
   18.5602  -22.7681  -13.3277 C   0  0  0  0  0  0  0  0  0  0  0  0
   18.1624  -24.1600  -13.7283 C   0  0  0  0  0  0  0  0  0  0  0  0
   17.8486  -24.9956  -12.5888 N   0  0  0  0  0  0  0  0  0  0  0  0
   20.9683  -18.8300  -14.5451 C   0  0  0  0  0  0  0  0  0  0  0  0
   21.1027  -18.1631  -13.4976 O   0  0  0  0  0  0  0  0  0  0  0  0
   21.0363  -18.1232  -15.7638 N   0  0  0  0  0  0  0  0  0  0  0  0
   21.2655  -16.7252  -15.8026 C   0  0  1  0  0  0  0  0  0  0  0  0
   21.9939  -16.2258  -17.0054 C   0  0  0  0  0  0  0  0  0  0  0  0
   22.2659  -14.7860  -16.9091 C   0  0  0  0  0  0  0  0  0  0  0  0
   21.8245  -14.0387  -16.0000 O   0  0  0  0  0  0  0  0  0  0  0  0
   19.9989  -15.9744  -15.6067 C   0  0  0  0  0  0  0  0  0  0  0  0
   19.0011  -16.1997  -16.3375 O   0  0  0  0  0  0  0  0  0  0  0  0
   23.0676  -14.1267  -17.8634 O   0  0  0  0  0  0  0  0  0  0  0  0
   19.8757  -14.9868  -14.5957 N   0  0  0  0  0  0  0  0  0  0  0  0
   18.6391  -14.3220  -14.2792 C   0  0  0  0  0  0  0  0  0  0  0  0
   18.4574  -13.0669  -15.0411 C   0  0  0  0  0  0  0  0  0  0  0  0
   19.3273  -12.6091  -16.0182 O   0  0  0  0  0  0  0  0  0  0  0  0
   17.4486  -12.3594  -14.7938 O   0  0  0  0  0  0  0  0  0  0  0  0
  2  8  1  0
  2  1  1  1
  3  2  1  0
  4  3  1  0
  5  4  1  0
  6  7  1  0
  6  5  1  0
  8  9  2  0
 10  8  1  0
 10 11  1  0
 11 12  1  6
 13 17  1  0
 13 12  1  0
 14 13  2  0
 15 18  1  0
 15 11  1  0
 16 15  2  0
 19 18  1  0
 20 19  1  0
 21 20  1  0
 22 20  2  0
M  END
$$$$
