KDG.pdb
     RDKit          3D

 22 21  0  0  1  0  0  0  0  0999 V2000
   18.8446  -11.2345  -14.8693 N   0  0  0  0  0  0  0  0  0  0  0  0
   19.5495  -10.3474  -15.8057 C   0  0  1  0  0  0  0  0  0  0  0  0
   18.6181  -10.1013  -16.9588 C   0  0  0  0  0  0  0  0  0  0  0  0
   18.6291  -11.1742  -17.9963 C   0  0  0  0  0  0  0  0  0  0  0  0
   17.7240  -10.8751  -19.1660 C   0  0  0  0  0  0  0  0  0  0  0  0
   17.8461  -11.9664  -20.1908 C   0  0  0  0  0  0  0  0  0  0  0  0
   16.9574  -11.7706  -21.3165 N   0  0  0  0  0  0  0  0  0  0  0  0
   19.7592   -9.0734  -15.0768 C   0  0  0  0  0  0  0  0  0  0  0  0
   19.0266   -8.8014  -14.1026 O   0  0  0  0  0  0  0  0  0  0  0  0
   20.7491   -8.1268  -15.4139 N   0  0  0  0  0  0  0  0  0  0  0  0
   20.8712   -6.8972  -14.7198 C   0  0  1  0  0  0  0  0  0  0  0  0
   22.2242   -6.6047  -14.1626 C   0  0  0  0  0  0  0  0  0  0  0  0
   22.2137   -5.3907  -13.3365 C   0  0  0  0  0  0  0  0  0  0  0  0
   22.6455   -4.2717  -13.7123 O   0  0  0  0  0  0  0  0  0  0  0  0
   20.3920   -5.7666  -15.5555 C   0  0  0  0  0  0  0  0  0  0  0  0
   20.9846   -5.4618  -16.6215 O   0  0  0  0  0  0  0  0  0  0  0  0
   21.7006   -5.4030  -12.0231 O   0  0  0  0  0  0  0  0  0  0  0  0
   19.2584   -5.0007  -15.1802 N   0  0  0  0  0  0  0  0  0  0  0  0
   18.7783   -3.8699  -15.9299 C   0  0  0  0  0  0  0  0  0  0  0  0
   19.2946   -2.5839  -15.4118 C   0  0  0  0  0  0  0  0  0  0  0  0
   20.5295   -2.0455  -15.7378 O   0  0  0  0  0  0  0  0  0  0  0  0
   18.5725   -1.9259  -14.6212 O   0  0  0  0  0  0  0  0  0  0  0  0
  2  8  1  0
  2  1  1  1
  3  2  1  0
  4  3  1  0
  5  4  1  0
  6  7  1  0
  6  5  1  0
  8  9  2  0
 10  8  1  0
 10 11  1  0
 11 12  1  6
 13 17  1  0
 13 12  1  0
 14 13  2  0
 15 18  1  0
 15 11  1  0
 16 15  2  0
 19 18  1  0
 20 19  1  0
 21 20  1  0
 22 20  2  0
M  END
$$$$
