KDG.pdb
     RDKit          3D

 22 21  0  0  1  0  0  0  0  0999 V2000
   25.8340  -20.0913   -8.3053 N   0  0  0  0  0  0  0  0  0  0  0  0
   24.9616  -20.8175   -9.2392 C   0  0  1  0  0  0  0  0  0  0  0  0
   23.5575  -20.3508   -8.9775 C   0  0  0  0  0  0  0  0  0  0  0  0
   22.5517  -21.4501   -8.8906 C   0  0  0  0  0  0  0  0  0  0  0  0
   21.7083  -21.3827   -7.6412 C   0  0  0  0  0  0  0  0  0  0  0  0
   20.7480  -22.5374   -7.6173 C   0  0  0  0  0  0  0  0  0  0  0  0
   19.9723  -22.5871   -6.3962 N   0  0  0  0  0  0  0  0  0  0  0  0
   25.3682  -20.3805  -10.5964 C   0  0  0  0  0  0  0  0  0  0  0  0
   25.8160  -19.2255  -10.7557 O   0  0  0  0  0  0  0  0  0  0  0  0
   25.2828  -21.1950  -11.7448 N   0  0  0  0  0  0  0  0  0  0  0  0
   25.6960  -20.7322  -13.0190 C   0  0  1  0  0  0  0  0  0  0  0  0
   26.8687  -21.4396  -13.6112 C   0  0  0  0  0  0  0  0  0  0  0  0
   27.2143  -20.8949  -14.9304 C   0  0  0  0  0  0  0  0  0  0  0  0
   27.2796  -19.6686  -15.1979 O   0  0  0  0  0  0  0  0  0  0  0  0
   24.5568  -20.7154  -13.9722 C   0  0  0  0  0  0  0  0  0  0  0  0
   23.8800  -21.7542  -14.1799 O   0  0  0  0  0  0  0  0  0  0  0  0
   27.5051  -21.7422  -16.0193 O   0  0  0  0  0  0  0  0  0  0  0  0
   24.1989  -19.5350  -14.6729 N   0  0  0  0  0  0  0  0  0  0  0  0
   23.0049  -19.4121  -15.4671 C   0  0  0  0  0  0  0  0  0  0  0  0
   23.1870  -19.9111  -16.8479 C   0  0  0  0  0  0  0  0  0  0  0  0
   22.3965  -19.5440  -17.9256 O   0  0  0  0  0  0  0  0  0  0  0  0
   24.1192  -20.7240  -17.0707 O   0  0  0  0  0  0  0  0  0  0  0  0
  2  8  1  0
  2  1  1  1
  3  2  1  0
  4  3  1  0
  5  4  1  0
  6  7  1  0
  6  5  1  0
  8  9  2  0
 10  8  1  0
 10 11  1  0
 11 12  1  6
 13 17  1  0
 13 12  1  0
 14 13  2  0
 15 18  1  0
 15 11  1  0
 16 15  2  0
 19 18  1  0
 20 19  1  0
 21 20  1  0
 22 20  2  0
M  END
$$$$
