KDG.pdb
     RDKit          3D

 22 21  0  0  1  0  0  0  0  0999 V2000
   17.6159  -12.1136  -17.3116 N   0  0  0  0  0  0  0  0  0  0  0  0
   18.9724  -11.8550  -16.8079 C   0  0  1  0  0  0  0  0  0  0  0  0
   19.9152  -12.0854  -17.9549 C   0  0  0  0  0  0  0  0  0  0  0  0
   20.0283  -13.5118  -18.3793 C   0  0  0  0  0  0  0  0  0  0  0  0
   20.2995  -14.4512  -17.2300 C   0  0  0  0  0  0  0  0  0  0  0  0
   20.3161  -15.8679  -17.7288 C   0  0  0  0  0  0  0  0  0  0  0  0
   20.6551  -16.8168  -16.6896 N   0  0  0  0  0  0  0  0  0  0  0  0
   19.0018  -10.4184  -16.4426 C   0  0  0  0  0  0  0  0  0  0  0  0
   19.4927   -9.5961  -17.2444 O   0  0  0  0  0  0  0  0  0  0  0  0
   18.5038   -9.9042  -15.2273 N   0  0  0  0  0  0  0  0  0  0  0  0
   18.5177   -8.5156  -14.9443 C   0  0  1  0  0  0  0  0  0  0  0  0
   17.2177   -7.9378  -14.4938 C   0  0  0  0  0  0  0  0  0  0  0  0
   16.1163   -8.3400  -15.3777 C   0  0  0  0  0  0  0  0  0  0  0  0
   16.0315   -8.0312  -16.5931 O   0  0  0  0  0  0  0  0  0  0  0  0
   19.6014   -8.1805  -13.9854 C   0  0  0  0  0  0  0  0  0  0  0  0
   19.8030   -8.8954  -12.9711 O   0  0  0  0  0  0  0  0  0  0  0  0
   15.0459   -9.1257  -14.9031 O   0  0  0  0  0  0  0  0  0  0  0  0
   20.4376   -7.0516  -14.1825 N   0  0  0  0  0  0  0  0  0  0  0  0
   21.5338   -6.7119  -13.3139 C   0  0  0  0  0  0  0  0  0  0  0  0
   22.2128   -5.4613  -13.7184 C   0  0  0  0  0  0  0  0  0  0  0  0
   23.2123   -4.8390  -12.9869 O   0  0  0  0  0  0  0  0  0  0  0  0
   21.8680   -4.9170  -14.7973 O   0  0  0  0  0  0  0  0  0  0  0  0
  2  8  1  0
  2  1  1  6
  3  2  1  0
  4  3  1  0
  5  4  1  0
  6  7  1  0
  6  5  1  0
  8  9  2  0
 10  8  1  0
 10 11  1  0
 11 12  1  1
 13 17  1  0
 13 12  1  0
 14 13  2  0
 15 18  1  0
 15 11  1  0
 16 15  2  0
 19 18  1  0
 20 19  1  0
 21 20  1  0
 22 20  2  0
M  END
$$$$
