KDG.pdb
     RDKit          3D

 22 21  0  0  1  0  0  0  0  0999 V2000
   24.9020  -19.8676  -15.6508 N   0  0  0  0  0  0  0  0  0  0  0  0
   23.4595  -19.9433  -15.3786 C   0  0  1  0  0  0  0  0  0  0  0  0
   23.2979  -19.9683  -13.8849 C   0  0  0  0  0  0  0  0  0  0  0  0
   23.1397  -21.3356  -13.3076 C   0  0  0  0  0  0  0  0  0  0  0  0
   24.3382  -22.2207  -13.5463 C   0  0  0  0  0  0  0  0  0  0  0  0
   24.0124  -23.6310  -13.1451 C   0  0  0  0  0  0  0  0  0  0  0  0
   25.0909  -24.5521  -13.4345 N   0  0  0  0  0  0  0  0  0  0  0  0
   22.8815  -18.6829  -15.9035 C   0  0  0  0  0  0  0  0  0  0  0  0
   23.5050  -17.6130  -15.7412 O   0  0  0  0  0  0  0  0  0  0  0  0
   21.6505  -18.6059  -16.5878 N   0  0  0  0  0  0  0  0  0  0  0  0
   21.2293  -17.4158  -17.2319 C   0  0  1  0  0  0  0  0  0  0  0  0
   20.6673  -17.5907  -18.6031 C   0  0  0  0  0  0  0  0  0  0  0  0
   21.6996  -18.0179  -19.5561 C   0  0  0  0  0  0  0  0  0  0  0  0
   21.5960  -19.0128  -20.3171 O   0  0  0  0  0  0  0  0  0  0  0  0
   20.2888  -16.6520  -16.3726 C   0  0  0  0  0  0  0  0  0  0  0  0
   19.4649  -17.2502  -15.6353 O   0  0  0  0  0  0  0  0  0  0  0  0
   22.9153  -17.3150  -19.6828 O   0  0  0  0  0  0  0  0  0  0  0  0
   20.2907  -15.2334  -16.3566 N   0  0  0  0  0  0  0  0  0  0  0  0
   19.4495  -14.4462  -15.4940 C   0  0  0  0  0  0  0  0  0  0  0  0
   18.0147  -14.5681  -15.8338 C   0  0  0  0  0  0  0  0  0  0  0  0
   16.9825  -14.0203  -15.0885 O   0  0  0  0  0  0  0  0  0  0  0  0
   17.6986  -15.2101  -16.8669 O   0  0  0  0  0  0  0  0  0  0  0  0
  2  8  1  0
  2  1  1  1
  3  2  1  0
  4  3  1  0
  5  4  1  0
  6  7  1  0
  6  5  1  0
  8  9  2  0
 10  8  1  0
 10 11  1  0
 11 12  1  6
 13 17  1  0
 13 12  1  0
 14 13  2  0
 15 18  1  0
 15 11  1  0
 16 15  2  0
 19 18  1  0
 20 19  1  0
 21 20  1  0
 22 20  2  0
M  END
$$$$
