GST.pdb
     RDKit          3D

 18 17  0  0  1  0  0  0  0  0999 V2000
    8.2032  -12.9504   17.9879 N   0  0  0  0  0  0  0  0  0  0  0  0
    8.8602  -13.7096   19.0178 C   0  0  0  0  0  0  0  0  0  0  0  0
    8.0053  -13.7661   20.2513 C   0  0  0  0  0  0  0  0  0  0  0  0
    7.0572  -12.9747   20.4116 O   0  0  0  0  0  0  0  0  0  0  0  0
    7.9952  -17.2531   22.6690 O   0  0  0  0  0  0  0  0  0  0  0  0
    6.9359  -16.3771   22.5421 C   0  0  0  0  0  0  0  0  0  0  0  0
    7.3591  -14.9506   22.3669 C   0  0  2  0  0  0  0  0  0  0  0  0
    8.2405  -14.7171   21.2787 N   0  0  0  0  0  0  0  0  0  0  0  0
    8.0083  -14.5239   23.6488 C   0  0  0  0  0  0  0  0  0  0  0  0
    9.2619  -14.4736   23.7592 O   0  0  0  0  0  0  0  0  0  0  0  0
    6.7426  -11.4790   26.1051 C   0  0  0  0  0  0  0  0  0  0  0  0
    6.8898  -12.8219   26.7845 C   0  0  1  0  0  0  0  0  0  0  0  0
    5.6359  -13.4298   26.7822 O   0  0  0  0  0  0  0  0  0  0  0  0
    7.8816  -13.7061   26.0352 C   0  0  2  0  0  0  0  0  0  0  0  0
    7.2455  -14.1594   24.7896 N   0  0  0  0  0  0  0  0  0  0  0  0
    8.2926  -14.8656   26.8364 C   0  0  0  0  0  0  0  0  0  0  0  0
    7.9799  -16.0566   26.5244 O   0  0  0  0  0  0  0  0  0  0  0  0
    9.0490  -14.6509   27.9738 O   0  0  0  0  0  0  0  0  0  0  0  0
  2  1  1  0
  3  2  1  0
  4  3  2  0
  5  6  1  0
  7  6  1  1
  7  9  1  0
  7  8  1  0
  8  3  1  0
  9 15  1  0
 10  9  2  0
 12 11  1  6
 12 13  1  0
 14 12  1  0
 14 16  1  0
 14 15  1  6
 16 17  2  0
 16 18  1  0
M  END
$$$$
