GST.pdb
     RDKit          3D

 18 17  0  0  1  0  0  0  0  0999 V2000
    8.6117  -12.5465   18.3027 N   0  0  0  0  0  0  0  0  0  0  0  0
    8.7486  -13.8311   18.9349 C   0  0  0  0  0  0  0  0  0  0  0  0
    7.9070  -13.8946   20.1771 C   0  0  0  0  0  0  0  0  0  0  0  0
    7.4067  -12.8644   20.6664 O   0  0  0  0  0  0  0  0  0  0  0  0
    7.3279  -17.5556   22.4769 O   0  0  0  0  0  0  0  0  0  0  0  0
    6.3237  -16.6332   22.2610 C   0  0  0  0  0  0  0  0  0  0  0  0
    6.8321  -15.2491   21.9953 C   0  0  2  0  0  0  0  0  0  0  0  0
    7.6483  -15.1226   20.8406 N   0  0  0  0  0  0  0  0  0  0  0  0
    7.5986  -14.8216   23.2104 C   0  0  0  0  0  0  0  0  0  0  0  0
    8.8542  -14.7242   23.1880 O   0  0  0  0  0  0  0  0  0  0  0  0
    7.4670  -12.5071   27.5924 C   0  0  0  0  0  0  0  0  0  0  0  0
    6.7335  -13.1774   26.4527 C   0  0  1  0  0  0  0  0  0  0  0  0
    6.1668  -12.1713   25.6727 O   0  0  0  0  0  0  0  0  0  0  0  0
    7.6911  -14.0010   25.5974 C   0  0  2  0  0  0  0  0  0  0  0  0
    6.9496  -14.5090   24.4339 N   0  0  0  0  0  0  0  0  0  0  0  0
    8.2684  -15.1218   26.3496 C   0  0  0  0  0  0  0  0  0  0  0  0
    7.7700  -16.2901   26.3240 O   0  0  0  0  0  0  0  0  0  0  0  0
    9.3977  -14.8953   27.1145 O   0  0  0  0  0  0  0  0  0  0  0  0
  2  1  1  0
  3  2  1  0
  4  3  2  0
  5  6  1  0
  7  6  1  1
  7  9  1  0
  7  8  1  0
  8  3  1  0
  9 15  1  0
 10  9  2  0
 12 11  1  1
 12 13  1  0
 14 12  1  0
 14 16  1  0
 14 15  1  6
 16 17  2  0
 16 18  1  0
M  END
$$$$
