GST.pdb
     RDKit          3D

 18 17  0  0  1  0  0  0  0  0999 V2000
   -3.8819  -23.9466   25.8304 N   0  0  0  0  0  0  0  0  0  0  0  0
   -3.5872  -23.2304   27.0424 C   0  0  0  0  0  0  0  0  0  0  0  0
   -4.5823  -23.5807   28.1115 C   0  0  0  0  0  0  0  0  0  0  0  0
   -5.1890  -24.6681   28.0917 O   0  0  0  0  0  0  0  0  0  0  0  0
   -5.4353  -20.9106   31.4191 O   0  0  0  0  0  0  0  0  0  0  0  0
   -5.3736  -22.2830   31.5546 C   0  0  0  0  0  0  0  0  0  0  0  0
   -5.6928  -23.0222   30.2911 C   0  0  2  0  0  0  0  0  0  0  0  0
   -4.8707  -22.6934   29.1814 N   0  0  0  0  0  0  0  0  0  0  0  0
   -7.1275  -22.7361   29.9648 C   0  0  0  0  0  0  0  0  0  0  0  0
   -7.4682  -21.6536   29.4184 O   0  0  0  0  0  0  0  0  0  0  0  0
   -9.6474  -25.5945   28.6448 C   0  0  0  0  0  0  0  0  0  0  0  0
  -10.2673  -24.7597   29.7427 C   0  0  1  0  0  0  0  0  0  0  0  0
  -10.1303  -25.4699   30.9339 O   0  0  0  0  0  0  0  0  0  0  0  0
   -9.5585  -23.4151   29.8715 C   0  0  2  0  0  0  0  0  0  0  0  0
   -8.1613  -23.6653   30.2545 N   0  0  0  0  0  0  0  0  0  0  0  0
  -10.2027  -22.5520   30.8692 C   0  0  0  0  0  0  0  0  0  0  0  0
   -9.6626  -22.2785   31.9860 O   0  0  0  0  0  0  0  0  0  0  0  0
  -11.4446  -22.0173   30.5803 O   0  0  0  0  0  0  0  0  0  0  0  0
  2  1  1  0
  3  2  1  0
  4  3  2  0
  5  6  1  0
  7  6  1  1
  7  9  1  0
  7  8  1  0
  8  3  1  0
  9 15  1  0
 10  9  2  0
 12 11  1  6
 12 13  1  0
 14 12  1  0
 14 16  1  0
 14 15  1  1
 16 17  2  0
 16 18  1  0
M  END
$$$$
