GST.pdb
     RDKit          3D

 18 17  0  0  1  0  0  0  0  0999 V2000
    7.1562  -16.3707   18.0565 N   0  0  0  0  0  0  0  0  0  0  0  0
    6.6382  -16.0887   19.3683 C   0  0  0  0  0  0  0  0  0  0  0  0
    7.7496  -15.6809   20.2925 C   0  0  0  0  0  0  0  0  0  0  0  0
    8.9334  -15.6689   19.9061 O   0  0  0  0  0  0  0  0  0  0  0  0
    6.9528  -14.5869   24.3623 O   0  0  0  0  0  0  0  0  0  0  0  0
    7.9812  -13.9873   23.6631 C   0  0  0  0  0  0  0  0  0  0  0  0
    8.4952  -14.8192   22.5281 C   0  0  2  0  0  0  0  0  0  0  0  0
    7.4990  -15.2948   21.6353 N   0  0  0  0  0  0  0  0  0  0  0  0
    9.2339  -15.9761   23.1302 C   0  0  0  0  0  0  0  0  0  0  0  0
    8.6667  -17.0848   23.3183 O   0  0  0  0  0  0  0  0  0  0  0  0
   13.6657  -18.0352   23.9583 C   0  0  0  0  0  0  0  0  0  0  0  0
   12.8171  -16.8604   23.5269 C   0  0  1  0  0  0  0  0  0  0  0  0
   12.8807  -16.7886   22.1366 O   0  0  0  0  0  0  0  0  0  0  0  0
   11.3659  -17.0487   23.9574 C   0  0  2  0  0  0  0  0  0  0  0  0
   10.5975  -15.8765   23.5135 N   0  0  0  0  0  0  0  0  0  0  0  0
   11.2439  -17.2039   25.4121 C   0  0  0  0  0  0  0  0  0  0  0  0
   11.0339  -16.2205   26.1885 O   0  0  0  0  0  0  0  0  0  0  0  0
   11.3623  -18.4695   25.9561 O   0  0  0  0  0  0  0  0  0  0  0  0
  2  1  1  0
  3  2  1  0
  4  3  2  0
  5  6  1  0
  7  6  1  1
  7  9  1  0
  7  8  1  0
  8  3  1  0
  9 15  1  0
 10  9  2  0
 12 11  1  6
 12 13  1  0
 14 12  1  0
 14 16  1  0
 14 15  1  1
 16 17  2  0
 16 18  1  0
M  END
$$$$
