GST.pdb
     RDKit          3D

 18 17  0  0  1  0  0  0  0  0999 V2000
    8.7801  -14.8034   13.9041 N   0  0  0  0  0  0  0  0  0  0  0  0
    8.0688  -14.8487   15.1533 C   0  0  0  0  0  0  0  0  0  0  0  0
    8.9237  -14.3041   16.2616 C   0  0  0  0  0  0  0  0  0  0  0  0
   10.1383  -14.0901   16.0888 O   0  0  0  0  0  0  0  0  0  0  0  0
    7.3832  -13.9050   20.2403 O   0  0  0  0  0  0  0  0  0  0  0  0
    8.3618  -13.0360   19.8012 C   0  0  0  0  0  0  0  0  0  0  0  0
    9.1581  -13.5675   18.6487 C   0  0  2  0  0  0  0  0  0  0  0  0
    8.3870  -14.0128   17.5430 N   0  0  0  0  0  0  0  0  0  0  0  0
    9.9934  -14.6955   19.1746 C   0  0  0  0  0  0  0  0  0  0  0  0
    9.5825  -15.8853   19.1327 O   0  0  0  0  0  0  0  0  0  0  0  0
   13.5661  -15.3205   18.2294 C   0  0  0  0  0  0  0  0  0  0  0  0
   13.5291  -15.3845   19.7397 C   0  0  1  0  0  0  0  0  0  0  0  0
   14.0221  -14.1730   20.2203 O   0  0  0  0  0  0  0  0  0  0  0  0
   12.1028  -15.5847   20.2421 C   0  0  2  0  0  0  0  0  0  0  0  0
   11.2773  -14.4765   19.7402 N   0  0  0  0  0  0  0  0  0  0  0  0
   12.0417  -15.6284   21.7083 C   0  0  0  0  0  0  0  0  0  0  0  0
   11.4337  -14.7478   22.3929 O   0  0  0  0  0  0  0  0  0  0  0  0
   12.6706  -16.6685   22.3674 O   0  0  0  0  0  0  0  0  0  0  0  0
  2  1  1  0
  3  2  1  0
  4  3  2  0
  5  6  1  0
  7  6  1  1
  7  9  1  0
  7  8  1  0
  8  3  1  0
  9 15  1  0
 10  9  2  0
 12 11  1  6
 12 13  1  0
 14 12  1  0
 14 16  1  0
 14 15  1  1
 16 17  2  0
 16 18  1  0
M  END
$$$$
