GST.pdb
     RDKit          3D

 18 17  0  0  1  0  0  0  0  0999 V2000
    1.0278  -19.7468   21.5210 N   0  0  0  0  0  0  0  0  0  0  0  0
    1.9561  -18.7083   21.8792 C   0  0  0  0  0  0  0  0  0  0  0  0
    3.3266  -19.2838   22.0943 C   0  0  0  0  0  0  0  0  0  0  0  0
    3.5246  -20.5115   22.0275 O   0  0  0  0  0  0  0  0  0  0  0  0
    6.7161  -16.8885   21.7219 O   0  0  0  0  0  0  0  0  0  0  0  0
    6.8028  -18.2661   21.7028 C   0  0  0  0  0  0  0  0  0  0  0  0
    5.7696  -18.9407   22.5526 C   0  0  2  0  0  0  0  0  0  0  0  0
    4.4454  -18.4584   22.3808 N   0  0  0  0  0  0  0  0  0  0  0  0
    6.1934  -18.7681   23.9800 C   0  0  0  0  0  0  0  0  0  0  0  0
    5.7084  -17.8538   24.6978 O   0  0  0  0  0  0  0  0  0  0  0  0
    7.9837  -20.6302   28.1290 C   0  0  0  0  0  0  0  0  0  0  0  0
    7.5746  -20.7726   26.6802 C   0  0  1  0  0  0  0  0  0  0  0  0
    6.2752  -21.2757   26.6616 O   0  0  0  0  0  0  0  0  0  0  0  0
    7.6043  -19.4229   25.9701 C   0  0  2  0  0  0  0  0  0  0  0  0
    7.1542  -19.6210   24.5845 N   0  0  0  0  0  0  0  0  0  0  0  0
    8.9477  -18.8310   25.9787 C   0  0  0  0  0  0  0  0  0  0  0  0
    9.8285  -19.1240   25.1114 O   0  0  0  0  0  0  0  0  0  0  0  0
    9.2645  -17.9202   26.9695 O   0  0  0  0  0  0  0  0  0  0  0  0
  2  1  1  0
  3  2  1  0
  4  3  2  0
  5  6  1  0
  7  6  1  6
  7  9  1  0
  7  8  1  0
  8  3  1  0
  9 15  1  0
 10  9  2  0
 12 11  1  1
 12 13  1  0
 14 12  1  0
 14 16  1  0
 14 15  1  6
 16 17  2  0
 16 18  1  0
M  END
$$$$
