GST.pdb
     RDKit          3D

 18 17  0  0  1  0  0  0  0  0999 V2000
    7.1161  -15.8155   18.9494 N   0  0  0  0  0  0  0  0  0  0  0  0
    6.5175  -15.4757   20.2122 C   0  0  0  0  0  0  0  0  0  0  0  0
    7.5792  -15.1457   21.2220 C   0  0  0  0  0  0  0  0  0  0  0  0
    8.7876  -15.2253   20.9315 O   0  0  0  0  0  0  0  0  0  0  0  0
    6.5501  -14.0040   25.2381 O   0  0  0  0  0  0  0  0  0  0  0  0
    7.7441  -13.6055   24.6712 C   0  0  0  0  0  0  0  0  0  0  0  0
    8.2077  -14.5028   23.5645 C   0  0  2  0  0  0  0  0  0  0  0  0
    7.2522  -14.7323   22.5400 N   0  0  0  0  0  0  0  0  0  0  0  0
    8.6052  -15.8049   24.1915 C   0  0  0  0  0  0  0  0  0  0  0  0
    7.7538  -16.7041   24.4216 O   0  0  0  0  0  0  0  0  0  0  0  0
   11.3318  -17.9719   22.8285 C   0  0  0  0  0  0  0  0  0  0  0  0
   11.6117  -17.8363   24.3083 C   0  0  1  0  0  0  0  0  0  0  0  0
   12.6022  -16.8675   24.4580 O   0  0  0  0  0  0  0  0  0  0  0  0
   10.3597  -17.3997   25.0623 C   0  0  2  0  0  0  0  0  0  0  0  0
    9.9500  -16.0830   24.5524 N   0  0  0  0  0  0  0  0  0  0  0  0
   10.5929  -17.3239   26.5098 C   0  0  0  0  0  0  0  0  0  0  0  0
   10.6263  -16.2209   27.1392 O   0  0  0  0  0  0  0  0  0  0  0  0
   10.7832  -18.4990   27.2130 O   0  0  0  0  0  0  0  0  0  0  0  0
  2  1  1  0
  3  2  1  0
  4  3  2  0
  5  6  1  0
  7  6  1  1
  7  9  1  0
  7  8  1  0
  8  3  1  0
  9 15  1  0
 10  9  2  0
 12 11  1  6
 12 13  1  0
 14 12  1  0
 14 16  1  0
 14 15  1  6
 16 17  2  0
 16 18  1  0
M  END
$$$$
