GST.pdb
     RDKit          3D

 18 17  0  0  1  0  0  0  0  0999 V2000
   -0.8330  -26.4967   31.9654 N   0  0  0  0  0  0  0  0  0  0  0  0
   -2.1121  -27.0271   32.3540 C   0  0  0  0  0  0  0  0  0  0  0  0
   -3.1909  -26.5069   31.4477 C   0  0  0  0  0  0  0  0  0  0  0  0
   -2.9163  -25.7768   30.4769 O   0  0  0  0  0  0  0  0  0  0  0  0
   -6.4631  -28.6217   30.3525 O   0  0  0  0  0  0  0  0  0  0  0  0
   -6.7884  -27.3426   30.7569 C   0  0  0  0  0  0  0  0  0  0  0  0
   -5.6134  -26.4139   30.8008 C   0  0  2  0  0  0  0  0  0  0  0  0
   -4.5585  -26.8234   31.6582 N   0  0  0  0  0  0  0  0  0  0  0  0
   -6.1283  -25.0735   31.2309 C   0  0  0  0  0  0  0  0  0  0  0  0
   -6.3158  -24.8072   32.4476 O   0  0  0  0  0  0  0  0  0  0  0  0
   -6.2151  -21.8077   28.4667 C   0  0  0  0  0  0  0  0  0  0  0  0
   -5.9941  -21.6841   29.9574 C   0  0  1  0  0  0  0  0  0  0  0  0
   -6.3778  -20.3973   30.3303 O   0  0  0  0  0  0  0  0  0  0  0  0
   -6.8352  -22.7031   30.7197 C   0  0  2  0  0  0  0  0  0  0  0  0
   -6.4263  -24.0495   30.2935 N   0  0  0  0  0  0  0  0  0  0  0  0
   -8.2709  -22.5170   30.4765 C   0  0  0  0  0  0  0  0  0  0  0  0
   -8.9725  -23.3677   29.8456 O   0  0  0  0  0  0  0  0  0  0  0  0
   -8.8811  -21.3715   30.9530 O   0  0  0  0  0  0  0  0  0  0  0  0
  2  1  1  0
  3  2  1  0
  4  3  2  0
  5  6  1  0
  7  6  1  1
  7  9  1  0
  7  8  1  0
  8  3  1  0
  9 15  1  0
 10  9  2  0
 12 11  1  6
 12 13  1  0
 14 12  1  0
 14 16  1  0
 14 15  1  6
 16 17  2  0
 16 18  1  0
M  END
$$$$
