GST.pdb
     RDKit          3D

 18 17  0  0  1  0  0  0  0  0999 V2000
    3.9244  -20.3353   20.9851 N   0  0  0  0  0  0  0  0  0  0  0  0
    4.0192  -19.5218   22.1674 C   0  0  0  0  0  0  0  0  0  0  0  0
    5.4571  -19.3308   22.5565 C   0  0  0  0  0  0  0  0  0  0  0  0
    6.3711  -19.9084   21.9384 O   0  0  0  0  0  0  0  0  0  0  0  0
    6.3201  -16.3771   25.3079 O   0  0  0  0  0  0  0  0  0  0  0  0
    7.3998  -16.8506   24.5898 C   0  0  0  0  0  0  0  0  0  0  0  0
    7.1751  -18.2102   24.0017 C   0  0  2  0  0  0  0  0  0  0  0  0
    5.8319  -18.4901   23.6371 N   0  0  0  0  0  0  0  0  0  0  0  0
    7.6474  -19.2103   25.0133 C   0  0  0  0  0  0  0  0  0  0  0  0
    6.9074  -19.5732   25.9658 O   0  0  0  0  0  0  0  0  0  0  0  0
    9.2435  -22.6158   24.1359 C   0  0  0  0  0  0  0  0  0  0  0  0
   10.1480  -21.8915   25.1074 C   0  0  1  0  0  0  0  0  0  0  0  0
   11.1510  -21.2746   24.3622 O   0  0  0  0  0  0  0  0  0  0  0  0
    9.3744  -20.8332   25.8873 C   0  0  2  0  0  0  0  0  0  0  0  0
    8.9415  -19.7908   24.9452 N   0  0  0  0  0  0  0  0  0  0  0  0
   10.1891  -20.2361   26.9527 C   0  0  0  0  0  0  0  0  0  0  0  0
   10.5214  -20.8764   27.9983 O   0  0  0  0  0  0  0  0  0  0  0  0
   10.6097  -18.9267   26.8107 O   0  0  0  0  0  0  0  0  0  0  0  0
  2  1  1  0
  3  2  1  0
  4  3  2  0
  5  6  1  0
  7  6  1  1
  7  9  1  0
  7  8  1  0
  8  3  1  0
  9 15  1  0
 10  9  2  0
 12 11  1  6
 12 13  1  0
 14 12  1  0
 14 16  1  0
 14 15  1  6
 16 17  2  0
 16 18  1  0
M  END
$$$$
