HPG.pdb
     RDKit          3D

 22 23  0  0  1  0  0  0  0  0999 V2000
    8.7134  -14.9901   23.7190 N   0  0  0  0  0  0  0  0  0  0  0  0
    9.1965  -16.0318   22.8673 C   0  0  1  0  0  0  0  0  0  0  0  0
    8.5801  -17.3713   23.2641 C   0  0  0  0  0  0  0  0  0  0  0  0
    8.3421  -17.3780   24.7314 C   0  0  0  0  0  0  0  0  0  0  0  0
    8.2333  -16.2728   25.5333 C   0  0  0  0  0  0  0  0  0  0  0  0
    8.0225  -16.7017   26.7823 N   0  0  0  0  0  0  0  0  0  0  0  0
    8.0008  -18.0330   26.7586 C   0  0  0  0  0  0  0  0  0  0  0  0
    8.1949  -18.4538   25.5114 N   0  0  0  0  0  0  0  0  0  0  0  0
    9.0564  -15.7885   21.4177 C   0  0  0  0  0  0  0  0  0  0  0  0
    8.8922  -16.8356   20.6758 O   0  0  0  0  0  0  0  0  0  0  0  0
    9.0846  -14.5319   20.7697 N   0  0  0  0  0  0  0  0  0  0  0  0
    9.1390  -13.1967   21.2649 C   0  0  0  0  0  0  0  0  0  0  0  0
    8.0509  -12.5224   20.4419 C   0  0  0  0  0  0  0  0  0  0  0  0
    8.2340  -13.1686   19.0915 C   0  0  0  0  0  0  0  0  0  0  0  0
    9.0657  -14.4021   19.3076 C   0  0  1  0  0  0  0  0  0  0  0  0
   10.3916  -14.2084   18.7229 C   0  0  0  0  0  0  0  0  0  0  0  0
   11.1936  -13.4716   19.3911 O   0  0  0  0  0  0  0  0  0  0  0  0
   10.8743  -14.7368   17.5208 N   0  0  0  0  0  0  0  0  0  0  0  0
   12.2209  -14.4693   17.0602 C   0  0  0  0  0  0  0  0  0  0  0  0
   13.1494  -15.5511   17.4374 C   0  0  0  0  0  0  0  0  0  0  0  0
   13.1563  -16.0982   18.7173 O   0  0  0  0  0  0  0  0  0  0  0  0
   13.9519  -15.9746   16.5518 O   0  0  0  0  0  0  0  0  0  0  0  0
  2  1  1  1
  3  2  1  0
  3  4  1  0
  4  5  2  0
  6  5  1  0
  7  6  1  0
  8  7  2  0
  8  4  1  0
  9 10  2  0
  9  2  1  0
 11  9  1  0
 12 11  1  0
 13 12  1  0
 14 13  1  0
 14 15  1  0
 15 16  1  1
 15 11  1  0
 16 18  1  0
 17 16  2  0
 18 19  1  0
 20 21  1  0
 20 19  1  0
 22 20  2  0
M  END
$$$$
