HPG.pdb
     RDKit          3D

 22 23  0  0  1  0  0  0  0  0999 V2000
    9.5085  -15.9698   15.0822 N   0  0  0  0  0  0  0  0  0  0  0  0
    8.7548  -15.7372   16.2745 C   0  0  1  0  0  0  0  0  0  0  0  0
    8.0803  -17.0268   16.7367 C   0  0  0  0  0  0  0  0  0  0  0  0
    7.2239  -17.5451   15.6377 C   0  0  0  0  0  0  0  0  0  0  0  0
    7.0549  -16.9648   14.4085 C   0  0  0  0  0  0  0  0  0  0  0  0
    6.2118  -17.7355   13.7129 N   0  0  0  0  0  0  0  0  0  0  0  0
    5.8668  -18.7638   14.4855 C   0  0  0  0  0  0  0  0  0  0  0  0
    6.4797  -18.6555   15.6614 N   0  0  0  0  0  0  0  0  0  0  0  0
    9.4914  -15.0941   17.3809 C   0  0  0  0  0  0  0  0  0  0  0  0
   10.7824  -15.1377   17.3093 O   0  0  0  0  0  0  0  0  0  0  0  0
    8.9251  -14.4418   18.5005 N   0  0  0  0  0  0  0  0  0  0  0  0
    7.5820  -14.3126   18.9592 C   0  0  0  0  0  0  0  0  0  0  0  0
    7.5042  -12.8223   19.2572 C   0  0  0  0  0  0  0  0  0  0  0  0
    8.8650  -12.5498   19.8477 C   0  0  0  0  0  0  0  0  0  0  0  0
    9.7408  -13.7155   19.4813 C   0  0  1  0  0  0  0  0  0  0  0  0
   10.0441  -14.4967   20.6792 C   0  0  0  0  0  0  0  0  0  0  0  0
    9.0360  -14.9609   21.3124 O   0  0  0  0  0  0  0  0  0  0  0  0
   11.3074  -14.7887   21.2045 N   0  0  0  0  0  0  0  0  0  0  0  0
   11.4805  -15.2002   22.5821 C   0  0  0  0  0  0  0  0  0  0  0  0
   12.9045  -15.3790   22.9211 C   0  0  0  0  0  0  0  0  0  0  0  0
   13.3086  -16.1563   24.0028 O   0  0  0  0  0  0  0  0  0  0  0  0
   13.7620  -14.7974   22.1902 O   0  0  0  0  0  0  0  0  0  0  0  0
  2  1  1  6
  3  2  1  0
  3  4  1  0
  4  5  2  0
  6  5  1  0
  7  6  1  0
  8  7  2  0
  8  4  1  0
  9 10  2  0
  9  2  1  0
 11  9  1  0
 12 11  1  0
 13 12  1  0
 14 13  1  0
 14 15  1  0
 15 16  1  1
 15 11  1  0
 16 18  1  0
 17 16  2  0
 18 19  1  0
 20 21  1  0
 20 19  1  0
 22 20  2  0
M  END
$$$$
