HPG.pdb
     RDKit          3D

 22 23  0  0  1  0  0  0  0  0999 V2000
    5.9651  -17.5420   25.8223 N   0  0  0  0  0  0  0  0  0  0  0  0
    6.6578  -16.3833   25.3518 C   0  0  1  0  0  0  0  0  0  0  0  0
    7.4263  -15.7233   26.4944 C   0  0  0  0  0  0  0  0  0  0  0  0
    7.0603  -14.2838   26.5550 C   0  0  0  0  0  0  0  0  0  0  0  0
    7.7172  -13.2602   25.9249 C   0  0  0  0  0  0  0  0  0  0  0  0
    7.0787  -12.1253   26.2296 N   0  0  0  0  0  0  0  0  0  0  0  0
    6.0558  -12.4331   27.0247 C   0  0  0  0  0  0  0  0  0  0  0  0
    6.0372  -13.7478   27.2283 N   0  0  0  0  0  0  0  0  0  0  0  0
    7.5255  -16.5912   24.1753 C   0  0  0  0  0  0  0  0  0  0  0  0
    7.9296  -17.8030   23.9703 O   0  0  0  0  0  0  0  0  0  0  0  0
    7.9527  -15.6011   23.2606 N   0  0  0  0  0  0  0  0  0  0  0  0
    7.7772  -14.1873   23.2238 C   0  0  0  0  0  0  0  0  0  0  0  0
    7.3461  -13.9716   21.7804 C   0  0  0  0  0  0  0  0  0  0  0  0
    8.2157  -14.9590   21.0431 C   0  0  0  0  0  0  0  0  0  0  0  0
    8.7445  -15.9241   22.0674 C   0  0  1  0  0  0  0  0  0  0  0  0
   10.1799  -15.7121   22.2460 C   0  0  0  0  0  0  0  0  0  0  0  0
   10.5130  -14.9131   23.1858 O   0  0  0  0  0  0  0  0  0  0  0  0
   11.2206  -16.2833   21.5058 N   0  0  0  0  0  0  0  0  0  0  0  0
   12.0485  -17.3397   22.0497 C   0  0  0  0  0  0  0  0  0  0  0  0
   13.1998  -16.7985   22.7955 C   0  0  0  0  0  0  0  0  0  0  0  0
   13.3611  -15.4318   23.0044 O   0  0  0  0  0  0  0  0  0  0  0  0
   14.0500  -17.6236   23.2471 O   0  0  0  0  0  0  0  0  0  0  0  0
  2  1  1  1
  3  2  1  0
  3  4  1  0
  4  5  2  0
  6  5  1  0
  7  6  1  0
  8  7  2  0
  8  4  1  0
  9 10  2  0
  9  2  1  0
 11  9  1  0
 12 11  1  0
 13 12  1  0
 14 13  1  0
 14 15  1  0
 15 16  1  1
 15 11  1  0
 16 18  1  0
 17 16  2  0
 18 19  1  0
 20 21  1  0
 20 19  1  0
 22 20  2  0
M  END
$$$$
