HPG.pdb
     RDKit          3D

 22 23  0  0  1  0  0  0  0  0999 V2000
    9.8059  -15.6528   15.0513 N   0  0  0  0  0  0  0  0  0  0  0  0
    8.9414  -15.6891   16.1894 C   0  0  1  0  0  0  0  0  0  0  0  0
    8.3999  -17.1012   16.4003 C   0  0  0  0  0  0  0  0  0  0  0  0
    7.7254  -17.5513   15.1545 C   0  0  0  0  0  0  0  0  0  0  0  0
    6.3822  -17.4778   14.8960 C   0  0  0  0  0  0  0  0  0  0  0  0
    6.1800  -17.9829   13.6743 N   0  0  0  0  0  0  0  0  0  0  0  0
    7.3609  -18.3593   13.1875 C   0  0  0  0  0  0  0  0  0  0  0  0
    8.3091  -18.0996   14.0840 N   0  0  0  0  0  0  0  0  0  0  0  0
    9.5066  -15.1421   17.4390 C   0  0  0  0  0  0  0  0  0  0  0  0
   10.7950  -15.1822   17.5490 O   0  0  0  0  0  0  0  0  0  0  0  0
    8.7802  -14.5844   18.5164 N   0  0  0  0  0  0  0  0  0  0  0  0
    7.3839  -14.4303   18.7562 C   0  0  0  0  0  0  0  0  0  0  0  0
    7.3111  -12.9792   19.2087 C   0  0  0  0  0  0  0  0  0  0  0  0
    8.5588  -12.8495   20.0460 C   0  0  0  0  0  0  0  0  0  0  0  0
    9.4409  -14.0160   19.6978 C   0  0  1  0  0  0  0  0  0  0  0  0
    9.5040  -14.9386   20.8301 C   0  0  0  0  0  0  0  0  0  0  0  0
    8.4484  -15.6240   21.0505 O   0  0  0  0  0  0  0  0  0  0  0  0
   10.5849  -15.1508   21.6925 N   0  0  0  0  0  0  0  0  0  0  0  0
   10.5872  -16.2325   22.6553 C   0  0  0  0  0  0  0  0  0  0  0  0
   11.8318  -16.2537   23.4461 C   0  0  0  0  0  0  0  0  0  0  0  0
   11.9894  -17.0963   24.5428 O   0  0  0  0  0  0  0  0  0  0  0  0
   12.7668  -15.4726   23.0946 O   0  0  0  0  0  0  0  0  0  0  0  0
  2  1  1  6
  3  2  1  0
  3  4  1  0
  4  5  2  0
  6  5  1  0
  7  6  1  0
  8  7  2  0
  8  4  1  0
  9 10  2  0
  9  2  1  0
 11  9  1  0
 12 11  1  0
 13 12  1  0
 14 13  1  0
 14 15  1  0
 15 16  1  1
 15 11  1  0
 16 18  1  0
 17 16  2  0
 18 19  1  0
 20 21  1  0
 20 19  1  0
 22 20  2  0
M  END
$$$$
