HPG.pdb
     RDKit          3D

 22 23  0  0  1  0  0  0  0  0999 V2000
    9.8640  -14.8506   21.3862 N   0  0  0  0  0  0  0  0  0  0  0  0
    8.7810  -14.2835   22.1273 C   0  0  1  0  0  0  0  0  0  0  0  0
    7.4738  -14.4261   21.3511 C   0  0  0  0  0  0  0  0  0  0  0  0
    7.7048  -14.0268   19.9379 C   0  0  0  0  0  0  0  0  0  0  0  0
    8.0326  -12.7707   19.5008 C   0  0  0  0  0  0  0  0  0  0  0  0
    8.1523  -12.8270   18.1701 N   0  0  0  0  0  0  0  0  0  0  0  0
    7.9065  -14.0795   17.7905 C   0  0  0  0  0  0  0  0  0  0  0  0
    7.6327  -14.8181   18.8627 N   0  0  0  0  0  0  0  0  0  0  0  0
    8.6333  -14.7674   23.5145 C   0  0  0  0  0  0  0  0  0  0  0  0
    9.5194  -15.6183   23.9203 O   0  0  0  0  0  0  0  0  0  0  0  0
    7.6250  -14.3928   24.4324 N   0  0  0  0  0  0  0  0  0  0  0  0
    6.4348  -13.6219   24.2904 C   0  0  0  0  0  0  0  0  0  0  0  0
    6.5330  -12.6872   25.4873 C   0  0  0  0  0  0  0  0  0  0  0  0
    7.0948  -13.5978   26.5503 C   0  0  0  0  0  0  0  0  0  0  0  0
    7.6571  -14.7991   25.8427 C   0  0  1  0  0  0  0  0  0  0  0  0
    6.8299  -15.9697   26.1305 C   0  0  0  0  0  0  0  0  0  0  0  0
    5.8883  -16.2051   25.2996 O   0  0  0  0  0  0  0  0  0  0  0  0
    6.9552  -16.8530   27.2081 N   0  0  0  0  0  0  0  0  0  0  0  0
    7.1807  -18.2692   27.0069 C   0  0  0  0  0  0  0  0  0  0  0  0
    8.4235  -18.7199   27.6604 C   0  0  0  0  0  0  0  0  0  0  0  0
    8.4079  -19.6098   28.7307 O   0  0  0  0  0  0  0  0  0  0  0  0
    9.5212  -18.2684   27.2144 O   0  0  0  0  0  0  0  0  0  0  0  0
  2  1  1  6
  3  2  1  0
  3  4  1  0
  4  5  2  0
  6  5  1  0
  7  6  1  0
  8  7  2  0
  8  4  1  0
  9 10  2  0
  9  2  1  0
 11  9  1  0
 12 11  1  0
 13 12  1  0
 14 13  1  0
 14 15  1  0
 15 16  1  6
 15 11  1  0
 16 18  1  0
 17 16  2  0
 18 19  1  0
 20 21  1  0
 20 19  1  0
 22 20  2  0
M  END
$$$$
