HPG.pdb
     RDKit          3D

 22 23  0  0  1  0  0  0  0  0999 V2000
    6.4565  -16.9313   22.5462 N   0  0  0  0  0  0  0  0  0  0  0  0
    7.4327  -16.0284   22.0214 C   0  0  1  0  0  0  0  0  0  0  0  0
    8.8067  -16.3265   22.6171 C   0  0  0  0  0  0  0  0  0  0  0  0
    8.9307  -15.6244   23.9215 C   0  0  0  0  0  0  0  0  0  0  0  0
    7.9721  -14.8398   24.5064 C   0  0  0  0  0  0  0  0  0  0  0  0
    8.4693  -14.3951   25.6655 N   0  0  0  0  0  0  0  0  0  0  0  0
    9.6994  -14.8877   25.7980 C   0  0  0  0  0  0  0  0  0  0  0  0
    9.9888  -15.6387   24.7386 N   0  0  0  0  0  0  0  0  0  0  0  0
    7.4970  -15.9419   20.5488 C   0  0  0  0  0  0  0  0  0  0  0  0
    6.9961  -16.9400   19.8954 O   0  0  0  0  0  0  0  0  0  0  0  0
    8.0488  -14.8823   19.7923 N   0  0  0  0  0  0  0  0  0  0  0  0
    8.6581  -13.6498   20.1674 C   0  0  0  0  0  0  0  0  0  0  0  0
    7.9522  -12.6677   19.2438 C   0  0  0  0  0  0  0  0  0  0  0  0
    7.8467  -13.4610   17.9654 C   0  0  0  0  0  0  0  0  0  0  0  0
    8.0849  -14.9012   18.3249 C   0  0  1  0  0  0  0  0  0  0  0  0
    9.3695  -15.3369   17.7795 C   0  0  0  0  0  0  0  0  0  0  0  0
   10.3666  -15.2646   18.5753 O   0  0  0  0  0  0  0  0  0  0  0  0
    9.6246  -15.8197   16.4916 N   0  0  0  0  0  0  0  0  0  0  0  0
   10.3367  -17.0617   16.2734 C   0  0  0  0  0  0  0  0  0  0  0  0
   11.7893  -16.8966   16.4669 C   0  0  0  0  0  0  0  0  0  0  0  0
   12.6589  -16.7387   15.3916 O   0  0  0  0  0  0  0  0  0  0  0  0
   12.2299  -16.9027   17.6558 O   0  0  0  0  0  0  0  0  0  0  0  0
  2  1  1  6
  3  2  1  0
  3  4  1  0
  4  5  2  0
  6  5  1  0
  7  6  1  0
  8  7  2  0
  8  4  1  0
  9 10  2  0
  9  2  1  0
 11  9  1  0
 12 11  1  0
 13 12  1  0
 14 13  1  0
 14 15  1  0
 15 16  1  1
 15 11  1  0
 16 18  1  0
 17 16  2  0
 18 19  1  0
 20 21  1  0
 20 19  1  0
 22 20  2  0
M  END
$$$$
