TAN.pdb
     RDKit          3D

 21 20  0  0  1  0  0  0  0  0999 V2000
   17.7261  -12.7747  -19.1541 C   0  0  0  0  0  0  0  0  0  0  0  0
   18.4963  -12.2844  -17.9732 C   0  0  1  0  0  0  0  0  0  0  0  0
   18.6958  -13.2695  -17.0309 O   0  0  0  0  0  0  0  0  0  0  0  0
   19.7869  -11.5912  -18.3711 C   0  0  2  0  0  0  0  0  0  0  0  0
   20.7194  -12.4888  -18.9796 N   0  0  0  0  0  0  0  0  0  0  0  0
   20.3802  -10.8620  -17.2077 C   0  0  0  0  0  0  0  0  0  0  0  0
   19.6987  -10.0127  -16.5691 O   0  0  0  0  0  0  0  0  0  0  0  0
   23.6081  -10.9724  -15.3343 C   0  0  0  0  0  0  0  0  0  0  0  0
   22.2545  -10.3534  -15.6014 C   0  0  2  0  0  0  0  0  0  0  0  0
   21.7049  -11.0683  -16.7572 N   0  0  0  0  0  0  0  0  0  0  0  0
   22.3390   -8.9064  -15.8719 C   0  0  0  0  0  0  0  0  0  0  0  0
   22.7500   -8.5340  -17.0001 O   0  0  0  0  0  0  0  0  0  0  0  0
   21.9472   -3.7306  -15.6624 N   0  0  0  0  0  0  0  0  0  0  0  0
   20.9857   -4.5670  -16.3287 C   0  0  0  0  0  0  0  0  0  0  0  0
   20.1852   -3.9565  -17.0880 O   0  0  0  0  0  0  0  0  0  0  0  0
   20.9820   -6.0304  -16.1037 C   0  0  0  0  0  0  0  0  0  0  0  0
   22.0597   -6.4898  -15.1574 C   0  0  2  0  0  0  0  0  0  0  0  0
   21.9849   -7.9321  -14.9344 N   0  0  0  0  0  0  0  0  0  0  0  0
   22.0749   -5.7507  -13.8740 C   0  0  0  0  0  0  0  0  0  0  0  0
   21.5761   -6.3506  -12.8637 O   0  0  0  0  0  0  0  0  0  0  0  0
   22.5734   -4.4948  -13.6845 O   0  0  0  0  0  0  0  0  0  0  0  0
  2  1  1  6
  2  3  1  0
  4  2  1  0
  4  5  1  1
  6  4  1  0
  6 10  1  0
  7  6  2  0
  9  8  1  6
  9 10  1  0
  9 11  1  0
 11 12  2  0
 11 18  1  0
 13 14  1  0
 14 15  2  0
 16 14  1  0
 17 16  1  6
 17 19  1  0
 18 17  1  0
 19 21  1  0
 20 19  2  0
M  END
$$$$
