TAN.pdb
     RDKit          3D

 21 20  0  0  1  0  0  0  0  0999 V2000
   19.1825   -9.9996  -19.0551 C   0  0  0  0  0  0  0  0  0  0  0  0
   18.2394  -10.7403  -18.1662 C   0  0  1  0  0  0  0  0  0  0  0  0
   17.2402  -11.3735  -18.8725 O   0  0  0  0  0  0  0  0  0  0  0  0
   18.9583  -11.6761  -17.2111 C   0  0  2  0  0  0  0  0  0  0  0  0
   18.0599  -12.5703  -16.5489 N   0  0  0  0  0  0  0  0  0  0  0  0
   19.8035  -10.9060  -16.2467 C   0  0  0  0  0  0  0  0  0  0  0  0
   19.2703  -10.1310  -15.4050 O   0  0  0  0  0  0  0  0  0  0  0  0
   23.4318  -10.6822  -15.4094 C   0  0  0  0  0  0  0  0  0  0  0  0
   22.0271  -10.1248  -15.3538 C   0  0  2  0  0  0  0  0  0  0  0  0
   21.2149  -10.9915  -16.2130 N   0  0  0  0  0  0  0  0  0  0  0  0
   21.9574   -8.7235  -15.8073 C   0  0  0  0  0  0  0  0  0  0  0  0
   21.7219   -8.5012  -17.0219 O   0  0  0  0  0  0  0  0  0  0  0  0
   21.7122   -3.5617  -16.1496 N   0  0  0  0  0  0  0  0  0  0  0  0
   20.6266   -4.4789  -16.3694 C   0  0  0  0  0  0  0  0  0  0  0  0
   19.5850   -3.9629  -16.8578 O   0  0  0  0  0  0  0  0  0  0  0  0
   20.7762   -5.9123  -16.0300 C   0  0  0  0  0  0  0  0  0  0  0  0
   22.0860   -6.2314  -15.3588 C   0  0  2  0  0  0  0  0  0  0  0  0
   22.1411   -7.6338  -14.9516 N   0  0  0  0  0  0  0  0  0  0  0  0
   22.4045   -5.3329  -14.2252 C   0  0  0  0  0  0  0  0  0  0  0  0
   22.0122   -5.7094  -13.0704 O   0  0  0  0  0  0  0  0  0  0  0  0
   23.0763   -4.1485  -14.3127 O   0  0  0  0  0  0  0  0  0  0  0  0
  2  1  1  6
  2  3  1  0
  4  2  1  0
  4  5  1  1
  6  4  1  0
  6 10  1  0
  7  6  2  0
  9  8  1  6
  9 10  1  0
  9 11  1  0
 11 12  2  0
 11 18  1  0
 13 14  1  0
 14 15  2  0
 16 14  1  0
 17 16  1  1
 17 19  1  0
 18 17  1  0
 19 21  1  0
 20 19  2  0
M  END
$$$$
