TAN.pdb
     RDKit          3D

 21 20  0  0  1  0  0  0  0  0999 V2000
   17.4729  -10.7902  -10.7837 C   0  0  0  0  0  0  0  0  0  0  0  0
   16.0566  -11.0382  -11.1848 C   0  0  1  0  0  0  0  0  0  0  0  0
   15.7744  -12.3808  -11.3113 O   0  0  0  0  0  0  0  0  0  0  0  0
   15.0662  -10.3185  -10.2870 C   0  0  2  0  0  0  0  0  0  0  0  0
   13.7175  -10.7278  -10.5296 N   0  0  0  0  0  0  0  0  0  0  0  0
   15.2348   -8.8358  -10.3896 C   0  0  0  0  0  0  0  0  0  0  0  0
   15.0166   -8.2404  -11.4811 O   0  0  0  0  0  0  0  0  0  0  0  0
   15.5836   -5.9532   -8.1359 C   0  0  0  0  0  0  0  0  0  0  0  0
   15.9218   -6.5951   -9.4627 C   0  0  2  0  0  0  0  0  0  0  0  0
   15.6377   -8.0244   -9.3034 N   0  0  0  0  0  0  0  0  0  0  0  0
   17.3278   -6.3804   -9.8516 C   0  0  0  0  0  0  0  0  0  0  0  0
   18.2244   -6.9642   -9.1917 O   0  0  0  0  0  0  0  0  0  0  0  0
   21.5525   -5.4286  -12.7448 N   0  0  0  0  0  0  0  0  0  0  0  0
   20.9449   -6.7055  -12.4831 C   0  0  0  0  0  0  0  0  0  0  0  0
   21.6092   -7.7017  -12.8782 O   0  0  0  0  0  0  0  0  0  0  0  0
   19.6356   -6.7857  -11.7965 C   0  0  0  0  0  0  0  0  0  0  0  0
   19.0702   -5.4378  -11.4340 C   0  0  2  0  0  0  0  0  0  0  0  0
   17.7088   -5.5596  -10.9167 N   0  0  0  0  0  0  0  0  0  0  0  0
   19.1364   -4.4519  -12.5373 C   0  0  0  0  0  0  0  0  0  0  0  0
   18.1362   -4.4134  -13.3295 O   0  0  0  0  0  0  0  0  0  0  0  0
   20.1675   -3.5901  -12.7740 O   0  0  0  0  0  0  0  0  0  0  0  0
  2  1  1  1
  2  3  1  0
  4  2  1  0
  4  5  1  6
  6  4  1  0
  6 10  1  0
  7  6  2  0
  9  8  1  1
  9 10  1  0
  9 11  1  0
 11 12  2  0
 11 18  1  0
 13 14  1  0
 14 15  2  0
 16 14  1  0
 17 16  1  6
 17 19  1  0
 18 17  1  0
 19 21  1  0
 20 19  2  0
M  END
$$$$
