TAN.pdb
     RDKit          3D

 21 20  0  0  1  0  0  0  0  0999 V2000
   19.9744   -8.1502  -18.8518 C   0  0  0  0  0  0  0  0  0  0  0  0
   19.0318   -9.2897  -18.6489 C   0  0  1  0  0  0  0  0  0  0  0  0
   18.3405   -9.6098  -19.7969 O   0  0  0  0  0  0  0  0  0  0  0  0
   19.7081  -10.4959  -18.0226 C   0  0  2  0  0  0  0  0  0  0  0  0
   18.9146  -11.6807  -18.1328 N   0  0  0  0  0  0  0  0  0  0  0  0
   20.1044  -10.2097  -16.6089 C   0  0  0  0  0  0  0  0  0  0  0  0
   19.2355  -10.1806  -15.6937 O   0  0  0  0  0  0  0  0  0  0  0  0
   23.2476  -10.1295  -14.6781 C   0  0  0  0  0  0  0  0  0  0  0  0
   21.8025   -9.7057  -14.8162 C   0  0  2  0  0  0  0  0  0  0  0  0
   21.4391   -9.9601  -16.2134 N   0  0  0  0  0  0  0  0  0  0  0  0
   21.5946   -8.2875  -14.4704 C   0  0  0  0  0  0  0  0  0  0  0  0
   21.8166   -7.9238  -13.2877 O   0  0  0  0  0  0  0  0  0  0  0  0
   23.6427   -4.3490  -14.6736 N   0  0  0  0  0  0  0  0  0  0  0  0
   23.0782   -4.9922  -15.8293 C   0  0  0  0  0  0  0  0  0  0  0  0
   23.9186   -5.5125  -16.6121 O   0  0  0  0  0  0  0  0  0  0  0  0
   21.6120   -5.0125  -16.0343 C   0  0  0  0  0  0  0  0  0  0  0  0
   20.8907   -5.9299  -15.0824 C   0  0  2  0  0  0  0  0  0  0  0  0
   21.1628   -7.3315  -15.3940 N   0  0  0  0  0  0  0  0  0  0  0  0
   19.4342   -5.6733  -15.0024 C   0  0  0  0  0  0  0  0  0  0  0  0
   19.0798   -4.5058  -14.6273 O   0  0  0  0  0  0  0  0  0  0  0  0
   18.4502   -6.5726  -15.2940 O   0  0  0  0  0  0  0  0  0  0  0  0
  2  1  1  6
  2  3  1  0
  4  2  1  0
  4  5  1  1
  6  4  1  0
  6 10  1  0
  7  6  2  0
  9  8  1  6
  9 10  1  0
  9 11  1  0
 11 12  2  0
 11 18  1  0
 13 14  1  0
 14 15  2  0
 16 14  1  0
 17 16  1  6
 17 19  1  0
 18 17  1  0
 19 21  1  0
 20 19  2  0
M  END
$$$$
