TAN.pdb
     RDKit          3D

 21 20  0  0  1  0  0  0  0  0999 V2000
   19.1961  -15.0117  -19.1894 C   0  0  0  0  0  0  0  0  0  0  0  0
   19.3609  -13.9540  -18.1490 C   0  0  1  0  0  0  0  0  0  0  0  0
   18.1540  -13.4424  -17.7250 O   0  0  0  0  0  0  0  0  0  0  0  0
   20.2367  -14.4084  -16.9953 C   0  0  2  0  0  0  0  0  0  0  0  0
   19.7073  -15.5604  -16.3334 N   0  0  0  0  0  0  0  0  0  0  0  0
   20.4961  -13.2805  -16.0475 C   0  0  0  0  0  0  0  0  0  0  0  0
   19.6382  -12.9656  -15.1767 O   0  0  0  0  0  0  0  0  0  0  0  0
   23.4160  -11.1452  -15.1761 C   0  0  0  0  0  0  0  0  0  0  0  0
   21.9384  -11.4531  -15.0822 C   0  0  2  0  0  0  0  0  0  0  0  0
   21.6842  -12.5135  -16.0620 N   0  0  0  0  0  0  0  0  0  0  0  0
   21.0974  -10.2735  -15.3565 C   0  0  0  0  0  0  0  0  0  0  0  0
   20.6590  -10.1127  -16.5237 O   0  0  0  0  0  0  0  0  0  0  0  0
   18.3555   -9.1852  -11.4256 N   0  0  0  0  0  0  0  0  0  0  0  0
   18.2818   -8.7602  -12.7974 C   0  0  0  0  0  0  0  0  0  0  0  0
   17.3728   -9.3100  -13.4765 O   0  0  0  0  0  0  0  0  0  0  0  0
   19.2279   -7.7483  -13.3203 C   0  0  0  0  0  0  0  0  0  0  0  0
   19.9029   -8.1693  -14.5990 C   0  0  2  0  0  0  0  0  0  0  0  0
   20.7664   -9.3281  -14.3818 N   0  0  0  0  0  0  0  0  0  0  0  0
   20.6389   -7.0724  -15.2687 C   0  0  0  0  0  0  0  0  0  0  0  0
   21.9125   -7.1089  -15.1918 O   0  0  0  0  0  0  0  0  0  0  0  0
   20.0736   -6.0370  -15.9546 O   0  0  0  0  0  0  0  0  0  0  0  0
  2  1  1  6
  2  3  1  0
  4  2  1  0
  4  5  1  1
  6  4  1  0
  6 10  1  0
  7  6  2  0
  9  8  1  6
  9 10  1  0
  9 11  1  0
 11 12  2  0
 11 18  1  0
 13 14  1  0
 14 15  2  0
 16 14  1  0
 17 16  1  1
 17 19  1  0
 18 17  1  0
 19 21  1  0
 20 19  2  0
M  END
$$$$
