TAN.pdb
     RDKit          3D

 21 20  0  0  1  0  0  0  0  0999 V2000
   16.7050  -10.6317  -14.3452 C   0  0  0  0  0  0  0  0  0  0  0  0
   17.6925  -11.5335  -15.0083 C   0  0  1  0  0  0  0  0  0  0  0  0
   17.5388  -12.8492  -14.6294 O   0  0  0  0  0  0  0  0  0  0  0  0
   17.7115  -11.3617  -16.5166 C   0  0  2  0  0  0  0  0  0  0  0  0
   18.4273  -12.4116  -17.1730 N   0  0  0  0  0  0  0  0  0  0  0  0
   18.2235  -10.0073  -16.8917 C   0  0  0  0  0  0  0  0  0  0  0  0
   19.4647   -9.7817  -16.9371 O   0  0  0  0  0  0  0  0  0  0  0  0
   16.7227   -6.8007  -18.0697 C   0  0  0  0  0  0  0  0  0  0  0  0
   17.9069   -7.6035  -17.5798 C   0  0  2  0  0  0  0  0  0  0  0  0
   17.3775   -8.9200  -17.2116 N   0  0  0  0  0  0  0  0  0  0  0  0
   18.5820   -6.9704  -16.4319 C   0  0  0  0  0  0  0  0  0  0  0  0
   18.3212   -7.3963  -15.2782 O   0  0  0  0  0  0  0  0  0  0  0  0
   21.6290   -4.1994  -13.2959 N   0  0  0  0  0  0  0  0  0  0  0  0
   21.8861   -5.5654  -13.6649 C   0  0  0  0  0  0  0  0  0  0  0  0
   22.7985   -6.1321  -13.0044 O   0  0  0  0  0  0  0  0  0  0  0  0
   21.1067   -6.2087  -14.7470 C   0  0  0  0  0  0  0  0  0  0  0  0
   20.1788   -5.2589  -15.4576 C   0  0  2  0  0  0  0  0  0  0  0  0
   19.4955   -5.9213  -16.5667 N   0  0  0  0  0  0  0  0  0  0  0  0
   20.8386   -4.0108  -15.9053 C   0  0  0  0  0  0  0  0  0  0  0  0
   21.3211   -4.0122  -17.0871 O   0  0  0  0  0  0  0  0  0  0  0  0
   20.9714   -2.8713  -15.1666 O   0  0  0  0  0  0  0  0  0  0  0  0
  2  1  1  1
  2  3  1  0
  4  2  1  0
  4  5  1  6
  6  4  1  0
  6 10  1  0
  7  6  2  0
  9  8  1  1
  9 10  1  0
  9 11  1  0
 11 12  2  0
 11 18  1  0
 13 14  1  0
 14 15  2  0
 16 14  1  0
 17 16  1  6
 17 19  1  0
 18 17  1  0
 19 21  1  0
 20 19  2  0
M  END
$$$$
