TAN.pdb
     RDKit          3D

 21 20  0  0  1  0  0  0  0  0999 V2000
   35.8293  -10.0281  -17.8111 C   0  0  0  0  0  0  0  0  0  0  0  0
   35.9014  -10.4500  -16.3811 C   0  0  1  0  0  0  0  0  0  0  0  0
   36.9972  -11.2442  -16.1227 O   0  0  0  0  0  0  0  0  0  0  0  0
   35.7969   -9.2754  -15.4250 C   0  0  2  0  0  0  0  0  0  0  0  0
   36.0732   -9.6505  -14.0728 N   0  0  0  0  0  0  0  0  0  0  0  0
   34.4734   -8.5924  -15.5635 C   0  0  0  0  0  0  0  0  0  0  0  0
   33.4186   -9.1502  -15.1516 O   0  0  0  0  0  0  0  0  0  0  0  0
   33.2675   -5.1856  -16.2997 C   0  0  0  0  0  0  0  0  0  0  0  0
   33.0062   -6.6750  -16.2865 C   0  0  2  0  0  0  0  0  0  0  0  0
   34.3183   -7.3137  -16.1477 N   0  0  0  0  0  0  0  0  0  0  0  0
   32.3240   -7.1393  -17.5085 C   0  0  0  0  0  0  0  0  0  0  0  0
   33.0258   -7.5990  -18.4447 O   0  0  0  0  0  0  0  0  0  0  0  0
   27.5227  -10.1188  -19.6533 N   0  0  0  0  0  0  0  0  0  0  0  0
   28.5678   -9.1399  -19.7858 C   0  0  0  0  0  0  0  0  0  0  0  0
   28.7704   -8.7340  -20.9622 O   0  0  0  0  0  0  0  0  0  0  0  0
   29.3174   -8.6782  -18.5953 C   0  0  0  0  0  0  0  0  0  0  0  0
   30.2231   -7.5089  -18.8789 C   0  0  2  0  0  0  0  0  0  0  0  0
   30.9370   -7.0915  -17.6740 N   0  0  0  0  0  0  0  0  0  0  0  0
   29.5303   -6.3638  -19.5133 C   0  0  0  0  0  0  0  0  0  0  0  0
   29.0886   -5.4583  -18.7296 O   0  0  0  0  0  0  0  0  0  0  0  0
   29.3280   -6.1985  -20.8525 O   0  0  0  0  0  0  0  0  0  0  0  0
  2  1  1  6
  2  3  1  0
  4  2  1  0
  4  5  1  1
  6  4  1  0
  6 10  1  0
  7  6  2  0
  9  8  1  6
  9 10  1  0
  9 11  1  0
 11 12  2  0
 11 18  1  0
 13 14  1  0
 14 15  2  0
 16 14  1  0
 17 16  1  1
 17 19  1  0
 18 17  1  0
 19 21  1  0
 20 19  2  0
M  END
$$$$
