RWM.pdb
     RDKit          3D

 34 35  0  0  1  0  0  0  0  0999 V2000
    8.3861  -13.5731   17.2476 N   0  0  0  0  0  0  0  0  0  0  0  0
    7.9470  -12.9829   18.4912 C   0  0  0  0  0  0  0  0  0  0  0  0
    8.1128  -11.7307   18.7440 N   0  0  0  0  0  0  0  0  0  0  0  0
    7.2970  -13.7511   19.4782 N   0  0  0  0  0  0  0  0  0  0  0  0
    7.4191  -15.1785   19.5772 C   0  0  0  0  0  0  0  0  0  0  0  0
    8.5482  -15.7766   18.8288 C   0  0  0  0  0  0  0  0  0  0  0  0
    9.8668  -15.9190   19.4666 C   0  0  0  0  0  0  0  0  0  0  0  0
   10.0982  -17.1342   20.2989 C   0  0  2  0  0  0  0  0  0  0  0  0
    9.3416  -18.2861   20.0456 N   0  0  0  0  0  0  0  0  0  0  0  0
    9.9453  -16.7334   21.7458 C   0  0  0  0  0  0  0  0  0  0  0  0
   10.5259  -15.6654   22.1538 O   0  0  0  0  0  0  0  0  0  0  0  0
    7.7965  -11.3118   19.6363 N   0  0  0  0  0  0  0  0  0  0  0  0
    9.2073  -17.4464   22.7005 C   0  0  1  0  0  0  0  0  0  0  0  0
    9.1553  -17.0079   24.0932 C   0  0  0  0  0  0  0  0  0  0  0  0
    7.9182  -17.3454   24.8144 C   0  0  0  0  0  0  0  0  0  0  0  0
    6.9718  -16.2159   25.0437 C   0  0  0  0  0  0  0  0  0  0  0  0
    5.6140  -16.2419   25.2013 N   0  0  0  0  0  0  0  0  0  0  0  0
    5.1936  -14.9798   25.3611 C   0  0  0  0  0  0  0  0  0  0  0  0
    6.2252  -14.1293   25.3131 C   0  0  0  0  0  0  0  0  0  0  0  0
    6.2864  -12.7313   25.4238 C   0  0  0  0  0  0  0  0  0  0  0  0
    7.5257  -12.1372   25.3246 C   0  0  0  0  0  0  0  0  0  0  0  0
    8.6760  -12.8708   25.1239 C   0  0  0  0  0  0  0  0  0  0  0  0
    8.6178  -14.2667   25.0133 C   0  0  0  0  0  0  0  0  0  0  0  0
    7.3680  -14.8632   25.1140 C   0  0  0  0  0  0  0  0  0  0  0  0
   10.4312  -17.5047   24.6809 O   0  0  0  0  0  0  0  0  0  0  0  0
   11.4349  -17.7347   23.9078 C   0  0  0  0  0  0  0  0  0  0  0  0
    9.9832  -13.8547   29.1294 S   0  0  0  0  0  0  0  0  0  0  0  0
   11.7218  -14.1463   29.5808 C   0  0  0  0  0  0  0  0  0  0  0  0
   12.3087  -15.5617   28.5548 C   0  0  0  0  0  0  0  0  0  0  0  0
   11.2216  -16.0008   27.6206 C   0  0  1  0  0  0  0  0  0  0  0  0
   11.6811  -17.1640   26.7922 N   0  0  0  0  0  0  0  0  0  0  0  0
   10.5376  -17.7249   26.0564 C   0  0  0  0  0  0  0  0  0  0  0  0
   12.3159  -18.2576   27.5487 O   0  0  0  0  0  0  0  0  0  0  0  0
   13.6497  -18.3259   27.8721 O   0  0  0  0  0  0  0  0  0  0  0  0
  2  1  1  0
  3  2  2  0
  4  2  1  0
  5  4  1  0
  6  5  1  0
  7  6  1  0
  7  8  1  0
  8  9  1  6
 10  8  1  0
 11 10  2  0
 12 10  1  0
 13 24  1  0
 13 12  1  0
 13 14  1  1
 15 23  1  0
 15 14  1  0
 16 15  2  0
 17 16  1  0
 17 18  1  0
 18 23  2  0
 19 18  1  0
 19 20  2  0
 20 21  1  0
 21 22  2  0
 23 22  1  0
 24 31  1  0
 25 24  2  0
 27 28  1  0
 27 26  1  0
 28 29  1  0
 30 29  1  6
 30 32  1  0
 31 30  1  0
 32 33  1  0
 34 32  2  0
M  END
$$$$
