RWM.pdb
     RDKit          3D

 34 35  0  0  1  0  0  0  0  0999 V2000
    7.3000  -14.2528   14.8384 N   0  0  0  0  0  0  0  0  0  0  0  0
    8.3173  -14.1655   15.8607 C   0  0  0  0  0  0  0  0  0  0  0  0
    8.3144  -13.2265   16.7426 N   0  0  0  0  0  0  0  0  0  0  0  0
    9.3505  -15.1201   15.9504 N   0  0  0  0  0  0  0  0  0  0  0  0
    9.1449  -16.5285   15.7604 C   0  0  0  0  0  0  0  0  0  0  0  0
    9.1905  -17.3525   16.9900 C   0  0  0  0  0  0  0  0  0  0  0  0
    9.8126  -16.8225   18.2140 C   0  0  0  0  0  0  0  0  0  0  0  0
    9.8554  -17.7189   19.4047 C   0  0  2  0  0  0  0  0  0  0  0  0
    8.8840  -18.7200   19.5375 N   0  0  0  0  0  0  0  0  0  0  0  0
    9.8565  -16.8450   20.6351 C   0  0  0  0  0  0  0  0  0  0  0  0
   10.6338  -15.8255   20.6659 O   0  0  0  0  0  0  0  0  0  0  0  0
    8.9717  -13.2327   17.5424 N   0  0  0  0  0  0  0  0  0  0  0  0
    9.0633  -17.0597   21.7704 C   0  0  1  0  0  0  0  0  0  0  0  0
    8.9588  -16.0471   22.8185 C   0  0  0  0  0  0  0  0  0  0  0  0
    7.6117  -15.4943   23.0286 C   0  0  0  0  0  0  0  0  0  0  0  0
    7.5571  -14.1046   23.5667 C   0  0  0  0  0  0  0  0  0  0  0  0
    7.8813  -12.9256   22.9552 N   0  0  0  0  0  0  0  0  0  0  0  0
    7.6908  -11.9370   23.8393 C   0  0  0  0  0  0  0  0  0  0  0  0
    7.2551  -12.4251   25.0062 C   0  0  0  0  0  0  0  0  0  0  0  0
    6.9246  -11.7936   26.2154 C   0  0  0  0  0  0  0  0  0  0  0  0
    6.5029  -12.5909   27.2571 C   0  0  0  0  0  0  0  0  0  0  0  0
    6.4023  -13.9610   27.1369 C   0  0  0  0  0  0  0  0  0  0  0  0
    6.7314  -14.5941   25.9307 C   0  0  0  0  0  0  0  0  0  0  0  0
    7.1557  -13.7885   24.8823 C   0  0  0  0  0  0  0  0  0  0  0  0
    9.6186  -16.6729   23.9988 O   0  0  0  0  0  0  0  0  0  0  0  0
    9.1545  -17.7781   24.4691 C   0  0  0  0  0  0  0  0  0  0  0  0
   10.9166  -14.1432   29.5303 S   0  0  0  0  0  0  0  0  0  0  0  0
   10.2836  -13.2779   28.0599 C   0  0  0  0  0  0  0  0  0  0  0  0
   10.7188  -14.3180   26.6008 C   0  0  0  0  0  0  0  0  0  0  0  0
   10.7754  -15.7616   27.0011 C   0  0  2  0  0  0  0  0  0  0  0  0
   11.2557  -16.6040   25.8565 N   0  0  0  0  0  0  0  0  0  0  0  0
   10.7266  -16.0650   24.5944 C   0  0  0  0  0  0  0  0  0  0  0  0
   10.8883  -18.0289   25.9323 O   0  0  0  0  0  0  0  0  0  0  0  0
    9.6053  -18.5113   26.0281 O   0  0  0  0  0  0  0  0  0  0  0  0
  2  1  1  0
  3  2  2  0
  4  2  1  0
  5  4  1  0
  6  5  1  0
  7  6  1  0
  7  8  1  0
  8  9  1  1
 10  8  1  0
 11 10  2  0
 12 10  1  0
 13 24  1  0
 13 12  1  0
 13 14  1  1
 15 23  1  0
 15 14  1  0
 16 15  2  0
 17 16  1  0
 17 18  1  0
 18 23  2  0
 19 18  1  0
 19 20  2  0
 20 21  1  0
 21 22  2  0
 23 22  1  0
 24 31  1  0
 25 24  2  0
 27 28  1  0
 27 26  1  0
 28 29  1  0
 30 29  1  6
 30 32  1  0
 31 30  1  0
 32 33  1  0
 34 32  2  0
M  END
$$$$
