RWM.pdb
     RDKit          3D

 34 35  0  0  1  0  0  0  0  0999 V2000
    8.1955  -15.8800   15.5599 N   0  0  0  0  0  0  0  0  0  0  0  0
    7.9755  -14.6461   14.8412 C   0  0  0  0  0  0  0  0  0  0  0  0
    7.8383  -14.6219   13.5606 N   0  0  0  0  0  0  0  0  0  0  0  0
    7.8806  -13.4118   15.5152 N   0  0  0  0  0  0  0  0  0  0  0  0
    7.8007  -13.2950   16.9441 C   0  0  0  0  0  0  0  0  0  0  0  0
    7.9962  -14.5533   17.7000 C   0  0  0  0  0  0  0  0  0  0  0  0
    8.3390  -14.5123   19.1306 C   0  0  0  0  0  0  0  0  0  0  0  0
    9.6902  -15.0030   19.5263 C   0  0  2  0  0  0  0  0  0  0  0  0
   10.1916  -16.1683   18.9310 N   0  0  0  0  0  0  0  0  0  0  0  0
    9.7001  -15.1544   21.0278 C   0  0  0  0  0  0  0  0  0  0  0  0
   10.6273  -14.5762   21.6991 O   0  0  0  0  0  0  0  0  0  0  0  0
    7.5793  -13.7536   13.0599 N   0  0  0  0  0  0  0  0  0  0  0  0
    8.7619  -15.8900   21.7647 C   0  0  1  0  0  0  0  0  0  0  0  0
    8.2650  -15.4037   23.0497 C   0  0  0  0  0  0  0  0  0  0  0  0
    6.8154  -15.5434   23.2586 C   0  0  0  0  0  0  0  0  0  0  0  0
    6.3104  -15.1320   24.6001 C   0  0  0  0  0  0  0  0  0  0  0  0
    5.7411  -15.8938   25.5823 N   0  0  0  0  0  0  0  0  0  0  0  0
    5.4273  -15.0836   26.6022 C   0  0  0  0  0  0  0  0  0  0  0  0
    5.7691  -13.8205   26.3237 C   0  0  0  0  0  0  0  0  0  0  0  0
    5.6398  -12.6351   27.0643 C   0  0  0  0  0  0  0  0  0  0  0  0
    6.0933  -11.4693   26.4865 C   0  0  0  0  0  0  0  0  0  0  0  0
    6.6565  -11.4460   25.2280 C   0  0  0  0  0  0  0  0  0  0  0  0
    6.7869  -12.6281   24.4865 C   0  0  0  0  0  0  0  0  0  0  0  0
    6.3297  -13.8017   25.0709 C   0  0  0  0  0  0  0  0  0  0  0  0
    9.1533  -16.0527   24.0547 O   0  0  0  0  0  0  0  0  0  0  0  0
    9.8897  -17.0468   23.6976 C   0  0  0  0  0  0  0  0  0  0  0  0
   12.2700  -15.5287   31.2360 S   0  0  0  0  0  0  0  0  0  0  0  0
   10.8440  -15.0619   30.2063 C   0  0  0  0  0  0  0  0  0  0  0  0
   11.0570  -15.9121   28.5839 C   0  0  0  0  0  0  0  0  0  0  0  0
    9.8854  -15.6188   27.6959 C   0  0  2  0  0  0  0  0  0  0  0  0
   10.0889  -16.2307   26.3413 N   0  0  0  0  0  0  0  0  0  0  0  0
    9.1839  -15.5923   25.3733 C   0  0  0  0  0  0  0  0  0  0  0  0
    9.8726  -17.6867   26.2747 O   0  0  0  0  0  0  0  0  0  0  0  0
   10.7722  -18.6400   26.6869 O   0  0  0  0  0  0  0  0  0  0  0  0
  2  1  1  0
  3  2  2  0
  4  2  1  0
  5  4  1  0
  6  5  1  0
  7  6  1  0
  7  8  1  0
  8  9  1  6
 10  8  1  0
 11 10  2  0
 12 10  1  0
 13 24  1  0
 13 12  1  0
 13 14  1  1
 15 23  1  0
 15 14  1  0
 16 15  2  0
 17 16  1  0
 17 18  1  0
 18 23  2  0
 19 18  1  0
 19 20  2  0
 20 21  1  0
 21 22  2  0
 23 22  1  0
 24 31  1  0
 25 24  2  0
 27 28  1  0
 27 26  1  0
 28 29  1  0
 30 29  1  6
 30 32  1  0
 31 30  1  0
 32 33  1  0
 34 32  2  0
M  END
$$$$
