RWM.pdb
     RDKit          3D

 34 35  0  0  1  0  0  0  0  0999 V2000
    8.8782  -15.6085   13.9675 N   0  0  0  0  0  0  0  0  0  0  0  0
    8.4131  -14.3040   14.3792 C   0  0  0  0  0  0  0  0  0  0  0  0
    7.6581  -13.5833   13.6243 N   0  0  0  0  0  0  0  0  0  0  0  0
    8.7503  -13.7693   15.6391 N   0  0  0  0  0  0  0  0  0  0  0  0
    8.6530  -14.5109   16.8648 C   0  0  0  0  0  0  0  0  0  0  0  0
    9.9177  -15.1069   17.3530 C   0  0  0  0  0  0  0  0  0  0  0  0
   10.1599  -15.2498   18.7976 C   0  0  0  0  0  0  0  0  0  0  0  0
    9.4222  -16.3300   19.5129 C   0  0  2  0  0  0  0  0  0  0  0  0
    8.3018  -16.9083   18.9015 N   0  0  0  0  0  0  0  0  0  0  0  0
    9.0419  -15.8002   20.8740 C   0  0  0  0  0  0  0  0  0  0  0  0
    8.6728  -14.5765   20.9775 O   0  0  0  0  0  0  0  0  0  0  0  0
    7.3277  -12.6487   13.9229 N   0  0  0  0  0  0  0  0  0  0  0  0
    9.0598  -16.5492   22.0584 C   0  0  1  0  0  0  0  0  0  0  0  0
    8.6200  -15.9669   23.3242 C   0  0  0  0  0  0  0  0  0  0  0  0
    7.3690  -16.5164   23.8698 C   0  0  0  0  0  0  0  0  0  0  0  0
    6.5619  -15.5841   24.7084 C   0  0  0  0  0  0  0  0  0  0  0  0
    5.3839  -15.8090   25.3647 N   0  0  0  0  0  0  0  0  0  0  0  0
    5.0259  -14.6689   25.9709 C   0  0  0  0  0  0  0  0  0  0  0  0
    5.9251  -13.7068   25.7350 C   0  0  0  0  0  0  0  0  0  0  0  0
    5.9840  -12.3655   26.1446 C   0  0  0  0  0  0  0  0  0  0  0  0
    7.0602  -11.6161   25.7219 C   0  0  0  0  0  0  0  0  0  0  0  0
    8.0538  -12.1450   24.9251 C   0  0  0  0  0  0  0  0  0  0  0  0
    7.9975  -13.4839   24.5148 C   0  0  0  0  0  0  0  0  0  0  0  0
    6.9124  -14.2373   24.9424 C   0  0  0  0  0  0  0  0  0  0  0  0
    9.8237  -16.0423   24.1993 O   0  0  0  0  0  0  0  0  0  0  0  0
   10.7442  -16.9025   23.9337 C   0  0  0  0  0  0  0  0  0  0  0  0
   11.7348  -15.0840   31.7054 S   0  0  0  0  0  0  0  0  0  0  0  0
   10.7817  -14.3713   30.3287 C   0  0  0  0  0  0  0  0  0  0  0  0
   11.3113  -15.2556   28.7997 C   0  0  0  0  0  0  0  0  0  0  0  0
   10.4905  -14.7949   27.6329 C   0  0  1  0  0  0  0  0  0  0  0  0
   10.8593  -15.5620   26.3976 N   0  0  0  0  0  0  0  0  0  0  0  0
    9.9513  -15.1928   25.3010 C   0  0  0  0  0  0  0  0  0  0  0  0
   10.8279  -17.0283   26.5402 O   0  0  0  0  0  0  0  0  0  0  0  0
   11.9322  -17.8331   26.6848 O   0  0  0  0  0  0  0  0  0  0  0  0
  2  1  1  0
  3  2  2  0
  4  2  1  0
  5  4  1  0
  6  5  1  0
  7  6  1  0
  7  8  1  0
  8  9  1  6
 10  8  1  0
 11 10  2  0
 12 10  1  0
 13 24  1  0
 13 12  1  0
 13 14  1  1
 15 23  1  0
 15 14  1  0
 16 15  2  0
 17 16  1  0
 17 18  1  0
 18 23  2  0
 19 18  1  0
 19 20  2  0
 20 21  1  0
 21 22  2  0
 23 22  1  0
 24 31  1  0
 25 24  2  0
 27 28  1  0
 27 26  1  0
 28 29  1  0
 30 29  1  6
 30 32  1  0
 31 30  1  0
 32 33  1  0
 34 32  2  0
M  END
$$$$
