RWM.pdb
     RDKit          3D

 34 35  0  0  1  0  0  0  0  0999 V2000
   12.4546  -17.1217   15.3624 N   0  0  0  0  0  0  0  0  0  0  0  0
   11.2319  -17.0665   14.5947 C   0  0  0  0  0  0  0  0  0  0  0  0
   11.2398  -16.9104   13.3161 N   0  0  0  0  0  0  0  0  0  0  0  0
    9.9718  -17.2021   15.2118 N   0  0  0  0  0  0  0  0  0  0  0  0
    9.7565  -17.0172   16.6194 C   0  0  0  0  0  0  0  0  0  0  0  0
   10.5384  -15.9277   17.2477 C   0  0  0  0  0  0  0  0  0  0  0  0
   10.3083  -15.5680   18.6560 C   0  0  0  0  0  0  0  0  0  0  0  0
    8.9973  -14.9464   18.9995 C   0  0  2  0  0  0  0  0  0  0  0  0
    8.6343  -13.7410   18.3840 N   0  0  0  0  0  0  0  0  0  0  0  0
    8.9456  -14.7872   20.4994 C   0  0  0  0  0  0  0  0  0  0  0  0
    9.3777  -13.6972   21.0184 O   0  0  0  0  0  0  0  0  0  0  0  0
   10.3611  -16.8642   12.7706 N   0  0  0  0  0  0  0  0  0  0  0  0
    8.4555  -15.7517   21.3904 C   0  0  1  0  0  0  0  0  0  0  0  0
    8.2647  -15.4416   22.8054 C   0  0  0  0  0  0  0  0  0  0  0  0
    7.1166  -16.1019   23.4460 C   0  0  0  0  0  0  0  0  0  0  0  0
    6.3994  -15.2994   24.4783 C   0  0  0  0  0  0  0  0  0  0  0  0
    5.2960  -15.6257   25.2166 N   0  0  0  0  0  0  0  0  0  0  0  0
    5.0012  -14.5802   26.0010 C   0  0  0  0  0  0  0  0  0  0  0  0
    5.8697  -13.5821   25.8027 C   0  0  0  0  0  0  0  0  0  0  0  0
    5.9689  -12.3052   26.3771 C   0  0  0  0  0  0  0  0  0  0  0  0
    6.9945  -11.4909   25.9485 C   0  0  0  0  0  0  0  0  0  0  0  0
    7.9009  -11.8961   24.9915 C   0  0  0  0  0  0  0  0  0  0  0  0
    7.8043  -13.1706   24.4166 C   0  0  0  0  0  0  0  0  0  0  0  0
    6.7703  -13.9896   24.8503 C   0  0  0  0  0  0  0  0  0  0  0  0
    9.6027  -15.6811   23.4159 O   0  0  0  0  0  0  0  0  0  0  0  0
   10.4817  -16.3594   22.7639 C   0  0  0  0  0  0  0  0  0  0  0  0
   11.0426  -15.4149   30.1166 S   0  0  0  0  0  0  0  0  0  0  0  0
   12.4430  -14.7511   29.1627 C   0  0  0  0  0  0  0  0  0  0  0  0
   12.3695  -15.5324   27.4941 C   0  0  0  0  0  0  0  0  0  0  0  0
   11.1761  -15.0228   26.7435 C   0  0  1  0  0  0  0  0  0  0  0  0
   11.1185  -15.6333   25.3744 N   0  0  0  0  0  0  0  0  0  0  0  0
    9.9003  -15.1803   24.6857 C   0  0  0  0  0  0  0  0  0  0  0  0
   11.1361  -17.1064   25.3461 O   0  0  0  0  0  0  0  0  0  0  0  0
   10.0404  -17.9146   25.5317 O   0  0  0  0  0  0  0  0  0  0  0  0
  2  1  1  0
  3  2  2  0
  4  2  1  0
  5  4  1  0
  6  5  1  0
  7  6  1  0
  7  8  1  0
  8  9  1  6
 10  8  1  0
 11 10  2  0
 12 10  1  0
 13 24  1  0
 13 12  1  0
 13 14  1  1
 15 23  1  0
 15 14  1  0
 16 15  2  0
 17 16  1  0
 17 18  1  0
 18 23  2  0
 19 18  1  0
 19 20  2  0
 20 21  1  0
 21 22  2  0
 23 22  1  0
 24 31  1  0
 25 24  2  0
 27 28  1  0
 27 26  1  0
 28 29  1  0
 30 29  1  6
 30 32  1  0
 31 30  1  0
 32 33  1  0
 34 32  2  0
M  END
$$$$
