RWM.pdb
     RDKit          3D

 34 35  0  0  1  0  0  0  0  0999 V2000
   15.3742  -18.7358   15.6864 N   0  0  0  0  0  0  0  0  0  0  0  0
   15.4802  -19.1513   17.0661 C   0  0  0  0  0  0  0  0  0  0  0  0
   16.6075  -19.4932   17.5872 N   0  0  0  0  0  0  0  0  0  0  0  0
   14.3527  -19.1814   17.9115 N   0  0  0  0  0  0  0  0  0  0  0  0
   13.0018  -19.0980   17.4317 C   0  0  0  0  0  0  0  0  0  0  0  0
   12.2347  -17.9151   17.8849 C   0  0  0  0  0  0  0  0  0  0  0  0
   11.9209  -17.7382   19.3118 C   0  0  0  0  0  0  0  0  0  0  0  0
   10.5554  -18.1275   19.7669 C   0  0  2  0  0  0  0  0  0  0  0  0
    9.5123  -18.1658   18.8320 N   0  0  0  0  0  0  0  0  0  0  0  0
   10.1788  -17.2193   20.9120 C   0  0  0  0  0  0  0  0  0  0  0  0
   10.5177  -15.9839   20.8555 O   0  0  0  0  0  0  0  0  0  0  0  0
   16.6767  -19.8042   18.5723 N   0  0  0  0  0  0  0  0  0  0  0  0
    9.4762  -17.6223   22.0558 C   0  0  1  0  0  0  0  0  0  0  0  0
    9.1240  -16.6630   23.1000 C   0  0  0  0  0  0  0  0  0  0  0  0
    7.7062  -16.6512   23.4928 C   0  0  0  0  0  0  0  0  0  0  0  0
    7.1142  -15.3062   23.7464 C   0  0  0  0  0  0  0  0  0  0  0  0
    6.2382  -14.5873   22.9816 N   0  0  0  0  0  0  0  0  0  0  0  0
    6.0050  -13.4245   23.6053 C   0  0  0  0  0  0  0  0  0  0  0  0
    6.6961  -13.3557   24.7487 C   0  0  0  0  0  0  0  0  0  0  0  0
    6.7810  -12.3531   25.7274 C   0  0  0  0  0  0  0  0  0  0  0  0
    7.6019  -12.5857   26.8094 C   0  0  0  0  0  0  0  0  0  0  0  0
    8.3223  -13.7537   26.9449 C   0  0  0  0  0  0  0  0  0  0  0  0
    8.2392  -14.7565   25.9693 C   0  0  0  0  0  0  0  0  0  0  0  0
    7.4111  -14.5201   24.8802 C   0  0  0  0  0  0  0  0  0  0  0  0
   10.1174  -16.9179   24.1809 O   0  0  0  0  0  0  0  0  0  0  0  0
   10.5152  -18.1225   24.4014 C   0  0  0  0  0  0  0  0  0  0  0  0
   10.3595  -14.5553   31.4772 S   0  0  0  0  0  0  0  0  0  0  0  0
    9.8883  -14.1425   29.7687 C   0  0  0  0  0  0  0  0  0  0  0  0
   10.7274  -15.3662   28.6738 C   0  0  0  0  0  0  0  0  0  0  0  0
   10.3893  -15.0854   27.2406 C   0  0  1  0  0  0  0  0  0  0  0  0
   11.0162  -16.1117   26.3439 N   0  0  0  0  0  0  0  0  0  0  0  0
   10.6093  -15.8622   24.9526 C   0  0  0  0  0  0  0  0  0  0  0  0
   10.6876  -17.5106   26.6701 O   0  0  0  0  0  0  0  0  0  0  0  0
    9.4237  -18.0496   26.6598 O   0  0  0  0  0  0  0  0  0  0  0  0
  2  1  1  0
  3  2  2  0
  4  2  1  0
  5  4  1  0
  6  5  1  0
  7  6  1  0
  7  8  1  0
  8  9  1  6
 10  8  1  0
 11 10  2  0
 12 10  1  0
 13 24  1  0
 13 12  1  0
 13 14  1  1
 15 23  1  0
 15 14  1  0
 16 15  2  0
 17 16  1  0
 17 18  1  0
 18 23  2  0
 19 18  1  0
 19 20  2  0
 20 21  1  0
 21 22  2  0
 23 22  1  0
 24 31  1  0
 25 24  2  0
 27 28  1  0
 27 26  1  0
 28 29  1  0
 30 29  1  6
 30 32  1  0
 31 30  1  0
 32 33  1  0
 34 32  2  0
M  END
$$$$
