RWM.pdb
     RDKit          3D

 34 35  0  0  1  0  0  0  0  0999 V2000
   12.5046  -18.1013   16.2779 N   0  0  0  0  0  0  0  0  0  0  0  0
   13.0263  -19.3244   16.8431 C   0  0  0  0  0  0  0  0  0  0  0  0
   13.8212  -20.0926   16.1820 N   0  0  0  0  0  0  0  0  0  0  0  0
   12.7026  -19.7217   18.1563 N   0  0  0  0  0  0  0  0  0  0  0  0
   11.8384  -18.9679   19.0205 C   0  0  0  0  0  0  0  0  0  0  0  0
   10.3872  -19.1399   18.7809 C   0  0  0  0  0  0  0  0  0  0  0  0
    9.5255  -19.7075   19.8303 C   0  0  0  0  0  0  0  0  0  0  0  0
    9.9903  -19.5819   21.2414 C   0  0  2  0  0  0  0  0  0  0  0  0
    9.3780  -20.3625   22.2310 N   0  0  0  0  0  0  0  0  0  0  0  0
    9.9093  -18.1236   21.6215 C   0  0  0  0  0  0  0  0  0  0  0  0
   10.8122  -17.3230   21.1879 O   0  0  0  0  0  0  0  0  0  0  0  0
   14.2066  -20.9592   16.5970 N   0  0  0  0  0  0  0  0  0  0  0  0
    8.9095  -17.5602   22.4261 C   0  0  1  0  0  0  0  0  0  0  0  0
    8.8718  -16.1227   22.6843 C   0  0  0  0  0  0  0  0  0  0  0  0
    7.5301  -15.5533   22.8847 C   0  0  0  0  0  0  0  0  0  0  0  0
    7.4848  -14.1010   23.2202 C   0  0  0  0  0  0  0  0  0  0  0  0
    7.8321  -13.0237   22.4535 N   0  0  0  0  0  0  0  0  0  0  0  0
    7.6411  -11.9181   23.1860 C   0  0  0  0  0  0  0  0  0  0  0  0
    7.1827  -12.2319   24.4030 C   0  0  0  0  0  0  0  0  0  0  0  0
    6.8427  -11.4324   25.5055 C   0  0  0  0  0  0  0  0  0  0  0  0
    6.3964  -12.0701   26.6425 C   0  0  0  0  0  0  0  0  0  0  0  0
    6.2808  -13.4423   26.7155 C   0  0  0  0  0  0  0  0  0  0  0  0
    6.6194  -14.2429   25.6162 C   0  0  0  0  0  0  0  0  0  0  0  0
    7.0684  -13.5981   24.4714 C   0  0  0  0  0  0  0  0  0  0  0  0
    9.8566  -15.9228   23.7845 O   0  0  0  0  0  0  0  0  0  0  0  0
   10.2025  -14.7266   24.1123 C   0  0  0  0  0  0  0  0  0  0  0  0
   10.1232  -13.2158   28.4976 S   0  0  0  0  0  0  0  0  0  0  0  0
   10.0418  -14.9116   29.1526 C   0  0  0  0  0  0  0  0  0  0  0  0
   11.0189  -15.9738   28.0049 C   0  0  0  0  0  0  0  0  0  0  0  0
   10.2973  -16.1125   26.6982 C   0  0  1  0  0  0  0  0  0  0  0  0
   11.1654  -16.8085   25.6919 N   0  0  0  0  0  0  0  0  0  0  0  0
   10.4047  -17.0213   24.4511 C   0  0  0  0  0  0  0  0  0  0  0  0
   11.7032  -18.1102   26.1249 O   0  0  0  0  0  0  0  0  0  0  0  0
   11.4817  -19.3086   25.4900 O   0  0  0  0  0  0  0  0  0  0  0  0
  2  1  1  0
  3  2  2  0
  4  2  1  0
  5  4  1  0
  6  5  1  0
  7  6  1  0
  7  8  1  0
  8  9  1  1
 10  8  1  0
 11 10  2  0
 12 10  1  0
 13 24  1  0
 13 12  1  0
 13 14  1  1
 15 23  1  0
 15 14  1  0
 16 15  2  0
 17 16  1  0
 17 18  1  0
 18 23  2  0
 19 18  1  0
 19 20  2  0
 20 21  1  0
 21 22  2  0
 23 22  1  0
 24 31  1  0
 25 24  2  0
 27 28  1  0
 27 26  1  0
 28 29  1  0
 30 29  1  6
 30 32  1  0
 31 30  1  0
 32 33  1  0
 34 32  2  0
M  END
$$$$
