RWM.pdb
     RDKit          3D

 34 35  0  0  1  0  0  0  0  0999 V2000
    8.5412  -12.4080   16.6290 N   0  0  0  0  0  0  0  0  0  0  0  0
    7.7872  -13.1397   17.6208 C   0  0  0  0  0  0  0  0  0  0  0  0
    7.2052  -12.5462   18.6049 N   0  0  0  0  0  0  0  0  0  0  0  0
    7.6380  -14.5392   17.5430 N   0  0  0  0  0  0  0  0  0  0  0  0
    8.6565  -15.4669   17.9478 C   0  0  0  0  0  0  0  0  0  0  0  0
    9.4558  -15.0637   19.1275 C   0  0  0  0  0  0  0  0  0  0  0  0
   10.6131  -15.8694   19.5484 C   0  0  0  0  0  0  0  0  0  0  0  0
   10.3427  -17.0718   20.3877 C   0  0  2  0  0  0  0  0  0  0  0  0
    9.2545  -17.8942   20.0668 N   0  0  0  0  0  0  0  0  0  0  0  0
   10.2280  -16.6127   21.8208 C   0  0  0  0  0  0  0  0  0  0  0  0
   10.9243  -15.6059   22.2027 O   0  0  0  0  0  0  0  0  0  0  0  0
    6.6156  -13.0660   19.2786 N   0  0  0  0  0  0  0  0  0  0  0  0
    9.4079  -17.2080   22.7890 C   0  0  1  0  0  0  0  0  0  0  0  0
    9.3420  -16.6780   24.1489 C   0  0  0  0  0  0  0  0  0  0  0  0
    8.1424  -17.0527   24.9139 C   0  0  0  0  0  0  0  0  0  0  0  0
    7.0729  -16.0165   24.9926 C   0  0  0  0  0  0  0  0  0  0  0  0
    5.7149  -16.1733   25.0147 N   0  0  0  0  0  0  0  0  0  0  0  0
    5.1604  -14.9548   25.0705 C   0  0  0  0  0  0  0  0  0  0  0  0
    6.1045  -14.0071   25.0849 C   0  0  0  0  0  0  0  0  0  0  0  0
    6.0187  -12.6069   25.1334 C   0  0  0  0  0  0  0  0  0  0  0  0
    7.1985  -11.8951   25.1301 C   0  0  0  0  0  0  0  0  0  0  0  0
    8.4289  -12.5160   25.0811 C   0  0  0  0  0  0  0  0  0  0  0  0
    8.5173  -13.9138   25.0328 C   0  0  0  0  0  0  0  0  0  0  0  0
    7.3272  -14.6290   25.0367 C   0  0  0  0  0  0  0  0  0  0  0  0
   10.6584  -17.0389   24.7463 O   0  0  0  0  0  0  0  0  0  0  0  0
   11.5228  -17.6728   24.0329 C   0  0  0  0  0  0  0  0  0  0  0  0
   10.9384  -13.1094   28.9234 S   0  0  0  0  0  0  0  0  0  0  0  0
   11.5544  -14.6042   29.7587 C   0  0  0  0  0  0  0  0  0  0  0  0
   11.2252  -16.0217   28.6262 C   0  0  0  0  0  0  0  0  0  0  0  0
   12.4892  -16.4197   27.9253 C   0  0  1  0  0  0  0  0  0  0  0  0
   12.1764  -17.2197   26.6954 N   0  0  0  0  0  0  0  0  0  0  0  0
   10.9517  -16.6987   26.0692 C   0  0  0  0  0  0  0  0  0  0  0  0
   11.9935  -18.6645   26.9198 O   0  0  0  0  0  0  0  0  0  0  0  0
   10.7864  -19.3210   26.9050 O   0  0  0  0  0  0  0  0  0  0  0  0
  2  1  1  0
  3  2  2  0
  4  2  1  0
  5  4  1  0
  6  5  1  0
  7  6  1  0
  7  8  1  0
  8  9  1  6
 10  8  1  0
 11 10  2  0
 12 10  1  0
 13 24  1  0
 13 12  1  0
 13 14  1  1
 15 23  1  0
 15 14  1  0
 16 15  2  0
 17 16  1  0
 17 18  1  0
 18 23  2  0
 19 18  1  0
 19 20  2  0
 20 21  1  0
 21 22  2  0
 23 22  1  0
 24 31  1  0
 25 24  2  0
 27 28  1  0
 27 26  1  0
 28 29  1  0
 30 29  1  6
 30 32  1  0
 31 30  1  0
 32 33  1  0
 34 32  2  0
M  END
$$$$
