RWM.pdb
     RDKit          3D

 34 35  0  0  1  0  0  0  0  0999 V2000
    7.8574  -14.2144   12.3902 N   0  0  0  0  0  0  0  0  0  0  0  0
    8.0408  -14.8106   13.6934 C   0  0  0  0  0  0  0  0  0  0  0  0
    7.7041  -16.0302   13.9352 N   0  0  0  0  0  0  0  0  0  0  0  0
    8.6175  -14.0865   14.7564 N   0  0  0  0  0  0  0  0  0  0  0  0
    8.7933  -14.6244   16.0762 C   0  0  0  0  0  0  0  0  0  0  0  0
    8.0132  -13.9606   17.1458 C   0  0  0  0  0  0  0  0  0  0  0  0
    8.6708  -13.5527   18.3976 C   0  0  0  0  0  0  0  0  0  0  0  0
    9.5716  -14.5435   19.0533 C   0  0  2  0  0  0  0  0  0  0  0  0
    9.4839  -15.8919   18.6824 N   0  0  0  0  0  0  0  0  0  0  0  0
    9.3854  -14.4135   20.5453 C   0  0  0  0  0  0  0  0  0  0  0  0
    9.4965  -13.2538   21.0812 O   0  0  0  0  0  0  0  0  0  0  0  0
    7.8814  -16.4686   14.8562 N   0  0  0  0  0  0  0  0  0  0  0  0
    9.0964  -15.4764   21.4118 C   0  0  2  0  0  0  0  0  0  0  0  0
    8.6238  -15.2316   22.7725 C   0  0  0  0  0  0  0  0  0  0  0  0
    7.1872  -15.4612   22.9916 C   0  0  0  0  0  0  0  0  0  0  0  0
    6.6757  -15.1227   24.3509 C   0  0  0  0  0  0  0  0  0  0  0  0
    5.9738  -15.8992   25.2303 N   0  0  0  0  0  0  0  0  0  0  0  0
    5.7151  -15.1596   26.3172 C   0  0  0  0  0  0  0  0  0  0  0  0
    6.2206  -13.9284   26.1813 C   0  0  0  0  0  0  0  0  0  0  0  0
    6.2033  -12.8144   27.0351 C   0  0  0  0  0  0  0  0  0  0  0  0
    6.8213  -11.6640   26.5953 C   0  0  0  0  0  0  0  0  0  0  0  0
    7.4397  -11.5888   25.3649 C   0  0  0  0  0  0  0  0  0  0  0  0
    7.4586  -12.6996   24.5107 C   0  0  0  0  0  0  0  0  0  0  0  0
    6.8356  -13.8579   24.9561 C   0  0  0  0  0  0  0  0  0  0  0  0
    9.5652  -16.0040   23.6312 O   0  0  0  0  0  0  0  0  0  0  0  0
   10.2385  -16.9732   23.1164 C   0  0  0  0  0  0  0  0  0  0  0  0
   11.9215  -13.6052   29.0263 S   0  0  0  0  0  0  0  0  0  0  0  0
   12.1801  -15.3558   29.4506 C   0  0  0  0  0  0  0  0  0  0  0  0
   11.9544  -16.3203   27.8953 C   0  0  0  0  0  0  0  0  0  0  0  0
   10.7161  -15.8621   27.1853 C   0  0  2  0  0  0  0  0  0  0  0  0
   10.6483  -16.4611   25.8115 N   0  0  0  0  0  0  0  0  0  0  0  0
    9.7128  -15.6849   24.9832 C   0  0  0  0  0  0  0  0  0  0  0  0
   10.2320  -17.8737   25.7657 O   0  0  0  0  0  0  0  0  0  0  0  0
   11.0852  -18.9480   25.6870 O   0  0  0  0  0  0  0  0  0  0  0  0
  2  1  1  0
  3  2  2  0
  4  2  1  0
  5  4  1  0
  6  5  1  0
  7  6  1  0
  7  8  1  0
  8  9  1  6
 10  8  1  0
 11 10  2  0
 12 10  1  0
 13 24  1  0
 13 12  1  0
 13 14  1  6
 15 23  1  0
 15 14  1  0
 16 15  2  0
 17 16  1  0
 17 18  1  0
 18 23  2  0
 19 18  1  0
 19 20  2  0
 20 21  1  0
 21 22  2  0
 23 22  1  0
 24 31  1  0
 25 24  2  0
 27 28  1  0
 27 26  1  0
 28 29  1  0
 30 29  1  6
 30 32  1  0
 31 30  1  0
 32 33  1  0
 34 32  2  0
M  END
$$$$
