RWM.pdb
     RDKit          3D

 34 35  0  0  1  0  0  0  0  0999 V2000
    7.0785  -13.0057   13.1175 N   0  0  0  0  0  0  0  0  0  0  0  0
    8.0107  -13.9092   13.7516 C   0  0  0  0  0  0  0  0  0  0  0  0
    8.3995  -14.9954   13.1787 N   0  0  0  0  0  0  0  0  0  0  0  0
    8.5535  -13.6299   15.0222 N   0  0  0  0  0  0  0  0  0  0  0  0
    9.5270  -14.4654   15.6674 C   0  0  0  0  0  0  0  0  0  0  0  0
    8.9857  -15.4471   16.6350 C   0  0  0  0  0  0  0  0  0  0  0  0
    9.0199  -15.1607   18.0781 C   0  0  0  0  0  0  0  0  0  0  0  0
    9.5997  -16.2049   18.9707 C   0  0  2  0  0  0  0  0  0  0  0  0
    9.1752  -17.5327   18.8290 N   0  0  0  0  0  0  0  0  0  0  0  0
    9.3928  -15.7543   20.3961 C   0  0  0  0  0  0  0  0  0  0  0  0
    9.8840  -14.6282   20.7636 O   0  0  0  0  0  0  0  0  0  0  0  0
    9.1035  -15.6162   13.6156 N   0  0  0  0  0  0  0  0  0  0  0  0
    8.6952  -16.4793   21.3718 C   0  0  1  0  0  0  0  0  0  0  0  0
    8.3755  -15.8840   22.6672 C   0  0  0  0  0  0  0  0  0  0  0  0
    6.9962  -16.0939   23.1342 C   0  0  0  0  0  0  0  0  0  0  0  0
    6.6671  -15.5138   24.4679 C   0  0  0  0  0  0  0  0  0  0  0  0
    6.2552  -16.1442   25.6090 N   0  0  0  0  0  0  0  0  0  0  0  0
    6.0619  -15.2095   26.5493 C   0  0  0  0  0  0  0  0  0  0  0  0
    6.3311  -13.9914   26.0659 C   0  0  0  0  0  0  0  0  0  0  0  0
    6.2735  -12.7201   26.6581 C   0  0  0  0  0  0  0  0  0  0  0  0
    6.6153  -11.6369   25.8780 C   0  0  0  0  0  0  0  0  0  0  0  0
    7.0023  -11.7749   24.5616 C   0  0  0  0  0  0  0  0  0  0  0  0
    7.0609  -13.0430   23.9679 C   0  0  0  0  0  0  0  0  0  0  0  0
    6.7165  -14.1331   24.7561 C   0  0  0  0  0  0  0  0  0  0  0  0
    9.4669  -16.3551   23.5656 O   0  0  0  0  0  0  0  0  0  0  0  0
   10.2006  -17.3482   23.2003 C   0  0  0  0  0  0  0  0  0  0  0  0
   10.8245  -13.4252   29.0490 S   0  0  0  0  0  0  0  0  0  0  0  0
   12.0352  -14.7619   29.2923 C   0  0  0  0  0  0  0  0  0  0  0  0
   11.9019  -15.8749   27.8282 C   0  0  0  0  0  0  0  0  0  0  0  0
   10.7963  -15.4074   26.9302 C   0  0  1  0  0  0  0  0  0  0  0  0
   10.7903  -16.1951   25.6534 N   0  0  0  0  0  0  0  0  0  0  0  0
    9.6897  -15.7305   24.7952 C   0  0  0  0  0  0  0  0  0  0  0  0
   10.6537  -17.6528   25.8192 O   0  0  0  0  0  0  0  0  0  0  0  0
   11.5525  -18.5883   25.3664 O   0  0  0  0  0  0  0  0  0  0  0  0
  2  1  1  0
  3  2  2  0
  4  2  1  0
  5  4  1  0
  6  5  1  0
  7  6  1  0
  7  8  1  0
  8  9  1  1
 10  8  1  0
 11 10  2  0
 12 10  1  0
 13 24  1  0
 13 12  1  0
 13 14  1  1
 15 23  1  0
 15 14  1  0
 16 15  2  0
 17 16  1  0
 17 18  1  0
 18 23  2  0
 19 18  1  0
 19 20  2  0
 20 21  1  0
 21 22  2  0
 23 22  1  0
 24 31  1  0
 25 24  2  0
 27 28  1  0
 27 26  1  0
 28 29  1  0
 30 29  1  6
 30 32  1  0
 31 30  1  0
 32 33  1  0
 34 32  2  0
M  END
$$$$
