RWM.pdb
     RDKit          3D

 34 35  0  0  1  0  0  0  0  0999 V2000
   15.2488  -19.5390   15.7533 N   0  0  0  0  0  0  0  0  0  0  0  0
   15.6616  -19.9202   17.0843 C   0  0  0  0  0  0  0  0  0  0  0  0
   16.8981  -20.1323   17.3767 N   0  0  0  0  0  0  0  0  0  0  0  0
   14.7273  -20.0572   18.1308 N   0  0  0  0  0  0  0  0  0  0  0  0
   13.3153  -20.2059   17.9161 C   0  0  0  0  0  0  0  0  0  0  0  0
   12.4587  -19.1936   18.5752 C   0  0  0  0  0  0  0  0  0  0  0  0
   11.7386  -19.5267   19.8147 C   0  0  0  0  0  0  0  0  0  0  0  0
   10.3054  -19.1253   19.9040 C   0  0  2  0  0  0  0  0  0  0  0  0
    9.6087  -18.8250   18.7259 N   0  0  0  0  0  0  0  0  0  0  0  0
   10.2156  -17.9600   20.8590 C   0  0  0  0  0  0  0  0  0  0  0  0
   11.0513  -16.9955   20.7341 O   0  0  0  0  0  0  0  0  0  0  0  0
   17.1914  -20.3899   18.3355 N   0  0  0  0  0  0  0  0  0  0  0  0
    9.2764  -17.8425   21.8926 C   0  0  1  0  0  0  0  0  0  0  0  0
    9.1721  -16.6157   22.6792 C   0  0  0  0  0  0  0  0  0  0  0  0
    7.8415  -15.9880   22.6945 C   0  0  0  0  0  0  0  0  0  0  0  0
    7.7886  -14.5916   23.2153 C   0  0  0  0  0  0  0  0  0  0  0  0
    8.2971  -13.4447   22.6721 N   0  0  0  0  0  0  0  0  0  0  0  0
    8.0216  -12.4352   23.5089 C   0  0  0  0  0  0  0  0  0  0  0  0
    7.3527  -12.8788   24.5791 C   0  0  0  0  0  0  0  0  0  0  0  0
    6.8571  -12.2121   25.7107 C   0  0  0  0  0  0  0  0  0  0  0  0
    6.2029  -12.9666   26.6600 C   0  0  0  0  0  0  0  0  0  0  0  0
    6.0306  -14.3280   26.5229 C   0  0  0  0  0  0  0  0  0  0  0  0
    6.5241  -14.9960   25.3941 C   0  0  0  0  0  0  0  0  0  0  0  0
    7.1827  -14.2336   24.4386 C   0  0  0  0  0  0  0  0  0  0  0  0
    9.7583  -16.9775   24.0005 O   0  0  0  0  0  0  0  0  0  0  0  0
    9.4476  -18.1038   24.5417 C   0  0  0  0  0  0  0  0  0  0  0  0
    8.4783  -13.7825   29.3176 S   0  0  0  0  0  0  0  0  0  0  0  0
   10.2967  -13.7758   29.2475 C   0  0  0  0  0  0  0  0  0  0  0  0
   10.7997  -15.2825   28.3111 C   0  0  0  0  0  0  0  0  0  0  0  0
   10.5939  -15.0636   26.8424 C   0  0  1  0  0  0  0  0  0  0  0  0
   10.9343  -16.3068   26.0748 N   0  0  0  0  0  0  0  0  0  0  0  0
   10.6321  -16.1021   24.6499 C   0  0  0  0  0  0  0  0  0  0  0  0
   10.2349  -17.5256   26.5177 O   0  0  0  0  0  0  0  0  0  0  0  0
   10.8232  -18.5835   27.1680 O   0  0  0  0  0  0  0  0  0  0  0  0
  2  1  1  0
  3  2  2  0
  4  2  1  0
  5  4  1  0
  6  5  1  0
  7  6  1  0
  7  8  1  0
  8  9  1  6
 10  8  1  0
 11 10  2  0
 12 10  1  0
 13 24  1  0
 13 12  1  0
 13 14  1  1
 15 23  1  0
 15 14  1  0
 16 15  2  0
 17 16  1  0
 17 18  1  0
 18 23  2  0
 19 18  1  0
 19 20  2  0
 20 21  1  0
 21 22  2  0
 23 22  1  0
 24 31  1  0
 25 24  2  0
 27 28  1  0
 27 26  1  0
 28 29  1  0
 30 29  1  6
 30 32  1  0
 31 30  1  0
 32 33  1  0
 34 32  2  0
M  END
$$$$
