RWM.pdb
     RDKit          3D

 34 35  0  0  1  0  0  0  0  0999 V2000
    8.5400  -13.1498   17.1042 N   0  0  0  0  0  0  0  0  0  0  0  0
    8.6668  -13.6264   15.7462 C   0  0  0  0  0  0  0  0  0  0  0  0
    9.2136  -12.9118   14.8244 N   0  0  0  0  0  0  0  0  0  0  0  0
    8.2137  -14.9081   15.3736 N   0  0  0  0  0  0  0  0  0  0  0  0
    7.5523  -15.8069   16.2773 C   0  0  0  0  0  0  0  0  0  0  0  0
    8.4121  -16.4113   17.3206 C   0  0  0  0  0  0  0  0  0  0  0  0
    7.9170  -17.5387   18.1266 C   0  0  0  0  0  0  0  0  0  0  0  0
    8.8170  -18.0679   19.1911 C   0  0  2  0  0  0  0  0  0  0  0  0
    8.4012  -19.1728   19.9459 N   0  0  0  0  0  0  0  0  0  0  0  0
    9.1585  -16.9222   20.1124 C   0  0  0  0  0  0  0  0  0  0  0  0
    9.7181  -15.8799   19.6178 O   0  0  0  0  0  0  0  0  0  0  0  0
    9.3079  -13.2596   13.8539 N   0  0  0  0  0  0  0  0  0  0  0  0
    8.9108  -16.9028   21.4917 C   0  0  1  0  0  0  0  0  0  0  0  0
    9.2696  -15.7432   22.3049 C   0  0  0  0  0  0  0  0  0  0  0  0
    8.1637  -14.8232   22.6134 C   0  0  0  0  0  0  0  0  0  0  0  0
    7.5366  -14.9894   23.9562 C   0  0  0  0  0  0  0  0  0  0  0  0
    7.1098  -16.1299   24.5776 N   0  0  0  0  0  0  0  0  0  0  0  0
    6.5952  -15.7839   25.7654 C   0  0  0  0  0  0  0  0  0  0  0  0
    6.6688  -14.4600   25.9438 C   0  0  0  0  0  0  0  0  0  0  0  0
    6.2641  -13.6391   27.0080 C   0  0  0  0  0  0  0  0  0  0  0  0
    6.4778  -12.2835   26.8850 C   0  0  0  0  0  0  0  0  0  0  0  0
    7.0659  -11.7330   25.7657 C   0  0  0  0  0  0  0  0  0  0  0  0
    7.4711  -12.5503   24.7018 C   0  0  0  0  0  0  0  0  0  0  0  0
    7.2553  -13.9161   24.8282 C   0  0  0  0  0  0  0  0  0  0  0  0
   10.0034  -16.3229   23.4649 O   0  0  0  0  0  0  0  0  0  0  0  0
   10.7283  -17.3730   23.2923 C   0  0  0  0  0  0  0  0  0  0  0  0
    8.7046  -14.1383   29.2234 S   0  0  0  0  0  0  0  0  0  0  0  0
   10.4016  -13.5543   28.9225 C   0  0  0  0  0  0  0  0  0  0  0  0
   10.9356  -14.2749   27.3114 C   0  0  0  0  0  0  0  0  0  0  0  0
   10.3039  -15.6208   27.1195 C   0  0  2  0  0  0  0  0  0  0  0  0
   10.7528  -16.2300   25.8241 N   0  0  0  0  0  0  0  0  0  0  0  0
    9.9027  -15.7375   24.7294 C   0  0  0  0  0  0  0  0  0  0  0  0
   10.7346  -17.7029   25.7870 O   0  0  0  0  0  0  0  0  0  0  0  0
    9.6583  -18.4718   25.4146 O   0  0  0  0  0  0  0  0  0  0  0  0
  2  1  1  0
  3  2  2  0
  4  2  1  0
  5  4  1  0
  6  5  1  0
  7  6  1  0
  7  8  1  0
  8  9  1  1
 10  8  1  0
 11 10  2  0
 12 10  1  0
 13 24  1  0
 13 12  1  0
 13 14  1  1
 15 23  1  0
 15 14  1  0
 16 15  2  0
 17 16  1  0
 17 18  1  0
 18 23  2  0
 19 18  1  0
 19 20  2  0
 20 21  1  0
 21 22  2  0
 23 22  1  0
 24 31  1  0
 25 24  2  0
 27 28  1  0
 27 26  1  0
 28 29  1  0
 30 29  1  6
 30 32  1  0
 31 30  1  0
 32 33  1  0
 34 32  2  0
M  END
$$$$
