RWM.pdb
     RDKit          3D

 34 35  0  0  1  0  0  0  0  0999 V2000
   10.3841  -21.5713   19.2874 N   0  0  0  0  0  0  0  0  0  0  0  0
   11.2810  -21.7535   20.4053 C   0  0  0  0  0  0  0  0  0  0  0  0
   10.9412  -22.4354   21.4439 N   0  0  0  0  0  0  0  0  0  0  0  0
   12.5805  -21.2074   20.3993 N   0  0  0  0  0  0  0  0  0  0  0  0
   12.9350  -20.0172   19.6783 C   0  0  0  0  0  0  0  0  0  0  0  0
   12.2560  -18.7772   20.1189 C   0  0  0  0  0  0  0  0  0  0  0  0
   11.7785  -17.8015   19.1260 C   0  0  0  0  0  0  0  0  0  0  0  0
   10.3232  -17.4772   19.1282 C   0  0  2  0  0  0  0  0  0  0  0  0
    9.7753  -16.8019   18.0294 N   0  0  0  0  0  0  0  0  0  0  0  0
   10.0272  -16.7117   20.3948 C   0  0  0  0  0  0  0  0  0  0  0  0
   10.3507  -15.4723   20.4553 O   0  0  0  0  0  0  0  0  0  0  0  0
   11.5874  -22.5642   22.2425 N   0  0  0  0  0  0  0  0  0  0  0  0
    9.4167  -17.2539   21.5339 C   0  0  2  0  0  0  0  0  0  0  0  0
    9.0096  -16.4010   22.6481 C   0  0  0  0  0  0  0  0  0  0  0  0
    7.5575  -16.2813   22.8523 C   0  0  0  0  0  0  0  0  0  0  0  0
    7.1327  -15.6138   24.1163 C   0  0  0  0  0  0  0  0  0  0  0  0
    6.6214  -16.1657   25.2579 N   0  0  0  0  0  0  0  0  0  0  0  0
    6.3689  -15.1709   26.1192 C   0  0  0  0  0  0  0  0  0  0  0  0
    6.6950  -13.9892   25.5836 C   0  0  0  0  0  0  0  0  0  0  0  0
    6.6107  -12.6821   26.0885 C   0  0  0  0  0  0  0  0  0  0  0  0
    7.0306  -11.6546   25.2720 C   0  0  0  0  0  0  0  0  0  0  0  0
    7.5188  -11.8804   24.0022 C   0  0  0  0  0  0  0  0  0  0  0  0
    7.6042  -13.1844   23.4958 C   0  0  0  0  0  0  0  0  0  0  0  0
    7.1810  -14.2182   24.3204 C   0  0  0  0  0  0  0  0  0  0  0  0
    9.8105  -16.8990   23.8016 O   0  0  0  0  0  0  0  0  0  0  0  0
    9.5863  -18.0802   24.2626 C   0  0  0  0  0  0  0  0  0  0  0  0
    9.2978  -12.5608   28.9418 S   0  0  0  0  0  0  0  0  0  0  0  0
   10.0327  -14.2248   28.8912 C   0  0  0  0  0  0  0  0  0  0  0  0
   10.5847  -14.5112   27.1553 C   0  0  0  0  0  0  0  0  0  0  0  0
   10.2779  -15.9208   26.7477 C   0  0  2  0  0  0  0  0  0  0  0  0
   11.2757  -16.4024   25.7362 N   0  0  0  0  0  0  0  0  0  0  0  0
   10.7914  -16.0916   24.3825 C   0  0  0  0  0  0  0  0  0  0  0  0
   11.5760  -17.8439   25.7921 O   0  0  0  0  0  0  0  0  0  0  0  0
   12.8215  -18.3998   25.6256 O   0  0  0  0  0  0  0  0  0  0  0  0
  2  1  1  0
  3  2  2  0
  4  2  1  0
  5  4  1  0
  6  5  1  0
  7  6  1  0
  7  8  1  0
  8  9  1  6
 10  8  1  0
 11 10  2  0
 12 10  1  0
 13 24  1  0
 13 12  1  0
 13 14  1  6
 15 23  1  0
 15 14  1  0
 16 15  2  0
 17 16  1  0
 17 18  1  0
 18 23  2  0
 19 18  1  0
 19 20  2  0
 20 21  1  0
 21 22  2  0
 23 22  1  0
 24 31  1  0
 25 24  2  0
 27 28  1  0
 27 26  1  0
 28 29  1  0
 30 29  1  1
 30 32  1  0
 31 30  1  0
 32 33  1  0
 34 32  2  0
M  END
$$$$
