RWM.pdb
     RDKit          3D

 34 35  0  0  1  0  0  0  0  0999 V2000
   10.3359  -14.9540   15.4270 N   0  0  0  0  0  0  0  0  0  0  0  0
    8.9525  -14.8657   15.0200 C   0  0  0  0  0  0  0  0  0  0  0  0
    8.5191  -15.4501   13.9570 N   0  0  0  0  0  0  0  0  0  0  0  0
    8.0080  -14.1495   15.7829 N   0  0  0  0  0  0  0  0  0  0  0  0
    8.2178  -13.7759   17.1534 C   0  0  0  0  0  0  0  0  0  0  0  0
    8.7485  -14.8430   18.0325 C   0  0  0  0  0  0  0  0  0  0  0  0
    8.9437  -14.5902   19.4691 C   0  0  0  0  0  0  0  0  0  0  0  0
    9.4318  -15.7244   20.3047 C   0  0  2  0  0  0  0  0  0  0  0  0
    8.7813  -16.9625   20.2175 N   0  0  0  0  0  0  0  0  0  0  0  0
    9.4504  -15.2598   21.7405 C   0  0  0  0  0  0  0  0  0  0  0  0
    9.9448  -14.1074   22.0086 O   0  0  0  0  0  0  0  0  0  0  0  0
    7.5239  -15.3968   13.6771 N   0  0  0  0  0  0  0  0  0  0  0  0
    8.9634  -15.9985   22.8275 C   0  0  1  0  0  0  0  0  0  0  0  0
    8.7647  -15.3743   24.1334 C   0  0  0  0  0  0  0  0  0  0  0  0
    7.4056  -15.4867   24.6855 C   0  0  0  0  0  0  0  0  0  0  0  0
    6.6189  -14.2209   24.7364 C   0  0  0  0  0  0  0  0  0  0  0  0
    5.7833  -13.6821   23.7981 N   0  0  0  0  0  0  0  0  0  0  0  0
    5.3165  -12.5221   24.2796 C   0  0  0  0  0  0  0  0  0  0  0  0
    5.8160  -12.2817   25.4972 C   0  0  0  0  0  0  0  0  0  0  0  0
    5.6286  -11.2123   26.3869 C   0  0  0  0  0  0  0  0  0  0  0  0
    6.3022  -11.2563   27.5881 C   0  0  0  0  0  0  0  0  0  0  0  0
    7.1350  -12.3032   27.9234 C   0  0  0  0  0  0  0  0  0  0  0  0
    7.3237  -13.3722   27.0370 C   0  0  0  0  0  0  0  0  0  0  0  0
    6.6435  -13.3260   25.8274 C   0  0  0  0  0  0  0  0  0  0  0  0
    9.8747  -15.9128   24.9689 O   0  0  0  0  0  0  0  0  0  0  0  0
    9.6318  -16.2854   26.1772 C   0  0  0  0  0  0  0  0  0  0  0  0
   11.5967  -16.6672   29.9870 S   0  0  0  0  0  0  0  0  0  0  0  0
   11.1329  -16.5687   28.2301 C   0  0  0  0  0  0  0  0  0  0  0  0
   12.0657  -17.8984   27.3571 C   0  0  0  0  0  0  0  0  0  0  0  0
   11.7439  -17.8714   25.8932 C   0  0  2  0  0  0  0  0  0  0  0  0
   12.2359  -16.5975   25.2722 N   0  0  0  0  0  0  0  0  0  0  0  0
   11.1683  -16.0079   24.4499 C   0  0  0  0  0  0  0  0  0  0  0  0
   13.4358  -16.7366   24.4285 O   0  0  0  0  0  0  0  0  0  0  0  0
   13.4916  -16.4694   23.0818 O   0  0  0  0  0  0  0  0  0  0  0  0
  2  1  1  0
  3  2  2  0
  4  2  1  0
  5  4  1  0
  6  5  1  0
  7  6  1  0
  7  8  1  0
  8  9  1  1
 10  8  1  0
 11 10  2  0
 12 10  1  0
 13 24  1  0
 13 12  1  0
 13 14  1  6
 15 23  1  0
 15 14  1  0
 16 15  2  0
 17 16  1  0
 17 18  1  0
 18 23  2  0
 19 18  1  0
 19 20  2  0
 20 21  1  0
 21 22  2  0
 23 22  1  0
 24 31  1  0
 25 24  2  0
 27 28  1  0
 27 26  1  0
 28 29  1  0
 30 29  1  1
 30 32  1  0
 31 30  1  0
 32 33  1  0
 34 32  2  0
M  END
$$$$
