IIA.pdb
     RDKit          3D

 22 21  0  0  1  0  0  0  0  0999 V2000
    6.1644  -22.4111   24.8015 C   0  0  0  0  0  0  0  0  0  0  0  0
    5.3885  -21.1124   24.7157 C   0  0  0  0  0  0  0  0  0  0  0  0
    6.2307  -19.9252   24.4053 C   0  0  2  0  0  0  0  0  0  0  0  0
    7.3776  -19.9012   25.4048 C   0  0  0  0  0  0  0  0  0  0  0  0
    5.5008  -18.6034   24.3887 C   0  0  2  0  0  0  0  0  0  0  0  0
    4.6361  -18.6847   23.1827 N   0  0  0  0  0  0  0  0  0  0  0  0
    6.3479  -17.4278   24.1953 C   0  0  0  0  0  0  0  0  0  0  0  0
    6.8096  -17.1882   23.0269 O   0  0  0  0  0  0  0  0  0  0  0  0
    5.9943  -12.7772   27.0916 C   0  0  0  0  0  0  0  0  0  0  0  0
    6.1680  -13.6065   25.8335 C   0  0  0  0  0  0  0  0  0  0  0  0
    7.5125  -14.2779   25.9089 C   0  0  2  0  0  0  0  0  0  0  0  0
    8.5582  -13.2269   25.5771 C   0  0  0  0  0  0  0  0  0  0  0  0
    7.6664  -15.4109   24.9510 C   0  0  2  0  0  0  0  0  0  0  0  0
    6.7262  -16.4940   25.1872 N   0  0  0  0  0  0  0  0  0  0  0  0
    9.0613  -15.9080   24.8576 C   0  0  0  0  0  0  0  0  0  0  0  0
    9.5334  -16.4964   25.8637 O   0  0  0  0  0  0  0  0  0  0  0  0
   11.6647  -16.3618   22.1524 C   0  0  0  0  0  0  0  0  0  0  0  0
   11.1626  -16.4471   23.5784 C   0  0  2  0  0  0  0  0  0  0  0  0
    9.8792  -15.7656   23.7308 N   0  0  0  0  0  0  0  0  0  0  0  0
   12.1365  -15.9292   24.5387 C   0  0  0  0  0  0  0  0  0  0  0  0
   11.9715  -14.8444   25.1422 O   0  0  0  0  0  0  0  0  0  0  0  0
   13.3244  -16.6139   24.8499 O   0  0  0  0  0  0  0  0  0  0  0  0
  2  1  1  0
  3  2  1  0
  3  4  1  1
  5  3  1  0
  5  6  1  6
  7  5  1  0
  7 14  1  0
  8  7  2  0
 10  9  1  0
 10 11  1  0
 11 13  1  0
 11 12  1  6
 13 14  1  1
 15 13  1  0
 16 15  2  0
 18 17  1  6
 18 20  1  0
 18 19  1  0
 19 15  1  0
 20 22  1  0
 21 20  2  0
M  END
$$$$
