IIA.pdb
     RDKit          3D

 22 21  0  0  1  0  0  0  0  0999 V2000
    6.6140  -22.3541   24.9466 C   0  0  0  0  0  0  0  0  0  0  0  0
    5.7107  -21.1386   24.8955 C   0  0  0  0  0  0  0  0  0  0  0  0
    6.4071  -19.8850   24.4973 C   0  0  2  0  0  0  0  0  0  0  0  0
    7.6671  -19.7707   25.3424 C   0  0  0  0  0  0  0  0  0  0  0  0
    5.5765  -18.6276   24.5931 C   0  0  2  0  0  0  0  0  0  0  0  0
    4.5695  -18.7780   23.5104 N   0  0  0  0  0  0  0  0  0  0  0  0
    6.2922  -17.3861   24.3043 C   0  0  0  0  0  0  0  0  0  0  0  0
    6.5655  -17.1028   23.0874 O   0  0  0  0  0  0  0  0  0  0  0  0
    5.9985  -12.6476   27.0836 C   0  0  0  0  0  0  0  0  0  0  0  0
    6.1021  -13.5341   25.8572 C   0  0  0  0  0  0  0  0  0  0  0  0
    7.4680  -14.1655   25.8619 C   0  0  2  0  0  0  0  0  0  0  0  0
    8.4601  -13.0919   25.4478 C   0  0  0  0  0  0  0  0  0  0  0  0
    7.5967  -15.3122   24.9167 C   0  0  2  0  0  0  0  0  0  0  0  0
    6.7303  -16.4308   25.2501 N   0  0  0  0  0  0  0  0  0  0  0  0
    9.0011  -15.7481   24.7190 C   0  0  0  0  0  0  0  0  0  0  0  0
    9.5837  -16.2811   25.6978 O   0  0  0  0  0  0  0  0  0  0  0  0
   11.4327  -16.0756   21.8321 C   0  0  0  0  0  0  0  0  0  0  0  0
   11.0000  -16.2519   23.2723 C   0  0  2  0  0  0  0  0  0  0  0  0
    9.7139  -15.6055   23.5230 N   0  0  0  0  0  0  0  0  0  0  0  0
   12.0092  -15.7705   24.2150 C   0  0  0  0  0  0  0  0  0  0  0  0
   13.1340  -16.3094   24.3265 O   0  0  0  0  0  0  0  0  0  0  0  0
   11.7852  -14.6698   25.0607 O   0  0  0  0  0  0  0  0  0  0  0  0
  2  1  1  0
  3  2  1  0
  3  4  1  1
  5  3  1  0
  5  6  1  6
  7  5  1  0
  7 14  1  0
  8  7  2  0
 10  9  1  0
 10 11  1  0
 11 13  1  0
 11 12  1  6
 13 14  1  1
 15 13  1  0
 16 15  2  0
 18 17  1  6
 18 20  1  0
 18 19  1  0
 19 15  1  0
 20 22  1  0
 21 20  2  0
M  END
$$$$
