IIA.pdb
     RDKit          3D

 22 21  0  0  1  0  0  0  0  0999 V2000
    6.6105  -18.0444   18.8355 C   0  0  0  0  0  0  0  0  0  0  0  0
    6.5402  -16.5918   19.2609 C   0  0  0  0  0  0  0  0  0  0  0  0
    7.2265  -16.3063   20.5504 C   0  0  2  0  0  0  0  0  0  0  0  0
    6.7375  -17.3269   21.5673 C   0  0  0  0  0  0  0  0  0  0  0  0
    7.0581  -14.8996   21.0728 C   0  0  2  0  0  0  0  0  0  0  0  0
    7.7055  -14.0514   20.0384 N   0  0  0  0  0  0  0  0  0  0  0  0
    7.7600  -14.6123   22.3226 C   0  0  0  0  0  0  0  0  0  0  0  0
    9.0349  -14.5131   22.3029 O   0  0  0  0  0  0  0  0  0  0  0  0
    5.6181  -11.6530   26.3510 C   0  0  0  0  0  0  0  0  0  0  0  0
    6.6622  -12.1305   25.3598 C   0  0  0  0  0  0  0  0  0  0  0  0
    7.1913  -13.4506   25.8515 C   0  0  2  0  0  0  0  0  0  0  0  0
    8.1440  -13.1536   26.9972 C   0  0  0  0  0  0  0  0  0  0  0  0
    7.9347  -14.2185   24.8109 C   0  0  2  0  0  0  0  0  0  0  0  0
    7.1685  -14.4247   23.5930 N   0  0  0  0  0  0  0  0  0  0  0  0
    8.5028  -15.4904   25.3218 C   0  0  0  0  0  0  0  0  0  0  0  0
    7.6931  -16.3622   25.7290 O   0  0  0  0  0  0  0  0  0  0  0  0
   11.7645  -17.3108   25.0532 C   0  0  0  0  0  0  0  0  0  0  0  0
   10.3983  -17.1105   25.6745 C   0  0  2  0  0  0  0  0  0  0  0  0
    9.8708  -15.7804   25.3793 N   0  0  0  0  0  0  0  0  0  0  0  0
   10.4070  -17.3511   27.1171 C   0  0  0  0  0  0  0  0  0  0  0  0
   10.1419  -16.4529   27.9484 O   0  0  0  0  0  0  0  0  0  0  0  0
   10.7138  -18.6073   27.6690 O   0  0  0  0  0  0  0  0  0  0  0  0
  2  1  1  0
  3  2  1  0
  3  4  1  1
  5  3  1  0
  5  6  1  6
  7  5  1  0
  7 14  1  0
  8  7  2  0
 10  9  1  0
 10 11  1  0
 11 13  1  0
 11 12  1  1
 13 14  1  6
 15 13  1  0
 16 15  2  0
 18 17  1  1
 18 20  1  0
 18 19  1  0
 19 15  1  0
 20 22  1  0
 21 20  2  0
M  END
$$$$
