IIA.pdb
     RDKit          3D

 22 21  0  0  1  0  0  0  0  0999 V2000
    5.4393  -22.4895   20.1629 C   0  0  0  0  0  0  0  0  0  0  0  0
    5.1628  -21.0822   19.6740 C   0  0  0  0  0  0  0  0  0  0  0  0
    6.3131  -20.1511   19.8320 C   0  0  2  0  0  0  0  0  0  0  0  0
    6.7450  -20.1973   21.2901 C   0  0  0  0  0  0  0  0  0  0  0  0
    6.0582  -18.7303   19.3888 C   0  0  2  0  0  0  0  0  0  0  0  0
    5.9515  -18.8281   17.9097 N   0  0  0  0  0  0  0  0  0  0  0  0
    7.1487  -17.7924   19.6502 C   0  0  0  0  0  0  0  0  0  0  0  0
    8.2687  -17.9716   19.0594 O   0  0  0  0  0  0  0  0  0  0  0  0
    6.9098  -12.3758   20.1728 C   0  0  0  0  0  0  0  0  0  0  0  0
    7.4162  -13.7507   19.7807 C   0  0  0  0  0  0  0  0  0  0  0  0
    7.9426  -14.4169   21.0231 C   0  0  2  0  0  0  0  0  0  0  0  0
    9.2177  -13.6902   21.4160 C   0  0  0  0  0  0  0  0  0  0  0  0
    8.2656  -15.8606   20.8327 C   0  0  2  0  0  0  0  0  0  0  0  0
    7.1029  -16.6713   20.5105 N   0  0  0  0  0  0  0  0  0  0  0  0
    9.0390  -16.4370   21.9602 C   0  0  0  0  0  0  0  0  0  0  0  0
    8.4837  -16.4621   23.0883 O   0  0  0  0  0  0  0  0  0  0  0  0
   11.7797  -18.7993   22.5809 C   0  0  0  0  0  0  0  0  0  0  0  0
   11.0729  -17.5200   22.9763 C   0  0  2  0  0  0  0  0  0  0  0  0
   10.3362  -16.9508   21.8503 N   0  0  0  0  0  0  0  0  0  0  0  0
   11.9926  -16.5326   23.5403 C   0  0  0  0  0  0  0  0  0  0  0  0
   12.6356  -16.7402   24.5946 O   0  0  0  0  0  0  0  0  0  0  0  0
   12.2176  -15.2826   22.9371 O   0  0  0  0  0  0  0  0  0  0  0  0
  2  1  1  0
  3  2  1  0
  3  4  1  1
  5  3  1  0
  5  6  1  6
  7  5  1  0
  7 14  1  0
  8  7  2  0
 10  9  1  0
 10 11  1  0
 11 13  1  0
 11 12  1  6
 13 14  1  1
 15 13  1  0
 16 15  2  0
 18 17  1  6
 18 20  1  0
 18 19  1  0
 19 15  1  0
 20 22  1  0
 21 20  2  0
M  END
$$$$
