IIA.pdb
     RDKit          3D

 22 21  0  0  1  0  0  0  0  0999 V2000
    6.4227  -18.3812   19.3511 C   0  0  0  0  0  0  0  0  0  0  0  0
    6.4566  -16.8922   19.6299 C   0  0  0  0  0  0  0  0  0  0  0  0
    7.1669  -16.5291   20.8864 C   0  0  2  0  0  0  0  0  0  0  0  0
    6.6456  -17.4391   21.9886 C   0  0  0  0  0  0  0  0  0  0  0  0
    7.0628  -15.0777   21.2897 C   0  0  2  0  0  0  0  0  0  0  0  0
    7.7840  -14.3519   20.2118 N   0  0  0  0  0  0  0  0  0  0  0  0
    7.7455  -14.7276   22.5340 C   0  0  0  0  0  0  0  0  0  0  0  0
    9.0210  -14.6328   22.5299 O   0  0  0  0  0  0  0  0  0  0  0  0
    5.7297  -11.4942   26.4373 C   0  0  0  0  0  0  0  0  0  0  0  0
    6.7670  -12.0724   25.4938 C   0  0  0  0  0  0  0  0  0  0  0  0
    7.1509  -13.4320   26.0119 C   0  0  2  0  0  0  0  0  0  0  0  0
    8.0608  -13.2154   27.2092 C   0  0  0  0  0  0  0  0  0  0  0  0
    7.8810  -14.2650   25.0130 C   0  0  2  0  0  0  0  0  0  0  0  0
    7.1344  -14.4726   23.7832 N   0  0  0  0  0  0  0  0  0  0  0  0
    8.3764  -15.5458   25.5749 C   0  0  0  0  0  0  0  0  0  0  0  0
    7.5208  -16.3428   26.0377 O   0  0  0  0  0  0  0  0  0  0  0  0
   11.4270  -17.6705   25.3505 C   0  0  0  0  0  0  0  0  0  0  0  0
   10.1767  -17.2319   26.0832 C   0  0  2  0  0  0  0  0  0  0  0  0
    9.7239  -15.9213   25.6228 N   0  0  0  0  0  0  0  0  0  0  0  0
   10.3583  -17.2319   27.5344 C   0  0  0  0  0  0  0  0  0  0  0  0
   10.6191  -18.2742   28.1777 O   0  0  0  0  0  0  0  0  0  0  0  0
   10.2524  -16.0615   28.3064 O   0  0  0  0  0  0  0  0  0  0  0  0
  2  1  1  0
  3  2  1  0
  3  4  1  1
  5  3  1  0
  5  6  1  6
  7  5  1  0
  7 14  1  0
  8  7  2  0
 10  9  1  0
 10 11  1  0
 11 13  1  0
 11 12  1  1
 13 14  1  6
 15 13  1  0
 16 15  2  0
 18 17  1  6
 18 20  1  0
 18 19  1  0
 19 15  1  0
 20 22  1  0
 21 20  2  0
M  END
$$$$
