IIA.pdb
     RDKit          3D

 22 21  0  0  1  0  0  0  0  0999 V2000
    8.3626  -19.8390   20.3444 C   0  0  0  0  0  0  0  0  0  0  0  0
    8.0547  -18.3585   20.2485 C   0  0  0  0  0  0  0  0  0  0  0  0
    8.5775  -17.5578   21.3891 C   0  0  2  0  0  0  0  0  0  0  0  0
    8.1970  -18.2822   22.6718 C   0  0  0  0  0  0  0  0  0  0  0  0
    8.1249  -16.1178   21.4272 C   0  0  2  0  0  0  0  0  0  0  0  0
    8.8032  -15.4962   20.2600 N   0  0  0  0  0  0  0  0  0  0  0  0
    8.5646  -15.3586   22.5965 C   0  0  0  0  0  0  0  0  0  0  0  0
    9.7951  -15.0208   22.6832 O   0  0  0  0  0  0  0  0  0  0  0  0
    6.7223  -11.4638   26.9697 C   0  0  0  0  0  0  0  0  0  0  0  0
    7.8011  -12.4431   26.5480 C   0  0  0  0  0  0  0  0  0  0  0  0
    7.3047  -13.1758   25.3310 C   0  0  2  0  0  0  0  0  0  0  0  0
    6.0204  -13.8846   25.7266 C   0  0  0  0  0  0  0  0  0  0  0  0
    8.2643  -14.1963   24.8183 C   0  0  2  0  0  0  0  0  0  0  0  0
    7.7556  -14.9409   23.6783 N   0  0  0  0  0  0  0  0  0  0  0  0
    8.7735  -15.1003   25.8790 C   0  0  0  0  0  0  0  0  0  0  0  0
    7.9783  -15.9612   26.3350 O   0  0  0  0  0  0  0  0  0  0  0  0
   12.0736  -16.3439   27.0098 C   0  0  0  0  0  0  0  0  0  0  0  0
   10.6112  -16.0768   27.2974 C   0  0  2  0  0  0  0  0  0  0  0  0
   10.0716  -15.0573   26.4007 N   0  0  0  0  0  0  0  0  0  0  0  0
   10.3815  -15.7065   28.6935 C   0  0  0  0  0  0  0  0  0  0  0  0
    9.9669  -14.5730   29.0272 O   0  0  0  0  0  0  0  0  0  0  0  0
   10.6106  -16.5981   29.7562 O   0  0  0  0  0  0  0  0  0  0  0  0
  2  1  1  0
  3  2  1  0
  3  4  1  1
  5  3  1  0
  5  6  1  6
  7  5  1  0
  7 14  1  0
  8  7  2  0
 10  9  1  0
 10 11  1  0
 11 13  1  0
 11 12  1  1
 13 14  1  6
 15 13  1  0
 16 15  2  0
 18 17  1  1
 18 20  1  0
 18 19  1  0
 19 15  1  0
 20 22  1  0
 21 20  2  0
M  END
$$$$
