IIA.pdb
     RDKit          3D

 22 21  0  0  1  0  0  0  0  0999 V2000
    9.8937  -14.3110   29.2412 C   0  0  0  0  0  0  0  0  0  0  0  0
    8.6286  -14.7914   28.5596 C   0  0  0  0  0  0  0  0  0  0  0  0
    8.8072  -15.1240   27.1199 C   0  0  2  0  0  0  0  0  0  0  0  0
    9.6322  -14.0116   26.4901 C   0  0  0  0  0  0  0  0  0  0  0  0
    7.5299  -15.3528   26.3477 C   0  0  2  0  0  0  0  0  0  0  0  0
    6.9527  -16.5772   26.9613 N   0  0  0  0  0  0  0  0  0  0  0  0
    7.7074  -15.6612   24.9298 C   0  0  0  0  0  0  0  0  0  0  0  0
    7.9587  -16.8683   24.5900 O   0  0  0  0  0  0  0  0  0  0  0  0
    7.1786  -13.3481   19.1821 C   0  0  0  0  0  0  0  0  0  0  0  0
    7.7602  -14.4352   20.0655 C   0  0  0  0  0  0  0  0  0  0  0  0
    7.4435  -14.0836   21.4940 C   0  0  2  0  0  0  0  0  0  0  0  0
    8.1393  -12.7674   21.7970 C   0  0  0  0  0  0  0  0  0  0  0  0
    7.9173  -15.1012   22.4763 C   0  0  2  0  0  0  0  0  0  0  0  0
    7.6291  -14.7450   23.8558 N   0  0  0  0  0  0  0  0  0  0  0  0
    9.3434  -15.4670   22.2924 C   0  0  0  0  0  0  0  0  0  0  0  0
   10.2069  -14.6597   22.7216 O   0  0  0  0  0  0  0  0  0  0  0  0
   11.3972  -18.4614   22.0445 C   0  0  0  0  0  0  0  0  0  0  0  0
   11.1937  -17.0286   21.5992 C   0  0  2  0  0  0  0  0  0  0  0  0
    9.7865  -16.6434   21.6770 N   0  0  0  0  0  0  0  0  0  0  0  0
   11.7186  -16.7880   20.2554 C   0  0  0  0  0  0  0  0  0  0  0  0
   12.9462  -16.7582   20.0104 O   0  0  0  0  0  0  0  0  0  0  0  0
   10.8805  -16.5738   19.1470 O   0  0  0  0  0  0  0  0  0  0  0  0
  2  1  1  0
  3  2  1  0
  3  4  1  6
  5  3  1  0
  5  6  1  1
  7  5  1  0
  7 14  1  0
  8  7  2  0
 10  9  1  0
 10 11  1  0
 11 13  1  0
 11 12  1  1
 13 14  1  1
 15 13  1  0
 16 15  2  0
 18 17  1  6
 18 20  1  0
 18 19  1  0
 19 15  1  0
 20 22  1  0
 21 20  2  0
M  END
$$$$
