YIR.pdb
     RDKit          3D

 32 32  0  0  1  0  0  0  0  0999 V2000
   15.9959  -24.2107  -15.0657 O   0  0  0  0  0  0  0  0  0  0  0  0
   17.2411  -23.6276  -14.8758 C   0  0  0  0  0  0  0  0  0  0  0  0
   18.1511  -24.0968  -13.9499 C   0  0  0  0  0  0  0  0  0  0  0  0
   19.3889  -23.5196  -13.7584 C   0  0  0  0  0  0  0  0  0  0  0  0
   19.7704  -22.4125  -14.5162 C   0  0  0  0  0  0  0  0  0  0  0  0
   21.0757  -21.7659  -14.3426 C   0  0  0  0  0  0  0  0  0  0  0  0
   21.2110  -20.9710  -13.0688 C   0  0  2  0  0  0  0  0  0  0  0  0
   20.2532  -19.8921  -13.0861 N   0  0  0  0  0  0  0  0  0  0  0  0
   22.6245  -20.4726  -13.0275 C   0  0  0  0  0  0  0  0  0  0  0  0
   22.8483  -19.3110  -13.4635 O   0  0  0  0  0  0  0  0  0  0  0  0
   18.8656  -21.9461  -15.4371 C   0  0  0  0  0  0  0  0  0  0  0  0
   17.6274  -22.5231  -15.6287 C   0  0  0  0  0  0  0  0  0  0  0  0
   25.5739  -21.4219   -8.6924 C   0  0  0  0  0  0  0  0  0  0  0  0
   25.2570  -20.6571   -9.9440 C   0  0  0  0  0  0  0  0  0  0  0  0
   25.7224  -21.2256  -11.2175 C   0  0  2  0  0  0  0  0  0  0  0  0
   27.2290  -20.9153  -11.3443 C   0  0  0  0  0  0  0  0  0  0  0  0
   25.0068  -20.9060  -12.4675 C   0  0  2  0  0  0  0  0  0  0  0  0
   23.6407  -21.3091  -12.5097 N   0  0  0  0  0  0  0  0  0  0  0  0
   25.7095  -21.3761  -13.6768 C   0  0  0  0  0  0  0  0  0  0  0  0
   25.7953  -22.6448  -13.8588 O   0  0  0  0  0  0  0  0  0  0  0  0
   27.0899  -17.7087  -21.2438 N   0  0  0  0  0  0  0  0  0  0  0  0
   26.0172  -18.4212  -20.6754 C   0  0  0  0  0  0  0  0  0  0  0  0
   24.8292  -18.2463  -21.1210 N   0  0  0  0  0  0  0  0  0  0  0  0
   26.2474  -19.3313  -19.6133 N   0  0  0  0  0  0  0  0  0  0  0  0
   27.6227  -19.4872  -19.1530 C   0  0  0  0  0  0  0  0  0  0  0  0
   27.6058  -20.5629  -18.1129 C   0  0  0  0  0  0  0  0  0  0  0  0
   26.9160  -20.0673  -16.8806 C   0  0  0  0  0  0  0  0  0  0  0  0
   26.9205  -21.1468  -15.8200 C   0  0  2  0  0  0  0  0  0  0  0  0
   26.2862  -20.5273  -14.6394 N   0  0  0  0  0  0  0  0  0  0  0  0
   28.3257  -21.4970  -15.5202 C   0  0  0  0  0  0  0  0  0  0  0  0
   29.0137  -20.7129  -14.5977 O   0  0  0  0  0  0  0  0  0  0  0  0
   28.9678  -22.4410  -16.0199 O   0  0  0  0  0  0  0  0  0  0  0  0
  2  3  2  0
  2  1  1  0
  4  3  1  0
  5  4  2  0
  6  5  1  0
  7  6  1  0
  7  8  1  6
  9  7  1  0
  9 10  2  0
 11  5  1  0
 11 12  2  0
 12  2  1  0
 13 14  1  0
 14 15  1  0
 15 17  1  0
 15 16  1  6
 17 18  1  1
 18  9  1  0
 19 17  1  0
 19 20  2  0
 21 22  1  0
 22 24  1  0
 23 22  2  0
 24 25  1  0
 26 25  1  0
 27 26  1  0
 28 27  1  6
 29 28  1  0
 29 19  1  0
 30 28  1  0
 31 30  1  0
 32 30  2  0
M  END
$$$$
