YIR.pdb
     RDKit          3D

 32 32  0  0  1  0  0  0  0  0999 V2000
   18.9346  -22.4452   -8.6465 O   0  0  0  0  0  0  0  0  0  0  0  0
   20.0485  -21.9423   -9.3045 C   0  0  0  0  0  0  0  0  0  0  0  0
   21.0220  -21.2021   -8.6642 C   0  0  0  0  0  0  0  0  0  0  0  0
   22.1297  -20.7007   -9.3148 C   0  0  0  0  0  0  0  0  0  0  0  0
   22.3056  -20.9326  -10.6789 C   0  0  0  0  0  0  0  0  0  0  0  0
   23.4669  -20.4150  -11.4106 C   0  0  0  0  0  0  0  0  0  0  0  0
   24.3503  -21.4805  -12.0082 C   0  0  2  0  0  0  0  0  0  0  0  0
   24.8513  -22.3220  -10.9487 N   0  0  0  0  0  0  0  0  0  0  0  0
   25.4514  -20.7634  -12.7302 C   0  0  0  0  0  0  0  0  0  0  0  0
   25.3853  -19.5062  -12.7975 O   0  0  0  0  0  0  0  0  0  0  0  0
   21.3377  -21.6688  -11.3156 C   0  0  0  0  0  0  0  0  0  0  0  0
   20.2295  -22.1704  -10.6651 C   0  0  0  0  0  0  0  0  0  0  0  0
   30.0492  -20.7265  -10.7900 C   0  0  0  0  0  0  0  0  0  0  0  0
   28.8247  -20.5029  -11.6281 C   0  0  0  0  0  0  0  0  0  0  0  0
   28.8778  -20.9423  -13.0302 C   0  0  2  0  0  0  0  0  0  0  0  0
   30.0490  -20.1999  -13.7079 C   0  0  0  0  0  0  0  0  0  0  0  0
   27.6607  -20.8867  -13.8620 C   0  0  2  0  0  0  0  0  0  0  0  0
   26.5084  -21.5100  -13.3013 N   0  0  0  0  0  0  0  0  0  0  0  0
   27.8752  -21.3687  -15.2401 C   0  0  0  0  0  0  0  0  0  0  0  0
   28.3888  -22.5367  -15.3879 O   0  0  0  0  0  0  0  0  0  0  0  0
   26.1952  -25.2365  -16.2396 N   0  0  0  0  0  0  0  0  0  0  0  0
   26.0432  -25.9918  -17.4177 C   0  0  0  0  0  0  0  0  0  0  0  0
   26.5228  -27.1777  -17.4803 N   0  0  0  0  0  0  0  0  0  0  0  0
   25.3608  -25.4450  -18.5334 N   0  0  0  0  0  0  0  0  0  0  0  0
   24.8478  -24.0858  -18.4027 C   0  0  0  0  0  0  0  0  0  0  0  0
   26.0066  -23.1678  -18.6343 C   0  0  0  0  0  0  0  0  0  0  0  0
   26.2570  -22.3464  -17.4085 C   0  0  0  0  0  0  0  0  0  0  0  0
   27.3880  -21.3739  -17.6639 C   0  0  2  0  0  0  0  0  0  0  0  0
   27.5519  -20.6348  -16.3963 N   0  0  0  0  0  0  0  0  0  0  0  0
   26.9723  -20.4518  -18.7428 C   0  0  0  0  0  0  0  0  0  0  0  0
   27.0738  -20.8952  -20.0589 O   0  0  0  0  0  0  0  0  0  0  0  0
   26.5323  -19.2959  -18.5892 O   0  0  0  0  0  0  0  0  0  0  0  0
  2  3  2  0
  2  1  1  0
  4  3  1  0
  5  4  2  0
  6  5  1  0
  7  6  1  0
  7  8  1  1
  9  7  1  0
  9 10  2  0
 11  5  1  0
 11 12  2  0
 12  2  1  0
 13 14  1  0
 14 15  1  0
 15 17  1  0
 15 16  1  6
 17 18  1  1
 18  9  1  0
 19 17  1  0
 19 20  2  0
 21 22  1  0
 22 24  1  0
 23 22  2  0
 24 25  1  0
 26 25  1  0
 27 26  1  0
 28 27  1  1
 29 28  1  0
 29 19  1  0
 30 28  1  0
 31 30  1  0
 32 30  2  0
M  END
$$$$
