YIR.pdb
     RDKit          3D

 32 32  0  0  1  0  0  0  0  0999 V2000
   35.0156  -27.4128  -19.3001 O   0  0  0  0  0  0  0  0  0  0  0  0
   33.9403  -28.2527  -19.0453 C   0  0  0  0  0  0  0  0  0  0  0  0
   32.8869  -27.8894  -18.2304 C   0  0  0  0  0  0  0  0  0  0  0  0
   31.8172  -28.7215  -17.9747 C   0  0  0  0  0  0  0  0  0  0  0  0
   31.7651  -29.9918  -18.5482 C   0  0  0  0  0  0  0  0  0  0  0  0
   30.6480  -30.9099  -18.3004 C   0  0  0  0  0  0  0  0  0  0  0  0
   30.6362  -31.5158  -16.9200 C   0  0  2  0  0  0  0  0  0  0  0  0
   31.7795  -32.3847  -16.7801 N   0  0  0  0  0  0  0  0  0  0  0  0
   29.3408  -32.2601  -16.7941 C   0  0  0  0  0  0  0  0  0  0  0  0
   29.2921  -33.4322  -17.2559 O   0  0  0  0  0  0  0  0  0  0  0  0
   32.8124  -30.3529  -19.3587 C   0  0  0  0  0  0  0  0  0  0  0  0
   33.8826  -29.5210  -19.6145 C   0  0  0  0  0  0  0  0  0  0  0  0
   27.3062  -34.0350  -12.5268 C   0  0  0  0  0  0  0  0  0  0  0  0
   27.6205  -33.6649  -13.9467 C   0  0  0  0  0  0  0  0  0  0  0  0
   26.6955  -32.7446  -14.6241 C   0  0  2  0  0  0  0  0  0  0  0  0
   25.2793  -33.3502  -14.5260 C   0  0  0  0  0  0  0  0  0  0  0  0
   26.9865  -32.2931  -15.9982 C   0  0  2  0  0  0  0  0  0  0  0  0
   28.2367  -31.6317  -16.1722 N   0  0  0  0  0  0  0  0  0  0  0  0
   25.9015  -31.4849  -16.5872 C   0  0  0  0  0  0  0  0  0  0  0  0
   25.7010  -30.3137  -16.0994 O   0  0  0  0  0  0  0  0  0  0  0  0
   24.8742  -35.0007  -23.2847 N   0  0  0  0  0  0  0  0  0  0  0  0
   24.4097  -33.6836  -23.1094 C   0  0  0  0  0  0  0  0  0  0  0  0
   23.8408  -33.0742  -24.0816 N   0  0  0  0  0  0  0  0  0  0  0  0
   24.5686  -33.0305  -21.8613 N   0  0  0  0  0  0  0  0  0  0  0  0
   24.2094  -31.6184  -21.7954 C   0  0  0  0  0  0  0  0  0  0  0  0
   24.6094  -31.1388  -20.4355 C   0  0  0  0  0  0  0  0  0  0  0  0
   23.5673  -31.5258  -19.4334 C   0  0  0  0  0  0  0  0  0  0  0  0
   23.9675  -31.0332  -18.0596 C   0  0  2  0  0  0  0  0  0  0  0  0
   25.0787  -31.9127  -17.6455 N   0  0  0  0  0  0  0  0  0  0  0  0
   22.8138  -31.2052  -17.1505 C   0  0  0  0  0  0  0  0  0  0  0  0
   22.1283  -30.0651  -16.7389 O   0  0  0  0  0  0  0  0  0  0  0  0
   22.3856  -32.2886  -16.7076 O   0  0  0  0  0  0  0  0  0  0  0  0
  2  3  2  0
  2  1  1  0
  4  3  1  0
  5  4  2  0
  6  5  1  0
  7  6  1  0
  7  8  1  6
  9  7  1  0
  9 10  2  0
 11  5  1  0
 11 12  2  0
 12  2  1  0
 13 14  1  0
 14 15  1  0
 15 17  1  0
 15 16  1  6
 17 18  1  1
 18  9  1  0
 19 17  1  0
 19 20  2  0
 21 22  1  0
 22 24  1  0
 23 22  2  0
 24 25  1  0
 26 25  1  0
 27 26  1  0
 28 27  1  6
 29 28  1  0
 29 19  1  0
 30 28  1  0
 31 30  1  0
 32 30  2  0
M  END
$$$$
