YIR.pdb
     RDKit          3D

 32 32  0  0  1  0  0  0  0  0999 V2000
   30.2055  -19.5643   -3.4361 O   0  0  0  0  0  0  0  0  0  0  0  0
   29.4779  -19.8305   -4.5878 C   0  0  0  0  0  0  0  0  0  0  0  0
   30.0761  -20.1091   -5.8002 C   0  0  0  0  0  0  0  0  0  0  0  0
   29.3562  -20.3737   -6.9465 C   0  0  0  0  0  0  0  0  0  0  0  0
   27.9618  -20.3679   -6.9150 C   0  0  0  0  0  0  0  0  0  0  0  0
   27.1575  -20.6405   -8.1111 C   0  0  0  0  0  0  0  0  0  0  0  0
   27.1141  -19.5058   -9.1027 C   0  0  2  0  0  0  0  0  0  0  0  0
   26.6395  -18.3182   -8.4349 N   0  0  0  0  0  0  0  0  0  0  0  0
   26.1958  -19.9404  -10.2053 C   0  0  0  0  0  0  0  0  0  0  0  0
   24.9555  -19.8130  -10.0184 O   0  0  0  0  0  0  0  0  0  0  0  0
   27.3670  -20.0911   -5.7092 C   0  0  0  0  0  0  0  0  0  0  0  0
   28.0867  -19.8263   -4.5626 C   0  0  0  0  0  0  0  0  0  0  0  0
   29.1643  -18.9677  -14.8258 C   0  0  0  0  0  0  0  0  0  0  0  0
   28.0868  -18.9539  -13.7814 C   0  0  0  0  0  0  0  0  0  0  0  0
   27.1301  -20.0703  -13.7848 C   0  0  2  0  0  0  0  0  0  0  0  0
   26.4083  -20.0621  -15.1490 C   0  0  0  0  0  0  0  0  0  0  0  0
   26.1683  -20.2144  -12.6754 C   0  0  2  0  0  0  0  0  0  0  0  0
   26.7439  -20.4697  -11.3971 N   0  0  0  0  0  0  0  0  0  0  0  0
   25.1016  -21.1952  -12.9538 C   0  0  0  0  0  0  0  0  0  0  0  0
   25.4058  -22.4409  -12.8799 O   0  0  0  0  0  0  0  0  0  0  0  0
   17.1642  -21.6752  -14.9293 N   0  0  0  0  0  0  0  0  0  0  0  0
   17.1474  -22.8219  -14.1132 C   0  0  0  0  0  0  0  0  0  0  0  0
   16.2424  -23.7119  -14.2839 N   0  0  0  0  0  0  0  0  0  0  0  0
   18.1286  -22.9951  -13.1049 N   0  0  0  0  0  0  0  0  0  0  0  0
   19.0904  -21.9150  -12.9157 C   0  0  0  0  0  0  0  0  0  0  0  0
   20.4244  -22.4538  -13.3273 C   0  0  0  0  0  0  0  0  0  0  0  0
   21.4823  -21.4201  -13.0989 C   0  0  0  0  0  0  0  0  0  0  0  0
   22.8250  -21.9500  -13.5534 C   0  0  2  0  0  0  0  0  0  0  0  0
   23.7788  -20.8540  -13.2907 N   0  0  0  0  0  0  0  0  0  0  0  0
   22.7487  -22.2239  -15.0047 C   0  0  0  0  0  0  0  0  0  0  0  0
   22.6292  -23.5489  -15.4160 O   0  0  0  0  0  0  0  0  0  0  0  0
   22.7813  -21.3716  -15.9135 O   0  0  0  0  0  0  0  0  0  0  0  0
  2  3  2  0
  2  1  1  0
  4  3  1  0
  5  4  2  0
  6  5  1  0
  7  6  1  0
  7  8  1  1
  9  7  1  0
  9 10  2  0
 11  5  1  0
 11 12  2  0
 12  2  1  0
 13 14  1  0
 14 15  1  0
 15 17  1  0
 15 16  1  6
 17 18  1  1
 18  9  1  0
 19 17  1  0
 19 20  2  0
 21 22  1  0
 22 24  1  0
 23 22  2  0
 24 25  1  0
 26 25  1  0
 27 26  1  0
 28 27  1  6
 29 28  1  0
 29 19  1  0
 30 28  1  0
 31 30  1  0
 32 30  2  0
M  END
$$$$
