YIR.pdb
     RDKit          3D

 32 32  0  0  1  0  0  0  0  0999 V2000
   27.5972  -15.5955  -17.8321 O   0  0  0  0  0  0  0  0  0  0  0  0
   27.1913  -16.5181  -16.8779 C   0  0  0  0  0  0  0  0  0  0  0  0
   26.8672  -17.8226  -17.1922 C   0  0  0  0  0  0  0  0  0  0  0  0
   26.4632  -18.7419  -16.2468 C   0  0  0  0  0  0  0  0  0  0  0  0
   26.3669  -18.3712  -14.9056 C   0  0  0  0  0  0  0  0  0  0  0  0
   25.9382  -19.3157  -13.8683 C   0  0  0  0  0  0  0  0  0  0  0  0
   27.0573  -19.8417  -13.0059 C   0  0  2  0  0  0  0  0  0  0  0  0
   27.9408  -20.6401  -13.8206 N   0  0  0  0  0  0  0  0  0  0  0  0
   26.4122  -20.6445  -11.9163 C   0  0  0  0  0  0  0  0  0  0  0  0
   26.4825  -21.9008  -11.9951 O   0  0  0  0  0  0  0  0  0  0  0  0
   26.6894  -17.0740  -14.5930 C   0  0  0  0  0  0  0  0  0  0  0  0
   27.0934  -16.1544  -15.5385 C   0  0  0  0  0  0  0  0  0  0  0  0
   27.4430  -19.3045   -6.8697 C   0  0  0  0  0  0  0  0  0  0  0  0
   27.0626  -20.0907   -8.0900 C   0  0  0  0  0  0  0  0  0  0  0  0
   25.6317  -20.1796   -8.4157 C   0  0  2  0  0  0  0  0  0  0  0  0
   24.9433  -20.9700   -7.2828 C   0  0  0  0  0  0  0  0  0  0  0  0
   25.2112  -20.6744   -9.7405 C   0  0  2  0  0  0  0  0  0  0  0  0
   25.7580  -19.9755  -10.8555 N   0  0  0  0  0  0  0  0  0  0  0  0
   23.7467  -20.7847   -9.8825 C   0  0  0  0  0  0  0  0  0  0  0  0
   23.0495  -19.7231   -9.6904 O   0  0  0  0  0  0  0  0  0  0  0  0
   18.5485  -25.0431   -6.0764 N   0  0  0  0  0  0  0  0  0  0  0  0
   18.7686  -25.2157   -7.4559 C   0  0  0  0  0  0  0  0  0  0  0  0
   18.5606  -26.3583   -7.9959 N   0  0  0  0  0  0  0  0  0  0  0  0
   19.2182  -24.1300   -8.2487 N   0  0  0  0  0  0  0  0  0  0  0  0
   19.2434  -22.8120   -7.6244 C   0  0  0  0  0  0  0  0  0  0  0  0
   19.6876  -21.8480   -8.6792 C   0  0  0  0  0  0  0  0  0  0  0  0
   21.1806  -21.8616   -8.7836 C   0  0  0  0  0  0  0  0  0  0  0  0
   21.5933  -21.9462  -10.2372 C   0  0  2  0  0  0  0  0  0  0  0  0
   23.0693  -21.9720  -10.2159 N   0  0  0  0  0  0  0  0  0  0  0  0
   21.1135  -20.7294  -10.9273 C   0  0  0  0  0  0  0  0  0  0  0  0
   20.4479  -20.8839  -12.1407 O   0  0  0  0  0  0  0  0  0  0  0  0
   21.2478  -19.5578  -10.5243 O   0  0  0  0  0  0  0  0  0  0  0  0
  2  3  2  0
  2  1  1  0
  4  3  1  0
  5  4  2  0
  6  5  1  0
  7  6  1  0
  7  8  1  6
  9  7  1  0
  9 10  2  0
 11  5  1  0
 11 12  2  0
 12  2  1  0
 13 14  1  0
 14 15  1  0
 15 17  1  0
 15 16  1  1
 17 18  1  6
 18  9  1  0
 19 17  1  0
 19 20  2  0
 21 22  1  0
 22 24  1  0
 23 22  2  0
 24 25  1  0
 26 25  1  0
 27 26  1  0
 28 27  1  1
 29 28  1  0
 29 19  1  0
 30 28  1  0
 31 30  1  0
 32 30  2  0
M  END
$$$$
