YIR.pdb
     RDKit          3D

 32 32  0  0  1  0  0  0  0  0999 V2000
   29.3568  -19.5564   -3.6529 O   0  0  0  0  0  0  0  0  0  0  0  0
   28.8149  -19.6250   -4.9289 C   0  0  0  0  0  0  0  0  0  0  0  0
   29.4875  -20.1866   -5.9956 C   0  0  0  0  0  0  0  0  0  0  0  0
   28.9523  -20.2561   -7.2648 C   0  0  0  0  0  0  0  0  0  0  0  0
   27.6786  -19.7467   -7.5168 C   0  0  0  0  0  0  0  0  0  0  0  0
   27.0730  -19.7969   -8.8519 C   0  0  0  0  0  0  0  0  0  0  0  0
   26.4756  -21.1329   -9.2136 C   0  0  2  0  0  0  0  0  0  0  0  0
   27.5364  -22.0307   -9.6016 N   0  0  0  0  0  0  0  0  0  0  0  0
   25.5118  -20.8780  -10.3334 C   0  0  0  0  0  0  0  0  0  0  0  0
   25.8870  -21.1590  -11.5038 O   0  0  0  0  0  0  0  0  0  0  0  0
   27.0097  -19.1885   -6.4560 C   0  0  0  0  0  0  0  0  0  0  0  0
   27.5448  -19.1187   -5.1865 C   0  0  0  0  0  0  0  0  0  0  0  0
   21.0545  -22.7710   -8.0813 C   0  0  0  0  0  0  0  0  0  0  0  0
   22.1834  -22.3802   -8.9894 C   0  0  0  0  0  0  0  0  0  0  0  0
   21.9609  -21.2387   -9.8889 C   0  0  2  0  0  0  0  0  0  0  0  0
   20.7036  -21.5454  -10.7299 C   0  0  0  0  0  0  0  0  0  0  0  0
   23.0631  -20.7503  -10.7393 C   0  0  2  0  0  0  0  0  0  0  0  0
   24.2365  -20.3397  -10.0427 N   0  0  0  0  0  0  0  0  0  0  0  0
   22.6450  -19.6997  -11.6872 C   0  0  0  0  0  0  0  0  0  0  0  0
   22.2683  -18.5734  -11.1977 O   0  0  0  0  0  0  0  0  0  0  0  0
   25.0043  -18.4063  -19.5260 N   0  0  0  0  0  0  0  0  0  0  0  0
   24.9367  -19.2891  -18.4317 C   0  0  0  0  0  0  0  0  0  0  0  0
   25.6029  -20.3828  -18.4536 N   0  0  0  0  0  0  0  0  0  0  0  0
   24.1354  -18.9714  -17.3064 N   0  0  0  0  0  0  0  0  0  0  0  0
   23.4577  -17.6798  -17.3118 C   0  0  0  0  0  0  0  0  0  0  0  0
   22.6448  -17.6186  -16.0569 C   0  0  0  0  0  0  0  0  0  0  0  0
   23.0176  -18.7528  -15.1543 C   0  0  0  0  0  0  0  0  0  0  0  0
   22.1655  -18.7159  -13.9041 C   0  0  2  0  0  0  0  0  0  0  0  0
   22.6355  -19.8516  -13.0860 N   0  0  0  0  0  0  0  0  0  0  0  0
   20.7546  -18.9194  -14.2979 C   0  0  0  0  0  0  0  0  0  0  0  0
   19.9988  -17.7978  -14.6296 O   0  0  0  0  0  0  0  0  0  0  0  0
   20.1633  -20.0144  -14.3637 O   0  0  0  0  0  0  0  0  0  0  0  0
  2  3  2  0
  2  1  1  0
  4  3  1  0
  5  4  2  0
  6  5  1  0
  7  6  1  0
  7  8  1  6
  9  7  1  0
  9 10  2  0
 11  5  1  0
 11 12  2  0
 12  2  1  0
 13 14  1  0
 14 15  1  0
 15 17  1  0
 15 16  1  6
 17 18  1  1
 18  9  1  0
 19 17  1  0
 19 20  2  0
 21 22  1  0
 22 24  1  0
 23 22  2  0
 24 25  1  0
 26 25  1  0
 27 26  1  0
 28 27  1  6
 29 28  1  0
 29 19  1  0
 30 28  1  0
 31 30  1  0
 32 30  2  0
M  END
$$$$
