YIR.pdb
     RDKit          3D

 32 32  0  0  1  0  0  0  0  0999 V2000
   29.7296  -17.8567  -20.4430 O   0  0  0  0  0  0  0  0  0  0  0  0
   28.9594  -18.4634  -19.4605 C   0  0  0  0  0  0  0  0  0  0  0  0
   28.8051  -17.9281  -18.1974 C   0  0  0  0  0  0  0  0  0  0  0  0
   28.0410  -18.5283  -17.2187 C   0  0  0  0  0  0  0  0  0  0  0  0
   27.3816  -19.7288  -17.4825 C   0  0  0  0  0  0  0  0  0  0  0  0
   26.5618  -20.4026  -16.4697 C   0  0  0  0  0  0  0  0  0  0  0  0
   27.3468  -20.9884  -15.3237 C   0  0  2  0  0  0  0  0  0  0  0  0
   28.1670  -22.0665  -15.8205 N   0  0  0  0  0  0  0  0  0  0  0  0
   26.3408  -21.4600  -14.3170 C   0  0  0  0  0  0  0  0  0  0  0  0
   25.7844  -22.5725  -14.5228 O   0  0  0  0  0  0  0  0  0  0  0  0
   27.5350  -20.2609  -18.7385 C   0  0  0  0  0  0  0  0  0  0  0  0
   28.2993  -19.6608  -19.7176 C   0  0  0  0  0  0  0  0  0  0  0  0
   27.0796  -20.0875   -8.9406 C   0  0  0  0  0  0  0  0  0  0  0  0
   26.7229  -20.8614  -10.1758 C   0  0  0  0  0  0  0  0  0  0  0  0
   25.4388  -20.5487  -10.8200 C   0  0  2  0  0  0  0  0  0  0  0  0
   24.3162  -20.9229   -9.8292 C   0  0  0  0  0  0  0  0  0  0  0  0
   25.1509  -21.0683  -12.1705 C   0  0  2  0  0  0  0  0  0  0  0  0
   26.0556  -20.6538  -13.1904 N   0  0  0  0  0  0  0  0  0  0  0  0
   23.7601  -20.8292  -12.6017 C   0  0  0  0  0  0  0  0  0  0  0  0
   23.3992  -19.6118  -12.7959 O   0  0  0  0  0  0  0  0  0  0  0  0
   17.6784  -22.6091  -17.6432 N   0  0  0  0  0  0  0  0  0  0  0  0
   16.8875  -22.3169  -16.5161 C   0  0  0  0  0  0  0  0  0  0  0  0
   15.6419  -22.0572  -16.6622 N   0  0  0  0  0  0  0  0  0  0  0  0
   17.4643  -22.3102  -15.2213 N   0  0  0  0  0  0  0  0  0  0  0  0
   18.8732  -22.6728  -15.1154 C   0  0  0  0  0  0  0  0  0  0  0  0
   19.2577  -22.4786  -13.6823 C   0  0  0  0  0  0  0  0  0  0  0  0
   20.7225  -22.7335  -13.5103 C   0  0  0  0  0  0  0  0  0  0  0  0
   21.4298  -21.4443  -13.1526 C   0  0  2  0  0  0  0  0  0  0  0  0
   22.8101  -21.8450  -12.8150 N   0  0  0  0  0  0  0  0  0  0  0  0
   20.7626  -20.8622  -11.9680 C   0  0  0  0  0  0  0  0  0  0  0  0
   20.9592  -21.4802  -10.7358 O   0  0  0  0  0  0  0  0  0  0  0  0
   20.0283  -19.8552  -11.9621 O   0  0  0  0  0  0  0  0  0  0  0  0
  2  3  2  0
  2  1  1  0
  4  3  1  0
  5  4  2  0
  6  5  1  0
  7  6  1  0
  7  8  1  6
  9  7  1  0
  9 10  2  0
 11  5  1  0
 11 12  2  0
 12  2  1  0
 13 14  1  0
 14 15  1  0
 15 17  1  0
 15 16  1  1
 17 18  1  6
 18  9  1  0
 19 17  1  0
 19 20  2  0
 21 22  1  0
 22 24  1  0
 23 22  2  0
 24 25  1  0
 26 25  1  0
 27 26  1  0
 28 27  1  1
 29 28  1  0
 29 19  1  0
 30 28  1  0
 31 30  1  0
 32 30  2  0
M  END
$$$$
