QPW.pdb
     RDKit          3D

 31 33  0  0  1  0  0  0  0  0999 V2000
   19.7040  -18.9183  -13.1724 N   0  0  0  0  0  0  0  0  0  0  0  0
   20.0190  -18.4933  -14.4879 C   0  0  0  0  0  0  0  0  0  0  0  0
   19.4276  -17.4983  -14.9365 O   0  0  0  0  0  0  0  0  0  0  0  0
   21.0091  -19.2261  -15.2689 C   0  0  0  0  0  0  0  0  0  0  0  0
   21.9791  -20.0735  -14.5388 C   0  0  0  0  0  0  0  0  0  0  0  0
   23.3226  -19.5031  -14.2593 C   0  0  2  0  0  0  0  0  0  0  0  0
   23.9671  -19.3190  -15.5833 N   0  0  0  0  0  0  0  0  0  0  0  0
   24.2350  -20.3175  -13.4491 C   0  0  0  0  0  0  0  0  0  0  0  0
   23.7552  -20.9426  -12.4445 O   0  0  0  0  0  0  0  0  0  0  0  0
   25.6258  -20.4618  -13.7123 N   0  0  0  0  0  0  0  0  0  0  0  0
   26.2989  -19.8459  -14.8348 C   0  0  0  0  0  0  0  0  0  0  0  0
   27.7445  -19.8303  -14.4124 C   0  0  0  0  0  0  0  0  0  0  0  0
   27.8656  -21.1970  -13.7462 C   0  0  0  0  0  0  0  0  0  0  0  0
   26.5577  -21.1969  -12.9325 C   0  0  1  0  0  0  0  0  0  0  0  0
   26.9191  -20.5260  -11.6541 C   0  0  0  0  0  0  0  0  0  0  0  0
   26.7589  -19.2834  -11.5608 O   0  0  0  0  0  0  0  0  0  0  0  0
   27.4334  -21.2063  -10.5347 N   0  0  0  0  0  0  0  0  0  0  0  0
   27.9908  -20.5568   -9.3614 C   0  0  1  0  0  0  0  0  0  0  0  0
   26.8473  -20.4292   -8.3684 C   0  0  0  0  0  0  0  0  0  0  0  0
   27.2200  -19.6543   -7.1657 C   0  0  0  0  0  0  0  0  0  0  0  0
   26.9178  -18.3492   -6.8756 C   0  0  0  0  0  0  0  0  0  0  0  0
   27.4375  -18.0020   -5.6759 N   0  0  0  0  0  0  0  0  0  0  0  0
   28.0821  -19.0810   -5.1771 C   0  0  0  0  0  0  0  0  0  0  0  0
   28.7674  -19.2234   -3.9892 C   0  0  0  0  0  0  0  0  0  0  0  0
   29.3471  -20.4592   -3.7155 C   0  0  0  0  0  0  0  0  0  0  0  0
   29.2443  -21.5026   -4.5920 C   0  0  0  0  0  0  0  0  0  0  0  0
   28.5422  -21.3274   -5.7900 C   0  0  0  0  0  0  0  0  0  0  0  0
   27.9540  -20.1180   -6.0964 C   0  0  0  0  0  0  0  0  0  0  0  0
   28.9926  -21.4626   -8.6951 C   0  0  0  0  0  0  0  0  0  0  0  0
   28.8171  -22.7135   -8.6930 O   0  0  0  0  0  0  0  0  0  0  0  0
   30.1146  -20.9722   -8.0761 O   0  0  0  0  0  0  0  0  0  0  0  0
  2  1  1  0
  3  2  2  0
  4  2  1  0
  5  4  1  0
  6  8  1  0
  6  5  1  0
  6  7  1  6
  8 10  1  0
  9  8  2  0
 10 11  1  0
 10 14  1  0
 11 12  1  0
 12 13  1  0
 14 13  1  0
 15 17  1  0
 14 15  1  1
 16 15  2  0
 18 29  1  0
 18 17  1  0
 18 19  1  1
 20 28  1  0
 20 19  1  0
 21 20  2  0
 22 21  1  0
 22 23  1  0
 23 28  2  0
 24 23  1  0
 24 25  2  0
 25 26  1  0
 26 27  2  0
 28 27  1  0
 29 31  1  0
 30 29  2  0
M  END
$$$$
