QPW.pdb
     RDKit          3D

 31 33  0  0  1  0  0  0  0  0999 V2000
   17.0430  -15.2868  -16.4786 N   0  0  0  0  0  0  0  0  0  0  0  0
   17.1361  -15.0334  -17.8706 C   0  0  0  0  0  0  0  0  0  0  0  0
   16.7138  -15.9018  -18.6507 O   0  0  0  0  0  0  0  0  0  0  0  0
   17.7199  -13.7830  -18.3424 C   0  0  0  0  0  0  0  0  0  0  0  0
   18.1273  -12.7826  -17.3298 C   0  0  0  0  0  0  0  0  0  0  0  0
   19.5215  -12.2709  -17.3849 C   0  0  2  0  0  0  0  0  0  0  0  0
   20.3863  -13.4098  -16.9885 N   0  0  0  0  0  0  0  0  0  0  0  0
   19.8544  -11.1517  -16.4969 C   0  0  0  0  0  0  0  0  0  0  0  0
   19.9359  -11.3797  -15.2432 O   0  0  0  0  0  0  0  0  0  0  0  0
   20.0985   -9.8227  -16.9423 N   0  0  0  0  0  0  0  0  0  0  0  0
   20.1082   -9.4313  -18.3348 C   0  0  0  0  0  0  0  0  0  0  0  0
   19.8758   -7.9441  -18.2837 C   0  0  0  0  0  0  0  0  0  0  0  0
   20.7380   -7.5580  -17.0862 C   0  0  0  0  0  0  0  0  0  0  0  0
   20.3485   -8.6923  -16.1196 C   0  0  1  0  0  0  0  0  0  0  0  0
   19.1333   -8.1846  -15.4264 C   0  0  0  0  0  0  0  0  0  0  0  0
   18.0217   -8.2977  -16.0008 O   0  0  0  0  0  0  0  0  0  0  0  0
   19.1557   -7.5808  -14.1553 N   0  0  0  0  0  0  0  0  0  0  0  0
   17.9749   -7.1490  -13.4284 C   0  0  1  0  0  0  0  0  0  0  0  0
   17.8957   -8.0310  -12.1932 C   0  0  0  0  0  0  0  0  0  0  0  0
   19.0269   -7.8168  -11.2658 C   0  0  0  0  0  0  0  0  0  0  0  0
   19.1004   -6.9434  -10.2121 C   0  0  0  0  0  0  0  0  0  0  0  0
   20.3037   -7.0430   -9.6021 N   0  0  0  0  0  0  0  0  0  0  0  0
   21.0219   -7.9837  -10.2564 C   0  0  0  0  0  0  0  0  0  0  0  0
   22.3002   -8.4396  -10.0136 C   0  0  0  0  0  0  0  0  0  0  0  0
   22.8092   -9.4287  -10.8507 C   0  0  0  0  0  0  0  0  0  0  0  0
   22.0709   -9.9364  -11.8825 C   0  0  0  0  0  0  0  0  0  0  0  0
   20.7760   -9.4534  -12.1039 C   0  0  0  0  0  0  0  0  0  0  0  0
   20.2371   -8.4740  -11.2960 C   0  0  0  0  0  0  0  0  0  0  0  0
   18.1726   -5.7515  -12.9032 C   0  0  0  0  0  0  0  0  0  0  0  0
   19.3259   -5.2369  -12.8812 O   0  0  0  0  0  0  0  0  0  0  0  0
   17.1257   -4.9971  -12.4368 O   0  0  0  0  0  0  0  0  0  0  0  0
  2  1  1  0
  3  2  2  0
  4  2  1  0
  5  4  1  0
  6  8  1  0
  6  5  1  0
  6  7  1  1
  8 10  1  0
  9  8  2  0
 10 11  1  0
 10 14  1  0
 11 12  1  0
 12 13  1  0
 14 13  1  0
 15 17  1  0
 14 15  1  6
 16 15  2  0
 18 29  1  0
 18 17  1  0
 18 19  1  1
 20 28  1  0
 20 19  1  0
 21 20  2  0
 22 21  1  0
 22 23  1  0
 23 28  2  0
 24 23  1  0
 24 25  2  0
 25 26  1  0
 26 27  2  0
 28 27  1  0
 29 31  1  0
 30 29  2  0
M  END
$$$$
