QPW.pdb
     RDKit          3D

 31 33  0  0  1  0  0  0  0  0999 V2000
   26.4852  -23.7376  -18.9966 N   0  0  0  0  0  0  0  0  0  0  0  0
   27.7959  -23.1989  -19.0449 C   0  0  0  0  0  0  0  0  0  0  0  0
   28.0856  -22.4546  -19.9952 O   0  0  0  0  0  0  0  0  0  0  0  0
   28.7553  -23.5312  -17.9979 C   0  0  0  0  0  0  0  0  0  0  0  0
   28.6771  -22.7823  -16.7230 C   0  0  0  0  0  0  0  0  0  0  0  0
   28.3197  -21.3413  -16.7882 C   0  0  2  0  0  0  0  0  0  0  0  0
   29.5168  -20.6518  -17.3302 N   0  0  0  0  0  0  0  0  0  0  0  0
   27.9832  -20.6820  -15.5216 C   0  0  0  0  0  0  0  0  0  0  0  0
   28.8830  -20.6155  -14.6182 O   0  0  0  0  0  0  0  0  0  0  0  0
   26.7155  -20.1042  -15.2329 N   0  0  0  0  0  0  0  0  0  0  0  0
   25.6531  -19.9714  -16.2056 C   0  0  0  0  0  0  0  0  0  0  0  0
   24.4169  -19.8241  -15.3580 C   0  0  0  0  0  0  0  0  0  0  0  0
   24.9341  -18.9144  -14.2484 C   0  0  0  0  0  0  0  0  0  0  0  0
   26.2899  -19.5934  -13.9779 C   0  0  1  0  0  0  0  0  0  0  0  0
   25.9784  -20.6546  -12.9820 C   0  0  0  0  0  0  0  0  0  0  0  0
   25.6906  -21.8045  -13.3985 O   0  0  0  0  0  0  0  0  0  0  0  0
   25.9874  -20.4450  -11.5905 N   0  0  0  0  0  0  0  0  0  0  0  0
   25.7015  -21.4697  -10.6018 C   0  0  1  0  0  0  0  0  0  0  0  0
   26.9374  -21.5616   -9.7220 C   0  0  0  0  0  0  0  0  0  0  0  0
   27.0428  -20.4377   -8.7673 C   0  0  0  0  0  0  0  0  0  0  0  0
   26.2709  -19.3067   -8.7068 C   0  0  0  0  0  0  0  0  0  0  0  0
   26.6783  -18.5135   -7.6895 N   0  0  0  0  0  0  0  0  0  0  0  0
   27.7197  -19.1248   -7.0807 C   0  0  0  0  0  0  0  0  0  0  0  0
   28.4700  -18.7133   -5.9997 C   0  0  0  0  0  0  0  0  0  0  0  0
   29.5007  -19.5437   -5.5679 C   0  0  0  0  0  0  0  0  0  0  0  0
   29.7660  -20.7305   -6.1911 C   0  0  0  0  0  0  0  0  0  0  0  0
   28.9868  -21.1212   -7.2862 C   0  0  0  0  0  0  0  0  0  0  0  0
   27.9570  -20.3255   -7.7431 C   0  0  0  0  0  0  0  0  0  0  0  0
   24.5979  -21.0112   -9.6854 C   0  0  0  0  0  0  0  0  0  0  0  0
   24.2785  -19.7902   -9.6348 O   0  0  0  0  0  0  0  0  0  0  0  0
   23.9095  -21.8870   -8.8844 O   0  0  0  0  0  0  0  0  0  0  0  0
  2  1  1  0
  3  2  2  0
  4  2  1  0
  5  4  1  0
  6  8  1  0
  6  5  1  0
  6  7  1  1
  8 10  1  0
  9  8  2  0
 10 11  1  0
 10 14  1  0
 11 12  1  0
 12 13  1  0
 14 13  1  0
 15 17  1  0
 14 15  1  1
 16 15  2  0
 18 29  1  0
 18 17  1  0
 18 19  1  1
 20 28  1  0
 20 19  1  0
 21 20  2  0
 22 21  1  0
 22 23  1  0
 23 28  2  0
 24 23  1  0
 24 25  2  0
 25 26  1  0
 26 27  2  0
 28 27  1  0
 29 31  1  0
 30 29  2  0
M  END
$$$$
