QPW.pdb
     RDKit          3D

 31 33  0  0  1  0  0  0  0  0999 V2000
   17.3811  -21.2511    2.2967 N   0  0  0  0  0  0  0  0  0  0  0  0
   16.9996  -19.9248    1.9714 C   0  0  0  0  0  0  0  0  0  0  0  0
   17.4413  -19.4321    0.9211 O   0  0  0  0  0  0  0  0  0  0  0  0
   16.1174  -19.1841    2.8660 C   0  0  0  0  0  0  0  0  0  0  0  0
   15.5883  -19.8873    4.0567 C   0  0  0  0  0  0  0  0  0  0  0  0
   14.6951  -19.1268    4.9690 C   0  0  2  0  0  0  0  0  0  0  0  0
   14.0222  -18.1109    4.1220 N   0  0  0  0  0  0  0  0  0  0  0  0
   15.3333  -18.4061    6.0759 C   0  0  0  0  0  0  0  0  0  0  0  0
   15.4422  -17.1370    5.9865 O   0  0  0  0  0  0  0  0  0  0  0  0
   15.8376  -19.0297    7.2510 N   0  0  0  0  0  0  0  0  0  0  0  0
   15.6932  -20.4403    7.5368 C   0  0  0  0  0  0  0  0  0  0  0  0
   16.7834  -20.7092    8.5406 C   0  0  0  0  0  0  0  0  0  0  0  0
   16.6952  -19.4559    9.4054 C   0  0  0  0  0  0  0  0  0  0  0  0
   16.5581  -18.3948    8.2974 C   0  0  1  0  0  0  0  0  0  0  0  0
   17.9614  -18.0607    7.9314 C   0  0  0  0  0  0  0  0  0  0  0  0
   18.5107  -18.7049    7.0032 O   0  0  0  0  0  0  0  0  0  0  0  0
   18.7157  -17.0577    8.5684 N   0  0  0  0  0  0  0  0  0  0  0  0
   20.0613  -16.6701    8.1832 C   0  0  1  0  0  0  0  0  0  0  0  0
   20.2466  -15.2454    8.6790 C   0  0  0  0  0  0  0  0  0  0  0  0
   19.6235  -14.2451    7.7863 C   0  0  0  0  0  0  0  0  0  0  0  0
   18.3033  -14.1337    7.4351 C   0  0  0  0  0  0  0  0  0  0  0  0
   18.1266  -13.0862    6.5975 N   0  0  0  0  0  0  0  0  0  0  0  0
   19.3329  -12.5085    6.3984 C   0  0  0  0  0  0  0  0  0  0  0  0
   19.6668  -11.4149    5.6280 C   0  0  0  0  0  0  0  0  0  0  0  0
   21.0024  -11.0232    5.5967 C   0  0  0  0  0  0  0  0  0  0  0  0
   21.9577  -11.6966    6.3047 C   0  0  0  0  0  0  0  0  0  0  0  0
   21.5880  -12.8033    7.0778 C   0  0  0  0  0  0  0  0  0  0  0  0
   20.2749  -13.2216    7.1341 C   0  0  0  0  0  0  0  0  0  0  0  0
   21.0728  -17.4870    8.9430 C   0  0  0  0  0  0  0  0  0  0  0  0
   20.7308  -18.1162    9.9835 O   0  0  0  0  0  0  0  0  0  0  0  0
   22.3815  -17.5774    8.5410 O   0  0  0  0  0  0  0  0  0  0  0  0
  2  1  1  0
  3  2  2  0
  4  2  1  0
  5  4  1  0
  6  8  1  0
  6  5  1  0
  6  7  1  6
  8 10  1  0
  9  8  2  0
 10 11  1  0
 10 14  1  0
 11 12  1  0
 12 13  1  0
 14 13  1  0
 15 17  1  0
 14 15  1  6
 16 15  2  0
 18 29  1  0
 18 17  1  0
 18 19  1  1
 20 28  1  0
 20 19  1  0
 21 20  2  0
 22 21  1  0
 22 23  1  0
 23 28  2  0
 24 23  1  0
 24 25  2  0
 25 26  1  0
 26 27  2  0
 28 27  1  0
 29 31  1  0
 30 29  2  0
M  END
$$$$
