QPW.pdb
     RDKit          3D

 31 33  0  0  1  0  0  0  0  0999 V2000
   23.6470  -22.5409  -18.0284 N   0  0  0  0  0  0  0  0  0  0  0  0
   23.8855  -22.2976  -16.6520 C   0  0  0  0  0  0  0  0  0  0  0  0
   22.9136  -22.3152  -15.8799 O   0  0  0  0  0  0  0  0  0  0  0  0
   25.2423  -22.0325  -16.1871 C   0  0  0  0  0  0  0  0  0  0  0  0
   26.3147  -21.9269  -17.2024 C   0  0  0  0  0  0  0  0  0  0  0  0
   27.6690  -21.5274  -16.7389 C   0  0  2  0  0  0  0  0  0  0  0  0
   28.5570  -22.6758  -17.0470 N   0  0  0  0  0  0  0  0  0  0  0  0
   27.8238  -21.2385  -15.3090 C   0  0  0  0  0  0  0  0  0  0  0  0
   28.1984  -22.1857  -14.5391 O   0  0  0  0  0  0  0  0  0  0  0  0
   27.5877  -19.9650  -14.7203 N   0  0  0  0  0  0  0  0  0  0  0  0
   27.0616  -18.8297  -15.4461 C   0  0  0  0  0  0  0  0  0  0  0  0
   26.5075  -17.9446  -14.3608 C   0  0  0  0  0  0  0  0  0  0  0  0
   27.5852  -18.0898  -13.2913 C   0  0  0  0  0  0  0  0  0  0  0  0
   27.8063  -19.6125  -13.3620 C   0  0  1  0  0  0  0  0  0  0  0  0
   26.7889  -20.1761  -12.4334 C   0  0  0  0  0  0  0  0  0  0  0  0
   25.6323  -20.3978  -12.8711 O   0  0  0  0  0  0  0  0  0  0  0  0
   27.0476  -20.4780  -11.0834 N   0  0  0  0  0  0  0  0  0  0  0  0
   26.2544  -21.3890  -10.2771 C   0  0  1  0  0  0  0  0  0  0  0  0
   27.0631  -21.6475   -9.0165 C   0  0  0  0  0  0  0  0  0  0  0  0
   27.0933  -20.4810   -8.1087 C   0  0  0  0  0  0  0  0  0  0  0  0
   26.4973  -19.2593   -8.2846 C   0  0  0  0  0  0  0  0  0  0  0  0
   26.7557  -18.4540   -7.2289 N   0  0  0  0  0  0  0  0  0  0  0  0
   27.5228  -19.1480   -6.3580 C   0  0  0  0  0  0  0  0  0  0  0  0
   28.0413  -18.7595   -5.1409 C   0  0  0  0  0  0  0  0  0  0  0  0
   28.8098  -19.6815   -4.4358 C   0  0  0  0  0  0  0  0  0  0  0  0
   29.0470  -20.9340   -4.9282 C   0  0  0  0  0  0  0  0  0  0  0  0
   28.5071  -21.2994   -6.1667 C   0  0  0  0  0  0  0  0  0  0  0  0
   27.7405  -20.4135   -6.8948 C   0  0  0  0  0  0  0  0  0  0  0  0
   24.9984  -20.7042   -9.8065 C   0  0  0  0  0  0  0  0  0  0  0  0
   24.1165  -21.3540   -9.1776 O   0  0  0  0  0  0  0  0  0  0  0  0
   24.7682  -19.3717  -10.0389 O   0  0  0  0  0  0  0  0  0  0  0  0
  2  1  1  0
  3  2  2  0
  4  2  1  0
  5  4  1  0
  6  8  1  0
  6  5  1  0
  6  7  1  1
  8 10  1  0
  9  8  2  0
 10 11  1  0
 10 14  1  0
 11 12  1  0
 12 13  1  0
 14 13  1  0
 15 17  1  0
 14 15  1  1
 16 15  2  0
 18 29  1  0
 18 17  1  0
 18 19  1  1
 20 28  1  0
 20 19  1  0
 21 20  2  0
 22 21  1  0
 22 23  1  0
 23 28  2  0
 24 23  1  0
 24 25  2  0
 25 26  1  0
 26 27  2  0
 28 27  1  0
 29 31  1  0
 30 29  2  0
M  END
$$$$
