QPW.pdb
     RDKit          3D

 31 33  0  0  1  0  0  0  0  0999 V2000
   23.9150  -17.1555  -18.0406 N   0  0  0  0  0  0  0  0  0  0  0  0
   25.3084  -16.9010  -18.1059 C   0  0  0  0  0  0  0  0  0  0  0  0
   25.6786  -15.7399  -18.3416 O   0  0  0  0  0  0  0  0  0  0  0  0
   26.2549  -17.9920  -17.9029 C   0  0  0  0  0  0  0  0  0  0  0  0
   26.0892  -18.8385  -16.6995 C   0  0  0  0  0  0  0  0  0  0  0  0
   27.1000  -19.9006  -16.4565 C   0  0  2  0  0  0  0  0  0  0  0  0
   26.8938  -20.9076  -17.5269 N   0  0  0  0  0  0  0  0  0  0  0  0
   27.0203  -20.6138  -15.1771 C   0  0  0  0  0  0  0  0  0  0  0  0
   25.9536  -21.2646  -14.9144 O   0  0  0  0  0  0  0  0  0  0  0  0
   28.0599  -20.6329  -14.2060 N   0  0  0  0  0  0  0  0  0  0  0  0
   29.3817  -20.0912  -14.4337 C   0  0  0  0  0  0  0  0  0  0  0  0
   29.9115  -19.8605  -13.0429 C   0  0  0  0  0  0  0  0  0  0  0  0
   29.4058  -21.1105  -12.3301 C   0  0  0  0  0  0  0  0  0  0  0  0
   27.9709  -21.1552  -12.8883 C   0  0  1  0  0  0  0  0  0  0  0  0
   27.1880  -20.2928  -11.9618 C   0  0  0  0  0  0  0  0  0  0  0  0
   27.3813  -19.0517  -11.9874 O   0  0  0  0  0  0  0  0  0  0  0  0
   26.2362  -20.7891  -11.0516 N   0  0  0  0  0  0  0  0  0  0  0  0
   25.7989  -20.0909   -9.8556 C   0  0  1  0  0  0  0  0  0  0  0  0
   24.6923  -19.1486  -10.2997 C   0  0  0  0  0  0  0  0  0  0  0  0
   23.6743  -19.8186  -11.1367 C   0  0  0  0  0  0  0  0  0  0  0  0
   22.6607  -20.6472  -10.7310 C   0  0  0  0  0  0  0  0  0  0  0  0
   21.9369  -21.0608  -11.7964 N   0  0  0  0  0  0  0  0  0  0  0  0
   22.4762  -20.5027  -12.9038 C   0  0  0  0  0  0  0  0  0  0  0  0
   22.0937  -20.6223  -14.2231 C   0  0  0  0  0  0  0  0  0  0  0  0
   22.8320  -19.9323  -15.1807 C   0  0  0  0  0  0  0  0  0  0  0  0
   23.9032  -19.1590  -14.8314 C   0  0  0  0  0  0  0  0  0  0  0  0
   24.2672  -19.0573  -13.4838 C   0  0  0  0  0  0  0  0  0  0  0  0
   23.5602  -19.7258  -12.5062 C   0  0  0  0  0  0  0  0  0  0  0  0
   25.1386  -21.0549   -8.9056 C   0  0  0  0  0  0  0  0  0  0  0  0
   25.0123  -22.2720   -9.2193 O   0  0  0  0  0  0  0  0  0  0  0  0
   24.6576  -20.6551   -7.6844 O   0  0  0  0  0  0  0  0  0  0  0  0
  2  1  1  0
  3  2  2  0
  4  2  1  0
  5  4  1  0
  6  8  1  0
  6  5  1  0
  6  7  1  6
  8 10  1  0
  9  8  2  0
 10 11  1  0
 10 14  1  0
 11 12  1  0
 12 13  1  0
 14 13  1  0
 15 17  1  0
 14 15  1  1
 16 15  2  0
 18 29  1  0
 18 17  1  0
 18 19  1  6
 20 28  1  0
 20 19  1  0
 21 20  2  0
 22 21  1  0
 22 23  1  0
 23 28  2  0
 24 23  1  0
 24 25  2  0
 25 26  1  0
 26 27  2  0
 28 27  1  0
 29 31  1  0
 30 29  2  0
M  END
$$$$
