QPW.pdb
     RDKit          3D

 31 33  0  0  1  0  0  0  0  0999 V2000
   33.0611  -30.4391  -21.9636 N   0  0  0  0  0  0  0  0  0  0  0  0
   33.6973  -31.3166  -22.8777 C   0  0  0  0  0  0  0  0  0  0  0  0
   34.4077  -30.8187  -23.7656 O   0  0  0  0  0  0  0  0  0  0  0  0
   33.5006  -32.7567  -22.7567 C   0  0  0  0  0  0  0  0  0  0  0  0
   32.7132  -33.2545  -21.6059 C   0  0  0  0  0  0  0  0  0  0  0  0
   33.3863  -34.1766  -20.6545 C   0  0  2  0  0  0  0  0  0  0  0  0
   33.4679  -35.4855  -21.3491 N   0  0  0  0  0  0  0  0  0  0  0  0
   32.7153  -34.4142  -19.3717 C   0  0  0  0  0  0  0  0  0  0  0  0
   31.7274  -35.2228  -19.3482 O   0  0  0  0  0  0  0  0  0  0  0  0
   33.0971  -33.8041  -18.1445 N   0  0  0  0  0  0  0  0  0  0  0  0
   34.3122  -33.0385  -17.9719 C   0  0  0  0  0  0  0  0  0  0  0  0
   34.0273  -32.1959  -16.7565 C   0  0  0  0  0  0  0  0  0  0  0  0
   33.2940  -33.2008  -15.8738 C   0  0  0  0  0  0  0  0  0  0  0  0
   32.3642  -33.8302  -16.9282 C   0  0  1  0  0  0  0  0  0  0  0  0
   31.1675  -32.9454  -16.9394 C   0  0  0  0  0  0  0  0  0  0  0  0
   31.2883  -31.7759  -17.3822 O   0  0  0  0  0  0  0  0  0  0  0  0
   29.8985  -33.3443  -16.4801 N   0  0  0  0  0  0  0  0  0  0  0  0
   28.7196  -32.4962  -16.4789 C   0  0  1  0  0  0  0  0  0  0  0  0
   27.5466  -33.4063  -16.8038 C   0  0  0  0  0  0  0  0  0  0  0  0
   26.2779  -32.6652  -16.9681 C   0  0  0  0  0  0  0  0  0  0  0  0
   25.8208  -32.0115  -18.0827 C   0  0  0  0  0  0  0  0  0  0  0  0
   24.6128  -31.4541  -17.8384 N   0  0  0  0  0  0  0  0  0  0  0  0
   24.2757  -31.7423  -16.5608 C   0  0  0  0  0  0  0  0  0  0  0  0
   23.1452  -31.3967  -15.8512 C   0  0  0  0  0  0  0  0  0  0  0  0
   23.0474  -31.8280  -14.5311 C   0  0  0  0  0  0  0  0  0  0  0  0
   24.0366  -32.5708  -13.9505 C   0  0  0  0  0  0  0  0  0  0  0  0
   25.1724  -32.9059  -14.6965 C   0  0  0  0  0  0  0  0  0  0  0  0
   25.3056  -32.4970  -16.0071 C   0  0  0  0  0  0  0  0  0  0  0  0
   28.4499  -31.9864  -15.0877 C   0  0  0  0  0  0  0  0  0  0  0  0
   28.6109  -32.7439  -14.0898 O   0  0  0  0  0  0  0  0  0  0  0  0
   28.0265  -30.7022  -14.8553 O   0  0  0  0  0  0  0  0  0  0  0  0
  2  1  1  0
  3  2  2  0
  4  2  1  0
  5  4  1  0
  6  8  1  0
  6  5  1  0
  6  7  1  6
  8 10  1  0
  9  8  2  0
 10 11  1  0
 10 14  1  0
 11 12  1  0
 12 13  1  0
 14 13  1  0
 15 17  1  0
 14 15  1  6
 16 15  2  0
 18 29  1  0
 18 17  1  0
 18 19  1  1
 20 28  1  0
 20 19  1  0
 21 20  2  0
 22 21  1  0
 22 23  1  0
 23 28  2  0
 24 23  1  0
 24 25  2  0
 25 26  1  0
 26 27  2  0
 28 27  1  0
 29 31  1  0
 30 29  2  0
M  END
$$$$
