QPW.pdb
     RDKit          3D

 31 33  0  0  1  0  0  0  0  0999 V2000
   27.3415  -17.1197  -17.5959 N   0  0  0  0  0  0  0  0  0  0  0  0
   27.8338  -17.1505  -16.2666 C   0  0  0  0  0  0  0  0  0  0  0  0
   29.0484  -17.3442  -16.0990 O   0  0  0  0  0  0  0  0  0  0  0  0
   26.9158  -16.9622  -15.1490 C   0  0  0  0  0  0  0  0  0  0  0  0
   25.4800  -16.7714  -15.4559 C   0  0  0  0  0  0  0  0  0  0  0  0
   24.6237  -17.9832  -15.5395 C   0  0  2  0  0  0  0  0  0  0  0  0
   23.2458  -17.4887  -15.7832 N   0  0  0  0  0  0  0  0  0  0  0  0
   24.5665  -18.8401  -14.3502 C   0  0  0  0  0  0  0  0  0  0  0  0
   23.8790  -18.4406  -13.3511 O   0  0  0  0  0  0  0  0  0  0  0  0
   25.2257  -20.0957  -14.2368 N   0  0  0  0  0  0  0  0  0  0  0  0
   25.9958  -20.6977  -15.3031 C   0  0  0  0  0  0  0  0  0  0  0  0
   26.8879  -21.6752  -14.5840 C   0  0  0  0  0  0  0  0  0  0  0  0
   25.9213  -22.2407  -13.5485 C   0  0  0  0  0  0  0  0  0  0  0  0
   25.2507  -20.9323  -13.0894 C   0  0  1  0  0  0  0  0  0  0  0  0
   26.1362  -20.4247  -12.0062 C   0  0  0  0  0  0  0  0  0  0  0  0
   27.1754  -19.7946  -12.3246 O   0  0  0  0  0  0  0  0  0  0  0  0
   25.8763  -20.6099  -10.6355 N   0  0  0  0  0  0  0  0  0  0  0  0
   26.8057  -20.2794   -9.5696 C   0  0  1  0  0  0  0  0  0  0  0  0
   25.9641  -19.7095   -8.4397 C   0  0  0  0  0  0  0  0  0  0  0  0
   26.7828  -19.1004   -7.3698 C   0  0  0  0  0  0  0  0  0  0  0  0
   27.2372  -17.8100   -7.2862 C   0  0  0  0  0  0  0  0  0  0  0  0
   27.9548  -17.6370   -6.1526 N   0  0  0  0  0  0  0  0  0  0  0  0
   27.9716  -18.8160   -5.4905 C   0  0  0  0  0  0  0  0  0  0  0  0
   28.5706  -19.1421   -4.2922 C   0  0  0  0  0  0  0  0  0  0  0  0
   28.4322  -20.4475   -3.8285 C   0  0  0  0  0  0  0  0  0  0  0  0
   27.7264  -21.3814   -4.5334 C   0  0  0  0  0  0  0  0  0  0  0  0
   27.1296  -21.0203   -5.7468 C   0  0  0  0  0  0  0  0  0  0  0  0
   27.2444  -19.7368   -6.2388 C   0  0  0  0  0  0  0  0  0  0  0  0
   27.4193  -21.5356   -9.0098 C   0  0  0  0  0  0  0  0  0  0  0  0
   26.7241  -22.5829   -8.8855 O   0  0  0  0  0  0  0  0  0  0  0  0
   28.7338  -21.5895   -8.6202 O   0  0  0  0  0  0  0  0  0  0  0  0
  2  1  1  0
  3  2  2  0
  4  2  1  0
  5  4  1  0
  6  8  1  0
  6  5  1  0
  6  7  1  1
  8 10  1  0
  9  8  2  0
 10 11  1  0
 10 14  1  0
 11 12  1  0
 12 13  1  0
 14 13  1  0
 15 17  1  0
 14 15  1  1
 16 15  2  0
 18 29  1  0
 18 17  1  0
 18 19  1  1
 20 28  1  0
 20 19  1  0
 21 20  2  0
 22 21  1  0
 22 23  1  0
 23 28  2  0
 24 23  1  0
 24 25  2  0
 25 26  1  0
 26 27  2  0
 28 27  1  0
 29 31  1  0
 30 29  2  0
M  END
$$$$
