QPW.pdb
     RDKit          3D

 31 33  0  0  1  0  0  0  0  0999 V2000
   22.6996  -18.9924  -15.1925 N   0  0  0  0  0  0  0  0  0  0  0  0
   22.6948  -20.3666  -14.8432 C   0  0  0  0  0  0  0  0  0  0  0  0
   21.9808  -20.7241  -13.8927 O   0  0  0  0  0  0  0  0  0  0  0  0
   23.5183  -21.3082  -15.5932 C   0  0  0  0  0  0  0  0  0  0  0  0
   24.3859  -20.7693  -16.6651 C   0  0  0  0  0  0  0  0  0  0  0  0
   25.8175  -21.1681  -16.6623 C   0  0  2  0  0  0  0  0  0  0  0  0
   25.8623  -22.5185  -17.2760 N   0  0  0  0  0  0  0  0  0  0  0  0
   26.4765  -21.2701  -15.3556 C   0  0  0  0  0  0  0  0  0  0  0  0
   26.4947  -22.4076  -14.7760 O   0  0  0  0  0  0  0  0  0  0  0  0
   27.1044  -20.1809  -14.6895 N   0  0  0  0  0  0  0  0  0  0  0  0
   27.1331  -18.8310  -15.2083 C   0  0  0  0  0  0  0  0  0  0  0  0
   27.4019  -17.9908  -13.9875 C   0  0  0  0  0  0  0  0  0  0  0  0
   28.4328  -18.8522  -13.2653 C   0  0  0  0  0  0  0  0  0  0  0  0
   27.7716  -20.2327  -13.4368 C   0  0  1  0  0  0  0  0  0  0  0  0
   26.8453  -20.3442  -12.2772 C   0  0  0  0  0  0  0  0  0  0  0  0
   25.6760  -19.9005  -12.3967 O   0  0  0  0  0  0  0  0  0  0  0  0
   27.2041  -20.9220  -11.0452 N   0  0  0  0  0  0  0  0  0  0  0  0
   26.2576  -21.4235  -10.0645 C   0  0  1  0  0  0  0  0  0  0  0  0
   27.0684  -21.7303   -8.8162 C   0  0  0  0  0  0  0  0  0  0  0  0
   27.3063  -20.5331   -7.9820 C   0  0  0  0  0  0  0  0  0  0  0  0
   26.7199  -19.2990   -8.0904 C   0  0  0  0  0  0  0  0  0  0  0  0
   27.2009  -18.4650   -7.1402 N   0  0  0  0  0  0  0  0  0  0  0  0
   28.1049  -19.1527   -6.4062 C   0  0  0  0  0  0  0  0  0  0  0  0
   28.8613  -18.7379   -5.3306 C   0  0  0  0  0  0  0  0  0  0  0  0
   29.7282  -19.6595   -4.7497 C   0  0  0  0  0  0  0  0  0  0  0  0
   29.8314  -20.9364   -5.2252 C   0  0  0  0  0  0  0  0  0  0  0  0
   29.0503  -21.3280   -6.3186 C   0  0  0  0  0  0  0  0  0  0  0  0
   28.1799  -20.4436   -6.9208 C   0  0  0  0  0  0  0  0  0  0  0  0
   25.3055  -20.3300   -9.6577 C   0  0  0  0  0  0  0  0  0  0  0  0
   24.1756  -20.6178   -9.1718 O   0  0  0  0  0  0  0  0  0  0  0  0
   25.6234  -19.0025   -9.7968 O   0  0  0  0  0  0  0  0  0  0  0  0
  2  1  1  0
  3  2  2  0
  4  2  1  0
  5  4  1  0
  6  8  1  0
  6  5  1  0
  6  7  1  1
  8 10  1  0
  9  8  2  0
 10 11  1  0
 10 14  1  0
 11 12  1  0
 12 13  1  0
 14 13  1  0
 15 17  1  0
 14 15  1  1
 16 15  2  0
 18 29  1  0
 18 17  1  0
 18 19  1  1
 20 28  1  0
 20 19  1  0
 21 20  2  0
 22 21  1  0
 22 23  1  0
 23 28  2  0
 24 23  1  0
 24 25  2  0
 25 26  1  0
 26 27  2  0
 28 27  1  0
 29 31  1  0
 30 29  2  0
M  END
$$$$
