QPW.pdb
     RDKit          3D

 31 33  0  0  1  0  0  0  0  0999 V2000
   26.2479  -16.9963  -18.0312 N   0  0  0  0  0  0  0  0  0  0  0  0
   27.6138  -17.0883  -17.6621 C   0  0  0  0  0  0  0  0  0  0  0  0
   28.4234  -16.3396  -18.2321 O   0  0  0  0  0  0  0  0  0  0  0  0
   28.0265  -18.0470  -16.6435 C   0  0  0  0  0  0  0  0  0  0  0  0
   26.9749  -18.8558  -15.9861 C   0  0  0  0  0  0  0  0  0  0  0  0
   27.3078  -20.2572  -15.6200 C   0  0  2  0  0  0  0  0  0  0  0  0
   27.5400  -20.9661  -16.9030 N   0  0  0  0  0  0  0  0  0  0  0  0
   26.2844  -21.0150  -14.8918 C   0  0  0  0  0  0  0  0  0  0  0  0
   25.3170  -21.5165  -15.5575 O   0  0  0  0  0  0  0  0  0  0  0  0
   26.3004  -21.2338  -13.4861 N   0  0  0  0  0  0  0  0  0  0  0  0
   27.4363  -20.9395  -12.6403 C   0  0  0  0  0  0  0  0  0  0  0  0
   26.8310  -20.8243  -11.2660 C   0  0  0  0  0  0  0  0  0  0  0  0
   25.8233  -21.9688  -11.2973 C   0  0  0  0  0  0  0  0  0  0  0  0
   25.2323  -21.7453  -12.7021 C   0  0  1  0  0  0  0  0  0  0  0  0
   24.1333  -20.7648  -12.4877 C   0  0  0  0  0  0  0  0  0  0  0  0
   24.4294  -19.6001  -12.1212 O   0  0  0  0  0  0  0  0  0  0  0  0
   22.7714  -21.0671  -12.6729 N   0  0  0  0  0  0  0  0  0  0  0  0
   21.6791  -20.1543  -12.3851 C   0  0  1  0  0  0  0  0  0  0  0  0
   21.6254  -19.1818  -13.5518 C   0  0  0  0  0  0  0  0  0  0  0  0
   21.5221  -19.8645  -14.8592 C   0  0  0  0  0  0  0  0  0  0  0  0
   20.5724  -20.7638  -15.2687 C   0  0  0  0  0  0  0  0  0  0  0  0
   20.8202  -21.1643  -16.5368 N   0  0  0  0  0  0  0  0  0  0  0  0
   21.9347  -20.5267  -16.9609 C   0  0  0  0  0  0  0  0  0  0  0  0
   22.5826  -20.6038  -18.1756 C   0  0  0  0  0  0  0  0  0  0  0  0
   23.7268  -19.8311  -18.3540 C   0  0  0  0  0  0  0  0  0  0  0  0
   24.1988  -19.0196  -17.3611 C   0  0  0  0  0  0  0  0  0  0  0  0
   23.5194  -18.9626  -16.1387 C   0  0  0  0  0  0  0  0  0  0  0  0
   22.3823  -19.7131  -15.9242 C   0  0  0  0  0  0  0  0  0  0  0  0
   20.3657  -20.8901  -12.4240 C   0  0  0  0  0  0  0  0  0  0  0  0
   19.2920  -20.2919  -12.1326 O   0  0  0  0  0  0  0  0  0  0  0  0
   20.2867  -22.2151  -12.7713 O   0  0  0  0  0  0  0  0  0  0  0  0
  2  1  1  0
  3  2  2  0
  4  2  1  0
  5  4  1  0
  6  8  1  0
  6  5  1  0
  6  7  1  6
  8 10  1  0
  9  8  2  0
 10 11  1  0
 10 14  1  0
 11 12  1  0
 12 13  1  0
 14 13  1  0
 15 17  1  0
 14 15  1  1
 16 15  2  0
 18 29  1  0
 18 17  1  0
 18 19  1  6
 20 28  1  0
 20 19  1  0
 21 20  2  0
 22 21  1  0
 22 23  1  0
 23 28  2  0
 24 23  1  0
 24 25  2  0
 25 26  1  0
 26 27  2  0
 28 27  1  0
 29 31  1  0
 30 29  2  0
M  END
$$$$
