EYF.pdb
     RDKit          3D

 33 34  0  0  1  0  0  0  0  0999 V2000
   28.3393  -21.2447  -17.8556 N   0  0  0  0  0  0  0  0  0  0  0  0
   27.7543  -21.9866  -16.7958 C   0  0  1  0  0  0  0  0  0  0  0  0
   28.4738  -23.2836  -16.6589 C   0  0  0  0  0  0  0  0  0  0  0  0
   27.9954  -24.3824  -17.5571 C   0  0  0  0  0  0  0  0  0  0  0  0
   26.7528  -25.0221  -17.0289 C   0  0  0  0  0  0  0  0  0  0  0  0
   26.1857  -24.6636  -15.9673 O   0  0  0  0  0  0  0  0  0  0  0  0
   27.7567  -21.1375  -15.5825 C   0  0  0  0  0  0  0  0  0  0  0  0
   28.8184  -20.5820  -15.2141 O   0  0  0  0  0  0  0  0  0  0  0  0
   26.2044  -26.0609  -17.7501 O   0  0  0  0  0  0  0  0  0  0  0  0
   27.3305  -15.2724  -17.8173 O   0  0  0  0  0  0  0  0  0  0  0  0
   26.9080  -16.1702  -16.8376 C   0  0  0  0  0  0  0  0  0  0  0  0
   25.9562  -17.1329  -17.0973 C   0  0  0  0  0  0  0  0  0  0  0  0
   25.5330  -18.0265  -16.1286 C   0  0  0  0  0  0  0  0  0  0  0  0
   26.0537  -17.9880  -14.8510 C   0  0  0  0  0  0  0  0  0  0  0  0
   25.5983  -18.9476  -13.8123 C   0  0  0  0  0  0  0  0  0  0  0  0
   26.5132  -20.1206  -13.6297 C   0  0  2  0  0  0  0  0  0  0  0  0
   26.5562  -20.9408  -14.8180 N   0  0  0  0  0  0  0  0  0  0  0  0
   25.9619  -20.9261  -12.5067 C   0  0  0  0  0  0  0  0  0  0  0  0
   25.0915  -21.8276  -12.7047 O   0  0  0  0  0  0  0  0  0  0  0  0
   27.0066  -17.0246  -14.5905 C   0  0  0  0  0  0  0  0  0  0  0  0
   27.4309  -16.1285  -15.5615 C   0  0  0  0  0  0  0  0  0  0  0  0
   26.4358  -20.6608  -11.1944 N   0  0  0  0  0  0  0  0  0  0  0  0
   26.0000  -21.5043  -10.0888 C   0  0  1  0  0  0  0  0  0  0  0  0
   27.1538  -21.6032   -9.1403 C   0  0  0  0  0  0  0  0  0  0  0  0
   27.2663  -20.5212   -8.1637 C   0  0  0  0  0  0  0  0  0  0  0  0
   26.3703  -19.4699   -8.0682 C   0  0  0  0  0  0  0  0  0  0  0  0
   26.4952  -18.4668   -7.1363 C   0  0  0  0  0  0  0  0  0  0  0  0
   27.5463  -18.4930   -6.2560 C   0  0  0  0  0  0  0  0  0  0  0  0
   28.4717  -19.5226   -6.3086 C   0  0  0  0  0  0  0  0  0  0  0  0
   28.3147  -20.5263   -7.2683 C   0  0  0  0  0  0  0  0  0  0  0  0
   24.8270  -20.8590   -9.4604 C   0  0  0  0  0  0  0  0  0  0  0  0
   24.4673  -19.5354   -9.7092 O   0  0  0  0  0  0  0  0  0  0  0  0
   24.1096  -21.5058   -8.6663 O   0  0  0  0  0  0  0  0  0  0  0  0
  2  1  1  6
  3  2  1  0
  4  3  1  0
  5  4  1  0
  5  6  2  0
  7  2  1  0
  7  8  2  0
  9  5  1  0
 10 11  1  0
 11 12  2  0
 12 13  1  0
 14 13  2  0
 14 15  1  0
 16 15  1  6
 16 17  1  0
 17  7  1  0
 18 16  1  0
 19 18  2  0
 20 14  1  0
 21 11  1  0
 21 20  2  0
 22 18  1  0
 23 24  1  1
 23 22  1  0
 24 25  1  0
 25 30  1  0
 26 25  2  0
 26 27  1  0
 27 28  2  0
 28 29  1  0
 30 29  2  0
 31 32  1  0
 31 23  1  0
 33 31  2  0
M  END
$$$$
