EYF.pdb
     RDKit          3D

 33 34  0  0  1  0  0  0  0  0999 V2000
   26.2546  -19.6754  -15.7451 N   0  0  0  0  0  0  0  0  0  0  0  0
   26.8568  -18.8961  -14.7224 C   0  0  1  0  0  0  0  0  0  0  0  0
   26.8998  -17.4732  -15.1605 C   0  0  0  0  0  0  0  0  0  0  0  0
   27.6473  -17.2142  -16.4322 C   0  0  0  0  0  0  0  0  0  0  0  0
   28.9396  -17.9628  -16.4722 C   0  0  0  0  0  0  0  0  0  0  0  0
   29.1939  -18.8630  -17.3101 O   0  0  0  0  0  0  0  0  0  0  0  0
   26.1200  -19.1416  -13.4615 C   0  0  0  0  0  0  0  0  0  0  0  0
   25.2045  -18.3591  -13.1136 O   0  0  0  0  0  0  0  0  0  0  0  0
   29.9002  -17.6436  -15.5366 O   0  0  0  0  0  0  0  0  0  0  0  0
   20.2388  -21.0901  -14.8839 O   0  0  0  0  0  0  0  0  0  0  0  0
   21.3718  -21.2750  -14.0925 C   0  0  0  0  0  0  0  0  0  0  0  0
   22.5432  -21.7856  -14.6098 C   0  0  0  0  0  0  0  0  0  0  0  0
   23.6707  -21.9713  -13.8288 C   0  0  0  0  0  0  0  0  0  0  0  0
   23.6660  -21.6486  -12.4868 C   0  0  0  0  0  0  0  0  0  0  0  0
   24.8769  -21.8487  -11.6498 C   0  0  0  0  0  0  0  0  0  0  0  0
   25.6829  -20.6019  -11.4440 C   0  0  2  0  0  0  0  0  0  0  0  0
   26.4402  -20.2669  -12.6275 N   0  0  0  0  0  0  0  0  0  0  0  0
   26.6277  -20.8791  -10.3285 C   0  0  0  0  0  0  0  0  0  0  0  0
   27.8751  -20.9914  -10.5312 O   0  0  0  0  0  0  0  0  0  0  0  0
   22.4938  -21.1373  -11.9685 C   0  0  0  0  0  0  0  0  0  0  0  0
   21.3632  -20.9512  -12.7513 C   0  0  0  0  0  0  0  0  0  0  0  0
   26.0975  -21.0171   -9.0182 N   0  0  0  0  0  0  0  0  0  0  0  0
   27.0047  -21.1758   -7.8888 C   0  0  1  0  0  0  0  0  0  0  0  0
   27.7797  -19.9002   -7.7750 C   0  0  0  0  0  0  0  0  0  0  0  0
   28.3883  -19.6423   -6.4710 C   0  0  0  0  0  0  0  0  0  0  0  0
   27.9676  -18.6474   -5.6049 C   0  0  0  0  0  0  0  0  0  0  0  0
   28.5535  -18.4287   -4.3805 C   0  0  0  0  0  0  0  0  0  0  0  0
   29.6004  -19.2207   -3.9842 C   0  0  0  0  0  0  0  0  0  0  0  0
   30.0606  -20.2309   -4.8130 C   0  0  0  0  0  0  0  0  0  0  0  0
   29.4422  -20.4260   -6.0511 C   0  0  0  0  0  0  0  0  0  0  0  0
   26.1878  -21.4310   -6.6827 C   0  0  0  0  0  0  0  0  0  0  0  0
   26.7190  -21.9560   -5.5057 O   0  0  0  0  0  0  0  0  0  0  0  0
   24.9640  -21.1745   -6.6920 O   0  0  0  0  0  0  0  0  0  0  0  0
  2  1  1  6
  3  2  1  0
  4  3  1  0
  5  4  1  0
  5  6  2  0
  7  2  1  0
  7  8  2  0
  9  5  1  0
 10 11  1  0
 11 12  2  0
 12 13  1  0
 14 13  2  0
 14 15  1  0
 16 15  1  6
 16 17  1  0
 17  7  1  0
 18 16  1  0
 19 18  2  0
 20 14  1  0
 21 11  1  0
 21 20  2  0
 22 18  1  0
 23 24  1  1
 23 22  1  0
 24 25  1  0
 25 30  1  0
 26 25  2  0
 26 27  1  0
 27 28  2  0
 28 29  1  0
 30 29  2  0
 31 32  1  0
 31 23  1  0
 33 31  2  0
M  END
$$$$
