EYF.pdb
     RDKit          3D

 33 34  0  0  1  0  0  0  0  0999 V2000
   20.4994  -33.7772  -13.9347 N   0  0  0  0  0  0  0  0  0  0  0  0
   21.8424  -33.3379  -13.7962 C   0  0  1  0  0  0  0  0  0  0  0  0
   21.8475  -31.8694  -13.5468 C   0  0  0  0  0  0  0  0  0  0  0  0
   22.7219  -31.0652  -14.4587 C   0  0  0  0  0  0  0  0  0  0  0  0
   22.0516  -29.8014  -14.8893 C   0  0  0  0  0  0  0  0  0  0  0  0
   20.9067  -29.4577  -14.5043 O   0  0  0  0  0  0  0  0  0  0  0  0
   22.4884  -34.1546  -12.7432 C   0  0  0  0  0  0  0  0  0  0  0  0
   21.8085  -34.5753  -11.7777 O   0  0  0  0  0  0  0  0  0  0  0  0
   22.7314  -28.9724  -15.7557 O   0  0  0  0  0  0  0  0  0  0  0  0
   20.6504  -40.2868  -12.4039 O   0  0  0  0  0  0  0  0  0  0  0  0
   21.7069  -39.3777  -12.3636 C   0  0  0  0  0  0  0  0  0  0  0  0
   22.3870  -39.1064  -11.1956 C   0  0  0  0  0  0  0  0  0  0  0  0
   23.4363  -38.2049  -11.1499 C   0  0  0  0  0  0  0  0  0  0  0  0
   23.8472  -37.5353  -12.2846 C   0  0  0  0  0  0  0  0  0  0  0  0
   24.9733  -36.5678  -12.2339 C   0  0  0  0  0  0  0  0  0  0  0  0
   24.5749  -35.1996  -11.7694 C   0  0  2  0  0  0  0  0  0  0  0  0
   23.8879  -34.4725  -12.8115 N   0  0  0  0  0  0  0  0  0  0  0  0
   25.8303  -34.4790  -11.4250 C   0  0  0  0  0  0  0  0  0  0  0  0
   26.2982  -33.5700  -12.1763 O   0  0  0  0  0  0  0  0  0  0  0  0
   23.1669  -37.8065  -13.4542 C   0  0  0  0  0  0  0  0  0  0  0  0
   22.1147  -38.7102  -13.5002 C   0  0  0  0  0  0  0  0  0  0  0  0
   26.5009  -34.8349  -10.2247 N   0  0  0  0  0  0  0  0  0  0  0  0
   27.6462  -34.0502   -9.7816 C   0  0  1  0  0  0  0  0  0  0  0  0
   27.1347  -32.6788   -9.4683 C   0  0  0  0  0  0  0  0  0  0  0  0
   26.3919  -32.5500   -8.2157 C   0  0  0  0  0  0  0  0  0  0  0  0
   25.0153  -32.4208   -8.1433 C   0  0  0  0  0  0  0  0  0  0  0  0
   24.3393  -32.3070   -6.9516 C   0  0  0  0  0  0  0  0  0  0  0  0
   25.0429  -32.3201   -5.7747 C   0  0  0  0  0  0  0  0  0  0  0  0
   26.4224  -32.4472   -5.7908 C   0  0  0  0  0  0  0  0  0  0  0  0
   27.0780  -32.5609   -7.0198 C   0  0  0  0  0  0  0  0  0  0  0  0
   28.2138  -34.7105   -8.5861 C   0  0  0  0  0  0  0  0  0  0  0  0
   27.6184  -35.8135   -7.9760 O   0  0  0  0  0  0  0  0  0  0  0  0
   29.2729  -34.2805   -8.0793 O   0  0  0  0  0  0  0  0  0  0  0  0
  2  1  1  1
  3  2  1  0
  4  3  1  0
  5  4  1  0
  5  6  2  0
  7  2  1  0
  7  8  2  0
  9  5  1  0
 10 11  1  0
 11 12  2  0
 12 13  1  0
 14 13  2  0
 14 15  1  0
 16 15  1  6
 16 17  1  0
 17  7  1  0
 18 16  1  0
 19 18  2  0
 20 14  1  0
 21 11  1  0
 21 20  2  0
 22 18  1  0
 23 24  1  1
 23 22  1  0
 24 25  1  0
 25 30  1  0
 26 25  2  0
 26 27  1  0
 27 28  2  0
 28 29  1  0
 30 29  2  0
 31 32  1  0
 31 23  1  0
 33 31  2  0
M  END
$$$$
