EYF.pdb
     RDKit          3D

 33 34  0  0  1  0  0  0  0  0999 V2000
   28.5294  -20.6661  -17.2743 N   0  0  0  0  0  0  0  0  0  0  0  0
   27.5301  -21.6696  -17.1713 C   0  0  1  0  0  0  0  0  0  0  0  0
   27.9964  -22.8913  -17.8845 C   0  0  0  0  0  0  0  0  0  0  0  0
   28.3720  -22.6935  -19.3207 C   0  0  0  0  0  0  0  0  0  0  0  0
   29.6749  -21.9746  -19.4540 C   0  0  0  0  0  0  0  0  0  0  0  0
   30.7357  -22.3530  -18.8985 O   0  0  0  0  0  0  0  0  0  0  0  0
   27.2168  -21.8625  -15.7369 C   0  0  0  0  0  0  0  0  0  0  0  0
   26.5318  -22.8488  -15.3770 O   0  0  0  0  0  0  0  0  0  0  0  0
   29.7078  -20.8356  -20.2295 O   0  0  0  0  0  0  0  0  0  0  0  0
   27.0087  -20.3238   -6.9388 O   0  0  0  0  0  0  0  0  0  0  0  0
   27.3238  -20.3080   -8.2970 C   0  0  0  0  0  0  0  0  0  0  0  0
   28.3096  -21.1155   -8.8229 C   0  0  0  0  0  0  0  0  0  0  0  0
   28.6266  -21.1038  -10.1702 C   0  0  0  0  0  0  0  0  0  0  0  0
   27.9603  -20.2743  -11.0493 C   0  0  0  0  0  0  0  0  0  0  0  0
   28.3018  -20.2627  -12.4950 C   0  0  0  0  0  0  0  0  0  0  0  0
   27.3489  -21.0442  -13.3480 C   0  0  2  0  0  0  0  0  0  0  0  0
   27.6871  -20.9325  -14.7479 N   0  0  0  0  0  0  0  0  0  0  0  0
   25.9976  -20.4609  -13.1296 C   0  0  0  0  0  0  0  0  0  0  0  0
   25.7376  -19.2595  -13.4436 O   0  0  0  0  0  0  0  0  0  0  0  0
   26.9733  -19.4658  -10.5235 C   0  0  0  0  0  0  0  0  0  0  0  0
   26.6555  -19.4772   -9.1727 C   0  0  0  0  0  0  0  0  0  0  0  0
   24.9948  -21.2866  -12.5556 N   0  0  0  0  0  0  0  0  0  0  0  0
   23.7141  -20.7037  -12.1763 C   0  0  1  0  0  0  0  0  0  0  0  0
   22.7096  -21.1783  -13.1794 C   0  0  0  0  0  0  0  0  0  0  0  0
   22.7527  -20.5160  -14.4820 C   0  0  0  0  0  0  0  0  0  0  0  0
   22.1833  -19.2806  -14.7402 C   0  0  0  0  0  0  0  0  0  0  0  0
   22.2426  -18.6759  -15.9735 C   0  0  0  0  0  0  0  0  0  0  0  0
   22.8896  -19.3094  -17.0033 C   0  0  0  0  0  0  0  0  0  0  0  0
   23.4768  -20.5474  -16.7986 C   0  0  0  0  0  0  0  0  0  0  0  0
   23.3979  -21.1337  -15.5324 C   0  0  0  0  0  0  0  0  0  0  0  0
   23.3892  -21.1708  -10.8112 C   0  0  0  0  0  0  0  0  0  0  0  0
   24.1909  -22.0679  -10.1071 O   0  0  0  0  0  0  0  0  0  0  0  0
   22.3555  -20.7596  -10.2403 O   0  0  0  0  0  0  0  0  0  0  0  0
  2  1  1  1
  3  2  1  0
  4  3  1  0
  5  4  1  0
  5  6  2  0
  7  2  1  0
  7  8  2  0
  9  5  1  0
 10 11  1  0
 11 12  2  0
 12 13  1  0
 14 13  2  0
 14 15  1  0
 16 15  1  1
 16 17  1  0
 17  7  1  0
 18 16  1  0
 19 18  2  0
 20 14  1  0
 21 11  1  0
 21 20  2  0
 22 18  1  0
 23 24  1  6
 23 22  1  0
 24 25  1  0
 25 30  1  0
 26 25  2  0
 26 27  1  0
 27 28  2  0
 28 29  1  0
 30 29  2  0
 31 32  1  0
 31 23  1  0
 33 31  2  0
M  END
$$$$
