EYF.pdb
     RDKit          3D

 33 34  0  0  1  0  0  0  0  0999 V2000
   27.5587  -19.9181  -15.3147 N   0  0  0  0  0  0  0  0  0  0  0  0
   27.0717  -21.2460  -15.4392 C   0  0  1  0  0  0  0  0  0  0  0  0
   28.2282  -22.1741  -15.5790 C   0  0  0  0  0  0  0  0  0  0  0  0
   29.1027  -21.9369  -16.7715 C   0  0  0  0  0  0  0  0  0  0  0  0
   28.3793  -22.2183  -18.0481 C   0  0  0  0  0  0  0  0  0  0  0  0
   27.5932  -23.1858  -18.2009 O   0  0  0  0  0  0  0  0  0  0  0  0
   26.1832  -21.5210  -14.2868 C   0  0  0  0  0  0  0  0  0  0  0  0
   25.7182  -22.6733  -14.1210 O   0  0  0  0  0  0  0  0  0  0  0  0
   28.5901  -21.3668  -19.1112 O   0  0  0  0  0  0  0  0  0  0  0  0
   30.4977  -21.8571   -9.1022 O   0  0  0  0  0  0  0  0  0  0  0  0
   29.2656  -21.3985   -9.5668 C   0  0  0  0  0  0  0  0  0  0  0  0
   29.0936  -20.9693  -10.8655 C   0  0  0  0  0  0  0  0  0  0  0  0
   27.8729  -20.5131  -11.3320 C   0  0  0  0  0  0  0  0  0  0  0  0
   26.7682  -20.4698  -10.5058 C   0  0  0  0  0  0  0  0  0  0  0  0
   25.4587  -19.9795  -11.0078 C   0  0  0  0  0  0  0  0  0  0  0  0
   24.9685  -20.7029  -12.2255 C   0  0  2  0  0  0  0  0  0  0  0  0
   25.8443  -20.4830  -13.3530 N   0  0  0  0  0  0  0  0  0  0  0  0
   23.6243  -20.1497  -12.5431 C   0  0  0  0  0  0  0  0  0  0  0  0
   23.4839  -18.9735  -12.9977 O   0  0  0  0  0  0  0  0  0  0  0  0
   26.9397  -20.8993   -9.2057 C   0  0  0  0  0  0  0  0  0  0  0  0
   28.1635  -21.3567   -8.7378 C   0  0  0  0  0  0  0  0  0  0  0  0
   22.4896  -20.9752  -12.3236 N   0  0  0  0  0  0  0  0  0  0  0  0
   21.2044  -20.5976  -12.8974 C   0  0  1  0  0  0  0  0  0  0  0  0
   21.3955  -20.5345  -14.3806 C   0  0  0  0  0  0  0  0  0  0  0  0
   20.1953  -20.2431  -15.1628 C   0  0  0  0  0  0  0  0  0  0  0  0
   19.2760  -21.2017  -15.5539 C   0  0  0  0  0  0  0  0  0  0  0  0
   18.1511  -20.9009  -16.2849 C   0  0  0  0  0  0  0  0  0  0  0  0
   17.9139  -19.6008  -16.6508 C   0  0  0  0  0  0  0  0  0  0  0  0
   18.8022  -18.6026  -16.2851 C   0  0  0  0  0  0  0  0  0  0  0  0
   19.9357  -18.9431  -15.5420 C   0  0  0  0  0  0  0  0  0  0  0  0
   20.2159  -21.6291  -12.5151 C   0  0  0  0  0  0  0  0  0  0  0  0
   18.9367  -21.3186  -12.0560 O   0  0  0  0  0  0  0  0  0  0  0  0
   20.5147  -22.8405  -12.5965 O   0  0  0  0  0  0  0  0  0  0  0  0
  2  1  1  1
  3  2  1  0
  4  3  1  0
  5  4  1  0
  5  6  2  0
  7  2  1  0
  7  8  2  0
  9  5  1  0
 10 11  1  0
 11 12  2  0
 12 13  1  0
 14 13  2  0
 14 15  1  0
 16 15  1  1
 16 17  1  0
 17  7  1  0
 18 16  1  0
 19 18  2  0
 20 14  1  0
 21 11  1  0
 21 20  2  0
 22 18  1  0
 23 24  1  6
 23 22  1  0
 24 25  1  0
 25 30  1  0
 26 25  2  0
 26 27  1  0
 27 28  2  0
 28 29  1  0
 30 29  2  0
 31 32  1  0
 31 23  1  0
 33 31  2  0
M  END
$$$$
