ENG.pdb
     RDKit          3D

 22 21  0  0  1  0  0  0  0  0999 V2000
   10.7274  -18.2867   18.8032 N   0  0  0  0  0  0  0  0  0  0  0  0
   10.5075  -16.9561   18.2962 C   0  0  1  0  0  0  0  0  0  0  0  0
   10.0839  -17.0177   16.8644 C   0  0  0  0  0  0  0  0  0  0  0  0
    9.5764  -18.3795   16.4833 C   0  0  0  0  0  0  0  0  0  0  0  0
    9.0888  -18.3691   15.0991 C   0  0  0  0  0  0  0  0  0  0  0  0
    7.9898  -17.7991   14.8644 O   0  0  0  0  0  0  0  0  0  0  0  0
    9.5604  -16.1740   19.1350 C   0  0  0  0  0  0  0  0  0  0  0  0
    9.3513  -14.9712   18.9067 O   0  0  0  0  0  0  0  0  0  0  0  0
    9.7532  -18.9431   14.0277 O   0  0  0  0  0  0  0  0  0  0  0  0
    5.3224  -15.0471   20.6338 N   0  0  0  0  0  0  0  0  0  0  0  0
    5.5221  -16.3153   21.1930 C   0  0  0  0  0  0  0  0  0  0  0  0
    4.4816  -16.9839   21.5029 O   0  0  0  0  0  0  0  0  0  0  0  0
    6.8039  -16.9617   21.4622 C   0  0  0  0  0  0  0  0  0  0  0  0
    8.0029  -16.1330   21.1225 C   0  0  2  0  0  0  0  0  0  0  0  0
    8.8930  -16.7963   20.1966 N   0  0  0  0  0  0  0  0  0  0  0  0
    8.6933  -15.5927   22.3007 C   0  0  0  0  0  0  0  0  0  0  0  0
    8.1213  -14.8529   23.1158 O   0  0  0  0  0  0  0  0  0  0  0  0
   10.0558  -15.9327   22.5042 N   0  0  0  0  0  0  0  0  0  0  0  0
   10.8166  -15.4838   23.6363 C   0  0  0  0  0  0  0  0  0  0  0  0
   11.4998  -16.6382   24.2504 C   0  0  0  0  0  0  0  0  0  0  0  0
   12.3033  -16.4822   25.3401 O   0  0  0  0  0  0  0  0  0  0  0  0
   11.3337  -17.7788   23.7567 O   0  0  0  0  0  0  0  0  0  0  0  0
  2  1  1  1
  2  7  1  0
  2  3  1  0
  3  4  1  0
  4  5  1  0
  5  9  1  0
  6  5  2  0
  7 15  1  0
  8  7  2  0
 10 11  1  0
 11 13  1  0
 12 11  2  0
 14 13  1  1
 14 16  1  0
 15 14  1  0
 16 18  1  0
 16 17  2  0
 18 19  1  0
 19 20  1  0
 20 21  1  0
 22 20  2  0
M  END
$$$$
