ENG.pdb
     RDKit          3D

 22 21  0  0  1  0  0  0  0  0999 V2000
    9.3257  -13.8824   18.1992 N   0  0  0  0  0  0  0  0  0  0  0  0
    9.1368  -15.1906   17.6259 C   0  0  1  0  0  0  0  0  0  0  0  0
    8.9907  -15.0828   16.1426 C   0  0  0  0  0  0  0  0  0  0  0  0
    8.0682  -13.9655   15.7452 C   0  0  0  0  0  0  0  0  0  0  0  0
    7.9267  -13.9206   14.2852 C   0  0  0  0  0  0  0  0  0  0  0  0
    8.5123  -14.8070   13.6075 O   0  0  0  0  0  0  0  0  0  0  0  0
   10.2032  -16.1483   18.0230 C   0  0  0  0  0  0  0  0  0  0  0  0
   10.2342  -17.2976   17.5533 O   0  0  0  0  0  0  0  0  0  0  0  0
    7.1920  -12.9698   13.5959 O   0  0  0  0  0  0  0  0  0  0  0  0
   14.0333  -14.8099   16.8340 N   0  0  0  0  0  0  0  0  0  0  0  0
   13.7449  -15.9897   17.5309 C   0  0  0  0  0  0  0  0  0  0  0  0
   13.5865  -17.0490   16.8392 O   0  0  0  0  0  0  0  0  0  0  0  0
   13.6046  -16.1407   18.9769 C   0  0  0  0  0  0  0  0  0  0  0  0
   12.2533  -16.5996   19.4270 C   0  0  2  0  0  0  0  0  0  0  0  0
   11.1874  -15.7548   18.9374 N   0  0  0  0  0  0  0  0  0  0  0  0
   12.1725  -16.8523   20.8714 C   0  0  0  0  0  0  0  0  0  0  0  0
   11.9313  -17.9799   21.3289 O   0  0  0  0  0  0  0  0  0  0  0  0
   12.3779  -15.7675   21.7628 N   0  0  0  0  0  0  0  0  0  0  0  0
   12.2810  -15.8944   23.1899 C   0  0  0  0  0  0  0  0  0  0  0  0
   13.5744  -15.5296   23.7984 C   0  0  0  0  0  0  0  0  0  0  0  0
   14.6773  -15.3103   23.0285 O   0  0  0  0  0  0  0  0  0  0  0  0
   13.6531  -15.4208   25.0451 O   0  0  0  0  0  0  0  0  0  0  0  0
  2  1  1  6
  2  7  1  0
  2  3  1  0
  3  4  1  0
  4  5  1  0
  5  9  1  0
  6  5  2  0
  7 15  1  0
  8  7  2  0
 10 11  1  0
 11 13  1  0
 12 11  2  0
 14 13  1  1
 14 16  1  0
 15 14  1  0
 16 18  1  0
 16 17  2  0
 18 19  1  0
 19 20  1  0
 20 21  1  0
 22 20  2  0
M  END
$$$$
