ENG.pdb
     RDKit          3D

 22 21  0  0  1  0  0  0  0  0999 V2000
    9.5619  -17.9697   17.3258 N   0  0  0  0  0  0  0  0  0  0  0  0
    8.8257  -18.0090   18.5637 C   0  0  1  0  0  0  0  0  0  0  0  0
    8.9737  -19.3509   19.2045 C   0  0  0  0  0  0  0  0  0  0  0  0
   10.4017  -19.8178   19.2150 C   0  0  0  0  0  0  0  0  0  0  0  0
   10.6370  -20.7017   20.3626 C   0  0  0  0  0  0  0  0  0  0  0  0
   11.0488  -21.8704   20.1333 O   0  0  0  0  0  0  0  0  0  0  0  0
    9.1920  -16.8980   19.4822 C   0  0  0  0  0  0  0  0  0  0  0  0
   10.3668  -16.5046   19.5691 O   0  0  0  0  0  0  0  0  0  0  0  0
   10.4385  -20.3416   21.6855 O   0  0  0  0  0  0  0  0  0  0  0  0
    7.1141  -12.6457   19.1675 N   0  0  0  0  0  0  0  0  0  0  0  0
    7.5671  -12.9712   20.4519 C   0  0  0  0  0  0  0  0  0  0  0  0
    8.2871  -12.1059   21.0506 O   0  0  0  0  0  0  0  0  0  0  0  0
    7.3022  -14.2050   21.1874 C   0  0  0  0  0  0  0  0  0  0  0  0
    8.4291  -15.1897   21.1784 C   0  0  2  0  0  0  0  0  0  0  0  0
    8.2042  -16.2839   20.2610 N   0  0  0  0  0  0  0  0  0  0  0  0
    8.8284  -15.6338   22.5201 C   0  0  0  0  0  0  0  0  0  0  0  0
    8.1261  -16.4030   23.1938 O   0  0  0  0  0  0  0  0  0  0  0  0
   10.0562  -15.1632   23.0534 N   0  0  0  0  0  0  0  0  0  0  0  0
   10.5356  -15.5242   24.3580 C   0  0  0  0  0  0  0  0  0  0  0  0
   11.3861  -16.7245   24.2474 C   0  0  0  0  0  0  0  0  0  0  0  0
   12.5828  -16.6813   23.5966 O   0  0  0  0  0  0  0  0  0  0  0  0
   10.9957  -17.7985   24.7633 O   0  0  0  0  0  0  0  0  0  0  0  0
  2  1  1  6
  2  7  1  0
  2  3  1  0
  3  4  1  0
  4  5  1  0
  5  9  1  0
  6  5  2  0
  7 15  1  0
  8  7  2  0
 10 11  1  0
 11 13  1  0
 12 11  2  0
 14 13  1  1
 14 16  1  0
 15 14  1  0
 16 18  1  0
 16 17  2  0
 18 19  1  0
 19 20  1  0
 20 21  1  0
 22 20  2  0
M  END
$$$$
