ENG.pdb
     RDKit          3D

 22 21  0  0  1  0  0  0  0  0999 V2000
   14.5262  -14.5164   16.7025 N   0  0  0  0  0  0  0  0  0  0  0  0
   13.5590  -15.3420   17.3798 C   0  0  1  0  0  0  0  0  0  0  0  0
   14.2489  -16.4639   18.0858 C   0  0  0  0  0  0  0  0  0  0  0  0
   15.2368  -15.9686   19.1037 C   0  0  0  0  0  0  0  0  0  0  0  0
   15.9630  -17.0980   19.6961 C   0  0  0  0  0  0  0  0  0  0  0  0
   16.4279  -16.9566   20.8587 O   0  0  0  0  0  0  0  0  0  0  0  0
   12.6742  -14.5608   18.2847 C   0  0  0  0  0  0  0  0  0  0  0  0
   13.1127  -13.5883   18.9206 O   0  0  0  0  0  0  0  0  0  0  0  0
   16.1743  -18.3135   19.0661 O   0  0  0  0  0  0  0  0  0  0  0  0
    7.7364  -12.0582   19.1555 N   0  0  0  0  0  0  0  0  0  0  0  0
    7.9525  -13.4414   19.1837 C   0  0  0  0  0  0  0  0  0  0  0  0
    7.1595  -14.1388   19.8982 O   0  0  0  0  0  0  0  0  0  0  0  0
    8.9965  -14.1793   18.4775 C   0  0  0  0  0  0  0  0  0  0  0  0
   10.3347  -14.1599   19.1472 C   0  0  2  0  0  0  0  0  0  0  0  0
   11.3289  -14.9215   18.4254 N   0  0  0  0  0  0  0  0  0  0  0  0
   10.2782  -14.4923   20.5765 C   0  0  0  0  0  0  0  0  0  0  0  0
    9.6169  -13.8195   21.3821 O   0  0  0  0  0  0  0  0  0  0  0  0
   11.0055  -15.6188   21.0407 N   0  0  0  0  0  0  0  0  0  0  0  0
   10.9641  -16.0738   22.4021 C   0  0  0  0  0  0  0  0  0  0  0  0
   12.3392  -16.3348   22.8684 C   0  0  0  0  0  0  0  0  0  0  0  0
   12.6467  -17.4743   23.5498 O   0  0  0  0  0  0  0  0  0  0  0  0
   13.2348  -15.4902   22.6303 O   0  0  0  0  0  0  0  0  0  0  0  0
  2  1  1  1
  2  7  1  0
  2  3  1  0
  3  4  1  0
  4  5  1  0
  5  9  1  0
  6  5  2  0
  7 15  1  0
  8  7  2  0
 10 11  1  0
 11 13  1  0
 12 11  2  0
 14 13  1  6
 14 16  1  0
 15 14  1  0
 16 18  1  0
 16 17  2  0
 18 19  1  0
 19 20  1  0
 20 21  1  0
 22 20  2  0
M  END
$$$$
