SFV.pdb
     RDKit          3D

 25 25  0  0  1  0  0  0  0  0999 V2000
    9.3162  -18.7687   21.6871 O   0  0  0  0  0  0  0  0  0  0  0  0
   10.2573  -18.2266   20.8284 C   0  0  0  0  0  0  0  0  0  0  0  0
    9.8029  -16.8114   20.4399 C   0  0  2  0  0  0  0  0  0  0  0  0
   10.7699  -16.2098   19.5676 N   0  0  0  0  0  0  0  0  0  0  0  0
    9.7637  -16.0480   21.7088 C   0  0  0  0  0  0  0  0  0  0  0  0
   10.8628  -15.6353   22.1705 O   0  0  0  0  0  0  0  0  0  0  0  0
    8.5330  -15.8018   22.3615 N   0  0  0  0  0  0  0  0  0  0  0  0
    8.5403  -15.1087   23.6269 C   0  0  1  0  0  0  0  0  0  0  0  0
    7.2544  -14.3499   23.7989 C   0  0  0  0  0  0  0  0  0  0  0  0
    7.1527  -13.6020   25.0548 C   0  0  0  0  0  0  0  0  0  0  0  0
    6.4594  -14.0661   26.1473 C   0  0  0  0  0  0  0  0  0  0  0  0
    6.3886  -13.3115   27.3263 C   0  0  0  0  0  0  0  0  0  0  0  0
    7.0123  -12.0894   27.4142 C   0  0  0  0  0  0  0  0  0  0  0  0
    7.7045  -11.6234   26.3272 C   0  0  0  0  0  0  0  0  0  0  0  0
    7.7644  -12.3782   25.1753 C   0  0  0  0  0  0  0  0  0  0  0  0
    8.8531  -16.0359   24.7069 C   0  0  0  0  0  0  0  0  0  0  0  0
    8.2732  -17.1375   24.9040 O   0  0  0  0  0  0  0  0  0  0  0  0
   12.3555  -17.2028   25.2059 C   0  0  0  0  0  0  0  0  0  0  0  0
   11.8513  -16.7312   26.5426 C   0  0  2  0  0  0  0  0  0  0  0  0
   12.4329  -17.6208   27.6111 C   0  0  0  0  0  0  0  0  0  0  0  0
   10.3485  -16.6582   26.6180 C   0  0  2  0  0  0  0  0  0  0  0  0
    9.8860  -15.6957   25.6213 N   0  0  0  0  0  0  0  0  0  0  0  0
   10.0148  -16.1893   28.0000 C   0  0  0  0  0  0  0  0  0  0  0  0
    9.8553  -14.9737   28.1822 O   0  0  0  0  0  0  0  0  0  0  0  0
    9.9042  -17.1362   28.9897 O   0  0  0  0  0  0  0  0  0  0  0  0
  2  1  1  0
  3  2  1  0
  3  4  1  6
  5  3  1  0
  6  5  2  0
  7  5  1  0
  8  7  1  0
  8  9  1  1
  9 10  1  0
 10 15  2  0
 10 11  1  0
 11 12  2  0
 12 13  1  0
 14 13  2  0
 15 14  1  0
 16 22  1  0
 16  8  1  0
 17 16  2  0
 19 18  1  6
 19 21  1  0
 20 19  1  0
 21 23  1  0
 21 22  1  6
 23 25  1  0
 24 23  2  0
M  END
$$$$
