SFV.pdb
     RDKit          3D

 25 25  0  0  1  0  0  0  0  0999 V2000
   11.6917  -18.6084   22.1423 O   0  0  0  0  0  0  0  0  0  0  0  0
   10.5983  -18.3743   21.3259 C   0  0  0  0  0  0  0  0  0  0  0  0
   10.6871  -16.9354   20.7952 C   0  0  2  0  0  0  0  0  0  0  0  0
   12.0242  -16.6584   20.3550 N   0  0  0  0  0  0  0  0  0  0  0  0
   10.3765  -16.0678   21.9549 C   0  0  0  0  0  0  0  0  0  0  0  0
   11.3210  -15.3835   22.4358 O   0  0  0  0  0  0  0  0  0  0  0  0
    9.0667  -16.0221   22.4876 N   0  0  0  0  0  0  0  0  0  0  0  0
    8.8009  -15.1608   23.6143 C   0  0  1  0  0  0  0  0  0  0  0  0
    7.3623  -14.7263   23.5944 C   0  0  0  0  0  0  0  0  0  0  0  0
    6.9999  -13.7743   24.6476 C   0  0  0  0  0  0  0  0  0  0  0  0
    6.2578  -14.1258   25.7501 C   0  0  0  0  0  0  0  0  0  0  0  0
    5.9339  -13.1772   26.7297 C   0  0  0  0  0  0  0  0  0  0  0  0
    6.3524  -11.8732   26.6076 C   0  0  0  0  0  0  0  0  0  0  0  0
    7.0923  -11.5190   25.5098 C   0  0  0  0  0  0  0  0  0  0  0  0
    7.4023  -12.4644   24.5557 C   0  0  0  0  0  0  0  0  0  0  0  0
    9.2296  -15.8026   24.8505 C   0  0  0  0  0  0  0  0  0  0  0  0
    9.1762  -17.0412   25.0778 O   0  0  0  0  0  0  0  0  0  0  0  0
   11.4007  -14.9956   29.2842 C   0  0  0  0  0  0  0  0  0  0  0  0
   10.7028  -14.4984   28.0476 C   0  0  2  0  0  0  0  0  0  0  0  0
    9.4883  -13.7125   28.4704 C   0  0  0  0  0  0  0  0  0  0  0  0
   10.3601  -15.5980   27.0767 C   0  0  2  0  0  0  0  0  0  0  0  0
    9.7508  -14.9927   25.8952 N   0  0  0  0  0  0  0  0  0  0  0  0
    9.3838  -16.4925   27.7753 C   0  0  0  0  0  0  0  0  0  0  0  0
    8.1760  -16.2347   27.6698 O   0  0  0  0  0  0  0  0  0  0  0  0
    9.8842  -17.5506   28.4952 O   0  0  0  0  0  0  0  0  0  0  0  0
  2  1  1  0
  3  2  1  0
  3  4  1  1
  5  3  1  0
  6  5  2  0
  7  5  1  0
  8  7  1  0
  8  9  1  1
  9 10  1  0
 10 15  2  0
 10 11  1  0
 11 12  2  0
 12 13  1  0
 14 13  2  0
 15 14  1  0
 16 22  1  0
 16  8  1  0
 17 16  2  0
 19 18  1  1
 19 21  1  0
 20 19  1  0
 21 23  1  0
 21 22  1  6
 23 25  1  0
 24 23  2  0
M  END
$$$$
