SFV.pdb
     RDKit          3D

 25 25  0  0  1  0  0  0  0  0999 V2000
    9.8260  -18.9376   21.2676 O   0  0  0  0  0  0  0  0  0  0  0  0
    8.7421  -18.4274   20.5736 C   0  0  0  0  0  0  0  0  0  0  0  0
    9.0383  -16.9624   20.2184 C   0  0  2  0  0  0  0  0  0  0  0  0
   10.2828  -16.8732   19.5103 N   0  0  0  0  0  0  0  0  0  0  0  0
    9.1759  -16.2623   21.5165 C   0  0  0  0  0  0  0  0  0  0  0  0
   10.3398  -16.1379   21.9870 O   0  0  0  0  0  0  0  0  0  0  0  0
    8.0355  -15.7601   22.1864 N   0  0  0  0  0  0  0  0  0  0  0  0
    8.2071  -15.0995   23.4576 C   0  0  1  0  0  0  0  0  0  0  0  0
    7.0164  -14.2280   23.7430 C   0  0  0  0  0  0  0  0  0  0  0  0
    7.1025  -13.4714   24.9949 C   0  0  0  0  0  0  0  0  0  0  0  0
    6.3956  -13.8111   26.1239 C   0  0  0  0  0  0  0  0  0  0  0  0
    6.5094  -13.0532   27.2974 C   0  0  0  0  0  0  0  0  0  0  0  0
    7.3319  -11.9524   27.3432 C   0  0  0  0  0  0  0  0  0  0  0  0
    8.0382  -11.6106   26.2197 C   0  0  0  0  0  0  0  0  0  0  0  0
    7.9149  -12.3669   25.0738 C   0  0  0  0  0  0  0  0  0  0  0  0
    8.5136  -16.0762   24.4950 C   0  0  0  0  0  0  0  0  0  0  0  0
    7.7989  -17.0740   24.7818 O   0  0  0  0  0  0  0  0  0  0  0  0
   12.1586  -18.3722   26.7172 C   0  0  0  0  0  0  0  0  0  0  0  0
   11.5868  -17.2861   25.8471 C   0  0  2  0  0  0  0  0  0  0  0  0
   12.4824  -16.0779   25.9443 C   0  0  0  0  0  0  0  0  0  0  0  0
   10.1524  -16.9594   26.1713 C   0  0  2  0  0  0  0  0  0  0  0  0
    9.7025  -15.9138   25.2559 N   0  0  0  0  0  0  0  0  0  0  0  0
   10.1380  -16.4665   27.5848 C   0  0  0  0  0  0  0  0  0  0  0  0
   10.1542  -15.2421   27.7769 O   0  0  0  0  0  0  0  0  0  0  0  0
   10.1075  -17.4023   28.5905 O   0  0  0  0  0  0  0  0  0  0  0  0
  2  1  1  0
  3  2  1  0
  3  4  1  1
  5  3  1  0
  6  5  2  0
  7  5  1  0
  8  7  1  0
  8  9  1  1
  9 10  1  0
 10 15  2  0
 10 11  1  0
 11 12  2  0
 12 13  1  0
 14 13  2  0
 15 14  1  0
 16 22  1  0
 16  8  1  0
 17 16  2  0
 19 18  1  1
 19 21  1  0
 20 19  1  0
 21 23  1  0
 21 22  1  6
 23 25  1  0
 24 23  2  0
M  END
$$$$
