SFV.pdb
     RDKit          3D

 25 25  0  0  1  0  0  0  0  0999 V2000
   12.4574  -18.5524   22.2476 O   0  0  0  0  0  0  0  0  0  0  0  0
   11.2534  -18.6033   21.5660 C   0  0  0  0  0  0  0  0  0  0  0  0
   10.9973  -17.2294   20.9282 C   0  0  2  0  0  0  0  0  0  0  0  0
   12.2015  -16.7407   20.3203 N   0  0  0  0  0  0  0  0  0  0  0  0
   10.6324  -16.3354   22.0515 C   0  0  0  0  0  0  0  0  0  0  0  0
   11.5092  -15.5219   22.4527 O   0  0  0  0  0  0  0  0  0  0  0  0
    9.3467  -16.4060   22.6375 N   0  0  0  0  0  0  0  0  0  0  0  0
    9.0165  -15.4969   23.7081 C   0  0  1  0  0  0  0  0  0  0  0  0
    7.5464  -15.1861   23.6766 C   0  0  0  0  0  0  0  0  0  0  0  0
    7.1359  -14.0963   24.5658 C   0  0  0  0  0  0  0  0  0  0  0  0
    7.4941  -12.7856   24.3570 C   0  0  0  0  0  0  0  0  0  0  0  0
    7.0787  -11.7785   25.2388 C   0  0  0  0  0  0  0  0  0  0  0  0
    6.3030  -12.0816   26.3328 C   0  0  0  0  0  0  0  0  0  0  0  0
    5.9438  -13.3871   26.5443 C   0  0  0  0  0  0  0  0  0  0  0  0
    6.3608  -14.3654   25.6673 C   0  0  0  0  0  0  0  0  0  0  0  0
    9.5051  -16.0171   24.9788 C   0  0  0  0  0  0  0  0  0  0  0  0
    9.8609  -17.2090   25.1827 O   0  0  0  0  0  0  0  0  0  0  0  0
   10.4283  -13.1193   27.9025 C   0  0  0  0  0  0  0  0  0  0  0  0
   10.0136  -14.4889   28.3671 C   0  0  2  0  0  0  0  0  0  0  0  0
   10.7283  -14.7894   29.6594 C   0  0  0  0  0  0  0  0  0  0  0  0
   10.2357  -15.5596   27.3309 C   0  0  2  0  0  0  0  0  0  0  0  0
    9.5965  -15.1343   26.0883 N   0  0  0  0  0  0  0  0  0  0  0  0
    9.5894  -16.8025   27.8591 C   0  0  0  0  0  0  0  0  0  0  0  0
    8.3682  -16.9400   27.6977 O   0  0  0  0  0  0  0  0  0  0  0  0
   10.3895  -17.7216   28.4942 O   0  0  0  0  0  0  0  0  0  0  0  0
  2  1  1  0
  3  2  1  0
  3  4  1  1
  5  3  1  0
  6  5  2  0
  7  5  1  0
  8  7  1  0
  8  9  1  1
  9 10  1  0
 10 15  2  0
 10 11  1  0
 11 12  2  0
 12 13  1  0
 14 13  2  0
 15 14  1  0
 16 22  1  0
 16  8  1  0
 17 16  2  0
 19 18  1  6
 19 21  1  0
 20 19  1  0
 21 23  1  0
 21 22  1  6
 23 25  1  0
 24 23  2  0
M  END
$$$$
