SFV.pdb
     RDKit          3D

 25 25  0  0  1  0  0  0  0  0999 V2000
   11.6128  -18.8228   22.3765 O   0  0  0  0  0  0  0  0  0  0  0  0
   12.1735  -17.9782   21.4336 C   0  0  0  0  0  0  0  0  0  0  0  0
   11.0672  -17.0699   20.8757 C   0  0  2  0  0  0  0  0  0  0  0  0
   11.5974  -16.2371   19.8347 N   0  0  0  0  0  0  0  0  0  0  0  0
   10.6528  -16.2117   22.0097 C   0  0  0  0  0  0  0  0  0  0  0  0
   11.3709  -15.2073   22.2686 O   0  0  0  0  0  0  0  0  0  0  0  0
    9.4947  -16.5227   22.7604 N   0  0  0  0  0  0  0  0  0  0  0  0
    9.1103  -15.6511   23.8441 C   0  0  1  0  0  0  0  0  0  0  0  0
    7.6362  -15.3676   23.7706 C   0  0  0  0  0  0  0  0  0  0  0  0
    7.1755  -14.3059   24.6693 C   0  0  0  0  0  0  0  0  0  0  0  0
    6.3901  -14.5477   25.7713 C   0  0  0  0  0  0  0  0  0  0  0  0
    5.9720  -13.4970   26.5995 C   0  0  0  0  0  0  0  0  0  0  0  0
    6.3396  -12.2007   26.3258 C   0  0  0  0  0  0  0  0  0  0  0  0
    7.1225  -11.9557   25.2281 C   0  0  0  0  0  0  0  0  0  0  0  0
    7.5251  -13.0006   24.4241 C   0  0  0  0  0  0  0  0  0  0  0  0
    9.5658  -16.1983   25.1157 C   0  0  0  0  0  0  0  0  0  0  0  0
    9.6591  -17.4268   25.3818 O   0  0  0  0  0  0  0  0  0  0  0  0
    9.2980  -14.3518   28.9488 C   0  0  0  0  0  0  0  0  0  0  0  0
   10.6470  -14.6623   28.3593 C   0  0  2  0  0  0  0  0  0  0  0  0
   11.2154  -13.3935   27.7778 C   0  0  0  0  0  0  0  0  0  0  0  0
   10.6115  -15.7838   27.3541 C   0  0  2  0  0  0  0  0  0  0  0  0
    9.9388  -15.2998   26.1513 N   0  0  0  0  0  0  0  0  0  0  0  0
    9.8316  -16.8951   27.9849 C   0  0  0  0  0  0  0  0  0  0  0  0
   10.3833  -17.5690   28.8668 O   0  0  0  0  0  0  0  0  0  0  0  0
    8.5455  -17.1047   27.5486 O   0  0  0  0  0  0  0  0  0  0  0  0
  2  1  1  0
  3  2  1  0
  3  4  1  6
  5  3  1  0
  6  5  2  0
  7  5  1  0
  8  7  1  0
  8  9  1  1
  9 10  1  0
 10 15  2  0
 10 11  1  0
 11 12  2  0
 12 13  1  0
 14 13  2  0
 15 14  1  0
 16 22  1  0
 16  8  1  0
 17 16  2  0
 19 18  1  6
 19 21  1  0
 20 19  1  0
 21 23  1  0
 21 22  1  6
 23 25  1  0
 24 23  2  0
M  END
$$$$
