SFV.pdb
     RDKit          3D

 25 25  0  0  1  0  0  0  0  0999 V2000
   12.4306  -18.4908   21.9104 O   0  0  0  0  0  0  0  0  0  0  0  0
   11.1119  -18.4417   21.4916 C   0  0  0  0  0  0  0  0  0  0  0  0
   10.8491  -17.0600   20.8736 C   0  0  2  0  0  0  0  0  0  0  0  0
   12.0402  -16.5743   20.2384 N   0  0  0  0  0  0  0  0  0  0  0  0
   10.5208  -16.1741   22.0145 C   0  0  0  0  0  0  0  0  0  0  0  0
   11.4344  -15.4155   22.4403 O   0  0  0  0  0  0  0  0  0  0  0  0
    9.2285  -16.1926   22.5899 N   0  0  0  0  0  0  0  0  0  0  0  0
    8.9417  -15.3051   23.6908 C   0  0  1  0  0  0  0  0  0  0  0  0
    7.5047  -14.8687   23.6314 C   0  0  0  0  0  0  0  0  0  0  0  0
    7.1180  -13.9068   24.6669 C   0  0  0  0  0  0  0  0  0  0  0  0
    6.3254  -14.2409   25.7392 C   0  0  0  0  0  0  0  0  0  0  0  0
    5.9800  -13.2833   26.7027 C   0  0  0  0  0  0  0  0  0  0  0  0
    6.4277  -11.9878   26.5945 C   0  0  0  0  0  0  0  0  0  0  0  0
    7.2181  -11.6509   25.5269 C   0  0  0  0  0  0  0  0  0  0  0  0
    7.5485  -12.6049   24.5883 C   0  0  0  0  0  0  0  0  0  0  0  0
    9.3435  -15.9190   24.9499 C   0  0  0  0  0  0  0  0  0  0  0  0
    9.4951  -17.1566   25.1345 O   0  0  0  0  0  0  0  0  0  0  0  0
   10.8314  -13.2255   27.8527 C   0  0  0  0  0  0  0  0  0  0  0  0
   10.2415  -14.5288   28.3185 C   0  0  2  0  0  0  0  0  0  0  0  0
   10.9602  -14.9548   29.5727 C   0  0  0  0  0  0  0  0  0  0  0  0
   10.2594  -15.6003   27.2598 C   0  0  2  0  0  0  0  0  0  0  0  0
    9.5889  -15.0808   26.0706 N   0  0  0  0  0  0  0  0  0  0  0  0
    9.5081  -16.7665   27.8230 C   0  0  0  0  0  0  0  0  0  0  0  0
    8.2781  -16.7965   27.6734 O   0  0  0  0  0  0  0  0  0  0  0  0
   10.2275  -17.7389   28.4750 O   0  0  0  0  0  0  0  0  0  0  0  0
  2  1  1  0
  3  2  1  0
  3  4  1  1
  5  3  1  0
  6  5  2  0
  7  5  1  0
  8  7  1  0
  8  9  1  1
  9 10  1  0
 10 15  2  0
 10 11  1  0
 11 12  2  0
 12 13  1  0
 14 13  2  0
 15 14  1  0
 16 22  1  0
 16  8  1  0
 17 16  2  0
 19 18  1  6
 19 21  1  0
 20 19  1  0
 21 23  1  0
 21 22  1  6
 23 25  1  0
 24 23  2  0
M  END
$$$$
