SFV.pdb
     RDKit          3D

 25 25  0  0  1  0  0  0  0  0999 V2000
   10.6059  -18.6169   21.2942 O   0  0  0  0  0  0  0  0  0  0  0  0
    9.3695  -18.2323   20.8045 C   0  0  0  0  0  0  0  0  0  0  0  0
    9.4511  -16.7574   20.3825 C   0  0  2  0  0  0  0  0  0  0  0  0
   10.6675  -16.5227   19.6589 N   0  0  0  0  0  0  0  0  0  0  0  0
    9.4915  -15.9874   21.6473 C   0  0  0  0  0  0  0  0  0  0  0  0
   10.6137  -15.5520   22.0248 O   0  0  0  0  0  0  0  0  0  0  0  0
    8.3079  -15.7598   22.3880 N   0  0  0  0  0  0  0  0  0  0  0  0
    8.3987  -15.0810   23.6580 C   0  0  1  0  0  0  0  0  0  0  0  0
    7.0959  -14.3969   23.9636 C   0  0  0  0  0  0  0  0  0  0  0  0
    7.1014  -13.5990   25.1926 C   0  0  0  0  0  0  0  0  0  0  0  0
    7.5149  -12.2886   25.2314 C   0  0  0  0  0  0  0  0  0  0  0  0
    7.5046  -11.5678   26.4334 C   0  0  0  0  0  0  0  0  0  0  0  0
    7.0800  -12.1580   27.6004 C   0  0  0  0  0  0  0  0  0  0  0  0
    6.6671  -13.4643   27.5657 C   0  0  0  0  0  0  0  0  0  0  0  0
    6.6834  -14.1588   26.3751 C   0  0  0  0  0  0  0  0  0  0  0  0
    8.8636  -16.0009   24.6883 C   0  0  0  0  0  0  0  0  0  0  0  0
    8.3826  -17.1456   24.9053 O   0  0  0  0  0  0  0  0  0  0  0  0
   12.7005  -16.4893   25.2861 C   0  0  0  0  0  0  0  0  0  0  0  0
   11.9872  -16.2727   26.5929 C   0  0  2  0  0  0  0  0  0  0  0  0
   12.6499  -17.1260   27.6436 C   0  0  0  0  0  0  0  0  0  0  0  0
   10.5041  -16.5229   26.5081 C   0  0  2  0  0  0  0  0  0  0  0  0
    9.9394  -15.6011   25.5258 N   0  0  0  0  0  0  0  0  0  0  0  0
    9.9484  -16.2485   27.8709 C   0  0  0  0  0  0  0  0  0  0  0  0
    9.7074  -15.0721   28.1777 O   0  0  0  0  0  0  0  0  0  0  0  0
    9.7372  -17.3197   28.7054 O   0  0  0  0  0  0  0  0  0  0  0  0
  2  1  1  0
  3  2  1  0
  3  4  1  1
  5  3  1  0
  6  5  2  0
  7  5  1  0
  8  7  1  0
  8  9  1  1
  9 10  1  0
 10 15  2  0
 10 11  1  0
 11 12  2  0
 12 13  1  0
 14 13  2  0
 15 14  1  0
 16 22  1  0
 16  8  1  0
 17 16  2  0
 19 18  1  6
 19 21  1  0
 20 19  1  0
 21 23  1  0
 21 22  1  6
 23 25  1  0
 24 23  2  0
M  END
$$$$
