SFV.pdb
     RDKit          3D

 25 25  0  0  1  0  0  0  0  0999 V2000
   12.2778  -18.4299   22.1508 O   0  0  0  0  0  0  0  0  0  0  0  0
   11.1501  -18.4550   21.3480 C   0  0  0  0  0  0  0  0  0  0  0  0
   10.9598  -17.0600   20.7334 C   0  0  2  0  0  0  0  0  0  0  0  0
   12.1912  -16.6108   20.1501 N   0  0  0  0  0  0  0  0  0  0  0  0
   10.6173  -16.1725   21.8688 C   0  0  0  0  0  0  0  0  0  0  0  0
   11.5179  -15.3950   22.2884 O   0  0  0  0  0  0  0  0  0  0  0  0
    9.3263  -16.2099   22.4460 N   0  0  0  0  0  0  0  0  0  0  0  0
    9.0152  -15.2987   23.5206 C   0  0  1  0  0  0  0  0  0  0  0  0
    7.5752  -14.8782   23.4304 C   0  0  0  0  0  0  0  0  0  0  0  0
    7.1764  -13.8607   24.4064 C   0  0  0  0  0  0  0  0  0  0  0  0
    6.4247  -14.1476   25.5210 C   0  0  0  0  0  0  0  0  0  0  0  0
    6.0656  -13.1379   26.4243 C   0  0  0  0  0  0  0  0  0  0  0  0
    6.4586  -11.8373   26.2135 C   0  0  0  0  0  0  0  0  0  0  0  0
    7.2080  -11.5473   25.1034 C   0  0  0  0  0  0  0  0  0  0  0  0
    7.5526  -12.5523   24.2251 C   0  0  0  0  0  0  0  0  0  0  0  0
    9.4051  -15.8775   24.8000 C   0  0  0  0  0  0  0  0  0  0  0  0
    9.4423  -17.1116   25.0534 O   0  0  0  0  0  0  0  0  0  0  0  0
   11.2496  -14.8083   29.3232 C   0  0  0  0  0  0  0  0  0  0  0  0
   10.5414  -14.4054   28.0584 C   0  0  2  0  0  0  0  0  0  0  0  0
    9.1876  -13.8547   28.4261 C   0  0  0  0  0  0  0  0  0  0  0  0
   10.4480  -15.5202   27.0495 C   0  0  2  0  0  0  0  0  0  0  0  0
    9.7755  -15.0059   25.8592 N   0  0  0  0  0  0  0  0  0  0  0  0
    9.6365  -16.6042   27.6882 C   0  0  0  0  0  0  0  0  0  0  0  0
    8.4195  -16.6372   27.4557 O   0  0  0  0  0  0  0  0  0  0  0  0
   10.2894  -17.5024   28.4975 O   0  0  0  0  0  0  0  0  0  0  0  0
  2  1  1  0
  3  2  1  0
  3  4  1  1
  5  3  1  0
  6  5  2  0
  7  5  1  0
  8  7  1  0
  8  9  1  1
  9 10  1  0
 10 15  2  0
 10 11  1  0
 11 12  2  0
 12 13  1  0
 14 13  2  0
 15 14  1  0
 16 22  1  0
 16  8  1  0
 17 16  2  0
 19 18  1  1
 19 21  1  0
 20 19  1  0
 21 23  1  0
 21 22  1  6
 23 25  1  0
 24 23  2  0
M  END
$$$$
