SFV.pdb
     RDKit          3D

 25 25  0  0  1  0  0  0  0  0999 V2000
    9.8955  -18.5664   21.2810 O   0  0  0  0  0  0  0  0  0  0  0  0
    8.9747  -18.0507   20.3849 C   0  0  0  0  0  0  0  0  0  0  0  0
    9.2984  -16.5665   20.1555 C   0  0  2  0  0  0  0  0  0  0  0  0
   10.5856  -16.4373   19.5353 N   0  0  0  0  0  0  0  0  0  0  0  0
    9.3562  -15.9624   21.5067 C   0  0  0  0  0  0  0  0  0  0  0  0
   10.4958  -15.8181   22.0284 O   0  0  0  0  0  0  0  0  0  0  0  0
    8.1698  -15.5692   22.1694 N   0  0  0  0  0  0  0  0  0  0  0  0
    8.2685  -14.9479   23.4679 C   0  0  1  0  0  0  0  0  0  0  0  0
    7.0838  -14.0513   23.6943 C   0  0  0  0  0  0  0  0  0  0  0  0
    7.0855  -13.3551   24.9836 C   0  0  0  0  0  0  0  0  0  0  0  0
    6.3349  -13.7694   26.0581 C   0  0  0  0  0  0  0  0  0  0  0  0
    6.3682  -13.0671   27.2706 C   0  0  0  0  0  0  0  0  0  0  0  0
    7.1537  -11.9474   27.4102 C   0  0  0  0  0  0  0  0  0  0  0  0
    7.9034  -11.5312   26.3412 C   0  0  0  0  0  0  0  0  0  0  0  0
    7.8592  -12.2334   25.1558 C   0  0  0  0  0  0  0  0  0  0  0  0
    8.4755  -15.9602   24.4957 C   0  0  0  0  0  0  0  0  0  0  0  0
    7.6998  -16.9270   24.7243 O   0  0  0  0  0  0  0  0  0  0  0  0
   12.3641  -16.3305   26.1680 C   0  0  0  0  0  0  0  0  0  0  0  0
   11.3194  -17.4092   26.0759 C   0  0  2  0  0  0  0  0  0  0  0  0
   11.4595  -18.0942   24.7409 C   0  0  0  0  0  0  0  0  0  0  0  0
    9.9206  -16.9024   26.3122 C   0  0  2  0  0  0  0  0  0  0  0  0
    9.6318  -15.8732   25.3167 N   0  0  0  0  0  0  0  0  0  0  0  0
    9.9065  -16.3217   27.6920 C   0  0  0  0  0  0  0  0  0  0  0  0
    9.8396  -15.0894   27.8068 O   0  0  0  0  0  0  0  0  0  0  0  0
    9.9688  -17.1908   28.7546 O   0  0  0  0  0  0  0  0  0  0  0  0
  2  1  1  0
  3  2  1  0
  3  4  1  1
  5  3  1  0
  6  5  2  0
  7  5  1  0
  8  7  1  0
  8  9  1  1
  9 10  1  0
 10 15  2  0
 10 11  1  0
 11 12  2  0
 12 13  1  0
 14 13  2  0
 15 14  1  0
 16 22  1  0
 16  8  1  0
 17 16  2  0
 19 18  1  6
 19 21  1  0
 20 19  1  0
 21 23  1  0
 21 22  1  6
 23 25  1  0
 24 23  2  0
M  END
$$$$
