RAY.pdb
     RDKit          3D

 29 29  0  0  1  0  0  0  0  0999 V2000
   27.3354  -19.3682  -17.8071 N   0  0  0  0  0  0  0  0  0  0  0  0
   27.8440  -18.0465  -17.8800 C   0  0  0  0  0  0  0  0  0  0  0  0
   28.5803  -17.6655  -18.8940 N   0  0  0  0  0  0  0  0  0  0  0  0
   27.5329  -17.1503  -16.8259 N   0  0  0  0  0  0  0  0  0  0  0  0
   26.5479  -17.4988  -15.8477 C   0  0  0  0  0  0  0  0  0  0  0  0
   25.4150  -16.4955  -15.7821 C   0  0  0  0  0  0  0  0  0  0  0  0
   24.0902  -17.1707  -15.5760 C   0  0  0  0  0  0  0  0  0  0  0  0
   23.5695  -17.6976  -16.8756 C   0  0  2  0  0  0  0  0  0  0  0  0
   23.2506  -16.6666  -17.8277 N   0  0  0  0  0  0  0  0  0  0  0  0
   22.3962  -18.5891  -16.6152 C   0  0  0  0  0  0  0  0  0  0  0  0
   21.2785  -18.1306  -16.3532 O   0  0  0  0  0  0  0  0  0  0  0  0
   28.9306  -16.7033  -18.9126 C   0  0  0  0  0  0  0  0  0  0  0  0
   21.7947  -22.3226  -16.9234 C   0  0  1  0  0  0  0  0  0  0  0  0
   21.5733  -20.9595  -16.3353 N   0  0  0  0  0  0  0  0  0  0  0  0
   22.5533  -19.9953  -16.6661 C   0  0  0  0  0  0  0  0  0  0  0  0
   21.4944  -21.1108  -14.8638 O   0  0  0  0  0  0  0  0  0  0  0  0
   22.3618  -20.5883  -14.1136 O   0  0  0  0  0  0  0  0  0  0  0  0
   17.4268  -15.9686  -12.8302 C   0  0  0  0  0  0  0  0  0  0  0  0
   18.2516  -17.0784  -12.7175 C   0  0  0  0  0  0  0  0  0  0  0  0
   19.4098  -17.2038  -13.4587 C   0  0  0  0  0  0  0  0  0  0  0  0
   20.2210  -18.3135  -13.3368 C   0  0  0  0  0  0  0  0  0  0  0  0
   19.9335  -19.3534  -12.4810 C   0  0  0  0  0  0  0  0  0  0  0  0
   20.7917  -20.5563  -12.3356 C   0  0  1  0  0  0  0  0  0  0  0  0
   20.1578  -21.8007  -12.9028 N   0  0  0  0  0  0  0  0  0  0  0  0
   20.4326  -21.8499  -14.3098 C   0  0  0  0  0  0  0  0  0  0  0  0
   18.6881  -21.7918  -12.6239 O   0  0  0  0  0  0  0  0  0  0  0  0
   18.1080  -22.0681  -11.4184 C   0  0  0  0  0  0  0  0  0  0  0  0
   18.7630  -19.2257  -11.7327 C   0  0  0  0  0  0  0  0  0  0  0  0
   17.9569  -18.1171  -11.8574 O   0  0  0  0  0  0  0  0  0  0  0  0
  1  2  1  0
  2  3  2  0
  4  5  1  0
  4  2  1  0
  6  5  1  0
  7  6  1  0
  8  9  1  6
  8  7  1  0
 10  8  1  0
 11 10  2  0
 13 12  1  6
 13 14  1  0
 14 10  1  0
 15 13  1  0
 15 24  1  0
 16 15  2  0
 17 18  1  0
 18 28  2  0
 19 18  1  0
 19 20  2  0
 20 21  1  0
 21 27  2  0
 21 22  1  0
 23 22  1  1
 23 24  1  0
 23 25  1  0
 25 29  2  0
 25 26  1  0
 28 27  1  0
M  END
$$$$
