RAY.pdb
     RDKit          3D

 29 29  0  0  1  0  0  0  0  0999 V2000
   21.2958  -24.1906  -14.5400 N   0  0  0  0  0  0  0  0  0  0  0  0
   22.1687  -25.2871  -14.3247 C   0  0  0  0  0  0  0  0  0  0  0  0
   23.2778  -25.4072  -15.0109 N   0  0  0  0  0  0  0  0  0  0  0  0
   21.8076  -26.2483  -13.3464 N   0  0  0  0  0  0  0  0  0  0  0  0
   20.4358  -26.4245  -12.9780 C   0  0  0  0  0  0  0  0  0  0  0  0
   19.9352  -25.3264  -12.0626 C   0  0  0  0  0  0  0  0  0  0  0  0
   19.2814  -25.8873  -10.8331 C   0  0  0  0  0  0  0  0  0  0  0  0
   18.4743  -27.0975  -11.1819 C   0  0  2  0  0  0  0  0  0  0  0  0
   17.6985  -26.9443  -12.3843 N   0  0  0  0  0  0  0  0  0  0  0  0
   17.6149  -27.4737  -10.0160 C   0  0  0  0  0  0  0  0  0  0  0  0
   16.6158  -26.8146   -9.7071 O   0  0  0  0  0  0  0  0  0  0  0  0
   23.8814  -26.2149  -14.8316 C   0  0  0  0  0  0  0  0  0  0  0  0
   17.8661  -30.2495   -7.4026 C   0  0  1  0  0  0  0  0  0  0  0  0
   17.2629  -29.0520   -8.0771 N   0  0  0  0  0  0  0  0  0  0  0  0
   17.9407  -28.6101   -9.2367 C   0  0  0  0  0  0  0  0  0  0  0  0
   17.2034  -27.9564   -7.0820 O   0  0  0  0  0  0  0  0  0  0  0  0
   17.7507  -26.8447   -7.3122 O   0  0  0  0  0  0  0  0  0  0  0  0
   13.1993  -21.7992   -2.7451 C   0  0  0  0  0  0  0  0  0  0  0  0
   13.7010  -22.8579   -3.4883 C   0  0  0  0  0  0  0  0  0  0  0  0
   15.0464  -22.9729   -3.7764 C   0  0  0  0  0  0  0  0  0  0  0  0
   15.5319  -24.0312   -4.5171 C   0  0  0  0  0  0  0  0  0  0  0  0
   14.7189  -25.0274   -5.0103 C   0  0  0  0  0  0  0  0  0  0  0  0
   15.2205  -26.1736   -5.8101 C   0  0  1  0  0  0  0  0  0  0  0  0
   16.1468  -27.0716   -5.0305 N   0  0  0  0  0  0  0  0  0  0  0  0
   16.5241  -28.1728   -5.8686 C   0  0  0  0  0  0  0  0  0  0  0  0
   15.4694  -27.5327   -3.7789 O   0  0  0  0  0  0  0  0  0  0  0  0
   14.7734  -28.6995   -3.6376 C   0  0  0  0  0  0  0  0  0  0  0  0
   13.3598  -24.9100   -4.7187 C   0  0  0  0  0  0  0  0  0  0  0  0
   12.8800  -23.8529   -3.9796 O   0  0  0  0  0  0  0  0  0  0  0  0
  1  2  1  0
  2  3  2  0
  4  5  1  0
  4  2  1  0
  6  5  1  0
  7  6  1  0
  8  9  1  6
  8  7  1  0
 10  8  1  0
 11 10  2  0
 13 12  1  6
 13 14  1  0
 14 10  1  0
 15 13  1  0
 15 24  1  0
 16 15  2  0
 17 18  1  0
 18 28  2  0
 19 18  1  0
 19 20  2  0
 20 21  1  0
 21 27  2  0
 21 22  1  0
 23 22  1  6
 23 24  1  0
 23 25  1  0
 25 29  2  0
 25 26  1  0
 28 27  1  0
M  END
$$$$
