RAY.pdb
     RDKit          3D

 29 29  0  0  1  0  0  0  0  0999 V2000
   18.9198  -16.3143  -17.0830 N   0  0  0  0  0  0  0  0  0  0  0  0
   19.6855  -15.3380  -17.7695 C   0  0  0  0  0  0  0  0  0  0  0  0
   19.1017  -14.3630  -18.4206 N   0  0  0  0  0  0  0  0  0  0  0  0
   21.0989  -15.4468  -17.7308 N   0  0  0  0  0  0  0  0  0  0  0  0
   21.7262  -16.4221  -16.8918 C   0  0  0  0  0  0  0  0  0  0  0  0
   21.8589  -17.7706  -17.5690 C   0  0  0  0  0  0  0  0  0  0  0  0
   22.4915  -18.7850  -16.6611 C   0  0  0  0  0  0  0  0  0  0  0  0
   23.9038  -18.3976  -16.3559 C   0  0  2  0  0  0  0  0  0  0  0  0
   24.6874  -18.1102  -17.5283 N   0  0  0  0  0  0  0  0  0  0  0  0
   24.5392  -19.4603  -15.5155 C   0  0  0  0  0  0  0  0  0  0  0  0
   23.8907  -20.1024  -14.6817 O   0  0  0  0  0  0  0  0  0  0  0  0
   19.6869  -13.6514  -18.8680 C   0  0  0  0  0  0  0  0  0  0  0  0
   28.0322  -20.9880  -15.4431 C   0  0  1  0  0  0  0  0  0  0  0  0
   26.6659  -20.6766  -14.9054 N   0  0  0  0  0  0  0  0  0  0  0  0
   25.9169  -19.7499  -15.6668 C   0  0  0  0  0  0  0  0  0  0  0  0
   26.8299  -20.1734  -13.5219 O   0  0  0  0  0  0  0  0  0  0  0  0
   27.0914  -18.9602  -13.3027 O   0  0  0  0  0  0  0  0  0  0  0  0
   20.5074  -21.2696  -10.8906 C   0  0  0  0  0  0  0  0  0  0  0  0
   21.8288  -20.8473  -10.8724 C   0  0  0  0  0  0  0  0  0  0  0  0
   22.4639  -20.3917  -12.0106 C   0  0  0  0  0  0  0  0  0  0  0  0
   23.7790  -19.9750  -11.9784 C   0  0  0  0  0  0  0  0  0  0  0  0
   24.5335  -19.9857  -10.8264 C   0  0  0  0  0  0  0  0  0  0  0  0
   25.9497  -19.5430  -10.7702 C   0  0  1  0  0  0  0  0  0  0  0  0
   26.9225  -20.6468  -11.0980 N   0  0  0  0  0  0  0  0  0  0  0  0
   26.6893  -21.0721  -12.4479 C   0  0  0  0  0  0  0  0  0  0  0  0
   26.7579  -21.7713  -10.1251 O   0  0  0  0  0  0  0  0  0  0  0  0
   26.4023  -23.0509  -10.4448 C   0  0  0  0  0  0  0  0  0  0  0  0
   23.8909  -20.4464   -9.6770 C   0  0  0  0  0  0  0  0  0  0  0  0
   22.5791  -20.8610   -9.7138 O   0  0  0  0  0  0  0  0  0  0  0  0
  1  2  1  0
  2  3  2  0
  4  5  1  0
  4  2  1  0
  6  5  1  0
  7  6  1  0
  8  9  1  6
  8  7  1  0
 10  8  1  0
 11 10  2  0
 13 12  1  6
 13 14  1  0
 14 10  1  0
 15 13  1  0
 15 24  1  0
 16 15  2  0
 17 18  1  0
 18 28  2  0
 19 18  1  0
 19 20  2  0
 20 21  1  0
 21 27  2  0
 21 22  1  0
 23 22  1  6
 23 24  1  0
 23 25  1  0
 25 29  2  0
 25 26  1  0
 28 27  1  0
M  END
$$$$
