RAY.pdb
     RDKit          3D

 29 29  0  0  1  0  0  0  0  0999 V2000
   29.2511  -22.6109  -17.0044 N   0  0  0  0  0  0  0  0  0  0  0  0
   28.6773  -21.5400  -17.7358 C   0  0  0  0  0  0  0  0  0  0  0  0
   28.9640  -21.3616  -19.0012 N   0  0  0  0  0  0  0  0  0  0  0  0
   27.7851  -20.6696  -17.0593 N   0  0  0  0  0  0  0  0  0  0  0  0
   27.3913  -20.9434  -15.7108 C   0  0  0  0  0  0  0  0  0  0  0  0
   26.1183  -21.7605  -15.6327 C   0  0  0  0  0  0  0  0  0  0  0  0
   25.0079  -20.9923  -14.9765 C   0  0  0  0  0  0  0  0  0  0  0  0
   23.7628  -21.8202  -14.9291 C   0  0  2  0  0  0  0  0  0  0  0  0
   23.2052  -22.0947  -16.2272 N   0  0  0  0  0  0  0  0  0  0  0  0
   22.7644  -21.1635  -14.0284 C   0  0  0  0  0  0  0  0  0  0  0  0
   23.0046  -20.0881  -13.4682 O   0  0  0  0  0  0  0  0  0  0  0  0
   28.5520  -20.5615  -19.4901 C   0  0  0  0  0  0  0  0  0  0  0  0
   19.3271  -20.6380  -13.7436 C   0  0  2  0  0  0  0  0  0  0  0  0
   20.4636  -21.2700  -12.9942 N   0  0  0  0  0  0  0  0  0  0  0  0
   21.5084  -21.7765  -13.8014 C   0  0  0  0  0  0  0  0  0  0  0  0
   19.9033  -22.3568  -12.1580 O   0  0  0  0  0  0  0  0  0  0  0  0
   19.8598  -23.5422  -12.5838 O   0  0  0  0  0  0  0  0  0  0  0  0
   16.0038  -26.0793   -5.0955 C   0  0  0  0  0  0  0  0  0  0  0  0
   16.7079  -25.2449   -5.9516 C   0  0  0  0  0  0  0  0  0  0  0  0
   18.0198  -25.4980   -6.3001 C   0  0  0  0  0  0  0  0  0  0  0  0
   18.7085  -24.6594   -7.1525 C   0  0  0  0  0  0  0  0  0  0  0  0
   18.1416  -23.5319   -7.7037 C   0  0  0  0  0  0  0  0  0  0  0  0
   18.8650  -22.6160   -8.6217 C   0  0  1  0  0  0  0  0  0  0  0  0
   18.7933  -23.0531  -10.0625 N   0  0  0  0  0  0  0  0  0  0  0  0
   19.4168  -22.0480  -10.8740 C   0  0  0  0  0  0  0  0  0  0  0  0
   17.3664  -23.2759  -10.4530 O   0  0  0  0  0  0  0  0  0  0  0  0
   16.7277  -24.4833  -10.4687 C   0  0  0  0  0  0  0  0  0  0  0  0
   16.8162  -23.2771   -7.3508 C   0  0  0  0  0  0  0  0  0  0  0  0
   16.1331  -24.1163   -6.5003 O   0  0  0  0  0  0  0  0  0  0  0  0
  1  2  1  0
  2  3  2  0
  4  5  1  0
  4  2  1  0
  6  5  1  0
  7  6  1  0
  8  9  1  6
  8  7  1  0
 10  8  1  0
 11 10  2  0
 13 12  1  1
 13 14  1  0
 14 10  1  0
 15 13  1  0
 15 24  1  0
 16 15  2  0
 17 18  1  0
 18 28  2  0
 19 18  1  0
 19 20  2  0
 20 21  1  0
 21 27  2  0
 21 22  1  0
 23 22  1  1
 23 24  1  0
 23 25  1  0
 25 29  2  0
 25 26  1  0
 28 27  1  0
M  END
$$$$
