RAY.pdb
     RDKit          3D

 29 29  0  0  1  0  0  0  0  0999 V2000
   20.7681  -23.2409   -7.9069 N   0  0  0  0  0  0  0  0  0  0  0  0
   19.7258  -22.7918   -8.7572 C   0  0  0  0  0  0  0  0  0  0  0  0
   18.4717  -22.8947   -8.3939 N   0  0  0  0  0  0  0  0  0  0  0  0
   20.0794  -22.2285  -10.0097 N   0  0  0  0  0  0  0  0  0  0  0  0
   21.4523  -21.9787  -10.3283 C   0  0  0  0  0  0  0  0  0  0  0  0
   21.9014  -20.5931   -9.9124 C   0  0  0  0  0  0  0  0  0  0  0  0
   23.0774  -20.1275  -10.7211 C   0  0  0  0  0  0  0  0  0  0  0  0
   24.2697  -20.9874  -10.4440 C   0  0  2  0  0  0  0  0  0  0  0  0
   24.7086  -20.9376   -9.0743 N   0  0  0  0  0  0  0  0  0  0  0  0
   25.3722  -20.6264  -11.3892 C   0  0  0  0  0  0  0  0  0  0  0  0
   26.0874  -19.6354  -11.2038 O   0  0  0  0  0  0  0  0  0  0  0  0
   17.7466  -22.5449   -9.0269 C   0  0  0  0  0  0  0  0  0  0  0  0
   26.7962  -22.1053  -14.5806 C   0  0  1  0  0  0  0  0  0  0  0  0
   26.2146  -21.0073  -13.7387 N   0  0  0  0  0  0  0  0  0  0  0  0
   25.6153  -21.4298  -12.5296 C   0  0  0  0  0  0  0  0  0  0  0  0
   25.2212  -20.2834  -14.5653 O   0  0  0  0  0  0  0  0  0  0  0  0
   24.1061  -19.9446  -14.0856 O   0  0  0  0  0  0  0  0  0  0  0  0
   20.8801  -14.6549  -19.2633 C   0  0  0  0  0  0  0  0  0  0  0  0
   21.7589  -15.4306  -18.5211 C   0  0  0  0  0  0  0  0  0  0  0  0
   23.1147  -15.4474  -18.7819 C   0  0  0  0  0  0  0  0  0  0  0  0
   23.9776  -16.2240  -18.0358 C   0  0  0  0  0  0  0  0  0  0  0  0
   23.5500  -17.0214  -16.9975 C   0  0  0  0  0  0  0  0  0  0  0  0
   24.4611  -17.8651  -16.1833 C   0  0  1  0  0  0  0  0  0  0  0  0
   24.6142  -19.2608  -16.7318 N   0  0  0  0  0  0  0  0  0  0  0  0
   25.5392  -19.9765  -15.9015 C   0  0  0  0  0  0  0  0  0  0  0  0
   25.0772  -19.1977  -18.1529 O   0  0  0  0  0  0  0  0  0  0  0  0
   24.2674  -19.2216  -19.2527 C   0  0  0  0  0  0  0  0  0  0  0  0
   22.1800  -17.0037  -16.7350 C   0  0  0  0  0  0  0  0  0  0  0  0
   21.3231  -16.2276  -17.4817 O   0  0  0  0  0  0  0  0  0  0  0  0
  1  2  1  0
  2  3  2  0
  4  5  1  0
  4  2  1  0
  6  5  1  0
  7  6  1  0
  8  9  1  1
  8  7  1  0
 10  8  1  0
 11 10  2  0
 13 12  1  1
 13 14  1  0
 14 10  1  0
 15 13  1  0
 15 24  1  0
 16 15  2  0
 17 18  1  0
 18 28  2  0
 19 18  1  0
 19 20  2  0
 20 21  1  0
 21 27  2  0
 21 22  1  0
 23 22  1  1
 23 24  1  0
 23 25  1  0
 25 29  2  0
 25 26  1  0
 28 27  1  0
M  END
$$$$
