RAY.pdb
     RDKit          3D

 29 29  0  0  1  0  0  0  0  0999 V2000
   20.5439  -15.0457  -22.4776 N   0  0  0  0  0  0  0  0  0  0  0  0
   21.6784  -15.8672  -22.6987 C   0  0  0  0  0  0  0  0  0  0  0  0
   21.9124  -16.3853  -23.8786 N   0  0  0  0  0  0  0  0  0  0  0  0
   22.5513  -16.1110  -21.6079 N   0  0  0  0  0  0  0  0  0  0  0  0
   22.3821  -15.4045  -20.3747 C   0  0  0  0  0  0  0  0  0  0  0  0
   23.0201  -14.0309  -20.4008 C   0  0  0  0  0  0  0  0  0  0  0  0
   22.7650  -13.2789  -19.1269 C   0  0  0  0  0  0  0  0  0  0  0  0
   23.7140  -13.7281  -18.0612 C   0  0  2  0  0  0  0  0  0  0  0  0
   23.2976  -14.9315  -17.3906 N   0  0  0  0  0  0  0  0  0  0  0  0
   23.9402  -12.6087  -17.0943 C   0  0  0  0  0  0  0  0  0  0  0  0
   23.0614  -12.2461  -16.3043 O   0  0  0  0  0  0  0  0  0  0  0  0
   22.7538  -16.9549  -24.0070 C   0  0  0  0  0  0  0  0  0  0  0  0
   26.9927  -10.4963  -16.2230 C   0  0  1  0  0  0  0  0  0  0  0  0
   25.5324  -10.8425  -16.2456 N   0  0  0  0  0  0  0  0  0  0  0  0
   25.1867  -11.9373  -17.0711 C   0  0  0  0  0  0  0  0  0  0  0  0
   24.7894   -9.6353  -16.6757 O   0  0  0  0  0  0  0  0  0  0  0  0
   24.4993   -9.4536  -17.8886 O   0  0  0  0  0  0  0  0  0  0  0  0
   20.6656   -1.8130  -15.9865 C   0  0  0  0  0  0  0  0  0  0  0  0
   21.3151   -3.0077  -15.7112 C   0  0  0  0  0  0  0  0  0  0  0  0
   22.6857   -3.0734  -15.5582 C   0  0  0  0  0  0  0  0  0  0  0  0
   23.3189   -4.2687  -15.2848 C   0  0  0  0  0  0  0  0  0  0  0  0
   22.6361   -5.4568  -15.1486 C   0  0  0  0  0  0  0  0  0  0  0  0
   23.2978   -6.7534  -14.8559 C   0  0  2  0  0  0  0  0  0  0  0  0
   23.8191   -7.4381  -16.0935 N   0  0  0  0  0  0  0  0  0  0  0  0
   24.4089   -8.6873  -15.7075 C   0  0  0  0  0  0  0  0  0  0  0  0
   24.8033   -6.5497  -16.7864 O   0  0  0  0  0  0  0  0  0  0  0  0
   24.5163   -5.6999  -17.8167 C   0  0  0  0  0  0  0  0  0  0  0  0
   21.2513   -5.3892  -15.3036 C   0  0  0  0  0  0  0  0  0  0  0  0
   20.6240   -4.1949  -15.5761 O   0  0  0  0  0  0  0  0  0  0  0  0
  1  2  1  0
  2  3  2  0
  4  5  1  0
  4  2  1  0
  6  5  1  0
  7  6  1  0
  8  9  1  1
  8  7  1  0
 10  8  1  0
 11 10  2  0
 13 12  1  1
 13 14  1  0
 14 10  1  0
 15 13  1  0
 15 24  1  0
 16 15  2  0
 17 18  1  0
 18 28  2  0
 19 18  1  0
 19 20  2  0
 20 21  1  0
 21 27  2  0
 21 22  1  0
 23 22  1  6
 23 24  1  0
 23 25  1  0
 25 29  2  0
 25 26  1  0
 28 27  1  0
M  END
$$$$
