RAY.pdb
     RDKit          3D

 29 29  0  0  1  0  0  0  0  0999 V2000
   24.4435  -16.5158  -20.9118 N   0  0  0  0  0  0  0  0  0  0  0  0
   24.3511  -15.1935  -20.4078 C   0  0  0  0  0  0  0  0  0  0  0  0
   24.4703  -14.1613  -21.2051 N   0  0  0  0  0  0  0  0  0  0  0  0
   24.1257  -15.0209  -19.0184 N   0  0  0  0  0  0  0  0  0  0  0  0
   23.8655  -16.1528  -18.1820 C   0  0  0  0  0  0  0  0  0  0  0  0
   22.6661  -15.9447  -17.2806 C   0  0  0  0  0  0  0  0  0  0  0  0
   22.4582  -17.1115  -16.3593 C   0  0  0  0  0  0  0  0  0  0  0  0
   22.1492  -18.3451  -17.1473 C   0  0  2  0  0  0  0  0  0  0  0  0
   20.7413  -18.6267  -17.2460 N   0  0  0  0  0  0  0  0  0  0  0  0
   22.9036  -19.5027  -16.5728 C   0  0  0  0  0  0  0  0  0  0  0  0
   22.4872  -20.1245  -15.5889 O   0  0  0  0  0  0  0  0  0  0  0  0
   24.4019  -13.2211  -20.8050 C   0  0  0  0  0  0  0  0  0  0  0  0
   26.2343  -21.1366  -17.4885 C   0  0  1  0  0  0  0  0  0  0  0  0
   24.9725  -20.9444  -16.6987 N   0  0  0  0  0  0  0  0  0  0  0  0
   24.1269  -19.9087  -17.1590 C   0  0  0  0  0  0  0  0  0  0  0  0
   25.3562  -20.6909  -15.2906 O   0  0  0  0  0  0  0  0  0  0  0  0
   25.7832  -19.5610  -14.9312 O   0  0  0  0  0  0  0  0  0  0  0  0
   26.2738  -19.8379   -6.8248 C   0  0  0  0  0  0  0  0  0  0  0  0
   25.9687  -19.9836   -8.1704 C   0  0  0  0  0  0  0  0  0  0  0  0
   26.8071  -19.5155   -9.1625 C   0  0  0  0  0  0  0  0  0  0  0  0
   26.4911  -19.6668  -10.4973 C   0  0  0  0  0  0  0  0  0  0  0  0
   25.3361  -20.2853  -10.9215 C   0  0  0  0  0  0  0  0  0  0  0  0
   24.9766  -20.4574  -12.3519 C   0  0  1  0  0  0  0  0  0  0  0  0
   25.7331  -21.5797  -13.0156 N   0  0  0  0  0  0  0  0  0  0  0  0
   25.2375  -21.7335  -14.3528 C   0  0  0  0  0  0  0  0  0  0  0  0
   25.5777  -22.8356  -12.2177 O   0  0  0  0  0  0  0  0  0  0  0  0
   24.6352  -23.8006  -12.4333 C   0  0  0  0  0  0  0  0  0  0  0  0
   24.4896  -20.7577   -9.9183 C   0  0  0  0  0  0  0  0  0  0  0  0
   24.8089  -20.6046   -8.5883 O   0  0  0  0  0  0  0  0  0  0  0  0
  1  2  1  0
  2  3  2  0
  4  5  1  0
  4  2  1  0
  6  5  1  0
  7  6  1  0
  8  9  1  1
  8  7  1  0
 10  8  1  0
 11 10  2  0
 13 12  1  6
 13 14  1  0
 14 10  1  0
 15 13  1  0
 15 24  1  0
 16 15  2  0
 17 18  1  0
 18 28  2  0
 19 18  1  0
 19 20  2  0
 20 21  1  0
 21 27  2  0
 21 22  1  0
 23 22  1  6
 23 24  1  0
 23 25  1  0
 25 29  2  0
 25 26  1  0
 28 27  1  0
M  END
$$$$
