RAY.pdb
     RDKit          3D

 29 29  0  0  1  0  0  0  0  0999 V2000
-101108.9219-182925.5469-158062.7500 N   0  0  0  0  0  0  0  0  0  0  0  0
-101109.9766-182924.7188-158063.1094 C   0  0  0  0  0  0  0  0  0  0  0  0
-101110.6172-182924.8906-158064.3438 N   0  0  0  0  0  0  0  0  0  0  0  0
-101110.4141-182923.7500-158062.1250 N   0  0  0  0  0  0  0  0  0  0  0  0
-101110.5156-182922.3438-158062.4531 C   0  0  0  0  0  0  0  0  0  0  0  0
-101110.8750-182921.4688-158061.2656 C   0  0  0  0  0  0  0  0  0  0  0  0
-101110.9609-182920.0625-158061.7188 C   0  0  0  0  0  0  0  0  0  0  0  0
-101111.0391-182919.1875-158060.4844 C   0  0  2  0  0  0  0  0  0  0  0  0
-101109.8594-182918.9844-158059.7656 N   0  0  0  0  0  0  0  0  0  0  0  0
-101112.0625-182919.8125-158059.6094 C   0  0  0  0  0  0  0  0  0  0  0  0
-101112.7578-182919.0781-158058.8906 O   0  0  0  0  0  0  0  0  0  0  0  0
-101110.1953-182925.4531-158064.9531 C   0  0  0  0  0  0  0  0  0  0  0  0
-101113.0547-182923.3906-158058.6719 C   0  0  2  0  0  0  0  0  0  0  0  0
-101113.2031-182921.8906-158058.7188 N   0  0  0  0  0  0  0  0  0  0  0  0
-101112.3125-182921.2031-158059.5312 C   0  0  0  0  0  0  0  0  0  0  0  0
-101113.1172-182921.3594-158057.3125 O   0  0  0  0  0  0  0  0  0  0  0  0
-101113.9375-182921.7656-158056.4219 O   0  0  0  0  0  0  0  0  0  0  0  0
-101106.9375-182918.2031-158059.7812 C   0  0  0  0  0  0  0  0  0  0  0  0
-101107.6797-182918.8906-158058.8125 C   0  0  0  0  0  0  0  0  0  0  0  0
-101108.1641-182918.2656-158057.6719 C   0  0  0  0  0  0  0  0  0  0  0  0
-101108.8906-182918.9062-158056.7500 C   0  0  0  0  0  0  0  0  0  0  0  0
-101109.2812-182920.2188-158056.9062 C   0  0  0  0  0  0  0  0  0  0  0  0
-101110.0859-182920.9219-158055.8750 C   0  0  1  0  0  0  0  0  0  0  0  0
-101111.5078-182920.3906-158055.7031 N   0  0  0  0  0  0  0  0  0  0  0  0
-101112.1172-182920.4062-158057.0000 C   0  0  0  0  0  0  0  0  0  0  0  0
-101111.4141-182918.9844-158055.1875 O   0  0  0  0  0  0  0  0  0  0  0  0
-101110.7109-182918.6250-158054.1406 C   0  0  0  0  0  0  0  0  0  0  0  0
-101108.8047-182920.8594-158058.0625 C   0  0  0  0  0  0  0  0  0  0  0  0
-101108.0703-182920.2031-158058.9688 O   0  0  0  0  0  0  0  0  0  0  0  0
  1  2  1  0
  2  3  2  0
  4  5  1  0
  4  2  1  0
  6  5  1  0
  7  6  1  0
  8  9  1  1
  8  7  1  0
 10  8  1  0
 11 10  2  0
 13 12  1  6
 13 14  1  0
 14 10  1  0
 15 13  1  0
 15 24  1  0
 16 15  2  0
 17 18  1  0
 18 28  2  0
 19 18  1  0
 19 20  2  0
 20 21  1  0
 21 27  2  0
 21 22  1  0
 23 22  1  1
 23 24  1  0
 23 25  1  0
 25 29  2  0
 25 26  1  0
 28 27  1  0
M  END
$$$$
