RAY.pdb
     RDKit          3D

 29 29  0  0  1  0  0  0  0  0999 V2000
   17.5450  -14.0738  -16.1155 N   0  0  0  0  0  0  0  0  0  0  0  0
   17.0046  -15.2017  -16.7838 C   0  0  0  0  0  0  0  0  0  0  0  0
   15.7093  -15.3803  -16.8596 N   0  0  0  0  0  0  0  0  0  0  0  0
   17.9050  -16.1291  -17.3671 N   0  0  0  0  0  0  0  0  0  0  0  0
   19.3165  -15.8984  -17.3126 C   0  0  0  0  0  0  0  0  0  0  0  0
   19.8576  -15.3059  -18.5974 C   0  0  0  0  0  0  0  0  0  0  0  0
   21.3540  -15.1905  -18.5654 C   0  0  0  0  0  0  0  0  0  0  0  0
   21.8428  -14.4556  -19.7733 C   0  0  2  0  0  0  0  0  0  0  0  0
   22.3976  -15.3162  -20.7845 N   0  0  0  0  0  0  0  0  0  0  0  0
   22.8174  -13.4012  -19.3518 C   0  0  0  0  0  0  0  0  0  0  0  0
   23.8751  -13.6869  -18.7794 O   0  0  0  0  0  0  0  0  0  0  0  0
   15.3565  -16.2502  -17.2689 C   0  0  0  0  0  0  0  0  0  0  0  0
   23.0300   -9.6522  -19.9606 C   0  0  1  0  0  0  0  0  0  0  0  0
   23.3427  -10.9340  -19.2450 N   0  0  0  0  0  0  0  0  0  0  0  0
   22.5360  -12.0373  -19.6076 C   0  0  0  0  0  0  0  0  0  0  0  0
   23.2214  -10.6797  -17.7908 O   0  0  0  0  0  0  0  0  0  0  0  0
   22.1269  -10.8604  -17.1928 O   0  0  0  0  0  0  0  0  0  0  0  0
   30.2890  -10.6953  -17.9024 C   0  0  0  0  0  0  0  0  0  0  0  0
   29.0922  -10.7348  -17.2017 C   0  0  0  0  0  0  0  0  0  0  0  0
   28.2445  -11.8226  -17.2680 C   0  0  0  0  0  0  0  0  0  0  0  0
   27.0568  -11.8485  -16.5658 C   0  0  0  0  0  0  0  0  0  0  0  0
   26.6448  -10.8069  -15.7647 C   0  0  0  0  0  0  0  0  0  0  0  0
   25.3708  -10.8140  -15.0021 C   0  0  1  0  0  0  0  0  0  0  0  0
   24.2861  -10.0041  -15.6653 N   0  0  0  0  0  0  0  0  0  0  0  0
   24.3502  -10.2308  -17.0801 C   0  0  0  0  0  0  0  0  0  0  0  0
   24.4566   -8.5570  -15.3263 O   0  0  0  0  0  0  0  0  0  0  0  0
   24.1916   -7.9903  -14.1120 C   0  0  0  0  0  0  0  0  0  0  0  0
   27.5019   -9.7082  -15.6986 C   0  0  0  0  0  0  0  0  0  0  0  0
   28.6856   -9.6868  -16.4006 O   0  0  0  0  0  0  0  0  0  0  0  0
  1  2  1  0
  2  3  2  0
  4  5  1  0
  4  2  1  0
  6  5  1  0
  7  6  1  0
  8  9  1  6
  8  7  1  0
 10  8  1  0
 11 10  2  0
 13 12  1  6
 13 14  1  0
 14 10  1  0
 15 13  1  0
 15 24  1  0
 16 15  2  0
 17 18  1  0
 18 28  2  0
 19 18  1  0
 19 20  2  0
 20 21  1  0
 21 27  2  0
 21 22  1  0
 23 22  1  1
 23 24  1  0
 23 25  1  0
 25 29  2  0
 25 26  1  0
 28 27  1  0
M  END
$$$$
