RAY.pdb
     RDKit          3D

 29 29  0  0  1  0  0  0  0  0999 V2000
   29.9086  -29.9049  -17.0725 N   0  0  0  0  0  0  0  0  0  0  0  0
   30.4075  -31.2134  -17.2958 C   0  0  0  0  0  0  0  0  0  0  0  0
   31.5724  -31.3997  -17.8648 N   0  0  0  0  0  0  0  0  0  0  0  0
   29.6110  -32.3127  -16.8856 N   0  0  0  0  0  0  0  0  0  0  0  0
   28.4362  -32.0996  -16.0963 C   0  0  0  0  0  0  0  0  0  0  0  0
   27.1918  -32.6739  -16.7412 C   0  0  0  0  0  0  0  0  0  0  0  0
   25.9668  -32.4026  -15.9170 C   0  0  0  0  0  0  0  0  0  0  0  0
   25.0654  -31.4440  -16.6288 C   0  0  2  0  0  0  0  0  0  0  0  0
   25.7698  -30.3892  -17.3088 N   0  0  0  0  0  0  0  0  0  0  0  0
   24.0579  -30.9013  -15.6647 C   0  0  0  0  0  0  0  0  0  0  0  0
   23.8455  -29.6878  -15.5627 O   0  0  0  0  0  0  0  0  0  0  0  0
   31.9202  -32.3572  -17.9700 C   0  0  0  0  0  0  0  0  0  0  0  0
   21.1123  -30.7351  -14.5695 C   0  0  2  0  0  0  0  0  0  0  0  0
   22.2867  -31.4306  -13.9450 N   0  0  0  0  0  0  0  0  0  0  0  0
   23.3209  -31.7865  -14.8411 C   0  0  0  0  0  0  0  0  0  0  0  0
   21.7802  -32.6405  -13.2566 O   0  0  0  0  0  0  0  0  0  0  0  0
   21.5569  -33.7023  -13.8978 O   0  0  0  0  0  0  0  0  0  0  0  0
   26.8106  -32.6115   -7.8641 C   0  0  0  0  0  0  0  0  0  0  0  0
   25.7865  -33.1006   -8.6622 C   0  0  0  0  0  0  0  0  0  0  0  0
   24.6687  -33.7060   -8.1235 C   0  0  0  0  0  0  0  0  0  0  0  0
   23.6575  -34.1885   -8.9291 C   0  0  0  0  0  0  0  0  0  0  0  0
   23.6959  -34.0993  -10.3028 C   0  0  0  0  0  0  0  0  0  0  0  0
   22.6196  -34.6127  -11.1877 C   0  0  1  0  0  0  0  0  0  0  0  0
   21.3571  -33.7927  -11.1116 N   0  0  0  0  0  0  0  0  0  0  0  0
   21.5498  -32.5901  -11.8692 C   0  0  0  0  0  0  0  0  0  0  0  0
   21.0286  -33.5016   -9.6814 O   0  0  0  0  0  0  0  0  0  0  0  0
   21.0510  -32.2666   -9.0981 C   0  0  0  0  0  0  0  0  0  0  0  0
   24.8258  -33.4875  -10.8461 C   0  0  0  0  0  0  0  0  0  0  0  0
   25.8319  -33.0078  -10.0387 O   0  0  0  0  0  0  0  0  0  0  0  0
  1  2  1  0
  2  3  2  0
  4  5  1  0
  4  2  1  0
  6  5  1  0
  7  6  1  0
  8  9  1  1
  8  7  1  0
 10  8  1  0
 11 10  2  0
 13 12  1  1
 13 14  1  0
 14 10  1  0
 15 13  1  0
 15 24  1  0
 16 15  2  0
 17 18  1  0
 18 28  2  0
 19 18  1  0
 19 20  2  0
 20 21  1  0
 21 27  2  0
 21 22  1  0
 23 22  1  6
 23 24  1  0
 23 25  1  0
 25 29  2  0
 25 26  1  0
 28 27  1  0
M  END
$$$$
