RAY.pdb
     RDKit          3D

 29 29  0  0  1  0  0  0  0  0999 V2000
   34.0277  -23.5961  -11.3815 N   0  0  0  0  0  0  0  0  0  0  0  0
   33.5752  -23.8752  -12.6961 C   0  0  0  0  0  0  0  0  0  0  0  0
   34.0221  -24.9163  -13.3531 N   0  0  0  0  0  0  0  0  0  0  0  0
   32.6263  -22.9966  -13.2782 N   0  0  0  0  0  0  0  0  0  0  0  0
   32.1018  -21.8977  -12.5259 C   0  0  0  0  0  0  0  0  0  0  0  0
   30.5874  -21.8675  -12.5220 C   0  0  0  0  0  0  0  0  0  0  0  0
   30.0602  -20.5320  -12.9602 C   0  0  0  0  0  0  0  0  0  0  0  0
   28.9008  -20.7119  -13.8882 C   0  0  2  0  0  0  0  0  0  0  0  0
   29.1540  -20.2379  -15.2233 N   0  0  0  0  0  0  0  0  0  0  0  0
   27.6867  -20.0680  -13.2961 C   0  0  0  0  0  0  0  0  0  0  0  0
   27.5692  -18.8390  -13.2338 O   0  0  0  0  0  0  0  0  0  0  0  0
   33.6724  -25.0867  -14.3005 C   0  0  0  0  0  0  0  0  0  0  0  0
   24.1853  -20.7239  -12.9433 C   0  0  1  0  0  0  0  0  0  0  0  0
   25.4440  -20.4101  -12.1881 N   0  0  0  0  0  0  0  0  0  0  0  0
   26.6373  -20.8724  -12.7897 C   0  0  0  0  0  0  0  0  0  0  0  0
   25.3104  -20.9862  -10.8300 O   0  0  0  0  0  0  0  0  0  0  0  0
   25.4503  -22.2237  -10.6370 O   0  0  0  0  0  0  0  0  0  0  0  0
   30.0951  -19.7255   -4.8437 C   0  0  0  0  0  0  0  0  0  0  0  0
   28.8630  -19.6679   -5.4791 C   0  0  0  0  0  0  0  0  0  0  0  0
   28.4854  -18.5788   -6.2391 C   0  0  0  0  0  0  0  0  0  0  0  0
   27.2565  -18.5346   -6.8654 C   0  0  0  0  0  0  0  0  0  0  0  0
   26.3396  -19.5581   -6.7752 C   0  0  0  0  0  0  0  0  0  0  0  0
   25.0121  -19.5300   -7.4399 C   0  0  2  0  0  0  0  0  0  0  0  0
   24.8281  -20.6523   -8.4292 N   0  0  0  0  0  0  0  0  0  0  0  0
   25.0235  -20.1298   -9.7507 C   0  0  0  0  0  0  0  0  0  0  0  0
   23.4679  -21.2532   -8.2651 O   0  0  0  0  0  0  0  0  0  0  0  0
   23.1131  -22.1638   -7.3107 C   0  0  0  0  0  0  0  0  0  0  0  0
   26.7222  -20.6579   -6.0069 C   0  0  0  0  0  0  0  0  0  0  0  0
   27.9488  -20.6978   -5.3840 O   0  0  0  0  0  0  0  0  0  0  0  0
  1  2  1  0
  2  3  2  0
  4  5  1  0
  4  2  1  0
  6  5  1  0
  7  6  1  0
  8  9  1  6
  8  7  1  0
 10  8  1  0
 11 10  2  0
 13 12  1  6
 13 14  1  0
 14 10  1  0
 15 13  1  0
 15 24  1  0
 16 15  2  0
 17 18  1  0
 18 28  2  0
 19 18  1  0
 19 20  2  0
 20 21  1  0
 21 27  2  0
 21 22  1  0
 23 22  1  1
 23 24  1  0
 23 25  1  0
 25 29  2  0
 25 26  1  0
 28 27  1  0
M  END
$$$$
