WHF.pdb
     RDKit          3D

 36 39  0  0  1  0  0  0  0  0999 V2000
    7.7948  -18.3971   21.1786 N   0  0  0  0  0  0  0  0  0  0  0  0
    8.2948  -17.2705   21.9068 C   0  0  1  0  0  0  0  0  0  0  0  0
    7.2049  -16.2943   22.2973 C   0  0  0  0  0  0  0  0  0  0  0  0
    6.8662  -15.3626   21.2181 C   0  0  0  0  0  0  0  0  0  0  0  0
    6.0176  -15.5042   20.1417 C   0  0  0  0  0  0  0  0  0  0  0  0
    6.0448  -14.3610   19.4285 N   0  0  0  0  0  0  0  0  0  0  0  0
    6.8772  -13.4647   19.9873 C   0  0  0  0  0  0  0  0  0  0  0  0
    7.2289  -12.1745   19.6246 C   0  0  0  0  0  0  0  0  0  0  0  0
    8.1404  -11.4824   20.4261 C   0  0  0  0  0  0  0  0  0  0  0  0
    8.6674  -12.0853   21.5479 C   0  0  0  0  0  0  0  0  0  0  0  0
    8.2965  -13.3623   21.8754 C   0  0  0  0  0  0  0  0  0  0  0  0
    7.3896  -14.0916   21.1049 C   0  0  0  0  0  0  0  0  0  0  0  0
    9.0548  -17.6738   23.1182 C   0  0  0  0  0  0  0  0  0  0  0  0
    8.5272  -18.4437   23.9623 O   0  0  0  0  0  0  0  0  0  0  0  0
   10.3592  -17.1872   23.3054 N   0  0  0  0  0  0  0  0  0  0  0  0
   11.1923  -17.6617   24.4787 C   0  0  1  0  0  0  0  0  0  0  0  0
   12.5799  -17.7967   23.9540 C   0  0  0  0  0  0  0  0  0  0  0  0
   12.8999  -18.9388   23.1008 C   0  0  0  0  0  0  0  0  0  0  0  0
   12.0910  -20.0911   22.9751 C   0  0  0  0  0  0  0  0  0  0  0  0
   12.7206  -20.8866   22.1151 N   0  0  0  0  0  0  0  0  0  0  0  0
   13.8589  -20.3204   21.6950 C   0  0  0  0  0  0  0  0  0  0  0  0
   13.9348  -19.1507   22.3076 N   0  0  0  0  0  0  0  0  0  0  0  0
   10.9920  -16.5932   25.4868 C   0  0  0  0  0  0  0  0  0  0  0  0
   11.6130  -15.4747   25.3375 O   0  0  0  0  0  0  0  0  0  0  0  0
   10.1697  -16.6483   26.6306 N   0  0  0  0  0  0  0  0  0  0  0  0
   10.4065  -15.8088   27.7990 C   0  0  1  0  0  0  0  0  0  0  0  0
    9.0522  -15.3279   28.3299 C   0  0  0  0  0  0  0  0  0  0  0  0
    8.3483  -14.4959   27.3054 C   0  0  0  0  0  0  0  0  0  0  0  0
    8.6182  -13.1732   27.0941 C   0  0  0  0  0  0  0  0  0  0  0  0
    7.9081  -12.4718   26.1144 C   0  0  0  0  0  0  0  0  0  0  0  0
    6.9350  -13.0939   25.3535 C   0  0  0  0  0  0  0  0  0  0  0  0
    6.6587  -14.4202   25.5595 C   0  0  0  0  0  0  0  0  0  0  0  0
    7.3692  -15.0843   26.5259 C   0  0  0  0  0  0  0  0  0  0  0  0
   11.0685  -16.5509   28.8929 C   0  0  0  0  0  0  0  0  0  0  0  0
   11.4566  -16.0175   29.9626 O   0  0  0  0  0  0  0  0  0  0  0  0
   11.2652  -17.9071   28.7167 O   0  0  0  0  0  0  0  0  0  0  0  0
  2  1  1  1
  3  2  1  0
  4  3  1  0
  5  4  2  0
  6  7  1  0
  6  5  1  0
  7 12  2  0
  8  7  1  0
  8  9  2  0
  9 10  1  0
 10 11  2  0
 12  4  1  0
 12 11  1  0
 13 14  2  0
 13  2  1  0
 15 13  1  0
 16 15  1  0
 16 17  1  6
 18 17  1  0
 19 18  2  0
 20 19  1  0
 21 20  1  0
 21 22  2  0
 22 18  1  0
 23 16  1  0
 24 23  2  0
 25 23  1  0
 26 34  1  0
 26 25  1  0
 26 27  1  1
 28 33  1  0
 28 27  1  0
 29 28  2  0
 30 31  2  0
 30 29  1  0
 31 32  1  0
 32 33  2  0
 34 36  1  0
 35 34  2  0
M  END
$$$$
