WHF.pdb
     RDKit          3D

 36 39  0  0  1  0  0  0  0  0999 V2000
    5.6892  -17.1279   23.4108 N   0  0  0  0  0  0  0  0  0  0  0  0
    6.9345  -16.4281   23.3163 C   0  0  1  0  0  0  0  0  0  0  0  0
    7.4804  -16.0180   24.6681 C   0  0  0  0  0  0  0  0  0  0  0  0
    6.5294  -15.2165   25.4431 C   0  0  0  0  0  0  0  0  0  0  0  0
    5.5036  -15.5992   26.2798 C   0  0  0  0  0  0  0  0  0  0  0  0
    4.9134  -14.4875   26.7611 N   0  0  0  0  0  0  0  0  0  0  0  0
    5.5053  -13.3807   26.2784 C   0  0  0  0  0  0  0  0  0  0  0  0
    5.2563  -12.0328   26.4814 C   0  0  0  0  0  0  0  0  0  0  0  0
    6.0625  -11.1001   25.8238 C   0  0  0  0  0  0  0  0  0  0  0  0
    7.0774  -11.5295   24.9959 C   0  0  0  0  0  0  0  0  0  0  0  0
    7.2941  -12.8702   24.8192 C   0  0  0  0  0  0  0  0  0  0  0  0
    6.5145  -13.8374   25.4554 C   0  0  0  0  0  0  0  0  0  0  0  0
    7.9652  -17.2070   22.5823 C   0  0  0  0  0  0  0  0  0  0  0  0
    7.6320  -18.2310   21.9310 O   0  0  0  0  0  0  0  0  0  0  0  0
    9.3051  -16.7871   22.6260 N   0  0  0  0  0  0  0  0  0  0  0  0
    9.9358  -16.1136   21.4242 C   0  0  1  0  0  0  0  0  0  0  0  0
    9.0580  -14.9514   21.1119 C   0  0  0  0  0  0  0  0  0  0  0  0
    8.7882  -14.6314   19.7121 C   0  0  0  0  0  0  0  0  0  0  0  0
    7.9102  -13.6102   19.2829 C   0  0  0  0  0  0  0  0  0  0  0  0
    7.9409  -13.6377   17.9535 N   0  0  0  0  0  0  0  0  0  0  0  0
    8.7695  -14.5962   17.5204 C   0  0  0  0  0  0  0  0  0  0  0  0
    9.2612  -15.1734   18.6040 N   0  0  0  0  0  0  0  0  0  0  0  0
   11.2968  -15.7748   21.9049 C   0  0  0  0  0  0  0  0  0  0  0  0
   11.8223  -14.6560   21.5430 O   0  0  0  0  0  0  0  0  0  0  0  0
   12.1180  -16.5524   22.7468 N   0  0  0  0  0  0  0  0  0  0  0  0
   12.1066  -16.4028   24.1971 C   0  0  1  0  0  0  0  0  0  0  0  0
   10.6493  -16.3083   24.6607 C   0  0  0  0  0  0  0  0  0  0  0  0
   10.5504  -15.5376   25.9387 C   0  0  0  0  0  0  0  0  0  0  0  0
   11.0466  -15.9870   27.1299 C   0  0  0  0  0  0  0  0  0  0  0  0
   10.9069  -15.1991   28.2771 C   0  0  0  0  0  0  0  0  0  0  0  0
   10.2742  -13.9702   28.2279 C   0  0  0  0  0  0  0  0  0  0  0  0
    9.7740  -13.5128   27.0370 C   0  0  0  0  0  0  0  0  0  0  0  0
    9.9242  -14.3045   25.9278 C   0  0  0  0  0  0  0  0  0  0  0  0
   12.7104  -17.5658   24.8815 C   0  0  0  0  0  0  0  0  0  0  0  0
   13.6076  -17.4717   25.7567 O   0  0  0  0  0  0  0  0  0  0  0  0
   12.2536  -18.8215   24.5303 O   0  0  0  0  0  0  0  0  0  0  0  0
  2  1  1  1
  3  2  1  0
  4  3  1  0
  5  4  2  0
  6  7  1  0
  6  5  1  0
  7 12  2  0
  8  7  1  0
  8  9  2  0
  9 10  1  0
 10 11  2  0
 12  4  1  0
 12 11  1  0
 13 14  2  0
 13  2  1  0
 15 13  1  0
 16 15  1  0
 16 17  1  1
 18 17  1  0
 19 18  2  0
 20 19  1  0
 21 20  1  0
 21 22  2  0
 22 18  1  0
 23 16  1  0
 24 23  2  0
 25 23  1  0
 26 34  1  0
 26 25  1  0
 26 27  1  1
 28 33  1  0
 28 27  1  0
 29 28  2  0
 30 31  2  0
 30 29  1  0
 31 32  1  0
 32 33  2  0
 34 36  1  0
 35 34  2  0
M  END
$$$$
