WHF.pdb
     RDKit          3D

 36 39  0  0  1  0  0  0  0  0999 V2000
    8.1780  -17.9212   20.8373 N   0  0  0  0  0  0  0  0  0  0  0  0
    8.5576  -16.9316   21.7997 C   0  0  1  0  0  0  0  0  0  0  0  0
    7.4103  -16.0236   22.1904 C   0  0  0  0  0  0  0  0  0  0  0  0
    6.9549  -15.1785   21.0832 C   0  0  0  0  0  0  0  0  0  0  0  0
    5.8911  -15.3245   20.2197 C   0  0  0  0  0  0  0  0  0  0  0  0
    5.8899  -14.2788   19.3696 N   0  0  0  0  0  0  0  0  0  0  0  0
    6.9100  -13.4431   19.6330 C   0  0  0  0  0  0  0  0  0  0  0  0
    7.3126  -12.2565   19.0414 C   0  0  0  0  0  0  0  0  0  0  0  0
    8.4385  -11.6059   19.5526 C   0  0  0  0  0  0  0  0  0  0  0  0
    9.1206  -12.1469   20.6212 C   0  0  0  0  0  0  0  0  0  0  0  0
    8.6933  -13.3217   21.1806 C   0  0  0  0  0  0  0  0  0  0  0  0
    7.5743  -14.0062   20.7035 C   0  0  0  0  0  0  0  0  0  0  0  0
    9.1516  -17.5320   23.0221 C   0  0  0  0  0  0  0  0  0  0  0  0
    8.5265  -18.4265   23.6490 O   0  0  0  0  0  0  0  0  0  0  0  0
   10.4099  -17.0901   23.4636 N   0  0  0  0  0  0  0  0  0  0  0  0
   11.0753  -17.7442   24.6575 C   0  0  1  0  0  0  0  0  0  0  0  0
   12.4615  -18.0640   24.2159 C   0  0  0  0  0  0  0  0  0  0  0  0
   12.6615  -19.1571   23.2673 C   0  0  0  0  0  0  0  0  0  0  0  0
   11.6285  -19.9920   22.7840 C   0  0  0  0  0  0  0  0  0  0  0  0
   12.2121  -20.8494   21.9515 N   0  0  0  0  0  0  0  0  0  0  0  0
   13.5281  -20.6143   21.8780 C   0  0  0  0  0  0  0  0  0  0  0  0
   13.7634  -19.5905   22.6815 N   0  0  0  0  0  0  0  0  0  0  0  0
   10.9642  -16.7087   25.7128 C   0  0  0  0  0  0  0  0  0  0  0  0
   11.5561  -15.5782   25.5379 O   0  0  0  0  0  0  0  0  0  0  0  0
   10.2589  -16.8085   26.9295 N   0  0  0  0  0  0  0  0  0  0  0  0
   10.6386  -16.0453   28.1125 C   0  0  1  0  0  0  0  0  0  0  0  0
    9.3740  -15.4181   28.7081 C   0  0  0  0  0  0  0  0  0  0  0  0
    8.6452  -14.6172   27.6762 C   0  0  0  0  0  0  0  0  0  0  0  0
    8.9193  -13.3057   27.4083 C   0  0  0  0  0  0  0  0  0  0  0  0
    8.1845  -12.6336   26.4263 C   0  0  0  0  0  0  0  0  0  0  0  0
    7.1828  -13.2737   25.7193 C   0  0  0  0  0  0  0  0  0  0  0  0
    6.9021  -14.5889   25.9822 C   0  0  0  0  0  0  0  0  0  0  0  0
    7.6371  -15.2243   26.9496 C   0  0  0  0  0  0  0  0  0  0  0  0
   11.2385  -16.9010   29.1582 C   0  0  0  0  0  0  0  0  0  0  0  0
   11.3125  -18.1530   29.0773 O   0  0  0  0  0  0  0  0  0  0  0  0
   11.7430  -16.2765   30.2826 O   0  0  0  0  0  0  0  0  0  0  0  0
  2  1  1  6
  3  2  1  0
  4  3  1  0
  5  4  2  0
  6  7  1  0
  6  5  1  0
  7 12  2  0
  8  7  1  0
  8  9  2  0
  9 10  1  0
 10 11  2  0
 12  4  1  0
 12 11  1  0
 13 14  2  0
 13  2  1  0
 15 13  1  0
 16 15  1  0
 16 17  1  6
 18 17  1  0
 19 18  2  0
 20 19  1  0
 21 20  1  0
 21 22  2  0
 22 18  1  0
 23 16  1  0
 24 23  2  0
 25 23  1  0
 26 34  1  0
 26 25  1  0
 26 27  1  1
 28 33  1  0
 28 27  1  0
 29 28  2  0
 30 31  2  0
 30 29  1  0
 31 32  1  0
 32 33  2  0
 34 36  1  0
 35 34  2  0
M  END
$$$$
