WHF.pdb
     RDKit          3D

 36 39  0  0  1  0  0  0  0  0999 V2000
    6.9033  -18.9947   22.3685 N   0  0  0  0  0  0  0  0  0  0  0  0
    7.6484  -17.7844   22.5399 C   0  0  1  0  0  0  0  0  0  0  0  0
    6.8285  -16.6748   23.1645 C   0  0  0  0  0  0  0  0  0  0  0  0
    6.4001  -15.6693   22.1884 C   0  0  0  0  0  0  0  0  0  0  0  0
    5.2084  -15.5237   21.5120 C   0  0  0  0  0  0  0  0  0  0  0  0
    5.3013  -14.4368   20.7208 N   0  0  0  0  0  0  0  0  0  0  0  0
    6.5067  -13.8535   20.8436 C   0  0  0  0  0  0  0  0  0  0  0  0
    7.0597  -12.7331   20.2445 C   0  0  0  0  0  0  0  0  0  0  0  0
    8.3657  -12.3717   20.5853 C   0  0  0  0  0  0  0  0  0  0  0  0
    9.0725  -13.1245   21.4983 C   0  0  0  0  0  0  0  0  0  0  0  0
    8.4933  -14.2258   22.0703 C   0  0  0  0  0  0  0  0  0  0  0  0
    7.1920  -14.6243   21.7605 C   0  0  0  0  0  0  0  0  0  0  0  0
    8.8866  -17.9917   23.3345 C   0  0  0  0  0  0  0  0  0  0  0  0
    9.0294  -19.0435   24.0106 O   0  0  0  0  0  0  0  0  0  0  0  0
    9.8865  -17.0050   23.3199 N   0  0  0  0  0  0  0  0  0  0  0  0
   11.2110  -17.2469   24.0148 C   0  0  1  0  0  0  0  0  0  0  0  0
   12.2389  -16.6043   23.1492 C   0  0  0  0  0  0  0  0  0  0  0  0
   12.4797  -17.1556   21.8177 C   0  0  0  0  0  0  0  0  0  0  0  0
   11.7748  -16.7685   20.6554 C   0  0  0  0  0  0  0  0  0  0  0  0
   12.2845  -17.4913   19.6621 N   0  0  0  0  0  0  0  0  0  0  0  0
   13.2521  -18.2988   20.1144 C   0  0  0  0  0  0  0  0  0  0  0  0
   13.3427  -18.0708   21.4140 N   0  0  0  0  0  0  0  0  0  0  0  0
   11.0125  -16.6197   25.3436 C   0  0  0  0  0  0  0  0  0  0  0  0
   11.6374  -15.5263   25.6133 O   0  0  0  0  0  0  0  0  0  0  0  0
   10.1882  -17.0859   26.3880 N   0  0  0  0  0  0  0  0  0  0  0  0
   10.3084  -16.5888   27.7534 C   0  0  1  0  0  0  0  0  0  0  0  0
    8.9282  -16.1107   28.2159 C   0  0  0  0  0  0  0  0  0  0  0  0
    8.4546  -14.9696   27.3728 C   0  0  0  0  0  0  0  0  0  0  0  0
    7.5467  -15.1064   26.3609 C   0  0  0  0  0  0  0  0  0  0  0  0
    7.1623  -13.9828   25.6220 C   0  0  0  0  0  0  0  0  0  0  0  0
    7.6856  -12.7325   25.8972 C   0  0  0  0  0  0  0  0  0  0  0  0
    8.5966  -12.5874   26.9106 C   0  0  0  0  0  0  0  0  0  0  0  0
    8.9563  -13.7046   27.6193 C   0  0  0  0  0  0  0  0  0  0  0  0
   10.7454  -17.6431   28.6932 C   0  0  0  0  0  0  0  0  0  0  0  0
   10.8447  -18.8568   28.3828 O   0  0  0  0  0  0  0  0  0  0  0  0
   11.0598  -17.2588   29.9826 O   0  0  0  0  0  0  0  0  0  0  0  0
  2  1  1  1
  3  2  1  0
  4  3  1  0
  5  4  2  0
  6  7  1  0
  6  5  1  0
  7 12  2  0
  8  7  1  0
  8  9  2  0
  9 10  1  0
 10 11  2  0
 12  4  1  0
 12 11  1  0
 13 14  2  0
 13  2  1  0
 15 13  1  0
 16 15  1  0
 16 17  1  6
 18 17  1  0
 19 18  2  0
 20 19  1  0
 21 20  1  0
 21 22  2  0
 22 18  1  0
 23 16  1  0
 24 23  2  0
 25 23  1  0
 26 34  1  0
 26 25  1  0
 26 27  1  1
 28 33  1  0
 28 27  1  0
 29 28  2  0
 30 31  2  0
 30 29  1  0
 31 32  1  0
 32 33  2  0
 34 36  1  0
 35 34  2  0
M  END
$$$$
