WHF.pdb
     RDKit          3D

 36 39  0  0  1  0  0  0  0  0999 V2000
    7.7375  -17.9396   21.3046 N   0  0  0  0  0  0  0  0  0  0  0  0
    8.5152  -16.9266   21.9513 C   0  0  1  0  0  0  0  0  0  0  0  0
    7.6798  -15.7495   22.4097 C   0  0  0  0  0  0  0  0  0  0  0  0
    7.0563  -15.0299   21.2958 C   0  0  0  0  0  0  0  0  0  0  0  0
    5.8799  -15.2670   20.6186 C   0  0  0  0  0  0  0  0  0  0  0  0
    5.7405  -14.3210   19.6690 N   0  0  0  0  0  0  0  0  0  0  0  0
    6.7768  -13.4642   19.6873 C   0  0  0  0  0  0  0  0  0  0  0  0
    7.0727  -12.3508   18.9172 C   0  0  0  0  0  0  0  0  0  0  0  0
    8.2523  -11.6511   19.1838 C   0  0  0  0  0  0  0  0  0  0  0  0
    9.0902  -12.0732   20.1935 C   0  0  0  0  0  0  0  0  0  0  0  0
    8.7651  -13.1783   20.9342 C   0  0  0  0  0  0  0  0  0  0  0  0
    7.5978  -13.9081   20.7038 C   0  0  0  0  0  0  0  0  0  0  0  0
    9.2919  -17.4592   23.1006 C   0  0  0  0  0  0  0  0  0  0  0  0
    8.8321  -18.4133   23.7802 O   0  0  0  0  0  0  0  0  0  0  0  0
   10.5359  -16.8868   23.4142 N   0  0  0  0  0  0  0  0  0  0  0  0
   11.4392  -17.5352   24.4436 C   0  0  1  0  0  0  0  0  0  0  0  0
   12.8141  -17.4522   23.8765 C   0  0  0  0  0  0  0  0  0  0  0  0
   13.1539  -18.2955   22.7328 C   0  0  0  0  0  0  0  0  0  0  0  0
   13.4497  -19.6750   22.8197 C   0  0  0  0  0  0  0  0  0  0  0  0
   13.7024  -20.0728   21.5760 N   0  0  0  0  0  0  0  0  0  0  0  0
   13.5872  -19.0492   20.7205 C   0  0  0  0  0  0  0  0  0  0  0  0
   13.2565  -17.9967   21.4501 N   0  0  0  0  0  0  0  0  0  0  0  0
   11.2000  -16.7220   25.6600 C   0  0  0  0  0  0  0  0  0  0  0  0
   11.6993  -15.5364   25.7220 O   0  0  0  0  0  0  0  0  0  0  0  0
   10.4602  -17.0969   26.8001 N   0  0  0  0  0  0  0  0  0  0  0  0
   10.6086  -16.4162   28.0810 C   0  0  1  0  0  0  0  0  0  0  0  0
    9.2119  -16.0790   28.6126 C   0  0  0  0  0  0  0  0  0  0  0  0
    8.5564  -15.0428   27.7559 C   0  0  0  0  0  0  0  0  0  0  0  0
    8.9000  -13.7205   27.7769 C   0  0  0  0  0  0  0  0  0  0  0  0
    8.2309  -12.8202   26.9415 C   0  0  0  0  0  0  0  0  0  0  0  0
    7.2253  -13.2447   26.0921 C   0  0  0  0  0  0  0  0  0  0  0  0
    6.8751  -14.5693   26.0654 C   0  0  0  0  0  0  0  0  0  0  0  0
    7.5466  -15.4306   26.8942 C   0  0  0  0  0  0  0  0  0  0  0  0
   11.2688  -17.2696   29.0917 C   0  0  0  0  0  0  0  0  0  0  0  0
   11.5327  -18.4853   28.9132 O   0  0  0  0  0  0  0  0  0  0  0  0
   11.6101  -16.6851   30.2962 O   0  0  0  0  0  0  0  0  0  0  0  0
  2  1  1  1
  3  2  1  0
  4  3  1  0
  5  4  2  0
  6  7  1  0
  6  5  1  0
  7 12  2  0
  8  7  1  0
  8  9  2  0
  9 10  1  0
 10 11  2  0
 12  4  1  0
 12 11  1  0
 13 14  2  0
 13  2  1  0
 15 13  1  0
 16 15  1  0
 16 17  1  6
 18 17  1  0
 19 18  2  0
 20 19  1  0
 21 20  1  0
 21 22  2  0
 22 18  1  0
 23 16  1  0
 24 23  2  0
 25 23  1  0
 26 34  1  0
 26 25  1  0
 26 27  1  1
 28 33  1  0
 28 27  1  0
 29 28  2  0
 30 31  2  0
 30 29  1  0
 31 32  1  0
 32 33  2  0
 34 36  1  0
 35 34  2  0
M  END
$$$$
