WHF.pdb
     RDKit          3D

 36 39  0  0  1  0  0  0  0  0999 V2000
    6.8602  -18.2718   23.3920 N   0  0  0  0  0  0  0  0  0  0  0  0
    7.6978  -17.5109   22.5151 C   0  0  1  0  0  0  0  0  0  0  0  0
    7.2737  -16.0607   22.4115 C   0  0  0  0  0  0  0  0  0  0  0  0
    7.0944  -15.4284   23.7213 C   0  0  0  0  0  0  0  0  0  0  0  0
    6.8109  -15.9771   24.9530 C   0  0  0  0  0  0  0  0  0  0  0  0
    6.7444  -14.9787   25.8556 N   0  0  0  0  0  0  0  0  0  0  0  0
    6.9723  -13.7879   25.2739 C   0  0  0  0  0  0  0  0  0  0  0  0
    7.0080  -12.4994   25.7825 C   0  0  0  0  0  0  0  0  0  0  0  0
    7.2765  -11.4447   24.9063 C   0  0  0  0  0  0  0  0  0  0  0  0
    7.4982  -11.6991   23.5699 C   0  0  0  0  0  0  0  0  0  0  0  0
    7.4551  -12.9858   23.1028 C   0  0  0  0  0  0  0  0  0  0  0  0
    7.1908  -14.0702   23.9408 C   0  0  0  0  0  0  0  0  0  0  0  0
    9.1307  -17.5807   22.9021 C   0  0  0  0  0  0  0  0  0  0  0  0
    9.5654  -18.5873   23.5196 O   0  0  0  0  0  0  0  0  0  0  0  0
    9.9850  -16.5156   22.5713 N   0  0  0  0  0  0  0  0  0  0  0  0
   11.4863  -16.6673   22.7094 C   0  0  1  0  0  0  0  0  0  0  0  0
   12.0756  -15.6932   21.7488 C   0  0  0  0  0  0  0  0  0  0  0  0
   12.1937  -16.0764   20.3439 C   0  0  0  0  0  0  0  0  0  0  0  0
   11.7898  -17.3264   19.8221 C   0  0  0  0  0  0  0  0  0  0  0  0
   12.0592  -17.2824   18.5204 N   0  0  0  0  0  0  0  0  0  0  0  0
   12.5996  -16.1028   18.1900 C   0  0  0  0  0  0  0  0  0  0  0  0
   12.6657  -15.4027   19.3101 N   0  0  0  0  0  0  0  0  0  0  0  0
   11.7230  -16.3731   24.1432 C   0  0  0  0  0  0  0  0  0  0  0  0
   11.2770  -15.2681   24.6319 O   0  0  0  0  0  0  0  0  0  0  0  0
   12.3969  -17.1866   25.0768 N   0  0  0  0  0  0  0  0  0  0  0  0
   11.8465  -17.4751   26.3959 C   0  0  1  0  0  0  0  0  0  0  0  0
   10.3259  -17.2991   26.3329 C   0  0  0  0  0  0  0  0  0  0  0  0
    9.8949  -16.1288   27.1586 C   0  0  0  0  0  0  0  0  0  0  0  0
   10.7650  -15.3303   27.8460 C   0  0  0  0  0  0  0  0  0  0  0  0
   10.2722  -14.2573   28.5954 C   0  0  0  0  0  0  0  0  0  0  0  0
    8.9167  -13.9886   28.6539 C   0  0  0  0  0  0  0  0  0  0  0  0
    8.0379  -14.7848   27.9673 C   0  0  0  0  0  0  0  0  0  0  0  0
    8.5471  -15.8299   27.2405 C   0  0  0  0  0  0  0  0  0  0  0  0
   12.1103  -18.8676   26.8168 C   0  0  0  0  0  0  0  0  0  0  0  0
   12.0936  -19.8487   26.0315 O   0  0  0  0  0  0  0  0  0  0  0  0
   12.3898  -19.0891   28.1516 O   0  0  0  0  0  0  0  0  0  0  0  0
  2  1  1  1
  3  2  1  0
  4  3  1  0
  5  4  2  0
  6  7  1  0
  6  5  1  0
  7 12  2  0
  8  7  1  0
  8  9  2  0
  9 10  1  0
 10 11  2  0
 12  4  1  0
 12 11  1  0
 13 14  2  0
 13  2  1  0
 15 13  1  0
 16 15  1  0
 16 17  1  6
 18 17  1  0
 19 18  2  0
 20 19  1  0
 21 20  1  0
 21 22  2  0
 22 18  1  0
 23 16  1  0
 24 23  2  0
 25 23  1  0
 26 34  1  0
 26 25  1  0
 26 27  1  6
 28 33  1  0
 28 27  1  0
 29 28  2  0
 30 31  2  0
 30 29  1  0
 31 32  1  0
 32 33  2  0
 34 36  1  0
 35 34  2  0
M  END
$$$$
