WHF.pdb
     RDKit          3D

 36 39  0  0  1  0  0  0  0  0999 V2000
    6.8324  -18.3540   23.0508 N   0  0  0  0  0  0  0  0  0  0  0  0
    7.8514  -17.3530   22.9563 C   0  0  1  0  0  0  0  0  0  0  0  0
    7.4010  -16.0065   23.4831 C   0  0  0  0  0  0  0  0  0  0  0  0
    6.8328  -15.1510   22.4379 C   0  0  0  0  0  0  0  0  0  0  0  0
    5.5313  -14.9943   22.0134 C   0  0  0  0  0  0  0  0  0  0  0  0
    5.5173  -14.0855   21.0185 N   0  0  0  0  0  0  0  0  0  0  0  0
    6.7572  -13.6312   20.7641 C   0  0  0  0  0  0  0  0  0  0  0  0
    7.2364  -12.7076   19.8490 C   0  0  0  0  0  0  0  0  0  0  0  0
    8.6080  -12.4424   19.8264 C   0  0  0  0  0  0  0  0  0  0  0  0
    9.4499  -13.0942   20.7017 C   0  0  0  0  0  0  0  0  0  0  0  0
    8.9405  -14.0010   21.5926 C   0  0  0  0  0  0  0  0  0  0  0  0
    7.5778  -14.2975   21.6513 C   0  0  0  0  0  0  0  0  0  0  0  0
    9.1056  -17.7581   23.6423 C   0  0  0  0  0  0  0  0  0  0  0  0
    9.0748  -18.6467   24.5329 O   0  0  0  0  0  0  0  0  0  0  0  0
   10.3154  -17.1398   23.2850 N   0  0  0  0  0  0  0  0  0  0  0  0
   11.6321  -17.6706   23.8147 C   0  0  1  0  0  0  0  0  0  0  0  0
   12.6452  -17.3321   22.7765 C   0  0  0  0  0  0  0  0  0  0  0  0
   14.0289  -17.7540   22.9818 C   0  0  0  0  0  0  0  0  0  0  0  0
   14.4290  -19.0903   23.2103 C   0  0  0  0  0  0  0  0  0  0  0  0
   15.7518  -19.0569   23.3446 N   0  0  0  0  0  0  0  0  0  0  0  0
   16.2075  -17.8044   23.2177 C   0  0  0  0  0  0  0  0  0  0  0  0
   15.1450  -17.0475   23.0004 N   0  0  0  0  0  0  0  0  0  0  0  0
   11.7831  -16.9631   25.1089 C   0  0  0  0  0  0  0  0  0  0  0  0
   12.9171  -17.0173   25.7172 O   0  0  0  0  0  0  0  0  0  0  0  0
   10.8036  -16.2036   25.7808 N   0  0  0  0  0  0  0  0  0  0  0  0
   11.0057  -15.6972   27.1331 C   0  0  1  0  0  0  0  0  0  0  0  0
   10.6546  -14.2059   27.1470 C   0  0  0  0  0  0  0  0  0  0  0  0
    9.2188  -13.9978   26.7831 C   0  0  0  0  0  0  0  0  0  0  0  0
    8.5991  -12.7808   26.8275 C   0  0  0  0  0  0  0  0  0  0  0  0
    7.2504  -12.6797   26.4711 C   0  0  0  0  0  0  0  0  0  0  0  0
    6.5305  -13.7916   26.0734 C   0  0  0  0  0  0  0  0  0  0  0  0
    7.1451  -15.0154   26.0262 C   0  0  0  0  0  0  0  0  0  0  0  0
    8.4676  -15.0870   26.3807 C   0  0  0  0  0  0  0  0  0  0  0  0
   10.1249  -16.3648   28.1150 C   0  0  0  0  0  0  0  0  0  0  0  0
    9.2292  -17.1888   27.8015 O   0  0  0  0  0  0  0  0  0  0  0  0
   10.3074  -16.0568   29.4494 O   0  0  0  0  0  0  0  0  0  0  0  0
  2  1  1  1
  3  2  1  0
  4  3  1  0
  5  4  2  0
  6  7  1  0
  6  5  1  0
  7 12  2  0
  8  7  1  0
  8  9  2  0
  9 10  1  0
 10 11  2  0
 12  4  1  0
 12 11  1  0
 13 14  2  0
 13  2  1  0
 15 13  1  0
 16 15  1  0
 16 17  1  6
 18 17  1  0
 19 18  2  0
 20 19  1  0
 21 20  1  0
 21 22  2  0
 22 18  1  0
 23 16  1  0
 24 23  2  0
 25 23  1  0
 26 34  1  0
 26 25  1  0
 26 27  1  6
 28 33  1  0
 28 27  1  0
 29 28  2  0
 30 31  2  0
 30 29  1  0
 31 32  1  0
 32 33  2  0
 34 36  1  0
 35 34  2  0
M  END
$$$$
