WHF.pdb
     RDKit          3D

 36 39  0  0  1  0  0  0  0  0999 V2000
    6.2441  -18.3179   24.2108 N   0  0  0  0  0  0  0  0  0  0  0  0
    7.2252  -17.2772   24.1492 C   0  0  1  0  0  0  0  0  0  0  0  0
    7.5851  -16.7293   25.5145 C   0  0  0  0  0  0  0  0  0  0  0  0
    7.0108  -15.4040   25.7618 C   0  0  0  0  0  0  0  0  0  0  0  0
    6.0260  -15.0002   26.6369 C   0  0  0  0  0  0  0  0  0  0  0  0
    5.8495  -13.6721   26.4914 N   0  0  0  0  0  0  0  0  0  0  0  0
    6.6774  -13.1762   25.5549 C   0  0  0  0  0  0  0  0  0  0  0  0
    6.8606  -11.8930   25.0652 C   0  0  0  0  0  0  0  0  0  0  0  0
    7.8197  -11.6906   24.0695 C   0  0  0  0  0  0  0  0  0  0  0  0
    8.5572  -12.7549   23.5973 C   0  0  0  0  0  0  0  0  0  0  0  0
    8.3488  -14.0096   24.1051 C   0  0  0  0  0  0  0  0  0  0  0  0
    7.4022  -14.2590   25.1000 C   0  0  0  0  0  0  0  0  0  0  0  0
    8.4620  -17.7086   23.4478 C   0  0  0  0  0  0  0  0  0  0  0  0
    8.9156  -18.8680   23.6318 O   0  0  0  0  0  0  0  0  0  0  0  0
    9.1114  -16.8110   22.5840 N   0  0  0  0  0  0  0  0  0  0  0  0
   10.4776  -17.1443   22.0198 C   0  0  1  0  0  0  0  0  0  0  0  0
   10.5670  -16.4061   20.7291 C   0  0  0  0  0  0  0  0  0  0  0  0
    9.5118  -16.5967   19.7367 C   0  0  0  0  0  0  0  0  0  0  0  0
    9.1843  -17.8404   19.1504 C   0  0  0  0  0  0  0  0  0  0  0  0
    8.1828  -17.5951   18.3104 N   0  0  0  0  0  0  0  0  0  0  0  0
    7.8603  -16.2957   18.3272 C   0  0  0  0  0  0  0  0  0  0  0  0
    8.6790  -15.7256   19.1954 N   0  0  0  0  0  0  0  0  0  0  0  0
   11.4017  -16.6840   23.0840 C   0  0  0  0  0  0  0  0  0  0  0  0
   11.5604  -15.4185   23.2636 O   0  0  0  0  0  0  0  0  0  0  0  0
   12.1539  -17.4903   23.9625 N   0  0  0  0  0  0  0  0  0  0  0  0
   12.6522  -16.9927   25.2393 C   0  0  1  0  0  0  0  0  0  0  0  0
   12.3078  -15.5035   25.3441 C   0  0  0  0  0  0  0  0  0  0  0  0
   11.5948  -15.2151   26.6269 C   0  0  0  0  0  0  0  0  0  0  0  0
   11.8084  -15.9143   27.7813 C   0  0  0  0  0  0  0  0  0  0  0  0
   11.0940  -15.5763   28.9352 C   0  0  0  0  0  0  0  0  0  0  0  0
   10.1728  -14.5447   28.9295 C   0  0  0  0  0  0  0  0  0  0  0  0
    9.9531  -13.8389   27.7756 C   0  0  0  0  0  0  0  0  0  0  0  0
   10.6665  -14.1905   26.6588 C   0  0  0  0  0  0  0  0  0  0  0  0
   12.0164  -17.6722   26.3880 C   0  0  0  0  0  0  0  0  0  0  0  0
   12.3938  -17.5305   27.5784 O   0  0  0  0  0  0  0  0  0  0  0  0
   10.9478  -18.5073   26.1244 O   0  0  0  0  0  0  0  0  0  0  0  0
  2  1  1  1
  3  2  1  0
  4  3  1  0
  5  4  2  0
  6  7  1  0
  6  5  1  0
  7 12  2  0
  8  7  1  0
  8  9  2  0
  9 10  1  0
 10 11  2  0
 12  4  1  0
 12 11  1  0
 13 14  2  0
 13  2  1  0
 15 13  1  0
 16 15  1  0
 16 17  1  6
 18 17  1  0
 19 18  2  0
 20 19  1  0
 21 20  1  0
 21 22  2  0
 22 18  1  0
 23 16  1  0
 24 23  2  0
 25 23  1  0
 26 34  1  0
 26 25  1  0
 26 27  1  1
 28 33  1  0
 28 27  1  0
 29 28  2  0
 30 31  2  0
 30 29  1  0
 31 32  1  0
 32 33  2  0
 34 36  1  0
 35 34  2  0
M  END
$$$$
