WTC.pdb
     RDKit          3D

 28 29  0  0  1  0  0  0  0  0999 V2000
    6.4033  -18.5150   25.3113 N   0  0  0  0  0  0  0  0  0  0  0  0
    6.5730  -17.1574   24.8620 C   0  0  1  0  0  0  0  0  0  0  0  0
    7.3529  -16.3770   25.8944 C   0  0  0  0  0  0  0  0  0  0  0  0
    6.7668  -15.0851   26.2376 C   0  0  0  0  0  0  0  0  0  0  0  0
    5.4408  -14.9246   26.5956 C   0  0  0  0  0  0  0  0  0  0  0  0
    5.2644  -13.6294   26.8695 N   0  0  0  0  0  0  0  0  0  0  0  0
    6.4325  -12.9613   26.6973 C   0  0  0  0  0  0  0  0  0  0  0  0
    6.7313  -11.6344   26.8517 C   0  0  0  0  0  0  0  0  0  0  0  0
    8.0223  -11.2368   26.5928 C   0  0  0  0  0  0  0  0  0  0  0  0
    9.0034  -12.1128   26.1912 C   0  0  0  0  0  0  0  0  0  0  0  0
    8.7016  -13.4476   26.0365 C   0  0  0  0  0  0  0  0  0  0  0  0
    7.4025  -13.8770   26.2930 C   0  0  0  0  0  0  0  0  0  0  0  0
    7.4250  -17.1730   23.6358 C   0  0  0  0  0  0  0  0  0  0  0  0
    8.2013  -18.1472   23.4804 O   0  0  0  0  0  0  0  0  0  0  0  0
    8.6886  -15.0499   19.3472 C   0  0  0  0  0  0  0  0  0  0  0  0
    7.7687  -15.1807   20.5326 C   0  0  1  0  0  0  0  0  0  0  0  0
    6.5249  -15.5855   20.0365 O   0  0  0  0  0  0  0  0  0  0  0  0
    8.3043  -16.1349   21.5831 C   0  0  2  0  0  0  0  0  0  0  0  0
    7.3623  -16.1220   22.6739 N   0  0  0  0  0  0  0  0  0  0  0  0
    9.6667  -15.7509   22.0219 C   0  0  0  0  0  0  0  0  0  0  0  0
    9.8453  -14.6101   22.5100 O   0  0  0  0  0  0  0  0  0  0  0  0
   10.7988  -16.5973   21.9265 N   0  0  0  0  0  0  0  0  0  0  0  0
   12.1295  -16.1823   22.3278 C   0  0  1  0  0  0  0  0  0  0  0  0
   12.6573  -17.0707   23.4598 C   0  0  0  0  0  0  0  0  0  0  0  0
   11.6123  -17.0215   24.9119 S   0  0  0  0  0  0  0  0  0  0  0  0
   13.0248  -16.4157   21.1767 C   0  0  0  0  0  0  0  0  0  0  0  0
   12.5490  -16.9425   20.1484 O   0  0  0  0  0  0  0  0  0  0  0  0
   14.3586  -16.0739   21.1992 O   0  0  0  0  0  0  0  0  0  0  0  0
  2 13  1  0
  2  1  1  1
  3  2  1  0
  4  3  1  0
  4 12  1  0
  5  6  1  0
  5  4  2  0
  6  7  1  0
  7 12  2  0
  7  8  1  0
  8  9  2  0
  9 10  1  0
 11 10  2  0
 12 11  1  0
 13 19  1  0
 14 13  2  0
 16 15  1  6
 16 17  1  0
 18 16  1  0
 18 19  1  1
 20 18  1  0
 21 20  2  0
 22 20  1  0
 23 22  1  0
 23 26  1  0
 24 25  1  0
 23 24  1  1
 26 28  1  0
 27 26  2  0
M  END
$$$$
