WTC.pdb
     RDKit          3D

 28 29  0  0  1  0  0  0  0  0999 V2000
    6.2490  -18.0770   24.9999 N   0  0  0  0  0  0  0  0  0  0  0  0
    6.7003  -16.7942   24.5260 C   0  0  1  0  0  0  0  0  0  0  0  0
    7.7668  -16.2595   25.4530 C   0  0  0  0  0  0  0  0  0  0  0  0
    7.3021  -15.2175   26.3634 C   0  0  0  0  0  0  0  0  0  0  0  0
    6.9161  -15.4664   27.6677 C   0  0  0  0  0  0  0  0  0  0  0  0
    6.5848  -14.2907   28.2079 N   0  0  0  0  0  0  0  0  0  0  0  0
    6.7465  -13.3035   27.2915 C   0  0  0  0  0  0  0  0  0  0  0  0
    6.5283  -11.9555   27.3861 C   0  0  0  0  0  0  0  0  0  0  0  0
    6.7753  -11.1894   26.2708 C   0  0  0  0  0  0  0  0  0  0  0  0
    7.2256  -11.7242   25.0866 C   0  0  0  0  0  0  0  0  0  0  0  0
    7.4450  -13.0806   24.9928 C   0  0  0  0  0  0  0  0  0  0  0  0
    7.2038  -13.8791   26.1073 C   0  0  0  0  0  0  0  0  0  0  0  0
    7.3707  -16.9919   23.2065 C   0  0  0  0  0  0  0  0  0  0  0  0
    7.8461  -18.1275   22.9610 O   0  0  0  0  0  0  0  0  0  0  0  0
    8.6438  -15.2275   18.7794 C   0  0  0  0  0  0  0  0  0  0  0  0
    7.8960  -15.0885   20.0794 C   0  0  1  0  0  0  0  0  0  0  0  0
    6.5337  -15.1763   19.7737 O   0  0  0  0  0  0  0  0  0  0  0  0
    8.3197  -16.1194   21.1082 C   0  0  2  0  0  0  0  0  0  0  0  0
    7.4697  -15.9323   22.2571 N   0  0  0  0  0  0  0  0  0  0  0  0
    9.7550  -15.9860   21.4521 C   0  0  0  0  0  0  0  0  0  0  0  0
   10.2251  -14.8408   21.6495 O   0  0  0  0  0  0  0  0  0  0  0  0
   10.6462  -17.0803   21.5753 N   0  0  0  0  0  0  0  0  0  0  0  0
   12.0259  -16.9300   21.9970 C   0  0  1  0  0  0  0  0  0  0  0  0
   12.3593  -17.9121   23.1255 C   0  0  0  0  0  0  0  0  0  0  0  0
   11.3700  -17.6322   24.5904 S   0  0  0  0  0  0  0  0  0  0  0  0
   12.8762  -17.3200   20.8541 C   0  0  0  0  0  0  0  0  0  0  0  0
   12.3309  -17.8275   19.8511 O   0  0  0  0  0  0  0  0  0  0  0  0
   14.2420  -17.1438   20.8578 O   0  0  0  0  0  0  0  0  0  0  0  0
  2 13  1  0
  2  1  1  1
  3  2  1  0
  4  3  1  0
  4 12  1  0
  5  6  1  0
  5  4  2  0
  6  7  1  0
  7 12  2  0
  7  8  1  0
  8  9  2  0
  9 10  1  0
 11 10  2  0
 12 11  1  0
 13 19  1  0
 14 13  2  0
 16 15  1  6
 16 17  1  0
 18 16  1  0
 18 19  1  1
 20 18  1  0
 21 20  2  0
 22 20  1  0
 23 22  1  0
 23 26  1  0
 24 25  1  0
 23 24  1  1
 26 28  1  0
 27 26  2  0
M  END
$$$$
