WTC.pdb
     RDKit          3D

 28 29  0  0  1  0  0  0  0  0999 V2000
    6.2655  -17.6727   24.0204 N   0  0  0  0  0  0  0  0  0  0  0  0
    7.0911  -16.6499   23.4322 C   0  0  1  0  0  0  0  0  0  0  0  0
    7.8986  -15.9688   24.5125 C   0  0  0  0  0  0  0  0  0  0  0  0
    7.1168  -15.1016   25.3883 C   0  0  0  0  0  0  0  0  0  0  0  0
    6.2325  -15.5804   26.3376 C   0  0  0  0  0  0  0  0  0  0  0  0
    5.7243  -14.5186   26.9684 N   0  0  0  0  0  0  0  0  0  0  0  0
    6.2547  -13.3816   26.4523 C   0  0  0  0  0  0  0  0  0  0  0  0
    6.0323  -12.0694   26.7722 C   0  0  0  0  0  0  0  0  0  0  0  0
    6.7188  -11.1138   26.0600 C   0  0  0  0  0  0  0  0  0  0  0  0
    7.6042  -11.4286   25.0559 C   0  0  0  0  0  0  0  0  0  0  0  0
    7.8273  -12.7492   24.7351 C   0  0  0  0  0  0  0  0  0  0  0  0
    7.1461  -13.7366   25.4412 C   0  0  0  0  0  0  0  0  0  0  0  0
    8.0865  -17.3095   22.5358 C   0  0  0  0  0  0  0  0  0  0  0  0
    7.6837  -18.2584   21.8194 O   0  0  0  0  0  0  0  0  0  0  0  0
    8.1236  -16.8998   20.0114 C   0  0  0  0  0  0  0  0  0  0  0  0
    9.5831  -16.5521   20.1447 C   0  0  1  0  0  0  0  0  0  0  0  0
    9.6614  -15.1573   20.2178 O   0  0  0  0  0  0  0  0  0  0  0  0
   10.2359  -17.2256   21.3368 C   0  0  2  0  0  0  0  0  0  0  0  0
    9.4459  -16.8806   22.4919 N   0  0  0  0  0  0  0  0  0  0  0  0
   11.6505  -16.8107   21.4879 C   0  0  0  0  0  0  0  0  0  0  0  0
   11.9498  -15.6069   21.3075 O   0  0  0  0  0  0  0  0  0  0  0  0
   12.7044  -17.6946   21.8275 N   0  0  0  0  0  0  0  0  0  0  0  0
   13.8149  -17.3079   22.6767 C   0  0  1  0  0  0  0  0  0  0  0  0
   13.9215  -18.2394   23.8892 C   0  0  0  0  0  0  0  0  0  0  0  0
   12.6967  -17.8745   25.1420 S   0  0  0  0  0  0  0  0  0  0  0  0
   15.0523  -17.5125   21.8968 C   0  0  0  0  0  0  0  0  0  0  0  0
   14.9682  -18.0653   20.7795 O   0  0  0  0  0  0  0  0  0  0  0  0
   16.2880  -17.1163   22.3577 O   0  0  0  0  0  0  0  0  0  0  0  0
  2 13  1  0
  2  1  1  1
  3  2  1  0
  4  3  1  0
  4 12  1  0
  5  6  1  0
  5  4  2  0
  6  7  1  0
  7 12  2  0
  7  8  1  0
  8  9  2  0
  9 10  1  0
 11 10  2  0
 12 11  1  0
 13 19  1  0
 14 13  2  0
 16 15  1  1
 16 17  1  0
 18 16  1  0
 18 19  1  1
 20 18  1  0
 21 20  2  0
 22 20  1  0
 23 22  1  0
 23 26  1  0
 24 25  1  0
 23 24  1  1
 26 28  1  0
 27 26  2  0
M  END
$$$$
