WTC.pdb
     RDKit          3D

 28 29  0  0  1  0  0  0  0  0999 V2000
    6.3720  -17.8567   24.4310 N   0  0  0  0  0  0  0  0  0  0  0  0
    6.9786  -16.7304   23.7697 C   0  0  1  0  0  0  0  0  0  0  0  0
    7.7691  -15.9216   24.7716 C   0  0  0  0  0  0  0  0  0  0  0  0
    6.9692  -14.9740   25.5414 C   0  0  0  0  0  0  0  0  0  0  0  0
    5.9244  -15.3549   26.3633 C   0  0  0  0  0  0  0  0  0  0  0  0
    5.4460  -14.2428   26.9273 N   0  0  0  0  0  0  0  0  0  0  0  0
    6.1504  -13.1684   26.4917 C   0  0  0  0  0  0  0  0  0  0  0  0
    6.0199  -11.8381   26.7865 C   0  0  0  0  0  0  0  0  0  0  0  0
    6.8861  -10.9612   26.1761 C   0  0  0  0  0  0  0  0  0  0  0  0
    7.8601  -11.3705   25.2958 C   0  0  0  0  0  0  0  0  0  0  0  0
    7.9906  -12.7092   25.0001 C   0  0  0  0  0  0  0  0  0  0  0  0
    7.1273  -13.6183   25.6050 C   0  0  0  0  0  0  0  0  0  0  0  0
    7.9767  -17.2466   22.7864 C   0  0  0  0  0  0  0  0  0  0  0  0
    8.4446  -18.3949   22.9823 O   0  0  0  0  0  0  0  0  0  0  0  0
    7.9884  -16.1320   18.9872 C   0  0  0  0  0  0  0  0  0  0  0  0
    9.3915  -16.2109   19.5291 C   0  0  1  0  0  0  0  0  0  0  0  0
    9.8560  -14.8961   19.6415 O   0  0  0  0  0  0  0  0  0  0  0  0
    9.4660  -16.9592   20.8464 C   0  0  2  0  0  0  0  0  0  0  0  0
    8.3862  -16.4673   21.6644 N   0  0  0  0  0  0  0  0  0  0  0  0
   10.7838  -16.7789   21.4999 C   0  0  0  0  0  0  0  0  0  0  0  0
   11.0117  -15.7115   22.1164 O   0  0  0  0  0  0  0  0  0  0  0  0
   11.8199  -17.7449   21.4756 N   0  0  0  0  0  0  0  0  0  0  0  0
   13.1241  -17.5172   22.0682 C   0  0  1  0  0  0  0  0  0  0  0  0
   13.2946  -18.3509   23.3431 C   0  0  0  0  0  0  0  0  0  0  0  0
   12.3391  -17.7087   24.7133 S   0  0  0  0  0  0  0  0  0  0  0  0
   14.1313  -18.0232   21.1138 C   0  0  0  0  0  0  0  0  0  0  0  0
   13.7347  -18.5727   20.0641 O   0  0  0  0  0  0  0  0  0  0  0  0
   15.4847  -17.9101   21.3415 O   0  0  0  0  0  0  0  0  0  0  0  0
  2 13  1  0
  2  1  1  1
  3  2  1  0
  4  3  1  0
  4 12  1  0
  5  6  1  0
  5  4  2  0
  6  7  1  0
  7 12  2  0
  7  8  1  0
  8  9  2  0
  9 10  1  0
 11 10  2  0
 12 11  1  0
 13 19  1  0
 14 13  2  0
 16 15  1  1
 16 17  1  0
 18 16  1  0
 18 19  1  1
 20 18  1  0
 21 20  2  0
 22 20  1  0
 23 22  1  0
 23 26  1  0
 24 25  1  0
 23 24  1  1
 26 28  1  0
 27 26  2  0
M  END
$$$$
