WTC.pdb
     RDKit          3D

 28 29  0  0  1  0  0  0  0  0999 V2000
    8.0083  -16.9062   21.2048 N   0  0  0  0  0  0  0  0  0  0  0  0
    8.4047  -16.1612   22.3716 C   0  0  1  0  0  0  0  0  0  0  0  0
    7.1812  -15.5758   23.0374 C   0  0  0  0  0  0  0  0  0  0  0  0
    7.2499  -14.1343   23.2558 C   0  0  0  0  0  0  0  0  0  0  0  0
    7.6207  -13.2348   22.2732 C   0  0  0  0  0  0  0  0  0  0  0  0
    7.5419  -12.0148   22.8108 N   0  0  0  0  0  0  0  0  0  0  0  0
    7.1343  -12.1081   24.1014 C   0  0  0  0  0  0  0  0  0  0  0  0
    6.9196  -11.1358   25.0406 C   0  0  0  0  0  0  0  0  0  0  0  0
    6.5103  -11.5359   26.2913 C   0  0  0  0  0  0  0  0  0  0  0  0
    6.3139  -12.8563   26.6218 C   0  0  0  0  0  0  0  0  0  0  0  0
    6.5300  -13.8337   25.6759 C   0  0  0  0  0  0  0  0  0  0  0  0
    6.9438  -13.4559   24.4016 C   0  0  0  0  0  0  0  0  0  0  0  0
    8.9879  -17.1158   23.3608 C   0  0  0  0  0  0  0  0  0  0  0  0
    8.2548  -18.0497   23.7684 O   0  0  0  0  0  0  0  0  0  0  0  0
   11.4529  -19.5080   23.1211 C   0  0  0  0  0  0  0  0  0  0  0  0
   11.8985  -18.6907   24.3052 C   0  0  1  0  0  0  0  0  0  0  0  0
   12.9794  -17.9132   23.8760 O   0  0  0  0  0  0  0  0  0  0  0  0
   10.7797  -17.8459   24.8842 C   0  0  2  0  0  0  0  0  0  0  0  0
   10.3280  -16.9755   23.8280 N   0  0  0  0  0  0  0  0  0  0  0  0
   11.2320  -17.0865   26.0738 C   0  0  0  0  0  0  0  0  0  0  0  0
   11.9192  -16.0519   25.9048 O   0  0  0  0  0  0  0  0  0  0  0  0
   10.9365  -17.4550   27.4095 N   0  0  0  0  0  0  0  0  0  0  0  0
   11.5712  -16.8353   28.5571 C   0  0  1  0  0  0  0  0  0  0  0  0
   10.5893  -15.9138   29.2892 C   0  0  0  0  0  0  0  0  0  0  0  0
   10.2764  -14.3969   28.3926 S   0  0  0  0  0  0  0  0  0  0  0  0
   11.9019  -17.9152   29.5087 C   0  0  0  0  0  0  0  0  0  0  0  0
   11.4909  -19.0700   29.2663 O   0  0  0  0  0  0  0  0  0  0  0  0
   12.6439  -17.6927   30.6473 O   0  0  0  0  0  0  0  0  0  0  0  0
  2 13  1  0
  2  1  1  6
  3  2  1  0
  4  3  1  0
  4 12  1  0
  5  6  1  0
  5  4  2  0
  6  7  1  0
  7 12  2  0
  7  8  1  0
  8  9  2  0
  9 10  1  0
 11 10  2  0
 12 11  1  0
 13 19  1  0
 14 13  2  0
 16 15  1  6
 16 17  1  0
 18 16  1  0
 18 19  1  6
 20 18  1  0
 21 20  2  0
 22 20  1  0
 23 22  1  0
 23 26  1  0
 24 25  1  0
 23 24  1  1
 26 28  1  0
 27 26  2  0
M  END
$$$$
