WTC.pdb
     RDKit          3D

 28 29  0  0  1  0  0  0  0  0999 V2000
    5.9535  -17.5305   24.2059 N   0  0  0  0  0  0  0  0  0  0  0  0
    6.6043  -16.3269   23.7571 C   0  0  1  0  0  0  0  0  0  0  0  0
    7.5451  -15.8306   24.8302 C   0  0  0  0  0  0  0  0  0  0  0  0
    6.9546  -14.8537   25.7397 C   0  0  0  0  0  0  0  0  0  0  0  0
    6.0550  -15.1901   26.7346 C   0  0  0  0  0  0  0  0  0  0  0  0
    5.7526  -14.0633   27.3847 N   0  0  0  0  0  0  0  0  0  0  0  0
    6.4287  -13.0225   26.8368 C   0  0  0  0  0  0  0  0  0  0  0  0
    6.4319  -11.6925   27.1608 C   0  0  0  0  0  0  0  0  0  0  0  0
    7.2235  -10.8549   26.4102 C   0  0  0  0  0  0  0  0  0  0  0  0
    7.9966  -11.3023   25.3645 C   0  0  0  0  0  0  0  0  0  0  0  0
    7.9926  -12.6406   25.0396 C   0  0  0  0  0  0  0  0  0  0  0  0
    7.2009  -13.5105   25.7841 C   0  0  0  0  0  0  0  0  0  0  0  0
    7.4668  -16.6693   22.5872 C   0  0  0  0  0  0  0  0  0  0  0  0
    7.9366  -17.8321   22.5327 O   0  0  0  0  0  0  0  0  0  0  0  0
    7.0070  -14.8568   19.0974 C   0  0  0  0  0  0  0  0  0  0  0  0
    8.4651  -15.0958   19.3895 C   0  0  1  0  0  0  0  0  0  0  0  0
    9.0342  -13.8460   19.6564 O   0  0  0  0  0  0  0  0  0  0  0  0
    8.6783  -16.0766   20.5268 C   0  0  2  0  0  0  0  0  0  0  0  0
    7.7492  -15.7135   21.5671 N   0  0  0  0  0  0  0  0  0  0  0  0
   10.0811  -16.0583   21.0044 C   0  0  0  0  0  0  0  0  0  0  0  0
   10.4114  -15.2214   21.8771 O   0  0  0  0  0  0  0  0  0  0  0  0
   11.0901  -16.9353   20.5354 N   0  0  0  0  0  0  0  0  0  0  0  0
   12.4601  -16.8861   21.0093 C   0  0  1  0  0  0  0  0  0  0  0  0
   12.5710  -17.4894   22.4140 C   0  0  0  0  0  0  0  0  0  0  0  0
   11.3872  -18.8029   22.6898 S   0  0  0  0  0  0  0  0  0  0  0  0
   13.2586  -17.7608   20.1269 C   0  0  0  0  0  0  0  0  0  0  0  0
   14.4937  -17.8205   20.3058 O   0  0  0  0  0  0  0  0  0  0  0  0
   12.6900  -18.5081   19.1196 O   0  0  0  0  0  0  0  0  0  0  0  0
  2 13  1  0
  2  1  1  1
  3  2  1  0
  4  3  1  0
  4 12  1  0
  5  6  1  0
  5  4  2  0
  6  7  1  0
  7 12  2  0
  7  8  1  0
  8  9  2  0
  9 10  1  0
 11 10  2  0
 12 11  1  0
 13 19  1  0
 14 13  2  0
 16 15  1  1
 16 17  1  0
 18 16  1  0
 18 19  1  1
 20 18  1  0
 21 20  2  0
 22 20  1  0
 23 22  1  0
 23 26  1  0
 24 25  1  0
 23 24  1  1
 26 28  1  0
 27 26  2  0
M  END
$$$$
