DWR.pdb
     RDKit          3D

 34 35  0  0  1  0  0  0  0  0999 V2000
   24.8422  -22.6173  -16.3099 N   0  0  0  0  0  0  0  0  0  0  0  0
   25.2740  -21.9811  -15.1023 C   0  0  1  0  0  0  0  0  0  0  0  0
   26.3035  -20.9380  -15.3618 C   0  0  0  0  0  0  0  0  0  0  0  0
   27.5137  -21.4314  -16.0288 C   0  0  0  0  0  0  0  0  0  0  0  0
   27.6913  -22.6288  -16.4035 O   0  0  0  0  0  0  0  0  0  0  0  0
   24.1048  -21.3700  -14.3736 C   0  0  0  0  0  0  0  0  0  0  0  0
   24.2557  -20.7383  -13.3004 O   0  0  0  0  0  0  0  0  0  0  0  0
   28.5474  -20.5393  -16.2744 O   0  0  0  0  0  0  0  0  0  0  0  0
   22.7844  -21.4923  -14.8860 N   0  0  0  0  0  0  0  0  0  0  0  0
   21.5829  -21.0855  -14.2340 C   0  0  1  0  0  0  0  0  0  0  0  0
   20.8514  -19.9586  -14.8690 C   0  0  0  0  0  0  0  0  0  0  0  0
   21.4779  -18.6314  -14.7169 C   0  0  0  0  0  0  0  0  0  0  0  0
   22.6650  -18.2103  -15.2770 C   0  0  0  0  0  0  0  0  0  0  0  0
   22.8990  -16.9381  -14.9252 N   0  0  0  0  0  0  0  0  0  0  0  0
   21.9006  -16.4959  -14.1445 C   0  0  0  0  0  0  0  0  0  0  0  0
   21.7099  -15.2653  -13.5440 C   0  0  0  0  0  0  0  0  0  0  0  0
   20.5860  -15.0648  -12.7740 C   0  0  0  0  0  0  0  0  0  0  0  0
   19.6900  -16.1039  -12.6317 C   0  0  0  0  0  0  0  0  0  0  0  0
   19.8806  -17.3268  -13.2289 C   0  0  0  0  0  0  0  0  0  0  0  0
   21.0098  -17.5413  -14.0066 C   0  0  0  0  0  0  0  0  0  0  0  0
   20.6569  -22.2642  -14.0389 C   0  0  0  0  0  0  0  0  0  0  0  0
   20.4019  -22.9619  -15.0496 O   0  0  0  0  0  0  0  0  0  0  0  0
   18.8495  -26.3648   -6.8775 N   0  0  0  0  0  0  0  0  0  0  0  0
   18.2678  -25.1565   -7.3260 C   0  0  0  0  0  0  0  0  0  0  0  0
   17.8863  -24.2153   -6.5226 N   0  0  0  0  0  0  0  0  0  0  0  0
   18.0997  -24.9758   -8.7317 N   0  0  0  0  0  0  0  0  0  0  0  0
   18.5607  -25.9719   -9.6920 C   0  0  0  0  0  0  0  0  0  0  0  0
   18.3334  -25.4769  -11.0974 C   0  0  0  0  0  0  0  0  0  0  0  0
   19.2115  -24.2801  -11.3394 C   0  0  0  0  0  0  0  0  0  0  0  0
   19.1900  -23.7673  -12.7484 C   0  0  2  0  0  0  0  0  0  0  0  0
   20.0843  -22.6017  -12.8035 N   0  0  0  0  0  0  0  0  0  0  0  0
   17.8246  -23.3747  -13.2031 C   0  0  0  0  0  0  0  0  0  0  0  0
   17.0310  -24.1486  -14.0241 O   0  0  0  0  0  0  0  0  0  0  0  0
   17.3284  -22.2594  -12.8269 O   0  0  0  0  0  0  0  0  0  0  0  0
  2  1  1  6
  2  3  1  0
  4  3  1  0
  4  8  1  0
  5  4  2  0
  6  7  2  0
  6  2  1  0
  9  6  1  0
 10  9  1  0
 11 12  1  0
 10 11  1  6
 12 13  2  0
 12 20  1  0
 13 14  1  0
 14 15  1  0
 15 16  2  0
 16 17  1  0
 18 17  2  0
 19 18  1  0
 20 19  2  0
 20 15  1  0
 21 10  1  0
 22 21  2  0
 23 24  1  0
 24 25  2  0
 26 24  1  0
 26 27  1  0
 27 28  1  0
 28 29  1  0
 30 29  1  1
 30 31  1  0
 31 21  1  0
 32 30  1  0
 33 32  1  0
 34 32  2  0
M  END
$$$$
