DWR.pdb
     RDKit          3D

 34 35  0  0  1  0  0  0  0  0999 V2000
   27.4455  -23.1453  -18.6130 N   0  0  0  0  0  0  0  0  0  0  0  0
   28.5142  -23.4935  -17.7264 C   0  0  1  0  0  0  0  0  0  0  0  0
   29.7978  -22.8550  -18.1265 C   0  0  0  0  0  0  0  0  0  0  0  0
   30.8394  -23.7977  -18.5501 C   0  0  0  0  0  0  0  0  0  0  0  0
   30.6600  -25.0411  -18.7160 O   0  0  0  0  0  0  0  0  0  0  0  0
   28.1774  -23.1105  -16.3082 C   0  0  0  0  0  0  0  0  0  0  0  0
   28.9823  -23.3036  -15.3657 O   0  0  0  0  0  0  0  0  0  0  0  0
   32.1168  -23.3126  -18.7897 O   0  0  0  0  0  0  0  0  0  0  0  0
   26.9261  -22.5133  -15.9942 N   0  0  0  0  0  0  0  0  0  0  0  0
   26.7265  -21.2554  -15.3521 C   0  0  1  0  0  0  0  0  0  0  0  0
   27.5064  -20.1166  -15.9025 C   0  0  0  0  0  0  0  0  0  0  0  0
   27.1407  -18.7867  -15.3786 C   0  0  0  0  0  0  0  0  0  0  0  0
   26.5743  -18.5100  -14.1526 C   0  0  0  0  0  0  0  0  0  0  0  0
   26.4017  -17.1865  -14.0282 N   0  0  0  0  0  0  0  0  0  0  0  0
   26.8373  -16.5693  -15.1378 C   0  0  0  0  0  0  0  0  0  0  0  0
   26.8585  -15.2268  -15.4672 C   0  0  0  0  0  0  0  0  0  0  0  0
   27.3602  -14.8475  -16.6923 C   0  0  0  0  0  0  0  0  0  0  0  0
   27.8246  -15.8260  -17.5464 C   0  0  0  0  0  0  0  0  0  0  0  0
   27.8029  -17.1602  -17.2180 C   0  0  0  0  0  0  0  0  0  0  0  0
   27.2990  -17.5550  -15.9867 C   0  0  0  0  0  0  0  0  0  0  0  0
   25.2563  -20.9071  -15.3071 C   0  0  0  0  0  0  0  0  0  0  0  0
   24.7592  -20.3991  -16.3407 O   0  0  0  0  0  0  0  0  0  0  0  0
   17.9515  -23.5621  -12.3523 N   0  0  0  0  0  0  0  0  0  0  0  0
   19.0212  -24.4582  -12.1234 C   0  0  0  0  0  0  0  0  0  0  0  0
   18.8807  -25.7454  -12.1420 N   0  0  0  0  0  0  0  0  0  0  0  0
   20.3118  -23.9075  -11.8625 N   0  0  0  0  0  0  0  0  0  0  0  0
   20.5403  -22.4672  -11.8462 C   0  0  0  0  0  0  0  0  0  0  0  0
   21.0220  -22.0064  -13.1980 C   0  0  0  0  0  0  0  0  0  0  0  0
   22.3565  -21.3323  -13.0349 C   0  0  0  0  0  0  0  0  0  0  0  0
   22.9974  -20.9016  -14.3205 C   0  0  2  0  0  0  0  0  0  0  0  0
   24.4443  -21.1232  -14.1838 N   0  0  0  0  0  0  0  0  0  0  0  0
   22.7373  -19.4697  -14.6481 C   0  0  0  0  0  0  0  0  0  0  0  0
   21.7810  -19.0436  -15.5462 O   0  0  0  0  0  0  0  0  0  0  0  0
   23.4243  -18.5553  -14.0792 O   0  0  0  0  0  0  0  0  0  0  0  0
  2  1  1  6
  2  3  1  0
  4  3  1  0
  4  8  1  0
  5  4  2  0
  6  7  2  0
  6  2  1  0
  9  6  1  0
 10  9  1  0
 11 12  1  0
 10 11  1  6
 12 13  2  0
 12 20  1  0
 13 14  1  0
 14 15  1  0
 15 16  2  0
 16 17  1  0
 18 17  2  0
 19 18  1  0
 20 19  2  0
 20 15  1  0
 21 10  1  0
 22 21  2  0
 23 24  1  0
 24 25  2  0
 26 24  1  0
 26 27  1  0
 27 28  1  0
 28 29  1  0
 30 29  1  1
 30 31  1  0
 31 21  1  0
 32 30  1  0
 33 32  1  0
 34 32  2  0
M  END
$$$$
