DWR.pdb
     RDKit          3D

 34 35  0  0  1  0  0  0  0  0999 V2000
   27.8575  -23.1103  -15.8743 N   0  0  0  0  0  0  0  0  0  0  0  0
   26.9517  -22.0188  -15.6807 C   0  0  1  0  0  0  0  0  0  0  0  0
   26.0236  -21.8564  -16.8329 C   0  0  0  0  0  0  0  0  0  0  0  0
   26.6724  -21.4416  -18.0820 C   0  0  0  0  0  0  0  0  0  0  0  0
   27.4956  -20.4835  -18.1813 O   0  0  0  0  0  0  0  0  0  0  0  0
   26.1586  -22.2020  -14.4123 C   0  0  0  0  0  0  0  0  0  0  0  0
   25.6233  -23.2990  -14.1237 O   0  0  0  0  0  0  0  0  0  0  0  0
   26.3756  -22.1345  -19.2466 O   0  0  0  0  0  0  0  0  0  0  0  0
   25.9927  -21.1269  -13.4970 N   0  0  0  0  0  0  0  0  0  0  0  0
   25.3156  -21.1804  -12.2428 C   0  0  1  0  0  0  0  0  0  0  0  0
   25.8265  -20.2627  -11.1917 C   0  0  0  0  0  0  0  0  0  0  0  0
   27.0571  -20.7051  -10.5084 C   0  0  0  0  0  0  0  0  0  0  0  0
   28.1409  -21.3326  -11.0848 C   0  0  0  0  0  0  0  0  0  0  0  0
   29.0724  -21.5654  -10.1493 N   0  0  0  0  0  0  0  0  0  0  0  0
   28.6416  -21.1108   -8.9620 C   0  0  0  0  0  0  0  0  0  0  0  0
   29.2486  -21.1325   -7.7200 C   0  0  0  0  0  0  0  0  0  0  0  0
   28.5812  -20.5971   -6.6410 C   0  0  0  0  0  0  0  0  0  0  0  0
   27.3279  -20.0573   -6.8423 C   0  0  0  0  0  0  0  0  0  0  0  0
   26.7254  -20.0365   -8.0773 C   0  0  0  0  0  0  0  0  0  0  0  0
   27.3876  -20.5737   -9.1722 C   0  0  0  0  0  0  0  0  0  0  0  0
   23.8290  -20.9821  -12.4306 C   0  0  0  0  0  0  0  0  0  0  0  0
   23.4705  -20.1179  -13.2660 O   0  0  0  0  0  0  0  0  0  0  0  0
   19.2474  -24.6977   -7.0733 N   0  0  0  0  0  0  0  0  0  0  0  0
   18.2692  -24.6767   -8.0942 C   0  0  0  0  0  0  0  0  0  0  0  0
   17.2248  -25.4422   -8.0877 N   0  0  0  0  0  0  0  0  0  0  0  0
   18.4506  -23.7642   -9.1765 N   0  0  0  0  0  0  0  0  0  0  0  0
   19.5320  -22.7856   -9.1796 C   0  0  0  0  0  0  0  0  0  0  0  0
   19.5163  -22.0041  -10.4683 C   0  0  0  0  0  0  0  0  0  0  0  0
   20.6305  -22.4976  -11.3498 C   0  0  0  0  0  0  0  0  0  0  0  0
   21.4416  -21.4129  -11.9935 C   0  0  2  0  0  0  0  0  0  0  0  0
   22.8569  -21.7072  -11.7256 N   0  0  0  0  0  0  0  0  0  0  0  0
   21.1053  -20.0533  -11.4798 C   0  0  0  0  0  0  0  0  0  0  0  0
   21.9239  -19.3167  -10.6491 O   0  0  0  0  0  0  0  0  0  0  0  0
   19.9990  -19.5073  -11.8107 O   0  0  0  0  0  0  0  0  0  0  0  0
  2  1  1  6
  2  3  1  0
  4  3  1  0
  4  8  1  0
  5  4  2  0
  6  7  2  0
  6  2  1  0
  9  6  1  0
 10  9  1  0
 11 12  1  0
 10 11  1  1
 12 13  2  0
 12 20  1  0
 13 14  1  0
 14 15  1  0
 15 16  2  0
 16 17  1  0
 18 17  2  0
 19 18  1  0
 20 19  2  0
 20 15  1  0
 21 10  1  0
 22 21  2  0
 23 24  1  0
 24 25  2  0
 26 24  1  0
 26 27  1  0
 27 28  1  0
 28 29  1  0
 30 29  1  1
 30 31  1  0
 31 21  1  0
 32 30  1  0
 33 32  1  0
 34 32  2  0
M  END
$$$$
