DWR.pdb
     RDKit          3D

 34 35  0  0  1  0  0  0  0  0999 V2000
   28.9617  -21.4206  -13.5503 N   0  0  0  0  0  0  0  0  0  0  0  0
   27.7217  -20.7285  -13.7315 C   0  0  1  0  0  0  0  0  0  0  0  0
   27.1204  -21.0065  -15.0644 C   0  0  0  0  0  0  0  0  0  0  0  0
   27.9657  -20.6294  -16.2029 C   0  0  0  0  0  0  0  0  0  0  0  0
   28.8571  -19.7295  -16.1702 O   0  0  0  0  0  0  0  0  0  0  0  0
   26.7422  -21.0954  -12.6464 C   0  0  0  0  0  0  0  0  0  0  0  0
   25.8611  -21.9704  -12.8238 O   0  0  0  0  0  0  0  0  0  0  0  0
   27.7908  -21.2931  -17.4086 O   0  0  0  0  0  0  0  0  0  0  0  0
   26.7888  -20.4549  -11.3782 N   0  0  0  0  0  0  0  0  0  0  0  0
   25.8579  -20.6231  -10.3108 C   0  0  1  0  0  0  0  0  0  0  0  0
   26.2205  -19.9694   -9.0265 C   0  0  0  0  0  0  0  0  0  0  0  0
   27.5577  -20.3050   -8.5007 C   0  0  0  0  0  0  0  0  0  0  0  0
   28.5262  -21.0583   -9.1290 C   0  0  0  0  0  0  0  0  0  0  0  0
   29.6124  -21.1326   -8.3468 N   0  0  0  0  0  0  0  0  0  0  0  0
   29.3973  -20.4492   -7.2117 C   0  0  0  0  0  0  0  0  0  0  0  0
   30.2172  -20.2494   -6.1166 C   0  0  0  0  0  0  0  0  0  0  0  0
   29.7492  -19.5014   -5.0593 C   0  0  0  0  0  0  0  0  0  0  0  0
   28.4752  -18.9779   -5.1347 C   0  0  0  0  0  0  0  0  0  0  0  0
   27.6610  -19.1773   -6.2236 C   0  0  0  0  0  0  0  0  0  0  0  0
   28.1211  -19.9300   -7.2949 C   0  0  0  0  0  0  0  0  0  0  0  0
   24.4724  -20.1973  -10.7395 C   0  0  0  0  0  0  0  0  0  0  0  0
   24.3949  -19.2441  -11.5511 O   0  0  0  0  0  0  0  0  0  0  0  0
   21.8349  -23.0457  -16.9604 N   0  0  0  0  0  0  0  0  0  0  0  0
   21.2765  -23.9100  -15.9905 C   0  0  0  0  0  0  0  0  0  0  0  0
   20.6817  -25.0200  -16.2923 N   0  0  0  0  0  0  0  0  0  0  0  0
   21.3805  -23.5325  -14.6181 N   0  0  0  0  0  0  0  0  0  0  0  0
   22.1129  -22.3407  -14.2055 C   0  0  0  0  0  0  0  0  0  0  0  0
   22.0453  -22.1869  -12.7077 C   0  0  0  0  0  0  0  0  0  0  0  0
   22.1306  -20.7251  -12.3645 C   0  0  0  0  0  0  0  0  0  0  0  0
   22.0229  -20.4224  -10.8997 C   0  0  2  0  0  0  0  0  0  0  0  0
   23.2977  -20.8096  -10.2780 N   0  0  0  0  0  0  0  0  0  0  0  0
   20.9003  -21.1480  -10.2375 C   0  0  0  0  0  0  0  0  0  0  0  0
   21.0709  -22.1587   -9.3144 O   0  0  0  0  0  0  0  0  0  0  0  0
   19.6933  -20.8389  -10.5191 O   0  0  0  0  0  0  0  0  0  0  0  0
  2  1  1  1
  2  3  1  0
  4  3  1  0
  4  8  1  0
  5  4  2  0
  6  7  2  0
  6  2  1  0
  9  6  1  0
 10  9  1  0
 11 12  1  0
 10 11  1  1
 12 13  2  0
 12 20  1  0
 13 14  1  0
 14 15  1  0
 15 16  2  0
 16 17  1  0
 18 17  2  0
 19 18  1  0
 20 19  2  0
 20 15  1  0
 21 10  1  0
 22 21  2  0
 23 24  1  0
 24 25  2  0
 26 24  1  0
 26 27  1  0
 27 28  1  0
 28 29  1  0
 30 29  1  6
 30 31  1  0
 31 21  1  0
 32 30  1  0
 33 32  1  0
 34 32  2  0
M  END
$$$$
