DWR.pdb
     RDKit          3D

 34 35  0  0  1  0  0  0  0  0999 V2000
   28.1094  -22.7246  -17.1716 N   0  0  0  0  0  0  0  0  0  0  0  0
   27.8834  -21.4829  -16.4959 C   0  0  1  0  0  0  0  0  0  0  0  0
   27.1011  -20.5308  -17.3307 C   0  0  0  0  0  0  0  0  0  0  0  0
   27.9013  -19.7727  -18.2992 C   0  0  0  0  0  0  0  0  0  0  0  0
   29.1243  -19.9902  -18.5490 O   0  0  0  0  0  0  0  0  0  0  0  0
   27.1742  -21.7098  -15.1855 C   0  0  0  0  0  0  0  0  0  0  0  0
   26.4568  -22.7204  -14.9920 O   0  0  0  0  0  0  0  0  0  0  0  0
   27.2937  -18.7409  -18.9998 O   0  0  0  0  0  0  0  0  0  0  0  0
   27.2990  -20.7766  -14.1203 N   0  0  0  0  0  0  0  0  0  0  0  0
   26.7554  -20.9123  -12.8087 C   0  0  1  0  0  0  0  0  0  0  0  0
   27.3698  -20.0555  -11.7616 C   0  0  0  0  0  0  0  0  0  0  0  0
   26.7883  -20.1897  -10.4121 C   0  0  0  0  0  0  0  0  0  0  0  0
   25.4482  -20.2199  -10.0903 C   0  0  0  0  0  0  0  0  0  0  0  0
   25.3097  -20.3680   -8.7653 N   0  0  0  0  0  0  0  0  0  0  0  0
   26.5209  -20.4379   -8.1910 C   0  0  0  0  0  0  0  0  0  0  0  0
   26.8762  -20.5838   -6.8629 C   0  0  0  0  0  0  0  0  0  0  0  0
   28.2117  -20.6217   -6.5290 C   0  0  0  0  0  0  0  0  0  0  0  0
   29.1469  -20.5127   -7.5371 C   0  0  0  0  0  0  0  0  0  0  0  0
   28.7926  -20.3675   -8.8569 C   0  0  0  0  0  0  0  0  0  0  0  0
   27.4500  -20.3271   -9.2058 C   0  0  0  0  0  0  0  0  0  0  0  0
   25.2568  -20.7162  -12.8297 C   0  0  0  0  0  0  0  0  0  0  0  0
   24.8330  -19.6056  -13.2303 O   0  0  0  0  0  0  0  0  0  0  0  0
   19.6495  -26.6303  -14.5945 N   0  0  0  0  0  0  0  0  0  0  0  0
   18.9452  -25.4486  -14.9219 C   0  0  0  0  0  0  0  0  0  0  0  0
   17.8332  -25.4500  -15.5856 N   0  0  0  0  0  0  0  0  0  0  0  0
   19.4936  -24.2022  -14.4945 N   0  0  0  0  0  0  0  0  0  0  0  0
   20.7340  -24.1335  -13.7307 C   0  0  0  0  0  0  0  0  0  0  0  0
   20.8357  -22.8022  -13.0314 C   0  0  0  0  0  0  0  0  0  0  0  0
   22.1745  -22.7105  -12.3524 C   0  0  0  0  0  0  0  0  0  0  0  0
   22.9076  -21.4246  -12.5932 C   0  0  2  0  0  0  0  0  0  0  0  0
   24.3422  -21.7015  -12.4291 N   0  0  0  0  0  0  0  0  0  0  0  0
   22.4958  -20.3372  -11.6588 C   0  0  0  0  0  0  0  0  0  0  0  0
   21.5791  -19.3551  -11.9718 O   0  0  0  0  0  0  0  0  0  0  0  0
   23.0034  -20.2827  -10.4879 O   0  0  0  0  0  0  0  0  0  0  0  0
  2  1  1  6
  2  3  1  0
  4  3  1  0
  4  8  1  0
  5  4  2  0
  6  7  2  0
  6  2  1  0
  9  6  1  0
 10  9  1  0
 11 12  1  0
 10 11  1  1
 12 13  2  0
 12 20  1  0
 13 14  1  0
 14 15  1  0
 15 16  2  0
 16 17  1  0
 18 17  2  0
 19 18  1  0
 20 19  2  0
 20 15  1  0
 21 10  1  0
 22 21  2  0
 23 24  1  0
 24 25  2  0
 26 24  1  0
 26 27  1  0
 27 28  1  0
 28 29  1  0
 30 29  1  1
 30 31  1  0
 31 21  1  0
 32 30  1  0
 33 32  1  0
 34 32  2  0
M  END
$$$$
