DWR.pdb
     RDKit          3D

 34 35  0  0  1  0  0  0  0  0999 V2000
   27.8212  -23.0471  -16.8464 N   0  0  0  0  0  0  0  0  0  0  0  0
   27.3860  -21.7769  -16.3498 C   0  0  1  0  0  0  0  0  0  0  0  0
   26.6417  -21.0031  -17.3806 C   0  0  0  0  0  0  0  0  0  0  0  0
   27.4456  -20.6103  -18.5436 C   0  0  0  0  0  0  0  0  0  0  0  0
   28.6279  -20.1587  -18.4814 O   0  0  0  0  0  0  0  0  0  0  0  0
   26.5250  -21.9492  -15.1248 C   0  0  0  0  0  0  0  0  0  0  0  0
   26.0715  -23.0704  -14.7919 O   0  0  0  0  0  0  0  0  0  0  0  0
   26.8889  -20.7339  -19.8082 O   0  0  0  0  0  0  0  0  0  0  0  0
   26.1989  -20.8360  -14.3030 N   0  0  0  0  0  0  0  0  0  0  0  0
   25.3892  -20.8595  -13.1291 C   0  0  1  0  0  0  0  0  0  0  0  0
   25.8034  -19.9391  -12.0385 C   0  0  0  0  0  0  0  0  0  0  0  0
   26.9346  -20.4039  -11.2131 C   0  0  0  0  0  0  0  0  0  0  0  0
   28.1776  -20.7960  -11.6624 C   0  0  0  0  0  0  0  0  0  0  0  0
   28.9440  -21.1368  -10.6167 N   0  0  0  0  0  0  0  0  0  0  0  0
   28.2479  -20.9835   -9.4793 C   0  0  0  0  0  0  0  0  0  0  0  0
   28.6145  -21.2124   -8.1661 C   0  0  0  0  0  0  0  0  0  0  0  0
   27.6972  -20.9788   -7.1660 C   0  0  0  0  0  0  0  0  0  0  0  0
   26.4429  -20.5231   -7.5149 C   0  0  0  0  0  0  0  0  0  0  0  0
   26.0794  -20.2960   -8.8205 C   0  0  0  0  0  0  0  0  0  0  0  0
   26.9948  -20.5285   -9.8373 C   0  0  0  0  0  0  0  0  0  0  0  0
   23.9362  -20.6331  -13.4788 C   0  0  0  0  0  0  0  0  0  0  0  0
   23.6793  -19.6864  -14.2606 O   0  0  0  0  0  0  0  0  0  0  0  0
   17.0374  -23.6117  -10.8186 N   0  0  0  0  0  0  0  0  0  0  0  0
   17.7018  -24.6823  -11.4605 C   0  0  0  0  0  0  0  0  0  0  0  0
   17.0846  -25.7264  -11.9142 N   0  0  0  0  0  0  0  0  0  0  0  0
   19.1184  -24.5968  -11.6114 N   0  0  0  0  0  0  0  0  0  0  0  0
   19.8524  -23.3829  -11.2727 C   0  0  0  0  0  0  0  0  0  0  0  0
   19.5862  -22.3152  -12.3026 C   0  0  0  0  0  0  0  0  0  0  0  0
   20.7002  -22.3256  -13.3130 C   0  0  0  0  0  0  0  0  0  0  0  0
   21.5126  -21.0659  -13.3565 C   0  0  2  0  0  0  0  0  0  0  0  0
   22.8883  -21.4191  -12.9769 N   0  0  0  0  0  0  0  0  0  0  0  0
   20.9946  -20.0085  -12.4406 C   0  0  0  0  0  0  0  0  0  0  0  0
   19.8343  -19.2957  -12.6608 O   0  0  0  0  0  0  0  0  0  0  0  0
   21.6404  -19.7205  -11.3769 O   0  0  0  0  0  0  0  0  0  0  0  0
  2  1  1  6
  2  3  1  0
  4  3  1  0
  4  8  1  0
  5  4  2  0
  6  7  2  0
  6  2  1  0
  9  6  1  0
 10  9  1  0
 11 12  1  0
 10 11  1  1
 12 13  2  0
 12 20  1  0
 13 14  1  0
 14 15  1  0
 15 16  2  0
 16 17  1  0
 18 17  2  0
 19 18  1  0
 20 19  2  0
 20 15  1  0
 21 10  1  0
 22 21  2  0
 23 24  1  0
 24 25  2  0
 26 24  1  0
 26 27  1  0
 27 28  1  0
 28 29  1  0
 30 29  1  1
 30 31  1  0
 31 21  1  0
 32 30  1  0
 33 32  1  0
 34 32  2  0
M  END
$$$$
