DWR.pdb
     RDKit          3D

 34 35  0  0  1  0  0  0  0  0999 V2000
   26.9602  -22.1377  -15.1949 N   0  0  0  0  0  0  0  0  0  0  0  0
   25.8913  -21.3142  -14.7165 C   0  0  1  0  0  0  0  0  0  0  0  0
   24.6943  -21.3909  -15.5976 C   0  0  0  0  0  0  0  0  0  0  0  0
   24.8623  -20.7520  -16.9078 C   0  0  0  0  0  0  0  0  0  0  0  0
   25.9508  -20.2653  -17.3366 O   0  0  0  0  0  0  0  0  0  0  0  0
   25.5110  -21.6976  -13.3094 C   0  0  0  0  0  0  0  0  0  0  0  0
   25.3093  -22.8923  -12.9846 O   0  0  0  0  0  0  0  0  0  0  0  0
   23.7634  -20.6647  -17.7501 O   0  0  0  0  0  0  0  0  0  0  0  0
   25.3687  -20.7072  -12.2995 N   0  0  0  0  0  0  0  0  0  0  0  0
   25.0368  -20.9358  -10.9313 C   0  0  1  0  0  0  0  0  0  0  0  0
   25.6325  -19.9885   -9.9537 C   0  0  0  0  0  0  0  0  0  0  0  0
   26.9686  -20.3575   -9.4479 C   0  0  0  0  0  0  0  0  0  0  0  0
   27.9129  -21.1252  -10.0954 C   0  0  0  0  0  0  0  0  0  0  0  0
   29.0068  -21.2300   -9.3278 N   0  0  0  0  0  0  0  0  0  0  0  0
   28.8207  -20.5531   -8.1837 C   0  0  0  0  0  0  0  0  0  0  0  0
   29.6583  -20.3813   -7.0973 C   0  0  0  0  0  0  0  0  0  0  0  0
   29.2196  -19.6336   -6.0274 C   0  0  0  0  0  0  0  0  0  0  0  0
   27.9563  -19.0823   -6.0817 C   0  0  0  0  0  0  0  0  0  0  0  0
   27.1245  -19.2539   -7.1620 C   0  0  0  0  0  0  0  0  0  0  0  0
   27.5549  -20.0060   -8.2460 C   0  0  0  0  0  0  0  0  0  0  0  0
   23.5375  -20.9982  -10.7496 C   0  0  0  0  0  0  0  0  0  0  0  0
   22.8407  -20.2917  -11.5168 O   0  0  0  0  0  0  0  0  0  0  0  0
   16.6295  -24.1505   -7.7490 N   0  0  0  0  0  0  0  0  0  0  0  0
   17.5517  -24.9691   -7.0568 C   0  0  0  0  0  0  0  0  0  0  0  0
   17.2876  -26.1858   -6.7008 N   0  0  0  0  0  0  0  0  0  0  0  0
   18.8306  -24.4190   -6.7426 N   0  0  0  0  0  0  0  0  0  0  0  0
   19.1838  -23.0500   -7.1003 C   0  0  0  0  0  0  0  0  0  0  0  0
   19.5382  -22.9747   -8.5634 C   0  0  0  0  0  0  0  0  0  0  0  0
   21.0254  -22.7931   -8.6948 C   0  0  0  0  0  0  0  0  0  0  0  0
   21.4401  -21.7697   -9.7095 C   0  0  2  0  0  0  0  0  0  0  0  0
   22.9083  -21.7946   -9.7812 N   0  0  0  0  0  0  0  0  0  0  0  0
   20.9771  -20.3931   -9.3689 C   0  0  0  0  0  0  0  0  0  0  0  0
   21.7962  -19.4051   -8.8631 O   0  0  0  0  0  0  0  0  0  0  0  0
   19.7525  -20.0754   -9.5451 O   0  0  0  0  0  0  0  0  0  0  0  0
  2  1  1  6
  2  3  1  0
  4  3  1  0
  4  8  1  0
  5  4  2  0
  6  7  2  0
  6  2  1  0
  9  6  1  0
 10  9  1  0
 11 12  1  0
 10 11  1  1
 12 13  2  0
 12 20  1  0
 13 14  1  0
 14 15  1  0
 15 16  2  0
 16 17  1  0
 18 17  2  0
 19 18  1  0
 20 19  2  0
 20 15  1  0
 21 10  1  0
 22 21  2  0
 23 24  1  0
 24 25  2  0
 26 24  1  0
 26 27  1  0
 27 28  1  0
 28 29  1  0
 30 29  1  1
 30 31  1  0
 31 21  1  0
 32 30  1  0
 33 32  1  0
 34 32  2  0
M  END
$$$$
