DWR.pdb
     RDKit          3D

 34 35  0  0  1  0  0  0  0  0999 V2000
   26.8411  -25.3434  -16.2350 N   0  0  0  0  0  0  0  0  0  0  0  0
   26.0674  -24.1412  -16.3100 C   0  0  1  0  0  0  0  0  0  0  0  0
   24.8277  -24.3279  -17.1123 C   0  0  0  0  0  0  0  0  0  0  0  0
   25.0592  -24.5689  -18.5411 C   0  0  0  0  0  0  0  0  0  0  0  0
   26.1389  -24.3050  -19.1495 O   0  0  0  0  0  0  0  0  0  0  0  0
   25.7099  -23.6498  -14.9308 C   0  0  0  0  0  0  0  0  0  0  0  0
   25.4107  -24.4434  -14.0066 O   0  0  0  0  0  0  0  0  0  0  0  0
   24.0355  -25.1233  -19.2956 O   0  0  0  0  0  0  0  0  0  0  0  0
   25.7016  -22.2595  -14.6340 N   0  0  0  0  0  0  0  0  0  0  0  0
   25.3944  -21.6652  -13.3743 C   0  0  1  0  0  0  0  0  0  0  0  0
   26.1276  -20.4133  -13.0532 C   0  0  0  0  0  0  0  0  0  0  0  0
   27.1869  -20.5436  -12.0344 C   0  0  0  0  0  0  0  0  0  0  0  0
   28.5325  -20.7369  -12.2632 C   0  0  0  0  0  0  0  0  0  0  0  0
   29.1821  -20.7910  -11.0919 N   0  0  0  0  0  0  0  0  0  0  0  0
   28.3078  -20.6390  -10.0847 C   0  0  0  0  0  0  0  0  0  0  0  0
   28.5087  -20.6297   -8.7169 C   0  0  0  0  0  0  0  0  0  0  0  0
   27.4255  -20.4597   -7.8838 C   0  0  0  0  0  0  0  0  0  0  0  0
   26.1769  -20.3041   -8.4489 C   0  0  0  0  0  0  0  0  0  0  0  0
   25.9782  -20.3137   -9.8087 C   0  0  0  0  0  0  0  0  0  0  0  0
   27.0619  -20.4850  -10.6586 C   0  0  0  0  0  0  0  0  0  0  0  0
   23.9050  -21.4470  -13.2368 C   0  0  0  0  0  0  0  0  0  0  0  0
   23.2891  -21.0602  -14.2587 O   0  0  0  0  0  0  0  0  0  0  0  0
   18.4429  -25.0167   -7.6595 N   0  0  0  0  0  0  0  0  0  0  0  0
   17.8695  -25.0261   -8.9521 C   0  0  0  0  0  0  0  0  0  0  0  0
   16.9377  -25.8529   -9.3056 N   0  0  0  0  0  0  0  0  0  0  0  0
   18.3463  -24.0744   -9.9028 N   0  0  0  0  0  0  0  0  0  0  0  0
   19.3087  -23.0419   -9.5357 C   0  0  0  0  0  0  0  0  0  0  0  0
   19.7033  -22.2483  -10.7548 C   0  0  0  0  0  0  0  0  0  0  0  0
   21.1944  -22.3364  -10.9307 C   0  0  0  0  0  0  0  0  0  0  0  0
   21.7360  -21.5227  -12.0680 C   0  0  2  0  0  0  0  0  0  0  0  0
   23.2001  -21.6541  -12.0418 N   0  0  0  0  0  0  0  0  0  0  0  0
   21.3594  -20.0818  -11.9826 C   0  0  0  0  0  0  0  0  0  0  0  0
   20.1461  -19.5741  -12.3984 O   0  0  0  0  0  0  0  0  0  0  0  0
   22.1880  -19.2386  -11.4989 O   0  0  0  0  0  0  0  0  0  0  0  0
  2  1  1  1
  2  3  1  0
  4  3  1  0
  4  8  1  0
  5  4  2  0
  6  7  2  0
  6  2  1  0
  9  6  1  0
 10  9  1  0
 11 12  1  0
 10 11  1  6
 12 13  2  0
 12 20  1  0
 13 14  1  0
 14 15  1  0
 15 16  2  0
 16 17  1  0
 18 17  2  0
 19 18  1  0
 20 19  2  0
 20 15  1  0
 21 10  1  0
 22 21  2  0
 23 24  1  0
 24 25  2  0
 26 24  1  0
 26 27  1  0
 27 28  1  0
 28 29  1  0
 30 29  1  1
 30 31  1  0
 31 21  1  0
 32 30  1  0
 33 32  1  0
 34 32  2  0
M  END
$$$$
