DWR.pdb
     RDKit          3D

 34 35  0  0  1  0  0  0  0  0999 V2000
   29.1000  -21.7747  -14.3970 N   0  0  0  0  0  0  0  0  0  0  0  0
   28.2564  -20.6984  -13.9732 C   0  0  1  0  0  0  0  0  0  0  0  0
   27.5362  -20.0743  -15.1165 C   0  0  0  0  0  0  0  0  0  0  0  0
   28.4094  -19.4488  -16.1161 C   0  0  0  0  0  0  0  0  0  0  0  0
   29.2000  -18.4872  -15.8798 O   0  0  0  0  0  0  0  0  0  0  0  0
   27.2617  -21.1730  -12.9452 C   0  0  0  0  0  0  0  0  0  0  0  0
   26.6109  -22.2341  -13.1001 O   0  0  0  0  0  0  0  0  0  0  0  0
   28.3808  -19.9296  -17.4171 O   0  0  0  0  0  0  0  0  0  0  0  0
   27.0301  -20.4252  -11.7585 N   0  0  0  0  0  0  0  0  0  0  0  0
   26.0371  -20.6929  -10.7703 C   0  0  1  0  0  0  0  0  0  0  0  0
   26.2715  -20.0834   -9.4355 C   0  0  0  0  0  0  0  0  0  0  0  0
   27.5129  -20.5027   -8.7572 C   0  0  0  0  0  0  0  0  0  0  0  0
   28.5109  -21.2971   -9.2799 C   0  0  0  0  0  0  0  0  0  0  0  0
   29.4856  -21.4462   -8.3717 N   0  0  0  0  0  0  0  0  0  0  0  0
   29.1672  -20.7730   -7.2549 C   0  0  0  0  0  0  0  0  0  0  0  0
   29.8536  -20.6395   -6.0622 C   0  0  0  0  0  0  0  0  0  0  0  0
   29.2977  -19.8863   -5.0523 C   0  0  0  0  0  0  0  0  0  0  0  0
   28.0726  -19.2913   -5.2712 C   0  0  0  0  0  0  0  0  0  0  0  0
   27.3911  -19.4248   -6.4570 C   0  0  0  0  0  0  0  0  0  0  0  0
   27.9406  -20.1820   -7.4819 C   0  0  0  0  0  0  0  0  0  0  0  0
   24.6637  -20.3201  -11.2798 C   0  0  0  0  0  0  0  0  0  0  0  0
   24.5753  -19.2740  -11.9662 O   0  0  0  0  0  0  0  0  0  0  0  0
   24.3793  -25.2956  -14.6807 N   0  0  0  0  0  0  0  0  0  0  0  0
   22.9976  -25.2544  -14.9784 C   0  0  0  0  0  0  0  0  0  0  0  0
   22.2599  -26.3158  -15.0567 N   0  0  0  0  0  0  0  0  0  0  0  0
   22.3981  -23.9782  -15.1994 N   0  0  0  0  0  0  0  0  0  0  0  0
   23.0879  -22.7392  -14.8586 C   0  0  0  0  0  0  0  0  0  0  0  0
   22.9840  -22.4821  -13.3771 C   0  0  0  0  0  0  0  0  0  0  0  0
   22.4392  -21.0971  -13.1609 C   0  0  0  0  0  0  0  0  0  0  0  0
   22.2705  -20.7125  -11.7213 C   0  0  2  0  0  0  0  0  0  0  0  0
   23.5114  -21.0776  -11.0225 N   0  0  0  0  0  0  0  0  0  0  0  0
   21.1105  -21.3887  -11.0714 C   0  0  0  0  0  0  0  0  0  0  0  0
   19.7915  -21.1238  -11.3759 O   0  0  0  0  0  0  0  0  0  0  0  0
   21.3154  -22.2737  -10.1734 O   0  0  0  0  0  0  0  0  0  0  0  0
  2  1  1  6
  2  3  1  0
  4  3  1  0
  4  8  1  0
  5  4  2  0
  6  7  2  0
  6  2  1  0
  9  6  1  0
 10  9  1  0
 11 12  1  0
 10 11  1  1
 12 13  2  0
 12 20  1  0
 13 14  1  0
 14 15  1  0
 15 16  2  0
 16 17  1  0
 18 17  2  0
 19 18  1  0
 20 19  2  0
 20 15  1  0
 21 10  1  0
 22 21  2  0
 23 24  1  0
 24 25  2  0
 26 24  1  0
 26 27  1  0
 27 28  1  0
 28 29  1  0
 30 29  1  6
 30 31  1  0
 31 21  1  0
 32 30  1  0
 33 32  1  0
 34 32  2  0
M  END
$$$$
