AGG.pdb
     RDKit          3D

 14 13  0  0  1  0  0  0  0  0999 V2000
   -2.2666  -26.0506   27.5417 C   0  0  0  0  0  0  0  0  0  0  0  0
   -3.6346  -25.6025   28.0021 C   0  0  2  0  0  0  0  0  0  0  0  0
   -4.5493  -25.7853   26.9129 N   0  0  0  0  0  0  0  0  0  0  0  0
   -3.6184  -24.1853   28.4360 C   0  0  0  0  0  0  0  0  0  0  0  0
   -3.0776  -23.8869   29.5072 O   0  0  0  0  0  0  0  0  0  0  0  0
   -4.2083  -23.1738   27.6492 N   0  0  0  0  0  0  0  0  0  0  0  0
   -4.1668  -21.7747   27.9605 C   0  0  0  0  0  0  0  0  0  0  0  0
   -5.3862  -21.2625   28.5787 C   0  0  0  0  0  0  0  0  0  0  0  0
   -5.4710  -20.0600   28.9011 O   0  0  0  0  0  0  0  0  0  0  0  0
   -6.4870  -22.1131   28.8223 N   0  0  0  0  0  0  0  0  0  0  0  0
   -7.7277  -21.6290   29.3903 C   0  0  0  0  0  0  0  0  0  0  0  0
   -7.7378  -21.9461   30.8347 C   0  0  0  0  0  0  0  0  0  0  0  0
   -6.6648  -22.1870   31.4162 O   0  0  0  0  0  0  0  0  0  0  0  0
   -8.9331  -21.9833   31.5735 O   0  0  0  0  0  0  0  0  0  0  0  0
  2  1  1  6
  3  2  1  0
  4  6  1  0
  4  2  1  0
  5  4  2  0
  7  6  1  0
  8  7  1  0
  9  8  2  0
 10  8  1  0
 11 10  1  0
 12 11  1  0
 12 14  1  0
 13 12  2  0
M  END
$$$$
