AGG.pdb
     RDKit          3D

 14 13  0  0  1  0  0  0  0  0999 V2000
   -2.0648  -25.2492   25.9467 C   0  0  0  0  0  0  0  0  0  0  0  0
   -3.3048  -26.0711   26.2130 C   0  0  2  0  0  0  0  0  0  0  0  0
   -4.3968  -25.4644   25.5086 N   0  0  0  0  0  0  0  0  0  0  0  0
   -3.5989  -26.1462   27.6638 C   0  0  0  0  0  0  0  0  0  0  0  0
   -2.7645  -26.6499   28.4247 O   0  0  0  0  0  0  0  0  0  0  0  0
   -4.8119  -25.6538   28.1896 N   0  0  0  0  0  0  0  0  0  0  0  0
   -5.1960  -25.7452   29.5681 C   0  0  0  0  0  0  0  0  0  0  0  0
   -5.6915  -24.4947   30.1357 C   0  0  0  0  0  0  0  0  0  0  0  0
   -6.0314  -24.4391   31.3350 O   0  0  0  0  0  0  0  0  0  0  0  0
   -5.7950  -23.3305   29.3429 N   0  0  0  0  0  0  0  0  0  0  0  0
   -6.2022  -22.0543   29.8923 C   0  0  0  0  0  0  0  0  0  0  0  0
   -7.6776  -22.0343   29.9892 C   0  0  0  0  0  0  0  0  0  0  0  0
   -8.3284  -23.0318   29.6301 O   0  0  0  0  0  0  0  0  0  0  0  0
   -8.3697  -20.9129   30.4786 O   0  0  0  0  0  0  0  0  0  0  0  0
  2  1  1  1
  3  2  1  0
  4  6  1  0
  4  2  1  0
  5  4  2  0
  7  6  1  0
  8  7  1  0
  9  8  2  0
 10  8  1  0
 11 10  1  0
 12 11  1  0
 12 14  1  0
 13 12  2  0
M  END
$$$$
