AGG.pdb
     RDKit          3D

 14 13  0  0  1  0  0  0  0  0999 V2000
    7.4133  -16.9908   20.5414 C   0  0  0  0  0  0  0  0  0  0  0  0
    6.7801  -16.4459   19.2819 C   0  0  2  0  0  0  0  0  0  0  0  0
    6.8344  -17.4712   18.2807 N   0  0  0  0  0  0  0  0  0  0  0  0
    7.4776  -15.2245   18.8144 C   0  0  0  0  0  0  0  0  0  0  0  0
    8.2617  -15.3031   17.8614 O   0  0  0  0  0  0  0  0  0  0  0  0
    7.2624  -13.9770   19.4369 N   0  0  0  0  0  0  0  0  0  0  0  0
    7.8577  -12.7437   19.0118 C   0  0  0  0  0  0  0  0  0  0  0  0
    9.2926  -12.6529   19.2649 C   0  0  0  0  0  0  0  0  0  0  0  0
    9.9161  -11.6089   18.9849 O   0  0  0  0  0  0  0  0  0  0  0  0
    9.9986  -13.7386   19.8282 N   0  0  0  0  0  0  0  0  0  0  0  0
   11.3980  -13.6477   20.1885 C   0  0  0  0  0  0  0  0  0  0  0  0
   11.7813  -14.8871   20.8983 C   0  0  0  0  0  0  0  0  0  0  0  0
   10.9643  -15.8212   20.9841 O   0  0  0  0  0  0  0  0  0  0  0  0
   13.0507  -15.0403   21.4824 O   0  0  0  0  0  0  0  0  0  0  0  0
  2  1  1  1
  3  2  1  0
  4  6  1  0
  4  2  1  0
  5  4  2  0
  7  6  1  0
  8  7  1  0
  9  8  2  0
 10  8  1  0
 11 10  1  0
 12 11  1  0
 12 14  1  0
 13 12  2  0
M  END
$$$$
