AGG.pdb
     RDKit          3D

 14 13  0  0  1  0  0  0  0  0999 V2000
   -1.8449  -25.2944   26.9080 C   0  0  0  0  0  0  0  0  0  0  0  0
   -3.2253  -25.1966   27.5154 C   0  0  2  0  0  0  0  0  0  0  0  0
   -4.1763  -25.1345   26.4438 N   0  0  0  0  0  0  0  0  0  0  0  0
   -3.3457  -24.0045   28.3878 C   0  0  0  0  0  0  0  0  0  0  0  0
   -2.6712  -23.9415   29.4223 O   0  0  0  0  0  0  0  0  0  0  0  0
   -4.2148  -22.9431   28.0585 N   0  0  0  0  0  0  0  0  0  0  0  0
   -4.3892  -21.7606   28.8505 C   0  0  0  0  0  0  0  0  0  0  0  0
   -5.7118  -21.6350   29.4558 C   0  0  0  0  0  0  0  0  0  0  0  0
   -5.9749  -20.6669   30.1978 O   0  0  0  0  0  0  0  0  0  0  0  0
   -6.7132  -22.6012   29.2146 N   0  0  0  0  0  0  0  0  0  0  0  0
   -8.0872  -22.4113   29.6296 C   0  0  0  0  0  0  0  0  0  0  0  0
   -8.2553  -22.9951   30.9778 C   0  0  0  0  0  0  0  0  0  0  0  0
   -7.2589  -23.4196   31.5898 O   0  0  0  0  0  0  0  0  0  0  0  0
   -9.5170  -23.0846   31.5910 O   0  0  0  0  0  0  0  0  0  0  0  0
  2  1  1  6
  3  2  1  0
  4  6  1  0
  4  2  1  0
  5  4  2  0
  7  6  1  0
  8  7  1  0
  9  8  2  0
 10  8  1  0
 11 10  1  0
 12 11  1  0
 12 14  1  0
 13 12  2  0
M  END
$$$$
