AGG.pdb
     RDKit          3D

 14 13  0  0  1  0  0  0  0  0999 V2000
    4.2718  -18.3006   21.0662 C   0  0  0  0  0  0  0  0  0  0  0  0
    5.5819  -18.3974   21.8135 C   0  0  2  0  0  0  0  0  0  0  0  0
    5.3483  -19.1344   23.0213 N   0  0  0  0  0  0  0  0  0  0  0  0
    6.1263  -17.0535   22.1208 C   0  0  0  0  0  0  0  0  0  0  0  0
    5.7477  -16.4665   23.1412 O   0  0  0  0  0  0  0  0  0  0  0  0
    7.0668  -16.4346   21.2708 N   0  0  0  0  0  0  0  0  0  0  0  0
    7.6133  -15.1256   21.4806 C   0  0  0  0  0  0  0  0  0  0  0  0
    8.8111  -15.1036   22.3149 C   0  0  0  0  0  0  0  0  0  0  0  0
    9.8637  -14.5845   21.8911 O   0  0  0  0  0  0  0  0  0  0  0  0
    8.8017  -15.6661   23.6103 N   0  0  0  0  0  0  0  0  0  0  0  0
    9.9432  -15.5845   24.4972 C   0  0  0  0  0  0  0  0  0  0  0  0
   10.9112  -16.6349   24.1143 C   0  0  0  0  0  0  0  0  0  0  0  0
   11.0267  -16.9541   22.9175 O   0  0  0  0  0  0  0  0  0  0  0  0
   11.7093  -17.2867   25.0703 O   0  0  0  0  0  0  0  0  0  0  0  0
  2  1  1  1
  3  2  1  0
  4  6  1  0
  4  2  1  0
  5  4  2  0
  7  6  1  0
  8  7  1  0
  9  8  2  0
 10  8  1  0
 11 10  1  0
 12 11  1  0
 12 14  1  0
 13 12  2  0
M  END
$$$$
