AGG.pdb
     RDKit          3D

 14 13  0  0  1  0  0  0  0  0999 V2000
    7.6956  -12.8141   18.3284 C   0  0  0  0  0  0  0  0  0  0  0  0
    8.2001  -13.9920   19.1296 C   0  0  2  0  0  0  0  0  0  0  0  0
    7.3458  -15.1109   18.8562 N   0  0  0  0  0  0  0  0  0  0  0  0
    8.2130  -13.6895   20.5806 C   0  0  0  0  0  0  0  0  0  0  0  0
    9.1544  -13.0432   21.0551 O   0  0  0  0  0  0  0  0  0  0  0  0
    7.1720  -14.1256   21.4269 N   0  0  0  0  0  0  0  0  0  0  0  0
    7.0216  -13.7331   22.7979 C   0  0  0  0  0  0  0  0  0  0  0  0
    7.8845  -14.4576   23.7262 C   0  0  0  0  0  0  0  0  0  0  0  0
    7.7302  -14.3311   24.9580 O   0  0  0  0  0  0  0  0  0  0  0  0
    8.9047  -15.3107   23.2508 N   0  0  0  0  0  0  0  0  0  0  0  0
    9.6859  -16.1498   24.1351 C   0  0  0  0  0  0  0  0  0  0  0  0
   11.0581  -16.2530   23.5936 C   0  0  0  0  0  0  0  0  0  0  0  0
   11.2453  -16.8251   22.5050 O   0  0  0  0  0  0  0  0  0  0  0  0
   12.1636  -15.7194   24.2785 O   0  0  0  0  0  0  0  0  0  0  0  0
  2  1  1  6
  3  2  1  0
  4  6  1  0
  4  2  1  0
  5  4  2  0
  7  6  1  0
  8  7  1  0
  9  8  2  0
 10  8  1  0
 11 10  1  0
 12 11  1  0
 12 14  1  0
 13 12  2  0
M  END
$$$$
