AGG.pdb
     RDKit          3D

 14 13  0  0  1  0  0  0  0  0999 V2000
    8.8200  -12.9213   16.0812 C   0  0  0  0  0  0  0  0  0  0  0  0
    8.2987  -14.2962   16.4304 C   0  0  2  0  0  0  0  0  0  0  0  0
    7.3931  -14.7016   15.3950 N   0  0  0  0  0  0  0  0  0  0  0  0
    7.6171  -14.2945   17.7466 C   0  0  0  0  0  0  0  0  0  0  0  0
    6.3842  -14.2099   17.7891 O   0  0  0  0  0  0  0  0  0  0  0  0
    8.3497  -14.3877   18.9486 N   0  0  0  0  0  0  0  0  0  0  0  0
    7.7650  -14.3925   20.2579 C   0  0  0  0  0  0  0  0  0  0  0  0
    8.7318  -14.5140   21.3450 C   0  0  0  0  0  0  0  0  0  0  0  0
    9.9269  -14.2054   21.1616 O   0  0  0  0  0  0  0  0  0  0  0  0
    8.3355  -14.9804   22.6177 N   0  0  0  0  0  0  0  0  0  0  0  0
    9.2256  -14.9629   23.7595 C   0  0  0  0  0  0  0  0  0  0  0  0
   10.2344  -16.0300   23.5847 C   0  0  0  0  0  0  0  0  0  0  0  0
    9.8762  -17.1509   23.1811 O   0  0  0  0  0  0  0  0  0  0  0  0
   11.5948  -15.8121   23.8634 O   0  0  0  0  0  0  0  0  0  0  0  0
  2  1  1  6
  3  2  1  0
  4  6  1  0
  4  2  1  0
  5  4  2  0
  7  6  1  0
  8  7  1  0
  9  8  2  0
 10  8  1  0
 11 10  1  0
 12 11  1  0
 12 14  1  0
 13 12  2  0
M  END
$$$$
