AGG.pdb
     RDKit          3D

 14 13  0  0  1  0  0  0  0  0999 V2000
   -3.0085  -27.8188   28.1964 C   0  0  0  0  0  0  0  0  0  0  0  0
   -3.3644  -26.3511   28.1392 C   0  0  2  0  0  0  0  0  0  0  0  0
   -2.4760  -25.7168   27.2092 N   0  0  0  0  0  0  0  0  0  0  0  0
   -3.2566  -25.7192   29.4756 C   0  0  0  0  0  0  0  0  0  0  0  0
   -2.4775  -26.1962   30.3090 O   0  0  0  0  0  0  0  0  0  0  0  0
   -4.0261  -24.5856   29.8118 N   0  0  0  0  0  0  0  0  0  0  0  0
   -3.9506  -23.8957   31.0665 C   0  0  0  0  0  0  0  0  0  0  0  0
   -4.8632  -22.7620   31.1823 C   0  0  0  0  0  0  0  0  0  0  0  0
   -5.0023  -22.1752   32.2748 O   0  0  0  0  0  0  0  0  0  0  0  0
   -5.6019  -22.3102   30.0667 N   0  0  0  0  0  0  0  0  0  0  0  0
   -6.5503  -21.2199   30.1571 C   0  0  0  0  0  0  0  0  0  0  0  0
   -7.8799  -21.7801   30.4814 C   0  0  0  0  0  0  0  0  0  0  0  0
   -7.9983  -23.0032   30.6751 O   0  0  0  0  0  0  0  0  0  0  0  0
   -9.0206  -20.9643   30.5777 O   0  0  0  0  0  0  0  0  0  0  0  0
  2  1  1  1
  3  2  1  0
  4  6  1  0
  4  2  1  0
  5  4  2  0
  7  6  1  0
  8  7  1  0
  9  8  2  0
 10  8  1  0
 11 10  1  0
 12 11  1  0
 12 14  1  0
 13 12  2  0
M  END
$$$$
