AGG.pdb
     RDKit          3D

 14 13  0  0  1  0  0  0  0  0999 V2000
    0.9267  -19.3883   22.0298 C   0  0  0  0  0  0  0  0  0  0  0  0
    1.8845  -19.3490   20.8614 C   0  0  2  0  0  0  0  0  0  0  0  0
    1.5782  -20.4550   20.0014 N   0  0  0  0  0  0  0  0  0  0  0  0
    3.2929  -19.4191   21.3179 C   0  0  0  0  0  0  0  0  0  0  0  0
    3.7865  -20.5199   21.5893 O   0  0  0  0  0  0  0  0  0  0  0  0
    4.0775  -18.2539   21.4476 N   0  0  0  0  0  0  0  0  0  0  0  0
    5.4460  -18.2397   21.8756 C   0  0  0  0  0  0  0  0  0  0  0  0
    5.6255  -18.4175   23.3135 C   0  0  0  0  0  0  0  0  0  0  0  0
    4.8370  -17.8796   24.1173 O   0  0  0  0  0  0  0  0  0  0  0  0
    6.6888  -19.1971   23.8196 N   0  0  0  0  0  0  0  0  0  0  0  0
    6.8867  -19.4073   25.2384 C   0  0  0  0  0  0  0  0  0  0  0  0
    8.0977  -20.2350   25.4258 C   0  0  0  0  0  0  0  0  0  0  0  0
    8.4461  -20.5589   26.5752 O   0  0  0  0  0  0  0  0  0  0  0  0
    8.8710  -20.6688   24.3350 O   0  0  0  0  0  0  0  0  0  0  0  0
  2  1  1  1
  3  2  1  0
  4  6  1  0
  4  2  1  0
  5  4  2  0
  7  6  1  0
  8  7  1  0
  9  8  2  0
 10  8  1  0
 11 10  1  0
 12 11  1  0
 12 14  1  0
 13 12  2  0
M  END
$$$$
