SYA.pdb
     RDKit          3D

 24 24  0  0  1  0  0  0  0  0999 V2000
   27.9521  -20.6214  -19.5638 O   0  0  0  0  0  0  0  0  0  0  0  0
   27.1282  -21.1303  -18.5745 C   0  0  0  0  0  0  0  0  0  0  0  0
   27.9737  -21.4212  -17.3569 C   0  0  2  0  0  0  0  0  0  0  0  0
   28.8953  -22.5089  -17.6472 N   0  0  0  0  0  0  0  0  0  0  0  0
   27.1502  -21.8098  -16.1882 C   0  0  0  0  0  0  0  0  0  0  0  0
   26.9489  -23.0449  -15.9680 O   0  0  0  0  0  0  0  0  0  0  0  0
   23.4847  -20.8494   -8.0596 O   0  0  0  0  0  0  0  0  0  0  0  0
   24.1749  -20.7693   -9.2827 C   0  0  0  0  0  0  0  0  0  0  0  0
   25.4432  -21.2291   -9.4450 C   0  0  0  0  0  0  0  0  0  0  0  0
   26.0765  -21.1208  -10.6865 C   0  0  0  0  0  0  0  0  0  0  0  0
   25.4372  -20.5506  -11.7676 C   0  0  0  0  0  0  0  0  0  0  0  0
   26.1384  -20.4360  -13.0331 C   0  0  0  0  0  0  0  0  0  0  0  0
   25.7455  -21.3451  -14.1435 C   0  0  2  0  0  0  0  0  0  0  0  0
   26.5667  -20.8987  -15.2918 N   0  0  0  0  0  0  0  0  0  0  0  0
   24.3132  -21.2768  -14.5200 C   0  0  0  0  0  0  0  0  0  0  0  0
   23.8904  -20.2456  -15.1593 O   0  0  0  0  0  0  0  0  0  0  0  0
   24.1528  -20.0961  -11.5655 C   0  0  0  0  0  0  0  0  0  0  0  0
   23.5150  -20.1993  -10.3349 C   0  0  0  0  0  0  0  0  0  0  0  0
   21.2699  -23.3228  -14.8904 C   0  0  0  0  0  0  0  0  0  0  0  0
   21.9574  -22.0065  -14.5263 C   0  0  2  0  0  0  0  0  0  0  0  0
   23.3462  -22.2673  -14.2379 N   0  0  0  0  0  0  0  0  0  0  0  0
   21.2205  -21.2908  -13.4863 C   0  0  0  0  0  0  0  0  0  0  0  0
   21.5994  -21.3191  -12.2990 O   0  0  0  0  0  0  0  0  0  0  0  0
   20.0874  -20.5701  -13.8123 O   0  0  0  0  0  0  0  0  0  0  0  0
  2  1  1  0
  2  3  1  0
  3  4  1  6
  5  3  1  0
  5  6  2  0
  7  8  1  0
  8 18  2  0
  9 10  2  0
  9  8  1  0
 10 11  1  0
 11 12  1  0
 11 17  2  0
 13 12  1  1
 13 14  1  0
 14  5  1  0
 15 13  1  0
 16 15  2  0
 18 17  1  0
 20 19  1  1
 20 22  1  0
 20 21  1  0
 21 15  1  0
 22 24  1  0
 23 22  2  0
M  END
$$$$
