SYA.pdb
     RDKit          3D

 24 24  0  0  1  0  0  0  0  0999 V2000
   25.7022   -0.2146    0.2324 O   0  0  0  0  0  0  0  0  0  0  0  0
   24.7529    0.7807    0.0752 C   0  0  0  0  0  0  0  0  0  0  0  0
   25.4357    2.0006   -0.4975 C   0  0  2  0  0  0  0  0  0  0  0  0
   24.5061    3.1195   -0.5182 N   0  0  0  0  0  0  0  0  0  0  0  0
   25.9168    1.7708   -1.8797 C   0  0  0  0  0  0  0  0  0  0  0  0
   26.9107    0.9997   -2.0588 O   0  0  0  0  0  0  0  0  0  0  0  0
   25.0125    0.8100  -10.6690 O   0  0  0  0  0  0  0  0  0  0  0  0
   25.0508    0.8866   -9.2649 C   0  0  0  0  0  0  0  0  0  0  0  0
   26.0487    0.3381   -8.5236 C   0  0  0  0  0  0  0  0  0  0  0  0
   26.0307    0.4479   -7.1301 C   0  0  0  0  0  0  0  0  0  0  0  0
   25.0103    1.1088   -6.4783 C   0  0  0  0  0  0  0  0  0  0  0  0
   25.0167    1.1799   -5.0288 C   0  0  0  0  0  0  0  0  0  0  0  0
   25.9250    2.1594   -4.3735 C   0  0  2  0  0  0  0  0  0  0  0  0
   25.3459    2.3519   -3.0244 N   0  0  0  0  0  0  0  0  0  0  0  0
   26.0094    3.4741   -5.0535 C   0  0  0  0  0  0  0  0  0  0  0  0
   25.0291    4.2961   -4.9343 O   0  0  0  0  0  0  0  0  0  0  0  0
   24.0165    1.6517   -7.2624 C   0  0  0  0  0  0  0  0  0  0  0  0
   24.0258    1.5477   -8.6484 C   0  0  0  0  0  0  0  0  0  0  0  0
   28.4388    5.8078   -6.5354 C   0  0  0  0  0  0  0  0  0  0  0  0
   27.0315    5.2133   -6.4723 C   0  0  2  0  0  0  0  0  0  0  0  0
   27.0970    3.9202   -5.8370 N   0  0  0  0  0  0  0  0  0  0  0  0
   26.3827    5.2409   -7.7818 C   0  0  0  0  0  0  0  0  0  0  0  0
   26.7148    4.4399   -8.6775 O   0  0  0  0  0  0  0  0  0  0  0  0
   25.3866    6.1628   -8.0416 O   0  0  0  0  0  0  0  0  0  0  0  0
  2  1  1  0
  2  3  1  0
  3  4  1  6
  5  3  1  0
  5  6  2  0
  7  8  1  0
  8 18  2  0
  9 10  2  0
  9  8  1  0
 10 11  1  0
 11 12  1  0
 11 17  2  0
 13 12  1  6
 13 14  1  0
 14  5  1  0
 15 13  1  0
 16 15  2  0
 18 17  1  0
 20 19  1  6
 20 22  1  0
 20 21  1  0
 21 15  1  0
 22 24  1  0
 23 22  2  0
M  END
$$$$
