SYA.pdb
     RDKit          3D

 24 24  0  0  1  0  0  0  0  0999 V2000
   26.3724  -18.7031  -15.8078 O   0  0  0  0  0  0  0  0  0  0  0  0
   27.2186  -18.3949  -14.7564 C   0  0  0  0  0  0  0  0  0  0  0  0
   27.7601  -19.6863  -14.1897 C   0  0  2  0  0  0  0  0  0  0  0  0
   28.3676  -20.4726  -15.2524 N   0  0  0  0  0  0  0  0  0  0  0  0
   26.6992  -20.5033  -13.5559 C   0  0  0  0  0  0  0  0  0  0  0  0
   26.5486  -21.7068  -13.9346 O   0  0  0  0  0  0  0  0  0  0  0  0
   28.8732  -20.5987   -6.8776 O   0  0  0  0  0  0  0  0  0  0  0  0
   27.8220  -20.5648   -7.8117 C   0  0  0  0  0  0  0  0  0  0  0  0
   27.6866  -21.4842   -8.8030 C   0  0  0  0  0  0  0  0  0  0  0  0
   26.6193  -21.3970   -9.7015 C   0  0  0  0  0  0  0  0  0  0  0  0
   25.6857  -20.3861   -9.6063 C   0  0  0  0  0  0  0  0  0  0  0  0
   24.6058  -20.3176  -10.5735 C   0  0  0  0  0  0  0  0  0  0  0  0
   24.8231  -20.9152  -11.9186 C   0  0  2  0  0  0  0  0  0  0  0  0
   25.8342  -20.0379  -12.5513 N   0  0  0  0  0  0  0  0  0  0  0  0
   23.6159  -20.9568  -12.7782 C   0  0  0  0  0  0  0  0  0  0  0  0
   23.2039  -19.8665  -13.3189 O   0  0  0  0  0  0  0  0  0  0  0  0
   25.8553  -19.4727   -8.5893 C   0  0  0  0  0  0  0  0  0  0  0  0
   26.9132  -19.5513   -7.6912 C   0  0  0  0  0  0  0  0  0  0  0  0
   21.6385  -23.3207  -14.7730 C   0  0  0  0  0  0  0  0  0  0  0  0
   21.7393  -22.0218  -13.9726 C   0  0  2  0  0  0  0  0  0  0  0  0
   22.8595  -22.1140  -13.0689 N   0  0  0  0  0  0  0  0  0  0  0  0
   20.4594  -21.6746  -13.3577 C   0  0  0  0  0  0  0  0  0  0  0  0
   19.4495  -21.4639  -14.0577 O   0  0  0  0  0  0  0  0  0  0  0  0
   20.3560  -21.5757  -11.9833 O   0  0  0  0  0  0  0  0  0  0  0  0
  2  1  1  0
  2  3  1  0
  3  4  1  6
  5  3  1  0
  5  6  2  0
  7  8  1  0
  8 18  2  0
  9 10  2  0
  9  8  1  0
 10 11  1  0
 11 12  1  0
 11 17  2  0
 13 12  1  1
 13 14  1  0
 14  5  1  0
 15 13  1  0
 16 15  2  0
 18 17  1  0
 20 19  1  1
 20 22  1  0
 20 21  1  0
 21 15  1  0
 22 24  1  0
 23 22  2  0
M  END
$$$$
