SYA.pdb
     RDKit          3D

 24 24  0  0  1  0  0  0  0  0999 V2000
   17.2725  -10.3686  -14.5776 O   0  0  0  0  0  0  0  0  0  0  0  0
   16.8832   -9.9969  -15.8531 C   0  0  0  0  0  0  0  0  0  0  0  0
   17.9780  -10.3910  -16.8165 C   0  0  2  0  0  0  0  0  0  0  0  0
   18.2428  -11.8171  -16.7026 N   0  0  0  0  0  0  0  0  0  0  0  0
   19.2402   -9.6618  -16.5521 C   0  0  0  0  0  0  0  0  0  0  0  0
   20.1000  -10.1914  -15.7809 O   0  0  0  0  0  0  0  0  0  0  0  0
   23.0843  -10.8743  -22.1306 O   0  0  0  0  0  0  0  0  0  0  0  0
   22.5958   -9.9768  -21.1638 C   0  0  0  0  0  0  0  0  0  0  0  0
   21.2979   -9.5775  -21.1175 C   0  0  0  0  0  0  0  0  0  0  0  0
   20.8727   -8.6825  -20.1314 C   0  0  0  0  0  0  0  0  0  0  0  0
   21.7503   -8.1868  -19.1898 C   0  0  0  0  0  0  0  0  0  0  0  0
   21.2738   -7.2413  -18.1971 C   0  0  0  0  0  0  0  0  0  0  0  0
   20.8713   -7.7609  -16.8624 C   0  0  2  0  0  0  0  0  0  0  0  0
   19.5611   -8.4085  -17.1001 N   0  0  0  0  0  0  0  0  0  0  0  0
   20.7121   -6.7214  -15.8173 C   0  0  0  0  0  0  0  0  0  0  0  0
   19.6790   -5.9585  -15.8562 O   0  0  0  0  0  0  0  0  0  0  0  0
   23.0575   -8.6138  -19.2680 C   0  0  0  0  0  0  0  0  0  0  0  0
   23.4895   -9.5033  -20.2447 C   0  0  0  0  0  0  0  0  0  0  0  0
   21.8946   -5.8276  -12.4436 C   0  0  0  0  0  0  0  0  0  0  0  0
   21.3392   -5.4304  -13.8117 C   0  0  2  0  0  0  0  0  0  0  0  0
   21.6116   -6.4884  -14.7532 N   0  0  0  0  0  0  0  0  0  0  0  0
   21.7984   -4.1001  -14.2070 C   0  0  0  0  0  0  0  0  0  0  0  0
   22.6594   -3.9589  -15.0974 O   0  0  0  0  0  0  0  0  0  0  0  0
   21.2781   -2.9772  -13.5922 O   0  0  0  0  0  0  0  0  0  0  0  0
  2  1  1  0
  2  3  1  0
  3  4  1  1
  5  3  1  0
  5  6  2  0
  7  8  1  0
  8 18  2  0
  9 10  2  0
  9  8  1  0
 10 11  1  0
 11 12  1  0
 11 17  2  0
 13 12  1  6
 13 14  1  0
 14  5  1  0
 15 13  1  0
 16 15  2  0
 18 17  1  0
 20 19  1  1
 20 22  1  0
 20 21  1  0
 21 15  1  0
 22 24  1  0
 23 22  2  0
M  END
$$$$
