SYA.pdb
     RDKit          3D

 24 24  0  0  1  0  0  0  0  0999 V2000
   26.7299  -20.3760  -16.6387 O   0  0  0  0  0  0  0  0  0  0  0  0
   27.6140  -21.2697  -17.2186 C   0  0  0  0  0  0  0  0  0  0  0  0
   27.6011  -22.5435  -16.4064 C   0  0  2  0  0  0  0  0  0  0  0  0
   28.5364  -23.5001  -16.9781 N   0  0  0  0  0  0  0  0  0  0  0  0
   26.2585  -23.1689  -16.3746 C   0  0  0  0  0  0  0  0  0  0  0  0
   25.8295  -23.7452  -17.4226 O   0  0  0  0  0  0  0  0  0  0  0  0
   18.8785  -26.7225  -12.7214 O   0  0  0  0  0  0  0  0  0  0  0  0
   20.1367  -26.2063  -13.0806 C   0  0  0  0  0  0  0  0  0  0  0  0
   21.0274  -26.8966  -13.8398 C   0  0  0  0  0  0  0  0  0  0  0  0
   22.2633  -26.3292  -14.1637 C   0  0  0  0  0  0  0  0  0  0  0  0
   22.6070  -25.0671  -13.7256 C   0  0  0  0  0  0  0  0  0  0  0  0
   23.9095  -24.5237  -14.0643 C   0  0  0  0  0  0  0  0  0  0  0  0
   24.0376  -23.7198  -15.3097 C   0  0  2  0  0  0  0  0  0  0  0  0
   25.4118  -23.1715  -15.2534 N   0  0  0  0  0  0  0  0  0  0  0  0
   23.0754  -22.5974  -15.4218 C   0  0  0  0  0  0  0  0  0  0  0  0
   23.2039  -21.5915  -14.6327 O   0  0  0  0  0  0  0  0  0  0  0  0
   21.6793  -24.3977  -12.9586 C   0  0  0  0  0  0  0  0  0  0  0  0
   20.4481  -24.9537  -12.6315 C   0  0  0  0  0  0  0  0  0  0  0  0
   20.4397  -21.2481  -17.6694 C   0  0  0  0  0  0  0  0  0  0  0  0
   21.1078  -21.3993  -16.3024 C   0  0  2  0  0  0  0  0  0  0  0  0
   22.0056  -22.5273  -16.3418 N   0  0  0  0  0  0  0  0  0  0  0  0
   20.1193  -21.4169  -15.2257 C   0  0  0  0  0  0  0  0  0  0  0  0
   19.7807  -22.4881  -14.6853 O   0  0  0  0  0  0  0  0  0  0  0  0
   19.5461  -20.2363  -14.7930 O   0  0  0  0  0  0  0  0  0  0  0  0
  2  1  1  0
  2  3  1  0
  3  4  1  6
  5  3  1  0
  5  6  2  0
  7  8  1  0
  8 18  2  0
  9 10  2  0
  9  8  1  0
 10 11  1  0
 11 12  1  0
 11 17  2  0
 13 12  1  1
 13 14  1  0
 14  5  1  0
 15 13  1  0
 16 15  2  0
 18 17  1  0
 20 19  1  6
 20 22  1  0
 20 21  1  0
 21 15  1  0
 22 24  1  0
 23 22  2  0
M  END
$$$$
