SYA.pdb
     RDKit          3D

 24 24  0  0  1  0  0  0  0  0999 V2000
   13.7611   -7.6372  -11.2246 O   0  0  0  0  0  0  0  0  0  0  0  0
   15.1057   -7.4613  -11.5029 C   0  0  0  0  0  0  0  0  0  0  0  0
   15.6400   -8.7463  -12.0907 C   0  0  2  0  0  0  0  0  0  0  0  0
   15.6709   -9.7794  -11.0667 N   0  0  0  0  0  0  0  0  0  0  0  0
   17.0110   -8.5840  -12.6282 C   0  0  0  0  0  0  0  0  0  0  0  0
   17.9920   -8.9835  -11.9263 O   0  0  0  0  0  0  0  0  0  0  0  0
   18.4126  -13.9937  -16.7051 O   0  0  0  0  0  0  0  0  0  0  0  0
   18.4945  -12.6066  -16.4860 C   0  0  0  0  0  0  0  0  0  0  0  0
   19.6762  -11.9512  -16.3436 C   0  0  0  0  0  0  0  0  0  0  0  0
   19.6922  -10.5701  -16.1276 C   0  0  0  0  0  0  0  0  0  0  0  0
   18.5214   -9.8446  -16.0543 C   0  0  0  0  0  0  0  0  0  0  0  0
   18.5808   -8.4160  -15.8053 C   0  0  0  0  0  0  0  0  0  0  0  0
   18.6948   -7.9483  -14.3975 C   0  0  2  0  0  0  0  0  0  0  0  0
   17.3105   -8.0121  -13.8760 N   0  0  0  0  0  0  0  0  0  0  0  0
   19.2033   -6.5639  -14.2460 C   0  0  0  0  0  0  0  0  0  0  0  0
   18.4092   -5.5834  -14.4889 O   0  0  0  0  0  0  0  0  0  0  0  0
   17.3433  -10.5426  -16.2033 C   0  0  0  0  0  0  0  0  0  0  0  0
   17.3174  -11.9155  -16.4183 C   0  0  0  0  0  0  0  0  0  0  0  0
   22.1968   -4.6911  -13.0122 C   0  0  0  0  0  0  0  0  0  0  0  0
   20.8919   -4.8231  -13.7981 C   0  0  2  0  0  0  0  0  0  0  0  0
   20.5118   -6.2136  -13.8450 N   0  0  0  0  0  0  0  0  0  0  0  0
   20.9791   -4.1487  -15.0920 C   0  0  0  0  0  0  0  0  0  0  0  0
   20.9116   -2.9064  -15.1718 O   0  0  0  0  0  0  0  0  0  0  0  0
   21.1384   -4.8879  -16.2486 O   0  0  0  0  0  0  0  0  0  0  0  0
  2  1  1  0
  2  3  1  0
  3  4  1  1
  5  3  1  0
  5  6  2  0
  7  8  1  0
  8 18  2  0
  9 10  2  0
  9  8  1  0
 10 11  1  0
 11 12  1  0
 11 17  2  0
 13 12  1  6
 13 14  1  0
 14  5  1  0
 15 13  1  0
 16 15  2  0
 18 17  1  0
 20 19  1  6
 20 22  1  0
 20 21  1  0
 21 15  1  0
 22 24  1  0
 23 22  2  0
M  END
$$$$
