SYA.pdb
     RDKit          3D

 24 24  0  0  1  0  0  0  0  0999 V2000
   43.6412   -8.3166   -4.8636 O   0  0  0  0  0  0  0  0  0  0  0  0
   43.2137   -9.6185   -4.6665 C   0  0  0  0  0  0  0  0  0  0  0  0
   43.9036  -10.5022   -5.6790 C   0  0  2  0  0  0  0  0  0  0  0  0
   45.3271  -10.2028   -5.7035 N   0  0  0  0  0  0  0  0  0  0  0  0
   43.3646  -10.3079   -7.0453 C   0  0  0  0  0  0  0  0  0  0  0  0
   44.1008   -9.7488   -7.9171 O   0  0  0  0  0  0  0  0  0  0  0  0
   37.7906  -11.5878  -13.9599 O   0  0  0  0  0  0  0  0  0  0  0  0
   38.4732  -11.5822  -12.7300 C   0  0  0  0  0  0  0  0  0  0  0  0
   37.9101  -11.1370  -11.5763 C   0  0  0  0  0  0  0  0  0  0  0  0
   38.6404  -11.1568  -10.3845 C   0  0  0  0  0  0  0  0  0  0  0  0
   39.9379  -11.6238  -10.3490 C   0  0  0  0  0  0  0  0  0  0  0  0
   40.6695  -11.6055   -9.0957 C   0  0  0  0  0  0  0  0  0  0  0  0
   41.5865  -10.4644   -8.8295 C   0  0  2  0  0  0  0  0  0  0  0  0
   42.0796  -10.7026   -7.4539 N   0  0  0  0  0  0  0  0  0  0  0  0
   40.9438   -9.1296   -8.8865 C   0  0  0  0  0  0  0  0  0  0  0  0
   40.1512   -8.7837   -7.9361 O   0  0  0  0  0  0  0  0  0  0  0  0
   40.4753  -12.0668  -11.5374 C   0  0  0  0  0  0  0  0  0  0  0  0
   39.7570  -12.0510  -12.7271 C   0  0  0  0  0  0  0  0  0  0  0  0
   41.2446   -5.8452  -10.5473 C   0  0  0  0  0  0  0  0  0  0  0  0
   40.4109   -6.9273   -9.8604 C   0  0  2  0  0  0  0  0  0  0  0  0
   41.1298   -8.1765   -9.9125 N   0  0  0  0  0  0  0  0  0  0  0  0
   39.0469   -6.9618  -10.3849 C   0  0  0  0  0  0  0  0  0  0  0  0
   38.7134   -7.7997  -11.2456 O   0  0  0  0  0  0  0  0  0  0  0  0
   38.1065   -6.0583   -9.9279 O   0  0  0  0  0  0  0  0  0  0  0  0
  2  1  1  0
  2  3  1  0
  3  4  1  6
  5  3  1  0
  5  6  2  0
  7  8  1  0
  8 18  2  0
  9 10  2  0
  9  8  1  0
 10 11  1  0
 11 12  1  0
 11 17  2  0
 13 12  1  1
 13 14  1  0
 14  5  1  0
 15 13  1  0
 16 15  2  0
 18 17  1  0
 20 19  1  6
 20 22  1  0
 20 21  1  0
 21 15  1  0
 22 24  1  0
 23 22  2  0
M  END
$$$$
