SYA.pdb
     RDKit          3D

 24 24  0  0  1  0  0  0  0  0999 V2000
   21.0202  -12.6948  -17.5242 O   0  0  0  0  0  0  0  0  0  0  0  0
   20.8509  -13.0100  -16.1869 C   0  0  0  0  0  0  0  0  0  0  0  0
   19.4822  -13.6258  -16.0148 C   0  0  2  0  0  0  0  0  0  0  0  0
   19.3068  -14.7084  -16.9708 N   0  0  0  0  0  0  0  0  0  0  0  0
   18.3979  -12.6388  -16.2268 C   0  0  0  0  0  0  0  0  0  0  0  0
   17.8592  -12.5624  -17.3751 O   0  0  0  0  0  0  0  0  0  0  0  0
   11.8078  -15.0246  -15.9626 O   0  0  0  0  0  0  0  0  0  0  0  0
   12.7654  -14.0749  -15.5627 C   0  0  0  0  0  0  0  0  0  0  0  0
   12.4955  -13.0864  -14.6704 C   0  0  0  0  0  0  0  0  0  0  0  0
   13.4902  -12.1717  -14.3125 C   0  0  0  0  0  0  0  0  0  0  0  0
   14.7582  -12.2482  -14.8501 C   0  0  0  0  0  0  0  0  0  0  0  0
   15.7557  -11.2648  -14.4700 C   0  0  0  0  0  0  0  0  0  0  0  0
   16.7700  -10.8603  -15.4806 C   0  0  2  0  0  0  0  0  0  0  0  0
   17.9141  -11.7678  -15.2362 N   0  0  0  0  0  0  0  0  0  0  0  0
   17.2343   -9.4573  -15.3621 C   0  0  0  0  0  0  0  0  0  0  0  0
   18.0495   -9.1533  -14.4166 O   0  0  0  0  0  0  0  0  0  0  0  0
   14.9949  -13.2629  -15.7510 C   0  0  0  0  0  0  0  0  0  0  0  0
   14.0122  -14.1769  -16.1129 C   0  0  0  0  0  0  0  0  0  0  0  0
   17.0893   -6.2200  -17.2446 C   0  0  0  0  0  0  0  0  0  0  0  0
   17.4737   -7.1031  -16.0571 C   0  0  2  0  0  0  0  0  0  0  0  0
   16.8574   -8.3972  -16.2166 N   0  0  0  0  0  0  0  0  0  0  0  0
   17.2100   -6.4308  -14.7862 C   0  0  0  0  0  0  0  0  0  0  0  0
   16.1301   -6.5977  -14.1861 O   0  0  0  0  0  0  0  0  0  0  0  0
   18.1631   -5.5968  -14.2335 O   0  0  0  0  0  0  0  0  0  0  0  0
  2  1  1  0
  2  3  1  0
  3  4  1  6
  5  3  1  0
  5  6  2  0
  7  8  1  0
  8 18  2  0
  9 10  2  0
  9  8  1  0
 10 11  1  0
 11 12  1  0
 11 17  2  0
 13 12  1  1
 13 14  1  0
 14  5  1  0
 15 13  1  0
 16 15  2  0
 18 17  1  0
 20 19  1  6
 20 22  1  0
 20 21  1  0
 21 15  1  0
 22 24  1  0
 23 22  2  0
M  END
$$$$
