SYA.pdb
     RDKit          3D

 24 24  0  0  1  0  0  0  0  0999 V2000
   17.4715   -7.8521  -21.7118 O   0  0  0  0  0  0  0  0  0  0  0  0
   18.8424   -7.9364  -21.8849 C   0  0  0  0  0  0  0  0  0  0  0  0
   19.3867   -8.9266  -20.8821 C   0  0  2  0  0  0  0  0  0  0  0  0
   18.6663  -10.1856  -20.9943 N   0  0  0  0  0  0  0  0  0  0  0  0
   19.2538   -8.4379  -19.4899 C   0  0  0  0  0  0  0  0  0  0  0  0
   18.2589   -8.8246  -18.8005 O   0  0  0  0  0  0  0  0  0  0  0  0
   21.6064   -6.9671  -11.1633 O   0  0  0  0  0  0  0  0  0  0  0  0
   21.4598   -7.1861  -12.5451 C   0  0  0  0  0  0  0  0  0  0  0  0
   20.6462   -8.1463  -13.0572 C   0  0  0  0  0  0  0  0  0  0  0  0
   20.5429   -8.3153  -14.4410 C   0  0  0  0  0  0  0  0  0  0  0  0
   21.2565   -7.5201  -15.3133 C   0  0  0  0  0  0  0  0  0  0  0  0
   21.1390   -7.7436  -16.7425 C   0  0  0  0  0  0  0  0  0  0  0  0
   19.9907   -7.1290  -17.4617 C   0  0  2  0  0  0  0  0  0  0  0  0
   20.1610   -7.5649  -18.8664 N   0  0  0  0  0  0  0  0  0  0  0  0
   19.9562   -5.6474  -17.4180 C   0  0  0  0  0  0  0  0  0  0  0  0
   20.7595   -4.9876  -18.1730 O   0  0  0  0  0  0  0  0  0  0  0  0
   22.0706   -6.5577  -14.7581 C   0  0  0  0  0  0  0  0  0  0  0  0
   22.1798   -6.3823  -13.3836 C   0  0  0  0  0  0  0  0  0  0  0  0
   17.8924   -2.8261  -16.1524 C   0  0  0  0  0  0  0  0  0  0  0  0
   19.2162   -3.4366  -16.6134 C   0  0  2  0  0  0  0  0  0  0  0  0
   19.0973   -4.8739  -16.6057 N   0  0  0  0  0  0  0  0  0  0  0  0
   20.3445   -2.8927  -15.8597 C   0  0  0  0  0  0  0  0  0  0  0  0
   20.5805   -3.2744  -14.6966 O   0  0  0  0  0  0  0  0  0  0  0  0
   21.1669   -1.9424  -16.4342 O   0  0  0  0  0  0  0  0  0  0  0  0
  2  1  1  0
  2  3  1  0
  3  4  1  1
  5  3  1  0
  5  6  2  0
  7  8  1  0
  8 18  2  0
  9 10  2  0
  9  8  1  0
 10 11  1  0
 11 12  1  0
 11 17  2  0
 13 12  1  1
 13 14  1  0
 14  5  1  0
 15 13  1  0
 16 15  2  0
 18 17  1  0
 20 19  1  1
 20 22  1  0
 20 21  1  0
 21 15  1  0
 22 24  1  0
 23 22  2  0
M  END
$$$$
