YQQ.pdb
     RDKit          3D

 31 31  0  0  1  0  0  0  0  0999 V2000
    6.1439  -11.6808   19.0137 O   0  0  0  0  0  0  0  0  0  0  0  0
    6.9836  -12.6548   19.5605 C   0  0  0  0  0  0  0  0  0  0  0  0
    8.3007  -12.6414   19.2284 C   0  0  0  0  0  0  0  0  0  0  0  0
    9.1772  -13.5964   19.7518 C   0  0  0  0  0  0  0  0  0  0  0  0
    8.7103  -14.5617   20.6115 C   0  0  0  0  0  0  0  0  0  0  0  0
    9.6066  -15.5739   21.1727 C   0  0  0  0  0  0  0  0  0  0  0  0
   10.0412  -16.6041   20.1302 C   0  0  2  0  0  0  0  0  0  0  0  0
    8.8734  -17.4071   19.8333 N   0  0  0  0  0  0  0  0  0  0  0  0
   11.0820  -17.4522   20.7383 C   0  0  0  0  0  0  0  0  0  0  0  0
   10.7358  -18.4389   21.4270 O   0  0  0  0  0  0  0  0  0  0  0  0
    7.3806  -14.5675   20.9408 C   0  0  0  0  0  0  0  0  0  0  0  0
    6.5134  -13.6193   20.4202 C   0  0  0  0  0  0  0  0  0  0  0  0
   16.2865  -19.8404   18.5112 N   0  0  0  0  0  0  0  0  0  0  0  0
   16.2554  -20.3248   19.8393 C   0  0  0  0  0  0  0  0  0  0  0  0
   17.0839  -21.1878   20.2050 O   0  0  0  0  0  0  0  0  0  0  0  0
   15.2413  -19.8108   20.7996 C   0  0  0  0  0  0  0  0  0  0  0  0
   14.3903  -18.7256   20.1675 C   0  0  0  0  0  0  0  0  0  0  0  0
   13.4142  -18.1379   21.1151 C   0  0  2  0  0  0  0  0  0  0  0  0
   12.4660  -17.2339   20.6022 N   0  0  0  0  0  0  0  0  0  0  0  0
   14.2076  -17.5573   22.2626 C   0  0  0  0  0  0  0  0  0  0  0  0
   15.3357  -17.0434   22.0326 O   0  0  0  0  0  0  0  0  0  0  0  0
   13.2903  -21.1646   27.8173 N   0  0  0  0  0  0  0  0  0  0  0  0
   13.0179  -21.3210   26.4364 C   0  0  0  0  0  0  0  0  0  0  0  0
   11.8912  -21.8473   26.1369 O   0  0  0  0  0  0  0  0  0  0  0  0
   13.9286  -20.9173   25.3556 C   0  0  0  0  0  0  0  0  0  0  0  0
   13.5176  -19.8067   24.4895 C   0  0  0  0  0  0  0  0  0  0  0  0
   14.2489  -18.5326   24.5823 C   0  0  2  0  0  0  0  0  0  0  0  0
   13.7360  -17.5652   23.5980 N   0  0  0  0  0  0  0  0  0  0  0  0
   15.6819  -18.5798   24.4769 C   0  0  0  0  0  0  0  0  0  0  0  0
   16.4973  -18.1336   25.3460 O   0  0  0  0  0  0  0  0  0  0  0  0
   16.3131  -19.1520   23.3466 O   0  0  0  0  0  0  0  0  0  0  0  0
  2  1  1  0
  3  2  2  0
  4  3  1  0
  5 11  1  0
  5  4  2  0
  6  5  1  0
  7  6  1  0
  7  8  1  1
  9  7  1  0
  9 10  2  0
 11 12  2  0
 12  2  1  0
 13 14  1  0
 14 15  2  0
 16 17  1  0
 16 14  1  0
 18 19  1  0
 18 17  1  6
 19  9  1  0
 20 18  1  0
 21 20  2  0
 23 22  1  0
 23 24  2  0
 25 23  1  0
 26 25  1  0
 27 26  1  6
 27 28  1  0
 28 20  1  0
 29 27  1  0
 29 31  1  0
 30 29  2  0
M  END
$$$$
