YQQ.pdb
     RDKit          3D

 31 31  0  0  1  0  0  0  0  0999 V2000
    7.2109  -10.6919   26.6430 O   0  0  0  0  0  0  0  0  0  0  0  0
    7.1470  -12.0878   26.6266 C   0  0  0  0  0  0  0  0  0  0  0  0
    5.9345  -12.6866   26.7540 C   0  0  0  0  0  0  0  0  0  0  0  0
    5.8234  -14.0802   26.7429 C   0  0  0  0  0  0  0  0  0  0  0  0
    6.9468  -14.8594   26.6022 C   0  0  0  0  0  0  0  0  0  0  0  0
    6.8583  -16.3205   26.5886 C   0  0  0  0  0  0  0  0  0  0  0  0
    6.2642  -16.8522   25.2842 C   0  0  2  0  0  0  0  0  0  0  0  0
    6.0869  -18.2780   25.4638 N   0  0  0  0  0  0  0  0  0  0  0  0
    7.2419  -16.6079   24.2087 C   0  0  0  0  0  0  0  0  0  0  0  0
    8.2549  -17.3398   24.1308 O   0  0  0  0  0  0  0  0  0  0  0  0
    8.1653  -14.2467   26.4745 C   0  0  0  0  0  0  0  0  0  0  0  0
    8.2727  -12.8646   26.4859 C   0  0  0  0  0  0  0  0  0  0  0  0
    8.3668  -12.6181   18.3523 N   0  0  0  0  0  0  0  0  0  0  0  0
    8.2496  -13.9321   18.8614 C   0  0  0  0  0  0  0  0  0  0  0  0
    7.5965  -14.7885   18.2251 O   0  0  0  0  0  0  0  0  0  0  0  0
    8.9002  -14.2963   20.1494 C   0  0  0  0  0  0  0  0  0  0  0  0
    7.8995  -14.2865   21.2895 C   0  0  0  0  0  0  0  0  0  0  0  0
    8.0636  -15.4392   22.2061 C   0  0  2  0  0  0  0  0  0  0  0  0
    7.1229  -15.5926   23.2409 N   0  0  0  0  0  0  0  0  0  0  0  0
    9.4855  -15.3986   22.7162 C   0  0  0  0  0  0  0  0  0  0  0  0
    9.8283  -14.4811   23.5100 O   0  0  0  0  0  0  0  0  0  0  0  0
   12.9405  -20.0705   24.8540 N   0  0  0  0  0  0  0  0  0  0  0  0
   11.9937  -19.1656   25.3926 C   0  0  0  0  0  0  0  0  0  0  0  0
   11.4569  -19.5016   26.5039 O   0  0  0  0  0  0  0  0  0  0  0  0
   11.6076  -17.8923   24.7680 C   0  0  0  0  0  0  0  0  0  0  0  0
   12.2332  -17.5364   23.4895 C   0  0  0  0  0  0  0  0  0  0  0  0
   11.8416  -16.2747   22.8403 C   0  0  2  0  0  0  0  0  0  0  0  0
   10.4598  -16.3546   22.3382 N   0  0  0  0  0  0  0  0  0  0  0  0
   12.6855  -15.7798   21.7867 C   0  0  0  0  0  0  0  0  0  0  0  0
   12.4100  -15.8201   20.5450 O   0  0  0  0  0  0  0  0  0  0  0  0
   13.9386  -15.1868   22.0717 O   0  0  0  0  0  0  0  0  0  0  0  0
  2  1  1  0
  3  2  2  0
  4  3  1  0
  5 11  1  0
  5  4  2  0
  6  5  1  0
  7  6  1  0
  7  8  1  1
  9  7  1  0
  9 10  2  0
 11 12  2  0
 12  2  1  0
 13 14  1  0
 14 15  2  0
 16 17  1  0
 16 14  1  0
 18 19  1  0
 18 17  1  1
 19  9  1  0
 20 18  1  0
 21 20  2  0
 23 22  1  0
 23 24  2  0
 25 23  1  0
 26 25  1  0
 27 26  1  6
 27 28  1  0
 28 20  1  0
 29 27  1  0
 29 31  1  0
 30 29  2  0
M  END
$$$$
