YQQ.pdb
     RDKit          3D

 31 31  0  0  1  0  0  0  0  0999 V2000
    7.8353  -12.5138   16.3172 O   0  0  0  0  0  0  0  0  0  0  0  0
    7.6489  -12.9613   17.6279 C   0  0  0  0  0  0  0  0  0  0  0  0
    6.8763  -14.0584   17.8387 C   0  0  0  0  0  0  0  0  0  0  0  0
    6.6627  -14.5414   19.1331 C   0  0  0  0  0  0  0  0  0  0  0  0
    7.2363  -13.9061   20.2084 C   0  0  0  0  0  0  0  0  0  0  0  0
    7.0277  -14.3905   21.5740 C   0  0  0  0  0  0  0  0  0  0  0  0
    8.2964  -14.9983   22.1726 C   0  0  2  0  0  0  0  0  0  0  0  0
    8.9236  -15.7647   21.1162 N   0  0  0  0  0  0  0  0  0  0  0  0
    7.8936  -15.9014   23.2655 C   0  0  0  0  0  0  0  0  0  0  0  0
    7.2889  -15.4268   24.2539 O   0  0  0  0  0  0  0  0  0  0  0  0
    8.0138  -12.8004   19.9862 C   0  0  0  0  0  0  0  0  0  0  0  0
    8.2239  -12.3234   18.7016 C   0  0  0  0  0  0  0  0  0  0  0  0
    5.4069  -22.0213   25.6854 N   0  0  0  0  0  0  0  0  0  0  0  0
    6.6706  -21.5981   25.2127 C   0  0  0  0  0  0  0  0  0  0  0  0
    7.3885  -22.3915   24.5644 O   0  0  0  0  0  0  0  0  0  0  0  0
    7.1462  -20.2144   25.4846 C   0  0  0  0  0  0  0  0  0  0  0  0
    7.3043  -19.4276   24.1972 C   0  0  0  0  0  0  0  0  0  0  0  0
    7.8667  -18.0745   24.4178 C   0  0  2  0  0  0  0  0  0  0  0  0
    8.1420  -17.2868   23.2851 N   0  0  0  0  0  0  0  0  0  0  0  0
    9.0701  -18.2379   25.3170 C   0  0  0  0  0  0  0  0  0  0  0  0
   10.0795  -18.8592   24.8871 O   0  0  0  0  0  0  0  0  0  0  0  0
   10.1864  -13.1092   27.6914 N   0  0  0  0  0  0  0  0  0  0  0  0
   10.1611  -14.1124   28.6906 C   0  0  0  0  0  0  0  0  0  0  0  0
   10.4851  -13.7443   29.8720 O   0  0  0  0  0  0  0  0  0  0  0  0
    9.7867  -15.5143   28.4558 C   0  0  0  0  0  0  0  0  0  0  0  0
   10.7673  -16.3871   27.8009 C   0  0  0  0  0  0  0  0  0  0  0  0
   10.3573  -17.7496   27.4239 C   0  0  2  0  0  0  0  0  0  0  0  0
    9.1149  -17.7196   26.6343 N   0  0  0  0  0  0  0  0  0  0  0  0
   10.2080  -18.7145   28.4792 C   0  0  0  0  0  0  0  0  0  0  0  0
    9.1304  -19.3271   28.7672 O   0  0  0  0  0  0  0  0  0  0  0  0
   11.2998  -19.0650   29.3088 O   0  0  0  0  0  0  0  0  0  0  0  0
  2  1  1  0
  3  2  2  0
  4  3  1  0
  5 11  1  0
  5  4  2  0
  6  5  1  0
  7  6  1  0
  7  8  1  6
  9  7  1  0
  9 10  2  0
 11 12  2  0
 12  2  1  0
 13 14  1  0
 14 15  2  0
 16 17  1  0
 16 14  1  0
 18 19  1  0
 18 17  1  6
 19  9  1  0
 20 18  1  0
 21 20  2  0
 23 22  1  0
 23 24  2  0
 25 23  1  0
 26 25  1  0
 27 26  1  1
 27 28  1  0
 28 20  1  0
 29 27  1  0
 29 31  1  0
 30 29  2  0
M  END
$$$$
