YQQ.pdb
     RDKit          3D

 31 31  0  0  1  0  0  0  0  0999 V2000
    5.8822  -10.9879   28.5591 O   0  0  0  0  0  0  0  0  0  0  0  0
    6.4856  -11.7419   27.5490 C   0  0  0  0  0  0  0  0  0  0  0  0
    7.0566  -12.9304   27.8752 C   0  0  0  0  0  0  0  0  0  0  0  0
    7.6714  -13.7177   26.8971 C   0  0  0  0  0  0  0  0  0  0  0  0
    7.7026  -13.2927   25.5905 C   0  0  0  0  0  0  0  0  0  0  0  0
    8.3408  -14.0973   24.5473 C   0  0  0  0  0  0  0  0  0  0  0  0
    7.3214  -14.7323   23.6013 C   0  0  2  0  0  0  0  0  0  0  0  0
    6.7980  -15.8979   24.2826 N   0  0  0  0  0  0  0  0  0  0  0  0
    8.0353  -15.1521   22.3821 C   0  0  0  0  0  0  0  0  0  0  0  0
    8.1093  -16.3723   22.1113 O   0  0  0  0  0  0  0  0  0  0  0  0
    7.1242  -12.0928   25.2709 C   0  0  0  0  0  0  0  0  0  0  0  0
    6.5154  -11.3139   26.2427 C   0  0  0  0  0  0  0  0  0  0  0  0
    5.8185  -14.7844   18.4463 N   0  0  0  0  0  0  0  0  0  0  0  0
    6.9904  -14.1774   17.9388 C   0  0  0  0  0  0  0  0  0  0  0  0
    7.4047  -14.4841   16.7990 O   0  0  0  0  0  0  0  0  0  0  0  0
    7.7293  -13.1773   18.7565 C   0  0  0  0  0  0  0  0  0  0  0  0
    9.1128  -13.6826   19.1197 C   0  0  0  0  0  0  0  0  0  0  0  0
    9.0884  -14.6881   20.2080 C   0  0  2  0  0  0  0  0  0  0  0  0
    8.6546  -14.2679   21.4786 N   0  0  0  0  0  0  0  0  0  0  0  0
   10.4552  -15.3315   20.2452 C   0  0  0  0  0  0  0  0  0  0  0  0
   11.0522  -15.5708   19.1608 O   0  0  0  0  0  0  0  0  0  0  0  0
   15.3540  -15.4934   18.3001 N   0  0  0  0  0  0  0  0  0  0  0  0
   15.4619  -14.7236   19.4838 C   0  0  0  0  0  0  0  0  0  0  0  0
   16.2201  -13.6952   19.4241 O   0  0  0  0  0  0  0  0  0  0  0  0
   14.7652  -15.0265   20.7422 C   0  0  0  0  0  0  0  0  0  0  0  0
   13.3003  -14.9475   20.7529 C   0  0  0  0  0  0  0  0  0  0  0  0
   12.5448  -15.9707   21.4940 C   0  0  2  0  0  0  0  0  0  0  0  0
   11.1016  -15.6815   21.4558 N   0  0  0  0  0  0  0  0  0  0  0  0
   12.9274  -16.2219   22.8569 C   0  0  0  0  0  0  0  0  0  0  0  0
   14.0807  -16.6015   23.2378 O   0  0  0  0  0  0  0  0  0  0  0  0
   12.0045  -16.0569   23.9173 O   0  0  0  0  0  0  0  0  0  0  0  0
  2  1  1  0
  3  2  2  0
  4  3  1  0
  5 11  1  0
  5  4  2  0
  6  5  1  0
  7  6  1  0
  7  8  1  1
  9  7  1  0
  9 10  2  0
 11 12  2  0
 12  2  1  0
 13 14  1  0
 14 15  2  0
 16 17  1  0
 16 14  1  0
 18 19  1  0
 18 17  1  6
 19  9  1  0
 20 18  1  0
 21 20  2  0
 23 22  1  0
 23 24  2  0
 25 23  1  0
 26 25  1  0
 27 26  1  1
 27 28  1  0
 28 20  1  0
 29 27  1  0
 29 31  1  0
 30 29  2  0
M  END
$$$$
