YQQ.pdb
     RDKit          3D

 31 31  0  0  1  0  0  0  0  0999 V2000
    7.0321  -13.7841   15.4924 O   0  0  0  0  0  0  0  0  0  0  0  0
    7.2837  -13.9604   16.8557 C   0  0  0  0  0  0  0  0  0  0  0  0
    7.4175  -12.8607   17.6416 C   0  0  0  0  0  0  0  0  0  0  0  0
    7.6696  -12.9898   19.0107 C   0  0  0  0  0  0  0  0  0  0  0  0
    7.7846  -14.2377   19.5749 C   0  0  0  0  0  0  0  0  0  0  0  0
    8.0494  -14.4007   21.0054 C   0  0  0  0  0  0  0  0  0  0  0  0
    6.8316  -14.9305   21.7627 C   0  0  2  0  0  0  0  0  0  0  0  0
    5.8854  -13.8368   21.8371 N   0  0  0  0  0  0  0  0  0  0  0  0
    7.2684  -15.2988   23.1213 C   0  0  0  0  0  0  0  0  0  0  0  0
    7.8355  -14.4374   23.8315 O   0  0  0  0  0  0  0  0  0  0  0  0
    7.6482  -15.3410   18.7745 C   0  0  0  0  0  0  0  0  0  0  0  0
    7.3984  -15.2102   17.4171 C   0  0  0  0  0  0  0  0  0  0  0  0
    6.3356  -20.1761   27.1822 N   0  0  0  0  0  0  0  0  0  0  0  0
    7.4903  -19.5123   27.6570 C   0  0  0  0  0  0  0  0  0  0  0  0
    8.0210  -19.8795   28.7287 O   0  0  0  0  0  0  0  0  0  0  0  0
    8.0734  -18.3810   26.8857 C   0  0  0  0  0  0  0  0  0  0  0  0
    7.2139  -18.0384   25.6835 C   0  0  0  0  0  0  0  0  0  0  0  0
    7.8076  -16.9754   24.8387 C   0  0  2  0  0  0  0  0  0  0  0  0
    7.0939  -16.5723   23.6952 N   0  0  0  0  0  0  0  0  0  0  0  0
    9.2211  -17.4035   24.5192 C   0  0  0  0  0  0  0  0  0  0  0  0
    9.4270  -18.1565   23.5291 O   0  0  0  0  0  0  0  0  0  0  0  0
   14.1048  -16.7210   21.0043 N   0  0  0  0  0  0  0  0  0  0  0  0
   13.6268  -15.7582   21.9262 C   0  0  0  0  0  0  0  0  0  0  0  0
   13.3355  -14.6090   21.4458 O   0  0  0  0  0  0  0  0  0  0  0  0
   13.4440  -15.9992   23.3646 C   0  0  0  0  0  0  0  0  0  0  0  0
   12.0727  -16.0606   23.8823 C   0  0  0  0  0  0  0  0  0  0  0  0
   11.7113  -17.1601   24.7919 C   0  0  2  0  0  0  0  0  0  0  0  0
   10.3359  -16.9927   25.2902 N   0  0  0  0  0  0  0  0  0  0  0  0
   12.5786  -17.4087   25.9112 C   0  0  0  0  0  0  0  0  0  0  0  0
   12.2696  -17.2327   27.1330 O   0  0  0  0  0  0  0  0  0  0  0  0
   13.8968  -17.8882   25.7220 O   0  0  0  0  0  0  0  0  0  0  0  0
  2  1  1  0
  3  2  2  0
  4  3  1  0
  5 11  1  0
  5  4  2  0
  6  5  1  0
  7  6  1  0
  7  8  1  1
  9  7  1  0
  9 10  2  0
 11 12  2  0
 12  2  1  0
 13 14  1  0
 14 15  2  0
 16 17  1  0
 16 14  1  0
 18 19  1  0
 18 17  1  6
 19  9  1  0
 20 18  1  0
 21 20  2  0
 23 22  1  0
 23 24  2  0
 25 23  1  0
 26 25  1  0
 27 26  1  1
 27 28  1  0
 28 20  1  0
 29 27  1  0
 29 31  1  0
 30 29  2  0
M  END
$$$$
