YQQ.pdb
     RDKit          3D

 31 31  0  0  1  0  0  0  0  0999 V2000
    8.1313  -10.7770   20.5073 O   0  0  0  0  0  0  0  0  0  0  0  0
    7.8781  -12.1359   20.3024 C   0  0  0  0  0  0  0  0  0  0  0  0
    7.5112  -12.5512   19.0622 C   0  0  0  0  0  0  0  0  0  0  0  0
    7.2483  -13.9012   18.8116 C   0  0  0  0  0  0  0  0  0  0  0  0
    7.3597  -14.8238   19.8241 C   0  0  0  0  0  0  0  0  0  0  0  0
    7.0890  -16.2430   19.5888 C   0  0  0  0  0  0  0  0  0  0  0  0
    8.1494  -16.8952   18.7015 C   0  0  2  0  0  0  0  0  0  0  0  0
    7.8196  -18.3035   18.6332 N   0  0  0  0  0  0  0  0  0  0  0  0
    9.4572  -16.7257   19.3598 C   0  0  0  0  0  0  0  0  0  0  0  0
    9.8503  -17.6010   20.1641 O   0  0  0  0  0  0  0  0  0  0  0  0
    7.7302  -14.3959   21.0716 C   0  0  0  0  0  0  0  0  0  0  0  0
    7.9902  -13.0565   21.3174 C   0  0  0  0  0  0  0  0  0  0  0  0
   14.5190  -14.4275   17.3673 N   0  0  0  0  0  0  0  0  0  0  0  0
   14.9235  -14.6234   18.7080 C   0  0  0  0  0  0  0  0  0  0  0  0
   16.1328  -14.8052   18.9714 O   0  0  0  0  0  0  0  0  0  0  0  0
   13.9154  -14.6135   19.8027 C   0  0  0  0  0  0  0  0  0  0  0  0
   12.5084  -14.4882   19.2494 C   0  0  0  0  0  0  0  0  0  0  0  0
   11.6326  -15.6145   19.6497 C   0  0  2  0  0  0  0  0  0  0  0  0
   10.3175  -15.6314   19.1501 N   0  0  0  0  0  0  0  0  0  0  0  0
   11.6813  -15.6971   21.1578 C   0  0  0  0  0  0  0  0  0  0  0  0
   11.0489  -14.8469   21.8411 O   0  0  0  0  0  0  0  0  0  0  0  0
   11.8783  -20.9932   24.6696 N   0  0  0  0  0  0  0  0  0  0  0  0
   11.9664  -19.9030   25.5691 C   0  0  0  0  0  0  0  0  0  0  0  0
   11.9529  -20.1933   26.8148 O   0  0  0  0  0  0  0  0  0  0  0  0
   12.0769  -18.4943   25.1642 C   0  0  0  0  0  0  0  0  0  0  0  0
   12.1699  -18.1965   23.7307 C   0  0  0  0  0  0  0  0  0  0  0  0
   12.3708  -16.7996   23.3126 C   0  0  2  0  0  0  0  0  0  0  0  0
   12.4130  -16.6965   21.8444 N   0  0  0  0  0  0  0  0  0  0  0  0
   13.5036  -16.1000   23.8552 C   0  0  0  0  0  0  0  0  0  0  0  0
   14.6497  -16.0220   23.3077 O   0  0  0  0  0  0  0  0  0  0  0  0
   13.4178  -15.4191   25.0930 O   0  0  0  0  0  0  0  0  0  0  0  0
  2  1  1  0
  3  2  2  0
  4  3  1  0
  5 11  1  0
  5  4  2  0
  6  5  1  0
  7  6  1  0
  7  8  1  1
  9  7  1  0
  9 10  2  0
 11 12  2  0
 12  2  1  0
 13 14  1  0
 14 15  2  0
 16 17  1  0
 16 14  1  0
 18 19  1  0
 18 17  1  1
 19  9  1  0
 20 18  1  0
 21 20  2  0
 23 22  1  0
 23 24  2  0
 25 23  1  0
 26 25  1  0
 27 26  1  6
 27 28  1  0
 28 20  1  0
 29 27  1  0
 29 31  1  0
 30 29  2  0
M  END
$$$$
