HPM.pdb
     RDKit          3D

 26 27  0  0  1  0  0  0  0  0999 V2000
   10.8842  -17.5687   18.4579 N   0  0  0  0  0  0  0  0  0  0  0  0
    9.5857  -17.2782   18.9567 C   0  0  1  0  0  0  0  0  0  0  0  0
    8.8430  -18.5889   19.1438 C   0  0  0  0  0  0  0  0  0  0  0  0
    9.7019  -19.4766   19.9714 C   0  0  0  0  0  0  0  0  0  0  0  0
   10.5838  -20.4526   19.5406 C   0  0  0  0  0  0  0  0  0  0  0  0
   11.1772  -21.0399   20.5888 N   0  0  0  0  0  0  0  0  0  0  0  0
   10.6894  -20.4545   21.7036 C   0  0  0  0  0  0  0  0  0  0  0  0
    9.7942  -19.5060   21.3260 N   0  0  0  0  0  0  0  0  0  0  0  0
    9.5054  -16.4178   20.1355 C   0  0  0  0  0  0  0  0  0  0  0  0
   10.6242  -16.1492   20.7065 O   0  0  0  0  0  0  0  0  0  0  0  0
    8.3517  -15.8507   20.7174 N   0  0  0  0  0  0  0  0  0  0  0  0
    6.9571  -15.9724   20.3573 C   0  0  0  0  0  0  0  0  0  0  0  0
    6.4714  -14.5322   20.5461 C   0  0  0  0  0  0  0  0  0  0  0  0
    7.0958  -14.1788   21.8713 C   0  0  0  0  0  0  0  0  0  0  0  0
    8.3612  -14.9691   21.8775 C   0  0  1  0  0  0  0  0  0  0  0  0
    8.5585  -15.7470   23.1343 C   0  0  0  0  0  0  0  0  0  0  0  0
    8.4088  -16.9995   23.1676 O   0  0  0  0  0  0  0  0  0  0  0  0
    9.8908  -13.0944   29.5200 C   0  0  0  0  0  0  0  0  0  0  0  0
   10.5676  -14.7289   29.2863 S   0  0  0  0  0  0  0  0  0  0  0  0
    9.8869  -15.6998   27.9650 C   0  0  0  0  0  0  0  0  0  0  0  0
    9.7900  -15.0488   26.6257 C   0  0  0  0  0  0  0  0  0  0  0  0
    9.1433  -15.8847   25.6025 C   0  0  2  0  0  0  0  0  0  0  0  0
    8.9230  -15.1284   24.3539 N   0  0  0  0  0  0  0  0  0  0  0  0
    7.7695  -16.2551   26.0277 C   0  0  0  0  0  0  0  0  0  0  0  0
    7.4875  -17.3770   26.8244 O   0  0  0  0  0  0  0  0  0  0  0  0
    6.7856  -15.5795   25.6941 O   0  0  0  0  0  0  0  0  0  0  0  0
  2  1  1  1
  3  2  1  0
  4  3  1  0
  5  4  2  0
  6  7  1  0
  6  5  1  0
  7  8  2  0
  8  4  1  0
  9 11  1  0
  9  2  1  0
 10  9  2  0
 11 15  1  0
 12 13  1  0
 12 11  1  0
 13 14  1  0
 14 15  1  0
 15 16  1  1
 16 17  2  0
 19 18  1  0
 19 20  1  0
 20 21  1  0
 22 21  1  1
 22 23  1  0
 23 16  1  0
 24 22  1  0
 25 24  1  0
 26 24  2  0
M  END
$$$$
