HPM.pdb
     RDKit          3D

 26 27  0  0  1  0  0  0  0  0999 V2000
   10.7169  -16.6808   18.9777 N   0  0  0  0  0  0  0  0  0  0  0  0
   11.1940  -17.6895   19.8575 C   0  0  1  0  0  0  0  0  0  0  0  0
   12.6708  -17.4434   20.1081 C   0  0  0  0  0  0  0  0  0  0  0  0
   13.4042  -17.8187   18.8705 C   0  0  0  0  0  0  0  0  0  0  0  0
   13.0664  -17.5314   17.5593 C   0  0  0  0  0  0  0  0  0  0  0  0
   13.9797  -18.0399   16.7207 N   0  0  0  0  0  0  0  0  0  0  0  0
   14.9137  -18.6584   17.4747 C   0  0  0  0  0  0  0  0  0  0  0  0
   14.5621  -18.5226   18.7790 N   0  0  0  0  0  0  0  0  0  0  0  0
   10.4449  -17.8986   21.0949 C   0  0  0  0  0  0  0  0  0  0  0  0
    9.8889  -16.8533   21.5931 O   0  0  0  0  0  0  0  0  0  0  0  0
   10.2611  -19.1051   21.8033 N   0  0  0  0  0  0  0  0  0  0  0  0
   10.7547  -20.4378   21.5395 C   0  0  0  0  0  0  0  0  0  0  0  0
    9.5242  -21.2857   21.8753 C   0  0  0  0  0  0  0  0  0  0  0  0
    9.0794  -20.6637   23.1738 C   0  0  0  0  0  0  0  0  0  0  0  0
    9.4766  -19.2334   23.0245 C   0  0  1  0  0  0  0  0  0  0  0  0
   10.2326  -18.7108   24.1989 C   0  0  0  0  0  0  0  0  0  0  0  0
   11.4936  -18.6649   24.2070 O   0  0  0  0  0  0  0  0  0  0  0  0
   10.8099  -12.3647   27.6603 C   0  0  0  0  0  0  0  0  0  0  0  0
    9.5030  -13.5791   27.6967 S   0  0  0  0  0  0  0  0  0  0  0  0
    9.9908  -15.2861   27.6902 C   0  0  0  0  0  0  0  0  0  0  0  0
    9.4630  -16.1377   26.5842 C   0  0  0  0  0  0  0  0  0  0  0  0
   10.2427  -17.3634   26.3523 C   0  0  2  0  0  0  0  0  0  0  0  0
    9.5824  -18.2392   25.3642 N   0  0  0  0  0  0  0  0  0  0  0  0
   10.2779  -18.1961   27.5814 C   0  0  0  0  0  0  0  0  0  0  0  0
   11.2076  -18.0009   28.6161 O   0  0  0  0  0  0  0  0  0  0  0  0
    9.4731  -19.1218   27.7580 O   0  0  0  0  0  0  0  0  0  0  0  0
  2  1  1  1
  3  2  1  0
  4  3  1  0
  5  4  2  0
  6  7  1  0
  6  5  1  0
  7  8  2  0
  8  4  1  0
  9 11  1  0
  9  2  1  0
 10  9  2  0
 11 15  1  0
 12 13  1  0
 12 11  1  0
 13 14  1  0
 14 15  1  0
 15 16  1  1
 16 17  2  0
 19 18  1  0
 19 20  1  0
 20 21  1  0
 22 21  1  1
 22 23  1  0
 23 16  1  0
 24 22  1  0
 25 24  1  0
 26 24  2  0
M  END
$$$$
