HPM.pdb
     RDKit          3D

 26 27  0  0  1  0  0  0  0  0999 V2000
   10.4328  -17.4683   17.7415 N   0  0  0  0  0  0  0  0  0  0  0  0
    9.2268  -17.0153   18.3409 C   0  0  1  0  0  0  0  0  0  0  0  0
    8.3745  -18.2272   18.6713 C   0  0  0  0  0  0  0  0  0  0  0  0
    7.7908  -18.7254   17.3979 C   0  0  0  0  0  0  0  0  0  0  0  0
    7.0903  -18.0084   16.4433 C   0  0  0  0  0  0  0  0  0  0  0  0
    6.7265  -18.8097   15.4327 N   0  0  0  0  0  0  0  0  0  0  0  0
    7.1846  -20.0472   15.7194 C   0  0  0  0  0  0  0  0  0  0  0  0
    7.8302  -19.9932   16.9126 N   0  0  0  0  0  0  0  0  0  0  0  0
    9.3522  -16.0962   19.4705 C   0  0  0  0  0  0  0  0  0  0  0  0
   10.4658  -16.1464   20.1086 O   0  0  0  0  0  0  0  0  0  0  0  0
    8.4009  -15.1659   19.9405 N   0  0  0  0  0  0  0  0  0  0  0  0
    7.0776  -14.8444   19.4561 C   0  0  0  0  0  0  0  0  0  0  0  0
    7.0719  -13.3185   19.5885 C   0  0  0  0  0  0  0  0  0  0  0  0
    7.6644  -13.1367   20.9620 C   0  0  0  0  0  0  0  0  0  0  0  0
    8.5994  -14.2922   21.0896 C   0  0  1  0  0  0  0  0  0  0  0  0
    8.4279  -15.0451   22.3653 C   0  0  0  0  0  0  0  0  0  0  0  0
    7.7854  -16.1302   22.4121 O   0  0  0  0  0  0  0  0  0  0  0  0
    9.3543  -14.0836   30.0473 C   0  0  0  0  0  0  0  0  0  0  0  0
   10.3025  -14.6242   28.6356 S   0  0  0  0  0  0  0  0  0  0  0  0
    9.3960  -15.3172   27.2756 C   0  0  0  0  0  0  0  0  0  0  0  0
    9.6162  -14.7057   25.9323 C   0  0  0  0  0  0  0  0  0  0  0  0
    8.8283  -15.3290   24.8577 C   0  0  2  0  0  0  0  0  0  0  0  0
    8.9730  -14.5882   23.5889 N   0  0  0  0  0  0  0  0  0  0  0  0
    7.3765  -15.2265   25.1528 C   0  0  0  0  0  0  0  0  0  0  0  0
    6.6625  -16.2133   25.8524 O   0  0  0  0  0  0  0  0  0  0  0  0
    6.7108  -14.2464   24.7892 O   0  0  0  0  0  0  0  0  0  0  0  0
  2  1  1  1
  3  2  1  0
  4  3  1  0
  5  4  2  0
  6  7  1  0
  6  5  1  0
  7  8  2  0
  8  4  1  0
  9 11  1  0
  9  2  1  0
 10  9  2  0
 11 15  1  0
 12 13  1  0
 12 11  1  0
 13 14  1  0
 14 15  1  0
 15 16  1  1
 16 17  2  0
 19 18  1  0
 19 20  1  0
 20 21  1  0
 22 21  1  1
 22 23  1  0
 23 16  1  0
 24 22  1  0
 25 24  1  0
 26 24  2  0
M  END
$$$$
