HPM.pdb
     RDKit          3D

 26 27  0  0  1  0  0  0  0  0999 V2000
   10.8063  -17.2902   18.5132 N   0  0  0  0  0  0  0  0  0  0  0  0
    9.5034  -17.0069   19.0046 C   0  0  1  0  0  0  0  0  0  0  0  0
    8.6701  -18.2715   18.9019 C   0  0  0  0  0  0  0  0  0  0  0  0
    9.2249  -19.2539   19.8702 C   0  0  0  0  0  0  0  0  0  0  0  0
   10.5460  -19.6308   20.0396 C   0  0  0  0  0  0  0  0  0  0  0  0
   10.6488  -20.5429   21.0160 N   0  0  0  0  0  0  0  0  0  0  0  0
    9.4031  -20.7657   21.4872 C   0  0  0  0  0  0  0  0  0  0  0  0
    8.5408  -19.9820   20.7902 N   0  0  0  0  0  0  0  0  0  0  0  0
    9.4132  -16.3845   20.3240 C   0  0  0  0  0  0  0  0  0  0  0  0
   10.5229  -16.2624   20.9595 O   0  0  0  0  0  0  0  0  0  0  0  0
    8.2590  -15.9049   20.9789 N   0  0  0  0  0  0  0  0  0  0  0  0
    6.8663  -15.9601   20.5959 C   0  0  0  0  0  0  0  0  0  0  0  0
    6.3880  -14.5624   21.0000 C   0  0  0  0  0  0  0  0  0  0  0  0
    7.0052  -14.4204   22.3674 C   0  0  0  0  0  0  0  0  0  0  0  0
    8.2656  -15.2113   22.2603 C   0  0  1  0  0  0  0  0  0  0  0  0
    8.4493  -16.1737   23.3844 C   0  0  0  0  0  0  0  0  0  0  0  0
    8.1407  -17.3919   23.2696 O   0  0  0  0  0  0  0  0  0  0  0  0
   10.0257  -12.4976   28.1549 C   0  0  0  0  0  0  0  0  0  0  0  0
    9.8126  -14.1366   28.8274 S   0  0  0  0  0  0  0  0  0  0  0  0
    9.0758  -15.3526   27.7642 C   0  0  0  0  0  0  0  0  0  0  0  0
    9.9863  -16.0771   26.8299 C   0  0  0  0  0  0  0  0  0  0  0  0
    9.2919  -16.7372   25.7137 C   0  0  2  0  0  0  0  0  0  0  0  0
    8.9772  -15.7780   24.6364 N   0  0  0  0  0  0  0  0  0  0  0  0
    7.9557  -17.2193   26.1466 C   0  0  0  0  0  0  0  0  0  0  0  0
    7.7688  -18.3814   26.9133 O   0  0  0  0  0  0  0  0  0  0  0  0
    6.9199  -16.6083   25.8470 O   0  0  0  0  0  0  0  0  0  0  0  0
  2  1  1  1
  3  2  1  0
  4  3  1  0
  5  4  2  0
  6  7  1  0
  6  5  1  0
  7  8  2  0
  8  4  1  0
  9 11  1  0
  9  2  1  0
 10  9  2  0
 11 15  1  0
 12 13  1  0
 12 11  1  0
 13 14  1  0
 14 15  1  0
 15 16  1  1
 16 17  2  0
 19 18  1  0
 19 20  1  0
 20 21  1  0
 22 21  1  1
 22 23  1  0
 23 16  1  0
 24 22  1  0
 25 24  1  0
 26 24  2  0
M  END
$$$$
