HPM.pdb
     RDKit          3D

 26 27  0  0  1  0  0  0  0  0999 V2000
    6.6163  -19.3971   20.0606 N   0  0  0  0  0  0  0  0  0  0  0  0
    6.2214  -18.1550   20.6268 C   0  0  1  0  0  0  0  0  0  0  0  0
    5.1781  -18.4286   21.6950 C   0  0  0  0  0  0  0  0  0  0  0  0
    3.9523  -18.9168   21.0098 C   0  0  0  0  0  0  0  0  0  0  0  0
    3.0212  -18.1784   20.3000 C   0  0  0  0  0  0  0  0  0  0  0  0
    2.0543  -18.9774   19.8284 N   0  0  0  0  0  0  0  0  0  0  0  0
    2.3463  -20.2347   20.2250 C   0  0  0  0  0  0  0  0  0  0  0  0
    3.4988  -20.1951   20.9417 N   0  0  0  0  0  0  0  0  0  0  0  0
    7.2868  -17.2733   21.0997 C   0  0  0  0  0  0  0  0  0  0  0  0
    8.3415  -17.8600   21.5396 O   0  0  0  0  0  0  0  0  0  0  0  0
    7.2944  -15.8625   21.1305 N   0  0  0  0  0  0  0  0  0  0  0  0
    6.3283  -14.9037   20.6441 C   0  0  0  0  0  0  0  0  0  0  0  0
    7.2434  -13.8411   20.0283 C   0  0  0  0  0  0  0  0  0  0  0  0
    8.2907  -13.6922   21.1016 C   0  0  0  0  0  0  0  0  0  0  0  0
    8.3643  -15.0556   21.7027 C   0  0  1  0  0  0  0  0  0  0  0  0
    8.2822  -15.0433   23.1916 C   0  0  0  0  0  0  0  0  0  0  0  0
    7.1932  -15.2460   23.7960 O   0  0  0  0  0  0  0  0  0  0  0  0
    6.0198  -10.5228   26.6740 C   0  0  0  0  0  0  0  0  0  0  0  0
    6.4931  -12.2253   26.9224 S   0  0  0  0  0  0  0  0  0  0  0  0
    7.6250  -12.9250   25.7472 C   0  0  0  0  0  0  0  0  0  0  0  0
    7.9750  -14.3656   25.9181 C   0  0  0  0  0  0  0  0  0  0  0  0
    9.3371  -14.7039   25.4775 C   0  0  2  0  0  0  0  0  0  0  0  0
    9.4145  -14.8053   24.0066 N   0  0  0  0  0  0  0  0  0  0  0  0
    9.7073  -16.0668   25.9366 C   0  0  0  0  0  0  0  0  0  0  0  0
    9.8842  -17.1513   25.0617 O   0  0  0  0  0  0  0  0  0  0  0  0
    9.8818  -16.3189   27.1374 O   0  0  0  0  0  0  0  0  0  0  0  0
  2  1  1  1
  3  2  1  0
  4  3  1  0
  5  4  2  0
  6  7  1  0
  6  5  1  0
  7  8  2  0
  8  4  1  0
  9 11  1  0
  9  2  1  0
 10  9  2  0
 11 15  1  0
 12 13  1  0
 12 11  1  0
 13 14  1  0
 14 15  1  0
 15 16  1  1
 16 17  2  0
 19 18  1  0
 19 20  1  0
 20 21  1  0
 22 21  1  6
 22 23  1  0
 23 16  1  0
 24 22  1  0
 25 24  1  0
 26 24  2  0
M  END
$$$$
