HPM.pdb
     RDKit          3D

 26 27  0  0  1  0  0  0  0  0999 V2000
    6.7492  -16.1117   19.5777 N   0  0  0  0  0  0  0  0  0  0  0  0
    7.8229  -15.5359   20.3090 C   0  0  1  0  0  0  0  0  0  0  0  0
    7.7470  -14.0273   20.1584 C   0  0  0  0  0  0  0  0  0  0  0  0
    7.9441  -13.7101   18.7193 C   0  0  0  0  0  0  0  0  0  0  0  0
    9.0991  -13.2749   18.0927 C   0  0  0  0  0  0  0  0  0  0  0  0
    8.8803  -13.0982   16.7825 N   0  0  0  0  0  0  0  0  0  0  0  0
    7.5889  -13.4150   16.5469 C   0  0  0  0  0  0  0  0  0  0  0  0
    7.0231  -13.7861   17.7240 N   0  0  0  0  0  0  0  0  0  0  0  0
    7.9741  -15.9509   21.7023 C   0  0  0  0  0  0  0  0  0  0  0  0
    7.2139  -15.3528   22.5474 O   0  0  0  0  0  0  0  0  0  0  0  0
    8.8508  -16.9247   22.2262 N   0  0  0  0  0  0  0  0  0  0  0  0
    9.9046  -17.6836   21.5914 C   0  0  0  0  0  0  0  0  0  0  0  0
    9.6927  -19.0681   22.2111 C   0  0  0  0  0  0  0  0  0  0  0  0
    9.5003  -18.7176   23.6640 C   0  0  0  0  0  0  0  0  0  0  0  0
    8.8492  -17.3763   23.6115 C   0  0  1  0  0  0  0  0  0  0  0  0
    9.5052  -16.3728   24.4982 C   0  0  0  0  0  0  0  0  0  0  0  0
   10.5564  -15.7683   24.1491 O   0  0  0  0  0  0  0  0  0  0  0  0
    5.8149  -11.4532   25.4946 C   0  0  0  0  0  0  0  0  0  0  0  0
    6.4820  -12.6534   26.6342 S   0  0  0  0  0  0  0  0  0  0  0  0
    8.1570  -13.1756   26.3630 C   0  0  0  0  0  0  0  0  0  0  0  0
    8.7164  -14.1799   27.3146 C   0  0  0  0  0  0  0  0  0  0  0  0
    9.6698  -15.1163   26.6998 C   0  0  2  0  0  0  0  0  0  0  0  0
    8.9890  -16.0431   25.7740 N   0  0  0  0  0  0  0  0  0  0  0  0
   10.2467  -16.0190   27.7283 C   0  0  0  0  0  0  0  0  0  0  0  0
   11.2145  -15.6054   28.6586 O   0  0  0  0  0  0  0  0  0  0  0  0
    9.8957  -17.2042   27.8180 O   0  0  0  0  0  0  0  0  0  0  0  0
  2  1  1  1
  3  2  1  0
  4  3  1  0
  5  4  2  0
  6  7  1  0
  6  5  1  0
  7  8  2  0
  8  4  1  0
  9 11  1  0
  9  2  1  0
 10  9  2  0
 11 15  1  0
 12 13  1  0
 12 11  1  0
 13 14  1  0
 14 15  1  0
 15 16  1  1
 16 17  2  0
 19 18  1  0
 19 20  1  0
 20 21  1  0
 22 21  1  1
 22 23  1  0
 23 16  1  0
 24 22  1  0
 25 24  1  0
 26 24  2  0
M  END
$$$$
