HPM.pdb
     RDKit          3D

 26 27  0  0  1  0  0  0  0  0999 V2000
   13.2573  -14.2248   19.0347 N   0  0  0  0  0  0  0  0  0  0  0  0
   11.9457  -14.7706   19.0039 C   0  0  1  0  0  0  0  0  0  0  0  0
   12.0595  -16.2843   19.0056 C   0  0  0  0  0  0  0  0  0  0  0  0
   12.3589  -16.7129   17.6138 C   0  0  0  0  0  0  0  0  0  0  0  0
   12.5300  -15.9163   16.4947 C   0  0  0  0  0  0  0  0  0  0  0  0
   12.7887  -16.6729   15.4193 N   0  0  0  0  0  0  0  0  0  0  0  0
   12.7881  -17.9602   15.8271 C   0  0  0  0  0  0  0  0  0  0  0  0
   12.5271  -17.9816   17.1594 N   0  0  0  0  0  0  0  0  0  0  0  0
   10.9999  -14.2806   20.0047 C   0  0  0  0  0  0  0  0  0  0  0  0
   11.5123  -13.9194   21.1259 O   0  0  0  0  0  0  0  0  0  0  0  0
    9.5991  -14.1581   19.8865 N   0  0  0  0  0  0  0  0  0  0  0  0
    8.7060  -14.5432   18.8172 C   0  0  0  0  0  0  0  0  0  0  0  0
    7.7527  -13.3452   18.7759 C   0  0  0  0  0  0  0  0  0  0  0  0
    7.4676  -13.1411   20.2415 C   0  0  0  0  0  0  0  0  0  0  0  0
    8.7335  -13.5730   20.9022 C   0  0  1  0  0  0  0  0  0  0  0  0
    8.5106  -14.5288   22.0249 C   0  0  0  0  0  0  0  0  0  0  0  0
    8.9677  -15.7046   21.9935 O   0  0  0  0  0  0  0  0  0  0  0  0
    7.0616  -11.5540   28.3728 C   0  0  0  0  0  0  0  0  0  0  0  0
    6.3308  -11.8976   26.7815 S   0  0  0  0  0  0  0  0  0  0  0  0
    7.3267  -12.7921   25.6154 C   0  0  0  0  0  0  0  0  0  0  0  0
    7.0980  -14.2635   25.5168 C   0  0  0  0  0  0  0  0  0  0  0  0
    7.8771  -14.9174   24.4540 C   0  0  2  0  0  0  0  0  0  0  0  0
    7.7781  -14.1736   23.1825 N   0  0  0  0  0  0  0  0  0  0  0  0
    7.2940  -16.2426   24.1240 C   0  0  0  0  0  0  0  0  0  0  0  0
    7.5566  -17.4050   24.8677 O   0  0  0  0  0  0  0  0  0  0  0  0
    6.5322  -16.3910   23.1577 O   0  0  0  0  0  0  0  0  0  0  0  0
  2  1  1  1
  3  2  1  0
  4  3  1  0
  5  4  2  0
  6  7  1  0
  6  5  1  0
  7  8  2  0
  8  4  1  0
  9 11  1  0
  9  2  1  0
 10  9  2  0
 11 15  1  0
 12 13  1  0
 12 11  1  0
 13 14  1  0
 14 15  1  0
 15 16  1  1
 16 17  2  0
 19 18  1  0
 19 20  1  0
 20 21  1  0
 22 21  1  1
 22 23  1  0
 23 16  1  0
 24 22  1  0
 25 24  1  0
 26 24  2  0
M  END
$$$$
