AHY.pdb
     RDKit          3D

 28 29  0  0  1  0  0  0  0  0999 V2000
    8.5504  -12.2585   19.4929 C   0  0  0  0  0  0  0  0  0  0  0  0
    8.6779  -13.4915   18.6547 C   0  0  2  0  0  0  0  0  0  0  0  0
    7.6815  -13.5353   17.6046 N   0  0  0  0  0  0  0  0  0  0  0  0
    8.5808  -14.7369   19.4721 C   0  0  0  0  0  0  0  0  0  0  0  0
    7.5224  -15.4265   19.4957 O   0  0  0  0  0  0  0  0  0  0  0  0
    9.6780  -15.1447   20.2219 N   0  0  0  0  0  0  0  0  0  0  0  0
    9.6771  -16.4102   21.0464 C   0  0  1  0  0  0  0  0  0  0  0  0
   10.7489  -17.2068   20.3863 C   0  0  0  0  0  0  0  0  0  0  0  0
   10.3953  -18.2075   19.4056 C   0  0  0  0  0  0  0  0  0  0  0  0
    9.2540  -18.5986   18.8039 C   0  0  0  0  0  0  0  0  0  0  0  0
    9.4968  -19.5689   17.8824 N   0  0  0  0  0  0  0  0  0  0  0  0
   10.8025  -19.7690   17.9240 C   0  0  0  0  0  0  0  0  0  0  0  0
   11.3739  -18.9813   18.8144 N   0  0  0  0  0  0  0  0  0  0  0  0
   10.1999  -15.8728   22.3605 C   0  0  0  0  0  0  0  0  0  0  0  0
   10.9812  -14.8472   22.3527 O   0  0  0  0  0  0  0  0  0  0  0  0
    6.0878  -11.3420   28.3013 O   0  0  0  0  0  0  0  0  0  0  0  0
    6.6163  -12.1742   27.3222 C   0  0  0  0  0  0  0  0  0  0  0  0
    5.7924  -12.7638   26.3875 C   0  0  0  0  0  0  0  0  0  0  0  0
    6.3068  -13.5921   25.4106 C   0  0  0  0  0  0  0  0  0  0  0  0
    7.6544  -13.8722   25.3162 C   0  0  0  0  0  0  0  0  0  0  0  0
    8.1813  -14.7669   24.2546 C   0  0  0  0  0  0  0  0  0  0  0  0
    9.4100  -15.5162   24.7073 C   0  0  2  0  0  0  0  0  0  0  0  0
    9.9131  -16.3860   23.6313 N   0  0  0  0  0  0  0  0  0  0  0  0
    9.1348  -16.3492   25.9043 C   0  0  0  0  0  0  0  0  0  0  0  0
    8.4388  -17.3918   25.8441 O   0  0  0  0  0  0  0  0  0  0  0  0
    8.4747  -13.2771   26.2574 C   0  0  0  0  0  0  0  0  0  0  0  0
    7.9662  -12.4434   27.2425 C   0  0  0  0  0  0  0  0  0  0  0  0
    9.6632  -15.9639   27.1283 O   0  0  0  0  0  0  0  0  0  0  0  0
  2  1  1  1
  2  4  1  0
  3  2  1  0
  4  6  1  0
  5  4  2  0
  6  7  1  0
  7  8  1  6
  9  8  1  0
 10  9  2  0
 11 10  1  0
 12 11  1  0
 12 13  2  0
 13  9  1  0
 14  7  1  0
 14 15  2  0
 16 17  1  0
 17 18  2  0
 17 27  1  0
 18 19  1  0
 19 20  2  0
 20 21  1  0
 22 21  1  6
 22 23  1  0
 22 24  1  0
 23 14  1  0
 24 25  2  0
 24 28  1  0
 26 20  1  0
 27 26  2  0
M  END
$$$$
