AHY.pdb
     RDKit          3D

 28 29  0  0  1  0  0  0  0  0999 V2000
   12.7524  -19.7713   20.0606 C   0  0  0  0  0  0  0  0  0  0  0  0
   11.8970  -18.8812   19.2150 C   0  0  2  0  0  0  0  0  0  0  0  0
   12.5013  -18.6188   17.9253 N   0  0  0  0  0  0  0  0  0  0  0  0
   11.6021  -17.5823   19.8894 C   0  0  0  0  0  0  0  0  0  0  0  0
   12.4990  -16.7073   20.0507 O   0  0  0  0  0  0  0  0  0  0  0  0
   10.3141  -17.3323   20.3485 N   0  0  0  0  0  0  0  0  0  0  0  0
    9.8912  -15.9913   20.8999 C   0  0  1  0  0  0  0  0  0  0  0  0
    8.5777  -15.7842   20.2283 C   0  0  0  0  0  0  0  0  0  0  0  0
    8.4641  -14.8139   19.1634 C   0  0  0  0  0  0  0  0  0  0  0  0
    9.3160  -13.9856   18.5266 C   0  0  0  0  0  0  0  0  0  0  0  0
    8.6862  -13.3147   17.5252 N   0  0  0  0  0  0  0  0  0  0  0  0
    7.4358  -13.7419   17.5533 C   0  0  0  0  0  0  0  0  0  0  0  0
    7.2614  -14.6326   18.5103 N   0  0  0  0  0  0  0  0  0  0  0  0
    9.6524  -16.3613   22.3474 C   0  0  0  0  0  0  0  0  0  0  0  0
    9.0070  -17.4437   22.6201 O   0  0  0  0  0  0  0  0  0  0  0  0
    6.0115  -11.1706   28.2433 O   0  0  0  0  0  0  0  0  0  0  0  0
    6.4647  -12.0133   27.2358 C   0  0  0  0  0  0  0  0  0  0  0  0
    7.7778  -12.4321   27.2135 C   0  0  0  0  0  0  0  0  0  0  0  0
    8.2385  -13.2691   26.2174 C   0  0  0  0  0  0  0  0  0  0  0  0
    7.4227  -13.7267   25.2032 C   0  0  0  0  0  0  0  0  0  0  0  0
    7.9445  -14.6271   24.1439 C   0  0  0  0  0  0  0  0  0  0  0  0
    9.1702  -15.3806   24.5977 C   0  0  2  0  0  0  0  0  0  0  0  0
   10.0755  -15.6299   23.4639 N   0  0  0  0  0  0  0  0  0  0  0  0
    8.8161  -16.6807   25.2198 C   0  0  0  0  0  0  0  0  0  0  0  0
    8.1229  -17.5385   24.6208 O   0  0  0  0  0  0  0  0  0  0  0  0
    6.1066  -13.3023   25.2323 C   0  0  0  0  0  0  0  0  0  0  0  0
    5.6353  -12.4612   26.2295 C   0  0  0  0  0  0  0  0  0  0  0  0
    9.2651  -16.9571   26.5034 O   0  0  0  0  0  0  0  0  0  0  0  0
  2  1  1  1
  2  4  1  0
  3  2  1  0
  4  6  1  0
  5  4  2  0
  6  7  1  0
  7  8  1  6
  9  8  1  0
 10  9  2  0
 11 10  1  0
 12 11  1  0
 12 13  2  0
 13  9  1  0
 14  7  1  0
 14 15  2  0
 16 17  1  0
 17 18  2  0
 17 27  1  0
 18 19  1  0
 19 20  2  0
 20 21  1  0
 22 21  1  6
 22 23  1  0
 22 24  1  0
 23 14  1  0
 24 25  2  0
 24 28  1  0
 26 20  1  0
 27 26  2  0
M  END
$$$$
