AHY.pdb
     RDKit          3D

 28 29  0  0  1  0  0  0  0  0999 V2000
    8.9536  -12.1239   19.5758 C   0  0  0  0  0  0  0  0  0  0  0  0
    8.5121  -13.4108   18.9530 C   0  0  2  0  0  0  0  0  0  0  0  0
    7.3948  -13.2188   18.0519 N   0  0  0  0  0  0  0  0  0  0  0  0
    8.1427  -14.4314   19.9782 C   0  0  0  0  0  0  0  0  0  0  0  0
    6.9380  -14.6309   20.3023 O   0  0  0  0  0  0  0  0  0  0  0  0
    9.1459  -15.1762   20.5875 N   0  0  0  0  0  0  0  0  0  0  0  0
    8.8544  -16.3487   21.4938 C   0  0  1  0  0  0  0  0  0  0  0  0
    9.5381  -17.4641   20.7814 C   0  0  0  0  0  0  0  0  0  0  0  0
    9.5667  -18.7812   21.3755 C   0  0  0  0  0  0  0  0  0  0  0  0
    9.0405  -19.3457   22.4808 C   0  0  0  0  0  0  0  0  0  0  0  0
    9.3274  -20.6740   22.5333 N   0  0  0  0  0  0  0  0  0  0  0  0
   10.0360  -20.9198   21.4452 C   0  0  0  0  0  0  0  0  0  0  0  0
   10.2009  -19.8239   20.7300 N   0  0  0  0  0  0  0  0  0  0  0  0
    9.6743  -15.9603   22.7046 C   0  0  0  0  0  0  0  0  0  0  0  0
   10.8807  -15.5376   22.5361 O   0  0  0  0  0  0  0  0  0  0  0  0
    4.8352  -12.5657   25.9163 O   0  0  0  0  0  0  0  0  0  0  0  0
    6.1212  -13.0918   25.9277 C   0  0  0  0  0  0  0  0  0  0  0  0
    7.0425  -12.7049   24.9782 C   0  0  0  0  0  0  0  0  0  0  0  0
    8.3226  -13.2212   24.9802 C   0  0  0  0  0  0  0  0  0  0  0  0
    8.7454  -14.1397   25.9188 C   0  0  0  0  0  0  0  0  0  0  0  0
   10.1289  -14.6789   25.8980 C   0  0  0  0  0  0  0  0  0  0  0  0
   10.2138  -15.9848   25.1472 C   0  0  2  0  0  0  0  0  0  0  0  0
    9.2471  -16.0089   24.0371 N   0  0  0  0  0  0  0  0  0  0  0  0
    9.9506  -17.1456   26.0337 C   0  0  0  0  0  0  0  0  0  0  0  0
    8.9374  -17.8730   25.8951 O   0  0  0  0  0  0  0  0  0  0  0  0
    7.8155  -14.5231   26.8682 C   0  0  0  0  0  0  0  0  0  0  0  0
    6.5270  -14.0093   26.8735 C   0  0  0  0  0  0  0  0  0  0  0  0
   10.8526  -17.4362   27.0475 O   0  0  0  0  0  0  0  0  0  0  0  0
  2  1  1  1
  2  4  1  0
  3  2  1  0
  4  6  1  0
  5  4  2  0
  6  7  1  0
  7  8  1  6
  9  8  1  0
 10  9  2  0
 11 10  1  0
 12 11  1  0
 12 13  2  0
 13  9  1  0
 14  7  1  0
 14 15  2  0
 16 17  1  0
 17 18  2  0
 17 27  1  0
 18 19  1  0
 19 20  2  0
 20 21  1  0
 22 21  1  1
 22 23  1  0
 22 24  1  0
 23 14  1  0
 24 25  2  0
 24 28  1  0
 26 20  1  0
 27 26  2  0
M  END
$$$$
