AHY.pdb
     RDKit          3D

 28 29  0  0  1  0  0  0  0  0999 V2000
    6.5732  -19.9972   26.5159 C   0  0  0  0  0  0  0  0  0  0  0  0
    6.9389  -20.0460   25.0658 C   0  0  2  0  0  0  0  0  0  0  0  0
    7.7419  -21.2094   24.7507 N   0  0  0  0  0  0  0  0  0  0  0  0
    7.6671  -18.8177   24.6302 C   0  0  0  0  0  0  0  0  0  0  0  0
    8.8903  -18.6493   24.8980 O   0  0  0  0  0  0  0  0  0  0  0  0
    6.9840  -17.8405   23.9155 N   0  0  0  0  0  0  0  0  0  0  0  0
    7.6640  -16.6110   23.3611 C   0  0  1  0  0  0  0  0  0  0  0  0
    6.8045  -16.2881   22.1880 C   0  0  0  0  0  0  0  0  0  0  0  0
    7.0894  -15.1148   21.3940 C   0  0  0  0  0  0  0  0  0  0  0  0
    6.5940  -13.8631   21.3215 C   0  0  0  0  0  0  0  0  0  0  0  0
    7.2889  -13.1153   20.4230 N   0  0  0  0  0  0  0  0  0  0  0  0
    8.2193  -13.9228   19.9444 C   0  0  0  0  0  0  0  0  0  0  0  0
    8.1364  -15.1188   20.4942 N   0  0  0  0  0  0  0  0  0  0  0  0
    7.3759  -15.6236   24.4707 C   0  0  0  0  0  0  0  0  0  0  0  0
    6.2762  -15.7299   25.1352 O   0  0  0  0  0  0  0  0  0  0  0  0
   11.2652  -17.5662   29.7964 O   0  0  0  0  0  0  0  0  0  0  0  0
   10.7209  -16.5120   29.0733 C   0  0  0  0  0  0  0  0  0  0  0  0
   10.9603  -16.3956   27.7208 C   0  0  0  0  0  0  0  0  0  0  0  0
   10.4246  -15.3524   26.9929 C   0  0  0  0  0  0  0  0  0  0  0  0
    9.6313  -14.3821   27.5695 C   0  0  0  0  0  0  0  0  0  0  0  0
    9.0674  -13.2704   26.7626 C   0  0  0  0  0  0  0  0  0  0  0  0
    7.8394  -13.6963   25.9967 C   0  0  2  0  0  0  0  0  0  0  0  0
    8.2073  -14.5703   24.8706 N   0  0  0  0  0  0  0  0  0  0  0  0
    7.0895  -12.5292   25.4691 C   0  0  0  0  0  0  0  0  0  0  0  0
    7.0401  -12.2689   24.2424 O   0  0  0  0  0  0  0  0  0  0  0  0
    9.3956  -14.5056   28.9268 C   0  0  0  0  0  0  0  0  0  0  0  0
    9.9299  -15.5507   29.6660 C   0  0  0  0  0  0  0  0  0  0  0  0
    6.4220  -11.6998   26.3592 O   0  0  0  0  0  0  0  0  0  0  0  0
  2  1  1  1
  2  4  1  0
  3  2  1  0
  4  6  1  0
  5  4  2  0
  6  7  1  0
  7  8  1  6
  9  8  1  0
 10  9  2  0
 11 10  1  0
 12 11  1  0
 12 13  2  0
 13  9  1  0
 14  7  1  0
 14 15  2  0
 16 17  1  0
 17 18  2  0
 17 27  1  0
 18 19  1  0
 19 20  2  0
 20 21  1  0
 22 21  1  6
 22 23  1  0
 22 24  1  0
 23 14  1  0
 24 25  2  0
 24 28  1  0
 26 20  1  0
 27 26  2  0
M  END
$$$$
