AHY.pdb
     RDKit          3D

 28 29  0  0  1  0  0  0  0  0999 V2000
   14.7541  -15.9535   20.0750 C   0  0  0  0  0  0  0  0  0  0  0  0
   13.6974  -15.2740   19.2621 C   0  0  2  0  0  0  0  0  0  0  0  0
   14.2422  -14.1981   18.4602 N   0  0  0  0  0  0  0  0  0  0  0  0
   12.5941  -14.7381   20.1133 C   0  0  0  0  0  0  0  0  0  0  0  0
   12.6025  -13.5435   20.5244 O   0  0  0  0  0  0  0  0  0  0  0  0
   11.5371  -15.5718   20.4596 N   0  0  0  0  0  0  0  0  0  0  0  0
   10.2815  -15.0620   21.1266 C   0  0  1  0  0  0  0  0  0  0  0  0
    9.2208  -15.5712   20.2131 C   0  0  0  0  0  0  0  0  0  0  0  0
    8.7915  -14.7629   19.0947 C   0  0  0  0  0  0  0  0  0  0  0  0
    9.1679  -13.5814   18.5658 C   0  0  0  0  0  0  0  0  0  0  0  0
    8.4576  -13.3033   17.4398 N   0  0  0  0  0  0  0  0  0  0  0  0
    7.6402  -14.3297   17.2820 C   0  0  0  0  0  0  0  0  0  0  0  0
    7.8060  -15.2187   18.2422 N   0  0  0  0  0  0  0  0  0  0  0  0
   10.2906  -15.8987   22.3872 C   0  0  0  0  0  0  0  0  0  0  0  0
   11.4174  -16.1712   22.9513 O   0  0  0  0  0  0  0  0  0  0  0  0
    6.2448  -11.5688   28.4820 O   0  0  0  0  0  0  0  0  0  0  0  0
    6.7479  -12.2474   27.3788 C   0  0  0  0  0  0  0  0  0  0  0  0
    6.0265  -12.3051   26.2056 C   0  0  0  0  0  0  0  0  0  0  0  0
    6.5168  -12.9764   25.1038 C   0  0  0  0  0  0  0  0  0  0  0  0
    7.7382  -13.6178   25.1147 C   0  0  0  0  0  0  0  0  0  0  0  0
    8.2421  -14.3326   23.9145 C   0  0  0  0  0  0  0  0  0  0  0  0
    8.5917  -15.7682   24.2189 C   0  0  2  0  0  0  0  0  0  0  0  0
    9.1652  -16.4253   23.0328 N   0  0  0  0  0  0  0  0  0  0  0  0
    7.4045  -16.5397   24.6639 C   0  0  0  0  0  0  0  0  0  0  0  0
    7.2909  -16.9683   25.8380 O   0  0  0  0  0  0  0  0  0  0  0  0
    8.4563  -13.5555   26.2952 C   0  0  0  0  0  0  0  0  0  0  0  0
    7.9711  -12.8832   27.4072 C   0  0  0  0  0  0  0  0  0  0  0  0
    6.3883  -16.7953   23.7541 O   0  0  0  0  0  0  0  0  0  0  0  0
  2  1  1  1
  2  4  1  0
  3  2  1  0
  4  6  1  0
  5  4  2  0
  6  7  1  0
  7  8  1  6
  9  8  1  0
 10  9  2  0
 11 10  1  0
 12 11  1  0
 12 13  2  0
 13  9  1  0
 14  7  1  0
 14 15  2  0
 16 17  1  0
 17 18  2  0
 17 27  1  0
 18 19  1  0
 19 20  2  0
 20 21  1  0
 22 21  1  6
 22 23  1  0
 22 24  1  0
 23 14  1  0
 24 25  2  0
 24 28  1  0
 26 20  1  0
 27 26  2  0
M  END
$$$$
