AHY.pdb
     RDKit          3D

 28 29  0  0  1  0  0  0  0  0999 V2000
    6.2944  -19.2011   19.7377 C   0  0  0  0  0  0  0  0  0  0  0  0
    6.9294  -18.9658   21.0719 C   0  0  2  0  0  0  0  0  0  0  0  0
    5.9532  -18.5989   22.0768 N   0  0  0  0  0  0  0  0  0  0  0  0
    7.9867  -17.9135   21.0113 C   0  0  0  0  0  0  0  0  0  0  0  0
    8.9863  -18.0297   20.2474 O   0  0  0  0  0  0  0  0  0  0  0  0
    7.8673  -16.7836   21.8121 N   0  0  0  0  0  0  0  0  0  0  0  0
    8.8379  -15.6285   21.7420 C   0  0  1  0  0  0  0  0  0  0  0  0
    7.9458  -14.5019   21.3494 C   0  0  0  0  0  0  0  0  0  0  0  0
    8.0463  -13.9392   20.0221 C   0  0  0  0  0  0  0  0  0  0  0  0
    8.6076  -12.8355   19.4891 C   0  0  0  0  0  0  0  0  0  0  0  0
    8.4634  -12.8201   18.1368 N   0  0  0  0  0  0  0  0  0  0  0  0
    7.8072  -13.9294   17.8446 C   0  0  0  0  0  0  0  0  0  0  0  0
    7.5404  -14.6226   18.9345 N   0  0  0  0  0  0  0  0  0  0  0  0
    9.1932  -15.4893   23.2061 C   0  0  0  0  0  0  0  0  0  0  0  0
    9.9341  -14.5031   23.5810 O   0  0  0  0  0  0  0  0  0  0  0  0
    5.6054  -10.8764   26.1955 O   0  0  0  0  0  0  0  0  0  0  0  0
    6.2220  -12.1181   26.2894 C   0  0  0  0  0  0  0  0  0  0  0  0
    5.5340  -13.2662   25.9600 C   0  0  0  0  0  0  0  0  0  0  0  0
    6.1368  -14.5046   26.0496 C   0  0  0  0  0  0  0  0  0  0  0  0
    7.4422  -14.6605   26.4678 C   0  0  0  0  0  0  0  0  0  0  0  0
    8.0664  -16.0051   26.5547 C   0  0  0  0  0  0  0  0  0  0  0  0
    9.2432  -16.1418   25.6207 C   0  0  2  0  0  0  0  0  0  0  0  0
    8.7859  -16.3459   24.2362 N   0  0  0  0  0  0  0  0  0  0  0  0
   10.1201  -17.2759   26.0051 C   0  0  0  0  0  0  0  0  0  0  0  0
   10.6498  -17.3528   27.1402 O   0  0  0  0  0  0  0  0  0  0  0  0
    8.1261  -13.5041   26.7966 C   0  0  0  0  0  0  0  0  0  0  0  0
    7.5281  -12.2555   26.7094 C   0  0  0  0  0  0  0  0  0  0  0  0
   10.3621  -18.2827   25.0812 O   0  0  0  0  0  0  0  0  0  0  0  0
  2  1  1  6
  2  4  1  0
  3  2  1  0
  4  6  1  0
  5  4  2  0
  6  7  1  0
  7  8  1  1
  9  8  1  0
 10  9  2  0
 11 10  1  0
 12 11  1  0
 12 13  2  0
 13  9  1  0
 14  7  1  0
 14 15  2  0
 16 17  1  0
 17 18  2  0
 17 27  1  0
 18 19  1  0
 19 20  2  0
 20 21  1  0
 22 21  1  1
 22 23  1  0
 22 24  1  0
 23 14  1  0
 24 25  2  0
 24 28  1  0
 26 20  1  0
 27 26  2  0
M  END
$$$$
