AHY.pdb
     RDKit          3D

 28 29  0  0  1  0  0  0  0  0999 V2000
    7.7907  -12.9621   18.5244 C   0  0  0  0  0  0  0  0  0  0  0  0
    8.7133  -13.9142   19.2181 C   0  0  2  0  0  0  0  0  0  0  0  0
    9.0306  -15.0586   18.3892 N   0  0  0  0  0  0  0  0  0  0  0  0
    8.1521  -14.3923   20.5163 C   0  0  0  0  0  0  0  0  0  0  0  0
    7.7622  -13.5804   21.4024 O   0  0  0  0  0  0  0  0  0  0  0  0
    8.0573  -15.7588   20.7534 N   0  0  0  0  0  0  0  0  0  0  0  0
    7.3551  -16.3296   21.9626 C   0  0  1  0  0  0  0  0  0  0  0  0
    7.2650  -17.7743   21.6111 C   0  0  0  0  0  0  0  0  0  0  0  0
    6.8867  -18.7344   22.6229 C   0  0  0  0  0  0  0  0  0  0  0  0
    6.5647  -18.6721   23.9305 C   0  0  0  0  0  0  0  0  0  0  0  0
    6.2134  -19.8974   24.4046 N   0  0  0  0  0  0  0  0  0  0  0  0
    6.3221  -20.7142   23.3714 C   0  0  0  0  0  0  0  0  0  0  0  0
    6.7188  -20.0646   22.2941 N   0  0  0  0  0  0  0  0  0  0  0  0
    8.4316  -16.1426   23.0092 C   0  0  0  0  0  0  0  0  0  0  0  0
    9.6618  -16.3583   22.6894 O   0  0  0  0  0  0  0  0  0  0  0  0
    4.9841  -11.3844   27.2072 O   0  0  0  0  0  0  0  0  0  0  0  0
    6.1324  -12.0756   26.8408 C   0  0  0  0  0  0  0  0  0  0  0  0
    6.2408  -12.6337   25.5850 C   0  0  0  0  0  0  0  0  0  0  0  0
    7.3769  -13.3223   25.2106 C   0  0  0  0  0  0  0  0  0  0  0  0
    8.4517  -13.4882   26.0595 C   0  0  0  0  0  0  0  0  0  0  0  0
    9.6623  -14.2337   25.6307 C   0  0  0  0  0  0  0  0  0  0  0  0
    9.3486  -15.6690   25.2881 C   0  0  2  0  0  0  0  0  0  0  0  0
    8.2284  -15.7422   24.3355 N   0  0  0  0  0  0  0  0  0  0  0  0
    8.9996  -16.4578   26.4958 C   0  0  0  0  0  0  0  0  0  0  0  0
    7.8690  -16.9818   26.6450 O   0  0  0  0  0  0  0  0  0  0  0  0
    8.3356  -12.9255   27.3177 C   0  0  0  0  0  0  0  0  0  0  0  0
    7.1976  -12.2319   27.7022 C   0  0  0  0  0  0  0  0  0  0  0  0
    9.9525  -16.6215   27.4913 O   0  0  0  0  0  0  0  0  0  0  0  0
  2  1  1  6
  2  4  1  0
  3  2  1  0
  4  6  1  0
  5  4  2  0
  6  7  1  0
  7  8  1  6
  9  8  1  0
 10  9  2  0
 11 10  1  0
 12 11  1  0
 12 13  2  0
 13  9  1  0
 14  7  1  0
 14 15  2  0
 16 17  1  0
 17 18  2  0
 17 27  1  0
 18 19  1  0
 19 20  2  0
 20 21  1  0
 22 21  1  1
 22 23  1  0
 22 24  1  0
 23 14  1  0
 24 25  2  0
 24 28  1  0
 26 20  1  0
 27 26  2  0
M  END
$$$$
