AHY.pdb
     RDKit          3D

 28 29  0  0  1  0  0  0  0  0999 V2000
    5.1760  -18.2309   23.3367 C   0  0  0  0  0  0  0  0  0  0  0  0
    5.5069  -17.6863   21.9829 C   0  0  2  0  0  0  0  0  0  0  0  0
    5.1923  -18.6298   20.9302 N   0  0  0  0  0  0  0  0  0  0  0  0
    6.9429  -17.2931   21.8730 C   0  0  0  0  0  0  0  0  0  0  0  0
    7.8218  -18.1157   21.4894 O   0  0  0  0  0  0  0  0  0  0  0  0
    7.3189  -15.9953   22.1998 N   0  0  0  0  0  0  0  0  0  0  0  0
    8.7561  -15.5318   22.1730 C   0  0  1  0  0  0  0  0  0  0  0  0
    8.6270  -14.1668   21.5904 C   0  0  0  0  0  0  0  0  0  0  0  0
    8.4339  -14.0122   20.1666 C   0  0  0  0  0  0  0  0  0  0  0  0
    8.3375  -14.8511   19.1158 C   0  0  0  0  0  0  0  0  0  0  0  0
    8.0823  -14.1674   17.9682 N   0  0  0  0  0  0  0  0  0  0  0  0
    8.0217  -12.8968   18.3268 C   0  0  0  0  0  0  0  0  0  0  0  0
    8.2245  -12.7606   19.6230 N   0  0  0  0  0  0  0  0  0  0  0  0
    9.0254  -15.4116   23.6569 C   0  0  0  0  0  0  0  0  0  0  0  0
    8.9355  -14.2548   24.2192 O   0  0  0  0  0  0  0  0  0  0  0  0
    5.8958  -10.9853   26.3538 O   0  0  0  0  0  0  0  0  0  0  0  0
    6.4935  -12.2363   26.4454 C   0  0  0  0  0  0  0  0  0  0  0  0
    5.8526  -13.3540   25.9555 C   0  0  0  0  0  0  0  0  0  0  0  0
    6.4372  -14.6014   26.0413 C   0  0  0  0  0  0  0  0  0  0  0  0
    7.6772  -14.7966   26.6136 C   0  0  0  0  0  0  0  0  0  0  0  0
    8.2832  -16.1500   26.6925 C   0  0  0  0  0  0  0  0  0  0  0  0
    9.5962  -16.2237   25.9532 C   0  0  2  0  0  0  0  0  0  0  0  0
    9.3709  -16.4605   24.5177 N   0  0  0  0  0  0  0  0  0  0  0  0
   10.4649  -17.3038   26.4838 C   0  0  0  0  0  0  0  0  0  0  0  0
   10.9171  -17.2798   27.6543 O   0  0  0  0  0  0  0  0  0  0  0  0
    8.3141  -13.6705   27.1028 C   0  0  0  0  0  0  0  0  0  0  0  0
    7.7340  -12.4132   27.0207 C   0  0  0  0  0  0  0  0  0  0  0  0
   10.7875  -18.3735   25.6608 O   0  0  0  0  0  0  0  0  0  0  0  0
  2  1  1  1
  2  4  1  0
  3  2  1  0
  4  6  1  0
  5  4  2  0
  6  7  1  0
  7  8  1  6
  9  8  1  0
 10  9  2  0
 11 10  1  0
 12 11  1  0
 12 13  2  0
 13  9  1  0
 14  7  1  0
 14 15  2  0
 16 17  1  0
 17 18  2  0
 17 27  1  0
 18 19  1  0
 19 20  2  0
 20 21  1  0
 22 21  1  1
 22 23  1  0
 22 24  1  0
 23 14  1  0
 24 25  2  0
 24 28  1  0
 26 20  1  0
 27 26  2  0
M  END
$$$$
