WYS.pdb
     RDKit          3D

 33 35  0  0  1  0  0  0  0  0999 V2000
    6.1602  -18.3653   23.6065 N   0  0  0  0  0  0  0  0  0  0  0  0
    6.7722  -17.0921   23.8007 C   0  0  1  0  0  0  0  0  0  0  0  0
    6.9811  -16.8176   25.2592 C   0  0  0  0  0  0  0  0  0  0  0  0
    6.5892  -15.4599   25.6754 C   0  0  0  0  0  0  0  0  0  0  0  0
    5.2827  -15.0080   25.8009 C   0  0  0  0  0  0  0  0  0  0  0  0
    5.3001  -13.7350   26.2220 N   0  0  0  0  0  0  0  0  0  0  0  0
    6.5749  -13.3229   26.3810 C   0  0  0  0  0  0  0  0  0  0  0  0
    7.0718  -12.1019   26.7875 C   0  0  0  0  0  0  0  0  0  0  0  0
    8.4271  -11.9268   26.8623 C   0  0  0  0  0  0  0  0  0  0  0  0
    9.2583  -12.9736   26.5298 C   0  0  0  0  0  0  0  0  0  0  0  0
    8.7519  -14.1987   26.1220 C   0  0  0  0  0  0  0  0  0  0  0  0
    7.3777  -14.3926   26.0417 C   0  0  0  0  0  0  0  0  0  0  0  0
    8.0325  -17.0321   23.0295 C   0  0  0  0  0  0  0  0  0  0  0  0
    8.5428  -18.0911   22.6064 O   0  0  0  0  0  0  0  0  0  0  0  0
    6.7536  -13.5729   16.7974 O   0  0  0  0  0  0  0  0  0  0  0  0
    7.5138  -13.7276   17.9518 C   0  0  0  0  0  0  0  0  0  0  0  0
    7.3420  -12.9191   19.0556 C   0  0  0  0  0  0  0  0  0  0  0  0
    8.0720  -13.0452   20.2041 C   0  0  0  0  0  0  0  0  0  0  0  0
    9.0407  -14.0491   20.2522 C   0  0  0  0  0  0  0  0  0  0  0  0
    9.8738  -14.2607   21.4327 C   0  0  0  0  0  0  0  0  0  0  0  0
    9.8748  -15.6650   21.9789 C   0  0  2  0  0  0  0  0  0  0  0  0
    8.6685  -15.7994   22.7632 N   0  0  0  0  0  0  0  0  0  0  0  0
   11.0502  -15.9556   22.8311 C   0  0  0  0  0  0  0  0  0  0  0  0
   12.2048  -15.8436   22.3466 O   0  0  0  0  0  0  0  0  0  0  0  0
    9.2261  -14.8694   19.1529 C   0  0  0  0  0  0  0  0  0  0  0  0
    8.4761  -14.7222   18.0041 C   0  0  0  0  0  0  0  0  0  0  0  0
   10.8095  -17.8599   26.5313 O   0  0  0  0  0  0  0  0  0  0  0  0
   11.6687  -16.7606   26.4527 C   0  0  0  0  0  0  0  0  0  0  0  0
   12.0687  -16.6059   24.9978 C   0  0  2  0  0  0  0  0  0  0  0  0
   10.8973  -16.3597   24.1891 N   0  0  0  0  0  0  0  0  0  0  0  0
   12.7856  -17.8093   24.5374 C   0  0  0  0  0  0  0  0  0  0  0  0
   12.3157  -18.4955   23.6076 O   0  0  0  0  0  0  0  0  0  0  0  0
   13.9804  -18.1874   25.1288 O   0  0  0  0  0  0  0  0  0  0  0  0
  2  1  1  1
  3  2  1  0
  4  3  1  0
  4  5  2  0
  6  5  1  0
  7  6  1  0
  8  7  2  0
  9  8  1  0
 10  9  2  0
 10 11  1  0
 11 12  2  0
 12  7  1  0
 12  4  1  0
 13  2  1  0
 14 13  2  0
 16 15  1  0
 16 17  2  0
 18 17  1  0
 19 18  2  0
 20 19  1  0
 21 20  1  1
 21 22  1  0
 22 13  1  0
 23 21  1  0
 24 23  2  0
 25 26  2  0
 25 19  1  0
 26 16  1  0
 27 28  1  0
 29 28  1  1
 29 30  1  0
 30 23  1  0
 31 33  1  0
 31 29  1  0
 32 31  2  0
M  END
$$$$
