WYS.pdb
     RDKit          3D

 33 35  0  0  1  0  0  0  0  0999 V2000
    6.6908  -18.8231   25.2749 N   0  0  0  0  0  0  0  0  0  0  0  0
    6.7967  -17.4303   24.9877 C   0  0  1  0  0  0  0  0  0  0  0  0
    7.4875  -16.7068   26.1038 C   0  0  0  0  0  0  0  0  0  0  0  0
    6.9021  -15.3920   26.4182 C   0  0  0  0  0  0  0  0  0  0  0  0
    5.5725  -15.1669   26.7473 C   0  0  0  0  0  0  0  0  0  0  0  0
    5.3995  -13.8602   26.9944 N   0  0  0  0  0  0  0  0  0  0  0  0
    6.5697  -13.2065   26.8404 C   0  0  0  0  0  0  0  0  0  0  0  0
    6.8667  -11.8670   26.9830 C   0  0  0  0  0  0  0  0  0  0  0  0
    8.1486  -11.4425   26.7605 C   0  0  0  0  0  0  0  0  0  0  0  0
    9.1074  -12.3634   26.4002 C   0  0  0  0  0  0  0  0  0  0  0  0
    8.8018  -13.7089   26.2587 C   0  0  0  0  0  0  0  0  0  0  0  0
    7.5047  -14.1559   26.4820 C   0  0  0  0  0  0  0  0  0  0  0  0
    7.4809  -17.2489   23.6894 C   0  0  0  0  0  0  0  0  0  0  0  0
    7.9525  -18.2451   23.1010 O   0  0  0  0  0  0  0  0  0  0  0  0
    8.2791  -12.9210   15.9554 O   0  0  0  0  0  0  0  0  0  0  0  0
    8.0177  -13.3452   17.2540 C   0  0  0  0  0  0  0  0  0  0  0  0
    7.5318  -14.6062   17.5286 C   0  0  0  0  0  0  0  0  0  0  0  0
    7.2649  -15.0532   18.7922 C   0  0  0  0  0  0  0  0  0  0  0  0
    7.5002  -14.1790   19.8546 C   0  0  0  0  0  0  0  0  0  0  0  0
    7.2427  -14.5623   21.2400 C   0  0  0  0  0  0  0  0  0  0  0  0
    8.0318  -15.7446   21.7401 C   0  0  2  0  0  0  0  0  0  0  0  0
    7.6102  -15.9702   23.1037 N   0  0  0  0  0  0  0  0  0  0  0  0
    9.4951  -15.5212   21.7085 C   0  0  0  0  0  0  0  0  0  0  0  0
   10.0549  -15.2613   20.6132 O   0  0  0  0  0  0  0  0  0  0  0  0
    7.9878  -12.9096   19.5966 C   0  0  0  0  0  0  0  0  0  0  0  0
    8.2496  -12.4813   18.3113 C   0  0  0  0  0  0  0  0  0  0  0  0
   11.8053  -16.5645   24.8318 O   0  0  0  0  0  0  0  0  0  0  0  0
   12.3030  -15.4109   24.2199 C   0  0  0  0  0  0  0  0  0  0  0  0
   11.7015  -15.3446   22.8291 C   0  0  2  0  0  0  0  0  0  0  0  0
   10.2804  -15.5952   22.8954 N   0  0  0  0  0  0  0  0  0  0  0  0
   12.3684  -16.3138   21.9404 C   0  0  0  0  0  0  0  0  0  0  0  0
   11.6928  -17.1717   21.3373 O   0  0  0  0  0  0  0  0  0  0  0  0
   13.7429  -16.2817   21.7674 O   0  0  0  0  0  0  0  0  0  0  0  0
  2  1  1  1
  3  2  1  0
  4  3  1  0
  4  5  2  0
  6  5  1  0
  7  6  1  0
  8  7  2  0
  9  8  1  0
 10  9  2  0
 10 11  1  0
 11 12  2  0
 12  7  1  0
 12  4  1  0
 13  2  1  0
 14 13  2  0
 16 15  1  0
 16 17  2  0
 18 17  1  0
 19 18  2  0
 20 19  1  0
 21 20  1  1
 21 22  1  0
 22 13  1  0
 23 21  1  0
 24 23  2  0
 25 26  2  0
 25 19  1  0
 26 16  1  0
 27 28  1  0
 29 28  1  1
 29 30  1  0
 30 23  1  0
 31 33  1  0
 31 29  1  0
 32 31  2  0
M  END
$$$$
