WYS.pdb
     RDKit          3D

 33 35  0  0  1  0  0  0  0  0999 V2000
    6.7722  -19.0005   25.3378 N   0  0  0  0  0  0  0  0  0  0  0  0
    6.8024  -17.6088   25.0285 C   0  0  1  0  0  0  0  0  0  0  0  0
    7.4955  -16.8370   26.1103 C   0  0  0  0  0  0  0  0  0  0  0  0
    6.9072  -15.5120   26.3719 C   0  0  0  0  0  0  0  0  0  0  0  0
    5.5666  -15.2712   26.6395 C   0  0  0  0  0  0  0  0  0  0  0  0
    5.3931  -13.9585   26.8514 N   0  0  0  0  0  0  0  0  0  0  0  0
    6.5735  -13.3159   26.7335 C   0  0  0  0  0  0  0  0  0  0  0  0
    6.8743  -11.9756   26.8604 C   0  0  0  0  0  0  0  0  0  0  0  0
    8.1676  -11.5644   26.6836 C   0  0  0  0  0  0  0  0  0  0  0  0
    9.1339  -12.4991   26.3838 C   0  0  0  0  0  0  0  0  0  0  0  0
    8.8245  -13.8452   26.2578 C   0  0  0  0  0  0  0  0  0  0  0  0
    7.5157  -14.2788   26.4352 C   0  0  0  0  0  0  0  0  0  0  0  0
    7.4331  -17.4151   23.7051 C   0  0  0  0  0  0  0  0  0  0  0  0
    8.0981  -18.3451   23.2013 O   0  0  0  0  0  0  0  0  0  0  0  0
    8.4117  -13.2081   15.8816 O   0  0  0  0  0  0  0  0  0  0  0  0
    8.0839  -13.6131   17.1712 C   0  0  0  0  0  0  0  0  0  0  0  0
    7.6972  -14.9055   17.4570 C   0  0  0  0  0  0  0  0  0  0  0  0
    7.3691  -15.3347   18.7124 C   0  0  0  0  0  0  0  0  0  0  0  0
    7.4321  -14.4076   19.7539 C   0  0  0  0  0  0  0  0  0  0  0  0
    7.0972  -14.7686   21.1287 C   0  0  0  0  0  0  0  0  0  0  0  0
    7.8300  -15.9648   21.6789 C   0  0  2  0  0  0  0  0  0  0  0  0
    7.2967  -16.1980   23.0016 N   0  0  0  0  0  0  0  0  0  0  0  0
    9.2935  -15.7584   21.7682 C   0  0  0  0  0  0  0  0  0  0  0  0
    9.9485  -15.5317   20.7193 O   0  0  0  0  0  0  0  0  0  0  0  0
    7.8184  -13.1062   19.4845 C   0  0  0  0  0  0  0  0  0  0  0  0
    8.1450  -12.6967   18.2079 C   0  0  0  0  0  0  0  0  0  0  0  0
   11.4781  -16.4855   25.2337 O   0  0  0  0  0  0  0  0  0  0  0  0
   11.8326  -15.3473   24.5047 C   0  0  0  0  0  0  0  0  0  0  0  0
   11.3977  -15.5788   23.0702 C   0  0  2  0  0  0  0  0  0  0  0  0
    9.9729  -15.8119   23.0198 N   0  0  0  0  0  0  0  0  0  0  0  0
   12.1398  -16.7137   22.4912 C   0  0  0  0  0  0  0  0  0  0  0  0
   13.3822  -16.6588   22.3922 O   0  0  0  0  0  0  0  0  0  0  0  0
   11.4693  -17.8450   22.0542 O   0  0  0  0  0  0  0  0  0  0  0  0
  2  1  1  1
  3  2  1  0
  4  3  1  0
  4  5  2  0
  6  5  1  0
  7  6  1  0
  8  7  2  0
  9  8  1  0
 10  9  2  0
 10 11  1  0
 11 12  2  0
 12  7  1  0
 12  4  1  0
 13  2  1  0
 14 13  2  0
 16 15  1  0
 16 17  2  0
 18 17  1  0
 19 18  2  0
 20 19  1  0
 21 20  1  1
 21 22  1  0
 22 13  1  0
 23 21  1  0
 24 23  2  0
 25 26  2  0
 25 19  1  0
 26 16  1  0
 27 28  1  0
 29 28  1  1
 29 30  1  0
 30 23  1  0
 31 33  1  0
 31 29  1  0
 32 31  2  0
M  END
$$$$
