WYS.pdb
     RDKit          3D

 33 35  0  0  1  0  0  0  0  0999 V2000
    7.8014  -17.3046   24.5219 N   0  0  0  0  0  0  0  0  0  0  0  0
    7.2579  -16.9237   23.2597 C   0  0  1  0  0  0  0  0  0  0  0  0
    6.4557  -15.6637   23.3829 C   0  0  0  0  0  0  0  0  0  0  0  0
    6.4477  -15.0888   24.7393 C   0  0  0  0  0  0  0  0  0  0  0  0
    5.9637  -15.7247   25.8742 C   0  0  0  0  0  0  0  0  0  0  0  0
    6.1376  -14.9199   26.9327 N   0  0  0  0  0  0  0  0  0  0  0  0
    6.7210  -13.7682   26.5410 C   0  0  0  0  0  0  0  0  0  0  0  0
    7.0818  -12.6580   27.2760 C   0  0  0  0  0  0  0  0  0  0  0  0
    7.6611  -11.5960   26.6360 C   0  0  0  0  0  0  0  0  0  0  0  0
    7.8681  -11.6638   25.2759 C   0  0  0  0  0  0  0  0  0  0  0  0
    7.5029  -12.7833   24.5430 C   0  0  0  0  0  0  0  0  0  0  0  0
    6.9143  -13.8705   25.1786 C   0  0  0  0  0  0  0  0  0  0  0  0
    8.3520  -16.8013   22.2725 C   0  0  0  0  0  0  0  0  0  0  0  0
    8.0901  -16.8871   21.0540 O   0  0  0  0  0  0  0  0  0  0  0  0
    6.9966  -13.1164   17.4085 O   0  0  0  0  0  0  0  0  0  0  0  0
    7.7429  -13.4256   18.5408 C   0  0  0  0  0  0  0  0  0  0  0  0
    7.2017  -13.3843   19.8083 C   0  0  0  0  0  0  0  0  0  0  0  0
    7.9075  -13.6821   20.9401 C   0  0  0  0  0  0  0  0  0  0  0  0
    9.2470  -14.0466   20.7943 C   0  0  0  0  0  0  0  0  0  0  0  0
   10.0850  -14.3791   21.9431 C   0  0  0  0  0  0  0  0  0  0  0  0
   10.6377  -15.7809   21.9548 C   0  0  2  0  0  0  0  0  0  0  0  0
    9.6866  -16.5892   22.6831 N   0  0  0  0  0  0  0  0  0  0  0  0
   11.9643  -15.8764   22.6055 C   0  0  0  0  0  0  0  0  0  0  0  0
   12.5370  -14.8266   22.9933 O   0  0  0  0  0  0  0  0  0  0  0  0
    9.8060  -14.0931   19.5290 C   0  0  0  0  0  0  0  0  0  0  0  0
    9.0723  -13.7877   18.4010 C   0  0  0  0  0  0  0  0  0  0  0  0
   11.3500  -17.3841   26.0786 O   0  0  0  0  0  0  0  0  0  0  0  0
   11.1648  -17.5612   24.7049 C   0  0  0  0  0  0  0  0  0  0  0  0
   12.5344  -17.7798   24.0911 C   0  0  2  0  0  0  0  0  0  0  0  0
   12.6035  -17.1351   22.8002 N   0  0  0  0  0  0  0  0  0  0  0  0
   12.8155  -19.2228   23.9771 C   0  0  0  0  0  0  0  0  0  0  0  0
   12.4303  -19.8539   22.9724 O   0  0  0  0  0  0  0  0  0  0  0  0
   13.5057  -19.8877   24.9780 O   0  0  0  0  0  0  0  0  0  0  0  0
  2  1  1  1
  3  2  1  0
  4  3  1  0
  4  5  2  0
  6  5  1  0
  7  6  1  0
  8  7  2  0
  9  8  1  0
 10  9  2  0
 10 11  1  0
 11 12  2  0
 12  7  1  0
 12  4  1  0
 13  2  1  0
 14 13  2  0
 16 15  1  0
 16 17  2  0
 18 17  1  0
 19 18  2  0
 20 19  1  0
 21 20  1  1
 21 22  1  0
 22 13  1  0
 23 21  1  0
 24 23  2  0
 25 26  2  0
 25 19  1  0
 26 16  1  0
 27 28  1  0
 29 28  1  6
 29 30  1  0
 30 23  1  0
 31 33  1  0
 31 29  1  0
 32 31  2  0
M  END
$$$$
