WYS.pdb
     RDKit          3D

 33 35  0  0  1  0  0  0  0  0999 V2000
    6.5619  -18.4331   25.8344 N   0  0  0  0  0  0  0  0  0  0  0  0
    7.0696  -17.1431   25.5004 C   0  0  1  0  0  0  0  0  0  0  0  0
    8.2638  -16.8060   26.3410 C   0  0  0  0  0  0  0  0  0  0  0  0
    8.1231  -15.5560   27.1078 C   0  0  0  0  0  0  0  0  0  0  0  0
    8.5742  -15.3592   28.4057 C   0  0  0  0  0  0  0  0  0  0  0  0
    8.2997  -14.1000   28.7766 N   0  0  0  0  0  0  0  0  0  0  0  0
    7.6801  -13.4509   27.7691 C   0  0  0  0  0  0  0  0  0  0  0  0
    7.2114  -12.1554   27.6997 C   0  0  0  0  0  0  0  0  0  0  0  0
    6.6023  -11.7290   26.5508 C   0  0  0  0  0  0  0  0  0  0  0  0
    6.4733  -12.6042   25.4950 C   0  0  0  0  0  0  0  0  0  0  0  0
    6.9470  -13.9055   25.5716 C   0  0  0  0  0  0  0  0  0  0  0  0
    7.5688  -14.3534   26.7313 C   0  0  0  0  0  0  0  0  0  0  0  0
    7.3671  -17.0939   24.0527 C   0  0  0  0  0  0  0  0  0  0  0  0
    7.5609  -18.1598   23.4306 O   0  0  0  0  0  0  0  0  0  0  0  0
    8.2414  -12.8906   16.2005 O   0  0  0  0  0  0  0  0  0  0  0  0
    7.9536  -13.2973   17.4991 C   0  0  0  0  0  0  0  0  0  0  0  0
    7.3479  -14.5059   17.7707 C   0  0  0  0  0  0  0  0  0  0  0  0
    7.0521  -14.9344   19.0343 C   0  0  0  0  0  0  0  0  0  0  0  0
    7.3849  -14.0965   20.0999 C   0  0  0  0  0  0  0  0  0  0  0  0
    7.1060  -14.4635   21.4855 C   0  0  0  0  0  0  0  0  0  0  0  0
    7.7491  -15.7423   21.9566 C   0  0  2  0  0  0  0  0  0  0  0  0
    7.4357  -15.8638   23.3621 N   0  0  0  0  0  0  0  0  0  0  0  0
    9.2189  -15.7530   21.7779 C   0  0  0  0  0  0  0  0  0  0  0  0
    9.6990  -15.6679   20.6191 O   0  0  0  0  0  0  0  0  0  0  0  0
    7.9933  -12.8798   19.8449 C   0  0  0  0  0  0  0  0  0  0  0  0
    8.2820  -12.4693   18.5595 C   0  0  0  0  0  0  0  0  0  0  0  0
   11.8014  -16.9191   24.7203 O   0  0  0  0  0  0  0  0  0  0  0  0
   12.2419  -15.7891   24.0263 C   0  0  0  0  0  0  0  0  0  0  0  0
   11.5264  -15.7756   22.6889 C   0  0  2  0  0  0  0  0  0  0  0  0
   10.0988  -15.8579   22.8940 N   0  0  0  0  0  0  0  0  0  0  0  0
   12.0043  -16.8870   21.8460 C   0  0  0  0  0  0  0  0  0  0  0  0
   13.2070  -16.9480   21.5204 O   0  0  0  0  0  0  0  0  0  0  0  0
   11.1282  -17.8682   21.4100 O   0  0  0  0  0  0  0  0  0  0  0  0
  2  1  1  1
  3  2  1  0
  4  3  1  0
  4  5  2  0
  6  5  1  0
  7  6  1  0
  8  7  2  0
  9  8  1  0
 10  9  2  0
 10 11  1  0
 11 12  2  0
 12  7  1  0
 12  4  1  0
 13  2  1  0
 14 13  2  0
 16 15  1  0
 16 17  2  0
 18 17  1  0
 19 18  2  0
 20 19  1  0
 21 20  1  1
 21 22  1  0
 22 13  1  0
 23 21  1  0
 24 23  2  0
 25 26  2  0
 25 19  1  0
 26 16  1  0
 27 28  1  0
 29 28  1  1
 29 30  1  0
 30 23  1  0
 31 33  1  0
 31 29  1  0
 32 31  2  0
M  END
$$$$
