WYS.pdb
     RDKit          3D

 33 35  0  0  1  0  0  0  0  0999 V2000
    6.0439  -18.3384   23.4411 N   0  0  0  0  0  0  0  0  0  0  0  0
    6.6879  -17.1091   23.7689 C   0  0  1  0  0  0  0  0  0  0  0  0
    6.7397  -16.9137   25.2540 C   0  0  0  0  0  0  0  0  0  0  0  0
    6.4653  -15.5324   25.6864 C   0  0  0  0  0  0  0  0  0  0  0  0
    5.2056  -14.9544   25.7645 C   0  0  0  0  0  0  0  0  0  0  0  0
    5.3294  -13.6985   26.2179 N   0  0  0  0  0  0  0  0  0  0  0  0
    6.6299  -13.4197   26.4442 C   0  0  0  0  0  0  0  0  0  0  0  0
    7.2258  -12.2633   26.9032 C   0  0  0  0  0  0  0  0  0  0  0  0
    8.5867  -12.2266   27.0430 C   0  0  0  0  0  0  0  0  0  0  0  0
    9.3247  -13.3443   26.7218 C   0  0  0  0  0  0  0  0  0  0  0  0
    8.7190  -14.5038   26.2610 C   0  0  0  0  0  0  0  0  0  0  0  0
    7.3377  -14.5572   26.1143 C   0  0  0  0  0  0  0  0  0  0  0  0
    8.0302  -17.0792   23.1492 C   0  0  0  0  0  0  0  0  0  0  0  0
    8.5685  -18.1517   22.8016 O   0  0  0  0  0  0  0  0  0  0  0  0
    6.8373  -13.4603   17.1327 O   0  0  0  0  0  0  0  0  0  0  0  0
    7.6342  -13.7026   18.2465 C   0  0  0  0  0  0  0  0  0  0  0  0
    8.3638  -14.8644   18.3862 C   0  0  0  0  0  0  0  0  0  0  0  0
    9.1558  -15.1325   19.4673 C   0  0  0  0  0  0  0  0  0  0  0  0
    9.2229  -14.1727   20.4785 C   0  0  0  0  0  0  0  0  0  0  0  0
   10.0377  -14.3683   21.6744 C   0  0  0  0  0  0  0  0  0  0  0  0
    9.9876  -15.7512   22.2707 C   0  0  2  0  0  0  0  0  0  0  0  0
    8.7134  -15.8602   22.9436 N   0  0  0  0  0  0  0  0  0  0  0  0
   11.0784  -16.0058   23.2390 C   0  0  0  0  0  0  0  0  0  0  0  0
   12.2732  -15.9001   22.8625 O   0  0  0  0  0  0  0  0  0  0  0  0
    8.4968  -13.0009   20.3541 C   0  0  0  0  0  0  0  0  0  0  0  0
    7.7039  -12.7532   19.2523 C   0  0  0  0  0  0  0  0  0  0  0  0
   10.2217  -17.4585   26.9144 O   0  0  0  0  0  0  0  0  0  0  0  0
   11.3640  -16.6537   26.9295 C   0  0  0  0  0  0  0  0  0  0  0  0
   11.8904  -16.5938   25.5083 C   0  0  2  0  0  0  0  0  0  0  0  0
   10.7994  -16.3682   24.5887 N   0  0  0  0  0  0  0  0  0  0  0  0
   12.6096  -17.8385   25.1802 C   0  0  0  0  0  0  0  0  0  0  0  0
   12.2614  -18.5159   24.1922 O   0  0  0  0  0  0  0  0  0  0  0  0
   13.6722  -18.2652   25.9605 O   0  0  0  0  0  0  0  0  0  0  0  0
  2  1  1  1
  3  2  1  0
  4  3  1  0
  4  5  2  0
  6  5  1  0
  7  6  1  0
  8  7  2  0
  9  8  1  0
 10  9  2  0
 10 11  1  0
 11 12  2  0
 12  7  1  0
 12  4  1  0
 13  2  1  0
 14 13  2  0
 16 15  1  0
 16 17  2  0
 18 17  1  0
 19 18  2  0
 20 19  1  0
 21 20  1  1
 21 22  1  0
 22 13  1  0
 23 21  1  0
 24 23  2  0
 25 26  2  0
 25 19  1  0
 26 16  1  0
 27 28  1  0
 29 28  1  1
 29 30  1  0
 30 23  1  0
 31 33  1  0
 31 29  1  0
 32 31  2  0
M  END
$$$$
