WYS.pdb
     RDKit          3D

 33 35  0  0  1  0  0  0  0  0999 V2000
    6.8895  -17.8716   26.0863 N   0  0  0  0  0  0  0  0  0  0  0  0
    7.1566  -16.6485   25.4034 C   0  0  1  0  0  0  0  0  0  0  0  0
    8.5078  -16.1156   25.7727 C   0  0  0  0  0  0  0  0  0  0  0  0
    8.4736  -15.0453   26.7844 C   0  0  0  0  0  0  0  0  0  0  0  0
    8.9877  -15.1436   28.0700 C   0  0  0  0  0  0  0  0  0  0  0  0
    8.8047  -13.9758   28.7033 N   0  0  0  0  0  0  0  0  0  0  0  0
    8.1851  -13.1023   27.8828 C   0  0  0  0  0  0  0  0  0  0  0  0
    7.7929  -11.7983   28.1032 C   0  0  0  0  0  0  0  0  0  0  0  0
    7.1647  -11.1137   27.0983 C   0  0  0  0  0  0  0  0  0  0  0  0
    6.9408  -11.7445   25.8946 C   0  0  0  0  0  0  0  0  0  0  0  0
    7.3380  -13.0559   25.6797 C   0  0  0  0  0  0  0  0  0  0  0  0
    7.9779  -13.7644   26.6901 C   0  0  0  0  0  0  0  0  0  0  0  0
    7.0126  -16.8596   23.9469 C   0  0  0  0  0  0  0  0  0  0  0  0
    7.1670  -18.0064   23.4758 O   0  0  0  0  0  0  0  0  0  0  0  0
    8.3018  -13.1767   15.9392 O   0  0  0  0  0  0  0  0  0  0  0  0
    7.9533  -13.4323   17.2612 C   0  0  0  0  0  0  0  0  0  0  0  0
    8.4045  -12.6487   18.3022 C   0  0  0  0  0  0  0  0  0  0  0  0
    8.0805  -12.8730   19.6109 C   0  0  0  0  0  0  0  0  0  0  0  0
    7.2478  -13.9557   19.8984 C   0  0  0  0  0  0  0  0  0  0  0  0
    6.8484  -14.2795   21.2652 C   0  0  0  0  0  0  0  0  0  0  0  0
    7.2163  -15.6632   21.7347 C   0  0  2  0  0  0  0  0  0  0  0  0
    6.7037  -15.7882   23.0801 N   0  0  0  0  0  0  0  0  0  0  0  0
    8.6770  -15.9050   21.7407 C   0  0  0  0  0  0  0  0  0  0  0  0
    9.3913  -15.3392   22.6069 O   0  0  0  0  0  0  0  0  0  0  0  0
    6.7860  -14.7525   18.8653 C   0  0  0  0  0  0  0  0  0  0  0  0
    7.1273  -14.5054   17.5514 C   0  0  0  0  0  0  0  0  0  0  0  0
   10.4138  -19.1069   20.6844 O   0  0  0  0  0  0  0  0  0  0  0  0
   11.2768  -18.1068   21.1401 C   0  0  0  0  0  0  0  0  0  0  0  0
   10.7264  -16.7808   20.6508 C   0  0  2  0  0  0  0  0  0  0  0  0
    9.2880  -16.7662   20.7837 N   0  0  0  0  0  0  0  0  0  0  0  0
   11.1304  -16.5483   19.2520 C   0  0  0  0  0  0  0  0  0  0  0  0
   10.2608  -16.4036   18.3693 O   0  0  0  0  0  0  0  0  0  0  0  0
   12.4710  -16.4884   18.9061 O   0  0  0  0  0  0  0  0  0  0  0  0
  2  1  1  1
  3  2  1  0
  4  3  1  0
  4  5  2  0
  6  5  1  0
  7  6  1  0
  8  7  2  0
  9  8  1  0
 10  9  2  0
 10 11  1  0
 11 12  2  0
 12  7  1  0
 12  4  1  0
 13  2  1  0
 14 13  2  0
 16 15  1  0
 16 17  2  0
 18 17  1  0
 19 18  2  0
 20 19  1  0
 21 20  1  1
 21 22  1  0
 22 13  1  0
 23 21  1  0
 24 23  2  0
 25 26  2  0
 25 19  1  0
 26 16  1  0
 27 28  1  0
 29 28  1  6
 29 30  1  0
 30 23  1  0
 31 33  1  0
 31 29  1  0
 32 31  2  0
M  END
$$$$
