WYS.pdb
     RDKit          3D

 33 35  0  0  1  0  0  0  0  0999 V2000
    7.4804  -17.0777   22.1095 N   0  0  0  0  0  0  0  0  0  0  0  0
    7.9727  -15.7411   22.0407 C   0  0  1  0  0  0  0  0  0  0  0  0
    6.8734  -14.7853   21.6883 C   0  0  0  0  0  0  0  0  0  0  0  0
    6.6787  -14.6041   20.2394 C   0  0  0  0  0  0  0  0  0  0  0  0
    5.6720  -15.1945   19.4879 C   0  0  0  0  0  0  0  0  0  0  0  0
    5.7836  -14.7893   18.2144 N   0  0  0  0  0  0  0  0  0  0  0  0
    6.8317  -13.9487   18.0918 C   0  0  0  0  0  0  0  0  0  0  0  0
    7.3248  -13.2967   16.9806 C   0  0  0  0  0  0  0  0  0  0  0  0
    8.4227  -12.4908   17.1150 C   0  0  0  0  0  0  0  0  0  0  0  0
    9.0059  -12.3524   18.3551 C   0  0  0  0  0  0  0  0  0  0  0  0
    8.5047  -13.0109   19.4682 C   0  0  0  0  0  0  0  0  0  0  0  0
    7.3897  -13.8323   19.3483 C   0  0  0  0  0  0  0  0  0  0  0  0
    8.6320  -15.3960   23.3185 C   0  0  0  0  0  0  0  0  0  0  0  0
    8.2668  -14.3757   23.9402 O   0  0  0  0  0  0  0  0  0  0  0  0
   11.1592  -15.7651   31.4744 O   0  0  0  0  0  0  0  0  0  0  0  0
   10.6949  -15.8131   30.1642 C   0  0  0  0  0  0  0  0  0  0  0  0
   10.4170  -14.6709   29.4434 C   0  0  0  0  0  0  0  0  0  0  0  0
    9.9599  -14.6841   28.1554 C   0  0  0  0  0  0  0  0  0  0  0  0
    9.7676  -15.9251   27.5462 C   0  0  0  0  0  0  0  0  0  0  0  0
    9.2791  -16.0434   26.1751 C   0  0  0  0  0  0  0  0  0  0  0  0
   10.3323  -15.9359   25.1028 C   0  0  2  0  0  0  0  0  0  0  0  0
    9.6662  -16.1992   23.8477 N   0  0  0  0  0  0  0  0  0  0  0  0
   11.4429  -16.8987   25.2814 C   0  0  0  0  0  0  0  0  0  0  0  0
   11.1917  -18.1302   25.3105 O   0  0  0  0  0  0  0  0  0  0  0  0
   10.0418  -17.0815   28.2555 C   0  0  0  0  0  0  0  0  0  0  0  0
   10.5026  -17.0422   29.5555 C   0  0  0  0  0  0  0  0  0  0  0  0
   15.9251  -18.0499   24.5656 O   0  0  0  0  0  0  0  0  0  0  0  0
   14.9919  -17.0098   24.5693 C   0  0  0  0  0  0  0  0  0  0  0  0
   13.8584  -17.4262   25.4870 C   0  0  2  0  0  0  0  0  0  0  0  0
   12.7903  -16.4558   25.4210 N   0  0  0  0  0  0  0  0  0  0  0  0
   14.3520  -17.5757   26.8683 C   0  0  0  0  0  0  0  0  0  0  0  0
   13.9398  -16.8097   27.7625 O   0  0  0  0  0  0  0  0  0  0  0  0
   15.2725  -18.5621   27.1850 O   0  0  0  0  0  0  0  0  0  0  0  0
  2  1  1  1
  3  2  1  0
  4  3  1  0
  4  5  2  0
  6  5  1  0
  7  6  1  0
  8  7  2  0
  9  8  1  0
 10  9  2  0
 10 11  1  0
 11 12  2  0
 12  7  1  0
 12  4  1  0
 13  2  1  0
 14 13  2  0
 16 15  1  0
 16 17  2  0
 18 17  1  0
 19 18  2  0
 20 19  1  0
 21 20  1  1
 21 22  1  0
 22 13  1  0
 23 21  1  0
 24 23  2  0
 25 26  2  0
 25 19  1  0
 26 16  1  0
 27 28  1  0
 29 28  1  6
 29 30  1  0
 30 23  1  0
 31 33  1  0
 31 29  1  0
 32 31  2  0
M  END
$$$$
