KFC.pdb
     RDKit          3D

 27 27  0  0  1  0  0  0  0  0999 V2000
   30.3289  -32.0977  -20.6105 N   0  0  0  0  0  0  0  0  0  0  0  0
   29.8352  -31.6939  -19.3217 C   0  0  1  0  0  0  0  0  0  0  0  0
   28.4990  -31.0520  -19.3572 C   0  0  0  0  0  0  0  0  0  0  0  0
   28.4624  -29.5822  -19.5737 C   0  0  0  0  0  0  0  0  0  0  0  0
   29.6672  -28.8365  -19.1072 C   0  0  0  0  0  0  0  0  0  0  0  0
   29.5485  -27.3405  -19.4549 C   0  0  0  0  0  0  0  0  0  0  0  0
   30.6849  -26.6044  -18.9838 N   0  0  0  0  0  0  0  0  0  0  0  0
   29.8804  -32.8918  -18.4392 C   0  0  0  0  0  0  0  0  0  0  0  0
   29.5828  -34.0452  -18.8142 O   0  0  0  0  0  0  0  0  0  0  0  0
   30.2848  -32.7039  -17.0995 N   0  0  0  0  0  0  0  0  0  0  0  0
   30.3310  -33.7542  -16.1094 C   0  0  1  0  0  0  0  0  0  0  0  0
   31.7104  -33.7855  -15.5228 C   0  0  0  0  0  0  0  0  0  0  0  0
   32.7274  -34.3257  -16.4273 C   0  0  0  0  0  0  0  0  0  0  0  0
   32.8558  -35.6962  -16.5319 C   0  0  0  0  0  0  0  0  0  0  0  0
   33.7975  -36.2835  -17.3688 C   0  0  0  0  0  0  0  0  0  0  0  0
   34.6348  -35.4945  -18.1225 C   0  0  0  0  0  0  0  0  0  0  0  0
   34.5221  -34.1369  -18.0318 C   0  0  0  0  0  0  0  0  0  0  0  0
   33.5833  -33.5638  -17.1974 C   0  0  0  0  0  0  0  0  0  0  0  0
   29.3650  -33.5708  -15.0232 C   0  0  0  0  0  0  0  0  0  0  0  0
   29.3357  -32.6074  -14.2208 O   0  0  0  0  0  0  0  0  0  0  0  0
   28.3619  -34.5619  -14.8446 N   0  0  0  0  0  0  0  0  0  0  0  0
   27.3560  -34.4585  -13.8211 C   0  0  1  0  0  0  0  0  0  0  0  0
   26.4601  -33.2786  -14.1951 C   0  0  0  0  0  0  0  0  0  0  0  0
   25.1414  -33.0369  -13.0075 S   0  0  0  0  0  0  0  0  0  0  0  0
   26.5984  -35.6805  -13.6045 C   0  0  0  0  0  0  0  0  0  0  0  0
   26.1507  -35.9587  -12.4724 O   0  0  0  0  0  0  0  0  0  0  0  0
   26.3656  -36.5479  -14.6507 O   0  0  0  0  0  0  0  0  0  0  0  0
  2  1  1  6
  2  3  1  0
  3  4  1  0
  4  5  1  0
  5  6  1  0
  6  7  1  0
  8  2  1  0
  9  8  2  0
 10  8  1  0
 11 10  1  0
 11 12  1  1
 12 13  1  0
 13 14  2  0
 14 15  1  0
 16 15  2  0
 17 16  1  0
 18 13  1  0
 18 17  2  0
 19 20  2  0
 19 11  1  0
 21 19  1  0
 22 21  1  0
 22 23  1  6
 24 23  1  0
 25 27  1  0
 25 22  1  0
 26 25  2  0
M  END
$$$$
