KFC.pdb
     RDKit          3D

 27 27  0  0  1  0  0  0  0  0999 V2000
   28.3361  -20.5041  -17.2997 N   0  0  0  0  0  0  0  0  0  0  0  0
   27.0520  -19.8967  -17.0757 C   0  0  1  0  0  0  0  0  0  0  0  0
   26.2205  -19.7670  -18.2965 C   0  0  0  0  0  0  0  0  0  0  0  0
   26.7048  -18.8335  -19.3464 C   0  0  0  0  0  0  0  0  0  0  0  0
   26.9118  -17.4242  -18.9035 C   0  0  0  0  0  0  0  0  0  0  0  0
   27.4451  -16.5628  -20.0639 C   0  0  0  0  0  0  0  0  0  0  0  0
   27.6579  -15.2065  -19.6509 N   0  0  0  0  0  0  0  0  0  0  0  0
   26.3816  -20.6724  -15.9965 C   0  0  0  0  0  0  0  0  0  0  0  0
   26.2053  -21.9082  -16.0331 O   0  0  0  0  0  0  0  0  0  0  0  0
   25.9205  -19.9608  -14.8676 N   0  0  0  0  0  0  0  0  0  0  0  0
   25.2547  -20.5689  -13.7395 C   0  0  1  0  0  0  0  0  0  0  0  0
   25.7476  -19.9037  -12.4896 C   0  0  0  0  0  0  0  0  0  0  0  0
   27.0881  -20.3281  -12.0810 C   0  0  0  0  0  0  0  0  0  0  0  0
   28.1798  -19.7175  -12.6650 C   0  0  0  0  0  0  0  0  0  0  0  0
   29.4827  -20.0660  -12.3293 C   0  0  0  0  0  0  0  0  0  0  0  0
   29.7125  -21.0447  -11.3907 C   0  0  0  0  0  0  0  0  0  0  0  0
   28.6449  -21.6597  -10.8024 C   0  0  0  0  0  0  0  0  0  0  0  0
   27.3546  -21.3058  -11.1433 C   0  0  0  0  0  0  0  0  0  0  0  0
   23.7957  -20.4453  -13.7909 C   0  0  0  0  0  0  0  0  0  0  0  0
   23.1544  -19.3846  -13.9825 O   0  0  0  0  0  0  0  0  0  0  0  0
   23.0171  -21.6206  -13.6100 N   0  0  0  0  0  0  0  0  0  0  0  0
   21.5787  -21.5973  -13.6271 C   0  0  1  0  0  0  0  0  0  0  0  0
   21.1118  -23.0436  -13.7848 C   0  0  0  0  0  0  0  0  0  0  0  0
   19.3326  -23.1917  -13.6425 S   0  0  0  0  0  0  0  0  0  0  0  0
   20.9795  -20.9460  -12.4734 C   0  0  0  0  0  0  0  0  0  0  0  0
   21.5159  -21.0258  -11.3485 O   0  0  0  0  0  0  0  0  0  0  0  0
   19.8085  -20.2310  -12.6099 O   0  0  0  0  0  0  0  0  0  0  0  0
  2  1  1  6
  2  3  1  0
  3  4  1  0
  4  5  1  0
  5  6  1  0
  6  7  1  0
  8  2  1  0
  9  8  2  0
 10  8  1  0
 11 10  1  0
 11 12  1  1
 12 13  1  0
 13 14  2  0
 14 15  1  0
 16 15  2  0
 17 16  1  0
 18 13  1  0
 18 17  2  0
 19 20  2  0
 19 11  1  0
 21 19  1  0
 22 21  1  0
 22 23  1  1
 24 23  1  0
 25 27  1  0
 25 22  1  0
 26 25  2  0
M  END
$$$$
