KFC.pdb
     RDKit          3D

 27 27  0  0  1  0  0  0  0  0999 V2000
   26.1789  -21.5774  -18.6688 N   0  0  0  0  0  0  0  0  0  0  0  0
   26.8119  -21.1940  -17.4358 C   0  0  1  0  0  0  0  0  0  0  0  0
   28.1089  -20.4970  -17.6102 C   0  0  0  0  0  0  0  0  0  0  0  0
   29.2979  -21.3442  -17.8878 C   0  0  0  0  0  0  0  0  0  0  0  0
   29.0307  -22.8082  -17.9892 C   0  0  0  0  0  0  0  0  0  0  0  0
   30.3176  -23.5712  -18.3564 C   0  0  0  0  0  0  0  0  0  0  0  0
   31.0293  -23.9873  -17.1836 N   0  0  0  0  0  0  0  0  0  0  0  0
   25.8220  -20.3934  -16.6644 C   0  0  0  0  0  0  0  0  0  0  0  0
   26.1027  -19.7392  -15.6384 O   0  0  0  0  0  0  0  0  0  0  0  0
   24.4881  -20.3782  -17.1273 N   0  0  0  0  0  0  0  0  0  0  0  0
   23.4466  -19.5421  -16.5781 C   0  0  1  0  0  0  0  0  0  0  0  0
   22.8890  -18.6992  -17.6856 C   0  0  0  0  0  0  0  0  0  0  0  0
   23.8607  -17.7759  -18.2749 C   0  0  0  0  0  0  0  0  0  0  0  0
   24.1123  -16.5822  -17.6287 C   0  0  0  0  0  0  0  0  0  0  0  0
   25.0207  -15.6553  -18.1263 C   0  0  0  0  0  0  0  0  0  0  0  0
   25.6986  -15.9155  -19.2944 C   0  0  0  0  0  0  0  0  0  0  0  0
   25.4626  -17.0911  -19.9473 C   0  0  0  0  0  0  0  0  0  0  0  0
   24.5582  -18.0051  -19.4443 C   0  0  0  0  0  0  0  0  0  0  0  0
   22.3507  -20.3026  -15.9721 C   0  0  0  0  0  0  0  0  0  0  0  0
   21.8648  -21.3707  -16.4147 O   0  0  0  0  0  0  0  0  0  0  0  0
   21.7712  -19.8032  -14.7741 N   0  0  0  0  0  0  0  0  0  0  0  0
   20.7075  -20.4916  -14.0924 C   0  0  1  0  0  0  0  0  0  0  0  0
   20.8995  -20.2385  -12.5979 C   0  0  0  0  0  0  0  0  0  0  0  0
   22.4628  -20.8814  -12.0057 S   0  0  0  0  0  0  0  0  0  0  0  0
   19.3750  -20.1289  -14.5475 C   0  0  0  0  0  0  0  0  0  0  0  0
   18.3708  -20.7391  -14.1248 O   0  0  0  0  0  0  0  0  0  0  0  0
   19.2058  -19.1036  -15.4537 O   0  0  0  0  0  0  0  0  0  0  0  0
  2  1  1  6
  2  3  1  0
  3  4  1  0
  4  5  1  0
  5  6  1  0
  6  7  1  0
  8  2  1  0
  9  8  2  0
 10  8  1  0
 11 10  1  0
 11 12  1  6
 12 13  1  0
 13 14  2  0
 14 15  1  0
 16 15  2  0
 17 16  1  0
 18 13  1  0
 18 17  2  0
 19 20  2  0
 19 11  1  0
 21 19  1  0
 22 21  1  0
 22 23  1  1
 24 23  1  0
 25 27  1  0
 25 22  1  0
 26 25  2  0
M  END
$$$$
