KFC.pdb
     RDKit          3D

 27 27  0  0  1  0  0  0  0  0999 V2000
   27.9341  -20.5418  -16.6649 N   0  0  0  0  0  0  0  0  0  0  0  0
   27.1086  -21.7183  -16.6179 C   0  0  1  0  0  0  0  0  0  0  0  0
   27.6991  -22.9016  -17.2887 C   0  0  0  0  0  0  0  0  0  0  0  0
   28.3031  -22.6854  -18.6292 C   0  0  0  0  0  0  0  0  0  0  0  0
   29.7896  -22.5633  -18.6490 C   0  0  0  0  0  0  0  0  0  0  0  0
   30.2920  -22.2739  -20.0762 C   0  0  0  0  0  0  0  0  0  0  0  0
   31.7152  -22.1027  -20.1029 N   0  0  0  0  0  0  0  0  0  0  0  0
   26.7787  -21.9665  -15.1878 C   0  0  0  0  0  0  0  0  0  0  0  0
   26.2013  -22.9936  -14.7739 O   0  0  0  0  0  0  0  0  0  0  0  0
   27.1437  -20.9764  -14.2496 N   0  0  0  0  0  0  0  0  0  0  0  0
   26.7561  -20.9923  -12.8586 C   0  0  1  0  0  0  0  0  0  0  0  0
   27.7316  -20.1522  -12.0902 C   0  0  0  0  0  0  0  0  0  0  0  0
   27.4918  -20.1363  -10.6458 C   0  0  0  0  0  0  0  0  0  0  0  0
   28.2543  -20.9593   -9.8415 C   0  0  0  0  0  0  0  0  0  0  0  0
   28.0851  -20.9998   -8.4625 C   0  0  0  0  0  0  0  0  0  0  0  0
   27.1365  -20.2050   -7.8625 C   0  0  0  0  0  0  0  0  0  0  0  0
   26.3730  -19.3845   -8.6421 C   0  0  0  0  0  0  0  0  0  0  0  0
   26.5492  -19.3521  -10.0112 C   0  0  0  0  0  0  0  0  0  0  0  0
   25.4063  -20.4721  -12.6262 C   0  0  0  0  0  0  0  0  0  0  0  0
   24.9607  -19.3746  -13.0385 O   0  0  0  0  0  0  0  0  0  0  0  0
   24.5039  -21.2661  -11.8676 N   0  0  0  0  0  0  0  0  0  0  0  0
   23.1468  -20.8581  -11.6190 C   0  0  1  0  0  0  0  0  0  0  0  0
   22.2672  -21.6026  -12.6223 C   0  0  0  0  0  0  0  0  0  0  0  0
   20.5270  -21.4560  -12.2246 S   0  0  0  0  0  0  0  0  0  0  0  0
   22.7074  -21.0543  -10.2469 C   0  0  0  0  0  0  0  0  0  0  0  0
   23.3699  -21.7653   -9.4627 O   0  0  0  0  0  0  0  0  0  0  0  0
   21.5504  -20.4552   -9.7958 O   0  0  0  0  0  0  0  0  0  0  0  0
  2  1  1  1
  2  3  1  0
  3  4  1  0
  4  5  1  0
  5  6  1  0
  6  7  1  0
  8  2  1  0
  9  8  2  0
 10  8  1  0
 11 10  1  0
 11 12  1  1
 12 13  1  0
 13 14  2  0
 14 15  1  0
 16 15  2  0
 17 16  1  0
 18 13  1  0
 18 17  2  0
 19 20  2  0
 19 11  1  0
 21 19  1  0
 22 21  1  0
 22 23  1  6
 24 23  1  0
 25 27  1  0
 25 22  1  0
 26 25  2  0
M  END
$$$$
