KFC.pdb
     RDKit          3D

 27 27  0  0  1  0  0  0  0  0999 V2000
   25.7891  -22.3365  -13.1553 N   0  0  0  0  0  0  0  0  0  0  0  0
   25.4837  -21.1277  -12.4388 C   0  0  1  0  0  0  0  0  0  0  0  0
   24.1480  -20.5614  -12.7451 C   0  0  0  0  0  0  0  0  0  0  0  0
   24.0283  -19.7468  -13.9823 C   0  0  0  0  0  0  0  0  0  0  0  0
   25.1700  -19.8597  -14.9356 C   0  0  0  0  0  0  0  0  0  0  0  0
   24.9449  -18.9555  -16.1623 C   0  0  0  0  0  0  0  0  0  0  0  0
   26.0771  -18.9789  -17.0415 N   0  0  0  0  0  0  0  0  0  0  0  0
   25.6739  -21.4155  -10.9908 C   0  0  0  0  0  0  0  0  0  0  0  0
   25.2451  -22.4413  -10.4220 O   0  0  0  0  0  0  0  0  0  0  0  0
   26.3825  -20.4669  -10.2216 N   0  0  0  0  0  0  0  0  0  0  0  0
   26.6143  -20.5820   -8.8009 C   0  0  1  0  0  0  0  0  0  0  0  0
   27.6961  -19.6156   -8.4223 C   0  0  0  0  0  0  0  0  0  0  0  0
   28.0371  -19.6351   -6.9984 C   0  0  0  0  0  0  0  0  0  0  0  0
   28.8495  -20.6475   -6.5286 C   0  0  0  0  0  0  0  0  0  0  0  0
   29.2167  -20.7331   -5.1907 C   0  0  0  0  0  0  0  0  0  0  0  0
   28.7685  -19.7922   -4.2932 C   0  0  0  0  0  0  0  0  0  0  0  0
   27.9641  -18.7835   -4.7398 C   0  0  0  0  0  0  0  0  0  0  0  0
   27.6054  -18.7079   -6.0709 C   0  0  0  0  0  0  0  0  0  0  0  0
   25.4261  -20.2937   -7.9937 C   0  0  0  0  0  0  0  0  0  0  0  0
   24.6268  -19.3445   -8.1757 O   0  0  0  0  0  0  0  0  0  0  0  0
   25.1336  -21.1543   -6.9009 N   0  0  0  0  0  0  0  0  0  0  0  0
   24.0062  -20.9364   -6.0341 C   0  0  1  0  0  0  0  0  0  0  0  0
   22.9280  -21.9375   -6.4461 C   0  0  0  0  0  0  0  0  0  0  0  0
   23.5166  -23.6270   -6.3627 S   0  0  0  0  0  0  0  0  0  0  0  0
   24.3204  -21.0149   -4.6166 C   0  0  0  0  0  0  0  0  0  0  0  0
   25.4577  -21.3626   -4.2358 O   0  0  0  0  0  0  0  0  0  0  0  0
   23.3622  -20.7051   -3.6747 O   0  0  0  0  0  0  0  0  0  0  0  0
  2  1  1  6
  2  3  1  0
  3  4  1  0
  4  5  1  0
  5  6  1  0
  6  7  1  0
  8  2  1  0
  9  8  2  0
 10  8  1  0
 11 10  1  0
 11 12  1  1
 12 13  1  0
 13 14  2  0
 14 15  1  0
 16 15  2  0
 17 16  1  0
 18 13  1  0
 18 17  2  0
 19 20  2  0
 19 11  1  0
 21 19  1  0
 22 21  1  0
 22 23  1  6
 24 23  1  0
 25 27  1  0
 25 22  1  0
 26 25  2  0
M  END
$$$$
