KFC.pdb
     RDKit          3D

 27 27  0  0  1  0  0  0  0  0999 V2000
   26.5257  -21.5903  -13.5603 N   0  0  0  0  0  0  0  0  0  0  0  0
   25.6589  -20.7439  -12.7856 C   0  0  1  0  0  0  0  0  0  0  0  0
   24.2477  -20.7406  -13.2411 C   0  0  0  0  0  0  0  0  0  0  0  0
   23.9046  -19.8331  -14.3668 C   0  0  0  0  0  0  0  0  0  0  0  0
   25.0463  -19.0610  -14.9371 C   0  0  0  0  0  0  0  0  0  0  0  0
   24.5686  -18.1546  -16.0874 C   0  0  0  0  0  0  0  0  0  0  0  0
   24.3570  -18.9063  -17.2897 N   0  0  0  0  0  0  0  0  0  0  0  0
   25.8079  -21.1490  -11.3610 C   0  0  0  0  0  0  0  0  0  0  0  0
   25.4175  -22.2435  -10.9033 O   0  0  0  0  0  0  0  0  0  0  0  0
   26.4287  -20.2355  -10.4814 N   0  0  0  0  0  0  0  0  0  0  0  0
   26.5714  -20.4451   -9.0596 C   0  0  1  0  0  0  0  0  0  0  0  0
   27.6004  -19.4839   -8.5449 C   0  0  0  0  0  0  0  0  0  0  0  0
   27.9155  -19.6564   -7.1254 C   0  0  0  0  0  0  0  0  0  0  0  0
   27.5046  -18.6841   -6.2357 C   0  0  0  0  0  0  0  0  0  0  0  0
   27.7662  -18.7773   -4.8738 C   0  0  0  0  0  0  0  0  0  0  0  0
   28.4527  -19.8612   -4.3781 C   0  0  0  0  0  0  0  0  0  0  0  0
   28.8670  -20.8328   -5.2432 C   0  0  0  0  0  0  0  0  0  0  0  0
   28.6018  -20.7303   -6.5943 C   0  0  0  0  0  0  0  0  0  0  0  0
   25.3264  -20.2406   -8.3149 C   0  0  0  0  0  0  0  0  0  0  0  0
   24.6315  -19.1965   -8.3177 O   0  0  0  0  0  0  0  0  0  0  0  0
   24.8440  -21.3084   -7.5104 N   0  0  0  0  0  0  0  0  0  0  0  0
   23.6929  -21.1671   -6.6590 C   0  0  1  0  0  0  0  0  0  0  0  0
   22.6387  -22.1485   -7.1691 C   0  0  0  0  0  0  0  0  0  0  0  0
   22.2175  -21.8466   -8.8836 S   0  0  0  0  0  0  0  0  0  0  0  0
   23.9734  -21.3442   -5.2433 C   0  0  0  0  0  0  0  0  0  0  0  0
   25.1141  -21.6753   -4.8578 O   0  0  0  0  0  0  0  0  0  0  0  0
   22.9792  -21.1478   -4.3084 O   0  0  0  0  0  0  0  0  0  0  0  0
  2  1  1  6
  2  3  1  0
  3  4  1  0
  4  5  1  0
  5  6  1  0
  6  7  1  0
  8  2  1  0
  9  8  2  0
 10  8  1  0
 11 10  1  0
 11 12  1  1
 12 13  1  0
 13 14  2  0
 14 15  1  0
 16 15  2  0
 17 16  1  0
 18 13  1  0
 18 17  2  0
 19 20  2  0
 19 11  1  0
 21 19  1  0
 22 21  1  0
 22 23  1  6
 24 23  1  0
 25 27  1  0
 25 22  1  0
 26 25  2  0
M  END
$$$$
