VQL.pdb
     RDKit          3D

 25 24  0  0  1  0  0  0  0  0999 V2000
   26.6376  -18.7846  -16.2750 C   0  0  0  0  0  0  0  0  0  0  0  0
   28.0008  -18.6188  -15.5913 C   0  0  2  0  0  0  0  0  0  0  0  0
   29.0548  -18.6707  -16.6581 C   0  0  0  0  0  0  0  0  0  0  0  0
   28.1796  -19.6830  -14.5308 C   0  0  2  0  0  0  0  0  0  0  0  0
   28.1675  -21.0092  -15.0774 N   0  0  0  0  0  0  0  0  0  0  0  0
   27.1566  -19.4779  -13.4867 C   0  0  0  0  0  0  0  0  0  0  0  0
   27.1244  -18.3600  -12.9095 O   0  0  0  0  0  0  0  0  0  0  0  0
   21.1827  -21.2197  -13.3971 N   0  0  0  0  0  0  0  0  0  0  0  0
   21.3873  -20.6520  -12.1288 C   0  0  0  0  0  0  0  0  0  0  0  0
   20.3869  -20.3751  -11.4368 O   0  0  0  0  0  0  0  0  0  0  0  0
   22.7372  -20.3757  -11.5928 C   0  0  0  0  0  0  0  0  0  0  0  0
   23.8509  -20.7417  -12.5042 C   0  0  0  0  0  0  0  0  0  0  0  0
   25.1961  -20.1570  -12.1462 C   0  0  2  0  0  0  0  0  0  0  0  0
   26.2135  -20.4590  -13.0975 N   0  0  0  0  0  0  0  0  0  0  0  0
   25.5701  -20.8094  -10.8400 C   0  0  0  0  0  0  0  0  0  0  0  0
   25.8822  -22.0197  -10.8694 O   0  0  0  0  0  0  0  0  0  0  0  0
   28.5446  -20.5844   -7.6183 C   0  0  0  0  0  0  0  0  0  0  0  0
   27.6917  -19.3119   -7.7858 C   0  0  2  0  0  0  0  0  0  0  0  0
   28.1923  -18.2628   -6.8489 C   0  0  0  0  0  0  0  0  0  0  0  0
   26.2903  -19.7049   -7.4395 C   0  0  0  0  0  0  0  0  0  0  0  0
   25.7914  -20.7597   -8.3875 C   0  0  2  0  0  0  0  0  0  0  0  0
   25.5581  -20.0588   -9.6555 N   0  0  0  0  0  0  0  0  0  0  0  0
   24.5447  -21.4016   -7.9234 C   0  0  0  0  0  0  0  0  0  0  0  0
   24.6644  -22.4781   -7.0188 O   0  0  0  0  0  0  0  0  0  0  0  0
   23.3858  -21.0960   -8.2444 O   0  0  0  0  0  0  0  0  0  0  0  0
  2  1  1  6
  2  4  1  0
  3  2  1  0
  4  5  1  6
  6 14  1  0
  6  4  1  0
  7  6  2  0
  9  8  1  0
  9 11  1  0
 10  9  2  0
 12 11  1  0
 13 12  1  6
 13 14  1  0
 15 13  1  0
 16 15  2  0
 18 20  1  0
 18 17  1  1
 19 18  1  0
 21 20  1  1
 21 22  1  0
 21 23  1  0
 22 15  1  0
 23 24  1  0
 25 23  2  0
M  END
$$$$
