VQL.pdb
     RDKit          3D

 25 24  0  0  1  0  0  0  0  0999 V2000
   20.4048  -15.0948  -17.8800 C   0  0  0  0  0  0  0  0  0  0  0  0
   21.7764  -14.6105  -17.3930 C   0  0  2  0  0  0  0  0  0  0  0  0
   21.8311  -13.1240  -17.5900 C   0  0  0  0  0  0  0  0  0  0  0  0
   22.8751  -15.3455  -18.1294 C   0  0  2  0  0  0  0  0  0  0  0  0
   22.8188  -15.1373  -19.5476 N   0  0  0  0  0  0  0  0  0  0  0  0
   22.8177  -16.7710  -17.7509 C   0  0  0  0  0  0  0  0  0  0  0  0
   22.0157  -17.5118  -18.3770 O   0  0  0  0  0  0  0  0  0  0  0  0
   27.4634  -20.6489  -15.9539 N   0  0  0  0  0  0  0  0  0  0  0  0
   26.3016  -21.4361  -16.0088 C   0  0  0  0  0  0  0  0  0  0  0  0
   26.4185  -22.6718  -15.8841 O   0  0  0  0  0  0  0  0  0  0  0  0
   24.9577  -20.8525  -16.2067 C   0  0  0  0  0  0  0  0  0  0  0  0
   24.9385  -19.3728  -16.3297 C   0  0  0  0  0  0  0  0  0  0  0  0
   23.5692  -18.7564  -16.4878 C   0  0  2  0  0  0  0  0  0  0  0  0
   23.6073  -17.3525  -16.7302 N   0  0  0  0  0  0  0  0  0  0  0  0
   22.8838  -18.9832  -15.1648 C   0  0  0  0  0  0  0  0  0  0  0  0
   23.2456  -18.2749  -14.2001 O   0  0  0  0  0  0  0  0  0  0  0  0
   18.3846  -17.2902  -13.2987 C   0  0  0  0  0  0  0  0  0  0  0  0
   19.3959  -18.3511  -12.8227 C   0  0  2  0  0  0  0  0  0  0  0  0
   20.0877  -17.8502  -11.5981 C   0  0  0  0  0  0  0  0  0  0  0  0
   20.3693  -18.5275  -13.9450 C   0  0  0  0  0  0  0  0  0  0  0  0
   20.9807  -19.9003  -13.8988 C   0  0  2  0  0  0  0  0  0  0  0  0
   21.8829  -19.9592  -15.0546 N   0  0  0  0  0  0  0  0  0  0  0  0
   19.9736  -20.9774  -13.9832 C   0  0  0  0  0  0  0  0  0  0  0  0
   19.5569  -21.5753  -12.7748 O   0  0  0  0  0  0  0  0  0  0  0  0
   19.4443  -21.4227  -15.0134 O   0  0  0  0  0  0  0  0  0  0  0  0
  2  1  1  6
  2  4  1  0
  3  2  1  0
  4  5  1  6
  6 14  1  0
  6  4  1  0
  7  6  2  0
  9  8  1  0
  9 11  1  0
 10  9  2  0
 12 11  1  0
 13 12  1  1
 13 14  1  0
 15 13  1  0
 16 15  2  0
 18 20  1  0
 18 17  1  6
 19 18  1  0
 21 20  1  6
 21 22  1  0
 21 23  1  0
 22 15  1  0
 23 24  1  0
 25 23  2  0
M  END
$$$$
