VQL.pdb
     RDKit          3D

 25 24  0  0  1  0  0  0  0  0999 V2000
   23.2833  -19.8053  -16.5947 C   0  0  0  0  0  0  0  0  0  0  0  0
   22.5145  -19.0313  -15.5163 C   0  0  2  0  0  0  0  0  0  0  0  0
   21.9215  -17.8146  -16.1642 C   0  0  0  0  0  0  0  0  0  0  0  0
   23.4364  -18.6977  -14.3638 C   0  0  2  0  0  0  0  0  0  0  0  0
   24.5087  -17.8281  -14.7534 N   0  0  0  0  0  0  0  0  0  0  0  0
   23.9053  -19.9606  -13.7607 C   0  0  0  0  0  0  0  0  0  0  0  0
   23.0408  -20.8285  -13.4718 O   0  0  0  0  0  0  0  0  0  0  0  0
   25.2433  -24.5002  -14.1061 N   0  0  0  0  0  0  0  0  0  0  0  0
   25.7263  -23.7062  -15.1592 C   0  0  0  0  0  0  0  0  0  0  0  0
   25.4180  -24.0211  -16.3263 O   0  0  0  0  0  0  0  0  0  0  0  0
   26.5792  -22.5204  -14.9307 C   0  0  0  0  0  0  0  0  0  0  0  0
   26.7868  -22.1746  -13.5016 C   0  0  0  0  0  0  0  0  0  0  0  0
   25.6327  -21.4645  -12.8356 C   0  0  2  0  0  0  0  0  0  0  0  0
   25.2632  -20.2530  -13.4890 N   0  0  0  0  0  0  0  0  0  0  0  0
   26.1315  -21.1175  -11.4563 C   0  0  0  0  0  0  0  0  0  0  0  0
   27.3338  -20.7940  -11.3433 O   0  0  0  0  0  0  0  0  0  0  0  0
   27.8418  -20.8828   -7.6054 C   0  0  0  0  0  0  0  0  0  0  0  0
   27.7673  -19.5799   -8.4250 C   0  0  2  0  0  0  0  0  0  0  0  0
   27.9208  -18.4150   -7.5037 C   0  0  0  0  0  0  0  0  0  0  0  0
   26.4160  -19.5718   -9.0669 C   0  0  0  0  0  0  0  0  0  0  0  0
   25.8049  -20.9446   -9.0213 C   0  0  2  0  0  0  0  0  0  0  0  0
   25.2542  -21.1659  -10.3633 N   0  0  0  0  0  0  0  0  0  0  0  0
   24.7377  -21.0615   -8.0070 C   0  0  0  0  0  0  0  0  0  0  0  0
   25.1282  -21.3417   -6.6802 O   0  0  0  0  0  0  0  0  0  0  0  0
   23.5170  -20.9391   -8.1932 O   0  0  0  0  0  0  0  0  0  0  0  0
  2  1  1  6
  2  4  1  0
  3  2  1  0
  4  5  1  6
  6 14  1  0
  6  4  1  0
  7  6  2  0
  9  8  1  0
  9 11  1  0
 10  9  2  0
 12 11  1  0
 13 12  1  6
 13 14  1  0
 15 13  1  0
 16 15  2  0
 18 20  1  0
 18 17  1  1
 19 18  1  0
 21 20  1  6
 21 22  1  0
 21 23  1  0
 22 15  1  0
 23 24  1  0
 25 23  2  0
M  END
$$$$
