VQL.pdb
     RDKit          3D

 25 24  0  0  1  0  0  0  0  0999 V2000
   15.3126  -12.8871  -14.0794 C   0  0  0  0  0  0  0  0  0  0  0  0
   15.1820  -11.4152  -13.6675 C   0  0  2  0  0  0  0  0  0  0  0  0
   16.3611  -10.6779  -14.2313 C   0  0  0  0  0  0  0  0  0  0  0  0
   15.0820  -11.3072  -12.1615 C   0  0  2  0  0  0  0  0  0  0  0  0
   14.0128  -12.0988  -11.6249 N   0  0  0  0  0  0  0  0  0  0  0  0
   14.9820   -9.8792  -11.8018 C   0  0  0  0  0  0  0  0  0  0  0  0
   13.8960   -9.2895  -12.0403 O   0  0  0  0  0  0  0  0  0  0  0  0
   14.1783   -5.5139   -9.4294 N   0  0  0  0  0  0  0  0  0  0  0  0
   14.2723   -6.5649   -8.5024 C   0  0  0  0  0  0  0  0  0  0  0  0
   13.3532   -6.7030   -7.6703 O   0  0  0  0  0  0  0  0  0  0  0  0
   15.4141   -7.5039   -8.4823 C   0  0  0  0  0  0  0  0  0  0  0  0
   16.3823   -7.3235   -9.5936 C   0  0  0  0  0  0  0  0  0  0  0  0
   15.8847   -7.7408  -10.9568 C   0  0  2  0  0  0  0  0  0  0  0  0
   16.0298   -9.1364  -11.2071 N   0  0  0  0  0  0  0  0  0  0  0  0
   16.7578   -6.9979  -11.9353 C   0  0  0  0  0  0  0  0  0  0  0  0
   17.9698   -7.3025  -11.9720 O   0  0  0  0  0  0  0  0  0  0  0  0
   17.2388   -6.7456  -16.1895 C   0  0  0  0  0  0  0  0  0  0  0  0
   15.9016   -6.2148  -15.6373 C   0  0  2  0  0  0  0  0  0  0  0  0
   14.9896   -5.9090  -16.7792 C   0  0  0  0  0  0  0  0  0  0  0  0
   16.2332   -4.9695  -14.8773 C   0  0  0  0  0  0  0  0  0  0  0  0
   17.0873   -5.2948  -13.6835 C   0  0  2  0  0  0  0  0  0  0  0  0
   16.2001   -6.0089  -12.7582 N   0  0  0  0  0  0  0  0  0  0  0  0
   17.6406   -4.0904  -13.0317 C   0  0  0  0  0  0  0  0  0  0  0  0
   17.0887   -3.7106  -11.7898 O   0  0  0  0  0  0  0  0  0  0  0  0
   18.5505   -3.3636  -13.4600 O   0  0  0  0  0  0  0  0  0  0  0  0
  2  1  1  1
  2  4  1  0
  3  2  1  0
  4  5  1  6
  6 14  1  0
  6  4  1  0
  7  6  2  0
  9  8  1  0
  9 11  1  0
 10  9  2  0
 12 11  1  0
 13 12  1  1
 13 14  1  0
 15 13  1  0
 16 15  2  0
 18 20  1  0
 18 17  1  6
 19 18  1  0
 21 20  1  6
 21 22  1  0
 21 23  1  0
 22 15  1  0
 23 24  1  0
 25 23  2  0
M  END
$$$$
