VQL.pdb
     RDKit          3D

 25 24  0  0  1  0  0  0  0  0999 V2000
   19.5629  -12.9220  -17.8157 C   0  0  0  0  0  0  0  0  0  0  0  0
   20.5987  -12.4927  -18.8625 C   0  0  2  0  0  0  0  0  0  0  0  0
   21.1880  -13.7377  -19.4578 C   0  0  0  0  0  0  0  0  0  0  0  0
   21.6356  -11.5940  -18.2248 C   0  0  2  0  0  0  0  0  0  0  0  0
   22.3815  -12.2609  -17.1968 N   0  0  0  0  0  0  0  0  0  0  0  0
   20.9627  -10.3692  -17.7497 C   0  0  0  0  0  0  0  0  0  0  0  0
   20.3921   -9.6444  -18.6059 O   0  0  0  0  0  0  0  0  0  0  0  0
   17.2177   -9.1721  -12.8838 N   0  0  0  0  0  0  0  0  0  0  0  0
   16.9668   -9.6868  -14.1663 C   0  0  0  0  0  0  0  0  0  0  0  0
   15.8550  -10.2076  -14.3871 O   0  0  0  0  0  0  0  0  0  0  0  0
   17.9685   -9.6309  -15.2523 C   0  0  0  0  0  0  0  0  0  0  0  0
   19.2572   -8.9985  -14.8725 C   0  0  0  0  0  0  0  0  0  0  0  0
   20.2274   -8.7789  -16.0085 C   0  0  2  0  0  0  0  0  0  0  0  0
   20.9209   -9.9625  -16.3946 N   0  0  0  0  0  0  0  0  0  0  0  0
   21.2394   -7.7985  -15.4734 C   0  0  0  0  0  0  0  0  0  0  0  0
   22.1282   -8.2445  -14.7157 O   0  0  0  0  0  0  0  0  0  0  0  0
   24.5326   -4.3908  -15.1100 C   0  0  0  0  0  0  0  0  0  0  0  0
   23.6090   -3.6764  -16.1156 C   0  0  2  0  0  0  0  0  0  0  0  0
   22.9788   -2.4992  -15.4475 C   0  0  0  0  0  0  0  0  0  0  0  0
   22.5710   -4.6795  -16.5088 C   0  0  0  0  0  0  0  0  0  0  0  0
   22.1912   -5.5315  -15.3297 C   0  0  2  0  0  0  0  0  0  0  0  0
   21.1583   -6.4451  -15.8316 N   0  0  0  0  0  0  0  0  0  0  0  0
   21.6657   -4.7403  -14.1987 C   0  0  0  0  0  0  0  0  0  0  0  0
   20.2655   -4.5949  -14.1006 O   0  0  0  0  0  0  0  0  0  0  0  0
   22.3274   -4.1802  -13.3109 O   0  0  0  0  0  0  0  0  0  0  0  0
  2  1  1  1
  2  4  1  0
  3  2  1  0
  4  5  1  1
  6 14  1  0
  6  4  1  0
  7  6  2  0
  9  8  1  0
  9 11  1  0
 10  9  2  0
 12 11  1  0
 13 12  1  1
 13 14  1  0
 15 13  1  0
 16 15  2  0
 18 20  1  0
 18 17  1  1
 19 18  1  0
 21 20  1  6
 21 22  1  0
 21 23  1  0
 22 15  1  0
 23 24  1  0
 25 23  2  0
M  END
$$$$
