VQL.pdb
     RDKit          3D

 25 24  0  0  1  0  0  0  0  0999 V2000
   22.0168  -20.9070  -10.6392 C   0  0  0  0  0  0  0  0  0  0  0  0
   21.2989  -19.6951  -11.2465 C   0  0  2  0  0  0  0  0  0  0  0  0
   20.5574  -19.0034  -10.1405 C   0  0  0  0  0  0  0  0  0  0  0  0
   20.3955  -20.1420  -12.3751 C   0  0  2  0  0  0  0  0  0  0  0  0
   19.3937  -21.0720  -11.9399 N   0  0  0  0  0  0  0  0  0  0  0  0
   21.2381  -20.6677  -13.4670 C   0  0  0  0  0  0  0  0  0  0  0  0
   21.2915  -21.9162  -13.6168 O   0  0  0  0  0  0  0  0  0  0  0  0
   24.7504  -18.5497  -17.9293 N   0  0  0  0  0  0  0  0  0  0  0  0
   24.4649  -19.9100  -18.1310 C   0  0  0  0  0  0  0  0  0  0  0  0
   25.3900  -20.6589  -18.5047 O   0  0  0  0  0  0  0  0  0  0  0  0
   23.1166  -20.4770  -17.9158 C   0  0  0  0  0  0  0  0  0  0  0  0
   22.3733  -19.8874  -16.7735 C   0  0  0  0  0  0  0  0  0  0  0  0
   22.7395  -20.4343  -15.4145 C   0  0  2  0  0  0  0  0  0  0  0  0
   21.9865  -19.8553  -14.3520 N   0  0  0  0  0  0  0  0  0  0  0  0
   24.1862  -20.0592  -15.2196 C   0  0  0  0  0  0  0  0  0  0  0  0
   24.4572  -18.8427  -15.1200 O   0  0  0  0  0  0  0  0  0  0  0  0
   26.8846  -19.0925  -12.5308 C   0  0  0  0  0  0  0  0  0  0  0  0
   26.2715  -20.5010  -12.4086 C   0  0  2  0  0  0  0  0  0  0  0  0
   26.6488  -21.0840  -11.0869 C   0  0  0  0  0  0  0  0  0  0  0  0
   26.8556  -21.3048  -13.5271 C   0  0  0  0  0  0  0  0  0  0  0  0
   26.5450  -20.6646  -14.8515 C   0  0  2  0  0  0  0  0  0  0  0  0
   25.1655  -21.0610  -15.1568 N   0  0  0  0  0  0  0  0  0  0  0  0
   27.4530  -21.1094  -15.9281 C   0  0  0  0  0  0  0  0  0  0  0  0
   27.2661  -22.4105  -16.4415 O   0  0  0  0  0  0  0  0  0  0  0  0
   28.3764  -20.4575  -16.4400 O   0  0  0  0  0  0  0  0  0  0  0  0
  2  1  1  1
  2  4  1  0
  3  2  1  0
  4  5  1  1
  6 14  1  0
  6  4  1  0
  7  6  2  0
  9  8  1  0
  9 11  1  0
 10  9  2  0
 12 11  1  0
 13 12  1  6
 13 14  1  0
 15 13  1  0
 16 15  2  0
 18 20  1  0
 18 17  1  1
 19 18  1  0
 21 20  1  1
 21 22  1  0
 21 23  1  0
 22 15  1  0
 23 24  1  0
 25 23  2  0
M  END
$$$$
