VQL.pdb
     RDKit          3D

 25 24  0  0  1  0  0  0  0  0999 V2000
   28.3146  -19.0713  -16.7575 C   0  0  0  0  0  0  0  0  0  0  0  0
   27.6160  -18.7470  -15.4309 C   0  0  2  0  0  0  0  0  0  0  0  0
   27.9529  -17.3292  -15.0731 C   0  0  0  0  0  0  0  0  0  0  0  0
   28.0358  -19.7405  -14.3697 C   0  0  2  0  0  0  0  0  0  0  0  0
   27.9653  -21.0972  -14.8302 N   0  0  0  0  0  0  0  0  0  0  0  0
   27.2288  -19.4978  -13.1579 C   0  0  0  0  0  0  0  0  0  0  0  0
   27.2407  -18.3384  -12.6684 O   0  0  0  0  0  0  0  0  0  0  0  0
   21.5384  -21.7642  -11.7312 N   0  0  0  0  0  0  0  0  0  0  0  0
   21.8836  -20.9282  -10.6567 C   0  0  0  0  0  0  0  0  0  0  0  0
   21.0092  -20.6674   -9.8061 O   0  0  0  0  0  0  0  0  0  0  0  0
   23.2373  -20.3539  -10.5027 C   0  0  0  0  0  0  0  0  0  0  0  0
   24.1862  -20.7085  -11.5884 C   0  0  0  0  0  0  0  0  0  0  0  0
   25.5790  -20.1453  -11.4373 C   0  0  2  0  0  0  0  0  0  0  0  0
   26.4455  -20.4867  -12.5161 N   0  0  0  0  0  0  0  0  0  0  0  0
   26.1228  -20.7802  -10.1831 C   0  0  0  0  0  0  0  0  0  0  0  0
   26.5925  -21.9348  -10.2793 O   0  0  0  0  0  0  0  0  0  0  0  0
   27.2507  -20.1953   -4.9382 C   0  0  0  0  0  0  0  0  0  0  0  0
   28.3372  -20.2606   -6.0291 C   0  0  2  0  0  0  0  0  0  0  0  0
   29.4859  -19.3965   -5.6253 C   0  0  0  0  0  0  0  0  0  0  0  0
   27.6996  -19.7423   -7.2794 C   0  0  0  0  0  0  0  0  0  0  0  0
   26.6654  -20.7110   -7.7817 C   0  0  2  0  0  0  0  0  0  0  0  0
   26.0878  -20.0751   -8.9714 N   0  0  0  0  0  0  0  0  0  0  0  0
   25.6088  -20.9856   -6.7869 C   0  0  0  0  0  0  0  0  0  0  0  0
   25.9525  -21.7845   -5.6757 O   0  0  0  0  0  0  0  0  0  0  0  0
   24.4343  -20.5866   -6.8190 O   0  0  0  0  0  0  0  0  0  0  0  0
  2  1  1  6
  2  4  1  0
  3  2  1  0
  4  5  1  6
  6 14  1  0
  6  4  1  0
  7  6  2  0
  9  8  1  0
  9 11  1  0
 10  9  2  0
 12 11  1  0
 13 12  1  6
 13 14  1  0
 15 13  1  0
 16 15  2  0
 18 20  1  0
 18 17  1  1
 19 18  1  0
 21 20  1  1
 21 22  1  0
 21 23  1  0
 22 15  1  0
 23 24  1  0
 25 23  2  0
M  END
$$$$
