VQL.pdb
     RDKit          3D

 25 24  0  0  1  0  0  0  0  0999 V2000
   34.4024  -27.9551  -20.2403 C   0  0  0  0  0  0  0  0  0  0  0  0
   33.1959  -27.9825  -19.2933 C   0  0  2  0  0  0  0  0  0  0  0  0
   31.9975  -28.3998  -20.0941 C   0  0  0  0  0  0  0  0  0  0  0  0
   33.0256  -26.6311  -18.6344 C   0  0  2  0  0  0  0  0  0  0  0  0
   34.1941  -26.2238  -17.9088 N   0  0  0  0  0  0  0  0  0  0  0  0
   31.8094  -26.6693  -17.7989 C   0  0  0  0  0  0  0  0  0  0  0  0
   31.9410  -26.9797  -16.5863 O   0  0  0  0  0  0  0  0  0  0  0  0
   28.0918  -22.1457  -16.6786 N   0  0  0  0  0  0  0  0  0  0  0  0
   27.4448  -23.2119  -16.0327 C   0  0  0  0  0  0  0  0  0  0  0  0
   26.4952  -22.9505  -15.2671 O   0  0  0  0  0  0  0  0  0  0  0  0
   27.8488  -24.6204  -16.2301 C   0  0  0  0  0  0  0  0  0  0  0  0
   28.9810  -24.8124  -17.1714 C   0  0  0  0  0  0  0  0  0  0  0  0
   29.4129  -26.2445  -17.3774 C   0  0  2  0  0  0  0  0  0  0  0  0
   30.5095  -26.3789  -18.2777 N   0  0  0  0  0  0  0  0  0  0  0  0
   28.2183  -26.9280  -17.9916 C   0  0  0  0  0  0  0  0  0  0  0  0
   28.0553  -26.8044  -19.2250 O   0  0  0  0  0  0  0  0  0  0  0  0
   27.0998  -30.9457  -18.4205 C   0  0  0  0  0  0  0  0  0  0  0  0
   26.9720  -30.4721  -16.9597 C   0  0  2  0  0  0  0  0  0  0  0  0
   26.6515  -31.6450  -16.0932 C   0  0  0  0  0  0  0  0  0  0  0  0
   25.8519  -29.4805  -16.9428 C   0  0  0  0  0  0  0  0  0  0  0  0
   26.1814  -28.3014  -17.8154 C   0  0  2  0  0  0  0  0  0  0  0  0
   27.3429  -27.6663  -17.1822 N   0  0  0  0  0  0  0  0  0  0  0  0
   25.0670  -27.3376  -17.9184 C   0  0  0  0  0  0  0  0  0  0  0  0
   23.9319  -27.7314  -18.6586 O   0  0  0  0  0  0  0  0  0  0  0  0
   25.0157  -26.2027  -17.4194 O   0  0  0  0  0  0  0  0  0  0  0  0
  2  1  1  6
  2  4  1  0
  3  2  1  0
  4  5  1  1
  6 14  1  0
  6  4  1  0
  7  6  2  0
  9  8  1  0
  9 11  1  0
 10  9  2  0
 12 11  1  0
 13 12  1  6
 13 14  1  0
 15 13  1  0
 16 15  2  0
 18 20  1  0
 18 17  1  6
 19 18  1  0
 21 20  1  1
 21 22  1  0
 21 23  1  0
 22 15  1  0
 23 24  1  0
 25 23  2  0
M  END
$$$$
