VQL.pdb
     RDKit          3D

 25 24  0  0  1  0  0  0  0  0999 V2000
   28.7376  -19.5720  -17.8041 C   0  0  0  0  0  0  0  0  0  0  0  0
   27.5209  -19.9604  -16.9545 C   0  0  2  0  0  0  0  0  0  0  0  0
   27.0157  -18.7154  -16.2862 C   0  0  0  0  0  0  0  0  0  0  0  0
   27.9023  -21.0459  -15.9718 C   0  0  2  0  0  0  0  0  0  0  0  0
   28.3456  -22.2444  -16.6236 N   0  0  0  0  0  0  0  0  0  0  0  0
   26.7640  -21.2703  -15.0594 C   0  0  0  0  0  0  0  0  0  0  0  0
   25.7668  -21.8930  -15.5087 O   0  0  0  0  0  0  0  0  0  0  0  0
   26.1218  -20.0692   -8.6767 N   0  0  0  0  0  0  0  0  0  0  0  0
   24.9503  -20.7177   -9.1005 C   0  0  0  0  0  0  0  0  0  0  0  0
   24.0806  -20.9843   -8.2469 O   0  0  0  0  0  0  0  0  0  0  0  0
   24.7171  -21.0898  -10.5123 C   0  0  0  0  0  0  0  0  0  0  0  0
   25.8477  -20.7870  -11.4260 C   0  0  0  0  0  0  0  0  0  0  0  0
   25.6148  -21.1332  -12.8772 C   0  0  2  0  0  0  0  0  0  0  0  0
   26.7268  -20.8290  -13.7151 N   0  0  0  0  0  0  0  0  0  0  0  0
   24.4577  -20.2669  -13.3043 C   0  0  0  0  0  0  0  0  0  0  0  0
   24.7034  -19.0719  -13.5778 O   0  0  0  0  0  0  0  0  0  0  0  0
   20.3172  -20.2171  -16.3728 C   0  0  0  0  0  0  0  0  0  0  0  0
   21.5752  -19.3271  -16.3828 C   0  0  2  0  0  0  0  0  0  0  0  0
   22.0686  -19.1963  -17.7859 C   0  0  0  0  0  0  0  0  0  0  0  0
   22.5850  -20.0287  -15.5306 C   0  0  0  0  0  0  0  0  0  0  0  0
   22.1355  -20.0525  -14.0961 C   0  0  2  0  0  0  0  0  0  0  0  0
   23.1680  -20.8119  -13.3815 N   0  0  0  0  0  0  0  0  0  0  0  0
   20.8173  -20.6954  -13.9210 C   0  0  0  0  0  0  0  0  0  0  0  0
   19.6758  -19.8682  -13.9850 O   0  0  0  0  0  0  0  0  0  0  0  0
   20.5972  -21.9000  -13.7208 O   0  0  0  0  0  0  0  0  0  0  0  0
  2  1  1  1
  2  4  1  0
  3  2  1  0
  4  5  1  6
  6 14  1  0
  6  4  1  0
  7  6  2  0
  9  8  1  0
  9 11  1  0
 10  9  2  0
 12 11  1  0
 13 12  1  1
 13 14  1  0
 15 13  1  0
 16 15  2  0
 18 20  1  0
 18 17  1  6
 19 18  1  0
 21 20  1  6
 21 22  1  0
 21 23  1  0
 22 15  1  0
 23 24  1  0
 25 23  2  0
M  END
$$$$
