VQL.pdb
     RDKit          3D

 25 24  0  0  1  0  0  0  0  0999 V2000
   28.6812  -18.3424  -16.8879 C   0  0  0  0  0  0  0  0  0  0  0  0
   27.3778  -18.8562  -16.2632 C   0  0  2  0  0  0  0  0  0  0  0  0
   26.7729  -17.7288  -15.4791 C   0  0  0  0  0  0  0  0  0  0  0  0
   27.6572  -20.0806  -15.4191 C   0  0  2  0  0  0  0  0  0  0  0  0
   28.2564  -21.1424  -16.1748 N   0  0  0  0  0  0  0  0  0  0  0  0
   26.4042  -20.4818  -14.7500 C   0  0  0  0  0  0  0  0  0  0  0  0
   25.5723  -21.1510  -15.4165 O   0  0  0  0  0  0  0  0  0  0  0  0
   24.7270  -20.3901   -8.4629 N   0  0  0  0  0  0  0  0  0  0  0  0
   23.6993  -21.0387   -9.1670 C   0  0  0  0  0  0  0  0  0  0  0  0
   22.7737  -21.5609   -8.5138 O   0  0  0  0  0  0  0  0  0  0  0  0
   23.6795  -21.1207  -10.6431 C   0  0  0  0  0  0  0  0  0  0  0  0
   24.8788  -20.5531  -11.3097 C   0  0  0  0  0  0  0  0  0  0  0  0
   24.8713  -20.6213  -12.8180 C   0  0  2  0  0  0  0  0  0  0  0  0
   26.0834  -20.1605  -13.4094 N   0  0  0  0  0  0  0  0  0  0  0  0
   23.7619  -19.6948  -13.2452 C   0  0  0  0  0  0  0  0  0  0  0  0
   24.0524  -18.4916  -13.4213 O   0  0  0  0  0  0  0  0  0  0  0  0
   21.7080  -19.6752  -18.0531 C   0  0  0  0  0  0  0  0  0  0  0  0
   21.5057  -18.8682  -16.7559 C   0  0  2  0  0  0  0  0  0  0  0  0
   22.0225  -17.4822  -16.9584 C   0  0  0  0  0  0  0  0  0  0  0  0
   22.2939  -19.5775  -15.7005 C   0  0  0  0  0  0  0  0  0  0  0  0
   21.5830  -19.5065  -14.3777 C   0  0  2  0  0  0  0  0  0  0  0  0
   22.4651  -20.1958  -13.4289 N   0  0  0  0  0  0  0  0  0  0  0  0
   20.2573  -20.1570  -14.4059 C   0  0  0  0  0  0  0  0  0  0  0  0
   19.2259  -19.5029  -15.1128 O   0  0  0  0  0  0  0  0  0  0  0  0
   19.9435  -21.2309  -13.8693 O   0  0  0  0  0  0  0  0  0  0  0  0
  2  1  1  1
  2  4  1  0
  3  2  1  0
  4  5  1  6
  6 14  1  0
  6  4  1  0
  7  6  2  0
  9  8  1  0
  9 11  1  0
 10  9  2  0
 12 11  1  0
 13 12  1  1
 13 14  1  0
 15 13  1  0
 16 15  2  0
 18 20  1  0
 18 17  1  6
 19 18  1  0
 21 20  1  6
 21 22  1  0
 21 23  1  0
 22 15  1  0
 23 24  1  0
 25 23  2  0
M  END
$$$$
