VQL.pdb
     RDKit          3D

 25 24  0  0  1  0  0  0  0  0999 V2000
   22.7446  -13.3849  -17.6583 C   0  0  0  0  0  0  0  0  0  0  0  0
   23.9226  -12.4221  -17.8536 C   0  0  2  0  0  0  0  0  0  0  0  0
   25.1826  -13.2371  -17.8502 C   0  0  0  0  0  0  0  0  0  0  0  0
   23.9038  -11.3580  -16.7781 C   0  0  2  0  0  0  0  0  0  0  0  0
   24.1089  -11.9007  -15.4661 N   0  0  0  0  0  0  0  0  0  0  0  0
   22.6461  -10.5949  -16.8987 C   0  0  0  0  0  0  0  0  0  0  0  0
   22.5403   -9.7874  -17.8583 O   0  0  0  0  0  0  0  0  0  0  0  0
   16.7376  -12.0535  -15.0110 N   0  0  0  0  0  0  0  0  0  0  0  0
   17.3868  -12.3864  -16.2111 C   0  0  0  0  0  0  0  0  0  0  0  0
   16.9108  -13.3075  -16.9048 O   0  0  0  0  0  0  0  0  0  0  0  0
   18.6039  -11.6862  -16.6742 C   0  0  0  0  0  0  0  0  0  0  0  0
   19.1193  -10.6569  -15.7363 C   0  0  0  0  0  0  0  0  0  0  0  0
   20.3723   -9.9442  -16.1858 C   0  0  2  0  0  0  0  0  0  0  0  0
   21.5563  -10.7163  -16.0036 N   0  0  0  0  0  0  0  0  0  0  0  0
   20.4679   -8.7275  -15.3015 C   0  0  0  0  0  0  0  0  0  0  0  0
   21.2189   -8.7979  -14.3045 O   0  0  0  0  0  0  0  0  0  0  0  0
   23.2515   -4.3744  -15.3960 C   0  0  0  0  0  0  0  0  0  0  0  0
   21.8934   -4.6976  -14.7436 C   0  0  2  0  0  0  0  0  0  0  0  0
   22.0666   -4.7589  -13.2619 C   0  0  0  0  0  0  0  0  0  0  0  0
   21.4821   -6.0308  -15.2835 C   0  0  0  0  0  0  0  0  0  0  0  0
   20.0565   -6.3307  -14.9116 C   0  0  2  0  0  0  0  0  0  0  0  0
   19.7294   -7.5770  -15.6138 N   0  0  0  0  0  0  0  0  0  0  0  0
   19.1234   -5.2589  -15.3143 C   0  0  0  0  0  0  0  0  0  0  0  0
   18.5945   -5.3133  -16.6215 O   0  0  0  0  0  0  0  0  0  0  0  0
   18.7464   -4.3010  -14.6216 O   0  0  0  0  0  0  0  0  0  0  0  0
  2  1  1  1
  2  4  1  0
  3  2  1  0
  4  5  1  1
  6 14  1  0
  6  4  1  0
  7  6  2  0
  9  8  1  0
  9 11  1  0
 10  9  2  0
 12 11  1  0
 13 12  1  1
 13 14  1  0
 15 13  1  0
 16 15  2  0
 18 20  1  0
 18 17  1  6
 19 18  1  0
 21 20  1  6
 21 22  1  0
 21 23  1  0
 22 15  1  0
 23 24  1  0
 25 23  2  0
M  END
$$$$
