YYE.pdb
     RDKit          3D

 34 35  0  0  1  0  0  0  0  0999 V2000
   28.7885  -33.0310  -16.1058 O   0  0  0  0  0  0  0  0  0  0  0  0
   28.6774  -31.7196  -16.6115 C   0  0  0  0  0  0  0  0  0  0  0  0
   29.7683  -30.9202  -16.8233 C   0  0  0  0  0  0  0  0  0  0  0  0
   29.6619  -29.6335  -17.3196 C   0  0  0  0  0  0  0  0  0  0  0  0
   28.4111  -29.1477  -17.6079 C   0  0  0  0  0  0  0  0  0  0  0  0
   28.2751  -27.7636  -18.1392 C   0  0  0  0  0  0  0  0  0  0  0  0
   28.4528  -26.7262  -17.0596 C   0  0  2  0  0  0  0  0  0  0  0  0
   27.2629  -26.6741  -16.2340 N   0  0  0  0  0  0  0  0  0  0  0  0
   28.6967  -25.3809  -17.6027 C   0  0  0  0  0  0  0  0  0  0  0  0
   27.7535  -24.5631  -17.7419 O   0  0  0  0  0  0  0  0  0  0  0  0
   27.2891  -29.9200  -17.4091 C   0  0  0  0  0  0  0  0  0  0  0  0
   27.4350  -31.1958  -16.9137 C   0  0  0  0  0  0  0  0  0  0  0  0
   36.3017  -25.9885  -18.6416 O   0  0  0  0  0  0  0  0  0  0  0  0
   35.1240  -25.2851  -18.4085 C   0  0  0  0  0  0  0  0  0  0  0  0
   34.2669  -25.6340  -17.3847 C   0  0  0  0  0  0  0  0  0  0  0  0
   33.0798  -24.9327  -17.1412 C   0  0  0  0  0  0  0  0  0  0  0  0
   32.7388  -23.8650  -17.9293 C   0  0  0  0  0  0  0  0  0  0  0  0
   31.5065  -23.0853  -17.7247 C   0  0  0  0  0  0  0  0  0  0  0  0
   30.3125  -23.6302  -18.4927 C   0  0  2  0  0  0  0  0  0  0  0  0
   29.9917  -24.9298  -17.9978 N   0  0  0  0  0  0  0  0  0  0  0  0
   30.7338  -23.6516  -19.9196 C   0  0  0  0  0  0  0  0  0  0  0  0
   31.0690  -24.7556  -20.4089 O   0  0  0  0  0  0  0  0  0  0  0  0
   33.5905  -23.5027  -18.9618 C   0  0  0  0  0  0  0  0  0  0  0  0
   34.7629  -24.2008  -19.1972 C   0  0  0  0  0  0  0  0  0  0  0  0
   30.7716  -22.5026  -20.7279 N   0  0  0  0  0  0  0  0  0  0  0  0
   29.8689  -22.3325  -21.8971 C   0  0  1  0  0  0  0  0  0  0  0  0
   28.4909  -22.3606  -21.3279 C   0  0  0  0  0  0  0  0  0  0  0  0
   27.3166  -22.2428  -22.1924 C   0  0  0  0  0  0  0  0  0  0  0  0
   26.1703  -21.4437  -21.7824 C   0  0  0  0  0  0  0  0  0  0  0  0
   25.6171  -21.7092  -20.6583 O   0  0  0  0  0  0  0  0  0  0  0  0
   30.2032  -20.9818  -22.4042 C   0  0  0  0  0  0  0  0  0  0  0  0
   30.5003  -20.8829  -23.6503 O   0  0  0  0  0  0  0  0  0  0  0  0
   25.6366  -20.4090  -22.5291 O   0  0  0  0  0  0  0  0  0  0  0  0
   30.2262  -19.8158  -21.6872 O   0  0  0  0  0  0  0  0  0  0  0  0
  2  1  1  0
  3  2  2  0
  4  3  1  0
  5  4  2  0
  5 11  1  0
  6  7  1  0
  6  5  1  0
  7  9  1  0
  7  8  1  6
  9 10  2  0
 11 12  2  0
 12  2  1  0
 13 14  1  0
 14 24  2  0
 15 14  1  0
 16 15  2  0
 16 17  1  0
 17 23  2  0
 18 17  1  0
 19 18  1  1
 20 19  1  0
 20  9  1  0
 21 19  1  0
 21 25  1  0
 22 21  2  0
 23 24  1  0
 26 25  1  0
 26 27  1  1
 27 28  1  0
 28 29  1  0
 29 33  1  0
 30 29  2  0
 31 26  1  0
 32 31  2  0
 34 31  1  0
M  END
$$$$
