YYE.pdb
     RDKit          3D

 34 35  0  0  1  0  0  0  0  0999 V2000
   22.1069   -2.7044  -15.9010 O   0  0  0  0  0  0  0  0  0  0  0  0
   22.8678   -3.8901  -15.9545 C   0  0  0  0  0  0  0  0  0  0  0  0
   24.0422   -3.9773  -16.6525 C   0  0  0  0  0  0  0  0  0  0  0  0
   24.7906   -5.1392  -16.7063 C   0  0  0  0  0  0  0  0  0  0  0  0
   24.3309   -6.2421  -16.0311 C   0  0  0  0  0  0  0  0  0  0  0  0
   25.1200   -7.5036  -16.0798 C   0  0  0  0  0  0  0  0  0  0  0  0
   24.8133   -8.3122  -17.3149 C   0  0  2  0  0  0  0  0  0  0  0  0
   25.2082   -7.5681  -18.4942 N   0  0  0  0  0  0  0  0  0  0  0  0
   23.3847   -8.6421  -17.4346 C   0  0  0  0  0  0  0  0  0  0  0  0
   22.6473   -8.0232  -18.2416 O   0  0  0  0  0  0  0  0  0  0  0  0
   23.1547   -6.1953  -15.3173 C   0  0  0  0  0  0  0  0  0  0  0  0
   22.4375   -5.0209  -15.2872 C   0  0  0  0  0  0  0  0  0  0  0  0
   15.8025  -13.1940  -16.0976 O   0  0  0  0  0  0  0  0  0  0  0  0
   17.1197  -12.7458  -16.0910 C   0  0  0  0  0  0  0  0  0  0  0  0
   17.8575  -12.6599  -17.2541 C   0  0  0  0  0  0  0  0  0  0  0  0
   19.1833  -12.2097  -17.2585 C   0  0  0  0  0  0  0  0  0  0  0  0
   19.7863  -11.8378  -16.0858 C   0  0  0  0  0  0  0  0  0  0  0  0
   21.1759  -11.3544  -16.0230 C   0  0  0  0  0  0  0  0  0  0  0  0
   21.3700   -9.9891  -16.6636 C   0  0  2  0  0  0  0  0  0  0  0  0
   22.7594   -9.6632  -16.6581 N   0  0  0  0  0  0  0  0  0  0  0  0
   20.5602   -9.0470  -15.8446 C   0  0  0  0  0  0  0  0  0  0  0  0
   21.0259   -8.6946  -14.7357 O   0  0  0  0  0  0  0  0  0  0  0  0
   19.0572  -11.9187  -14.9092 C   0  0  0  0  0  0  0  0  0  0  0  0
   17.7464  -12.3649  -14.9119 C   0  0  0  0  0  0  0  0  0  0  0  0
   19.3140   -8.5449  -16.2566 N   0  0  0  0  0  0  0  0  0  0  0  0
   18.5219   -7.6132  -15.4108 C   0  0  1  0  0  0  0  0  0  0  0  0
   18.0594   -6.5448  -16.3428 C   0  0  0  0  0  0  0  0  0  0  0  0
   17.1420   -5.4981  -15.8923 C   0  0  0  0  0  0  0  0  0  0  0  0
   16.7958   -4.3873  -16.7681 C   0  0  0  0  0  0  0  0  0  0  0  0
   15.5569   -4.1068  -16.9307 O   0  0  0  0  0  0  0  0  0  0  0  0
   17.3835   -8.4406  -14.9496 C   0  0  0  0  0  0  0  0  0  0  0  0
   16.9742   -9.3648  -15.7428 O   0  0  0  0  0  0  0  0  0  0  0  0
   17.7211   -3.6084  -17.4389 O   0  0  0  0  0  0  0  0  0  0  0  0
   16.7162   -8.3322  -13.7591 O   0  0  0  0  0  0  0  0  0  0  0  0
  2  1  1  0
  3  2  2  0
  4  3  1  0
  5  4  2  0
  5 11  1  0
  6  7  1  0
  6  5  1  0
  7  9  1  0
  7  8  1  6
  9 10  2  0
 11 12  2  0
 12  2  1  0
 13 14  1  0
 14 24  2  0
 15 14  1  0
 16 15  2  0
 16 17  1  0
 17 23  2  0
 18 17  1  0
 19 18  1  1
 20 19  1  0
 20  9  1  0
 21 19  1  0
 21 25  1  0
 22 21  2  0
 23 24  1  0
 26 25  1  0
 26 27  1  6
 27 28  1  0
 28 29  1  0
 29 33  1  0
 30 29  2  0
 31 26  1  0
 32 31  2  0
 34 31  1  0
M  END
$$$$
