YYE.pdb
     RDKit          3D

 34 35  0  0  1  0  0  0  0  0999 V2000
   28.9963  -19.2609   -4.9090 O   0  0  0  0  0  0  0  0  0  0  0  0
   28.5304  -19.4343   -6.2284 C   0  0  0  0  0  0  0  0  0  0  0  0
   29.3045  -19.9869   -7.2130 C   0  0  0  0  0  0  0  0  0  0  0  0
   28.8497  -20.1584   -8.5079 C   0  0  0  0  0  0  0  0  0  0  0  0
   27.5723  -19.7564   -8.8084 C   0  0  0  0  0  0  0  0  0  0  0  0
   27.0653  -19.9288  -10.1976 C   0  0  0  0  0  0  0  0  0  0  0  0
   26.4642  -21.2948  -10.4121 C   0  0  2  0  0  0  0  0  0  0  0  0
   27.3190  -22.0706  -11.2884 N   0  0  0  0  0  0  0  0  0  0  0  0
   25.1222  -21.2344  -11.0117 C   0  0  0  0  0  0  0  0  0  0  0  0
   24.9630  -21.3879  -12.2482 O   0  0  0  0  0  0  0  0  0  0  0  0
   26.7621  -19.1966   -7.8465 C   0  0  0  0  0  0  0  0  0  0  0  0
   27.2500  -19.0422   -6.5689 C   0  0  0  0  0  0  0  0  0  0  0  0
   16.1793  -21.0802  -11.0501 O   0  0  0  0  0  0  0  0  0  0  0  0
   17.5207  -20.9501  -10.7041 C   0  0  0  0  0  0  0  0  0  0  0  0
   18.1559  -19.7251  -10.7295 C   0  0  0  0  0  0  0  0  0  0  0  0
   19.5049  -19.5831  -10.3828 C   0  0  0  0  0  0  0  0  0  0  0  0
   20.2356  -20.6784  -10.0035 C   0  0  0  0  0  0  0  0  0  0  0  0
   21.6564  -20.5961   -9.6254 C   0  0  0  0  0  0  0  0  0  0  0  0
   22.6028  -21.0240  -10.7361 C   0  0  2  0  0  0  0  0  0  0  0  0
   23.9421  -21.0018  -10.2437 N   0  0  0  0  0  0  0  0  0  0  0  0
   22.3853  -20.0508  -11.8405 C   0  0  0  0  0  0  0  0  0  0  0  0
   22.8194  -18.8860  -11.6811 O   0  0  0  0  0  0  0  0  0  0  0  0
   19.6107  -21.9158   -9.9732 C   0  0  0  0  0  0  0  0  0  0  0  0
   18.2762  -22.0491  -10.3175 C   0  0  0  0  0  0  0  0  0  0  0  0
   21.7227  -20.3790  -13.0357 N   0  0  0  0  0  0  0  0  0  0  0  0
   21.4871  -19.3748  -14.1066 C   0  0  1  0  0  0  0  0  0  0  0  0
   22.4587  -19.7234  -15.1828 C   0  0  0  0  0  0  0  0  0  0  0  0
   22.6277  -21.1076  -15.6251 C   0  0  0  0  0  0  0  0  0  0  0  0
   23.8165  -21.5109  -16.3632 C   0  0  0  0  0  0  0  0  0  0  0  0
   24.6483  -20.6033  -16.7156 O   0  0  0  0  0  0  0  0  0  0  0  0
   20.0976  -19.6459  -14.5415 C   0  0  0  0  0  0  0  0  0  0  0  0
   19.5676  -20.7485  -14.1490 O   0  0  0  0  0  0  0  0  0  0  0  0
   24.1107  -22.8172  -16.7096 O   0  0  0  0  0  0  0  0  0  0  0  0
   19.3067  -18.8425  -15.3182 O   0  0  0  0  0  0  0  0  0  0  0  0
  2  1  1  0
  3  2  2  0
  4  3  1  0
  5  4  2  0
  5 11  1  0
  6  7  1  0
  6  5  1  0
  7  9  1  0
  7  8  1  6
  9 10  2  0
 11 12  2  0
 12  2  1  0
 13 14  1  0
 14 24  2  0
 15 14  1  0
 16 15  2  0
 16 17  1  0
 17 23  2  0
 18 17  1  0
 19 18  1  1
 20 19  1  0
 20  9  1  0
 21 19  1  0
 21 25  1  0
 22 21  2  0
 23 24  1  0
 26 25  1  0
 26 27  1  6
 27 28  1  0
 28 29  1  0
 29 33  1  0
 30 29  2  0
 31 26  1  0
 32 31  2  0
 34 31  1  0
M  END
$$$$
