YYE.pdb
     RDKit          3D

 34 35  0  0  1  0  0  0  0  0999 V2000
   16.9824  -26.8368   -7.5931 O   0  0  0  0  0  0  0  0  0  0  0  0
   17.6837  -25.7408   -8.1360 C   0  0  0  0  0  0  0  0  0  0  0  0
   17.2869  -24.4455   -7.9389 C   0  0  0  0  0  0  0  0  0  0  0  0
   17.9734  -23.3687   -8.4702 C   0  0  0  0  0  0  0  0  0  0  0  0
   19.0940  -23.6173   -9.2225 C   0  0  0  0  0  0  0  0  0  0  0  0
   19.8446  -22.4719   -9.8065 C   0  0  0  0  0  0  0  0  0  0  0  0
   21.1339  -22.2097   -9.0703 C   0  0  2  0  0  0  0  0  0  0  0  0
   20.8427  -21.7420   -7.7299 N   0  0  0  0  0  0  0  0  0  0  0  0
   21.9720  -21.2020   -9.7386 C   0  0  0  0  0  0  0  0  0  0  0  0
   21.5781  -20.0153   -9.8583 O   0  0  0  0  0  0  0  0  0  0  0  0
   19.5260  -24.9055   -9.4439 C   0  0  0  0  0  0  0  0  0  0  0  0
   18.8166  -25.9513   -8.8986 C   0  0  0  0  0  0  0  0  0  0  0  0
   27.3435  -19.4375   -5.7070 O   0  0  0  0  0  0  0  0  0  0  0  0
   26.8990  -19.8199   -6.9689 C   0  0  0  0  0  0  0  0  0  0  0  0
   26.7840  -21.1496   -7.3200 C   0  0  0  0  0  0  0  0  0  0  0  0
   26.3373  -21.5452   -8.5866 C   0  0  0  0  0  0  0  0  0  0  0  0
   25.9984  -20.6020   -9.5208 C   0  0  0  0  0  0  0  0  0  0  0  0
   25.5204  -20.9519  -10.8690 C   0  0  0  0  0  0  0  0  0  0  0  0
   24.0500  -20.6336  -11.0901 C   0  0  2  0  0  0  0  0  0  0  0  0
   23.2569  -21.5025  -10.2820 N   0  0  0  0  0  0  0  0  0  0  0  0
   23.8141  -20.8352  -12.5453 C   0  0  0  0  0  0  0  0  0  0  0  0
   23.9302  -21.9988  -12.9960 O   0  0  0  0  0  0  0  0  0  0  0  0
   26.1087  -19.2619   -9.1822 C   0  0  0  0  0  0  0  0  0  0  0  0
   26.5513  -18.8777   -7.9277 C   0  0  0  0  0  0  0  0  0  0  0  0
   23.4727  -19.7906  -13.4212 N   0  0  0  0  0  0  0  0  0  0  0  0
   23.1953  -20.0303  -14.8622 C   0  0  1  0  0  0  0  0  0  0  0  0
   21.7569  -20.4197  -14.9185 C   0  0  0  0  0  0  0  0  0  0  0  0
   20.7433  -19.6656  -14.1808 C   0  0  0  0  0  0  0  0  0  0  0  0
   19.3369  -20.0338  -14.2650 C   0  0  0  0  0  0  0  0  0  0  0  0
   18.9921  -20.9179  -15.1251 O   0  0  0  0  0  0  0  0  0  0  0  0
   23.4079  -18.7037  -15.4853 C   0  0  0  0  0  0  0  0  0  0  0  0
   23.6297  -17.7158  -14.6943 O   0  0  0  0  0  0  0  0  0  0  0  0
   18.3421  -19.4911  -13.4720 O   0  0  0  0  0  0  0  0  0  0  0  0
   23.3993  -18.4118  -16.8229 O   0  0  0  0  0  0  0  0  0  0  0  0
  2  1  1  0
  3  2  2  0
  4  3  1  0
  5  4  2  0
  5 11  1  0
  6  7  1  0
  6  5  1  0
  7  9  1  0
  7  8  1  1
  9 10  2  0
 11 12  2  0
 12  2  1  0
 13 14  1  0
 14 24  2  0
 15 14  1  0
 16 15  2  0
 16 17  1  0
 17 23  2  0
 18 17  1  0
 19 18  1  6
 20 19  1  0
 20  9  1  0
 21 19  1  0
 21 25  1  0
 22 21  2  0
 23 24  1  0
 26 25  1  0
 26 27  1  1
 27 28  1  0
 28 29  1  0
 29 33  1  0
 30 29  2  0
 31 26  1  0
 32 31  2  0
 34 31  1  0
M  END
$$$$
