YYE.pdb
     RDKit          3D

 34 35  0  0  1  0  0  0  0  0999 V2000
   31.5483  -24.3198  -23.8152 O   0  0  0  0  0  0  0  0  0  0  0  0
   30.6627  -25.2759  -23.2774 C   0  0  0  0  0  0  0  0  0  0  0  0
   29.7504  -24.9657  -22.3049 C   0  0  0  0  0  0  0  0  0  0  0  0
   28.8803  -25.9017  -21.7759 C   0  0  0  0  0  0  0  0  0  0  0  0
   28.9407  -27.1883  -22.2498 C   0  0  0  0  0  0  0  0  0  0  0  0
   28.0153  -28.2116  -21.6904 C   0  0  0  0  0  0  0  0  0  0  0  0
   28.4247  -28.6437  -20.3051 C   0  0  2  0  0  0  0  0  0  0  0  0
   29.6235  -29.4542  -20.3824 N   0  0  0  0  0  0  0  0  0  0  0  0
   27.3812  -29.4270  -19.6255 C   0  0  0  0  0  0  0  0  0  0  0  0
   27.1710  -30.6254  -19.9378 O   0  0  0  0  0  0  0  0  0  0  0  0
   29.8437  -27.5406  -23.2273 C   0  0  0  0  0  0  0  0  0  0  0  0
   30.6933  -26.5813  -23.7293 C   0  0  0  0  0  0  0  0  0  0  0  0
   29.7200  -34.1203  -15.7930 O   0  0  0  0  0  0  0  0  0  0  0  0
   28.8272  -33.0636  -15.9430 C   0  0  0  0  0  0  0  0  0  0  0  0
   27.4621  -33.2666  -15.9318 C   0  0  0  0  0  0  0  0  0  0  0  0
   26.5552  -32.2104  -16.0813 C   0  0  0  0  0  0  0  0  0  0  0  0
   27.0134  -30.9295  -16.2444 C   0  0  0  0  0  0  0  0  0  0  0  0
   26.1126  -29.7756  -16.4048 C   0  0  0  0  0  0  0  0  0  0  0  0
   25.5947  -29.6066  -17.8245 C   0  0  2  0  0  0  0  0  0  0  0  0
   26.5592  -28.8868  -18.5915 N   0  0  0  0  0  0  0  0  0  0  0  0
   24.3074  -28.8719  -17.6931 C   0  0  0  0  0  0  0  0  0  0  0  0
   24.3610  -27.6583  -17.3849 O   0  0  0  0  0  0  0  0  0  0  0  0
   28.3825  -30.7103  -16.2575 C   0  0  0  0  0  0  0  0  0  0  0  0
   29.2739  -31.7594  -16.1092 C   0  0  0  0  0  0  0  0  0  0  0  0
   23.0539  -29.4739  -17.8963 N   0  0  0  0  0  0  0  0  0  0  0  0
   21.7857  -28.7038  -17.7992 C   0  0  1  0  0  0  0  0  0  0  0  0
   20.7111  -29.6890  -18.1131 C   0  0  0  0  0  0  0  0  0  0  0  0
   20.5060  -30.8715  -17.2765 C   0  0  0  0  0  0  0  0  0  0  0  0
   19.4862  -31.8536  -17.6170 C   0  0  0  0  0  0  0  0  0  0  0  0
   18.5228  -32.0378  -16.7935 O   0  0  0  0  0  0  0  0  0  0  0  0
   21.7304  -28.2979  -16.3760 C   0  0  0  0  0  0  0  0  0  0  0  0
   21.1427  -27.1872  -16.1079 O   0  0  0  0  0  0  0  0  0  0  0  0
   19.4867  -32.6045  -18.7785 O   0  0  0  0  0  0  0  0  0  0  0  0
   22.2364  -28.9834  -15.3043 O   0  0  0  0  0  0  0  0  0  0  0  0
  2  1  1  0
  3  2  2  0
  4  3  1  0
  5  4  2  0
  5 11  1  0
  6  7  1  0
  6  5  1  0
  7  9  1  0
  7  8  1  6
  9 10  2  0
 11 12  2  0
 12  2  1  0
 13 14  1  0
 14 24  2  0
 15 14  1  0
 16 15  2  0
 16 17  1  0
 17 23  2  0
 18 17  1  0
 19 18  1  1
 20 19  1  0
 20  9  1  0
 21 19  1  0
 21 25  1  0
 22 21  2  0
 23 24  1  0
 26 25  1  0
 26 27  1  1
 27 28  1  0
 28 29  1  0
 29 33  1  0
 30 29  2  0
 31 26  1  0
 32 31  2  0
 34 31  1  0
M  END
$$$$
