YYE.pdb
     RDKit          3D

 34 35  0  0  1  0  0  0  0  0999 V2000
   47.6732  -16.8735   -7.9544 O   0  0  0  0  0  0  0  0  0  0  0  0
   46.9282  -15.6765   -7.9593 C   0  0  0  0  0  0  0  0  0  0  0  0
   46.3689  -15.1559   -6.8235 C   0  0  0  0  0  0  0  0  0  0  0  0
   45.6380  -13.9817   -6.8256 C   0  0  0  0  0  0  0  0  0  0  0  0
   45.4720  -13.3198   -8.0164 C   0  0  0  0  0  0  0  0  0  0  0  0
   44.6850  -12.0562   -8.0404 C   0  0  0  0  0  0  0  0  0  0  0  0
   45.5744  -10.8400   -8.0951 C   0  0  2  0  0  0  0  0  0  0  0  0
   46.1586  -10.6051   -6.7897 N   0  0  0  0  0  0  0  0  0  0  0  0
   44.8487   -9.6263   -8.5008 C   0  0  0  0  0  0  0  0  0  0  0  0
   44.2443   -8.9247   -7.6521 O   0  0  0  0  0  0  0  0  0  0  0  0
   46.0187  -13.8102   -9.1806 C   0  0  0  0  0  0  0  0  0  0  0  0
   46.7398  -14.9818   -9.1387 C   0  0  0  0  0  0  0  0  0  0  0  0
   42.4160   -2.8823  -13.8200 O   0  0  0  0  0  0  0  0  0  0  0  0
   42.9730   -4.0465  -13.2999 C   0  0  0  0  0  0  0  0  0  0  0  0
   42.5816   -5.2933  -13.7439 C   0  0  0  0  0  0  0  0  0  0  0  0
   43.1359   -6.4708  -13.2279 C   0  0  0  0  0  0  0  0  0  0  0  0
   44.0969   -6.4080  -12.2533 C   0  0  0  0  0  0  0  0  0  0  0  0
   44.7203   -7.6082  -11.6707 C   0  0  0  0  0  0  0  0  0  0  0  0
   44.1434   -7.9920  -10.3171 C   0  0  2  0  0  0  0  0  0  0  0  0
   44.7859   -9.1794   -9.8547 N   0  0  0  0  0  0  0  0  0  0  0  0
   42.6859   -8.1848  -10.5465 C   0  0  0  0  0  0  0  0  0  0  0  0
   42.3247   -9.2308  -11.1348 O   0  0  0  0  0  0  0  0  0  0  0  0
   44.5002   -5.1621  -11.7974 C   0  0  0  0  0  0  0  0  0  0  0  0
   43.9477   -4.0015  -12.3121 C   0  0  0  0  0  0  0  0  0  0  0  0
   41.7134   -7.2563  -10.1378 N   0  0  0  0  0  0  0  0  0  0  0  0
   40.2584   -7.5197  -10.2944 C   0  0  1  0  0  0  0  0  0  0  0  0
   39.6808   -7.3144   -8.9350 C   0  0  0  0  0  0  0  0  0  0  0  0
   38.2344   -7.2175   -8.7382 C   0  0  0  0  0  0  0  0  0  0  0  0
   37.6781   -7.0175   -7.4074 C   0  0  0  0  0  0  0  0  0  0  0  0
   38.4883   -6.9133   -6.4210 O   0  0  0  0  0  0  0  0  0  0  0  0
   39.8085   -6.4591  -11.2249 C   0  0  0  0  0  0  0  0  0  0  0  0
   40.5965   -5.4587  -11.3950 O   0  0  0  0  0  0  0  0  0  0  0  0
   36.3249   -6.9299   -7.1352 O   0  0  0  0  0  0  0  0  0  0  0  0
   38.6378   -6.4286  -11.9341 O   0  0  0  0  0  0  0  0  0  0  0  0
  2  1  1  0
  3  2  2  0
  4  3  1  0
  5  4  2  0
  5 11  1  0
  6  7  1  0
  6  5  1  0
  7  9  1  0
  7  8  1  1
  9 10  2  0
 11 12  2  0
 12  2  1  0
 13 14  1  0
 14 24  2  0
 15 14  1  0
 16 15  2  0
 16 17  1  0
 17 23  2  0
 18 17  1  0
 19 18  1  6
 20 19  1  0
 20  9  1  0
 21 19  1  0
 21 25  1  0
 22 21  2  0
 23 24  1  0
 26 25  1  0
 26 27  1  1
 27 28  1  0
 28 29  1  0
 29 33  1  0
 30 29  2  0
 31 26  1  0
 32 31  2  0
 34 31  1  0
M  END
$$$$
