LRP.pdb
     RDKit          3D

 27 27  0  0  1  0  0  0  0  0999 V2000
   19.6924  -20.2716  -18.7729 C   0  0  0  0  0  0  0  0  0  0  0  0
   19.3504  -20.7322  -17.3583 C   0  0  1  0  0  0  0  0  0  0  0  0
   19.7423  -22.1932  -17.2815 C   0  0  0  0  0  0  0  0  0  0  0  0
   20.2050  -19.9088  -16.4244 C   0  0  0  0  0  0  0  0  0  0  0  0
   21.1436  -20.7587  -15.6037 C   0  0  2  0  0  0  0  0  0  0  0  0
   20.4594  -21.1830  -14.4085 N   0  0  0  0  0  0  0  0  0  0  0  0
   22.3871  -20.0661  -15.2430 C   0  0  0  0  0  0  0  0  0  0  0  0
   22.3821  -19.1272  -14.4007 O   0  0  0  0  0  0  0  0  0  0  0  0
   29.1342  -23.8978  -15.9756 N   0  0  0  0  0  0  0  0  0  0  0  0
   27.8031  -24.3236  -16.3310 C   0  0  0  0  0  0  0  0  0  0  0  0
   27.3663  -25.4813  -15.9829 N   0  0  0  0  0  0  0  0  0  0  0  0
   26.9478  -23.4735  -17.0725 N   0  0  0  0  0  0  0  0  0  0  0  0
   27.3978  -22.1124  -17.4421 C   0  0  0  0  0  0  0  0  0  0  0  0
   26.2740  -21.1455  -17.2213 C   0  0  0  0  0  0  0  0  0  0  0  0
   25.9243  -20.8142  -15.8290 C   0  0  0  0  0  0  0  0  0  0  0  0
   24.8912  -19.7720  -15.5615 C   0  0  2  0  0  0  0  0  0  0  0  0
   23.5968  -20.4516  -15.8414 N   0  0  0  0  0  0  0  0  0  0  0  0
   24.9374  -18.5741  -16.3928 C   0  0  0  0  0  0  0  0  0  0  0  0
   24.0095  -18.5062  -17.3106 O   0  0  0  0  0  0  0  0  0  0  0  0
   26.4211  -25.7772  -16.2681 N   0  0  0  0  0  0  0  0  0  0  0  0
   25.8558  -17.5130  -16.3048 C   0  0  0  0  0  0  0  0  0  0  0  0
   27.0700  -17.5350  -15.5121 C   0  0  0  0  0  0  0  0  0  0  0  0
   27.2502  -16.1024  -15.1186 C   0  0  0  0  0  0  0  0  0  0  0  0
   26.1750  -15.3057  -15.8069 C   0  0  1  0  0  0  0  0  0  0  0  0
   25.8379  -16.2563  -16.9710 C   0  0  0  0  0  0  0  0  0  0  0  0
   26.9671  -16.1239  -17.9601 O   0  0  0  0  0  0  0  0  0  0  0  0
   27.1646  -14.9690  -18.6704 O   0  0  0  0  0  0  0  0  0  0  0  0
  2  3  1  6
  2  1  1  0
  4  2  1  0
  5  6  1  1
  5  4  1  0
  7  5  1  0
  8  7  2  0
  9 10  1  0
 10 12  1  0
 11 10  2  0
 12 13  1  0
 13 14  1  0
 15 14  1  0
 16 15  1  6
 16 17  1  0
 17  7  1  0
 18 16  1  0
 19 18  2  0
 20 18  1  0
 21 20  1  0
 22 21  1  0
 23 22  1  0
 23 24  1  0
 24 20  1  0
 24 25  1  6
 25 26  1  0
 27 25  2  0
M  END
$$$$
