LRP.pdb
     RDKit          3D

 27 27  0  0  1  0  0  0  0  0999 V2000
   21.6654  -19.3431  -10.8954 C   0  0  0  0  0  0  0  0  0  0  0  0
   22.7207  -20.4332  -10.7272 C   0  0  1  0  0  0  0  0  0  0  0  0
   22.1316  -21.6909  -11.3315 C   0  0  0  0  0  0  0  0  0  0  0  0
   23.9260  -19.9843  -11.5187 C   0  0  0  0  0  0  0  0  0  0  0  0
   25.0411  -21.0005  -11.4945 C   0  0  2  0  0  0  0  0  0  0  0  0
   25.5361  -21.1132  -10.1458 N   0  0  0  0  0  0  0  0  0  0  0  0
   26.1470  -20.6691  -12.4019 C   0  0  0  0  0  0  0  0  0  0  0  0
   26.9043  -19.6886  -12.1652 O   0  0  0  0  0  0  0  0  0  0  0  0
   27.8259  -26.5574  -16.1448 N   0  0  0  0  0  0  0  0  0  0  0  0
   26.5535  -26.1671  -16.7001 C   0  0  0  0  0  0  0  0  0  0  0  0
   25.5357  -26.9489  -16.6294 N   0  0  0  0  0  0  0  0  0  0  0  0
   26.3987  -24.9120  -17.3361 N   0  0  0  0  0  0  0  0  0  0  0  0
   27.4952  -23.9184  -17.2872 C   0  0  0  0  0  0  0  0  0  0  0  0
   27.0136  -22.6883  -16.5790 C   0  0  0  0  0  0  0  0  0  0  0  0
   27.6606  -22.3406  -15.3020 C   0  0  0  0  0  0  0  0  0  0  0  0
   27.3089  -21.0568  -14.6285 C   0  0  2  0  0  0  0  0  0  0  0  0
   26.3657  -21.4512  -13.5466 N   0  0  0  0  0  0  0  0  0  0  0  0
   26.6342  -20.0521  -15.4431 C   0  0  0  0  0  0  0  0  0  0  0  0
   25.3383  -19.9957  -15.2840 O   0  0  0  0  0  0  0  0  0  0  0  0
   24.6562  -26.6855  -17.0977 N   0  0  0  0  0  0  0  0  0  0  0  0
   27.2254  -19.1611  -16.3563 C   0  0  0  0  0  0  0  0  0  0  0  0
   28.6369  -19.1335  -16.6876 C   0  0  0  0  0  0  0  0  0  0  0  0
   28.8884  -17.6922  -17.0023 C   0  0  0  0  0  0  0  0  0  0  0  0
   27.5653  -16.9781  -16.9400 C   0  0  1  0  0  0  0  0  0  0  0  0
   26.6077  -18.1641  -17.1612 C   0  0  0  0  0  0  0  0  0  0  0  0
   26.6832  -18.4950  -18.6294 O   0  0  0  0  0  0  0  0  0  0  0  0
   26.1048  -17.6899  -19.5752 O   0  0  0  0  0  0  0  0  0  0  0  0
  2  3  1  6
  2  1  1  0
  4  2  1  0
  5  6  1  1
  5  4  1  0
  7  5  1  0
  8  7  2  0
  9 10  1  0
 10 12  1  0
 11 10  2  0
 12 13  1  0
 13 14  1  0
 15 14  1  0
 16 15  1  6
 16 17  1  0
 17  7  1  0
 18 16  1  0
 19 18  2  0
 20 18  1  0
 21 20  1  0
 22 21  1  0
 23 22  1  0
 23 24  1  0
 24 20  1  0
 24 25  1  6
 25 26  1  0
 27 25  2  0
M  END
$$$$
