LRP.pdb
     RDKit          3D

 27 27  0  0  1  0  0  0  0  0999 V2000
   26.8615  -15.3762  -18.3870 C   0  0  0  0  0  0  0  0  0  0  0  0
   27.7468  -16.3735  -17.6443 C   0  0  1  0  0  0  0  0  0  0  0  0
   27.9058  -15.8344  -16.2378 C   0  0  0  0  0  0  0  0  0  0  0  0
   26.9909  -17.6807  -17.6239 C   0  0  0  0  0  0  0  0  0  0  0  0
   27.7468  -18.7712  -16.9055 C   0  0  2  0  0  0  0  0  0  0  0  0
   28.5981  -19.4461  -17.8523 N   0  0  0  0  0  0  0  0  0  0  0  0
   26.8695  -19.7464  -16.2455 C   0  0  0  0  0  0  0  0  0  0  0  0
   26.2283  -20.5978  -16.9198 O   0  0  0  0  0  0  0  0  0  0  0  0
   23.2677  -19.6325   -9.8200 N   0  0  0  0  0  0  0  0  0  0  0  0
   23.6070  -20.8149   -9.0675 C   0  0  0  0  0  0  0  0  0  0  0  0
   22.8188  -21.2662   -8.1580 N   0  0  0  0  0  0  0  0  0  0  0  0
   24.8181  -21.5046   -9.3152 N   0  0  0  0  0  0  0  0  0  0  0  0
   25.8257  -20.9233  -10.2310 C   0  0  0  0  0  0  0  0  0  0  0  0
   25.3729  -21.1152  -11.6468 C   0  0  0  0  0  0  0  0  0  0  0  0
   26.2491  -20.6074  -12.7168 C   0  0  0  0  0  0  0  0  0  0  0  0
   25.7408  -20.5586  -14.1184 C   0  0  2  0  0  0  0  0  0  0  0  0
   26.7415  -19.7327  -14.8478 N   0  0  0  0  0  0  0  0  0  0  0  0
   24.4375  -19.9357  -14.3220 C   0  0  0  0  0  0  0  0  0  0  0  0
   24.4401  -18.6295  -14.2789 O   0  0  0  0  0  0  0  0  0  0  0  0
   23.0285  -22.1661   -7.7013 N   0  0  0  0  0  0  0  0  0  0  0  0
   23.2122  -20.5847  -14.5561 C   0  0  0  0  0  0  0  0  0  0  0  0
   23.0082  -22.0181  -14.4758 C   0  0  0  0  0  0  0  0  0  0  0  0
   21.9293  -22.2690  -15.4822 C   0  0  0  0  0  0  0  0  0  0  0  0
   21.4889  -20.9328  -16.0158 C   0  0  2  0  0  0  0  0  0  0  0  0
   21.9439  -20.0183  -14.8629 C   0  0  0  0  0  0  0  0  0  0  0  0
   20.9489  -20.2218  -13.7495 O   0  0  0  0  0  0  0  0  0  0  0  0
   19.7039  -19.6512  -13.7891 O   0  0  0  0  0  0  0  0  0  0  0  0
  2  3  1  1
  2  1  1  0
  4  2  1  0
  5  6  1  6
  5  4  1  0
  7  5  1  0
  8  7  2  0
  9 10  1  0
 10 12  1  0
 11 10  2  0
 12 13  1  0
 13 14  1  0
 15 14  1  0
 16 15  1  1
 16 17  1  0
 17  7  1  0
 18 16  1  0
 19 18  2  0
 20 18  1  0
 21 20  1  0
 22 21  1  0
 23 22  1  0
 23 24  1  0
 24 20  1  0
 24 25  1  1
 25 26  1  0
 27 25  2  0
M  END
$$$$
