LRP.pdb
     RDKit          3D

 27 27  0  0  1  0  0  0  0  0999 V2000
   17.6553  -18.4999  -17.8131 C   0  0  0  0  0  0  0  0  0  0  0  0
   18.3767  -19.5698  -16.9977 C   0  0  1  0  0  0  0  0  0  0  0  0
   19.4126  -20.1791  -17.9195 C   0  0  0  0  0  0  0  0  0  0  0  0
   19.0497  -18.8507  -15.8529 C   0  0  0  0  0  0  0  0  0  0  0  0
   20.0336  -19.7294  -15.1204 C   0  0  2  0  0  0  0  0  0  0  0  0
   19.3552  -20.3688  -14.0215 N   0  0  0  0  0  0  0  0  0  0  0  0
   21.2044  -18.9973  -14.6211 C   0  0  0  0  0  0  0  0  0  0  0  0
   21.0651  -17.9573  -13.9212 O   0  0  0  0  0  0  0  0  0  0  0  0
   25.1928  -23.7555  -13.5668 N   0  0  0  0  0  0  0  0  0  0  0  0
   26.1794  -22.9285  -14.2165 C   0  0  0  0  0  0  0  0  0  0  0  0
   26.8051  -23.3447  -15.2593 N   0  0  0  0  0  0  0  0  0  0  0  0
   26.4801  -21.6381  -13.7182 N   0  0  0  0  0  0  0  0  0  0  0  0
   25.7174  -21.0919  -12.5729 C   0  0  0  0  0  0  0  0  0  0  0  0
   24.3519  -20.6865  -13.0393 C   0  0  0  0  0  0  0  0  0  0  0  0
   24.0878  -19.2464  -13.2028 C   0  0  0  0  0  0  0  0  0  0  0  0
   23.7291  -18.7158  -14.5501 C   0  0  2  0  0  0  0  0  0  0  0  0
   22.4948  -19.4584  -14.9251 N   0  0  0  0  0  0  0  0  0  0  0  0
   24.7002  -18.9271  -15.6180 C   0  0  0  0  0  0  0  0  0  0  0  0
   24.5722  -20.0576  -16.2611 O   0  0  0  0  0  0  0  0  0  0  0  0
   27.5479  -22.7635  -15.6749 N   0  0  0  0  0  0  0  0  0  0  0  0
   25.7311  -18.0568  -16.0142 C   0  0  0  0  0  0  0  0  0  0  0  0
   26.1211  -16.8580  -15.2975 C   0  0  0  0  0  0  0  0  0  0  0  0
   26.6056  -15.9498  -16.3839 C   0  0  0  0  0  0  0  0  0  0  0  0
   26.5696  -16.7265  -17.6722 C   0  0  2  0  0  0  0  0  0  0  0  0
   26.6168  -18.1644  -17.1221 C   0  0  0  0  0  0  0  0  0  0  0  0
   28.0405  -18.4000  -16.6878 O   0  0  0  0  0  0  0  0  0  0  0  0
   28.3790  -18.4901  -15.3633 O   0  0  0  0  0  0  0  0  0  0  0  0
  2  3  1  6
  2  1  1  0
  4  2  1  0
  5  6  1  1
  5  4  1  0
  7  5  1  0
  8  7  2  0
  9 10  1  0
 10 12  1  0
 11 10  2  0
 12 13  1  0
 13 14  1  0
 15 14  1  0
 16 15  1  1
 16 17  1  0
 17  7  1  0
 18 16  1  0
 19 18  2  0
 20 18  1  0
 21 20  1  0
 22 21  1  0
 23 22  1  0
 23 24  1  0
 24 20  1  0
 24 25  1  6
 25 26  1  0
 27 25  2  0
M  END
$$$$
