LRP.pdb
     RDKit          3D

 27 27  0  0  1  0  0  0  0  0999 V2000
   27.2922  -16.7451  -19.9226 C   0  0  0  0  0  0  0  0  0  0  0  0
   28.2744  -17.7996  -19.4192 C   0  0  1  0  0  0  0  0  0  0  0  0
   29.1920  -17.0932  -18.4430 C   0  0  0  0  0  0  0  0  0  0  0  0
   27.4492  -18.8429  -18.7042 C   0  0  0  0  0  0  0  0  0  0  0  0
   28.3028  -19.8532  -17.9779 C   0  0  2  0  0  0  0  0  0  0  0  0
   29.0133  -20.6441  -18.9506 N   0  0  0  0  0  0  0  0  0  0  0  0
   27.5312  -20.7337  -17.0918 C   0  0  0  0  0  0  0  0  0  0  0  0
   26.9409  -21.7511  -17.5473 O   0  0  0  0  0  0  0  0  0  0  0  0
   24.9121  -19.3725  -10.2517 N   0  0  0  0  0  0  0  0  0  0  0  0
   25.2645  -20.5079   -9.4355 C   0  0  0  0  0  0  0  0  0  0  0  0
   24.6025  -20.7837   -8.3688 N   0  0  0  0  0  0  0  0  0  0  0  0
   26.3492  -21.3442   -9.7928 N   0  0  0  0  0  0  0  0  0  0  0  0
   27.2364  -20.9647  -10.9157 C   0  0  0  0  0  0  0  0  0  0  0  0
   26.5448  -21.2622  -12.2117 C   0  0  0  0  0  0  0  0  0  0  0  0
   27.3120  -21.0653  -13.4539 C   0  0  0  0  0  0  0  0  0  0  0  0
   26.6340  -21.2467  -14.7701 C   0  0  2  0  0  0  0  0  0  0  0  0
   27.4482  -20.4419  -15.7214 N   0  0  0  0  0  0  0  0  0  0  0  0
   25.2586  -20.7707  -14.8706 C   0  0  0  0  0  0  0  0  0  0  0  0
   25.1357  -19.4872  -15.0834 O   0  0  0  0  0  0  0  0  0  0  0  0
   24.8356  -21.6294   -7.8276 N   0  0  0  0  0  0  0  0  0  0  0  0
   24.0841  -21.5367  -14.7658 C   0  0  0  0  0  0  0  0  0  0  0  0
   24.0360  -22.9203  -14.3342 C   0  0  0  0  0  0  0  0  0  0  0  0
   22.8658  -23.4745  -15.0847 C   0  0  0  0  0  0  0  0  0  0  0  0
   22.2288  -22.3357  -15.8343 C   0  0  2  0  0  0  0  0  0  0  0  0
   22.7366  -21.1452  -14.9992 C   0  0  0  0  0  0  0  0  0  0  0  0
   21.9201  -21.1438  -13.7326 O   0  0  0  0  0  0  0  0  0  0  0  0
   20.6448  -20.6438  -13.7038 O   0  0  0  0  0  0  0  0  0  0  0  0
  2  3  1  1
  2  1  1  0
  4  2  1  0
  5  6  1  6
  5  4  1  0
  7  5  1  0
  8  7  2  0
  9 10  1  0
 10 12  1  0
 11 10  2  0
 12 13  1  0
 13 14  1  0
 15 14  1  0
 16 15  1  1
 16 17  1  0
 17  7  1  0
 18 16  1  0
 19 18  2  0
 20 18  1  0
 21 20  1  0
 22 21  1  0
 23 22  1  0
 23 24  1  0
 24 20  1  0
 24 25  1  1
 25 26  1  0
 27 25  2  0
M  END
$$$$
