LRP.pdb
     RDKit          3D

 27 27  0  0  1  0  0  0  0  0999 V2000
   25.7060  -18.9950  -21.3183 C   0  0  0  0  0  0  0  0  0  0  0  0
   26.4203  -18.7214  -19.9974 C   0  0  1  0  0  0  0  0  0  0  0  0
   26.1158  -17.2812  -19.6407 C   0  0  0  0  0  0  0  0  0  0  0  0
   25.8080  -19.6555  -18.9809 C   0  0  0  0  0  0  0  0  0  0  0  0
   26.3818  -19.4585  -17.5994 C   0  0  2  0  0  0  0  0  0  0  0  0
   27.8100  -19.6399  -17.6606 N   0  0  0  0  0  0  0  0  0  0  0  0
   25.8095  -20.3683  -16.5990 C   0  0  0  0  0  0  0  0  0  0  0  0
   25.1027  -21.3520  -16.9506 O   0  0  0  0  0  0  0  0  0  0  0  0
   29.3895  -20.8983   -8.8934 N   0  0  0  0  0  0  0  0  0  0  0  0
   29.5194  -21.4740  -10.2091 C   0  0  0  0  0  0  0  0  0  0  0  0
   30.6565  -21.8960  -10.6347 N   0  0  0  0  0  0  0  0  0  0  0  0
   28.3948  -21.5865  -11.0615 N   0  0  0  0  0  0  0  0  0  0  0  0
   27.0618  -21.1498  -10.5877 C   0  0  0  0  0  0  0  0  0  0  0  0
   26.0636  -21.3310  -11.6911 C   0  0  0  0  0  0  0  0  0  0  0  0
   26.4611  -20.9079  -13.0451 C   0  0  0  0  0  0  0  0  0  0  0  0
   25.4725  -20.9935  -14.1590 C   0  0  2  0  0  0  0  0  0  0  0  0
   26.0505  -20.1426  -15.2348 N   0  0  0  0  0  0  0  0  0  0  0  0
   24.1310  -20.4897  -13.8853 C   0  0  0  0  0  0  0  0  0  0  0  0
   23.9993  -19.1936  -13.9882 O   0  0  0  0  0  0  0  0  0  0  0  0
   30.7322  -22.2895  -11.5843 N   0  0  0  0  0  0  0  0  0  0  0  0
   22.9959  -21.2414  -13.5335 C   0  0  0  0  0  0  0  0  0  0  0  0
   23.0078  -22.6565  -13.2170 C   0  0  0  0  0  0  0  0  0  0  0  0
   21.6598  -23.1220  -13.6708 C   0  0  0  0  0  0  0  0  0  0  0  0
   20.8940  -21.9108  -14.1299 C   0  0  1  0  0  0  0  0  0  0  0  0
   21.6514  -20.8074  -13.3675 C   0  0  0  0  0  0  0  0  0  0  0  0
   21.1987  -20.9032  -11.9333 O   0  0  0  0  0  0  0  0  0  0  0  0
   21.9912  -21.4680  -10.9689 O   0  0  0  0  0  0  0  0  0  0  0  0
  2  3  1  1
  2  1  1  0
  4  2  1  0
  5  6  1  6
  5  4  1  0
  7  5  1  0
  8  7  2  0
  9 10  1  0
 10 12  1  0
 11 10  2  0
 12 13  1  0
 13 14  1  0
 15 14  1  0
 16 15  1  1
 16 17  1  0
 17  7  1  0
 18 16  1  0
 19 18  2  0
 20 18  1  0
 21 20  1  0
 22 21  1  0
 23 22  1  0
 23 24  1  0
 24 20  1  0
 24 25  1  1
 25 26  1  0
 27 25  2  0
M  END
$$$$
