LRP.pdb
     RDKit          3D

 27 27  0  0  1  0  0  0  0  0999 V2000
   31.1936  -19.5977  -20.4136 C   0  0  0  0  0  0  0  0  0  0  0  0
   29.9523  -19.1104  -19.6710 C   0  0  1  0  0  0  0  0  0  0  0  0
   28.8529  -19.0026  -20.7072 C   0  0  0  0  0  0  0  0  0  0  0  0
   29.6163  -20.1781  -18.6572 C   0  0  0  0  0  0  0  0  0  0  0  0
   28.3174  -19.9025  -17.9404 C   0  0  2  0  0  0  0  0  0  0  0  0
   28.4011  -18.6092  -17.3105 N   0  0  0  0  0  0  0  0  0  0  0  0
   27.9816  -20.9210  -16.9375 C   0  0  0  0  0  0  0  0  0  0  0  0
   28.0858  -22.1493  -17.2049 O   0  0  0  0  0  0  0  0  0  0  0  0
   23.5180  -20.6884   -8.4533 N   0  0  0  0  0  0  0  0  0  0  0  0
   24.1268  -20.6699   -9.7604 C   0  0  0  0  0  0  0  0  0  0  0  0
   23.5161  -20.1495  -10.7646 N   0  0  0  0  0  0  0  0  0  0  0  0
   25.4124  -21.2257   -9.9652 N   0  0  0  0  0  0  0  0  0  0  0  0
   26.3343  -20.6133  -10.9486 C   0  0  0  0  0  0  0  0  0  0  0  0
   26.0798  -21.2099  -12.2999 C   0  0  0  0  0  0  0  0  0  0  0  0
   26.9870  -20.8263  -13.3954 C   0  0  0  0  0  0  0  0  0  0  0  0
   26.8044  -21.4355  -14.7448 C   0  0  2  0  0  0  0  0  0  0  0  0
   27.5391  -20.5255  -15.6656 N   0  0  0  0  0  0  0  0  0  0  0  0
   25.4357  -21.5356  -15.2395 C   0  0  0  0  0  0  0  0  0  0  0  0
   24.9568  -20.4354  -15.7572 O   0  0  0  0  0  0  0  0  0  0  0  0
   23.9262  -20.2261  -11.7071 N   0  0  0  0  0  0  0  0  0  0  0  0
   24.6042  -22.6694  -15.2166 C   0  0  0  0  0  0  0  0  0  0  0  0
   24.8875  -23.8869  -14.4815 C   0  0  0  0  0  0  0  0  0  0  0  0
   24.2455  -24.9502  -15.3162 C   0  0  0  0  0  0  0  0  0  0  0  0
   23.5239  -24.2650  -16.4450 C   0  0  2  0  0  0  0  0  0  0  0  0
   23.3378  -22.8630  -15.8349 C   0  0  0  0  0  0  0  0  0  0  0  0
   22.2278  -22.9904  -14.8237 O   0  0  0  0  0  0  0  0  0  0  0  0
   20.9120  -23.0161  -15.2048 O   0  0  0  0  0  0  0  0  0  0  0  0
  2  3  1  6
  2  1  1  0
  4  2  1  0
  5  6  1  1
  5  4  1  0
  7  5  1  0
  8  7  2  0
  9 10  1  0
 10 12  1  0
 11 10  2  0
 12 13  1  0
 13 14  1  0
 15 14  1  0
 16 15  1  1
 16 17  1  0
 17  7  1  0
 18 16  1  0
 19 18  2  0
 20 18  1  0
 21 20  1  0
 22 21  1  0
 23 22  1  0
 23 24  1  0
 24 20  1  0
 24 25  1  1
 25 26  1  0
 27 25  2  0
M  END
$$$$
