DCF.pdb
     RDKit          3D

 26 26  0  0  1  0  0  0  0  0999 V2000
   17.7032  -11.4266  -15.4129 N   0  0  0  0  0  0  0  0  0  0  0  0
   18.9774  -11.1493  -16.0569 C   0  0  1  0  0  0  0  0  0  0  0  0
   19.0024  -11.8876  -17.3793 C   0  0  0  0  0  0  0  0  0  0  0  0
   18.8973  -13.3649  -17.1306 C   0  0  0  0  0  0  0  0  0  0  0  0
   19.7187  -13.9738  -16.4101 O   0  0  0  0  0  0  0  0  0  0  0  0
   19.1533   -9.6926  -16.3016 C   0  0  0  0  0  0  0  0  0  0  0  0
   20.1579   -9.3228  -16.9215 O   0  0  0  0  0  0  0  0  0  0  0  0
   17.8590  -14.0928  -17.7130 O   0  0  0  0  0  0  0  0  0  0  0  0
   18.2327   -8.7142  -15.8621 N   0  0  0  0  0  0  0  0  0  0  0  0
   18.3767   -7.3078  -16.0790 C   0  0  1  0  0  0  0  0  0  0  0  0
   17.0942   -6.5987  -16.3805 C   0  0  0  0  0  0  0  0  0  0  0  0
   17.2520   -4.8008  -16.2681 S   0  0  0  0  0  0  0  0  0  0  0  0
   19.0311   -6.6320  -14.9149 C   0  0  0  0  0  0  0  0  0  0  0  0
   18.6108   -6.7963  -13.7356 O   0  0  0  0  0  0  0  0  0  0  0  0
   20.1532   -5.7753  -15.0717 N   0  0  0  0  0  0  0  0  0  0  0  0
   20.8355   -5.1409  -13.9441 C   0  0  1  0  0  0  0  0  0  0  0  0
   21.8209   -6.0529  -13.3047 C   0  0  0  0  0  0  0  0  0  0  0  0
   22.7911   -6.5427  -14.3076 C   0  0  0  0  0  0  0  0  0  0  0  0
   22.8729   -7.9194  -14.5418 C   0  0  0  0  0  0  0  0  0  0  0  0
   23.7339   -8.4387  -15.4658 C   0  0  0  0  0  0  0  0  0  0  0  0
   24.5352   -7.5621  -16.1758 C   0  0  0  0  0  0  0  0  0  0  0  0
   24.4809   -6.2069  -15.9718 C   0  0  0  0  0  0  0  0  0  0  0  0
   23.6107   -5.6953  -15.0393 C   0  0  0  0  0  0  0  0  0  0  0  0
   21.3486   -3.8097  -14.3167 C   0  0  0  0  0  0  0  0  0  0  0  0
   21.2665   -3.2432  -15.5774 O   0  0  0  0  0  0  0  0  0  0  0  0
   21.9318   -3.0624  -13.4488 O   0  0  0  0  0  0  0  0  0  0  0  0
  2  1  1  6
  3  2  1  0
  3  4  1  0
  4  8  1  0
  5  4  2  0
  6  2  1  0
  6  7  2  0
  9  6  1  0
 10 13  1  0
 10  9  1  0
 10 11  1  1
 12 11  1  0
 13 15  1  0
 14 13  2  0
 15 16  1  0
 16 24  1  0
 16 17  1  6
 18 17  1  0
 19 18  2  0
 20 19  1  0
 21 20  2  0
 21 22  1  0
 22 23  2  0
 23 18  1  0
 24 26  2  0
 24 25  1  0
M  END
$$$$
