DCF.pdb
     RDKit          3D

 26 26  0  0  1  0  0  0  0  0999 V2000
   19.8987  -12.7514  -18.5038 N   0  0  0  0  0  0  0  0  0  0  0  0
   20.5919  -12.2928  -17.3103 C   0  0  1  0  0  0  0  0  0  0  0  0
   22.0780  -12.4858  -17.5304 C   0  0  0  0  0  0  0  0  0  0  0  0
   22.3998  -13.9527  -17.5195 C   0  0  0  0  0  0  0  0  0  0  0  0
   22.0162  -14.7066  -16.5982 O   0  0  0  0  0  0  0  0  0  0  0  0
   20.3151  -10.8557  -17.0437 C   0  0  0  0  0  0  0  0  0  0  0  0
   20.4108  -10.0592  -17.9854 O   0  0  0  0  0  0  0  0  0  0  0  0
   23.1474  -14.5051  -18.5603 O   0  0  0  0  0  0  0  0  0  0  0  0
   19.9499  -10.3576  -15.7723 N   0  0  0  0  0  0  0  0  0  0  0  0
   19.6369   -8.9898  -15.4950 C   0  0  1  0  0  0  0  0  0  0  0  0
   18.3496   -8.7916  -14.7588 C   0  0  0  0  0  0  0  0  0  0  0  0
   16.9059   -9.2367  -15.7526 S   0  0  0  0  0  0  0  0  0  0  0  0
   20.7314   -8.3157  -14.7283 C   0  0  0  0  0  0  0  0  0  0  0  0
   21.1506   -8.7800  -13.6314 O   0  0  0  0  0  0  0  0  0  0  0  0
   21.3546   -7.1254  -15.1894 N   0  0  0  0  0  0  0  0  0  0  0  0
   22.4680   -6.4856  -14.4892 C   0  0  1  0  0  0  0  0  0  0  0  0
   23.7282   -6.5433  -15.2767 C   0  0  0  0  0  0  0  0  0  0  0  0
   24.1091   -7.9495  -15.5311 C   0  0  0  0  0  0  0  0  0  0  0  0
   23.9039   -8.4766  -16.8106 C   0  0  0  0  0  0  0  0  0  0  0  0
   24.2486   -9.7614  -17.1195 C   0  0  0  0  0  0  0  0  0  0  0  0
   24.8131  -10.5421  -16.1262 C   0  0  0  0  0  0  0  0  0  0  0  0
   25.0285  -10.0576  -14.8614 C   0  0  0  0  0  0  0  0  0  0  0  0
   24.6777   -8.7631  -14.5617 C   0  0  0  0  0  0  0  0  0  0  0  0
   22.0859   -5.1495  -13.9964 C   0  0  0  0  0  0  0  0  0  0  0  0
   22.8383   -4.3671  -13.1368 O   0  0  0  0  0  0  0  0  0  0  0  0
   20.9762   -4.6085  -14.3538 O   0  0  0  0  0  0  0  0  0  0  0  0
  2  1  1  6
  3  2  1  0
  3  4  1  0
  4  8  1  0
  5  4  2  0
  6  2  1  0
  6  7  2  0
  9  6  1  0
 10 13  1  0
 10  9  1  0
 10 11  1  1
 12 11  1  0
 13 15  1  0
 14 13  2  0
 15 16  1  0
 16 24  1  0
 16 17  1  6
 18 17  1  0
 19 18  2  0
 20 19  1  0
 21 20  2  0
 21 22  1  0
 22 23  2  0
 23 18  1  0
 24 26  2  0
 24 25  1  0
M  END
$$$$
