DCF.pdb
     RDKit          3D

 26 26  0  0  1  0  0  0  0  0999 V2000
   17.4885  -15.9124  -16.8697 N   0  0  0  0  0  0  0  0  0  0  0  0
   17.4893  -14.6071  -16.2281 C   0  0  1  0  0  0  0  0  0  0  0  0
   17.4274  -14.8233  -14.7302 C   0  0  0  0  0  0  0  0  0  0  0  0
   16.1235  -15.4766  -14.3716 C   0  0  0  0  0  0  0  0  0  0  0  0
   15.0262  -15.0190  -14.7601 O   0  0  0  0  0  0  0  0  0  0  0  0
   18.7183  -13.8401  -16.5656 C   0  0  0  0  0  0  0  0  0  0  0  0
   19.5314  -14.3547  -17.3432 O   0  0  0  0  0  0  0  0  0  0  0  0
   16.1199  -16.6278  -13.5830 O   0  0  0  0  0  0  0  0  0  0  0  0
   19.0018  -12.5577  -16.0434 N   0  0  0  0  0  0  0  0  0  0  0  0
   19.9429  -11.6405  -16.6081 C   0  0  1  0  0  0  0  0  0  0  0  0
   19.6771  -11.2910  -18.0384 C   0  0  0  0  0  0  0  0  0  0  0  0
   20.8848  -10.1207  -18.7031 S   0  0  0  0  0  0  0  0  0  0  0  0
   20.0243  -10.3729  -15.8164 C   0  0  0  0  0  0  0  0  0  0  0  0
   18.9964   -9.6817  -15.5709 O   0  0  0  0  0  0  0  0  0  0  0  0
   21.2534   -9.8816  -15.3010 N   0  0  0  0  0  0  0  0  0  0  0  0
   21.3516   -8.6601  -14.5024 C   0  0  1  0  0  0  0  0  0  0  0  0
   22.4807   -8.7156  -13.5361 C   0  0  0  0  0  0  0  0  0  0  0  0
   23.7121   -9.1761  -14.2135 C   0  0  0  0  0  0  0  0  0  0  0  0
   24.3778   -8.2888  -15.0659 C   0  0  0  0  0  0  0  0  0  0  0  0
   25.5292   -8.6421  -15.7096 C   0  0  0  0  0  0  0  0  0  0  0  0
   26.0309   -9.9142  -15.4979 C   0  0  0  0  0  0  0  0  0  0  0  0
   25.4042  -10.8092  -14.6689 C   0  0  0  0  0  0  0  0  0  0  0  0
   24.2460  -10.4430  -14.0263 C   0  0  0  0  0  0  0  0  0  0  0  0
   21.3060   -7.4616  -15.3600 C   0  0  0  0  0  0  0  0  0  0  0  0
   21.1280   -6.1631  -14.9137 O   0  0  0  0  0  0  0  0  0  0  0  0
   21.4342   -7.5593  -16.6351 O   0  0  0  0  0  0  0  0  0  0  0  0
  2  1  1  6
  3  2  1  0
  3  4  1  0
  4  8  1  0
  5  4  2  0
  6  2  1  0
  6  7  2  0
  9  6  1  0
 10 13  1  0
 10  9  1  0
 10 11  1  6
 12 11  1  0
 13 15  1  0
 14 13  2  0
 15 16  1  0
 16 24  1  0
 16 17  1  6
 18 17  1  0
 19 18  2  0
 20 19  1  0
 21 20  2  0
 21 22  1  0
 22 23  2  0
 23 18  1  0
 24 26  2  0
 24 25  1  0
M  END
$$$$
