DCF.pdb
     RDKit          3D

 26 26  0  0  1  0  0  0  0  0999 V2000
   18.8488  -13.6345  -16.1527 N   0  0  0  0  0  0  0  0  0  0  0  0
   19.0268  -12.2960  -16.6930 C   0  0  1  0  0  0  0  0  0  0  0  0
   17.6727  -11.6176  -16.7148 C   0  0  0  0  0  0  0  0  0  0  0  0
   16.7501  -12.3697  -17.6306 C   0  0  0  0  0  0  0  0  0  0  0  0
   17.0753  -12.6610  -18.8027 O   0  0  0  0  0  0  0  0  0  0  0  0
   19.9653  -11.4976  -15.8595 C   0  0  0  0  0  0  0  0  0  0  0  0
   19.6555  -11.2760  -14.6825 O   0  0  0  0  0  0  0  0  0  0  0  0
   15.4908  -12.7616  -17.1751 O   0  0  0  0  0  0  0  0  0  0  0  0
   21.1886  -10.9816  -16.3445 N   0  0  0  0  0  0  0  0  0  0  0  0
   22.1531  -10.2916  -15.5449 C   0  0  1  0  0  0  0  0  0  0  0  0
   23.5614  -10.7556  -15.7451 C   0  0  0  0  0  0  0  0  0  0  0  0
   23.8180  -12.4563  -15.1869 S   0  0  0  0  0  0  0  0  0  0  0  0
   22.1034   -8.8128  -15.7703 C   0  0  0  0  0  0  0  0  0  0  0  0
   22.0060   -8.3258  -16.9313 O   0  0  0  0  0  0  0  0  0  0  0  0
   22.1622   -7.8827  -14.6984 N   0  0  0  0  0  0  0  0  0  0  0  0
   21.9632   -6.4449  -14.8786 C   0  0  1  0  0  0  0  0  0  0  0  0
   20.7397   -6.1467  -15.6697 C   0  0  0  0  0  0  0  0  0  0  0  0
   20.6152   -4.6897  -15.8904 C   0  0  0  0  0  0  0  0  0  0  0  0
   19.5205   -4.0204  -15.3330 C   0  0  0  0  0  0  0  0  0  0  0  0
   19.3527   -2.6734  -15.4826 C   0  0  0  0  0  0  0  0  0  0  0  0
   20.3019   -1.9744  -16.2073 C   0  0  0  0  0  0  0  0  0  0  0  0
   21.3872   -2.5986  -16.7672 C   0  0  0  0  0  0  0  0  0  0  0  0
   21.5459   -3.9546  -16.6104 C   0  0  0  0  0  0  0  0  0  0  0  0
   22.0815   -5.7289  -13.5950 C   0  0  0  0  0  0  0  0  0  0  0  0
   22.7532   -4.5335  -13.4031 O   0  0  0  0  0  0  0  0  0  0  0  0
   21.5414   -6.1982  -12.5273 O   0  0  0  0  0  0  0  0  0  0  0  0
  2  1  1  1
  3  2  1  0
  3  4  1  0
  4  8  1  0
  5  4  2  0
  6  2  1  0
  6  7  2  0
  9  6  1  0
 10 13  1  0
 10  9  1  0
 10 11  1  6
 12 11  1  0
 13 15  1  0
 14 13  2  0
 15 16  1  0
 16 24  1  0
 16 17  1  1
 18 17  1  0
 19 18  2  0
 20 19  1  0
 21 20  2  0
 21 22  1  0
 22 23  2  0
 23 18  1  0
 24 26  2  0
 24 25  1  0
M  END
$$$$
