DCF.pdb
     RDKit          3D

 26 26  0  0  1  0  0  0  0  0999 V2000
   18.9392  -11.4474  -18.2442 N   0  0  0  0  0  0  0  0  0  0  0  0
   18.6371  -10.9755  -16.9020 C   0  0  1  0  0  0  0  0  0  0  0  0
   19.5225  -11.7300  -15.9318 C   0  0  0  0  0  0  0  0  0  0  0  0
   19.0974  -13.1695  -15.8809 C   0  0  0  0  0  0  0  0  0  0  0  0
   17.8956  -13.5004  -15.7780 O   0  0  0  0  0  0  0  0  0  0  0  0
   18.8941   -9.5161  -16.7720 C   0  0  0  0  0  0  0  0  0  0  0  0
   19.8675   -9.0402  -17.3690 O   0  0  0  0  0  0  0  0  0  0  0  0
   20.0593  -14.1781  -15.9493 O   0  0  0  0  0  0  0  0  0  0  0  0
   18.0841   -8.6501  -16.0027 N   0  0  0  0  0  0  0  0  0  0  0  0
   18.2759   -7.2365  -15.8997 C   0  0  1  0  0  0  0  0  0  0  0  0
   17.0067   -6.4500  -15.8045 C   0  0  0  0  0  0  0  0  0  0  0  0
   15.8518   -6.8309  -17.1428 S   0  0  0  0  0  0  0  0  0  0  0  0
   19.1451   -6.8790  -14.7348 C   0  0  0  0  0  0  0  0  0  0  0  0
   18.8841   -7.2858  -13.5682 O   0  0  0  0  0  0  0  0  0  0  0  0
   20.3030   -6.0687  -14.8767 N   0  0  0  0  0  0  0  0  0  0  0  0
   21.2156   -5.7816  -13.7703 C   0  0  1  0  0  0  0  0  0  0  0  0
   22.3232   -6.7709  -13.6908 C   0  0  0  0  0  0  0  0  0  0  0  0
   23.0919   -6.7815  -14.9542 C   0  0  0  0  0  0  0  0  0  0  0  0
   24.0256   -5.7639  -15.1771 C   0  0  0  0  0  0  0  0  0  0  0  0
   24.7818   -5.7222  -16.3135 C   0  0  0  0  0  0  0  0  0  0  0  0
   24.6026   -6.7219  -17.2532 C   0  0  0  0  0  0  0  0  0  0  0  0
   23.6964   -7.7343  -17.0671 C   0  0  0  0  0  0  0  0  0  0  0  0
   22.9407   -7.7663  -15.9198 C   0  0  0  0  0  0  0  0  0  0  0  0
   21.6262   -4.3655  -13.7763 C   0  0  0  0  0  0  0  0  0  0  0  0
   22.3081   -3.7245  -12.7559 O   0  0  0  0  0  0  0  0  0  0  0  0
   21.3597   -3.6071  -14.7791 O   0  0  0  0  0  0  0  0  0  0  0  0
  2  1  1  6
  3  2  1  0
  3  4  1  0
  4  8  1  0
  5  4  2  0
  6  2  1  0
  6  7  2  0
  9  6  1  0
 10 13  1  0
 10  9  1  0
 10 11  1  1
 12 11  1  0
 13 15  1  0
 14 13  2  0
 15 16  1  0
 16 24  1  0
 16 17  1  6
 18 17  1  0
 19 18  2  0
 20 19  1  0
 21 20  2  0
 21 22  1  0
 22 23  2  0
 23 18  1  0
 24 26  2  0
 24 25  1  0
M  END
$$$$
