DCF.pdb
     RDKit          3D

 26 26  0  0  1  0  0  0  0  0999 V2000
   25.8025  -23.2696  -17.9502 N   0  0  0  0  0  0  0  0  0  0  0  0
   25.4675  -21.9967  -17.3314 C   0  0  1  0  0  0  0  0  0  0  0  0
   23.9819  -21.9982  -17.0357 C   0  0  0  0  0  0  0  0  0  0  0  0
   23.2195  -21.7107  -18.2973 C   0  0  0  0  0  0  0  0  0  0  0  0
   22.4572  -22.5558  -18.8158 O   0  0  0  0  0  0  0  0  0  0  0  0
   26.2224  -21.7964  -16.0654 C   0  0  0  0  0  0  0  0  0  0  0  0
   26.5523  -22.7981  -15.4187 O   0  0  0  0  0  0  0  0  0  0  0  0
   23.3552  -20.4696  -18.9204 O   0  0  0  0  0  0  0  0  0  0  0  0
   26.5797  -20.5229  -15.5670 N   0  0  0  0  0  0  0  0  0  0  0  0
   27.0991  -20.2799  -14.2567 C   0  0  1  0  0  0  0  0  0  0  0  0
   27.7314  -18.9346  -14.0866 C   0  0  0  0  0  0  0  0  0  0  0  0
   28.2265  -18.6112  -12.3778 S   0  0  0  0  0  0  0  0  0  0  0  0
   26.0480  -20.4474  -13.2044 C   0  0  0  0  0  0  0  0  0  0  0  0
   24.9290  -19.8691  -13.2924 O   0  0  0  0  0  0  0  0  0  0  0  0
   26.2501  -21.2606  -12.0574 N   0  0  0  0  0  0  0  0  0  0  0  0
   25.2934  -21.3336  -10.9534 C   0  0  1  0  0  0  0  0  0  0  0  0
   25.8308  -22.1044   -9.8007 C   0  0  0  0  0  0  0  0  0  0  0  0
   26.7593  -21.2659   -9.0122 C   0  0  0  0  0  0  0  0  0  0  0  0
   28.1022  -21.6497   -8.9317 C   0  0  0  0  0  0  0  0  0  0  0  0
   29.0171  -20.9127   -8.2355 C   0  0  0  0  0  0  0  0  0  0  0  0
   28.5818  -19.7619   -7.6023 C   0  0  0  0  0  0  0  0  0  0  0  0
   27.2730  -19.3562   -7.6606 C   0  0  0  0  0  0  0  0  0  0  0  0
   26.3608  -20.1056   -8.3640 C   0  0  0  0  0  0  0  0  0  0  0  0
   24.7540  -19.9997  -10.6311 C   0  0  0  0  0  0  0  0  0  0  0  0
   25.4182  -18.7996  -10.8198 O   0  0  0  0  0  0  0  0  0  0  0  0
   23.5775  -19.8687  -10.1304 O   0  0  0  0  0  0  0  0  0  0  0  0
  2  1  1  1
  3  2  1  0
  3  4  1  0
  4  8  1  0
  5  4  2  0
  6  2  1  0
  6  7  2  0
  9  6  1  0
 10 13  1  0
 10  9  1  0
 10 11  1  6
 12 11  1  0
 13 15  1  0
 14 13  2  0
 15 16  1  0
 16 24  1  0
 16 17  1  1
 18 17  1  0
 19 18  2  0
 20 19  1  0
 21 20  2  0
 21 22  1  0
 22 23  2  0
 23 18  1  0
 24 26  2  0
 24 25  1  0
M  END
$$$$
