DCF.pdb
     RDKit          3D

 26 26  0  0  1  0  0  0  0  0999 V2000
   28.7589  -30.6275  -16.2096 N   0  0  0  0  0  0  0  0  0  0  0  0
   29.8089  -29.7944  -16.7741 C   0  0  1  0  0  0  0  0  0  0  0  0
   29.7380  -29.9125  -18.2826 C   0  0  0  0  0  0  0  0  0  0  0  0
   28.3003  -29.9377  -18.7163 C   0  0  0  0  0  0  0  0  0  0  0  0
   27.4542  -29.1461  -18.2454 O   0  0  0  0  0  0  0  0  0  0  0  0
   29.6374  -28.3698  -16.3821 C   0  0  0  0  0  0  0  0  0  0  0  0
   28.5674  -28.0336  -15.8602 O   0  0  0  0  0  0  0  0  0  0  0  0
   27.8815  -30.8651  -19.6710 O   0  0  0  0  0  0  0  0  0  0  0  0
   30.6329  -27.3853  -16.5761 N   0  0  0  0  0  0  0  0  0  0  0  0
   30.4786  -25.9999  -16.2556 C   0  0  1  0  0  0  0  0  0  0  0  0
   31.7684  -25.2545  -16.1166 C   0  0  0  0  0  0  0  0  0  0  0  0
   32.7705  -25.8526  -14.7353 S   0  0  0  0  0  0  0  0  0  0  0  0
   29.6257  -25.2907  -17.2605 C   0  0  0  0  0  0  0  0  0  0  0  0
   29.0932  -25.9070  -18.2254 O   0  0  0  0  0  0  0  0  0  0  0  0
   29.3701  -23.8955  -17.1842 N   0  0  0  0  0  0  0  0  0  0  0  0
   28.0204  -23.3330  -17.1506 C   0  0  1  0  0  0  0  0  0  0  0  0
   27.2410  -23.8244  -15.9833 C   0  0  0  0  0  0  0  0  0  0  0  0
   25.8367  -23.3704  -16.0775 C   0  0  0  0  0  0  0  0  0  0  0  0
   24.9089  -24.1962  -16.7213 C   0  0  0  0  0  0  0  0  0  0  0  0
   23.5931  -23.8471  -16.8289 C   0  0  0  0  0  0  0  0  0  0  0  0
   23.1909  -22.6424  -16.2798 C   0  0  0  0  0  0  0  0  0  0  0  0
   24.0734  -21.8088  -15.6417 C   0  0  0  0  0  0  0  0  0  0  0  0
   25.3953  -22.1701  -15.5394 C   0  0  0  0  0  0  0  0  0  0  0  0
   28.0523  -21.8691  -17.3240 C   0  0  0  0  0  0  0  0  0  0  0  0
   27.2041  -21.1400  -18.1401 O   0  0  0  0  0  0  0  0  0  0  0  0
   28.9136  -21.1505  -16.6965 O   0  0  0  0  0  0  0  0  0  0  0  0
  2  1  1  1
  3  2  1  0
  3  4  1  0
  4  8  1  0
  5  4  2  0
  6  2  1  0
  6  7  2  0
  9  6  1  0
 10 13  1  0
 10  9  1  0
 10 11  1  6
 12 11  1  0
 13 15  1  0
 14 13  2  0
 15 16  1  0
 16 24  1  0
 16 17  1  1
 18 17  1  0
 19 18  2  0
 20 19  1  0
 21 20  2  0
 21 22  1  0
 22 23  2  0
 23 18  1  0
 24 26  2  0
 24 25  1  0
M  END
$$$$
