WRV.pdb
     RDKit          3D

 33 34  0  0  1  0  0  0  0  0999 V2000
    6.1738  -18.7902   25.3049 N   0  0  0  0  0  0  0  0  0  0  0  0
    6.6665  -17.5675   24.6821 C   0  0  1  0  0  0  0  0  0  0  0  0
    7.4988  -16.8798   25.7599 C   0  0  0  0  0  0  0  0  0  0  0  0
    6.7763  -15.6164   26.0877 C   0  0  0  0  0  0  0  0  0  0  0  0
    5.6540  -15.4304   26.8927 C   0  0  0  0  0  0  0  0  0  0  0  0
    5.3232  -14.1509   26.9611 N   0  0  0  0  0  0  0  0  0  0  0  0
    6.2042  -13.4658   26.2134 C   0  0  0  0  0  0  0  0  0  0  0  0
    6.2523  -12.1082   25.9816 C   0  0  0  0  0  0  0  0  0  0  0  0
    7.2560  -11.6080   25.1625 C   0  0  0  0  0  0  0  0  0  0  0  0
    8.1739  -12.4513   24.6016 C   0  0  0  0  0  0  0  0  0  0  0  0
    8.1025  -13.8192   24.8519 C   0  0  0  0  0  0  0  0  0  0  0  0
    7.1157  -14.3371   25.6601 C   0  0  0  0  0  0  0  0  0  0  0  0
    7.4694  -17.8502   23.4510 C   0  0  0  0  0  0  0  0  0  0  0  0
    7.9366  -19.0147   23.2418 O   0  0  0  0  0  0  0  0  0  0  0  0
    7.3266  -13.0066   16.6245 N   0  0  0  0  0  0  0  0  0  0  0  0
    8.4238  -13.7872   16.1449 C   0  0  0  0  0  0  0  0  0  0  0  0
    9.1315  -13.4282   15.1387 N   0  0  0  0  0  0  0  0  0  0  0  0
    8.7032  -14.9933   16.8353 N   0  0  0  0  0  0  0  0  0  0  0  0
    7.7987  -15.5367   17.8240 C   0  0  0  0  0  0  0  0  0  0  0  0
    8.5912  -16.0330   19.0328 C   0  0  0  0  0  0  0  0  0  0  0  0
    7.6819  -16.6442   20.0603 C   0  0  0  0  0  0  0  0  0  0  0  0
    8.4703  -17.1065   21.2463 C   0  0  2  0  0  0  0  0  0  0  0  0
    7.7454  -16.8485   22.4707 N   0  0  0  0  0  0  0  0  0  0  0  0
    9.8228  -16.4820   21.2864 C   0  0  0  0  0  0  0  0  0  0  0  0
   10.4731  -16.4737   20.2188 O   0  0  0  0  0  0  0  0  0  0  0  0
    9.9522  -14.0259   14.8786 C   0  0  0  0  0  0  0  0  0  0  0  0
   11.0267  -15.1658   25.0501 C   0  0  2  0  0  0  0  0  0  0  0  0
   11.7986  -16.2739   24.3795 C   0  0  0  0  0  0  0  0  0  0  0  0
   11.4381  -17.6342   24.9237 C   0  0  2  0  0  0  0  0  0  0  0  0
   11.6954  -16.2247   22.8665 N   0  0  0  0  0  0  0  0  0  0  0  0
   10.3360  -15.9243   22.4921 C   0  0  0  0  0  0  0  0  0  0  0  0
   12.2256  -17.4215   22.2241 O   0  0  0  0  0  0  0  0  0  0  0  0
   11.5506  -18.4685   22.0731 O   0  0  0  0  0  0  0  0  0  0  0  0
  2  1  1  1
  3  2  1  0
  4  3  1  0
  4  5  2  0
  6  5  1  0
  7  6  1  0
  8  7  2  0
  9  8  1  0
 10  9  2  0
 10 11  1  0
 11 12  2  0
 12  7  1  0
 12  4  1  0
 13  2  1  0
 13 14  2  0
 16 17  2  0
 16 15  1  0
 18 16  1  0
 19 20  1  0
 19 18  1  0
 20 21  1  0
 22 21  1  6
 22 23  1  0
 23 13  1  0
 24 22  1  0
 24 25  2  0
 27 26  1  1
 27 28  1  0
 29 30  1  6
 29 27  1  0
 30 24  1  0
 31 29  1  0
 32 31  2  0
 33 31  1  0
M  END
$$$$
