WRV.pdb
     RDKit          3D

 33 34  0  0  1  0  0  0  0  0999 V2000
    6.7314  -16.9175   21.2397 N   0  0  0  0  0  0  0  0  0  0  0  0
    7.6966  -16.2013   22.0649 C   0  0  1  0  0  0  0  0  0  0  0  0
    7.1218  -14.7968   22.2208 C   0  0  0  0  0  0  0  0  0  0  0  0
    7.2890  -14.1388   20.8924 C   0  0  0  0  0  0  0  0  0  0  0  0
    6.3453  -13.9393   19.8865 C   0  0  0  0  0  0  0  0  0  0  0  0
    6.8717  -13.2889   18.8613 N   0  0  0  0  0  0  0  0  0  0  0  0
    8.1594  -13.0450   19.1563 C   0  0  0  0  0  0  0  0  0  0  0  0
    9.1034  -12.4002   18.3866 C   0  0  0  0  0  0  0  0  0  0  0  0
   10.3905  -12.2618   18.8895 C   0  0  0  0  0  0  0  0  0  0  0  0
   10.7066  -12.7573   20.1235 C   0  0  0  0  0  0  0  0  0  0  0  0
    9.7339  -13.4049   20.8807 C   0  0  0  0  0  0  0  0  0  0  0  0
    8.4518  -13.5541   20.4018 C   0  0  0  0  0  0  0  0  0  0  0  0
    7.9075  -16.8692   23.3876 C   0  0  0  0  0  0  0  0  0  0  0  0
    7.0387  -16.7570   24.3099 O   0  0  0  0  0  0  0  0  0  0  0  0
   13.2903  -21.2112   29.7573 N   0  0  0  0  0  0  0  0  0  0  0  0
   13.0304  -20.5959   28.4936 C   0  0  0  0  0  0  0  0  0  0  0  0
   13.6234  -19.5233   28.1194 N   0  0  0  0  0  0  0  0  0  0  0  0
   12.0761  -21.2271   27.6569 N   0  0  0  0  0  0  0  0  0  0  0  0
   11.8117  -20.7647   26.3125 C   0  0  0  0  0  0  0  0  0  0  0  0
   10.7791  -19.6386   26.3466 C   0  0  0  0  0  0  0  0  0  0  0  0
   10.4259  -19.1880   24.9579 C   0  0  0  0  0  0  0  0  0  0  0  0
    9.4525  -18.0514   25.0096 C   0  0  2  0  0  0  0  0  0  0  0  0
    9.0695  -17.6490   23.6745 N   0  0  0  0  0  0  0  0  0  0  0  0
    9.9945  -16.8961   25.7792 C   0  0  0  0  0  0  0  0  0  0  0  0
   10.9912  -16.3147   25.2983 O   0  0  0  0  0  0  0  0  0  0  0  0
   13.3768  -19.1292   27.1801 C   0  0  0  0  0  0  0  0  0  0  0  0
    9.4036  -13.1897   28.8185 C   0  0  2  0  0  0  0  0  0  0  0  0
    8.9371  -14.2932   27.9030 C   0  0  0  0  0  0  0  0  0  0  0  0
    8.4377  -13.7674   26.5799 C   0  0  1  0  0  0  0  0  0  0  0  0
    9.9788  -15.3814   27.7221 N   0  0  0  0  0  0  0  0  0  0  0  0
    9.3934  -16.4854   27.0031 C   0  0  0  0  0  0  0  0  0  0  0  0
   10.6116  -15.7729   28.9760 O   0  0  0  0  0  0  0  0  0  0  0  0
   11.4310  -15.0411   29.5822 O   0  0  0  0  0  0  0  0  0  0  0  0
  2  1  1  6
  3  2  1  0
  4  3  1  0
  4  5  2  0
  6  5  1  0
  7  6  1  0
  8  7  2  0
  9  8  1  0
 10  9  2  0
 10 11  1  0
 11 12  2  0
 12  7  1  0
 12  4  1  0
 13  2  1  0
 13 14  2  0
 16 17  2  0
 16 15  1  0
 18 16  1  0
 19 20  1  0
 19 18  1  0
 20 21  1  0
 22 21  1  6
 22 23  1  0
 23 13  1  0
 24 22  1  0
 24 25  2  0
 27 26  1  1
 27 28  1  0
 29 30  1  1
 29 27  1  0
 30 24  1  0
 31 29  1  0
 32 31  2  0
 33 31  1  0
M  END
$$$$
