WRV.pdb
     RDKit          3D

 33 34  0  0  1  0  0  0  0  0999 V2000
    5.7369  -17.4588   25.2297 N   0  0  0  0  0  0  0  0  0  0  0  0
    6.8268  -16.6006   24.7814 C   0  0  1  0  0  0  0  0  0  0  0  0
    7.2644  -15.8316   26.0242 C   0  0  0  0  0  0  0  0  0  0  0  0
    6.4199  -14.6023   26.0604 C   0  0  0  0  0  0  0  0  0  0  0  0
    5.0509  -14.4842   26.2929 C   0  0  0  0  0  0  0  0  0  0  0  0
    4.6714  -13.2166   26.2713 N   0  0  0  0  0  0  0  0  0  0  0  0
    5.7630  -12.4727   26.0265 C   0  0  0  0  0  0  0  0  0  0  0  0
    5.8523  -11.1026   25.9079 C   0  0  0  0  0  0  0  0  0  0  0  0
    7.0929  -10.5369   25.6445 C   0  0  0  0  0  0  0  0  0  0  0  0
    8.1980  -11.3294   25.5072 C   0  0  0  0  0  0  0  0  0  0  0  0
    8.0801  -12.7113   25.6314 C   0  0  0  0  0  0  0  0  0  0  0  0
    6.8601  -13.2937   25.8918 C   0  0  0  0  0  0  0  0  0  0  0  0
    7.9517  -17.3885   24.1865 C   0  0  0  0  0  0  0  0  0  0  0  0
    8.3388  -18.4697   24.7335 O   0  0  0  0  0  0  0  0  0  0  0  0
   12.5008  -19.2724   17.1703 N   0  0  0  0  0  0  0  0  0  0  0  0
   13.0434  -19.7765   18.3928 C   0  0  0  0  0  0  0  0  0  0  0  0
   13.7662  -20.8338   18.4366 N   0  0  0  0  0  0  0  0  0  0  0  0
   12.7462  -19.0512   19.5739 N   0  0  0  0  0  0  0  0  0  0  0  0
   11.8771  -17.8955   19.5643 C   0  0  0  0  0  0  0  0  0  0  0  0
   11.7639  -17.3218   20.9763 C   0  0  0  0  0  0  0  0  0  0  0  0
   10.3456  -16.9410   21.2919 C   0  0  0  0  0  0  0  0  0  0  0  0
    9.9948  -17.3469   22.6899 C   0  0  2  0  0  0  0  0  0  0  0  0
    8.6324  -16.9749   23.0006 N   0  0  0  0  0  0  0  0  0  0  0  0
   10.9439  -16.7728   23.6851 C   0  0  0  0  0  0  0  0  0  0  0  0
   11.2755  -15.5781   23.5256 O   0  0  0  0  0  0  0  0  0  0  0  0
   14.1522  -21.1253   19.3664 C   0  0  0  0  0  0  0  0  0  0  0  0
   10.5754  -15.6212   26.8133 C   0  0  2  0  0  0  0  0  0  0  0  0
   11.6702  -16.6439   26.9826 C   0  0  0  0  0  0  0  0  0  0  0  0
   11.1862  -17.8916   27.6791 C   0  0  2  0  0  0  0  0  0  0  0  0
   12.3783  -16.9626   25.6791 N   0  0  0  0  0  0  0  0  0  0  0  0
   11.4403  -17.5610   24.7623 C   0  0  0  0  0  0  0  0  0  0  0  0
   13.5892  -17.7518   25.8712 O   0  0  0  0  0  0  0  0  0  0  0  0
   13.6894  -18.9459   25.4989 O   0  0  0  0  0  0  0  0  0  0  0  0
  2  1  1  1
  3  2  1  0
  4  3  1  0
  4  5  2  0
  6  5  1  0
  7  6  1  0
  8  7  2  0
  9  8  1  0
 10  9  2  0
 10 11  1  0
 11 12  2  0
 12  7  1  0
 12  4  1  0
 13  2  1  0
 13 14  2  0
 16 17  2  0
 16 15  1  0
 18 16  1  0
 19 20  1  0
 19 18  1  0
 20 21  1  0
 22 21  1  6
 22 23  1  0
 23 13  1  0
 24 22  1  0
 24 25  2  0
 27 26  1  1
 27 28  1  0
 29 30  1  1
 29 27  1  0
 30 24  1  0
 31 29  1  0
 32 31  2  0
 33 31  1  0
M  END
$$$$
