WRV.pdb
     RDKit          3D

 33 34  0  0  1  0  0  0  0  0999 V2000
    5.6983  -18.4426   25.1573 N   0  0  0  0  0  0  0  0  0  0  0  0
    6.2234  -17.1039   24.9168 C   0  0  1  0  0  0  0  0  0  0  0  0
    6.6970  -16.6115   26.2808 C   0  0  0  0  0  0  0  0  0  0  0  0
    5.9181  -15.3699   26.5583 C   0  0  0  0  0  0  0  0  0  0  0  0
    4.5518  -15.2243   26.7913 C   0  0  0  0  0  0  0  0  0  0  0  0
    4.2405  -13.9597   27.0265 N   0  0  0  0  0  0  0  0  0  0  0  0
    5.3756  -13.2448   26.9555 C   0  0  0  0  0  0  0  0  0  0  0  0
    5.5401  -11.8869   27.1234 C   0  0  0  0  0  0  0  0  0  0  0  0
    6.8152  -11.3506   26.9994 C   0  0  0  0  0  0  0  0  0  0  0  0
    7.8800  -12.1597   26.7167 C   0  0  0  0  0  0  0  0  0  0  0  0
    7.6861  -13.5286   26.5516 C   0  0  0  0  0  0  0  0  0  0  0  0
    6.4309  -14.0817   26.6694 C   0  0  0  0  0  0  0  0  0  0  0  0
    7.3299  -17.1089   23.9090 C   0  0  0  0  0  0  0  0  0  0  0  0
    8.2514  -17.9836   23.9707 O   0  0  0  0  0  0  0  0  0  0  0  0
   10.4393  -15.1168   17.6282 N   0  0  0  0  0  0  0  0  0  0  0  0
    9.1792  -14.4897   17.3790 C   0  0  0  0  0  0  0  0  0  0  0  0
    8.4868  -14.7372   16.3294 N   0  0  0  0  0  0  0  0  0  0  0  0
    8.7176  -13.5683   18.3523 N   0  0  0  0  0  0  0  0  0  0  0  0
    9.5081  -13.2189   19.5115 C   0  0  0  0  0  0  0  0  0  0  0  0
    9.6747  -14.4427   20.4118 C   0  0  0  0  0  0  0  0  0  0  0  0
    8.4450  -14.6723   21.2432 C   0  0  0  0  0  0  0  0  0  0  0  0
    8.6060  -15.8999   22.0854 C   0  0  2  0  0  0  0  0  0  0  0  0
    7.4052  -16.1527   22.8504 N   0  0  0  0  0  0  0  0  0  0  0  0
    9.7958  -15.8041   22.9776 C   0  0  0  0  0  0  0  0  0  0  0  0
   10.8989  -15.5955   22.4277 O   0  0  0  0  0  0  0  0  0  0  0  0
    7.6037  -14.1916   16.1850 C   0  0  0  0  0  0  0  0  0  0  0  0
   11.6184  -15.0313   27.4750 C   0  0  2  0  0  0  0  0  0  0  0  0
   10.4758  -15.0842   26.4926 C   0  0  0  0  0  0  0  0  0  0  0  0
    9.8849  -13.7216   26.2268 C   0  0  1  0  0  0  0  0  0  0  0  0
   10.8437  -15.8015   25.2072 N   0  0  0  0  0  0  0  0  0  0  0  0
    9.6656  -15.9450   24.3887 C   0  0  0  0  0  0  0  0  0  0  0  0
   11.5468  -17.0572   25.4413 O   0  0  0  0  0  0  0  0  0  0  0  0
   11.0686  -18.1738   25.1265 O   0  0  0  0  0  0  0  0  0  0  0  0
  2  1  1  1
  3  2  1  0
  4  3  1  0
  4  5  2  0
  6  5  1  0
  7  6  1  0
  8  7  2  0
  9  8  1  0
 10  9  2  0
 10 11  1  0
 11 12  2  0
 12  7  1  0
 12  4  1  0
 13  2  1  0
 13 14  2  0
 16 17  2  0
 16 15  1  0
 18 16  1  0
 19 20  1  0
 19 18  1  0
 20 21  1  0
 22 21  1  1
 22 23  1  0
 23 13  1  0
 24 22  1  0
 24 25  2  0
 27 26  1  1
 27 28  1  0
 29 30  1  1
 29 27  1  0
 30 24  1  0
 31 29  1  0
 32 31  2  0
 33 31  1  0
M  END
$$$$
