WRV.pdb
     RDKit          3D

 33 34  0  0  1  0  0  0  0  0999 V2000
    6.9888  -17.5429   21.0180 N   0  0  0  0  0  0  0  0  0  0  0  0
    7.3194  -16.5984   22.0783 C   0  0  1  0  0  0  0  0  0  0  0  0
    6.2163  -15.5456   22.0313 C   0  0  0  0  0  0  0  0  0  0  0  0
    6.9094  -14.2264   22.1008 C   0  0  0  0  0  0  0  0  0  0  0  0
    7.5296  -13.5057   21.0818 C   0  0  0  0  0  0  0  0  0  0  0  0
    8.0105  -12.3587   21.5338 N   0  0  0  0  0  0  0  0  0  0  0  0
    7.7267  -12.2909   22.8452 C   0  0  0  0  0  0  0  0  0  0  0  0
    8.0370  -11.2845   23.7340 C   0  0  0  0  0  0  0  0  0  0  0  0
    7.6482  -11.4243   25.0599 C   0  0  0  0  0  0  0  0  0  0  0  0
    6.9717  -12.5401   25.4671 C   0  0  0  0  0  0  0  0  0  0  0  0
    6.6709  -13.5424   24.5485 C   0  0  0  0  0  0  0  0  0  0  0  0
    7.0472  -13.4252   23.2294 C   0  0  0  0  0  0  0  0  0  0  0  0
    7.4003  -17.2641   23.4164 C   0  0  0  0  0  0  0  0  0  0  0  0
    6.4453  -17.9964   23.8285 O   0  0  0  0  0  0  0  0  0  0  0  0
   12.7932  -21.2044   24.8371 N   0  0  0  0  0  0  0  0  0  0  0  0
   12.5027  -21.2729   23.4392 C   0  0  0  0  0  0  0  0  0  0  0  0
   13.4240  -21.3315   22.5504 N   0  0  0  0  0  0  0  0  0  0  0  0
   11.1348  -21.2728   23.0676 N   0  0  0  0  0  0  0  0  0  0  0  0
   10.0795  -21.0536   24.0317 C   0  0  0  0  0  0  0  0  0  0  0  0
    9.9012  -19.5548   24.2715 C   0  0  0  0  0  0  0  0  0  0  0  0
    8.8234  -19.2949   25.2849 C   0  0  0  0  0  0  0  0  0  0  0  0
    8.6800  -17.8246   25.5292 C   0  0  2  0  0  0  0  0  0  0  0  0
    8.5290  -17.1139   24.2789 N   0  0  0  0  0  0  0  0  0  0  0  0
    9.8239  -17.2823   26.3154 C   0  0  0  0  0  0  0  0  0  0  0  0
   10.9486  -17.3126   25.7706 O   0  0  0  0  0  0  0  0  0  0  0  0
   13.1388  -21.2659   21.5440 C   0  0  0  0  0  0  0  0  0  0  0  0
    9.7278  -13.9042   28.2750 C   0  0  2  0  0  0  0  0  0  0  0  0
   10.3098  -14.9998   29.1319 C   0  0  0  0  0  0  0  0  0  0  0  0
    9.3870  -15.3986   30.2570 C   0  0  2  0  0  0  0  0  0  0  0  0
   10.7617  -16.1989   28.3194 N   0  0  0  0  0  0  0  0  0  0  0  0
    9.6285  -16.7569   27.6245 C   0  0  0  0  0  0  0  0  0  0  0  0
   11.4968  -17.1760   29.1137 O   0  0  0  0  0  0  0  0  0  0  0  0
   11.0437  -18.3152   29.3808 O   0  0  0  0  0  0  0  0  0  0  0  0
  2  1  1  6
  3  2  1  0
  4  3  1  0
  4  5  2  0
  6  5  1  0
  7  6  1  0
  8  7  2  0
  9  8  1  0
 10  9  2  0
 10 11  1  0
 11 12  2  0
 12  7  1  0
 12  4  1  0
 13  2  1  0
 13 14  2  0
 16 17  2  0
 16 15  1  0
 18 16  1  0
 19 20  1  0
 19 18  1  0
 20 21  1  0
 22 21  1  6
 22 23  1  0
 23 13  1  0
 24 22  1  0
 24 25  2  0
 27 26  1  1
 27 28  1  0
 29 30  1  1
 29 27  1  0
 30 24  1  0
 31 29  1  0
 32 31  2  0
 33 31  1  0
M  END
$$$$
