WRV.pdb
     RDKit          3D

 33 34  0  0  1  0  0  0  0  0999 V2000
    5.5348  -18.3554   24.7754 N   0  0  0  0  0  0  0  0  0  0  0  0
    6.4616  -17.2339   24.6823 C   0  0  1  0  0  0  0  0  0  0  0  0
    6.4974  -16.6302   26.0828 C   0  0  0  0  0  0  0  0  0  0  0  0
    5.6808  -15.3839   26.0099 C   0  0  0  0  0  0  0  0  0  0  0  0
    4.3091  -15.2209   26.1946 C   0  0  0  0  0  0  0  0  0  0  0  0
    3.9596  -13.9502   26.0745 N   0  0  0  0  0  0  0  0  0  0  0  0
    5.0742  -13.2484   25.8099 C   0  0  0  0  0  0  0  0  0  0  0  0
    5.1982  -11.8921   25.5994 C   0  0  0  0  0  0  0  0  0  0  0  0
    6.4581  -11.3725   25.3328 C   0  0  0  0  0  0  0  0  0  0  0  0
    7.5480  -12.1958   25.2822 C   0  0  0  0  0  0  0  0  0  0  0  0
    7.3949  -13.5629   25.4984 C   0  0  0  0  0  0  0  0  0  0  0  0
    6.1553  -14.0998   25.7636 C   0  0  0  0  0  0  0  0  0  0  0  0
    7.8196  -17.6658   24.2247 C   0  0  0  0  0  0  0  0  0  0  0  0
    7.9618  -18.7410   23.5601 O   0  0  0  0  0  0  0  0  0  0  0  0
   10.8487  -13.4741   19.6024 N   0  0  0  0  0  0  0  0  0  0  0  0
    9.4574  -13.2204   19.8099 C   0  0  0  0  0  0  0  0  0  0  0  0
    8.9497  -12.0497   19.6916 N   0  0  0  0  0  0  0  0  0  0  0  0
    8.6477  -14.3307   20.1577 N   0  0  0  0  0  0  0  0  0  0  0  0
    9.2154  -15.6208   20.4810 C   0  0  0  0  0  0  0  0  0  0  0  0
    9.5702  -15.6720   21.9667 C   0  0  0  0  0  0  0  0  0  0  0  0
   10.0926  -17.0271   22.3502 C   0  0  0  0  0  0  0  0  0  0  0  0
   10.2621  -17.1201   23.8351 C   0  0  2  0  0  0  0  0  0  0  0  0
    8.9982  -16.9091   24.5052 N   0  0  0  0  0  0  0  0  0  0  0  0
   11.2945  -16.1676   24.3328 C   0  0  0  0  0  0  0  0  0  0  0  0
   12.3848  -16.1462   23.7215 O   0  0  0  0  0  0  0  0  0  0  0  0
    7.9136  -11.9503   19.8139 C   0  0  0  0  0  0  0  0  0  0  0  0
   10.4850  -13.5628   27.5160 C   0  0  2  0  0  0  0  0  0  0  0  0
   11.0543  -14.9227   27.8319 C   0  0  0  0  0  0  0  0  0  0  0  0
   10.0143  -15.8647   28.3863 C   0  0  2  0  0  0  0  0  0  0  0  0
   11.7996  -15.5307   26.6584 N   0  0  0  0  0  0  0  0  0  0  0  0
   11.0356  -15.3272   25.4529 C   0  0  0  0  0  0  0  0  0  0  0  0
   12.1718  -16.9223   26.8842 O   0  0  0  0  0  0  0  0  0  0  0  0
   11.3720  -17.8754   26.7223 O   0  0  0  0  0  0  0  0  0  0  0  0
  2  1  1  1
  3  2  1  0
  4  3  1  0
  4  5  2  0
  6  5  1  0
  7  6  1  0
  8  7  2  0
  9  8  1  0
 10  9  2  0
 10 11  1  0
 11 12  2  0
 12  7  1  0
 12  4  1  0
 13  2  1  0
 13 14  2  0
 16 17  2  0
 16 15  1  0
 18 16  1  0
 19 20  1  0
 19 18  1  0
 20 21  1  0
 22 21  1  6
 22 23  1  0
 23 13  1  0
 24 22  1  0
 24 25  2  0
 27 26  1  1
 27 28  1  0
 29 30  1  1
 29 27  1  0
 30 24  1  0
 31 29  1  0
 32 31  2  0
 33 31  1  0
M  END
$$$$
