WRV.pdb
     RDKit          3D

 33 34  0  0  1  0  0  0  0  0999 V2000
    6.3637  -18.1017   24.8830 N   0  0  0  0  0  0  0  0  0  0  0  0
    6.9365  -17.6001   23.6397 C   0  0  1  0  0  0  0  0  0  0  0  0
    6.2025  -16.2917   23.3631 C   0  0  0  0  0  0  0  0  0  0  0  0
    6.1763  -15.5574   24.6615 C   0  0  0  0  0  0  0  0  0  0  0  0
    5.9001  -16.0418   25.9387 C   0  0  0  0  0  0  0  0  0  0  0  0
    6.0031  -15.0829   26.8448 N   0  0  0  0  0  0  0  0  0  0  0  0
    6.3441  -13.9543   26.2009 C   0  0  0  0  0  0  0  0  0  0  0  0
    6.5558  -12.7002   26.7318 C   0  0  0  0  0  0  0  0  0  0  0  0
    6.8985  -11.6634   25.8737 C   0  0  0  0  0  0  0  0  0  0  0  0
    7.0216  -11.8902   24.5314 C   0  0  0  0  0  0  0  0  0  0  0  0
    6.8020  -13.1670   24.0209 C   0  0  0  0  0  0  0  0  0  0  0  0
    6.4607  -14.2094   24.8529 C   0  0  0  0  0  0  0  0  0  0  0  0
    8.4160  -17.3998   23.7454 C   0  0  0  0  0  0  0  0  0  0  0  0
    9.1315  -18.2263   24.3957 O   0  0  0  0  0  0  0  0  0  0  0  0
    8.8782  -12.7212   17.6889 N   0  0  0  0  0  0  0  0  0  0  0  0
    8.5489  -14.0981   17.8858 C   0  0  0  0  0  0  0  0  0  0  0  0
    7.5299  -14.6443   17.3329 N   0  0  0  0  0  0  0  0  0  0  0  0
    9.4057  -14.8483   18.7298 N   0  0  0  0  0  0  0  0  0  0  0  0
    9.6757  -14.4517   20.0939 C   0  0  0  0  0  0  0  0  0  0  0  0
   10.5778  -15.4872   20.7647 C   0  0  0  0  0  0  0  0  0  0  0  0
   10.9312  -15.0696   22.1636 C   0  0  0  0  0  0  0  0  0  0  0  0
   10.5201  -16.1249   23.1430 C   0  0  2  0  0  0  0  0  0  0  0  0
    9.0841  -16.2947   23.1347 N   0  0  0  0  0  0  0  0  0  0  0  0
   11.0130  -15.8240   24.5168 C   0  0  0  0  0  0  0  0  0  0  0  0
   11.4847  -14.6826   24.7103 O   0  0  0  0  0  0  0  0  0  0  0  0
    7.3761  -15.6687   17.4926 C   0  0  0  0  0  0  0  0  0  0  0  0
   11.0220  -15.0399   28.8701 C   0  0  1  0  0  0  0  0  0  0  0  0
   10.7105  -15.2882   27.4159 C   0  0  0  0  0  0  0  0  0  0  0  0
   10.8860  -14.0494   26.5726 C   0  0  1  0  0  0  0  0  0  0  0  0
   11.4736  -16.4707   26.8489 N   0  0  0  0  0  0  0  0  0  0  0  0
   10.9422  -16.8013   25.5502 C   0  0  0  0  0  0  0  0  0  0  0  0
   11.5216  -17.6046   27.7644 O   0  0  0  0  0  0  0  0  0  0  0  0
   10.9270  -18.6864   27.5395 O   0  0  0  0  0  0  0  0  0  0  0  0
  2  1  1  1
  3  2  1  0
  4  3  1  0
  4  5  2  0
  6  5  1  0
  7  6  1  0
  8  7  2  0
  9  8  1  0
 10  9  2  0
 10 11  1  0
 11 12  2  0
 12  7  1  0
 12  4  1  0
 13  2  1  0
 13 14  2  0
 16 17  2  0
 16 15  1  0
 18 16  1  0
 19 20  1  0
 19 18  1  0
 20 21  1  0
 22 21  1  6
 22 23  1  0
 23 13  1  0
 24 22  1  0
 24 25  2  0
 27 26  1  1
 27 28  1  0
 29 30  1  1
 29 27  1  0
 30 24  1  0
 31 29  1  0
 32 31  2  0
 33 31  1  0
M  END
$$$$
