MGI.pdb
     RDKit          3D

 21 20  0  0  1  0  0  0  0  0999 V2000
    7.9541  -12.6465   19.7559 C   0  0  0  0  0  0  0  0  0  0  0  0
    8.0072  -13.7037   18.2864 S   0  0  0  0  0  0  0  0  0  0  0  0
    7.5229  -15.4121   18.7007 C   0  0  0  0  0  0  0  0  0  0  0  0
    7.1747  -15.5215   20.1857 C   0  0  0  0  0  0  0  0  0  0  0  0
    6.8894  -16.9911   20.4392 C   0  0  2  0  0  0  0  0  0  0  0  0
    5.9765  -17.4381   19.4074 N   0  0  0  0  0  0  0  0  0  0  0  0
    6.2898  -17.2463   21.7489 C   0  0  0  0  0  0  0  0  0  0  0  0
    5.0459  -17.1168   21.9099 O   0  0  0  0  0  0  0  0  0  0  0  0
    7.1340  -17.6434   22.8383 N   0  0  0  0  0  0  0  0  0  0  0  0
    6.7768  -17.2554   24.1853 C   0  0  0  0  0  0  0  0  0  0  0  0
    7.8221  -16.3761   24.7414 C   0  0  0  0  0  0  0  0  0  0  0  0
    8.9136  -16.2289   24.1351 O   0  0  0  0  0  0  0  0  0  0  0  0
    5.9952  -11.9823   26.9532 C   0  0  0  0  0  0  0  0  0  0  0  0
    6.8200  -13.0053   26.1901 C   0  0  0  0  0  0  0  0  0  0  0  0
    7.8716  -13.5881   27.0900 C   0  0  2  0  0  0  0  0  0  0  0  0
    8.7766  -12.5255   27.6641 C   0  0  0  0  0  0  0  0  0  0  0  0
    8.6365  -14.6813   26.4157 C   0  0  2  0  0  0  0  0  0  0  0  0
    7.6487  -15.6736   25.9554 N   0  0  0  0  0  0  0  0  0  0  0  0
    9.5094  -15.3953   27.3750 C   0  0  0  0  0  0  0  0  0  0  0  0
   10.6850  -15.0204   27.6227 O   0  0  0  0  0  0  0  0  0  0  0  0
    9.0668  -16.5413   28.0671 O   0  0  0  0  0  0  0  0  0  0  0  0
  2  1  1  0
  3  4  1  0
  3  2  1  0
  4  5  1  0
  5  7  1  0
  5  6  1  6
  7  9  1  0
  8  7  2  0
  9 10  1  0
 10 11  1  0
 11 12  2  0
 11 18  1  0
 14 13  1  0
 15 16  1  6
 15 14  1  0
 17 15  1  0
 17 18  1  1
 19 21  1  0
 19 17  1  0
 20 19  2  0
M  END
$$$$
