MGI.pdb
     RDKit          3D

 21 20  0  0  1  0  0  0  0  0999 V2000
    8.8837  -12.6808   20.2969 C   0  0  0  0  0  0  0  0  0  0  0  0
    8.0351  -12.8322   18.7042 S   0  0  0  0  0  0  0  0  0  0  0  0
    7.8829  -14.5825   18.2161 C   0  0  0  0  0  0  0  0  0  0  0  0
    6.6906  -15.2302   18.9214 C   0  0  0  0  0  0  0  0  0  0  0  0
    7.2531  -16.4143   19.6874 C   0  0  2  0  0  0  0  0  0  0  0  0
    7.1676  -17.5704   18.8192 N   0  0  0  0  0  0  0  0  0  0  0  0
    6.5313  -16.6960   20.9282 C   0  0  0  0  0  0  0  0  0  0  0  0
    5.2714  -16.6504   20.9500 O   0  0  0  0  0  0  0  0  0  0  0  0
    7.2750  -17.0225   22.1104 N   0  0  0  0  0  0  0  0  0  0  0  0
    6.7071  -16.7225   23.4065 C   0  0  0  0  0  0  0  0  0  0  0  0
    7.6280  -15.8528   24.1618 C   0  0  0  0  0  0  0  0  0  0  0  0
    8.7972  -15.6549   23.7441 O   0  0  0  0  0  0  0  0  0  0  0  0
    5.8571  -11.4495   26.5228 C   0  0  0  0  0  0  0  0  0  0  0  0
    6.6691  -12.5167   25.8080 C   0  0  0  0  0  0  0  0  0  0  0  0
    7.4405  -13.3281   26.8089 C   0  0  2  0  0  0  0  0  0  0  0  0
    8.3110  -12.4631   27.6875 C   0  0  0  0  0  0  0  0  0  0  0  0
    8.2109  -14.4302   26.1557 C   0  0  2  0  0  0  0  0  0  0  0  0
    7.2468  -15.2154   25.3642 N   0  0  0  0  0  0  0  0  0  0  0  0
    8.7652  -15.3655   27.1607 C   0  0  0  0  0  0  0  0  0  0  0  0
    8.0537  -16.2222   27.7469 O   0  0  0  0  0  0  0  0  0  0  0  0
   10.1294  -15.3460   27.5168 O   0  0  0  0  0  0  0  0  0  0  0  0
  2  1  1  0
  3  4  1  0
  3  2  1  0
  4  5  1  0
  5  7  1  0
  5  6  1  6
  7  9  1  0
  8  7  2  0
  9 10  1  0
 10 11  1  0
 11 12  2  0
 11 18  1  0
 14 13  1  0
 15 16  1  6
 15 14  1  0
 17 15  1  0
 17 18  1  6
 19 21  1  0
 19 17  1  0
 20 19  2  0
M  END
$$$$
