MGI.pdb
     RDKit          3D

 21 20  0  0  1  0  0  0  0  0999 V2000
    7.0564  -11.1730   25.6082 C   0  0  0  0  0  0  0  0  0  0  0  0
    6.7287  -12.9390   25.8405 S   0  0  0  0  0  0  0  0  0  0  0  0
    6.0810  -13.6839   24.3074 C   0  0  0  0  0  0  0  0  0  0  0  0
    7.1780  -13.7530   23.2443 C   0  0  0  0  0  0  0  0  0  0  0  0
    7.4043  -15.2301   22.9751 C   0  0  2  0  0  0  0  0  0  0  0  0
    6.8774  -15.9614   24.1088 N   0  0  0  0  0  0  0  0  0  0  0  0
    8.8145  -15.5764   22.7986 C   0  0  0  0  0  0  0  0  0  0  0  0
    9.3667  -15.4224   21.6755 O   0  0  0  0  0  0  0  0  0  0  0  0
    9.5529  -16.0899   23.9159 N   0  0  0  0  0  0  0  0  0  0  0  0
   10.9622  -16.3762   23.7586 C   0  0  0  0  0  0  0  0  0  0  0  0
   11.5651  -16.6377   25.0789 C   0  0  0  0  0  0  0  0  0  0  0  0
   12.7854  -16.9253   25.1715 O   0  0  0  0  0  0  0  0  0  0  0  0
    9.2334  -14.2515   29.4949 C   0  0  0  0  0  0  0  0  0  0  0  0
    9.5891  -15.4822   28.6777 C   0  0  0  0  0  0  0  0  0  0  0  0
   11.0618  -15.4927   28.3840 C   0  0  2  0  0  0  0  0  0  0  0  0
   11.5190  -14.2068   27.7399 C   0  0  0  0  0  0  0  0  0  0  0  0
   11.4624  -16.6970   27.5938 C   0  0  2  0  0  0  0  0  0  0  0  0
   10.8148  -16.5782   26.2751 N   0  0  0  0  0  0  0  0  0  0  0  0
   10.9250  -17.9374   28.1976 C   0  0  0  0  0  0  0  0  0  0  0  0
    9.9193  -18.5323   27.7300 O   0  0  0  0  0  0  0  0  0  0  0  0
   11.5155  -18.5223   29.3366 O   0  0  0  0  0  0  0  0  0  0  0  0
  2  1  1  0
  3  4  1  0
  3  2  1  0
  4  5  1  0
  5  7  1  0
  5  6  1  1
  7  9  1  0
  8  7  2  0
  9 10  1  0
 10 11  1  0
 11 12  2  0
 11 18  1  0
 14 13  1  0
 15 16  1  6
 15 14  1  0
 17 15  1  0
 17 18  1  6
 19 21  1  0
 19 17  1  0
 20 19  2  0
M  END
$$$$
