MGI.pdb
     RDKit          3D

 21 20  0  0  1  0  0  0  0  0999 V2000
    6.1358  -11.8755   19.6668 C   0  0  0  0  0  0  0  0  0  0  0  0
    7.6815  -12.8177   19.7221 S   0  0  0  0  0  0  0  0  0  0  0  0
    7.4440  -14.3992   20.5980 C   0  0  0  0  0  0  0  0  0  0  0  0
    8.7746  -15.1420   20.7259 C   0  0  0  0  0  0  0  0  0  0  0  0
    8.4781  -16.3902   21.5380 C   0  0  2  0  0  0  0  0  0  0  0  0
    7.6221  -15.9965   22.6380 N   0  0  0  0  0  0  0  0  0  0  0  0
    9.6792  -17.0299   22.0745 C   0  0  0  0  0  0  0  0  0  0  0  0
   10.2939  -17.8929   21.3908 O   0  0  0  0  0  0  0  0  0  0  0  0
   10.1425  -16.6619   23.3811 N   0  0  0  0  0  0  0  0  0  0  0  0
   11.2997  -17.3313   23.9338 C   0  0  0  0  0  0  0  0  0  0  0  0
   11.5536  -16.8356   25.2994 C   0  0  0  0  0  0  0  0  0  0  0  0
   12.7239  -16.8169   25.7583 O   0  0  0  0  0  0  0  0  0  0  0  0
    8.6105  -12.8249   26.8502 C   0  0  0  0  0  0  0  0  0  0  0  0
    9.6897  -13.8606   26.5824 C   0  0  0  0  0  0  0  0  0  0  0  0
    9.8309  -14.7704   27.7688 C   0  0  2  0  0  0  0  0  0  0  0  0
   10.1724  -14.0099   29.0268 C   0  0  0  0  0  0  0  0  0  0  0  0
   10.7893  -15.8864   27.5025 C   0  0  2  0  0  0  0  0  0  0  0  0
   10.5154  -16.3688   26.1369 N   0  0  0  0  0  0  0  0  0  0  0  0
   10.5328  -17.0381   28.3969 C   0  0  0  0  0  0  0  0  0  0  0  0
    9.6554  -17.9041   28.1438 O   0  0  0  0  0  0  0  0  0  0  0  0
   11.2633  -17.2272   29.5881 O   0  0  0  0  0  0  0  0  0  0  0  0
  2  1  1  0
  3  4  1  0
  3  2  1  0
  4  5  1  0
  5  7  1  0
  5  6  1  1
  7  9  1  0
  8  7  2  0
  9 10  1  0
 10 11  1  0
 11 12  2  0
 11 18  1  0
 14 13  1  0
 15 16  1  1
 15 14  1  0
 17 15  1  0
 17 18  1  6
 19 21  1  0
 19 17  1  0
 20 19  2  0
M  END
$$$$
