MGI.pdb
     RDKit          3D

 21 20  0  0  1  0  0  0  0  0999 V2000
   11.2310  -24.7288   26.7272 C   0  0  0  0  0  0  0  0  0  0  0  0
   11.2422  -23.2386   27.7564 S   0  0  0  0  0  0  0  0  0  0  0  0
    9.8569  -22.1378   27.3159 C   0  0  0  0  0  0  0  0  0  0  0  0
    9.4816  -22.3170   25.8443 C   0  0  0  0  0  0  0  0  0  0  0  0
    8.3515  -21.3378   25.5807 C   0  0  2  0  0  0  0  0  0  0  0  0
    7.9115  -21.5433   24.2162 N   0  0  0  0  0  0  0  0  0  0  0  0
    8.7471  -19.9395   25.7481 C   0  0  0  0  0  0  0  0  0  0  0  0
    9.8653  -19.5441   25.3201 O   0  0  0  0  0  0  0  0  0  0  0  0
    7.8486  -19.0328   26.4022 N   0  0  0  0  0  0  0  0  0  0  0  0
    8.2707  -17.6697   26.6395 C   0  0  0  0  0  0  0  0  0  0  0  0
    7.4865  -16.7532   25.7910 C   0  0  0  0  0  0  0  0  0  0  0  0
    6.5177  -17.1874   25.1175 O   0  0  0  0  0  0  0  0  0  0  0  0
    6.9205  -11.6723   27.3821 C   0  0  0  0  0  0  0  0  0  0  0  0
    6.6577  -13.0525   26.8034 C   0  0  0  0  0  0  0  0  0  0  0  0
    7.1217  -13.1053   25.3761 C   0  0  2  0  0  0  0  0  0  0  0  0
    6.4276  -12.0763   24.5176 C   0  0  0  0  0  0  0  0  0  0  0  0
    7.0151  -14.4839   24.8076 C   0  0  2  0  0  0  0  0  0  0  0  0
    7.7814  -15.3742   25.6979 N   0  0  0  0  0  0  0  0  0  0  0  0
    7.6743  -14.5705   23.4847 C   0  0  0  0  0  0  0  0  0  0  0  0
    8.9216  -14.6839   23.3607 O   0  0  0  0  0  0  0  0  0  0  0  0
    6.9344  -14.5305   22.2850 O   0  0  0  0  0  0  0  0  0  0  0  0
  2  1  1  0
  3  4  1  0
  3  2  1  0
  4  5  1  0
  5  7  1  0
  5  6  1  6
  7  9  1  0
  8  7  2  0
  9 10  1  0
 10 11  1  0
 11 12  2  0
 11 18  1  0
 14 13  1  0
 15 16  1  6
 15 14  1  0
 17 15  1  0
 17 18  1  1
 19 21  1  0
 19 17  1  0
 20 19  2  0
M  END
$$$$
