MGI.pdb
     RDKit          3D

 21 20  0  0  1  0  0  0  0  0999 V2000
    8.7530  -11.6513   20.4928 C   0  0  0  0  0  0  0  0  0  0  0  0
    7.7287  -12.3507   19.1731 S   0  0  0  0  0  0  0  0  0  0  0  0
    7.7244  -14.1723   19.2541 C   0  0  0  0  0  0  0  0  0  0  0  0
    7.5810  -14.6405   20.7028 C   0  0  0  0  0  0  0  0  0  0  0  0
    7.7959  -16.1433   20.6778 C   0  0  2  0  0  0  0  0  0  0  0  0
    6.6273  -16.7365   20.0613 N   0  0  0  0  0  0  0  0  0  0  0  0
    7.9789  -16.7235   22.0081 C   0  0  0  0  0  0  0  0  0  0  0  0
    6.9769  -17.0885   22.6811 O   0  0  0  0  0  0  0  0  0  0  0  0
    9.3069  -16.8694   22.5301 N   0  0  0  0  0  0  0  0  0  0  0  0
    9.4927  -17.4939   23.8216 C   0  0  0  0  0  0  0  0  0  0  0  0
    9.8293  -16.4668   24.8249 C   0  0  0  0  0  0  0  0  0  0  0  0
   10.9494  -16.4828   25.3956 O   0  0  0  0  0  0  0  0  0  0  0  0
    5.9356  -12.6627   26.6898 C   0  0  0  0  0  0  0  0  0  0  0  0
    6.8816  -13.8437   26.5512 C   0  0  0  0  0  0  0  0  0  0  0  0
    8.2420  -13.3630   26.1350 C   0  0  2  0  0  0  0  0  0  0  0  0
    8.2181  -12.7049   24.7770 C   0  0  0  0  0  0  0  0  0  0  0  0
    9.2659  -14.4490   26.2213 C   0  0  2  0  0  0  0  0  0  0  0  0
    8.9276  -15.4392   25.1833 N   0  0  0  0  0  0  0  0  0  0  0  0
    9.1756  -15.1694   27.5117 C   0  0  0  0  0  0  0  0  0  0  0  0
    8.5585  -16.2596   27.6318 O   0  0  0  0  0  0  0  0  0  0  0  0
    9.7805  -14.6686   28.6828 O   0  0  0  0  0  0  0  0  0  0  0  0
  2  1  1  0
  3  4  1  0
  3  2  1  0
  4  5  1  0
  5  7  1  0
  5  6  1  1
  7  9  1  0
  8  7  2  0
  9 10  1  0
 10 11  1  0
 11 12  2  0
 11 18  1  0
 14 13  1  0
 15 16  1  6
 15 14  1  0
 17 15  1  0
 17 18  1  6
 19 21  1  0
 19 17  1  0
 20 19  2  0
M  END
$$$$
