NLQ.pdb
     RDKit          3D

 26 25  0  0  1  0  0  0  0  0999 V2000
    7.6008  -16.9151   17.5597 N   0  0  0  0  0  0  0  0  0  0  0  0
    8.4723  -17.3062   18.6075 C   0  0  0  0  0  0  0  0  0  0  0  0
    8.8617  -18.5104   18.6082 O   0  0  0  0  0  0  0  0  0  0  0  0
    8.8623  -16.3102   19.6085 C   0  0  0  0  0  0  0  0  0  0  0  0
    8.6754  -16.7935   21.0279 C   0  0  2  0  0  0  0  0  0  0  0  0
    7.3308  -17.2521   21.2815 N   0  0  0  0  0  0  0  0  0  0  0  0
    9.0270  -15.7495   22.0186 C   0  0  0  0  0  0  0  0  0  0  0  0
   10.1351  -15.1183   21.9128 O   0  0  0  0  0  0  0  0  0  0  0  0
    7.6276  -11.7158   25.8171 C   0  0  0  0  0  0  0  0  0  0  0  0
    7.2166  -13.1497   25.9165 C   0  0  1  0  0  0  0  0  0  0  0  0
    5.8611  -13.2748   26.6181 C   0  0  0  0  0  0  0  0  0  0  0  0
    7.3161  -13.9862   24.7205 C   0  0  0  0  0  0  0  0  0  0  0  0
    8.5900  -14.2573   24.0321 C   0  0  2  0  0  0  0  0  0  0  0  0
    8.2192  -15.3840   23.0971 N   0  0  0  0  0  0  0  0  0  0  0  0
    9.6235  -14.8498   24.8883 C   0  0  0  0  0  0  0  0  0  0  0  0
   10.5927  -14.1330   25.3490 O   0  0  0  0  0  0  0  0  0  0  0  0
   10.6351  -14.4722   30.0367 N   0  0  0  0  0  0  0  0  0  0  0  0
   11.4990  -15.5705   29.8819 C   0  0  0  0  0  0  0  0  0  0  0  0
   12.2309  -15.9079   30.8397 O   0  0  0  0  0  0  0  0  0  0  0  0
   11.5429  -16.3080   28.6249 C   0  0  0  0  0  0  0  0  0  0  0  0
   10.6170  -15.8794   27.5519 C   0  0  0  0  0  0  0  0  0  0  0  0
   10.7082  -16.6731   26.2615 C   0  0  2  0  0  0  0  0  0  0  0  0
    9.6908  -16.2149   25.3152 N   0  0  0  0  0  0  0  0  0  0  0  0
   10.5717  -18.0898   26.6400 C   0  0  0  0  0  0  0  0  0  0  0  0
    9.5002  -18.7046   26.3061 O   0  0  0  0  0  0  0  0  0  0  0  0
   11.4873  -18.8528   27.3295 O   0  0  0  0  0  0  0  0  0  0  0  0
  2  3  2  0
  2  1  1  0
  4  2  1  0
  5  4  1  0
  5  6  1  6
  7  8  2  0
  7  5  1  0
 10  9  1  6
 10 12  1  0
 10 11  1  0
 13 12  1  1
 13 14  1  0
 14  7  1  0
 15 13  1  0
 15 16  2  0
 18 17  1  0
 18 19  2  0
 20 18  1  0
 21 20  1  0
 22 21  1  1
 23 22  1  0
 23 15  1  0
 24 22  1  0
 25 24  2  0
 26 24  1  0
M  END
$$$$
