NLQ.pdb
     RDKit          3D

 26 25  0  0  1  0  0  0  0  0999 V2000
   11.9523  -19.6997   17.7116 N   0  0  0  0  0  0  0  0  0  0  0  0
   10.7499  -18.9484   17.7230 C   0  0  0  0  0  0  0  0  0  0  0  0
    9.8088  -19.3641   16.9860 O   0  0  0  0  0  0  0  0  0  0  0  0
   10.6711  -17.7574   18.5723 C   0  0  0  0  0  0  0  0  0  0  0  0
    9.9616  -18.0107   19.8821 C   0  0  2  0  0  0  0  0  0  0  0  0
    8.6247  -18.5212   19.6950 N   0  0  0  0  0  0  0  0  0  0  0  0
    9.9027  -16.7930   20.7239 C   0  0  0  0  0  0  0  0  0  0  0  0
   10.9862  -16.2301   21.1066 O   0  0  0  0  0  0  0  0  0  0  0  0
    6.3529  -12.9709   19.6557 C   0  0  0  0  0  0  0  0  0  0  0  0
    7.6152  -13.5787   20.1774 C   0  0  1  0  0  0  0  0  0  0  0  0
    8.7971  -12.6268   19.9717 C   0  0  0  0  0  0  0  0  0  0  0  0
    7.5976  -14.1824   21.5097 C   0  0  0  0  0  0  0  0  0  0  0  0
    8.7168  -14.9739   22.0492 C   0  0  2  0  0  0  0  0  0  0  0  0
    8.7191  -16.1867   21.1491 N   0  0  0  0  0  0  0  0  0  0  0  0
    8.4697  -15.5373   23.3811 C   0  0  0  0  0  0  0  0  0  0  0  0
    7.4756  -16.3335   23.5892 O   0  0  0  0  0  0  0  0  0  0  0  0
    7.9709  -20.2497   24.5684 N   0  0  0  0  0  0  0  0  0  0  0  0
    7.1309  -19.4644   25.3772 C   0  0  0  0  0  0  0  0  0  0  0  0
    6.0427  -19.9434   25.7686 O   0  0  0  0  0  0  0  0  0  0  0  0
    7.5201  -18.1116   25.7567 C   0  0  0  0  0  0  0  0  0  0  0  0
    8.8186  -17.6102   25.2520 C   0  0  0  0  0  0  0  0  0  0  0  0
    9.1946  -16.2118   25.7062 C   0  0  2  0  0  0  0  0  0  0  0  0
    9.2529  -15.3075   24.5575 N   0  0  0  0  0  0  0  0  0  0  0  0
   10.4740  -16.3430   26.4239 C   0  0  0  0  0  0  0  0  0  0  0  0
   11.5576  -16.1812   25.7628 O   0  0  0  0  0  0  0  0  0  0  0  0
   10.6465  -16.6262   27.7602 O   0  0  0  0  0  0  0  0  0  0  0  0
  2  3  2  0
  2  1  1  0
  4  2  1  0
  5  4  1  0
  5  6  1  6
  7  8  2  0
  7  5  1  0
 10  9  1  1
 10 12  1  0
 10 11  1  0
 13 12  1  6
 13 14  1  0
 14  7  1  0
 15 13  1  0
 15 16  2  0
 18 17  1  0
 18 19  2  0
 20 18  1  0
 21 20  1  0
 22 21  1  6
 23 22  1  0
 23 15  1  0
 24 22  1  0
 25 24  2  0
 26 24  1  0
M  END
$$$$
