NLQ.pdb
     RDKit          3D

 26 25  0  0  1  0  0  0  0  0999 V2000
    8.2550  -16.8241   18.4649 N   0  0  0  0  0  0  0  0  0  0  0  0
    8.2859  -15.4100   18.5623 C   0  0  0  0  0  0  0  0  0  0  0  0
    8.1103  -14.7589   17.4915 O   0  0  0  0  0  0  0  0  0  0  0  0
    8.5154  -14.7988   19.8738 C   0  0  0  0  0  0  0  0  0  0  0  0
    8.6009  -15.8119   20.9917 C   0  0  2  0  0  0  0  0  0  0  0  0
    7.3792  -16.5641   21.1486 N   0  0  0  0  0  0  0  0  0  0  0  0
    8.9512  -15.1801   22.2852 C   0  0  0  0  0  0  0  0  0  0  0  0
   10.0263  -14.4937   22.3884 O   0  0  0  0  0  0  0  0  0  0  0  0
    7.9418  -11.7205   26.4117 C   0  0  0  0  0  0  0  0  0  0  0  0
    7.1385  -12.9621   26.1922 C   0  0  1  0  0  0  0  0  0  0  0  0
    5.6578  -12.7054   26.4870 C   0  0  0  0  0  0  0  0  0  0  0  0
    7.3488  -13.7173   24.9572 C   0  0  0  0  0  0  0  0  0  0  0  0
    8.5416  -14.5473   24.7149 C   0  0  2  0  0  0  0  0  0  0  0  0
    8.1766  -15.2751   23.4428 N   0  0  0  0  0  0  0  0  0  0  0  0
    8.7296  -15.6304   25.6864 C   0  0  0  0  0  0  0  0  0  0  0  0
    8.9819  -15.3721   26.9254 O   0  0  0  0  0  0  0  0  0  0  0  0
   11.8956  -18.8465   22.0508 N   0  0  0  0  0  0  0  0  0  0  0  0
   12.6394  -18.8627   23.2437 C   0  0  0  0  0  0  0  0  0  0  0  0
   13.7648  -19.4107   23.2509 O   0  0  0  0  0  0  0  0  0  0  0  0
   12.1100  -18.2499   24.4561 C   0  0  0  0  0  0  0  0  0  0  0  0
   10.7864  -17.5926   24.3641 C   0  0  0  0  0  0  0  0  0  0  0  0
    9.8303  -17.8978   25.5025 C   0  0  2  0  0  0  0  0  0  0  0  0
    8.6523  -17.0344   25.4164 N   0  0  0  0  0  0  0  0  0  0  0  0
   10.6025  -17.7262   26.7448 C   0  0  0  0  0  0  0  0  0  0  0  0
   10.7029  -18.7256   27.5375 O   0  0  0  0  0  0  0  0  0  0  0  0
   11.2482  -16.5851   27.1654 O   0  0  0  0  0  0  0  0  0  0  0  0
  2  3  2  0
  2  1  1  0
  4  2  1  0
  5  4  1  0
  5  6  1  1
  7  8  2  0
  7  5  1  0
 10  9  1  6
 10 12  1  0
 10 11  1  0
 13 12  1  1
 13 14  1  0
 14  7  1  0
 15 13  1  0
 15 16  2  0
 18 17  1  0
 18 19  2  0
 20 18  1  0
 21 20  1  0
 22 21  1  6
 23 22  1  0
 23 15  1  0
 24 22  1  0
 25 24  2  0
 26 24  1  0
M  END
$$$$
