NLQ.pdb
     RDKit          3D

 26 25  0  0  1  0  0  0  0  0999 V2000
    8.1484  -15.3261   17.8162 N   0  0  0  0  0  0  0  0  0  0  0  0
    8.5320  -16.1132   18.9313 C   0  0  0  0  0  0  0  0  0  0  0  0
    8.3279  -17.3595   18.8491 O   0  0  0  0  0  0  0  0  0  0  0  0
    9.1307  -15.4479   20.0910 C   0  0  0  0  0  0  0  0  0  0  0  0
    8.8415  -16.1563   21.3940 C   0  0  2  0  0  0  0  0  0  0  0  0
    7.4932  -16.6672   21.4562 N   0  0  0  0  0  0  0  0  0  0  0  0
    9.0833  -15.2814   22.5649 C   0  0  0  0  0  0  0  0  0  0  0  0
   10.2043  -14.6765   22.6875 O   0  0  0  0  0  0  0  0  0  0  0  0
    7.7415  -11.3599   26.2439 C   0  0  0  0  0  0  0  0  0  0  0  0
    6.9197  -12.6034   26.1292 C   0  0  1  0  0  0  0  0  0  0  0  0
    5.4341  -12.2881   26.3265 C   0  0  0  0  0  0  0  0  0  0  0  0
    7.1649  -13.4972   24.9974 C   0  0  0  0  0  0  0  0  0  0  0  0
    8.4590  -14.1604   24.7616 C   0  0  2  0  0  0  0  0  0  0  0  0
    8.1549  -15.0538   23.5824 N   0  0  0  0  0  0  0  0  0  0  0  0
    8.8528  -15.1046   25.8132 C   0  0  0  0  0  0  0  0  0  0  0  0
    8.2791  -15.0853   26.9690 O   0  0  0  0  0  0  0  0  0  0  0  0
    6.3391  -19.8036   25.3228 N   0  0  0  0  0  0  0  0  0  0  0  0
    7.1738  -20.2254   26.3726 C   0  0  0  0  0  0  0  0  0  0  0  0
    6.9134  -21.2982   26.9627 O   0  0  0  0  0  0  0  0  0  0  0  0
    8.3272  -19.4268   26.7695 C   0  0  0  0  0  0  0  0  0  0  0  0
    8.4766  -18.0914   26.1476 C   0  0  0  0  0  0  0  0  0  0  0  0
    9.7690  -17.3654   26.4732 C   0  0  2  0  0  0  0  0  0  0  0  0
    9.8550  -16.1217   25.7074 N   0  0  0  0  0  0  0  0  0  0  0  0
   10.8574  -18.3154   26.1866 C   0  0  0  0  0  0  0  0  0  0  0  0
   11.4523  -18.2307   25.0569 O   0  0  0  0  0  0  0  0  0  0  0  0
   11.3241  -19.3115   27.0147 O   0  0  0  0  0  0  0  0  0  0  0  0
  2  3  2  0
  2  1  1  0
  4  2  1  0
  5  4  1  0
  5  6  1  6
  7  8  2  0
  7  5  1  0
 10  9  1  6
 10 12  1  0
 10 11  1  0
 13 12  1  1
 13 14  1  0
 14  7  1  0
 15 13  1  0
 15 16  2  0
 18 17  1  0
 18 19  2  0
 20 18  1  0
 21 20  1  0
 22 21  1  6
 23 22  1  0
 23 15  1  0
 24 22  1  0
 25 24  2  0
 26 24  1  0
M  END
$$$$
