NLQ.pdb
     RDKit          3D

 26 25  0  0  1  0  0  0  0  0999 V2000
    7.1191  -19.0665   20.0448 N   0  0  0  0  0  0  0  0  0  0  0  0
    6.7395  -17.7672   20.4666 C   0  0  0  0  0  0  0  0  0  0  0  0
    5.8018  -17.2090   19.8258 O   0  0  0  0  0  0  0  0  0  0  0  0
    7.4433  -17.1602   21.5989 C   0  0  0  0  0  0  0  0  0  0  0  0
    7.5290  -15.6546   21.5038 C   0  0  2  0  0  0  0  0  0  0  0  0
    8.1974  -15.2153   20.3025 N   0  0  0  0  0  0  0  0  0  0  0  0
    8.2079  -15.0637   22.6806 C   0  0  0  0  0  0  0  0  0  0  0  0
    9.4312  -14.6985   22.5935 O   0  0  0  0  0  0  0  0  0  0  0  0
    5.6247  -11.9182   26.6395 C   0  0  0  0  0  0  0  0  0  0  0  0
    6.7170  -12.3802   25.7293 C   0  0  1  0  0  0  0  0  0  0  0  0
    7.8080  -11.3121   25.6107 C   0  0  0  0  0  0  0  0  0  0  0  0
    7.2582  -13.7259   25.9196 C   0  0  0  0  0  0  0  0  0  0  0  0
    8.3477  -14.2787   25.0964 C   0  0  2  0  0  0  0  0  0  0  0  0
    7.6006  -14.8649   23.9220 N   0  0  0  0  0  0  0  0  0  0  0  0
    9.0201  -15.4407   25.6882 C   0  0  0  0  0  0  0  0  0  0  0  0
    9.7127  -15.3246   26.7708 O   0  0  0  0  0  0  0  0  0  0  0  0
   11.6870  -20.4591   23.0028 N   0  0  0  0  0  0  0  0  0  0  0  0
   12.0398  -20.5450   24.3610 C   0  0  0  0  0  0  0  0  0  0  0  0
   12.7110  -21.5258   24.7539 O   0  0  0  0  0  0  0  0  0  0  0  0
   11.6318  -19.5071   25.3002 C   0  0  0  0  0  0  0  0  0  0  0  0
   10.7496  -18.4342   24.7875 C   0  0  0  0  0  0  0  0  0  0  0  0
    9.7866  -17.8461   25.8024 C   0  0  2  0  0  0  0  0  0  0  0  0
    8.9937  -16.7817   25.1869 N   0  0  0  0  0  0  0  0  0  0  0  0
   10.6105  -17.3927   26.9359 C   0  0  0  0  0  0  0  0  0  0  0  0
   11.4362  -16.4353   26.7386 O   0  0  0  0  0  0  0  0  0  0  0  0
   10.5959  -17.8910   28.2194 O   0  0  0  0  0  0  0  0  0  0  0  0
  2  3  2  0
  2  1  1  0
  4  2  1  0
  5  4  1  0
  5  6  1  6
  7  8  2  0
  7  5  1  0
 10  9  1  1
 10 12  1  0
 10 11  1  0
 13 12  1  1
 13 14  1  0
 14  7  1  0
 15 13  1  0
 15 16  2  0
 18 17  1  0
 18 19  2  0
 20 18  1  0
 21 20  1  0
 22 21  1  6
 23 22  1  0
 23 15  1  0
 24 22  1  0
 25 24  2  0
 26 24  1  0
M  END
$$$$
