TRI.pdb
     RDKit          3D

 27 26  0  0  1  0  0  0  0  0999 V2000
   23.3828  -14.6763  -16.9488 C   0  0  0  0  0  0  0  0  0  0  0  0
   23.2012  -15.8992  -16.1038 C   0  0  1  0  0  0  0  0  0  0  0  0
   22.5001  -16.8643  -16.8394 O   0  0  0  0  0  0  0  0  0  0  0  0
   24.5630  -16.4933  -15.7381 C   0  0  2  0  0  0  0  0  0  0  0  0
   25.1898  -16.9278  -16.9953 N   0  0  0  0  0  0  0  0  0  0  0  0
   24.4034  -17.6760  -14.8796 C   0  0  0  0  0  0  0  0  0  0  0  0
   23.9910  -17.5199  -13.6759 O   0  0  0  0  0  0  0  0  0  0  0  0
   23.5404  -26.5269  -14.2486 N   0  0  0  0  0  0  0  0  0  0  0  0
   22.8513  -25.5172  -14.9808 C   0  0  0  0  0  0  0  0  0  0  0  0
   21.6327  -25.7574  -15.3838 N   0  0  0  0  0  0  0  0  0  0  0  0
   23.4282  -24.2565  -15.2949 N   0  0  0  0  0  0  0  0  0  0  0  0
   24.6877  -23.8883  -14.6836 C   0  0  0  0  0  0  0  0  0  0  0  0
   24.6302  -22.5359  -14.0281 C   0  0  0  0  0  0  0  0  0  0  0  0
   24.5571  -21.4086  -15.0318 C   0  0  0  0  0  0  0  0  0  0  0  0
   24.5987  -20.0979  -14.2666 C   0  0  2  0  0  0  0  0  0  0  0  0
   24.6608  -19.0189  -15.2440 N   0  0  0  0  0  0  0  0  0  0  0  0
   25.7180  -20.0446  -13.3124 C   0  0  0  0  0  0  0  0  0  0  0  0
   26.8772  -19.7814  -13.7221 O   0  0  0  0  0  0  0  0  0  0  0  0
   21.1068  -25.0520  -15.9396 C   0  0  0  0  0  0  0  0  0  0  0  0
   26.5568  -19.2277   -7.2635 C   0  0  0  0  0  0  0  0  0  0  0  0
   27.1439  -19.5971   -8.5958 C   0  0  2  0  0  0  0  0  0  0  0  0
   26.0925  -19.8547   -9.6379 C   0  0  0  0  0  0  0  0  0  0  0  0
   25.2552  -21.0287   -9.1934 C   0  0  2  0  0  0  0  0  0  0  0  0
   26.6706  -20.1607  -10.9898 N   0  0  0  0  0  0  0  0  0  0  0  0
   25.5660  -20.2782  -11.9207 C   0  0  0  0  0  0  0  0  0  0  0  0
   27.4618  -21.3898  -11.0256 O   0  0  0  0  0  0  0  0  0  0  0  0
   26.9153  -22.5033  -11.2293 O   0  0  0  0  0  0  0  0  0  0  0  0
  2  1  1  6
  3  2  1  0
  4  2  1  0
  4  5  1  6
  6  4  1  0
  6 16  1  0
  7  6  2  0
  9  8  1  0
 10  9  2  0
 11  9  1  0
 12 13  1  0
 12 11  1  0
 13 14  1  0
 15 14  1  6
 15 16  1  0
 17 15  1  0
 18 17  2  0
 19 20  1  0
 21 20  1  0
 21 23  1  0
 21 22  1  6
 23 25  1  0
 23 24  1  6
 24 17  1  0
 25 27  1  0
 26 25  2  0
M  END
$$$$
