TRI.pdb
     RDKit          3D

 27 26  0  0  1  0  0  0  0  0999 V2000
   29.1691  -21.8226  -13.8055 C   0  0  0  0  0  0  0  0  0  0  0  0
   29.0650  -20.7953  -14.8901 C   0  0  1  0  0  0  0  0  0  0  0  0
   29.7786  -21.2392  -16.0116 O   0  0  0  0  0  0  0  0  0  0  0  0
   27.6041  -20.6189  -15.3095 C   0  0  2  0  0  0  0  0  0  0  0  0
   27.5795  -19.5660  -16.3357 N   0  0  0  0  0  0  0  0  0  0  0  0
   26.7863  -20.1648  -14.1754 C   0  0  0  0  0  0  0  0  0  0  0  0
   26.8700  -18.9425  -13.7980 O   0  0  0  0  0  0  0  0  0  0  0  0
   19.3254  -19.6477  -13.7402 N   0  0  0  0  0  0  0  0  0  0  0  0
   19.9264  -20.9351  -13.6322 C   0  0  0  0  0  0  0  0  0  0  0  0
   19.4309  -21.9183  -14.3344 N   0  0  0  0  0  0  0  0  0  0  0  0
   21.0432  -21.2021  -12.7942 N   0  0  0  0  0  0  0  0  0  0  0  0
   21.3346  -20.2972  -11.7025 C   0  0  0  0  0  0  0  0  0  0  0  0
   22.8125  -20.1154  -11.4908 C   0  0  0  0  0  0  0  0  0  0  0  0
   23.6300  -20.6060  -12.6633 C   0  0  0  0  0  0  0  0  0  0  0  0
   25.0958  -20.3806  -12.3382 C   0  0  2  0  0  0  0  0  0  0  0  0
   25.8810  -20.9518  -13.4247 N   0  0  0  0  0  0  0  0  0  0  0  0
   25.4698  -20.9433  -11.0306 C   0  0  0  0  0  0  0  0  0  0  0  0
   25.4390  -22.1877  -10.8532 O   0  0  0  0  0  0  0  0  0  0  0  0
   19.8701  -22.8616  -14.3139 C   0  0  0  0  0  0  0  0  0  0  0  0
   28.3789  -19.3110   -5.8253 C   0  0  0  0  0  0  0  0  0  0  0  0
   27.4559  -20.2593   -6.5358 C   0  0  2  0  0  0  0  0  0  0  0  0
   27.0552  -19.7633   -7.8964 C   0  0  0  0  0  0  0  0  0  0  0  0
   26.3455  -18.4415   -7.7342 C   0  0  2  0  0  0  0  0  0  0  0  0
   26.1443  -20.7125   -8.6208 N   0  0  0  0  0  0  0  0  0  0  0  0
   25.8741  -20.1469   -9.9275 C   0  0  0  0  0  0  0  0  0  0  0  0
   24.8781  -20.9533   -7.9305 O   0  0  0  0  0  0  0  0  0  0  0  0
   23.8684  -20.2430   -8.1678 O   0  0  0  0  0  0  0  0  0  0  0  0
  2  1  1  1
  3  2  1  0
  4  2  1  0
  4  5  1  6
  6  4  1  0
  6 16  1  0
  7  6  2  0
  9  8  1  0
 10  9  2  0
 11  9  1  0
 12 13  1  0
 12 11  1  0
 13 14  1  0
 15 14  1  6
 15 16  1  0
 17 15  1  0
 18 17  2  0
 19 20  1  0
 21 20  1  0
 21 23  1  0
 21 22  1  6
 23 25  1  0
 23 24  1  1
 24 17  1  0
 25 27  1  0
 26 25  2  0
M  END
$$$$
