TRI.pdb
     RDKit          3D

 27 26  0  0  1  0  0  0  0  0999 V2000
   13.9428  -10.7363  -15.2280 C   0  0  0  0  0  0  0  0  0  0  0  0
   14.4296  -11.6523  -16.3081 C   0  0  1  0  0  0  0  0  0  0  0  0
   14.8273  -10.8874  -17.4129 O   0  0  0  0  0  0  0  0  0  0  0  0
   15.6508  -12.4362  -15.8225 C   0  0  2  0  0  0  0  0  0  0  0  0
   15.1978  -13.2845  -14.7101 N   0  0  0  0  0  0  0  0  0  0  0  0
   16.6840  -11.5265  -15.3065 C   0  0  0  0  0  0  0  0  0  0  0  0
   16.4270  -10.8172  -14.2701 O   0  0  0  0  0  0  0  0  0  0  0  0
   25.3339  -11.7546  -15.2119 N   0  0  0  0  0  0  0  0  0  0  0  0
   24.5340  -11.2343  -16.2702 C   0  0  0  0  0  0  0  0  0  0  0  0
   25.0138  -11.2519  -17.4846 N   0  0  0  0  0  0  0  0  0  0  0  0
   23.2345  -10.6949  -16.0673 N   0  0  0  0  0  0  0  0  0  0  0  0
   22.7002  -10.6361  -14.7232 C   0  0  0  0  0  0  0  0  0  0  0  0
   21.2955  -10.0997  -14.6903 C   0  0  0  0  0  0  0  0  0  0  0  0
   20.3192  -10.9880  -15.4262 C   0  0  0  0  0  0  0  0  0  0  0  0
   18.9275  -10.4123  -15.2345 C   0  0  2  0  0  0  0  0  0  0  0  0
   17.9802  -11.3381  -15.8420 N   0  0  0  0  0  0  0  0  0  0  0  0
   18.8049   -9.0539  -15.7876 C   0  0  0  0  0  0  0  0  0  0  0  0
   18.7882   -8.8849  -17.0335 O   0  0  0  0  0  0  0  0  0  0  0  0
   24.4440  -10.9139  -18.2872 C   0  0  0  0  0  0  0  0  0  0  0  0
   14.8375   -6.0650  -15.7367 C   0  0  0  0  0  0  0  0  0  0  0  0
   16.2083   -6.5328  -16.1346 C   0  0  2  0  0  0  0  0  0  0  0  0
   17.2849   -5.9950  -15.2349 C   0  0  0  0  0  0  0  0  0  0  0  0
   17.3361   -4.4953  -15.3930 C   0  0  2  0  0  0  0  0  0  0  0  0
   18.6423   -6.5579  -15.5450 N   0  0  0  0  0  0  0  0  0  0  0  0
   18.7016   -7.8912  -14.9801 C   0  0  0  0  0  0  0  0  0  0  0  0
   19.7450   -5.7602  -15.0104 O   0  0  0  0  0  0  0  0  0  0  0  0
   20.1757   -5.9537  -13.8454 O   0  0  0  0  0  0  0  0  0  0  0  0
  2  1  1  1
  3  2  1  0
  4  2  1  0
  4  5  1  1
  6  4  1  0
  6 16  1  0
  7  6  2  0
  9  8  1  0
 10  9  2  0
 11  9  1  0
 12 13  1  0
 12 11  1  0
 13 14  1  0
 15 14  1  6
 15 16  1  0
 17 15  1  0
 18 17  2  0
 19 20  1  0
 21 20  1  0
 21 23  1  0
 21 22  1  1
 23 25  1  0
 23 24  1  6
 24 17  1  0
 25 27  1  0
 26 25  2  0
M  END
$$$$
