TRI.pdb
     RDKit          3D

 27 26  0  0  1  0  0  0  0  0999 V2000
   30.9776  -27.1181  -16.6116 C   0  0  0  0  0  0  0  0  0  0  0  0
   31.4297  -28.2049  -17.5374 C   0  0  1  0  0  0  0  0  0  0  0  0
   32.7663  -28.5192  -17.2568 O   0  0  0  0  0  0  0  0  0  0  0  0
   30.5982  -29.4692  -17.3107 C   0  0  2  0  0  0  0  0  0  0  0  0
   30.9999  -30.4345  -18.3447 N   0  0  0  0  0  0  0  0  0  0  0  0
   29.1653  -29.1901  -17.4843 C   0  0  0  0  0  0  0  0  0  0  0  0
   28.7112  -28.9784  -18.6643 O   0  0  0  0  0  0  0  0  0  0  0  0
   27.6194  -33.4435  -14.1800 N   0  0  0  0  0  0  0  0  0  0  0  0
   26.7074  -34.0573  -15.0866 C   0  0  0  0  0  0  0  0  0  0  0  0
   26.9594  -35.2687  -15.5040 N   0  0  0  0  0  0  0  0  0  0  0  0
   25.5324  -33.4125  -15.5605 N   0  0  0  0  0  0  0  0  0  0  0  0
   25.3249  -32.0139  -15.2506 C   0  0  0  0  0  0  0  0  0  0  0  0
   26.1462  -31.1073  -16.1256 C   0  0  0  0  0  0  0  0  0  0  0  0
   25.9421  -29.6462  -15.7984 C   0  0  0  0  0  0  0  0  0  0  0  0
   26.7958  -28.8299  -16.7524 C   0  0  2  0  0  0  0  0  0  0  0  0
   28.1918  -29.1277  -16.4591 N   0  0  0  0  0  0  0  0  0  0  0  0
   26.5077  -27.3893  -16.6649 C   0  0  0  0  0  0  0  0  0  0  0  0
   26.9942  -26.7100  -15.7253 O   0  0  0  0  0  0  0  0  0  0  0  0
   26.3017  -35.7588  -16.1445 C   0  0  0  0  0  0  0  0  0  0  0  0
   27.5955  -24.2830  -20.5731 C   0  0  0  0  0  0  0  0  0  0  0  0
   27.2530  -24.8946  -19.2446 C   0  0  2  0  0  0  0  0  0  0  0  0
   25.8124  -24.6898  -18.8698 C   0  0  0  0  0  0  0  0  0  0  0  0
   25.5311  -23.2075  -18.8414 C   0  0  2  0  0  0  0  0  0  0  0  0
   25.4682  -25.2704  -17.5282 N   0  0  0  0  0  0  0  0  0  0  0  0
   25.6926  -26.7004  -17.6007 C   0  0  0  0  0  0  0  0  0  0  0  0
   24.0873  -25.0211  -17.1171 O   0  0  0  0  0  0  0  0  0  0  0  0
   23.1396  -25.6923  -17.5983 O   0  0  0  0  0  0  0  0  0  0  0  0
  2  1  1  1
  3  2  1  0
  4  2  1  0
  4  5  1  6
  6  4  1  0
  6 16  1  0
  7  6  2  0
  9  8  1  0
 10  9  2  0
 11  9  1  0
 12 13  1  0
 12 11  1  0
 13 14  1  0
 15 14  1  1
 15 16  1  0
 17 15  1  0
 18 17  2  0
 19 20  1  0
 21 20  1  0
 21 23  1  0
 21 22  1  6
 23 25  1  0
 23 24  1  1
 24 17  1  0
 25 27  1  0
 26 25  2  0
M  END
$$$$
