TRI.pdb
     RDKit          3D

 27 26  0  0  1  0  0  0  0  0999 V2000
   26.7717  -23.0003  -16.4820 C   0  0  0  0  0  0  0  0  0  0  0  0
   27.8564  -21.9700  -16.5492 C   0  0  1  0  0  0  0  0  0  0  0  0
   28.8863  -22.4421  -17.3741 O   0  0  0  0  0  0  0  0  0  0  0  0
   27.3186  -20.6793  -17.1708 C   0  0  2  0  0  0  0  0  0  0  0  0
   28.4624  -19.7663  -17.3134 N   0  0  0  0  0  0  0  0  0  0  0  0
   26.3376  -20.0406  -16.2814 C   0  0  0  0  0  0  0  0  0  0  0  0
   26.7338  -19.5606  -15.1607 O   0  0  0  0  0  0  0  0  0  0  0  0
   22.0371  -17.1730  -20.7040 N   0  0  0  0  0  0  0  0  0  0  0  0
   21.3620  -18.1408  -19.9052 C   0  0  0  0  0  0  0  0  0  0  0  0
   20.7620  -19.1359  -20.5010 N   0  0  0  0  0  0  0  0  0  0  0  0
   21.3098  -18.0753  -18.4860 N   0  0  0  0  0  0  0  0  0  0  0  0
   22.0246  -17.0168  -17.8048 C   0  0  0  0  0  0  0  0  0  0  0  0
   23.1637  -17.5402  -16.9738 C   0  0  0  0  0  0  0  0  0  0  0  0
   22.8162  -18.8258  -16.2596 C   0  0  0  0  0  0  0  0  0  0  0  0
   24.0600  -19.3090  -15.5352 C   0  0  2  0  0  0  0  0  0  0  0  0
   24.9531  -19.8871  -16.5309 N   0  0  0  0  0  0  0  0  0  0  0  0
   23.7435  -20.2604  -14.4578 C   0  0  0  0  0  0  0  0  0  0  0  0
   23.4751  -21.4564  -14.7381 O   0  0  0  0  0  0  0  0  0  0  0  0
   20.2629  -19.8638  -19.9495 C   0  0  0  0  0  0  0  0  0  0  0  0
   26.5912  -20.6480  -10.0120 C   0  0  0  0  0  0  0  0  0  0  0  0
   25.6699  -20.9934  -11.1470 C   0  0  2  0  0  0  0  0  0  0  0  0
   24.2446  -20.6057  -10.8712 C   0  0  0  0  0  0  0  0  0  0  0  0
   23.7433  -21.4221   -9.7055 C   0  0  2  0  0  0  0  0  0  0  0  0
   23.3374  -20.8365  -12.0456 N   0  0  0  0  0  0  0  0  0  0  0  0
   23.7217  -19.9020  -13.0846 C   0  0  0  0  0  0  0  0  0  0  0  0
   21.9197  -20.6553  -11.7369 O   0  0  0  0  0  0  0  0  0  0  0  0
   21.1693  -21.6455  -11.5452 O   0  0  0  0  0  0  0  0  0  0  0  0
  2  1  1  6
  3  2  1  0
  4  2  1  0
  4  5  1  1
  6  4  1  0
  6 16  1  0
  7  6  2  0
  9  8  1  0
 10  9  2  0
 11  9  1  0
 12 13  1  0
 12 11  1  0
 13 14  1  0
 15 14  1  6
 15 16  1  0
 17 15  1  0
 18 17  2  0
 19 20  1  0
 21 20  1  0
 21 23  1  0
 21 22  1  6
 23 25  1  0
 23 24  1  6
 24 17  1  0
 25 27  1  0
 26 25  2  0
M  END
$$$$
