TRI.pdb
     RDKit          3D

 27 26  0  0  1  0  0  0  0  0999 V2000
   17.8114  -10.7917  -13.4407 C   0  0  0  0  0  0  0  0  0  0  0  0
   16.3981  -10.8499  -13.9324 C   0  0  1  0  0  0  0  0  0  0  0  0
   16.0075  -12.1910  -14.0463 O   0  0  0  0  0  0  0  0  0  0  0  0
   15.4624  -10.1779  -12.9253 C   0  0  2  0  0  0  0  0  0  0  0  0
   14.1070  -10.2468  -13.4913 N   0  0  0  0  0  0  0  0  0  0  0  0
   15.8102   -8.7597  -12.7550 C   0  0  0  0  0  0  0  0  0  0  0  0
   15.6153   -7.9499  -13.7295 O   0  0  0  0  0  0  0  0  0  0  0  0
   11.9445   -7.0929   -8.1416 N   0  0  0  0  0  0  0  0  0  0  0  0
   12.9861   -7.5483   -7.2826 C   0  0  0  0  0  0  0  0  0  0  0  0
   12.6966   -8.4214   -6.3557 N   0  0  0  0  0  0  0  0  0  0  0  0
   14.3301   -7.0967   -7.3861 N   0  0  0  0  0  0  0  0  0  0  0  0
   14.6940   -6.2182   -8.4775 C   0  0  0  0  0  0  0  0  0  0  0  0
   15.5847   -6.8953   -9.4826 C   0  0  0  0  0  0  0  0  0  0  0  0
   15.9322   -5.9964  -10.6465 C   0  0  0  0  0  0  0  0  0  0  0  0
   16.8207   -6.7817  -11.5947 C   0  0  2  0  0  0  0  0  0  0  0  0
   16.3546   -8.1624  -11.5933 N   0  0  0  0  0  0  0  0  0  0  0  0
   18.2450   -6.6787  -11.2382 C   0  0  0  0  0  0  0  0  0  0  0  0
   18.6078   -6.8704  -10.0496 O   0  0  0  0  0  0  0  0  0  0  0  0
   13.4412   -8.8175   -5.7460 C   0  0  0  0  0  0  0  0  0  0  0  0
   22.7891   -9.7346  -12.3463 C   0  0  0  0  0  0  0  0  0  0  0  0
   22.4722   -8.2886  -12.0914 C   0  0  2  0  0  0  0  0  0  0  0  0
   21.0047   -7.9897  -12.2133 C   0  0  0  0  0  0  0  0  0  0  0  0
   20.5731   -8.2789  -13.6300 C   0  0  2  0  0  0  0  0  0  0  0  0
   20.6691   -6.5619  -11.8902 N   0  0  0  0  0  0  0  0  0  0  0  0
   19.2621   -6.3681  -12.1782 C   0  0  0  0  0  0  0  0  0  0  0  0
   21.4532   -5.5884  -12.6488 O   0  0  0  0  0  0  0  0  0  0  0  0
   20.9682   -5.0131  -13.6557 O   0  0  0  0  0  0  0  0  0  0  0  0
  2  1  1  1
  3  2  1  0
  4  2  1  0
  4  5  1  6
  6  4  1  0
  6 16  1  0
  7  6  2  0
  9  8  1  0
 10  9  2  0
 11  9  1  0
 12 13  1  0
 12 11  1  0
 13 14  1  0
 15 14  1  1
 15 16  1  0
 17 15  1  0
 18 17  2  0
 19 20  1  0
 21 20  1  0
 21 23  1  0
 21 22  1  1
 23 25  1  0
 23 24  1  6
 24 17  1  0
 25 27  1  0
 26 25  2  0
M  END
$$$$
