TRI.pdb
     RDKit          3D

 27 26  0  0  1  0  0  0  0  0999 V2000
   25.4037  -24.5734  -15.0813 C   0  0  0  0  0  0  0  0  0  0  0  0
   26.5395  -23.9051  -15.7925 C   0  0  1  0  0  0  0  0  0  0  0  0
   26.9129  -24.6860  -16.8948 O   0  0  0  0  0  0  0  0  0  0  0  0
   26.0987  -22.5381  -16.3202 C   0  0  2  0  0  0  0  0  0  0  0  0
   27.2572  -21.9551  -17.0131 N   0  0  0  0  0  0  0  0  0  0  0  0
   25.7362  -21.6426  -15.2121 C   0  0  0  0  0  0  0  0  0  0  0  0
   26.6598  -20.9779  -14.6218 O   0  0  0  0  0  0  0  0  0  0  0  0
   21.0758  -19.9277  -17.5572 N   0  0  0  0  0  0  0  0  0  0  0  0
   20.8938  -18.5342  -17.3219 C   0  0  0  0  0  0  0  0  0  0  0  0
   20.8227  -17.7299  -18.3482 N   0  0  0  0  0  0  0  0  0  0  0  0
   20.7855  -17.9750  -16.0194 N   0  0  0  0  0  0  0  0  0  0  0  0
   21.0294  -18.8200  -14.8696 C   0  0  0  0  0  0  0  0  0  0  0  0
   22.4734  -19.2246  -14.7545 C   0  0  0  0  0  0  0  0  0  0  0  0
   22.7226  -20.1560  -13.5910 C   0  0  0  0  0  0  0  0  0  0  0  0
   24.1980  -20.5145  -13.5870 C   0  0  2  0  0  0  0  0  0  0  0  0
   24.4343  -21.4200  -14.7040 N   0  0  0  0  0  0  0  0  0  0  0  0
   24.6272  -21.0951  -12.3044 C   0  0  0  0  0  0  0  0  0  0  0  0
   24.2560  -22.2537  -11.9867 O   0  0  0  0  0  0  0  0  0  0  0  0
   20.7153  -16.7035  -18.2139 C   0  0  0  0  0  0  0  0  0  0  0  0
   28.5184  -20.3965   -7.6794 C   0  0  0  0  0  0  0  0  0  0  0  0
   27.0494  -20.4386   -7.9900 C   0  0  2  0  0  0  0  0  0  0  0  0
   26.7492  -20.0544   -9.4113 C   0  0  0  0  0  0  0  0  0  0  0  0
   26.3508  -18.5993   -9.4400 C   0  0  2  0  0  0  0  0  0  0  0  0
   25.6415  -20.8683  -10.0164 N   0  0  0  0  0  0  0  0  0  0  0  0
   25.4567  -20.4098  -11.3787 C   0  0  0  0  0  0  0  0  0  0  0  0
   24.3731  -20.7605   -9.2970 O   0  0  0  0  0  0  0  0  0  0  0  0
   23.5448  -19.8585   -9.5810 O   0  0  0  0  0  0  0  0  0  0  0  0
  2  1  1  6
  3  2  1  0
  4  2  1  0
  4  5  1  1
  6  4  1  0
  6 16  1  0
  7  6  2  0
  9  8  1  0
 10  9  2  0
 11  9  1  0
 12 13  1  0
 12 11  1  0
 13 14  1  0
 15 14  1  1
 15 16  1  0
 17 15  1  0
 18 17  2  0
 19 20  1  0
 21 20  1  0
 21 23  1  0
 21 22  1  6
 23 25  1  0
 23 24  1  1
 24 17  1  0
 25 27  1  0
 26 25  2  0
M  END
$$$$
