GAH.pdb
     RDKit          3D

 20 20  0  0  1  0  0  0  0  0999 V2000
   19.6581  -14.6657  -17.6212 N   0  0  0  0  0  0  0  0  0  0  0  0
   19.0524  -13.3736  -17.7022 C   0  0  0  0  0  0  0  0  0  0  0  0
   20.0753  -12.2799  -17.8077 C   0  0  0  0  0  0  0  0  0  0  0  0
   21.2919  -12.4674  -17.5837 O   0  0  0  0  0  0  0  0  0  0  0  0
   19.8204   -8.8880  -19.2934 C   0  0  0  0  0  0  0  0  0  0  0  0
   20.5315   -9.8651  -18.3528 C   0  0  2  0  0  0  0  0  0  0  0  0
   19.6644  -10.9831  -18.1730 N   0  0  0  0  0  0  0  0  0  0  0  0
   20.9687   -9.2190  -17.1269 C   0  0  0  0  0  0  0  0  0  0  0  0
   20.2734   -9.2859  -16.0918 O   0  0  0  0  0  0  0  0  0  0  0  0
   22.1885   -8.5062  -17.0933 N   0  0  0  0  0  0  0  0  0  0  0  0
   22.7104   -7.8940  -15.8723 C   0  0  1  0  0  0  0  0  0  0  0  0
   24.2190   -7.7858  -15.9380 C   0  0  0  0  0  0  0  0  0  0  0  0
   24.8596   -9.1218  -15.8945 C   0  0  0  0  0  0  0  0  0  0  0  0
   24.2153  -10.3525  -15.7363 C   0  0  0  0  0  0  0  0  0  0  0  0
   25.1178  -11.3481  -15.7446 N   0  0  0  0  0  0  0  0  0  0  0  0
   26.3265  -10.7695  -15.9058 C   0  0  0  0  0  0  0  0  0  0  0  0
   26.1720   -9.4383  -15.9954 N   0  0  0  0  0  0  0  0  0  0  0  0
   22.0666   -6.5954  -15.6065 C   0  0  0  0  0  0  0  0  0  0  0  0
   21.3734   -5.9888  -16.4573 O   0  0  0  0  0  0  0  0  0  0  0  0
   22.2007   -5.9599  -14.3602 O   0  0  0  0  0  0  0  0  0  0  0  0
  2  1  1  0
  3  2  1  0
  4  3  2  0
  6  5  1  6
  6  7  1  0
  7  3  1  0
  8  6  1  0
  8  9  2  0
 10  8  1  0
 11 10  1  0
 12 13  1  0
 11 12  1  6
 13 14  2  0
 14 15  1  0
 16 15  1  0
 17 13  1  0
 17 16  2  0
 18 11  1  0
 19 18  2  0
 20 18  1  0
M  END
$$$$
