GAH.pdb
     RDKit          3D

 20 20  0  0  1  0  0  0  0  0999 V2000
   17.3087  -13.8711  -16.6650 N   0  0  0  0  0  0  0  0  0  0  0  0
   16.8348  -12.5473  -16.9216 C   0  0  0  0  0  0  0  0  0  0  0  0
   17.9622  -11.5777  -17.1281 C   0  0  0  0  0  0  0  0  0  0  0  0
   19.1280  -11.8015  -16.7329 O   0  0  0  0  0  0  0  0  0  0  0  0
   18.1157   -8.4530  -19.1590 C   0  0  0  0  0  0  0  0  0  0  0  0
   18.6896   -9.3573  -18.0644 C   0  0  2  0  0  0  0  0  0  0  0  0
   17.7135  -10.3611  -17.7927 N   0  0  0  0  0  0  0  0  0  0  0  0
   19.1325   -8.5971  -16.9079 C   0  0  0  0  0  0  0  0  0  0  0  0
   18.3720   -8.4258  -15.9324 O   0  0  0  0  0  0  0  0  0  0  0  0
   20.4318   -8.0424  -16.8752 N   0  0  0  0  0  0  0  0  0  0  0  0
   20.9325   -7.2743  -15.7362 C   0  0  1  0  0  0  0  0  0  0  0  0
   22.4148   -7.5161  -15.5456 C   0  0  0  0  0  0  0  0  0  0  0  0
   22.6908   -8.9271  -15.1854 C   0  0  0  0  0  0  0  0  0  0  0  0
   21.7463   -9.9382  -14.9845 C   0  0  0  0  0  0  0  0  0  0  0  0
   22.3648  -11.0892  -14.6710 N   0  0  0  0  0  0  0  0  0  0  0  0
   23.6886  -10.8258  -14.6693 C   0  0  0  0  0  0  0  0  0  0  0  0
   23.8834   -9.5330  -14.9770 N   0  0  0  0  0  0  0  0  0  0  0  0
   20.6113   -5.8426  -15.8727 C   0  0  0  0  0  0  0  0  0  0  0  0
   20.1805   -5.3365  -16.9360 O   0  0  0  0  0  0  0  0  0  0  0  0
   20.7757   -4.9555  -14.7950 O   0  0  0  0  0  0  0  0  0  0  0  0
  2  1  1  0
  3  2  1  0
  4  3  2  0
  6  5  1  6
  6  7  1  0
  7  3  1  0
  8  6  1  0
  8  9  2  0
 10  8  1  0
 11 10  1  0
 12 13  1  0
 11 12  1  6
 13 14  2  0
 14 15  1  0
 16 15  1  0
 17 13  1  0
 17 16  2  0
 18 11  1  0
 19 18  2  0
 20 18  1  0
M  END
$$$$
