GAH.pdb
     RDKit          3D

 20 20  0  0  1  0  0  0  0  0999 V2000
   24.6304  -32.5352   -8.8023 N   0  0  0  0  0  0  0  0  0  0  0  0
   25.9547  -32.4654   -8.2692 C   0  0  0  0  0  0  0  0  0  0  0  0
   26.1756  -33.4756   -7.1810 C   0  0  0  0  0  0  0  0  0  0  0  0
   25.2460  -34.1506   -6.6855 O   0  0  0  0  0  0  0  0  0  0  0  0
   29.3649  -34.8195   -5.7816 C   0  0  0  0  0  0  0  0  0  0  0  0
   27.8428  -34.6643   -5.7169 C   0  0  2  0  0  0  0  0  0  0  0  0
   27.4778  -33.6840   -6.6865 N   0  0  0  0  0  0  0  0  0  0  0  0
   27.3805  -34.3982   -4.3652 C   0  0  0  0  0  0  0  0  0  0  0  0
   27.3571  -33.2313   -3.9210 O   0  0  0  0  0  0  0  0  0  0  0  0
   26.9514  -35.4600   -3.5373 N   0  0  0  0  0  0  0  0  0  0  0  0
   26.4676  -35.2501   -2.1734 C   0  0  1  0  0  0  0  0  0  0  0  0
   25.1119  -35.8978   -1.9876 C   0  0  0  0  0  0  0  0  0  0  0  0
   24.0293  -35.0582   -2.5532 C   0  0  0  0  0  0  0  0  0  0  0  0
   23.5412  -35.0948   -3.8629 C   0  0  0  0  0  0  0  0  0  0  0  0
   22.5590  -34.1901   -4.0128 N   0  0  0  0  0  0  0  0  0  0  0  0
   22.4146  -33.5784   -2.8183 C   0  0  0  0  0  0  0  0  0  0  0  0
   23.2939  -34.0976   -1.9457 N   0  0  0  0  0  0  0  0  0  0  0  0
   27.4511  -35.7137   -1.1787 C   0  0  0  0  0  0  0  0  0  0  0  0
   28.3034  -36.6010   -1.4215 O   0  0  0  0  0  0  0  0  0  0  0  0
   27.4827  -35.1727    0.1180 O   0  0  0  0  0  0  0  0  0  0  0  0
  2  1  1  0
  3  2  1  0
  4  3  2  0
  6  5  1  1
  6  7  1  0
  7  3  1  0
  8  6  1  0
  8  9  2  0
 10  8  1  0
 11 10  1  0
 12 13  1  0
 11 12  1  6
 13 14  2  0
 14 15  1  0
 16 15  1  0
 17 13  1  0
 17 16  2  0
 18 11  1  0
 19 18  2  0
 20 18  1  0
M  END
$$$$
