GAH.pdb
     RDKit          3D

 20 20  0  0  1  0  0  0  0  0999 V2000
   18.5876  -12.6079  -17.1750 N   0  0  0  0  0  0  0  0  0  0  0  0
   19.6657  -11.7263  -17.4964 C   0  0  0  0  0  0  0  0  0  0  0  0
   20.0489  -10.8602  -16.3317 C   0  0  0  0  0  0  0  0  0  0  0  0
   19.2040  -10.3027  -15.5963 O   0  0  0  0  0  0  0  0  0  0  0  0
   23.3089  -10.3074  -14.6454 C   0  0  0  0  0  0  0  0  0  0  0  0
   21.9170   -9.7937  -15.0246 C   0  0  2  0  0  0  0  0  0  0  0  0
   21.4120  -10.6569  -16.0414 N   0  0  0  0  0  0  0  0  0  0  0  0
   21.9331   -8.3811  -15.3653 C   0  0  0  0  0  0  0  0  0  0  0  0
   22.2958   -8.0064  -16.5000 O   0  0  0  0  0  0  0  0  0  0  0  0
   21.5373   -7.4144  -14.4136 N   0  0  0  0  0  0  0  0  0  0  0  0
   21.5165   -5.9820  -14.7068 C   0  0  1  0  0  0  0  0  0  0  0  0
   20.0912   -5.4924  -14.8513 C   0  0  0  0  0  0  0  0  0  0  0  0
   19.4752   -5.9838  -16.1067 C   0  0  0  0  0  0  0  0  0  0  0  0
   19.5949   -5.4106  -17.3763 C   0  0  0  0  0  0  0  0  0  0  0  0
   18.8991   -6.1301  -18.2729 N   0  0  0  0  0  0  0  0  0  0  0  0
   18.3384   -7.1524  -17.5930 C   0  0  0  0  0  0  0  0  0  0  0  0
   18.6830   -7.0648  -16.2977 N   0  0  0  0  0  0  0  0  0  0  0  0
   22.2720   -5.2176  -13.6986 C   0  0  0  0  0  0  0  0  0  0  0  0
   22.6573   -5.7122  -12.6125 O   0  0  0  0  0  0  0  0  0  0  0  0
   22.6048   -3.8685  -13.9093 O   0  0  0  0  0  0  0  0  0  0  0  0
  2  1  1  0
  3  2  1  0
  4  3  2  0
  6  5  1  6
  6  7  1  0
  7  3  1  0
  8  6  1  0
  8  9  2  0
 10  8  1  0
 11 10  1  0
 12 13  1  0
 11 12  1  1
 13 14  2  0
 14 15  1  0
 16 15  1  0
 17 13  1  0
 17 16  2  0
 18 11  1  0
 19 18  2  0
 20 18  1  0
M  END
$$$$
