GAH.pdb
     RDKit          3D

 20 20  0  0  1  0  0  0  0  0999 V2000
   39.3583   -8.2212  -10.9389 N   0  0  0  0  0  0  0  0  0  0  0  0
   38.0153   -8.1066  -11.4142 C   0  0  0  0  0  0  0  0  0  0  0  0
   37.9514   -7.4528  -12.7641 C   0  0  0  0  0  0  0  0  0  0  0  0
   38.9454   -6.9193  -13.3052 O   0  0  0  0  0  0  0  0  0  0  0  0
   35.4170   -7.6672  -15.4362 C   0  0  0  0  0  0  0  0  0  0  0  0
   36.5316   -6.8655  -14.7579 C   0  0  2  0  0  0  0  0  0  0  0  0
   36.7290   -7.4307  -13.4634 N   0  0  0  0  0  0  0  0  0  0  0  0
   36.2615   -5.4378  -14.7740 C   0  0  0  0  0  0  0  0  0  0  0  0
   36.4207   -4.7739  -15.8196 O   0  0  0  0  0  0  0  0  0  0  0  0
   35.8147   -4.7842  -13.6034 N   0  0  0  0  0  0  0  0  0  0  0  0
   35.5088   -3.3548  -13.5666 C   0  0  1  0  0  0  0  0  0  0  0  0
   34.0704   -3.1323  -13.1501 C   0  0  0  0  0  0  0  0  0  0  0  0
   33.1312   -3.4766  -14.2438 C   0  0  0  0  0  0  0  0  0  0  0  0
   33.4682   -3.9245  -15.5246 C   0  0  0  0  0  0  0  0  0  0  0  0
   32.3541   -4.1361  -16.2455 N   0  0  0  0  0  0  0  0  0  0  0  0
   31.3132   -3.8296  -15.4428 C   0  0  0  0  0  0  0  0  0  0  0  0
   31.7780   -3.4353  -14.2459 N   0  0  0  0  0  0  0  0  0  0  0  0
   36.4597   -2.6252  -12.7092 C   0  0  0  0  0  0  0  0  0  0  0  0
   37.0878   -3.1672  -11.7689 O   0  0  0  0  0  0  0  0  0  0  0  0
   36.7146   -1.2574  -12.9076 O   0  0  0  0  0  0  0  0  0  0  0  0
  2  1  1  0
  3  2  1  0
  4  3  2  0
  6  5  1  1
  6  7  1  0
  7  3  1  0
  8  6  1  0
  8  9  2  0
 10  8  1  0
 11 10  1  0
 12 13  1  0
 11 12  1  1
 13 14  2  0
 14 15  1  0
 16 15  1  0
 17 13  1  0
 17 16  2  0
 18 11  1  0
 19 18  2  0
 20 18  1  0
M  END
$$$$
