QFV.pdb
     RDKit          3D

 28 28  0  0  1  0  0  0  0  0999 V2000
   27.4798  -34.4337  -20.9639 N   0  0  0  0  0  0  0  0  0  0  0  0
   28.8818  -34.4542  -21.1493 C   0  0  0  0  0  0  0  0  0  0  0  0
   29.3973  -35.0882  -22.0954 O   0  0  0  0  0  0  0  0  0  0  0  0
   29.7256  -33.6815  -20.1598 C   0  0  0  0  0  0  0  0  0  0  0  0
   28.7972  -33.0654  -19.1613 C   0  0  0  0  0  0  0  0  0  0  0  0
   29.2341  -31.7490  -18.6451 C   0  0  2  0  0  0  0  0  0  0  0  0
   30.5389  -31.9056  -17.9423 N   0  0  0  0  0  0  0  0  0  0  0  0
   28.3642  -31.0012  -17.7701 C   0  0  0  0  0  0  0  0  0  0  0  0
   28.6657  -30.9356  -16.5294 O   0  0  0  0  0  0  0  0  0  0  0  0
   27.2130  -30.3388  -18.1885 N   0  0  0  0  0  0  0  0  0  0  0  0
   26.4092  -29.4754  -17.2814 C   0  0  1  0  0  0  0  0  0  0  0  0
   26.6030  -28.1043  -17.8096 C   0  0  0  0  0  0  0  0  0  0  0  0
   27.8926  -27.4662  -17.6504 C   0  0  0  0  0  0  0  0  0  0  0  0
   28.3403  -26.7981  -16.5299 C   0  0  0  0  0  0  0  0  0  0  0  0
   29.5693  -26.2295  -16.4261 C   0  0  0  0  0  0  0  0  0  0  0  0
   30.4602  -26.2887  -17.4602 C   0  0  0  0  0  0  0  0  0  0  0  0
   30.0544  -26.9537  -18.6156 C   0  0  0  0  0  0  0  0  0  0  0  0
   28.8064  -27.5248  -18.7044 C   0  0  0  0  0  0  0  0  0  0  0  0
   25.0272  -30.0025  -17.3511 C   0  0  0  0  0  0  0  0  0  0  0  0
   24.4599  -30.2884  -18.4641 O   0  0  0  0  0  0  0  0  0  0  0  0
   23.6370  -33.1127  -16.3347 C   0  0  0  0  0  0  0  0  0  0  0  0
   22.7135  -32.1281  -15.6762 C   0  0  1  0  0  0  0  0  0  0  0  0
   23.0333  -32.1083  -14.1984 C   0  0  0  0  0  0  0  0  0  0  0  0
   22.8425  -30.7590  -16.3228 C   0  0  2  0  0  0  0  0  0  0  0  0
   24.1933  -30.2511  -16.2185 N   0  0  0  0  0  0  0  0  0  0  0  0
   21.7942  -29.8287  -15.9124 C   0  0  0  0  0  0  0  0  0  0  0  0
   22.0760  -28.7731  -15.0405 O   0  0  0  0  0  0  0  0  0  0  0  0
   20.6086  -29.9234  -16.3102 O   0  0  0  0  0  0  0  0  0  0  0  0
  2  1  1  0
  3  2  2  0
  4  2  1  0
  5  4  1  0
  5  6  1  0
  6  8  1  0
  6  7  1  1
  8  9  2  0
 10 11  1  0
 10  8  1  0
 11 12  1  6
 13 12  1  0
 14 13  2  0
 15 14  1  0
 16 17  1  0
 16 15  2  0
 17 18  2  0
 18 13  1  0
 19 11  1  0
 20 19  2  0
 22 21  1  6
 23 22  1  0
 24 22  1  0
 24 25  1  1
 25 19  1  0
 26 27  1  0
 26 24  1  0
 28 26  2  0
M  END
$$$$
