QFV.pdb
     RDKit          3D

 28 28  0  0  1  0  0  0  0  0999 V2000
   26.6158  -22.2978  -18.0445 N   0  0  0  0  0  0  0  0  0  0  0  0
   26.5706  -23.5926  -18.6116 C   0  0  0  0  0  0  0  0  0  0  0  0
   27.2568  -23.8804  -19.6160 O   0  0  0  0  0  0  0  0  0  0  0  0
   25.6615  -24.6081  -17.9552 C   0  0  0  0  0  0  0  0  0  0  0  0
   25.0177  -23.9423  -16.7801 C   0  0  0  0  0  0  0  0  0  0  0  0
   25.8174  -23.9826  -15.5355 C   0  0  2  0  0  0  0  0  0  0  0  0
   26.0004  -25.4007  -15.1151 N   0  0  0  0  0  0  0  0  0  0  0  0
   25.3719  -23.2473  -14.3769 C   0  0  0  0  0  0  0  0  0  0  0  0
   24.5386  -23.8099  -13.5872 O   0  0  0  0  0  0  0  0  0  0  0  0
   25.7935  -21.9593  -14.0564 N   0  0  0  0  0  0  0  0  0  0  0  0
   25.2376  -21.1958  -12.9065 C   0  0  1  0  0  0  0  0  0  0  0  0
   26.3669  -20.3567  -12.4404 C   0  0  0  0  0  0  0  0  0  0  0  0
   26.9625  -20.6346  -11.1506 C   0  0  0  0  0  0  0  0  0  0  0  0
   26.3608  -20.4691   -9.9206 C   0  0  0  0  0  0  0  0  0  0  0  0
   26.9602  -20.7610   -8.7374 C   0  0  0  0  0  0  0  0  0  0  0  0
   28.2350  -21.2506   -8.6977 C   0  0  0  0  0  0  0  0  0  0  0  0
   28.8863  -21.4357   -9.9157 C   0  0  0  0  0  0  0  0  0  0  0  0
   28.2649  -21.1355  -11.1054 C   0  0  0  0  0  0  0  0  0  0  0  0
   24.0693  -20.4615  -13.4435 C   0  0  0  0  0  0  0  0  0  0  0  0
   24.0440  -19.9961  -14.6373 O   0  0  0  0  0  0  0  0  0  0  0  0
   19.9778  -20.9418  -15.0155 C   0  0  0  0  0  0  0  0  0  0  0  0
   21.2463  -21.2035  -14.2550 C   0  0  1  0  0  0  0  0  0  0  0  0
   22.3390  -21.4914  -15.2600 C   0  0  0  0  0  0  0  0  0  0  0  0
   21.5778  -20.0303  -13.3479 C   0  0  2  0  0  0  0  0  0  0  0  0
   22.8684  -20.1997  -12.7160 N   0  0  0  0  0  0  0  0  0  0  0  0
   20.4852  -19.6745  -12.4464 C   0  0  0  0  0  0  0  0  0  0  0  0
   19.5704  -18.6754  -12.7910 O   0  0  0  0  0  0  0  0  0  0  0  0
   20.3112  -20.2330  -11.3371 O   0  0  0  0  0  0  0  0  0  0  0  0
  2  1  1  0
  3  2  2  0
  4  2  1  0
  5  4  1  0
  5  6  1  0
  6  8  1  0
  6  7  1  1
  8  9  2  0
 10 11  1  0
 10  8  1  0
 11 12  1  6
 13 12  1  0
 14 13  2  0
 15 14  1  0
 16 17  1  0
 16 15  2  0
 17 18  2  0
 18 13  1  0
 19 11  1  0
 20 19  2  0
 22 21  1  6
 23 22  1  0
 24 22  1  0
 24 25  1  1
 25 19  1  0
 26 27  1  0
 26 24  1  0
 28 26  2  0
M  END
$$$$
