QFV.pdb
     RDKit          3D

 28 28  0  0  1  0  0  0  0  0999 V2000
   24.8546  -18.1089  -14.9752 N   0  0  0  0  0  0  0  0  0  0  0  0
   23.9529  -18.9997  -14.3478 C   0  0  0  0  0  0  0  0  0  0  0  0
   22.7240  -18.9326  -14.5664 O   0  0  0  0  0  0  0  0  0  0  0  0
   24.5354  -20.0305  -13.4063 C   0  0  0  0  0  0  0  0  0  0  0  0
   26.0105  -19.7906  -13.3332 C   0  0  0  0  0  0  0  0  0  0  0  0
   26.7757  -20.8624  -12.6582 C   0  0  2  0  0  0  0  0  0  0  0  0
   26.5123  -22.1597  -13.3429 N   0  0  0  0  0  0  0  0  0  0  0  0
   26.5998  -21.0823  -11.2433 C   0  0  0  0  0  0  0  0  0  0  0  0
   26.0741  -22.1840  -10.8632 O   0  0  0  0  0  0  0  0  0  0  0  0
   26.9693  -20.1714  -10.2568 N   0  0  0  0  0  0  0  0  0  0  0  0
   26.9021  -20.4898   -8.8047 C   0  0  1  0  0  0  0  0  0  0  0  0
   27.8756  -19.5640   -8.1788 C   0  0  0  0  0  0  0  0  0  0  0  0
   28.0533  -19.5979   -6.7425 C   0  0  0  0  0  0  0  0  0  0  0  0
   27.6232  -18.6441   -5.8438 C   0  0  0  0  0  0  0  0  0  0  0  0
   27.8018  -18.7323   -4.5004 C   0  0  0  0  0  0  0  0  0  0  0  0
   28.4392  -19.8059   -3.9455 C   0  0  0  0  0  0  0  0  0  0  0  0
   28.8930  -20.7976   -4.8130 C   0  0  0  0  0  0  0  0  0  0  0  0
   28.7036  -20.6933   -6.1712 C   0  0  0  0  0  0  0  0  0  0  0  0
   25.4863  -20.2920   -8.4188 C   0  0  0  0  0  0  0  0  0  0  0  0
   24.7638  -19.3613   -8.9231 O   0  0  0  0  0  0  0  0  0  0  0  0
   21.1793  -21.3762   -8.5494 C   0  0  0  0  0  0  0  0  0  0  0  0
   22.6747  -21.3927   -8.6886 C   0  0  1  0  0  0  0  0  0  0  0  0
   23.0524  -20.3923   -9.7579 C   0  0  0  0  0  0  0  0  0  0  0  0
   23.3393  -21.1029   -7.3531 C   0  0  2  0  0  0  0  0  0  0  0  0
   24.7814  -21.0957   -7.4716 N   0  0  0  0  0  0  0  0  0  0  0  0
   22.8086  -21.9126   -6.2596 C   0  0  0  0  0  0  0  0  0  0  0  0
   21.7743  -21.4327   -5.4511 O   0  0  0  0  0  0  0  0  0  0  0  0
   23.2423  -23.0582   -5.9908 O   0  0  0  0  0  0  0  0  0  0  0  0
  2  1  1  0
  3  2  2  0
  4  2  1  0
  5  4  1  0
  5  6  1  0
  6  8  1  0
  6  7  1  6
  8  9  2  0
 10 11  1  0
 10  8  1  0
 11 12  1  1
 13 12  1  0
 14 13  2  0
 15 14  1  0
 16 17  1  0
 16 15  2  0
 17 18  2  0
 18 13  1  0
 19 11  1  0
 20 19  2  0
 22 21  1  1
 23 22  1  0
 24 22  1  0
 24 25  1  6
 25 19  1  0
 26 27  1  0
 26 24  1  0
 28 26  2  0
M  END
$$$$
