QFV.pdb
     RDKit          3D

 28 28  0  0  1  0  0  0  0  0999 V2000
   18.8378   -8.9557  -13.3115 N   0  0  0  0  0  0  0  0  0  0  0  0
   18.5377  -10.0473  -14.1592 C   0  0  0  0  0  0  0  0  0  0  0  0
   19.4440  -10.7797  -14.6116 O   0  0  0  0  0  0  0  0  0  0  0  0
   17.0823  -10.2887  -14.4935 C   0  0  0  0  0  0  0  0  0  0  0  0
   16.2821   -9.2204  -13.8173 C   0  0  0  0  0  0  0  0  0  0  0  0
   15.9347   -9.5105  -12.4083 C   0  0  2  0  0  0  0  0  0  0  0  0
   14.9613  -10.6381  -12.3646 N   0  0  0  0  0  0  0  0  0  0  0  0
   15.4088   -8.4590  -11.5720 C   0  0  0  0  0  0  0  0  0  0  0  0
   14.1578   -8.2033  -11.6369 O   0  0  0  0  0  0  0  0  0  0  0  0
   16.1757   -7.7013  -10.6906 N   0  0  0  0  0  0  0  0  0  0  0  0
   15.6051   -6.5911   -9.8805 C   0  0  1  0  0  0  0  0  0  0  0  0
   15.5849   -7.1179   -8.4953 C   0  0  0  0  0  0  0  0  0  0  0  0
   14.3512   -7.6627   -7.9692 C   0  0  0  0  0  0  0  0  0  0  0  0
   13.9766   -8.9901   -7.9753 C   0  0  0  0  0  0  0  0  0  0  0  0
   12.8114   -9.4519   -7.4524 C   0  0  0  0  0  0  0  0  0  0  0  0
   11.9151   -8.5994   -6.8723 C   0  0  0  0  0  0  0  0  0  0  0  0
   12.2483   -7.2466   -6.8414 C   0  0  0  0  0  0  0  0  0  0  0  0
   13.4327   -6.7952   -7.3750 C   0  0  0  0  0  0  0  0  0  0  0  0
   16.4935   -5.4299  -10.1144 C   0  0  0  0  0  0  0  0  0  0  0  0
   17.7015   -5.5642  -10.5207 O   0  0  0  0  0  0  0  0  0  0  0  0
   15.6008   -3.1972  -12.7173 C   0  0  0  0  0  0  0  0  0  0  0  0
   16.9471   -3.1748  -12.0518 C   0  0  1  0  0  0  0  0  0  0  0  0
   17.7770   -2.1012  -12.7192 C   0  0  0  0  0  0  0  0  0  0  0  0
   16.8003   -2.9572  -10.5550 C   0  0  2  0  0  0  0  0  0  0  0  0
   16.1159   -4.0655   -9.9251 N   0  0  0  0  0  0  0  0  0  0  0  0
   16.2858   -1.6334  -10.2147 C   0  0  0  0  0  0  0  0  0  0  0  0
   17.1237   -0.5148  -10.2302 O   0  0  0  0  0  0  0  0  0  0  0  0
   15.0898   -1.4312   -9.8961 O   0  0  0  0  0  0  0  0  0  0  0  0
  2  1  1  0
  3  2  2  0
  4  2  1  0
  5  4  1  0
  5  6  1  0
  6  8  1  0
  6  7  1  6
  8  9  2  0
 10 11  1  0
 10  8  1  0
 11 12  1  1
 13 12  1  0
 14 13  2  0
 15 14  1  0
 16 17  1  0
 16 15  2  0
 17 18  2  0
 18 13  1  0
 19 11  1  0
 20 19  2  0
 22 21  1  6
 23 22  1  0
 24 22  1  0
 24 25  1  6
 25 19  1  0
 26 27  1  0
 26 24  1  0
 28 26  2  0
M  END
$$$$
