QFV.pdb
     RDKit          3D

 28 28  0  0  1  0  0  0  0  0999 V2000
   30.6242  -27.7313  -22.5965 N   0  0  0  0  0  0  0  0  0  0  0  0
   32.0263  -27.6860  -22.4171 C   0  0  0  0  0  0  0  0  0  0  0  0
   32.7582  -27.0622  -23.2157 O   0  0  0  0  0  0  0  0  0  0  0  0
   32.5991  -28.4206  -21.2252 C   0  0  0  0  0  0  0  0  0  0  0  0
   31.4492  -28.9574  -20.4324 C   0  0  0  0  0  0  0  0  0  0  0  0
   31.6861  -29.0251  -18.9732 C   0  0  2  0  0  0  0  0  0  0  0  0
   33.0965  -29.4366  -18.7231 N   0  0  0  0  0  0  0  0  0  0  0  0
   30.8448  -29.8611  -18.1517 C   0  0  0  0  0  0  0  0  0  0  0  0
   31.3678  -30.8890  -17.6000 O   0  0  0  0  0  0  0  0  0  0  0  0
   29.4937  -29.6208  -17.9145 N   0  0  0  0  0  0  0  0  0  0  0  0
   28.6866  -30.4399  -16.9702 C   0  0  1  0  0  0  0  0  0  0  0  0
   28.4344  -29.5375  -15.8218 C   0  0  0  0  0  0  0  0  0  0  0  0
   27.5527  -28.4034  -16.0005 C   0  0  0  0  0  0  0  0  0  0  0  0
   26.1771  -28.4149  -15.9013 C   0  0  0  0  0  0  0  0  0  0  0  0
   25.3956  -27.3159  -16.0628 C   0  0  0  0  0  0  0  0  0  0  0  0
   25.9463  -26.0973  -16.3423 C   0  0  0  0  0  0  0  0  0  0  0  0
   27.3341  -26.0337  -16.4526 C   0  0  0  0  0  0  0  0  0  0  0  0
   28.1113  -27.1560  -16.2858 C   0  0  0  0  0  0  0  0  0  0  0  0
   27.4891  -30.8618  -17.7321 C   0  0  0  0  0  0  0  0  0  0  0  0
   27.0345  -30.1851  -18.7209 O   0  0  0  0  0  0  0  0  0  0  0  0
   26.6435  -33.1571  -20.1958 C   0  0  0  0  0  0  0  0  0  0  0  0
   25.6722  -33.5194  -19.1090 C   0  0  1  0  0  0  0  0  0  0  0  0
   26.1822  -34.7700  -18.4286 C   0  0  0  0  0  0  0  0  0  0  0  0
   25.4914  -32.3591  -18.1446 C   0  0  2  0  0  0  0  0  0  0  0  0
   26.7280  -32.0404  -17.4643 N   0  0  0  0  0  0  0  0  0  0  0  0
   24.3250  -32.5083  -17.2784 C   0  0  0  0  0  0  0  0  0  0  0  0
   24.4759  -32.6908  -15.9009 O   0  0  0  0  0  0  0  0  0  0  0  0
   23.1489  -32.4821  -17.7131 O   0  0  0  0  0  0  0  0  0  0  0  0
  2  1  1  0
  3  2  2  0
  4  2  1  0
  5  4  1  0
  5  6  1  0
  6  8  1  0
  6  7  1  6
  8  9  2  0
 10 11  1  0
 10  8  1  0
 11 12  1  1
 13 12  1  0
 14 13  2  0
 15 14  1  0
 16 17  1  0
 16 15  2  0
 17 18  2  0
 18 13  1  0
 19 11  1  0
 20 19  2  0
 22 21  1  6
 23 22  1  0
 24 22  1  0
 24 25  1  1
 25 19  1  0
 26 27  1  0
 26 24  1  0
 28 26  2  0
M  END
$$$$
