QFV.pdb
     RDKit          3D

 28 28  0  0  1  0  0  0  0  0999 V2000
   25.2070  -18.2119  -17.4272 N   0  0  0  0  0  0  0  0  0  0  0  0
   26.3796  -18.4230  -18.1892 C   0  0  0  0  0  0  0  0  0  0  0  0
   26.4076  -18.1677  -19.4126 O   0  0  0  0  0  0  0  0  0  0  0  0
   27.5908  -18.9682  -17.4653 C   0  0  0  0  0  0  0  0  0  0  0  0
   27.2846  -18.9523  -16.0008 C   0  0  0  0  0  0  0  0  0  0  0  0
   27.7689  -20.1370  -15.2578 C   0  0  2  0  0  0  0  0  0  0  0  0
   28.1413  -21.2061  -16.2271 N   0  0  0  0  0  0  0  0  0  0  0  0
   26.9276  -20.7434  -14.2549 C   0  0  0  0  0  0  0  0  0  0  0  0
   25.6904  -20.9158  -14.5271 O   0  0  0  0  0  0  0  0  0  0  0  0
   27.3753  -21.1594  -13.0036 N   0  0  0  0  0  0  0  0  0  0  0  0
   26.4694  -21.2934  -11.8307 C   0  0  1  0  0  0  0  0  0  0  0  0
   27.2392  -20.7180  -10.7025 C   0  0  0  0  0  0  0  0  0  0  0  0
   26.5920  -20.5648   -9.4167 C   0  0  0  0  0  0  0  0  0  0  0  0
   25.3254  -20.9973   -9.0833 C   0  0  0  0  0  0  0  0  0  0  0  0
   24.7700  -20.8422   -7.8538 C   0  0  0  0  0  0  0  0  0  0  0  0
   25.4569  -20.2282   -6.8450 C   0  0  0  0  0  0  0  0  0  0  0  0
   26.7423  -19.7730   -7.1324 C   0  0  0  0  0  0  0  0  0  0  0  0
   27.2905  -19.9384   -8.3828 C   0  0  0  0  0  0  0  0  0  0  0  0
   25.2309  -20.5705  -12.1996 C   0  0  0  0  0  0  0  0  0  0  0  0
   25.1712  -19.2908  -12.2359 O   0  0  0  0  0  0  0  0  0  0  0  0
   20.9713  -19.8362  -14.3431 C   0  0  0  0  0  0  0  0  0  0  0  0
   22.2617  -20.5854  -14.1715 C   0  0  1  0  0  0  0  0  0  0  0  0
   23.2500  -20.0450  -15.1804 C   0  0  0  0  0  0  0  0  0  0  0  0
   22.7611  -20.4697  -12.7409 C   0  0  2  0  0  0  0  0  0  0  0  0
   23.9973  -21.1978  -12.5528 N   0  0  0  0  0  0  0  0  0  0  0  0
   21.7245  -20.7358  -11.7472 C   0  0  0  0  0  0  0  0  0  0  0  0
   21.0766  -19.6855  -11.0908 O   0  0  0  0  0  0  0  0  0  0  0  0
   21.3663  -21.8961  -11.4340 O   0  0  0  0  0  0  0  0  0  0  0  0
  2  1  1  0
  3  2  2  0
  4  2  1  0
  5  4  1  0
  5  6  1  0
  6  8  1  0
  6  7  1  6
  8  9  2  0
 10 11  1  0
 10  8  1  0
 11 12  1  1
 13 12  1  0
 14 13  2  0
 15 14  1  0
 16 17  1  0
 16 15  2  0
 17 18  2  0
 18 13  1  0
 19 11  1  0
 20 19  2  0
 22 21  1  1
 23 22  1  0
 24 22  1  0
 24 25  1  6
 25 19  1  0
 26 27  1  0
 26 24  1  0
 28 26  2  0
M  END
$$$$
