QFV.pdb
     RDKit          3D

 28 28  0  0  1  0  0  0  0  0999 V2000
   20.3314   -9.1950  -14.4436 N   0  0  0  0  0  0  0  0  0  0  0  0
   20.5419   -9.8447  -15.6820 C   0  0  0  0  0  0  0  0  0  0  0  0
   21.6649  -10.3007  -15.9877 O   0  0  0  0  0  0  0  0  0  0  0  0
   19.3574   -9.9631  -16.6155 C   0  0  0  0  0  0  0  0  0  0  0  0
   18.2097   -9.2439  -15.9796 C   0  0  0  0  0  0  0  0  0  0  0  0
   17.4511  -10.0458  -14.9938 C   0  0  2  0  0  0  0  0  0  0  0  0
   16.7330  -11.1431  -15.7018 N   0  0  0  0  0  0  0  0  0  0  0  0
   16.4950   -9.3966  -14.1302 C   0  0  0  0  0  0  0  0  0  0  0  0
   15.3293   -9.1517  -14.5946 O   0  0  0  0  0  0  0  0  0  0  0  0
   16.7563   -9.0193  -12.8154 N   0  0  0  0  0  0  0  0  0  0  0  0
   15.7354   -8.3710  -11.9485 C   0  0  1  0  0  0  0  0  0  0  0  0
   15.5803   -9.2994  -10.8036 C   0  0  0  0  0  0  0  0  0  0  0  0
   14.6721   -8.9479   -9.7326 C   0  0  0  0  0  0  0  0  0  0  0  0
   13.3033   -9.1171   -9.7341 C   0  0  0  0  0  0  0  0  0  0  0  0
   12.4966   -8.7843   -8.6935 C   0  0  0  0  0  0  0  0  0  0  0  0
   13.0126   -8.2449   -7.5493 C   0  0  0  0  0  0  0  0  0  0  0  0
   14.3921   -8.0540   -7.4987 C   0  0  0  0  0  0  0  0  0  0  0  0
   15.1952   -8.3969   -8.5612 C   0  0  0  0  0  0  0  0  0  0  0  0
   16.2808   -7.0334  -11.6229 C   0  0  0  0  0  0  0  0  0  0  0  0
   17.5280   -6.8391  -11.4013 O   0  0  0  0  0  0  0  0  0  0  0  0
   16.1637   -3.8476  -13.5046 C   0  0  0  0  0  0  0  0  0  0  0  0
   15.7036   -3.4709  -12.1253 C   0  0  1  0  0  0  0  0  0  0  0  0
   14.2181   -3.1954  -12.1906 C   0  0  0  0  0  0  0  0  0  0  0  0
   16.0546   -4.5623  -11.1278 C   0  0  2  0  0  0  0  0  0  0  0  0
   15.5032   -5.8392  -11.5267 N   0  0  0  0  0  0  0  0  0  0  0  0
   15.7974   -4.1786   -9.7424 C   0  0  0  0  0  0  0  0  0  0  0  0
   16.6739   -3.3292   -9.0611 O   0  0  0  0  0  0  0  0  0  0  0  0
   14.7981   -4.5816   -9.1007 O   0  0  0  0  0  0  0  0  0  0  0  0
  2  1  1  0
  3  2  2  0
  4  2  1  0
  5  4  1  0
  5  6  1  0
  6  8  1  0
  6  7  1  6
  8  9  2  0
 10 11  1  0
 10  8  1  0
 11 12  1  1
 13 12  1  0
 14 13  2  0
 15 14  1  0
 16 17  1  0
 16 15  2  0
 17 18  2  0
 18 13  1  0
 19 11  1  0
 20 19  2  0
 22 21  1  6
 23 22  1  0
 24 22  1  0
 24 25  1  6
 25 19  1  0
 26 27  1  0
 26 24  1  0
 28 26  2  0
M  END
$$$$
