QFV.pdb
     RDKit          3D

 28 28  0  0  1  0  0  0  0  0999 V2000
   29.1239  -19.0266  -18.5807 N   0  0  0  0  0  0  0  0  0  0  0  0
   27.9577  -19.7773  -18.8576 C   0  0  0  0  0  0  0  0  0  0  0  0
   26.8347  -19.2301  -18.9021 O   0  0  0  0  0  0  0  0  0  0  0  0
   28.1263  -21.2617  -19.0956 C   0  0  0  0  0  0  0  0  0  0  0  0
   27.3867  -21.9782  -18.0100 C   0  0  0  0  0  0  0  0  0  0  0  0
   28.0215  -21.8970  -16.6756 C   0  0  2  0  0  0  0  0  0  0  0  0
   29.0438  -22.9743  -16.5518 N   0  0  0  0  0  0  0  0  0  0  0  0
   27.2005  -21.9483  -15.4904 C   0  0  0  0  0  0  0  0  0  0  0  0
   26.8511  -23.0951  -15.0460 O   0  0  0  0  0  0  0  0  0  0  0  0
   26.7627  -20.8264  -14.7912 N   0  0  0  0  0  0  0  0  0  0  0  0
   26.0278  -20.9213  -13.5007 C   0  0  1  0  0  0  0  0  0  0  0  0
   26.7732  -20.0256  -12.5850 C   0  0  0  0  0  0  0  0  0  0  0  0
   27.8375  -20.5783  -11.7743 C   0  0  0  0  0  0  0  0  0  0  0  0
   29.1566  -20.7267  -12.1490 C   0  0  0  0  0  0  0  0  0  0  0  0
   30.1216  -21.2379  -11.3417 C   0  0  0  0  0  0  0  0  0  0  0  0
   29.8304  -21.6480  -10.0715 C   0  0  0  0  0  0  0  0  0  0  0  0
   28.5099  -21.5184   -9.6455 C   0  0  0  0  0  0  0  0  0  0  0  0
   27.5444  -20.9981  -10.4754 C   0  0  0  0  0  0  0  0  0  0  0  0
   24.6360  -20.5173  -13.8044 C   0  0  0  0  0  0  0  0  0  0  0  0
   24.3596  -19.4313  -14.4262 O   0  0  0  0  0  0  0  0  0  0  0  0
   20.0800  -21.1778  -15.0874 C   0  0  0  0  0  0  0  0  0  0  0  0
   21.4317  -21.7263  -14.7297 C   0  0  1  0  0  0  0  0  0  0  0  0
   22.2205  -21.8880  -16.0096 C   0  0  0  0  0  0  0  0  0  0  0  0
   22.1256  -20.8241  -13.7229 C   0  0  2  0  0  0  0  0  0  0  0  0
   23.4751  -21.2722  -13.4547 N   0  0  0  0  0  0  0  0  0  0  0  0
   21.3135  -20.5517  -12.5400 C   0  0  0  0  0  0  0  0  0  0  0  0
   20.4978  -19.4184  -12.4781 O   0  0  0  0  0  0  0  0  0  0  0  0
   21.3034  -21.3029  -11.5358 O   0  0  0  0  0  0  0  0  0  0  0  0
  2  1  1  0
  3  2  2  0
  4  2  1  0
  5  4  1  0
  5  6  1  0
  6  8  1  0
  6  7  1  1
  8  9  2  0
 10 11  1  0
 10  8  1  0
 11 12  1  1
 13 12  1  0
 14 13  2  0
 15 14  1  0
 16 17  1  0
 16 15  2  0
 17 18  2  0
 18 13  1  0
 19 11  1  0
 20 19  2  0
 22 21  1  6
 23 22  1  0
 24 22  1  0
 24 25  1  1
 25 19  1  0
 26 27  1  0
 26 24  1  0
 28 26  2  0
M  END
$$$$
