QFV.pdb
     RDKit          3D

 28 28  0  0  1  0  0  0  0  0999 V2000
   28.1537  -18.4483  -17.1039 N   0  0  0  0  0  0  0  0  0  0  0  0
   28.6770  -18.8136  -18.3660 C   0  0  0  0  0  0  0  0  0  0  0  0
   29.5425  -18.1116  -18.9323 O   0  0  0  0  0  0  0  0  0  0  0  0
   28.1475  -20.0820  -18.9979 C   0  0  0  0  0  0  0  0  0  0  0  0
   27.2315  -20.7295  -18.0076 C   0  0  0  0  0  0  0  0  0  0  0  0
   27.9145  -21.3424  -16.8466 C   0  0  2  0  0  0  0  0  0  0  0  0
   28.5762  -22.6065  -17.2773 N   0  0  0  0  0  0  0  0  0  0  0  0
   27.1629  -21.6390  -15.6514 C   0  0  0  0  0  0  0  0  0  0  0  0
   26.4328  -22.6885  -15.6410 O   0  0  0  0  0  0  0  0  0  0  0  0
   27.1815  -20.8565  -14.4996 N   0  0  0  0  0  0  0  0  0  0  0  0
   26.3673  -21.1795  -13.2967 C   0  0  1  0  0  0  0  0  0  0  0  0
   27.1150  -20.5710  -12.1709 C   0  0  0  0  0  0  0  0  0  0  0  0
   26.4822  -20.4866  -10.8718 C   0  0  0  0  0  0  0  0  0  0  0  0
   25.9810  -19.3459  -10.2802 C   0  0  0  0  0  0  0  0  0  0  0  0
   25.3804  -19.3241   -9.0623 C   0  0  0  0  0  0  0  0  0  0  0  0
   25.2346  -20.4685   -8.3304 C   0  0  0  0  0  0  0  0  0  0  0  0
   25.7253  -21.6487   -8.8857 C   0  0  0  0  0  0  0  0  0  0  0  0
   26.3307  -21.6537  -10.1206 C   0  0  0  0  0  0  0  0  0  0  0  0
   25.0255  -20.6113  -13.5597 C   0  0  0  0  0  0  0  0  0  0  0  0
   24.8641  -19.4739  -14.1277 O   0  0  0  0  0  0  0  0  0  0  0  0
   22.9002  -20.7123  -15.9040 C   0  0  0  0  0  0  0  0  0  0  0  0
   21.9301  -21.0424  -14.8059 C   0  0  1  0  0  0  0  0  0  0  0  0
   21.6133  -22.5184  -14.8945 C   0  0  0  0  0  0  0  0  0  0  0  0
   22.4976  -20.6444  -13.4535 C   0  0  2  0  0  0  0  0  0  0  0  0
   23.7921  -21.2492  -13.2255 N   0  0  0  0  0  0  0  0  0  0  0  0
   21.5393  -20.7944  -12.3617 C   0  0  0  0  0  0  0  0  0  0  0  0
   20.4728  -19.9024  -12.2186 O   0  0  0  0  0  0  0  0  0  0  0  0
   21.6187  -21.7117  -11.5101 O   0  0  0  0  0  0  0  0  0  0  0  0
  2  1  1  0
  3  2  2  0
  4  2  1  0
  5  4  1  0
  5  6  1  0
  6  8  1  0
  6  7  1  6
  8  9  2  0
 10 11  1  0
 10  8  1  0
 11 12  1  1
 13 12  1  0
 14 13  2  0
 15 14  1  0
 16 17  1  0
 16 15  2  0
 17 18  2  0
 18 13  1  0
 19 11  1  0
 20 19  2  0
 22 21  1  6
 23 22  1  0
 24 22  1  0
 24 25  1  1
 25 19  1  0
 26 27  1  0
 26 24  1  0
 28 26  2  0
M  END
$$$$
