SMW.pdb
     RDKit          3D

 29 30  0  0  1  0  0  0  0  0999 V2000
   19.6335  -11.2327  -16.2823 O   0  0  0  0  0  0  0  0  0  0  0  0
   19.8029  -10.7445  -14.9981 C   0  0  0  0  0  0  0  0  0  0  0  0
   20.7514   -9.5806  -15.0409 C   0  0  2  0  0  0  0  0  0  0  0  0
   22.1163  -10.0575  -14.7753 N   0  0  0  0  0  0  0  0  0  0  0  0
   20.3940   -8.6146  -13.9875 C   0  0  0  0  0  0  0  0  0  0  0  0
   20.5468   -8.9729  -12.7719 O   0  0  0  0  0  0  0  0  0  0  0  0
   22.6081   -2.4868  -15.1190 C   0  0  0  0  0  0  0  0  0  0  0  0
   20.9676   -2.9240  -14.5084 S   0  0  0  0  0  0  0  0  0  0  0  0
   20.9466   -4.5973  -13.8483 C   0  0  0  0  0  0  0  0  0  0  0  0
   19.5378   -5.0135  -13.4587 C   0  0  0  0  0  0  0  0  0  0  0  0
   19.5563   -6.4887  -13.0721 C   0  0  2  0  0  0  0  0  0  0  0  0
   19.8920   -7.3117  -14.2111 N   0  0  0  0  0  0  0  0  0  0  0  0
   18.2221   -6.8419  -12.5116 C   0  0  0  0  0  0  0  0  0  0  0  0
   17.3270   -7.1935  -13.3318 O   0  0  0  0  0  0  0  0  0  0  0  0
   17.9658   -6.7865  -11.1172 N   0  0  0  0  0  0  0  0  0  0  0  0
   16.5997   -7.0606  -10.6737 C   0  0  1  0  0  0  0  0  0  0  0  0
   16.5773   -7.5161   -9.2648 C   0  0  0  0  0  0  0  0  0  0  0  0
   15.2277   -7.8212   -8.7785 C   0  0  0  0  0  0  0  0  0  0  0  0
   14.4942   -8.9965   -8.9965 C   0  0  0  0  0  0  0  0  0  0  0  0
   13.2897   -8.8803   -8.4317 N   0  0  0  0  0  0  0  0  0  0  0  0
   13.1599   -7.6867   -7.8369 C   0  0  0  0  0  0  0  0  0  0  0  0
   12.1058   -7.1249   -7.1116 C   0  0  0  0  0  0  0  0  0  0  0  0
   12.3108   -5.8627   -6.6034 C   0  0  0  0  0  0  0  0  0  0  0  0
   13.4881   -5.1748   -6.7906 C   0  0  0  0  0  0  0  0  0  0  0  0
   14.5019   -5.7504   -7.5061 C   0  0  0  0  0  0  0  0  0  0  0  0
   14.3590   -7.0190   -8.0454 C   0  0  0  0  0  0  0  0  0  0  0  0
   15.7852   -5.8788  -10.9272 C   0  0  0  0  0  0  0  0  0  0  0  0
   16.3031   -4.7149  -10.7748 O   0  0  0  0  0  0  0  0  0  0  0  0
   14.4429   -5.9221  -11.3437 O   0  0  0  0  0  0  0  0  0  0  0  0
  1  2  1  0
  3  2  1  0
  3  5  1  0
  3  4  1  1
  5  6  2  0
  8  7  1  0
  9 10  1  0
  9  8  1  0
 11 10  1  6
 12  5  1  0
 12 11  1  0
 13 11  1  0
 13 14  2  0
 15 13  1  0
 16 15  1  0
 16 27  1  0
 16 17  1  1
 18 17  1  0
 19 18  2  0
 20 21  1  0
 20 19  1  0
 21 26  2  0
 22 23  2  0
 22 21  1  0
 23 24  1  0
 24 25  2  0
 26 18  1  0
 26 25  1  0
 27 28  2  0
 27 29  1  0
M  END
$$$$
