SMW.pdb
     RDKit          3D

 29 30  0  0  1  0  0  0  0  0999 V2000
   31.3006  -21.0297  -19.0685 O   0  0  0  0  0  0  0  0  0  0  0  0
   30.7104  -22.2805  -19.0097 C   0  0  0  0  0  0  0  0  0  0  0  0
   30.9235  -22.8553  -17.6384 C   0  0  2  0  0  0  0  0  0  0  0  0
   31.3171  -24.2664  -17.7601 N   0  0  0  0  0  0  0  0  0  0  0  0
   29.6624  -22.7985  -16.8788 C   0  0  0  0  0  0  0  0  0  0  0  0
   28.7720  -23.6770  -17.1333 O   0  0  0  0  0  0  0  0  0  0  0  0
   25.0176  -20.5536  -10.9379 C   0  0  0  0  0  0  0  0  0  0  0  0
   26.6402  -20.3936  -11.7104 S   0  0  0  0  0  0  0  0  0  0  0  0
   26.6865  -21.2333  -13.3006 C   0  0  0  0  0  0  0  0  0  0  0  0
   28.0897  -21.2218  -13.8842 C   0  0  0  0  0  0  0  0  0  0  0  0
   28.0514  -21.8891  -15.2551 C   0  0  2  0  0  0  0  0  0  0  0  0
   29.3524  -21.8449  -15.8818 N   0  0  0  0  0  0  0  0  0  0  0  0
   27.0188  -21.2026  -16.0806 C   0  0  0  0  0  0  0  0  0  0  0  0
   27.3381  -20.0951  -16.5991 O   0  0  0  0  0  0  0  0  0  0  0  0
   25.7318  -21.7668  -16.2771 N   0  0  0  0  0  0  0  0  0  0  0  0
   24.8262  -21.0721  -17.1912 C   0  0  1  0  0  0  0  0  0  0  0  0
   25.0880  -21.4576  -18.5969 C   0  0  0  0  0  0  0  0  0  0  0  0
   24.1757  -20.8170  -19.5501 C   0  0  0  0  0  0  0  0  0  0  0  0
   23.7921  -19.4684  -19.5800 C   0  0  0  0  0  0  0  0  0  0  0  0
   22.9142  -19.2776  -20.5680 N   0  0  0  0  0  0  0  0  0  0  0  0
   22.6770  -20.4252  -21.2176 C   0  0  0  0  0  0  0  0  0  0  0  0
   21.8617  -20.7150  -22.3150 C   0  0  0  0  0  0  0  0  0  0  0  0
   21.8658  -22.0174  -22.7592 C   0  0  0  0  0  0  0  0  0  0  0  0
   22.6282  -22.9968  -22.1644 C   0  0  0  0  0  0  0  0  0  0  0  0
   23.4157  -22.6830  -21.0909 C   0  0  0  0  0  0  0  0  0  0  0  0
   23.4562  -21.3900  -20.5939 C   0  0  0  0  0  0  0  0  0  0  0  0
   23.4561  -21.3124  -16.7563 C   0  0  0  0  0  0  0  0  0  0  0  0
   23.1611  -22.4299  -16.1991 O   0  0  0  0  0  0  0  0  0  0  0  0
   22.4101  -20.3837  -16.8997 O   0  0  0  0  0  0  0  0  0  0  0  0
  1  2  1  0
  3  2  1  0
  3  5  1  0
  3  4  1  6
  5  6  2  0
  8  7  1  0
  9 10  1  0
  9  8  1  0
 11 10  1  1
 12  5  1  0
 12 11  1  0
 13 11  1  0
 13 14  2  0
 15 13  1  0
 16 15  1  0
 16 27  1  0
 16 17  1  6
 18 17  1  0
 19 18  2  0
 20 21  1  0
 20 19  1  0
 21 26  2  0
 22 23  2  0
 22 21  1  0
 23 24  1  0
 24 25  2  0
 26 18  1  0
 26 25  1  0
 27 28  2  0
 27 29  1  0
M  END
$$$$
