SMW.pdb
     RDKit          3D

 29 30  0  0  1  0  0  0  0  0999 V2000
   30.3606  -24.5797  -17.1933 O   0  0  0  0  0  0  0  0  0  0  0  0
   30.3946  -23.3235  -16.6129 C   0  0  0  0  0  0  0  0  0  0  0  0
   29.5263  -22.3943  -17.4123 C   0  0  2  0  0  0  0  0  0  0  0  0
   30.3741  -21.5682  -18.2839 N   0  0  0  0  0  0  0  0  0  0  0  0
   28.7976  -21.4947  -16.5011 C   0  0  0  0  0  0  0  0  0  0  0  0
   29.3679  -20.4068  -16.1537 O   0  0  0  0  0  0  0  0  0  0  0  0
   25.2311  -17.3614  -18.9318 C   0  0  0  0  0  0  0  0  0  0  0  0
   24.7289  -18.3493  -17.5081 S   0  0  0  0  0  0  0  0  0  0  0  0
   26.1413  -19.1792  -16.7645 C   0  0  0  0  0  0  0  0  0  0  0  0
   25.7005  -20.1218  -15.6569 C   0  0  0  0  0  0  0  0  0  0  0  0
   26.9391  -20.7776  -15.0552 C   0  0  2  0  0  0  0  0  0  0  0  0
   27.5078  -21.7362  -15.9745 N   0  0  0  0  0  0  0  0  0  0  0  0
   26.5512  -21.4143  -13.7656 C   0  0  0  0  0  0  0  0  0  0  0  0
   26.9947  -22.5762  -13.5400 O   0  0  0  0  0  0  0  0  0  0  0  0
   25.7198  -20.7462  -12.8298 N   0  0  0  0  0  0  0  0  0  0  0  0
   25.5062  -21.3957  -11.5373 C   0  0  1  0  0  0  0  0  0  0  0  0
   26.7739  -21.5068  -10.7800 C   0  0  0  0  0  0  0  0  0  0  0  0
   26.7874  -20.6988   -9.5560 C   0  0  0  0  0  0  0  0  0  0  0  0
   25.7638  -19.8676   -9.0784 C   0  0  0  0  0  0  0  0  0  0  0  0
   26.1673  -19.2645   -7.9573 N   0  0  0  0  0  0  0  0  0  0  0  0
   27.4140  -19.6400   -7.6412 C   0  0  0  0  0  0  0  0  0  0  0  0
   28.2381  -19.2975   -6.5658 C   0  0  0  0  0  0  0  0  0  0  0  0
   29.4778  -19.8933   -6.5249 C   0  0  0  0  0  0  0  0  0  0  0  0
   29.9002  -20.7833   -7.4861 C   0  0  0  0  0  0  0  0  0  0  0  0
   29.0715  -21.0983   -8.5277 C   0  0  0  0  0  0  0  0  0  0  0  0
   27.8103  -20.5324   -8.6279 C   0  0  0  0  0  0  0  0  0  0  0  0
   24.4534  -20.6796  -10.8282 C   0  0  0  0  0  0  0  0  0  0  0  0
   24.2186  -19.4535  -11.1245 O   0  0  0  0  0  0  0  0  0  0  0  0
   23.6517  -21.2502   -9.8237 O   0  0  0  0  0  0  0  0  0  0  0  0
  1  2  1  0
  3  2  1  0
  3  5  1  0
  3  4  1  6
  5  6  2  0
  8  7  1  0
  9 10  1  0
  9  8  1  0
 11 10  1  6
 12  5  1  0
 12 11  1  0
 13 11  1  0
 13 14  2  0
 15 13  1  0
 16 15  1  0
 16 27  1  0
 16 17  1  1
 18 17  1  0
 19 18  2  0
 20 21  1  0
 20 19  1  0
 21 26  2  0
 22 23  2  0
 22 21  1  0
 23 24  1  0
 24 25  2  0
 26 18  1  0
 26 25  1  0
 27 28  2  0
 27 29  1  0
M  END
$$$$
