SMW.pdb
     RDKit          3D

 29 30  0  0  1  0  0  0  0  0999 V2000
   28.0396  -18.8303  -16.0524 O   0  0  0  0  0  0  0  0  0  0  0  0
   27.0476  -19.6598  -15.5583 C   0  0  0  0  0  0  0  0  0  0  0  0
   27.6697  -20.6630  -14.6295 C   0  0  2  0  0  0  0  0  0  0  0  0
   28.0544  -21.8582  -15.3941 N   0  0  0  0  0  0  0  0  0  0  0  0
   26.6843  -21.0708  -13.6130 C   0  0  0  0  0  0  0  0  0  0  0  0
   25.8541  -21.9901  -13.9212 O   0  0  0  0  0  0  0  0  0  0  0  0
   28.4564  -20.2478   -7.0812 C   0  0  0  0  0  0  0  0  0  0  0  0
   26.8818  -19.8159   -7.8489 S   0  0  0  0  0  0  0  0  0  0  0  0
   26.7047  -20.6084   -9.4543 C   0  0  0  0  0  0  0  0  0  0  0  0
   25.4660  -20.1065  -10.1778 C   0  0  0  0  0  0  0  0  0  0  0  0
   25.3884  -20.7895  -11.5393 C   0  0  2  0  0  0  0  0  0  0  0  0
   26.5798  -20.5255  -12.3125 N   0  0  0  0  0  0  0  0  0  0  0  0
   24.1624  -20.3076  -12.2348 C   0  0  0  0  0  0  0  0  0  0  0  0
   24.2603  -19.2377  -12.9006 O   0  0  0  0  0  0  0  0  0  0  0  0
   22.9369  -21.0182  -12.1542 N   0  0  0  0  0  0  0  0  0  0  0  0
   21.9133  -20.7073  -13.1510 C   0  0  1  0  0  0  0  0  0  0  0  0
   22.4352  -20.8858  -14.5253 C   0  0  0  0  0  0  0  0  0  0  0  0
   21.4358  -20.6087  -15.5625 C   0  0  0  0  0  0  0  0  0  0  0  0
   20.8160  -19.3806  -15.8351 C   0  0  0  0  0  0  0  0  0  0  0  0
   19.9319  -19.5383  -16.8234 N   0  0  0  0  0  0  0  0  0  0  0  0
   19.9143  -20.8105  -17.2431 C   0  0  0  0  0  0  0  0  0  0  0  0
   19.1799  -21.4417  -18.2507 C   0  0  0  0  0  0  0  0  0  0  0  0
   19.4247  -22.7818  -18.4448 C   0  0  0  0  0  0  0  0  0  0  0  0
   20.3427  -23.4800  -17.6937 C   0  0  0  0  0  0  0  0  0  0  0  0
   21.0458  -22.8351  -16.7135 C   0  0  0  0  0  0  0  0  0  0  0  0
   20.8459  -21.4861  -16.4667 C   0  0  0  0  0  0  0  0  0  0  0  0
   20.7273  -21.5028  -12.8598 C   0  0  0  0  0  0  0  0  0  0  0  0
   20.8661  -22.7182  -12.4728 O   0  0  0  0  0  0  0  0  0  0  0  0
   19.4104  -21.0218  -12.9675 O   0  0  0  0  0  0  0  0  0  0  0  0
  1  2  1  0
  3  2  1  0
  3  5  1  0
  3  4  1  6
  5  6  2  0
  8  7  1  0
  9 10  1  0
  9  8  1  0
 11 10  1  1
 12  5  1  0
 12 11  1  0
 13 11  1  0
 13 14  2  0
 15 13  1  0
 16 15  1  0
 16 27  1  0
 16 17  1  6
 18 17  1  0
 19 18  2  0
 20 21  1  0
 20 19  1  0
 21 26  2  0
 22 23  2  0
 22 21  1  0
 23 24  1  0
 24 25  2  0
 26 18  1  0
 26 25  1  0
 27 28  2  0
 27 29  1  0
M  END
$$$$
