SMW.pdb
     RDKit          3D

 29 30  0  0  1  0  0  0  0  0999 V2000
   28.1047  -18.5689  -14.3309 O   0  0  0  0  0  0  0  0  0  0  0  0
   27.1743  -19.5432  -14.0126 C   0  0  0  0  0  0  0  0  0  0  0  0
   27.8945  -20.7477  -13.4771 C   0  0  2  0  0  0  0  0  0  0  0  0
   27.8350  -21.8296  -14.4707 N   0  0  0  0  0  0  0  0  0  0  0  0
   27.2251  -21.2179  -12.2518 C   0  0  0  0  0  0  0  0  0  0  0  0
   26.1752  -21.9321  -12.3816 O   0  0  0  0  0  0  0  0  0  0  0  0
   28.7239  -20.3573   -5.7707 C   0  0  0  0  0  0  0  0  0  0  0  0
   26.9412  -20.0978   -5.8696 S   0  0  0  0  0  0  0  0  0  0  0  0
   26.2875  -20.6821   -7.4405 C   0  0  0  0  0  0  0  0  0  0  0  0
   27.2844  -20.4565   -8.5652 C   0  0  0  0  0  0  0  0  0  0  0  0
   26.6810  -20.9844   -9.8626 C   0  0  2  0  0  0  0  0  0  0  0  0
   27.6516  -20.9430  -10.9320 N   0  0  0  0  0  0  0  0  0  0  0  0
   25.4746  -20.1710  -10.1820 C   0  0  0  0  0  0  0  0  0  0  0  0
   25.6676  -19.0053  -10.6307 O   0  0  0  0  0  0  0  0  0  0  0  0
   24.1647  -20.6817   -9.9913 N   0  0  0  0  0  0  0  0  0  0  0  0
   23.1293  -20.2413  -10.9252 C   0  0  1  0  0  0  0  0  0  0  0  0
   23.5259  -20.5091  -12.3266 C   0  0  0  0  0  0  0  0  0  0  0  0
   22.4970  -20.1287  -13.3001 C   0  0  0  0  0  0  0  0  0  0  0  0
   21.9230  -18.8610  -13.4742 C   0  0  0  0  0  0  0  0  0  0  0  0
   20.9913  -18.9219  -14.4289 N   0  0  0  0  0  0  0  0  0  0  0  0
   20.8976  -20.1654  -14.9190 C   0  0  0  0  0  0  0  0  0  0  0  0
   20.0928  -20.7039  -15.9266 C   0  0  0  0  0  0  0  0  0  0  0  0
   20.2674  -22.0396  -16.2073 C   0  0  0  0  0  0  0  0  0  0  0  0
   21.1836  -22.8198  -15.5393 C   0  0  0  0  0  0  0  0  0  0  0  0
   21.9567  -22.2646  -14.5569 C   0  0  0  0  0  0  0  0  0  0  0  0
   21.8295  -20.9251  -14.2250 C   0  0  0  0  0  0  0  0  0  0  0  0
   21.8659  -20.8571  -10.5391 C   0  0  0  0  0  0  0  0  0  0  0  0
   20.7795  -20.1836  -10.6499 O   0  0  0  0  0  0  0  0  0  0  0  0
   21.7470  -22.1697  -10.0492 O   0  0  0  0  0  0  0  0  0  0  0  0
  1  2  1  0
  3  2  1  0
  3  5  1  0
  3  4  1  6
  5  6  2  0
  8  7  1  0
  9 10  1  0
  9  8  1  0
 11 10  1  1
 12  5  1  0
 12 11  1  0
 13 11  1  0
 13 14  2  0
 15 13  1  0
 16 15  1  0
 16 27  1  0
 16 17  1  6
 18 17  1  0
 19 18  2  0
 20 21  1  0
 20 19  1  0
 21 26  2  0
 22 23  2  0
 22 21  1  0
 23 24  1  0
 24 25  2  0
 26 18  1  0
 26 25  1  0
 27 28  2  0
 27 29  1  0
M  END
$$$$
