SMW.pdb
     RDKit          3D

 29 30  0  0  1  0  0  0  0  0999 V2000
   27.2200  -24.3239  -17.4325 O   0  0  0  0  0  0  0  0  0  0  0  0
   28.0466  -23.3478  -17.9617 C   0  0  0  0  0  0  0  0  0  0  0  0
   28.9314  -22.8153  -16.8709 C   0  0  2  0  0  0  0  0  0  0  0  0
   29.6390  -23.9339  -16.2313 N   0  0  0  0  0  0  0  0  0  0  0  0
   28.1059  -22.1533  -15.8458 C   0  0  0  0  0  0  0  0  0  0  0  0
   28.6269  -21.9525  -14.6979 O   0  0  0  0  0  0  0  0  0  0  0  0
   27.3920  -15.1355  -14.9662 C   0  0  0  0  0  0  0  0  0  0  0  0
   27.7588  -16.6288  -15.9099 S   0  0  0  0  0  0  0  0  0  0  0  0
   26.7891  -18.0238  -15.3181 C   0  0  0  0  0  0  0  0  0  0  0  0
   27.2074  -19.3119  -16.0076 C   0  0  0  0  0  0  0  0  0  0  0  0
   26.3673  -20.4564  -15.4503 C   0  0  2  0  0  0  0  0  0  0  0  0
   26.7733  -21.7170  -16.0276 N   0  0  0  0  0  0  0  0  0  0  0  0
   24.9334  -20.1609  -15.7254 C   0  0  0  0  0  0  0  0  0  0  0  0
   24.5913  -20.0429  -16.9364 O   0  0  0  0  0  0  0  0  0  0  0  0
   23.9913  -20.0179  -14.6742 N   0  0  0  0  0  0  0  0  0  0  0  0
   22.5834  -19.8875  -15.0470 C   0  0  1  0  0  0  0  0  0  0  0  0
   22.1070  -21.0935  -15.7623 C   0  0  0  0  0  0  0  0  0  0  0  0
   22.0378  -22.2824  -14.9062 C   0  0  0  0  0  0  0  0  0  0  0  0
   21.1566  -22.5074  -13.8387 C   0  0  0  0  0  0  0  0  0  0  0  0
   21.4317  -23.6867  -13.2758 N   0  0  0  0  0  0  0  0  0  0  0  0
   22.4551  -24.2822  -13.9028 C   0  0  0  0  0  0  0  0  0  0  0  0
   23.0780  -25.5151  -13.6909 C   0  0  0  0  0  0  0  0  0  0  0  0
   24.1043  -25.8427  -14.5470 C   0  0  0  0  0  0  0  0  0  0  0  0
   24.5091  -25.0099  -15.5654 C   0  0  0  0  0  0  0  0  0  0  0  0
   23.8808  -23.8086  -15.7475 C   0  0  0  0  0  0  0  0  0  0  0  0
   22.8405  -23.4186  -14.9191 C   0  0  0  0  0  0  0  0  0  0  0  0
   21.8158  -19.5668  -13.8503 C   0  0  0  0  0  0  0  0  0  0  0  0
   20.5572  -19.3404  -13.9536 O   0  0  0  0  0  0  0  0  0  0  0  0
   22.3659  -19.4926  -12.5584 O   0  0  0  0  0  0  0  0  0  0  0  0
  1  2  1  0
  3  2  1  0
  3  5  1  0
  3  4  1  1
  5  6  2  0
  8  7  1  0
  9 10  1  0
  9  8  1  0
 11 10  1  6
 12  5  1  0
 12 11  1  0
 13 11  1  0
 13 14  2  0
 15 13  1  0
 16 15  1  0
 16 27  1  0
 16 17  1  1
 18 17  1  0
 19 18  2  0
 20 21  1  0
 20 19  1  0
 21 26  2  0
 22 23  2  0
 22 21  1  0
 23 24  1  0
 24 25  2  0
 26 18  1  0
 26 25  1  0
 27 28  2  0
 27 29  1  0
M  END
$$$$
