SMW.pdb
     RDKit          3D

 29 30  0  0  1  0  0  0  0  0999 V2000
   24.2345  -24.4970  -16.7541 O   0  0  0  0  0  0  0  0  0  0  0  0
   25.0052  -24.0623  -17.8187 C   0  0  0  0  0  0  0  0  0  0  0  0
   26.4566  -24.2016  -17.4579 C   0  0  2  0  0  0  0  0  0  0  0  0
   26.7032  -25.5612  -16.9564 N   0  0  0  0  0  0  0  0  0  0  0  0
   26.7902  -23.2522  -16.3817 C   0  0  0  0  0  0  0  0  0  0  0  0
   27.4072  -23.7020  -15.3588 O   0  0  0  0  0  0  0  0  0  0  0  0
   27.1455  -16.7289  -16.7079 C   0  0  0  0  0  0  0  0  0  0  0  0
   27.4921  -16.9915  -14.9568 S   0  0  0  0  0  0  0  0  0  0  0  0
   27.4715  -18.7433  -14.5478 C   0  0  0  0  0  0  0  0  0  0  0  0
   26.9509  -19.5702  -15.7118 C   0  0  0  0  0  0  0  0  0  0  0  0
   26.9829  -21.0424  -15.3148 C   0  0  2  0  0  0  0  0  0  0  0  0
   26.4826  -21.8721  -16.3865 N   0  0  0  0  0  0  0  0  0  0  0  0
   26.1820  -21.2085  -14.0698 C   0  0  0  0  0  0  0  0  0  0  0  0
   24.9269  -21.2863  -14.1979 O   0  0  0  0  0  0  0  0  0  0  0  0
   26.8000  -21.2765  -12.7945 N   0  0  0  0  0  0  0  0  0  0  0  0
   25.9465  -21.5933  -11.6503 C   0  0  1  0  0  0  0  0  0  0  0  0
   26.7545  -22.0064  -10.4801 C   0  0  0  0  0  0  0  0  0  0  0  0
   26.6800  -21.0580   -9.3638 C   0  0  0  0  0  0  0  0  0  0  0  0
   25.6179  -20.1961   -9.0540 C   0  0  0  0  0  0  0  0  0  0  0  0
   25.9416  -19.4557   -7.9909 N   0  0  0  0  0  0  0  0  0  0  0  0
   27.1700  -19.7660   -7.5552 C   0  0  0  0  0  0  0  0  0  0  0  0
   27.9195  -19.2814   -6.4799 C   0  0  0  0  0  0  0  0  0  0  0  0
   29.1612  -19.8434   -6.2908 C   0  0  0  0  0  0  0  0  0  0  0  0
   29.6550  -20.8332   -7.1099 C   0  0  0  0  0  0  0  0  0  0  0  0
   28.8984  -21.2866   -8.1554 C   0  0  0  0  0  0  0  0  0  0  0  0
   27.6394  -20.7617   -8.4009 C   0  0  0  0  0  0  0  0  0  0  0  0
   25.0735  -20.4545  -11.3951 C   0  0  0  0  0  0  0  0  0  0  0  0
   25.4968  -19.2699  -11.6475 O   0  0  0  0  0  0  0  0  0  0  0  0
   23.7668  -20.5623  -10.8870 O   0  0  0  0  0  0  0  0  0  0  0  0
  1  2  1  0
  3  2  1  0
  3  5  1  0
  3  4  1  1
  5  6  2  0
  8  7  1  0
  9 10  1  0
  9  8  1  0
 11 10  1  6
 12  5  1  0
 12 11  1  0
 13 11  1  0
 13 14  2  0
 15 13  1  0
 16 15  1  0
 16 27  1  0
 16 17  1  1
 18 17  1  0
 19 18  2  0
 20 21  1  0
 20 19  1  0
 21 26  2  0
 22 23  2  0
 22 21  1  0
 23 24  1  0
 24 25  2  0
 26 18  1  0
 26 25  1  0
 27 28  2  0
 27 29  1  0
M  END
$$$$
