WTM.pdb
     RDKit          3D

 30 31  0  0  1  0  0  0  0  0999 V2000
   23.0874  -20.9167  -17.8888 N   0  0  0  0  0  0  0  0  0  0  0  0
   22.0579  -20.0776  -17.3562 C   0  0  1  0  0  0  0  0  0  0  0  0
   21.1022  -19.5657  -18.4130 C   0  0  0  0  0  0  0  0  0  0  0  0
   21.7649  -18.6542  -19.3534 C   0  0  0  0  0  0  0  0  0  0  0  0
   22.8610  -18.8342  -20.1718 C   0  0  0  0  0  0  0  0  0  0  0  0
   23.1100  -17.7082  -20.8676 N   0  0  0  0  0  0  0  0  0  0  0  0
   22.2046  -16.7656  -20.5384 C   0  0  0  0  0  0  0  0  0  0  0  0
   22.0403  -15.4667  -20.9714 C   0  0  0  0  0  0  0  0  0  0  0  0
   21.0000  -14.7298  -20.4419 C   0  0  0  0  0  0  0  0  0  0  0  0
   20.1456  -15.2942  -19.4961 C   0  0  0  0  0  0  0  0  0  0  0  0
   20.3262  -16.5986  -19.0741 C   0  0  0  0  0  0  0  0  0  0  0  0
   21.3604  -17.3498  -19.5923 C   0  0  0  0  0  0  0  0  0  0  0  0
   21.3139  -20.8236  -16.3222 C   0  0  0  0  0  0  0  0  0  0  0  0
   21.2432  -22.0679  -16.4467 O   0  0  0  0  0  0  0  0  0  0  0  0
   21.8856  -20.7532  -12.5660 C   0  0  0  0  0  0  0  0  0  0  0  0
   20.4070  -20.5444  -12.7920 C   0  0  1  0  0  0  0  0  0  0  0  0
   20.1398  -19.2066  -12.5324 O   0  0  0  0  0  0  0  0  0  0  0  0
   19.9709  -20.9828  -14.1780 C   0  0  2  0  0  0  0  0  0  0  0  0
   20.6757  -20.2376  -15.2030 N   0  0  0  0  0  0  0  0  0  0  0  0
   18.5095  -20.9680  -14.3684 C   0  0  0  0  0  0  0  0  0  0  0  0
   17.9289  -20.0247  -14.9933 O   0  0  0  0  0  0  0  0  0  0  0  0
   11.6646  -24.8420  -14.5330 C   0  0  0  0  0  0  0  0  0  0  0  0
   13.3380  -24.8702  -13.8866 S   0  0  0  0  0  0  0  0  0  0  0  0
   14.0770  -23.2113  -14.0971 C   0  0  0  0  0  0  0  0  0  0  0  0
   15.5564  -23.2471  -13.8533 C   0  0  0  0  0  0  0  0  0  0  0  0
   16.1639  -21.9207  -14.1150 C   0  0  2  0  0  0  0  0  0  0  0  0
   17.6311  -21.9687  -13.8920 N   0  0  0  0  0  0  0  0  0  0  0  0
   15.6507  -20.8995  -13.2066 C   0  0  0  0  0  0  0  0  0  0  0  0
   16.1273  -20.7314  -12.0721 O   0  0  0  0  0  0  0  0  0  0  0  0
   14.6064  -20.0774  -13.5841 O   0  0  0  0  0  0  0  0  0  0  0  0
  2  1  1  6
  2 13  1  0
  3  2  1  0
  3  4  1  0
  4  5  2  0
  4 12  1  0
  5  6  1  0
  6  7  1  0
  7  8  2  0
  8  9  1  0
 10  9  2  0
 11 10  1  0
 12 11  2  0
 12  7  1  0
 13 14  2  0
 16 15  1  6
 16 18  1  0
 17 16  1  0
 18 20  1  0
 19 13  1  0
 18 19  1  6
 20 21  2  0
 23 22  1  0
 24 23  1  0
 24 25  1  0
 26 25  1  1
 26 28  1  0
 27 26  1  0
 27 20  1  0
 28 29  2  0
 28 30  1  0
M  END
$$$$
