WTM.pdb
     RDKit          3D

 30 31  0  0  1  0  0  0  0  0999 V2000
   22.0000  -21.1805   -4.1425 N   0  0  0  0  0  0  0  0  0  0  0  0
   22.5135  -20.3747   -3.0771 C   0  0  1  0  0  0  0  0  0  0  0  0
   23.4868  -19.3154   -3.5490 C   0  0  0  0  0  0  0  0  0  0  0  0
   24.6105  -19.8981   -4.2921 C   0  0  0  0  0  0  0  0  0  0  0  0
   24.6392  -20.6730   -5.4333 C   0  0  0  0  0  0  0  0  0  0  0  0
   25.9110  -20.9796   -5.7536 N   0  0  0  0  0  0  0  0  0  0  0  0
   26.7481  -20.4284   -4.8524 C   0  0  0  0  0  0  0  0  0  0  0  0
   28.1228  -20.4546   -4.7478 C   0  0  0  0  0  0  0  0  0  0  0  0
   28.7093  -19.7825   -3.6942 C   0  0  0  0  0  0  0  0  0  0  0  0
   27.9228  -19.0997   -2.7678 C   0  0  0  0  0  0  0  0  0  0  0  0
   26.5454  -19.0847   -2.8893 C   0  0  0  0  0  0  0  0  0  0  0  0
   25.9421  -19.7507   -3.9357 C   0  0  0  0  0  0  0  0  0  0  0  0
   21.3863  -19.7421   -2.3640 C   0  0  0  0  0  0  0  0  0  0  0  0
   20.7751  -18.8209   -2.9524 O   0  0  0  0  0  0  0  0  0  0  0  0
   18.2765  -21.4093   -1.2594 C   0  0  0  0  0  0  0  0  0  0  0  0
   18.7977  -20.6709   -0.0494 C   0  0  1  0  0  0  0  0  0  0  0  0
   19.3581  -21.6189    0.7966 O   0  0  0  0  0  0  0  0  0  0  0  0
   19.7622  -19.5613   -0.4259 C   0  0  2  0  0  0  0  0  0  0  0  0
   20.9464  -20.0993   -1.0670 N   0  0  0  0  0  0  0  0  0  0  0  0
   20.0831  -18.6549    0.6910 C   0  0  0  0  0  0  0  0  0  0  0  0
   21.2190  -18.6785    1.2627 O   0  0  0  0  0  0  0  0  0  0  0  0
   18.9825  -12.1390    2.3729 C   0  0  0  0  0  0  0  0  0  0  0  0
   18.1434  -13.1899    3.5606 S   0  0  0  0  0  0  0  0  0  0  0  0
   19.0040  -14.8014    3.6301 C   0  0  0  0  0  0  0  0  0  0  0  0
   18.7751  -15.5875    2.3735 C   0  0  0  0  0  0  0  0  0  0  0  0
   19.5180  -16.8695    2.4135 C   0  0  2  0  0  0  0  0  0  0  0  0
   19.1905  -17.6964    1.2246 N   0  0  0  0  0  0  0  0  0  0  0  0
   19.1531  -17.6727    3.5768 C   0  0  0  0  0  0  0  0  0  0  0  0
   18.4230  -18.6728    3.4806 O   0  0  0  0  0  0  0  0  0  0  0  0
   19.6136  -17.3425    4.8368 O   0  0  0  0  0  0  0  0  0  0  0  0
  2  1  1  6
  2 13  1  0
  3  2  1  0
  3  4  1  0
  4  5  2  0
  4 12  1  0
  5  6  1  0
  6  7  1  0
  7  8  2  0
  8  9  1  0
 10  9  2  0
 11 10  1  0
 12 11  2  0
 12  7  1  0
 13 14  2  0
 16 15  1  6
 16 18  1  0
 17 16  1  0
 18 20  1  0
 19 13  1  0
 18 19  1  1
 20 21  2  0
 23 22  1  0
 24 23  1  0
 24 25  1  0
 26 25  1  6
 26 28  1  0
 27 26  1  0
 27 20  1  0
 28 29  2  0
 28 30  1  0
M  END
$$$$
