WTM.pdb
     RDKit          3D

 30 31  0  0  1  0  0  0  0  0999 V2000
   25.2586  -21.5758  -12.6880 N   0  0  0  0  0  0  0  0  0  0  0  0
   25.0061  -21.3179  -11.3032 C   0  0  1  0  0  0  0  0  0  0  0  0
   25.8352  -20.1782  -10.7500 C   0  0  0  0  0  0  0  0  0  0  0  0
   27.1122  -20.6486  -10.1999 C   0  0  0  0  0  0  0  0  0  0  0  0
   28.1847  -21.2732  -10.8025 C   0  0  0  0  0  0  0  0  0  0  0  0
   29.1474  -21.5210   -9.8937 N   0  0  0  0  0  0  0  0  0  0  0  0
   28.7506  -21.0771   -8.6845 C   0  0  0  0  0  0  0  0  0  0  0  0
   29.3734  -21.0988   -7.4544 C   0  0  0  0  0  0  0  0  0  0  0  0
   28.7042  -20.5573   -6.3753 C   0  0  0  0  0  0  0  0  0  0  0  0
   27.4340  -20.0065   -6.5371 C   0  0  0  0  0  0  0  0  0  0  0  0
   26.8254  -19.9937   -7.7787 C   0  0  0  0  0  0  0  0  0  0  0  0
   27.4791  -20.5304   -8.8683 C   0  0  0  0  0  0  0  0  0  0  0  0
   23.5695  -21.0317  -11.1197 C   0  0  0  0  0  0  0  0  0  0  0  0
   23.0783  -20.0922  -11.7865 O   0  0  0  0  0  0  0  0  0  0  0  0
   21.2589  -20.8557  -12.6117 C   0  0  0  0  0  0  0  0  0  0  0  0
   20.6554  -21.7739  -11.5756 C   0  0  1  0  0  0  0  0  0  0  0  0
   20.7943  -23.0715  -12.0503 O   0  0  0  0  0  0  0  0  0  0  0  0
   21.2687  -21.5711  -10.2023 C   0  0  2  0  0  0  0  0  0  0  0  0
   22.7083  -21.7394  -10.2476 N   0  0  0  0  0  0  0  0  0  0  0  0
   20.6348  -22.3826   -9.1478 C   0  0  0  0  0  0  0  0  0  0  0  0
   21.2215  -23.3901   -8.6396 O   0  0  0  0  0  0  0  0  0  0  0  0
   13.5012  -23.0300   -8.7194 C   0  0  0  0  0  0  0  0  0  0  0  0
   14.6918  -22.5000   -7.4862 S   0  0  0  0  0  0  0  0  0  0  0  0
   16.3475  -23.1059   -7.9697 C   0  0  0  0  0  0  0  0  0  0  0  0
   17.4203  -22.4456   -7.1557 C   0  0  0  0  0  0  0  0  0  0  0  0
   18.7576  -22.9629   -7.5312 C   0  0  2  0  0  0  0  0  0  0  0  0
   19.3511  -22.1325   -8.6097 N   0  0  0  0  0  0  0  0  0  0  0  0
   18.6855  -24.3214   -8.0611 C   0  0  0  0  0  0  0  0  0  0  0  0
   18.6277  -25.3137   -7.3165 O   0  0  0  0  0  0  0  0  0  0  0  0
   18.6792  -24.5496   -9.4237 O   0  0  0  0  0  0  0  0  0  0  0  0
  2  1  1  6
  2 13  1  0
  3  2  1  0
  3  4  1  0
  4  5  2  0
  4 12  1  0
  5  6  1  0
  6  7  1  0
  7  8  2  0
  8  9  1  0
 10  9  2  0
 11 10  1  0
 12 11  2  0
 12  7  1  0
 13 14  2  0
 16 15  1  6
 16 18  1  0
 17 16  1  0
 18 20  1  0
 19 13  1  0
 18 19  1  6
 20 21  2  0
 23 22  1  0
 24 23  1  0
 24 25  1  0
 26 25  1  6
 26 28  1  0
 27 26  1  0
 27 20  1  0
 28 29  2  0
 28 30  1  0
M  END
$$$$
