WTM.pdb
     RDKit          3D

 30 31  0  0  1  0  0  0  0  0999 V2000
   27.9291  -20.2410  -10.4440 N   0  0  0  0  0  0  0  0  0  0  0  0
   26.9043  -21.2396  -10.4294 C   0  0  1  0  0  0  0  0  0  0  0  0
   26.3476  -21.4999   -9.0457 C   0  0  0  0  0  0  0  0  0  0  0  0
   26.8491  -20.5307   -8.0640 C   0  0  0  0  0  0  0  0  0  0  0  0
   26.4124  -19.2641   -7.7346 C   0  0  0  0  0  0  0  0  0  0  0  0
   27.1885  -18.7437   -6.7646 N   0  0  0  0  0  0  0  0  0  0  0  0
   28.1448  -19.6317   -6.4277 C   0  0  0  0  0  0  0  0  0  0  0  0
   29.1645  -19.5681   -5.5015 C   0  0  0  0  0  0  0  0  0  0  0  0
   30.0036  -20.6575   -5.3800 C   0  0  0  0  0  0  0  0  0  0  0  0
   29.8154  -21.7852   -6.1774 C   0  0  0  0  0  0  0  0  0  0  0  0
   28.7871  -21.8306   -7.1008 C   0  0  0  0  0  0  0  0  0  0  0  0
   27.9389  -20.7513   -7.2360 C   0  0  0  0  0  0  0  0  0  0  0  0
   25.8179  -20.8297  -11.3411 C   0  0  0  0  0  0  0  0  0  0  0  0
   25.4059  -19.6502  -11.2545 O   0  0  0  0  0  0  0  0  0  0  0  0
   25.7628  -20.2146  -14.8104 C   0  0  0  0  0  0  0  0  0  0  0  0
   24.6295  -21.1967  -14.6318 C   0  0  1  0  0  0  0  0  0  0  0  0
   25.0731  -22.4227  -15.1101 O   0  0  0  0  0  0  0  0  0  0  0  0
   24.1429  -21.2563  -13.1955 C   0  0  2  0  0  0  0  0  0  0  0  0
   25.2090  -21.6698  -12.3038 N   0  0  0  0  0  0  0  0  0  0  0  0
   22.9155  -22.0533  -13.0214 C   0  0  0  0  0  0  0  0  0  0  0  0
   22.9569  -23.3155  -12.8704 O   0  0  0  0  0  0  0  0  0  0  0  0
   15.3561  -22.4952  -10.8775 C   0  0  0  0  0  0  0  0  0  0  0  0
   16.7944  -21.4433  -11.0863 S   0  0  0  0  0  0  0  0  0  0  0  0
   18.1178  -22.4115  -11.8947 C   0  0  0  0  0  0  0  0  0  0  0  0
   19.3523  -21.5811  -12.0837 C   0  0  0  0  0  0  0  0  0  0  0  0
   20.3984  -22.3506  -12.7982 C   0  0  2  0  0  0  0  0  0  0  0  0
   21.6080  -21.5145  -13.0042 N   0  0  0  0  0  0  0  0  0  0  0  0
   19.9586  -22.7593  -14.1290 C   0  0  0  0  0  0  0  0  0  0  0  0
   20.0542  -22.0057  -15.1116 O   0  0  0  0  0  0  0  0  0  0  0  0
   19.4157  -24.0119  -14.3408 O   0  0  0  0  0  0  0  0  0  0  0  0
  2  1  1  1
  2 13  1  0
  3  2  1  0
  3  4  1  0
  4  5  2  0
  4 12  1  0
  5  6  1  0
  6  7  1  0
  7  8  2  0
  8  9  1  0
 10  9  2  0
 11 10  1  0
 12 11  2  0
 12  7  1  0
 13 14  2  0
 16 15  1  1
 16 18  1  0
 17 16  1  0
 18 20  1  0
 19 13  1  0
 18 19  1  1
 20 21  2  0
 23 22  1  0
 24 23  1  0
 24 25  1  0
 26 25  1  6
 26 28  1  0
 27 26  1  0
 27 20  1  0
 28 29  2  0
 28 30  1  0
M  END
$$$$
