WTM.pdb
     RDKit          3D

 30 31  0  0  1  0  0  0  0  0999 V2000
   20.4770  -26.7032  -12.4800 N   0  0  0  0  0  0  0  0  0  0  0  0
   20.0294  -27.4900  -11.3716 C   0  0  1  0  0  0  0  0  0  0  0  0
   18.6410  -27.1148  -10.8986 C   0  0  0  0  0  0  0  0  0  0  0  0
   18.5811  -25.7260  -10.4276 C   0  0  0  0  0  0  0  0  0  0  0  0
   18.5261  -24.5343  -11.1208 C   0  0  0  0  0  0  0  0  0  0  0  0
   18.4828  -23.4990  -10.2604 N   0  0  0  0  0  0  0  0  0  0  0  0
   18.5074  -23.9632   -8.9952 C   0  0  0  0  0  0  0  0  0  0  0  0
   18.4822  -23.3085   -7.7818 C   0  0  0  0  0  0  0  0  0  0  0  0
   18.5195  -24.0687   -6.6302 C   0  0  0  0  0  0  0  0  0  0  0  0
   18.5810  -25.4593   -6.7046 C   0  0  0  0  0  0  0  0  0  0  0  0
   18.6054  -26.0981   -7.9308 C   0  0  0  0  0  0  0  0  0  0  0  0
   18.5688  -25.3546   -9.0920 C   0  0  0  0  0  0  0  0  0  0  0  0
   20.0659  -28.9172  -11.7470 C   0  0  0  0  0  0  0  0  0  0  0  0
   19.6316  -29.2274  -12.8800 O   0  0  0  0  0  0  0  0  0  0  0  0
   23.0649  -31.4195  -11.5511 C   0  0  0  0  0  0  0  0  0  0  0  0
   21.8622  -32.0240  -10.8663 C   0  0  1  0  0  0  0  0  0  0  0  0
   22.0911  -31.9486   -9.4986 O   0  0  0  0  0  0  0  0  0  0  0  0
   20.5655  -31.3607  -11.2927 C   0  0  2  0  0  0  0  0  0  0  0  0
   20.5542  -29.9588  -10.9224 N   0  0  0  0  0  0  0  0  0  0  0  0
   19.3600  -32.0776  -10.8400 C   0  0  0  0  0  0  0  0  0  0  0  0
   18.3707  -31.4615  -10.3306 O   0  0  0  0  0  0  0  0  0  0  0  0
   14.1162  -31.7164  -11.6356 C   0  0  0  0  0  0  0  0  0  0  0  0
   14.1383  -33.4481  -12.1043 S   0  0  0  0  0  0  0  0  0  0  0  0
   15.5123  -34.2763  -11.2277 C   0  0  0  0  0  0  0  0  0  0  0  0
   16.8091  -33.5605  -11.4632 C   0  0  0  0  0  0  0  0  0  0  0  0
   17.8890  -34.1432  -10.6317 C   0  0  2  0  0  0  0  0  0  0  0  0
   19.1843  -33.4784  -10.9231 N   0  0  0  0  0  0  0  0  0  0  0  0
   18.0896  -35.5608  -10.9172 C   0  0  0  0  0  0  0  0  0  0  0  0
   18.4011  -35.9642  -12.0497 O   0  0  0  0  0  0  0  0  0  0  0  0
   17.9377  -36.5104   -9.9252 O   0  0  0  0  0  0  0  0  0  0  0  0
  2  1  1  6
  2 13  1  0
  3  2  1  0
  3  4  1  0
  4  5  2  0
  4 12  1  0
  5  6  1  0
  6  7  1  0
  7  8  2  0
  8  9  1  0
 10  9  2  0
 11 10  1  0
 12 11  2  0
 12  7  1  0
 13 14  2  0
 16 15  1  6
 16 18  1  0
 17 16  1  0
 18 20  1  0
 19 13  1  0
 18 19  1  1
 20 21  2  0
 23 22  1  0
 24 23  1  0
 24 25  1  0
 26 25  1  6
 26 28  1  0
 27 26  1  0
 27 20  1  0
 28 29  2  0
 28 30  1  0
M  END
$$$$
