YRL.pdb
     RDKit          3D

 32 32  0  0  1  0  0  0  0  0999 V2000
    7.4284  -11.7951   15.8836 O   0  0  0  0  0  0  0  0  0  0  0  0
    7.4513  -12.4735   17.0989 C   0  0  0  0  0  0  0  0  0  0  0  0
    6.4793  -13.3743   17.4672 C   0  0  0  0  0  0  0  0  0  0  0  0
    6.4995  -14.0452   18.6659 C   0  0  0  0  0  0  0  0  0  0  0  0
    7.5275  -13.8304   19.5669 C   0  0  0  0  0  0  0  0  0  0  0  0
    7.6309  -14.5086   20.8823 C   0  0  0  0  0  0  0  0  0  0  0  0
    8.5363  -15.6842   20.7576 C   0  0  2  0  0  0  0  0  0  0  0  0
    8.0095  -16.5945   19.7651 N   0  0  0  0  0  0  0  0  0  0  0  0
    8.8275  -16.3480   22.0331 C   0  0  0  0  0  0  0  0  0  0  0  0
    7.9440  -16.7807   22.8179 O   0  0  0  0  0  0  0  0  0  0  0  0
    8.5127  -12.9103   19.1810 C   0  0  0  0  0  0  0  0  0  0  0  0
    8.4753  -12.2509   17.9812 C   0  0  0  0  0  0  0  0  0  0  0  0
   15.4034  -20.2145   21.4481 N   0  0  0  0  0  0  0  0  0  0  0  0
   14.2163  -20.7040   20.7916 C   0  0  0  0  0  0  0  0  0  0  0  0
   14.2739  -21.2741   19.6355 N   0  0  0  0  0  0  0  0  0  0  0  0
   12.9391  -20.5733   21.3978 N   0  0  0  0  0  0  0  0  0  0  0  0
   12.7099  -19.7828   22.5577 C   0  0  0  0  0  0  0  0  0  0  0  0
   12.1578  -18.4065   22.2989 C   0  0  0  0  0  0  0  0  0  0  0  0
   11.9170  -17.6800   23.6037 C   0  0  0  0  0  0  0  0  0  0  0  0
   10.5332  -17.1268   23.6975 C   0  0  2  0  0  0  0  0  0  0  0  0
   10.1830  -16.5225   22.4226 N   0  0  0  0  0  0  0  0  0  0  0  0
   10.3650  -16.1236   24.7572 C   0  0  0  0  0  0  0  0  0  0  0  0
   11.2101  -15.1634   24.8210 O   0  0  0  0  0  0  0  0  0  0  0  0
   13.3738  -21.5891   19.2149 C   0  0  0  0  0  0  0  0  0  0  0  0
    6.1878  -12.7053   26.8482 C   0  0  1  0  0  0  0  0  0  0  0  0
    7.5105  -13.3064   27.1582 C   0  0  0  0  0  0  0  0  0  0  0  0
    8.5598  -12.1684   27.1358 C   0  0  0  0  0  0  0  0  0  0  0  0
    8.0292  -14.3702   26.2916 C   0  0  2  0  0  0  0  0  0  0  0  0
    9.1908  -15.2087   26.7269 N   0  0  0  0  0  0  0  0  0  0  0  0
    9.2988  -16.2325   25.6669 C   0  0  0  0  0  0  0  0  0  0  0  0
    9.0559  -15.9288   27.9988 O   0  0  0  0  0  0  0  0  0  0  0  0
    8.4337  -16.9977   28.1259 O   0  0  0  0  0  0  0  0  0  0  0  0
  2  1  1  0
  3  2  2  0
  4  3  1  0
  5  4  2  0
  5 11  1  0
  6  5  1  0
  7  9  1  0
  7  8  1  6
  7  6  1  0
  9 10  2  0
 11 12  2  0
 12  2  1  0
 14 13  1  0
 15 14  2  0
 16 14  1  0
 17 16  1  0
 18 17  1  0
 19 18  1  0
 20 19  1  6
 20 22  1  0
 21  9  1  0
 21 20  1  0
 22 29  1  0
 22 23  2  0
 25 24  1  1
 26 25  1  0
 27 25  1  0
 28 27  1  6
 28 30  1  0
 29 28  1  0
 30 31  2  0
 30 32  1  0
M  END
$$$$
