YRL.pdb
     RDKit          3D

 32 32  0  0  1  0  0  0  0  0999 V2000
    4.6333   -9.7531   26.5956 O   0  0  0  0  0  0  0  0  0  0  0  0
    5.3039  -10.9707   26.5231 C   0  0  0  0  0  0  0  0  0  0  0  0
    5.0719  -12.0020   27.4032 C   0  0  0  0  0  0  0  0  0  0  0  0
    5.7324  -13.2047   27.3339 C   0  0  0  0  0  0  0  0  0  0  0  0
    6.6791  -13.4236   26.3488 C   0  0  0  0  0  0  0  0  0  0  0  0
    7.4401  -14.6882   26.1981 C   0  0  0  0  0  0  0  0  0  0  0  0
    6.7192  -15.5841   25.2520 C   0  0  2  0  0  0  0  0  0  0  0  0
    5.5086  -16.0696   25.8765 N   0  0  0  0  0  0  0  0  0  0  0  0
    7.5477  -16.6671   24.7109 C   0  0  0  0  0  0  0  0  0  0  0  0
    7.9533  -17.6472   25.3882 O   0  0  0  0  0  0  0  0  0  0  0  0
    6.9073  -12.3656   25.4574 C   0  0  0  0  0  0  0  0  0  0  0  0
    6.2387  -11.1734   25.5425 C   0  0  0  0  0  0  0  0  0  0  0  0
    8.2992  -14.0008   17.1294 N   0  0  0  0  0  0  0  0  0  0  0  0
    9.1121  -13.6163   18.2570 C   0  0  0  0  0  0  0  0  0  0  0  0
    9.0214  -12.4410   18.7815 N   0  0  0  0  0  0  0  0  0  0  0  0
   10.0440  -14.5219   18.8289 N   0  0  0  0  0  0  0  0  0  0  0  0
    9.6634  -15.7701   19.3946 C   0  0  0  0  0  0  0  0  0  0  0  0
    9.6110  -15.8050   20.8986 C   0  0  0  0  0  0  0  0  0  0  0  0
    9.1875  -17.1749   21.3807 C   0  0  0  0  0  0  0  0  0  0  0  0
    9.1431  -17.2626   22.8707 C   0  0  2  0  0  0  0  0  0  0  0  0
    7.9247  -16.6245   23.3414 N   0  0  0  0  0  0  0  0  0  0  0  0
   10.2920  -16.6355   23.5373 C   0  0  0  0  0  0  0  0  0  0  0  0
   10.4609  -15.3742   23.3927 O   0  0  0  0  0  0  0  0  0  0  0  0
    9.6765  -12.2155   19.5602 C   0  0  0  0  0  0  0  0  0  0  0  0
   10.3246  -15.7851   28.7762 C   0  0  1  0  0  0  0  0  0  0  0  0
   11.2197  -15.6371   27.5998 C   0  0  0  0  0  0  0  0  0  0  0  0
   11.3236  -14.1267   27.2766 C   0  0  0  0  0  0  0  0  0  0  0  0
   10.8632  -16.3093   26.3456 C   0  0  2  0  0  0  0  0  0  0  0  0
   11.9266  -16.7421   25.3845 N   0  0  0  0  0  0  0  0  0  0  0  0
   11.1709  -17.4160   24.3083 C   0  0  0  0  0  0  0  0  0  0  0  0
   12.9176  -17.7077   25.8746 O   0  0  0  0  0  0  0  0  0  0  0  0
   14.0397  -17.3890   26.3048 O   0  0  0  0  0  0  0  0  0  0  0  0
  2  1  1  0
  3  2  2  0
  4  3  1  0
  5  4  2  0
  5 11  1  0
  6  5  1  0
  7  9  1  0
  7  8  1  1
  7  6  1  0
  9 10  2  0
 11 12  2  0
 12  2  1  0
 14 13  1  0
 15 14  2  0
 16 14  1  0
 17 16  1  0
 18 17  1  0
 19 18  1  0
 20 19  1  6
 20 22  1  0
 21  9  1  0
 21 20  1  0
 22 29  1  0
 22 23  2  0
 25 24  1  1
 26 25  1  0
 27 25  1  0
 28 27  1  6
 28 30  1  0
 29 28  1  0
 30 31  2  0
 30 32  1  0
M  END
$$$$
