YRL.pdb
     RDKit          3D

 32 32  0  0  1  0  0  0  0  0999 V2000
    9.2855  -13.0897   15.8003 O   0  0  0  0  0  0  0  0  0  0  0  0
    8.7792  -13.4512   17.0456 C   0  0  0  0  0  0  0  0  0  0  0  0
    9.4832  -14.2237   17.9398 C   0  0  0  0  0  0  0  0  0  0  0  0
    8.9858  -14.5820   19.1693 C   0  0  0  0  0  0  0  0  0  0  0  0
    7.7251  -14.1656   19.5589 C   0  0  0  0  0  0  0  0  0  0  0  0
    7.1080  -14.5039   20.8650 C   0  0  0  0  0  0  0  0  0  0  0  0
    6.9055  -15.9769   20.9442 C   0  0  2  0  0  0  0  0  0  0  0  0
    5.8875  -16.3747   19.9973 N   0  0  0  0  0  0  0  0  0  0  0  0
    6.6365  -16.4677   22.3003 C   0  0  0  0  0  0  0  0  0  0  0  0
    5.5075  -16.4191   22.8542 O   0  0  0  0  0  0  0  0  0  0  0  0
    7.0166  -13.3787   18.6396 C   0  0  0  0  0  0  0  0  0  0  0  0
    7.5294  -13.0317   17.4179 C   0  0  0  0  0  0  0  0  0  0  0  0
    8.3022  -22.7126   28.5805 N   0  0  0  0  0  0  0  0  0  0  0  0
    7.1552  -22.0591   27.9999 C   0  0  0  0  0  0  0  0  0  0  0  0
    6.0178  -22.0309   28.6085 N   0  0  0  0  0  0  0  0  0  0  0  0
    7.2395  -21.4234   26.7333 N   0  0  0  0  0  0  0  0  0  0  0  0
    8.2998  -20.5449   26.3769 C   0  0  0  0  0  0  0  0  0  0  0  0
    7.9038  -19.1062   26.1794 C   0  0  0  0  0  0  0  0  0  0  0  0
    7.9291  -18.7483   24.7099 C   0  0  0  0  0  0  0  0  0  0  0  0
    7.5642  -17.3207   24.4678 C   0  0  2  0  0  0  0  0  0  0  0  0
    7.7023  -17.0360   23.0489 N   0  0  0  0  0  0  0  0  0  0  0  0
    8.3819  -16.3622   25.2230 C   0  0  0  0  0  0  0  0  0  0  0  0
    9.6478  -16.3615   25.0282 O   0  0  0  0  0  0  0  0  0  0  0  0
    5.2193  -21.5894   28.1047 C   0  0  0  0  0  0  0  0  0  0  0  0
    7.6095  -11.8334   25.2406 C   0  0  2  0  0  0  0  0  0  0  0  0
    6.8998  -12.6897   26.2254 C   0  0  0  0  0  0  0  0  0  0  0  0
    5.9106  -11.7884   27.0038 C   0  0  0  0  0  0  0  0  0  0  0  0
    7.6826  -13.4165   27.2308 C   0  0  2  0  0  0  0  0  0  0  0  0
    8.6349  -14.4964   26.8199 N   0  0  0  0  0  0  0  0  0  0  0  0
    7.7725  -15.4783   26.1305 C   0  0  0  0  0  0  0  0  0  0  0  0
    9.3275  -15.2205   27.8925 O   0  0  0  0  0  0  0  0  0  0  0  0
    9.0213  -16.3673   28.2626 O   0  0  0  0  0  0  0  0  0  0  0  0
  2  1  1  0
  3  2  2  0
  4  3  1  0
  5  4  2  0
  5 11  1  0
  6  5  1  0
  7  9  1  0
  7  8  1  6
  7  6  1  0
  9 10  2  0
 11 12  2  0
 12  2  1  0
 14 13  1  0
 15 14  2  0
 16 14  1  0
 17 16  1  0
 18 17  1  0
 19 18  1  0
 20 19  1  6
 20 22  1  0
 21  9  1  0
 21 20  1  0
 22 29  1  0
 22 23  2  0
 25 24  1  6
 26 25  1  0
 27 25  1  0
 28 27  1  6
 28 30  1  0
 29 28  1  0
 30 31  2  0
 30 32  1  0
M  END
$$$$
