YRL.pdb
     RDKit          3D

 32 32  0  0  1  0  0  0  0  0999 V2000
    7.8779  -12.0224   15.8542 O   0  0  0  0  0  0  0  0  0  0  0  0
    7.8089  -12.6454   17.0971 C   0  0  0  0  0  0  0  0  0  0  0  0
    6.7307  -13.4033   17.4912 C   0  0  0  0  0  0  0  0  0  0  0  0
    6.6601  -14.0191   18.7172 C   0  0  0  0  0  0  0  0  0  0  0  0
    7.7006  -13.8934   19.6207 C   0  0  0  0  0  0  0  0  0  0  0  0
    7.7107  -14.5218   20.9646 C   0  0  0  0  0  0  0  0  0  0  0  0
    8.2924  -15.8886   20.8621 C   0  0  2  0  0  0  0  0  0  0  0  0
    7.4729  -16.6962   19.9860 N   0  0  0  0  0  0  0  0  0  0  0  0
    8.5334  -16.5308   22.1589 C   0  0  0  0  0  0  0  0  0  0  0  0
    7.6197  -16.8834   22.9492 O   0  0  0  0  0  0  0  0  0  0  0  0
    8.7942  -13.1188   19.2084 C   0  0  0  0  0  0  0  0  0  0  0  0
    8.8464  -12.5122   17.9815 C   0  0  0  0  0  0  0  0  0  0  0  0
   14.3015  -18.3422   21.4032 N   0  0  0  0  0  0  0  0  0  0  0  0
   13.8928  -19.6560   20.9711 C   0  0  0  0  0  0  0  0  0  0  0  0
   14.7508  -20.5218   20.5478 N   0  0  0  0  0  0  0  0  0  0  0  0
   12.5267  -20.0416   20.9961 N   0  0  0  0  0  0  0  0  0  0  0  0
   11.5047  -19.2345   21.5680 C   0  0  0  0  0  0  0  0  0  0  0  0
   11.2894  -19.4215   23.0460 C   0  0  0  0  0  0  0  0  0  0  0  0
   11.4574  -18.1068   23.7749 C   0  0  0  0  0  0  0  0  0  0  0  0
   10.1778  -17.3429   23.8685 C   0  0  2  0  0  0  0  0  0  0  0  0
    9.8728  -16.7783   22.5641 N   0  0  0  0  0  0  0  0  0  0  0  0
   10.2047  -16.2575   24.8579 C   0  0  0  0  0  0  0  0  0  0  0  0
   10.9906  -15.2680   24.6491 O   0  0  0  0  0  0  0  0  0  0  0  0
   14.3847  -21.4563   20.2666 C   0  0  0  0  0  0  0  0  0  0  0  0
    7.0911  -12.2930   27.4635 C   0  0  1  0  0  0  0  0  0  0  0  0
    8.2582  -13.1835   27.6916 C   0  0  0  0  0  0  0  0  0  0  0  0
    9.5343  -12.3092   27.6306 C   0  0  0  0  0  0  0  0  0  0  0  0
    8.4807  -14.3119   26.7811 C   0  0  2  0  0  0  0  0  0  0  0  0
    9.5760  -15.2983   27.0442 N   0  0  0  0  0  0  0  0  0  0  0  0
    9.3827  -16.3221   25.9964 C   0  0  0  0  0  0  0  0  0  0  0  0
    9.5476  -16.0007   28.3328 O   0  0  0  0  0  0  0  0  0  0  0  0
    8.8192  -16.9797   28.5710 O   0  0  0  0  0  0  0  0  0  0  0  0
  2  1  1  0
  3  2  2  0
  4  3  1  0
  5  4  2  0
  5 11  1  0
  6  5  1  0
  7  9  1  0
  7  8  1  6
  7  6  1  0
  9 10  2  0
 11 12  2  0
 12  2  1  0
 14 13  1  0
 15 14  2  0
 16 14  1  0
 17 16  1  0
 18 17  1  0
 19 18  1  0
 20 19  1  6
 20 22  1  0
 21  9  1  0
 21 20  1  0
 22 29  1  0
 22 23  2  0
 25 24  1  1
 26 25  1  0
 27 25  1  0
 28 27  1  6
 28 30  1  0
 29 28  1  0
 30 31  2  0
 30 32  1  0
M  END
$$$$
