YRL.pdb
     RDKit          3D

 32 32  0  0  1  0  0  0  0  0999 V2000
    7.8917  -22.3853   29.8389 O   0  0  0  0  0  0  0  0  0  0  0  0
    8.0040  -21.3774   28.8855 C   0  0  0  0  0  0  0  0  0  0  0  0
    8.8021  -20.2711   29.0621 C   0  0  0  0  0  0  0  0  0  0  0  0
    8.9147  -19.2749   28.1228 C   0  0  0  0  0  0  0  0  0  0  0  0
    8.2091  -19.3543   26.9352 C   0  0  0  0  0  0  0  0  0  0  0  0
    8.2690  -18.3276   25.8660 C   0  0  0  0  0  0  0  0  0  0  0  0
    7.9036  -18.9530   24.5651 C   0  0  2  0  0  0  0  0  0  0  0  0
    8.5092  -20.2630   24.4737 N   0  0  0  0  0  0  0  0  0  0  0  0
    8.1979  -18.1134   23.3986 C   0  0  0  0  0  0  0  0  0  0  0  0
    9.2091  -18.2604   22.6640 O   0  0  0  0  0  0  0  0  0  0  0  0
    7.3988  -20.4862   26.7660 C   0  0  0  0  0  0  0  0  0  0  0  0
    7.2994  -21.4693   27.7144 C   0  0  0  0  0  0  0  0  0  0  0  0
    7.6585  -12.4751   18.2602 N   0  0  0  0  0  0  0  0  0  0  0  0
    8.1629  -13.6475   17.5885 C   0  0  0  0  0  0  0  0  0  0  0  0
    8.0531  -13.7897   16.3108 N   0  0  0  0  0  0  0  0  0  0  0  0
    8.7985  -14.6890   18.3142 N   0  0  0  0  0  0  0  0  0  0  0  0
    8.1423  -15.4364   19.3311 C   0  0  0  0  0  0  0  0  0  0  0  0
    7.2374  -14.6394   20.2320 C   0  0  0  0  0  0  0  0  0  0  0  0
    6.6930  -15.5129   21.3405 C   0  0  0  0  0  0  0  0  0  0  0  0
    7.7433  -15.8900   22.3327 C   0  0  2  0  0  0  0  0  0  0  0  0
    7.2981  -17.0663   23.0618 N   0  0  0  0  0  0  0  0  0  0  0  0
    8.0579  -14.8280   23.2975 C   0  0  0  0  0  0  0  0  0  0  0  0
    7.8692  -13.6122   22.9418 O   0  0  0  0  0  0  0  0  0  0  0  0
    8.4613  -14.6521   15.8912 C   0  0  0  0  0  0  0  0  0  0  0  0
    5.6026  -12.4212   27.2275 C   0  0  1  0  0  0  0  0  0  0  0  0
    7.0254  -12.6524   26.8679 C   0  0  0  0  0  0  0  0  0  0  0  0
    7.6567  -11.2766   26.5436 C   0  0  0  0  0  0  0  0  0  0  0  0
    7.3395  -13.5331   25.7377 C   0  0  2  0  0  0  0  0  0  0  0  0
    8.7272  -14.0621   25.5471 N   0  0  0  0  0  0  0  0  0  0  0  0
    8.5519  -15.1579   24.5715 C   0  0  0  0  0  0  0  0  0  0  0  0
    9.3884  -14.6428   26.7219 O   0  0  0  0  0  0  0  0  0  0  0  0
   10.1771  -14.0172   27.4514 O   0  0  0  0  0  0  0  0  0  0  0  0
  2  1  1  0
  3  2  2  0
  4  3  1  0
  5  4  2  0
  5 11  1  0
  6  5  1  0
  7  9  1  0
  7  8  1  6
  7  6  1  0
  9 10  2  0
 11 12  2  0
 12  2  1  0
 14 13  1  0
 15 14  2  0
 16 14  1  0
 17 16  1  0
 18 17  1  0
 19 18  1  0
 20 19  1  6
 20 22  1  0
 21  9  1  0
 21 20  1  0
 22 29  1  0
 22 23  2  0
 25 24  1  1
 26 25  1  0
 27 25  1  0
 28 27  1  6
 28 30  1  0
 29 28  1  0
 30 31  2  0
 30 32  1  0
M  END
$$$$
