YRL.pdb
     RDKit          3D

 32 32  0  0  1  0  0  0  0  0999 V2000
    8.1457  -12.7333   15.6267 O   0  0  0  0  0  0  0  0  0  0  0  0
    7.9884  -13.2945   16.8908 C   0  0  0  0  0  0  0  0  0  0  0  0
    8.2038  -14.6291   17.1449 C   0  0  0  0  0  0  0  0  0  0  0  0
    8.0493  -15.1855   18.3914 C   0  0  0  0  0  0  0  0  0  0  0  0
    7.6611  -14.3993   19.4619 C   0  0  0  0  0  0  0  0  0  0  0  0
    7.4695  -14.9133   20.8403 C   0  0  0  0  0  0  0  0  0  0  0  0
    7.6401  -16.3925   20.8398 C   0  0  2  0  0  0  0  0  0  0  0  0
    6.5441  -17.0034   20.1210 N   0  0  0  0  0  0  0  0  0  0  0  0
    7.8294  -16.9694   22.1753 C   0  0  0  0  0  0  0  0  0  0  0  0
    6.8892  -17.3874   22.9000 O   0  0  0  0  0  0  0  0  0  0  0  0
    7.4445  -13.0407   19.1913 C   0  0  0  0  0  0  0  0  0  0  0  0
    7.6037  -12.5041   17.9413 C   0  0  0  0  0  0  0  0  0  0  0  0
   11.7059  -20.9970   19.4291 N   0  0  0  0  0  0  0  0  0  0  0  0
   11.9339  -19.6987   20.0142 C   0  0  0  0  0  0  0  0  0  0  0  0
   12.2211  -18.6737   19.2850 N   0  0  0  0  0  0  0  0  0  0  0  0
   11.8508  -19.5049   21.4182 N   0  0  0  0  0  0  0  0  0  0  0  0
   11.9608  -18.2261   22.0311 C   0  0  0  0  0  0  0  0  0  0  0  0
   11.7746  -18.2109   23.5247 C   0  0  0  0  0  0  0  0  0  0  0  0
   10.4012  -18.7284   23.8910 C   0  0  0  0  0  0  0  0  0  0  0  0
    9.3968  -17.6307   24.0171 C   0  0  2  0  0  0  0  0  0  0  0  0
    9.1466  -17.0711   22.6990 N   0  0  0  0  0  0  0  0  0  0  0  0
    9.8107  -16.5474   24.9187 C   0  0  0  0  0  0  0  0  0  0  0  0
   10.7787  -15.7927   24.5533 O   0  0  0  0  0  0  0  0  0  0  0  0
   12.4884  -17.7968   19.7810 C   0  0  0  0  0  0  0  0  0  0  0  0
    6.8601  -12.3506   27.6599 C   0  0  1  0  0  0  0  0  0  0  0  0
    8.1499  -13.0877   27.6518 C   0  0  0  0  0  0  0  0  0  0  0  0
    9.2364  -12.1259   27.1125 C   0  0  0  0  0  0  0  0  0  0  0  0
    8.2586  -14.3228   26.8679 C   0  0  2  0  0  0  0  0  0  0  0  0
    9.4955  -15.1636   26.9389 N   0  0  0  0  0  0  0  0  0  0  0  0
    9.1495  -16.3609   26.1452 C   0  0  0  0  0  0  0  0  0  0  0  0
    9.9052  -15.6390   28.2658 O   0  0  0  0  0  0  0  0  0  0  0  0
   10.6837  -15.0204   29.0121 O   0  0  0  0  0  0  0  0  0  0  0  0
  2  1  1  0
  3  2  2  0
  4  3  1  0
  5  4  2  0
  5 11  1  0
  6  5  1  0
  7  9  1  0
  7  8  1  1
  7  6  1  0
  9 10  2  0
 11 12  2  0
 12  2  1  0
 14 13  1  0
 15 14  2  0
 16 14  1  0
 17 16  1  0
 18 17  1  0
 19 18  1  0
 20 19  1  6
 20 22  1  0
 21  9  1  0
 21 20  1  0
 22 29  1  0
 22 23  2  0
 25 24  1  1
 26 25  1  0
 27 25  1  0
 28 27  1  6
 28 30  1  0
 29 28  1  0
 30 31  2  0
 30 32  1  0
M  END
$$$$
