YRL.pdb
     RDKit          3D

 32 32  0  0  1  0  0  0  0  0999 V2000
    4.2135  -10.4467   27.6702 O   0  0  0  0  0  0  0  0  0  0  0  0
    4.9983  -11.4988   27.2068 C   0  0  0  0  0  0  0  0  0  0  0  0
    4.5057  -12.4937   26.3946 C   0  0  0  0  0  0  0  0  0  0  0  0
    5.2780  -13.5331   25.9360 C   0  0  0  0  0  0  0  0  0  0  0  0
    6.6142  -13.6153   26.2861 C   0  0  0  0  0  0  0  0  0  0  0  0
    7.5223  -14.6999   25.8389 C   0  0  0  0  0  0  0  0  0  0  0  0
    6.7356  -15.9495   25.6469 C   0  0  2  0  0  0  0  0  0  0  0  0
    6.1912  -16.3758   26.9170 N   0  0  0  0  0  0  0  0  0  0  0  0
    7.4736  -17.0173   24.9632 C   0  0  0  0  0  0  0  0  0  0  0  0
    8.0910  -17.9378   25.5592 O   0  0  0  0  0  0  0  0  0  0  0  0
    7.1055  -12.5960   27.1142 C   0  0  0  0  0  0  0  0  0  0  0  0
    6.3196  -11.5674   27.5615 C   0  0  0  0  0  0  0  0  0  0  0  0
    8.5414  -13.0657   20.3436 N   0  0  0  0  0  0  0  0  0  0  0  0
    9.3734  -13.3557   19.2019 C   0  0  0  0  0  0  0  0  0  0  0  0
    9.9982  -12.4201   18.5702 N   0  0  0  0  0  0  0  0  0  0  0  0
    9.5323  -14.6861   18.7323 N   0  0  0  0  0  0  0  0  0  0  0  0
    8.9012  -15.8039   19.3448 C   0  0  0  0  0  0  0  0  0  0  0  0
    9.0963  -15.9165   20.8332 C   0  0  0  0  0  0  0  0  0  0  0  0
    8.4664  -17.1895   21.3537 C   0  0  0  0  0  0  0  0  0  0  0  0
    8.7103  -17.3867   22.8137 C   0  0  2  0  0  0  0  0  0  0  0  0
    7.5042  -17.0298   23.5425 N   0  0  0  0  0  0  0  0  0  0  0  0
    9.8311  -16.5970   23.3407 C   0  0  0  0  0  0  0  0  0  0  0  0
    9.6834  -15.3288   23.4409 O   0  0  0  0  0  0  0  0  0  0  0  0
   10.5590  -12.7004   17.7376 C   0  0  0  0  0  0  0  0  0  0  0  0
   11.2689  -13.9248   26.1467 C   0  0  2  0  0  0  0  0  0  0  0  0
   10.6508  -15.2539   26.3883 C   0  0  0  0  0  0  0  0  0  0  0  0
   10.4904  -15.4255   27.9184 C   0  0  0  0  0  0  0  0  0  0  0  0
   11.3365  -16.4563   25.9025 C   0  0  2  0  0  0  0  0  0  0  0  0
   11.9797  -16.4725   24.5505 N   0  0  0  0  0  0  0  0  0  0  0  0
   11.0252  -17.2349   23.7192 C   0  0  0  0  0  0  0  0  0  0  0  0
   13.2767  -17.1501   24.4354 O   0  0  0  0  0  0  0  0  0  0  0  0
   13.4159  -18.3094   24.0082 O   0  0  0  0  0  0  0  0  0  0  0  0
  2  1  1  0
  3  2  2  0
  4  3  1  0
  5  4  2  0
  5 11  1  0
  6  5  1  0
  7  9  1  0
  7  8  1  1
  7  6  1  0
  9 10  2  0
 11 12  2  0
 12  2  1  0
 14 13  1  0
 15 14  2  0
 16 14  1  0
 17 16  1  0
 18 17  1  0
 19 18  1  0
 20 19  1  6
 20 22  1  0
 21  9  1  0
 21 20  1  0
 22 29  1  0
 22 23  2  0
 25 24  1  6
 26 25  1  0
 27 25  1  0
 28 27  1  6
 28 30  1  0
 29 28  1  0
 30 31  2  0
 30 32  1  0
M  END
$$$$
