YRL.pdb
     RDKit          3D

 32 32  0  0  1  0  0  0  0  0999 V2000
    8.5510  -12.8558   15.3745 O   0  0  0  0  0  0  0  0  0  0  0  0
    8.3315  -13.2494   16.6916 C   0  0  0  0  0  0  0  0  0  0  0  0
    9.0623  -14.2408   17.3040 C   0  0  0  0  0  0  0  0  0  0  0  0
    8.8477  -14.6311   18.6036 C   0  0  0  0  0  0  0  0  0  0  0  0
    7.8618  -14.0223   19.3600 C   0  0  0  0  0  0  0  0  0  0  0  0
    7.5600  -14.3784   20.7682 C   0  0  0  0  0  0  0  0  0  0  0  0
    7.2102  -15.8238   20.8439 C   0  0  2  0  0  0  0  0  0  0  0  0
    6.0183  -16.0723   20.0637 N   0  0  0  0  0  0  0  0  0  0  0  0
    7.1049  -16.3388   22.2136 C   0  0  0  0  0  0  0  0  0  0  0  0
    6.2441  -15.9513   23.0458 O   0  0  0  0  0  0  0  0  0  0  0  0
    7.1233  -13.0132   18.7256 C   0  0  0  0  0  0  0  0  0  0  0  0
    7.3519  -12.6378   17.4284 C   0  0  0  0  0  0  0  0  0  0  0  0
    9.2159  -22.8378   27.0968 N   0  0  0  0  0  0  0  0  0  0  0  0
    8.2783  -22.0387   27.8466 C   0  0  0  0  0  0  0  0  0  0  0  0
    8.1200  -22.2027   29.1166 N   0  0  0  0  0  0  0  0  0  0  0  0
    7.4940  -21.0416   27.2091 N   0  0  0  0  0  0  0  0  0  0  0  0
    7.5562  -20.7836   25.8118 C   0  0  0  0  0  0  0  0  0  0  0  0
    8.6327  -19.8229   25.3827 C   0  0  0  0  0  0  0  0  0  0  0  0
    8.3413  -19.2870   23.9985 C   0  0  0  0  0  0  0  0  0  0  0  0
    8.0158  -17.8297   24.0118 C   0  0  2  0  0  0  0  0  0  0  0  0
    8.0210  -17.3361   22.6444 N   0  0  0  0  0  0  0  0  0  0  0  0
    8.9468  -17.0203   24.8091 C   0  0  0  0  0  0  0  0  0  0  0  0
   10.1186  -16.8067   24.3386 O   0  0  0  0  0  0  0  0  0  0  0  0
    7.4227  -21.5911   29.5921 C   0  0  0  0  0  0  0  0  0  0  0  0
    9.7646  -13.6599   29.2975 C   0  0  1  0  0  0  0  0  0  0  0  0
    9.2700  -13.3507   27.9313 C   0  0  0  0  0  0  0  0  0  0  0  0
    8.1768  -12.2626   28.0633 C   0  0  0  0  0  0  0  0  0  0  0  0
    8.6906  -14.4293   27.1234 C   0  0  1  0  0  0  0  0  0  0  0  0
    9.4975  -15.6439   26.7834 N   0  0  0  0  0  0  0  0  0  0  0  0
    8.5433  -16.5034   26.0525 C   0  0  0  0  0  0  0  0  0  0  0  0
   10.0117  -16.4400   27.9043 O   0  0  0  0  0  0  0  0  0  0  0  0
    9.3028  -17.1759   28.6126 O   0  0  0  0  0  0  0  0  0  0  0  0
  2  1  1  0
  3  2  2  0
  4  3  1  0
  5  4  2  0
  5 11  1  0
  6  5  1  0
  7  9  1  0
  7  8  1  1
  7  6  1  0
  9 10  2  0
 11 12  2  0
 12  2  1  0
 14 13  1  0
 15 14  2  0
 16 14  1  0
 17 16  1  0
 18 17  1  0
 19 18  1  0
 20 19  1  6
 20 22  1  0
 21  9  1  0
 21 20  1  0
 22 29  1  0
 22 23  2  0
 25 24  1  6
 26 25  1  0
 27 25  1  0
 28 27  1  6
 28 30  1  0
 29 28  1  0
 30 31  2  0
 30 32  1  0
M  END
$$$$
