YRL.pdb
     RDKit          3D

 32 32  0  0  1  0  0  0  0  0999 V2000
    7.8731  -12.0101   16.5827 O   0  0  0  0  0  0  0  0  0  0  0  0
    7.9101  -12.6918   17.7958 C   0  0  0  0  0  0  0  0  0  0  0  0
    9.0770  -12.9153   18.4890 C   0  0  0  0  0  0  0  0  0  0  0  0
    9.1162  -13.5877   19.6863 C   0  0  0  0  0  0  0  0  0  0  0  0
    7.9503  -14.0756   20.2497 C   0  0  0  0  0  0  0  0  0  0  0  0
    7.8975  -14.8123   21.5364 C   0  0  0  0  0  0  0  0  0  0  0  0
    8.3166  -16.2232   21.3107 C   0  0  2  0  0  0  0  0  0  0  0  0
    7.3771  -16.8680   20.4203 N   0  0  0  0  0  0  0  0  0  0  0  0
    8.5347  -16.9833   22.5464 C   0  0  0  0  0  0  0  0  0  0  0  0
    7.6127  -17.3332   23.3282 O   0  0  0  0  0  0  0  0  0  0  0  0
    6.7671  -13.8420   19.5345 C   0  0  0  0  0  0  0  0  0  0  0  0
    6.7480  -13.1693   18.3417 C   0  0  0  0  0  0  0  0  0  0  0  0
   13.7300  -20.7116   28.0742 N   0  0  0  0  0  0  0  0  0  0  0  0
   13.6636  -21.7620   27.0882 C   0  0  0  0  0  0  0  0  0  0  0  0
   14.2059  -22.9142   27.2958 N   0  0  0  0  0  0  0  0  0  0  0  0
   12.9973  -21.5619   25.8506 N   0  0  0  0  0  0  0  0  0  0  0  0
   12.9936  -20.3151   25.1661 C   0  0  0  0  0  0  0  0  0  0  0  0
   11.7527  -19.4834   25.3520 C   0  0  0  0  0  0  0  0  0  0  0  0
   11.3176  -18.8818   24.0341 C   0  0  0  0  0  0  0  0  0  0  0  0
   10.1627  -17.9483   24.1909 C   0  0  2  0  0  0  0  0  0  0  0  0
    9.8601  -17.3564   22.8981 N   0  0  0  0  0  0  0  0  0  0  0  0
   10.3979  -16.8699   25.1601 C   0  0  0  0  0  0  0  0  0  0  0  0
   11.3875  -16.0819   24.9602 O   0  0  0  0  0  0  0  0  0  0  0  0
   14.1491  -23.6128   26.5244 C   0  0  0  0  0  0  0  0  0  0  0  0
    7.5740  -12.5424   27.7699 C   0  0  1  0  0  0  0  0  0  0  0  0
    8.7148  -13.4797   27.9340 C   0  0  0  0  0  0  0  0  0  0  0  0
   10.0194  -12.6688   27.7416 C   0  0  0  0  0  0  0  0  0  0  0  0
    8.8120  -14.6443   27.0473 C   0  0  2  0  0  0  0  0  0  0  0  0
    9.8785  -15.6741   27.2567 N   0  0  0  0  0  0  0  0  0  0  0  0
    9.5484  -16.7238   26.2706 C   0  0  0  0  0  0  0  0  0  0  0  0
    9.9281  -16.3275   28.5702 O   0  0  0  0  0  0  0  0  0  0  0  0
    9.1703  -17.2521   28.9117 O   0  0  0  0  0  0  0  0  0  0  0  0
  2  1  1  0
  3  2  2  0
  4  3  1  0
  5  4  2  0
  5 11  1  0
  6  5  1  0
  7  9  1  0
  7  8  1  6
  7  6  1  0
  9 10  2  0
 11 12  2  0
 12  2  1  0
 14 13  1  0
 15 14  2  0
 16 14  1  0
 17 16  1  0
 18 17  1  0
 19 18  1  0
 20 19  1  6
 20 22  1  0
 21  9  1  0
 21 20  1  0
 22 29  1  0
 22 23  2  0
 25 24  1  1
 26 25  1  0
 27 25  1  0
 28 27  1  6
 28 30  1  0
 29 28  1  0
 30 31  2  0
 30 32  1  0
M  END
$$$$
