YRL.pdb
     RDKit          3D

 32 32  0  0  1  0  0  0  0  0999 V2000
    9.0398  -13.1516   14.2221 O   0  0  0  0  0  0  0  0  0  0  0  0
    8.7217  -13.4300   15.5484 C   0  0  0  0  0  0  0  0  0  0  0  0
    7.4853  -13.1640   16.0891 C   0  0  0  0  0  0  0  0  0  0  0  0
    7.1687  -13.4377   17.3976 C   0  0  0  0  0  0  0  0  0  0  0  0
    8.1100  -14.0060   18.2377 C   0  0  0  0  0  0  0  0  0  0  0  0
    7.8575  -14.3352   19.6621 C   0  0  0  0  0  0  0  0  0  0  0  0
    8.0029  -15.8040   19.8587 C   0  0  2  0  0  0  0  0  0  0  0  0
    7.0474  -16.4984   19.0244 N   0  0  0  0  0  0  0  0  0  0  0  0
    7.9362  -16.2252   21.2624 C   0  0  0  0  0  0  0  0  0  0  0  0
    6.8834  -16.2093   21.9517 O   0  0  0  0  0  0  0  0  0  0  0  0
    9.3667  -14.2729   17.6759 C   0  0  0  0  0  0  0  0  0  0  0  0
    9.6636  -13.9927   16.3686 C   0  0  0  0  0  0  0  0  0  0  0  0
   13.0876  -22.0092   25.4736 N   0  0  0  0  0  0  0  0  0  0  0  0
   11.8480  -22.1353   24.7473 C   0  0  0  0  0  0  0  0  0  0  0  0
   11.4760  -23.2632   24.2431 N   0  0  0  0  0  0  0  0  0  0  0  0
   10.9929  -21.0174   24.5612 N   0  0  0  0  0  0  0  0  0  0  0  0
   11.3142  -19.7114   25.0238 C   0  0  0  0  0  0  0  0  0  0  0  0
   10.2165  -18.6911   24.8824 C   0  0  0  0  0  0  0  0  0  0  0  0
   10.1379  -18.1941   23.4558 C   0  0  0  0  0  0  0  0  0  0  0  0
    9.1171  -17.1175   23.2861 C   0  0  2  0  0  0  0  0  0  0  0  0
    9.1216  -16.6822   21.8991 N   0  0  0  0  0  0  0  0  0  0  0  0
    9.3374  -15.9488   24.1481 C   0  0  0  0  0  0  0  0  0  0  0  0
   10.3757  -15.2291   23.9379 O   0  0  0  0  0  0  0  0  0  0  0  0
   10.5783  -23.2748   23.7135 C   0  0  0  0  0  0  0  0  0  0  0  0
    7.3690  -12.2672   27.9328 C   0  0  1  0  0  0  0  0  0  0  0  0
    7.3225  -12.3047   26.4485 C   0  0  0  0  0  0  0  0  0  0  0  0
    5.9574  -11.7231   26.0071 C   0  0  0  0  0  0  0  0  0  0  0  0
    7.4681  -13.5942   25.7645 C   0  0  1  0  0  0  0  0  0  0  0  0
    8.6794  -14.4445   25.9919 N   0  0  0  0  0  0  0  0  0  0  0  0
    8.4218  -15.6455   25.1707 C   0  0  0  0  0  0  0  0  0  0  0  0
    8.9201  -14.9121   27.3623 O   0  0  0  0  0  0  0  0  0  0  0  0
    8.2942  -15.8452   27.8946 O   0  0  0  0  0  0  0  0  0  0  0  0
  2  1  1  0
  3  2  2  0
  4  3  1  0
  5  4  2  0
  5 11  1  0
  6  5  1  0
  7  9  1  0
  7  8  1  6
  7  6  1  0
  9 10  2  0
 11 12  2  0
 12  2  1  0
 14 13  1  0
 15 14  2  0
 16 14  1  0
 17 16  1  0
 18 17  1  0
 19 18  1  0
 20 19  1  6
 20 22  1  0
 21  9  1  0
 21 20  1  0
 22 29  1  0
 22 23  2  0
 25 24  1  6
 26 25  1  0
 27 25  1  0
 28 27  1  6
 28 30  1  0
 29 28  1  0
 30 31  2  0
 30 32  1  0
M  END
$$$$
