YRL.pdb
     RDKit          3D

 32 32  0  0  1  0  0  0  0  0999 V2000
    5.5979  -24.4267   29.1749 O   0  0  0  0  0  0  0  0  0  0  0  0
    6.1143  -23.2967   28.5471 C   0  0  0  0  0  0  0  0  0  0  0  0
    5.3482  -22.1928   28.2529 C   0  0  0  0  0  0  0  0  0  0  0  0
    5.8553  -21.0764   27.6334 C   0  0  0  0  0  0  0  0  0  0  0  0
    7.1909  -21.0247   27.2753 C   0  0  0  0  0  0  0  0  0  0  0  0
    7.8239  -19.8630   26.6040 C   0  0  0  0  0  0  0  0  0  0  0  0
    7.3054  -19.7592   25.2120 C   0  0  2  0  0  0  0  0  0  0  0  0
    7.4186  -21.0445   24.5590 N   0  0  0  0  0  0  0  0  0  0  0  0
    7.9116  -18.6751   24.4313 C   0  0  0  0  0  0  0  0  0  0  0  0
    9.0985  -18.2829   24.5769 O   0  0  0  0  0  0  0  0  0  0  0  0
    7.9623  -22.1553   27.5801 C   0  0  0  0  0  0  0  0  0  0  0  0
    7.4385  -23.2595   28.1983 C   0  0  0  0  0  0  0  0  0  0  0  0
    8.5928  -13.9634   17.7183 N   0  0  0  0  0  0  0  0  0  0  0  0
    8.3937  -12.9849   18.7588 C   0  0  0  0  0  0  0  0  0  0  0  0
    8.7690  -11.7594   18.6100 N   0  0  0  0  0  0  0  0  0  0  0  0
    7.7767  -13.3393   19.9873 N   0  0  0  0  0  0  0  0  0  0  0  0
    7.2753  -14.6434   20.2540 C   0  0  0  0  0  0  0  0  0  0  0  0
    6.5819  -14.8068   21.5800 C   0  0  0  0  0  0  0  0  0  0  0  0
    6.4706  -16.2716   21.9410 C   0  0  0  0  0  0  0  0  0  0  0  0
    7.4442  -16.6697   23.0009 C   0  0  2  0  0  0  0  0  0  0  0  0
    7.1270  -18.0167   23.4462 N   0  0  0  0  0  0  0  0  0  0  0  0
    7.4509  -15.7766   24.1671 C   0  0  0  0  0  0  0  0  0  0  0  0
    6.3831  -15.1216   24.4337 O   0  0  0  0  0  0  0  0  0  0  0  0
    8.5131  -11.0882   19.3653 C   0  0  0  0  0  0  0  0  0  0  0  0
    5.7795  -12.4589   27.2848 C   0  0  1  0  0  0  0  0  0  0  0  0
    7.1737  -12.8099   26.9110 C   0  0  0  0  0  0  0  0  0  0  0  0
    7.7826  -11.5920   26.1744 C   0  0  0  0  0  0  0  0  0  0  0  0
    7.4081  -13.9769   26.0536 C   0  0  2  0  0  0  0  0  0  0  0  0
    8.8021  -14.4016   25.7096 N   0  0  0  0  0  0  0  0  0  0  0  0
    8.6082  -15.6578   24.9563 C   0  0  0  0  0  0  0  0  0  0  0  0
    9.7011  -14.7125   26.8274 O   0  0  0  0  0  0  0  0  0  0  0  0
   10.6160  -13.9619   27.2087 O   0  0  0  0  0  0  0  0  0  0  0  0
  2  1  1  0
  3  2  2  0
  4  3  1  0
  5  4  2  0
  5 11  1  0
  6  5  1  0
  7  9  1  0
  7  8  1  6
  7  6  1  0
  9 10  2  0
 11 12  2  0
 12  2  1  0
 14 13  1  0
 15 14  2  0
 16 14  1  0
 17 16  1  0
 18 17  1  0
 19 18  1  0
 20 19  1  6
 20 22  1  0
 21  9  1  0
 21 20  1  0
 22 29  1  0
 22 23  2  0
 25 24  1  1
 26 25  1  0
 27 25  1  0
 28 27  1  6
 28 30  1  0
 29 28  1  0
 30 31  2  0
 30 32  1  0
M  END
$$$$
