YRL.pdb
     RDKit          3D

 32 32  0  0  1  0  0  0  0  0999 V2000
   12.2232  -21.0153   30.3683 O   0  0  0  0  0  0  0  0  0  0  0  0
   12.3030  -19.9847   29.4360 C   0  0  0  0  0  0  0  0  0  0  0  0
   11.2370  -19.6030   28.6549 C   0  0  0  0  0  0  0  0  0  0  0  0
   11.3132  -18.5864   27.7341 C   0  0  0  0  0  0  0  0  0  0  0  0
   12.4981  -17.8939   27.5575 C   0  0  0  0  0  0  0  0  0  0  0  0
   12.6722  -16.7842   26.5883 C   0  0  0  0  0  0  0  0  0  0  0  0
   12.6331  -17.3321   25.2042 C   0  0  2  0  0  0  0  0  0  0  0  0
   13.9686  -17.7099   24.7981 N   0  0  0  0  0  0  0  0  0  0  0  0
   11.9777  -16.4486   24.2336 C   0  0  0  0  0  0  0  0  0  0  0  0
   12.4001  -15.3029   23.9289 O   0  0  0  0  0  0  0  0  0  0  0  0
   13.5778  -18.2914   28.3589 C   0  0  0  0  0  0  0  0  0  0  0  0
   13.4826  -19.3078   29.2719 C   0  0  0  0  0  0  0  0  0  0  0  0
    6.7799  -13.0839   19.6436 N   0  0  0  0  0  0  0  0  0  0  0  0
    7.6052  -13.7814   18.6884 C   0  0  0  0  0  0  0  0  0  0  0  0
    7.9874  -13.2182   17.5922 N   0  0  0  0  0  0  0  0  0  0  0  0
    8.0253  -15.1171   18.9230 N   0  0  0  0  0  0  0  0  0  0  0  0
    7.6024  -15.8751   20.0497 C   0  0  0  0  0  0  0  0  0  0  0  0
    8.1431  -15.4119   21.3759 C   0  0  0  0  0  0  0  0  0  0  0  0
    9.1729  -16.3896   21.8972 C   0  0  0  0  0  0  0  0  0  0  0  0
    9.7377  -15.9696   23.2141 C   0  0  2  0  0  0  0  0  0  0  0  0
   10.7936  -16.8963   23.5879 N   0  0  0  0  0  0  0  0  0  0  0  0
    8.7468  -15.9216   24.2974 C   0  0  0  0  0  0  0  0  0  0  0  0
    8.5489  -16.9845   24.9838 O   0  0  0  0  0  0  0  0  0  0  0  0
    8.5475  -13.7965   16.9303 C   0  0  0  0  0  0  0  0  0  0  0  0
    7.9298  -12.4576   27.7353 C   0  0  2  0  0  0  0  0  0  0  0  0
    7.5342  -12.3415   26.3081 C   0  0  0  0  0  0  0  0  0  0  0  0
    6.8786  -10.9526   26.1146 C   0  0  0  0  0  0  0  0  0  0  0  0
    6.6027  -13.3254   25.7457 C   0  0  2  0  0  0  0  0  0  0  0  0
    7.0041  -14.7610   25.6057 N   0  0  0  0  0  0  0  0  0  0  0  0
    8.0451  -14.7316   24.5575 C   0  0  0  0  0  0  0  0  0  0  0  0
    5.9730  -15.7021   25.1521 O   0  0  0  0  0  0  0  0  0  0  0  0
    5.8149  -16.0354   23.9648 O   0  0  0  0  0  0  0  0  0  0  0  0
  2  1  1  0
  3  2  2  0
  4  3  1  0
  5  4  2  0
  5 11  1  0
  6  5  1  0
  7  9  1  0
  7  8  1  6
  7  6  1  0
  9 10  2  0
 11 12  2  0
 12  2  1  0
 14 13  1  0
 15 14  2  0
 16 14  1  0
 17 16  1  0
 18 17  1  0
 19 18  1  0
 20 19  1  6
 20 22  1  0
 21  9  1  0
 21 20  1  0
 22 29  1  0
 22 23  2  0
 25 24  1  6
 26 25  1  0
 27 25  1  0
 28 27  1  1
 28 30  1  0
 29 28  1  0
 30 31  2  0
 30 32  1  0
M  END
$$$$
