QYE.pdb
     RDKit          3D

 31 31  0  0  1  0  0  0  0  0999 V2000
    9.2291  -12.5935   17.7413 N   0  0  0  0  0  0  0  0  0  0  0  0
    8.0219  -13.2899   17.5227 C   0  0  0  0  0  0  0  0  0  0  0  0
    7.5571  -13.3319   16.3549 O   0  0  0  0  0  0  0  0  0  0  0  0
    7.2791  -13.9756   18.6244 C   0  0  0  0  0  0  0  0  0  0  0  0
    8.0482  -13.9064   19.9068 C   0  0  0  0  0  0  0  0  0  0  0  0
    8.3144  -15.2818   20.4822 C   0  0  2  0  0  0  0  0  0  0  0  0
    7.0824  -16.0278   20.6746 N   0  0  0  0  0  0  0  0  0  0  0  0
    8.9723  -15.1694   21.8068 C   0  0  0  0  0  0  0  0  0  0  0  0
   10.2213  -14.9647   21.9364 O   0  0  0  0  0  0  0  0  0  0  0  0
   10.5436  -14.4453   30.4510 O   0  0  0  0  0  0  0  0  0  0  0  0
    9.9110  -14.5155   29.2043 C   0  0  0  0  0  0  0  0  0  0  0  0
    9.8386  -13.3767   28.4366 C   0  0  0  0  0  0  0  0  0  0  0  0
    9.2199  -13.4234   27.2053 C   0  0  0  0  0  0  0  0  0  0  0  0
    8.6619  -14.6053   26.7165 C   0  0  0  0  0  0  0  0  0  0  0  0
    8.0047  -14.6119   25.3927 C   0  0  0  0  0  0  0  0  0  0  0  0
    8.8738  -15.2077   24.3334 C   0  0  2  0  0  0  0  0  0  0  0  0
    8.2745  -15.2794   23.0375 N   0  0  0  0  0  0  0  0  0  0  0  0
    9.4141  -16.5229   24.6745 C   0  0  0  0  0  0  0  0  0  0  0  0
    8.6530  -17.5388   24.7122 O   0  0  0  0  0  0  0  0  0  0  0  0
    8.7464  -15.7276   27.4996 C   0  0  0  0  0  0  0  0  0  0  0  0
    9.3611  -15.6914   28.7280 C   0  0  0  0  0  0  0  0  0  0  0  0
   10.7834  -16.7720   24.9818 N   0  0  0  0  0  0  0  0  0  0  0  0
   11.2766  -18.0958   25.1724 C   0  0  1  0  0  0  0  0  0  0  0  0
   12.3327  -18.5716   24.2527 C   0  0  0  0  0  0  0  0  0  0  0  0
   12.2309  -18.2976   22.8137 C   0  0  0  0  0  0  0  0  0  0  0  0
   13.4967  -18.4693   22.0765 C   0  0  0  0  0  0  0  0  0  0  0  0
   14.5482  -18.9273   22.6345 O   0  0  0  0  0  0  0  0  0  0  0  0
   11.7625  -18.2068   26.5750 C   0  0  0  0  0  0  0  0  0  0  0  0
   12.1803  -19.4166   27.1027 O   0  0  0  0  0  0  0  0  0  0  0  0
   13.6030  -18.1394   20.7353 O   0  0  0  0  0  0  0  0  0  0  0  0
   11.8056  -17.1964   27.3197 O   0  0  0  0  0  0  0  0  0  0  0  0
  2  3  2  0
  2  1  1  0
  4  2  1  0
  5  4  1  0
  6  5  1  0
  6  7  1  1
  8  6  1  0
  9  8  2  0
 10 11  1  0
 11 12  2  0
 12 13  1  0
 14 15  1  0
 14 13  2  0
 16 15  1  1
 16 17  1  0
 17  8  1  0
 18 19  2  0
 18 16  1  0
 20 14  1  0
 21 20  2  0
 21 11  1  0
 22 18  1  0
 23 22  1  0
 23 24  1  6
 25 24  1  0
 26 25  1  0
 26 27  2  0
 28 23  1  0
 29 28  1  0
 30 26  1  0
 31 28  2  0
M  END
$$$$
