QYE.pdb
     RDKit          3D

 31 31  0  0  1  0  0  0  0  0999 V2000
   12.8330  -17.5011   16.5597 N   0  0  0  0  0  0  0  0  0  0  0  0
   11.4939  -17.7839   16.9015 C   0  0  0  0  0  0  0  0  0  0  0  0
   11.0560  -18.9454   16.6991 O   0  0  0  0  0  0  0  0  0  0  0  0
   10.5814  -16.7573   17.4922 C   0  0  0  0  0  0  0  0  0  0  0  0
   10.9826  -16.4361   18.8982 C   0  0  0  0  0  0  0  0  0  0  0  0
   10.0654  -17.0883   19.9116 C   0  0  2  0  0  0  0  0  0  0  0  0
    8.7177  -17.2427   19.3907 N   0  0  0  0  0  0  0  0  0  0  0  0
    9.9716  -16.2552   21.1352 C   0  0  0  0  0  0  0  0  0  0  0  0
   10.9959  -15.8882   21.7945 O   0  0  0  0  0  0  0  0  0  0  0  0
    6.8617  -11.6978   28.0300 O   0  0  0  0  0  0  0  0  0  0  0  0
    6.9827  -12.3339   26.7890 C   0  0  0  0  0  0  0  0  0  0  0  0
    7.6935  -11.7063   25.7928 C   0  0  0  0  0  0  0  0  0  0  0  0
    7.8251  -12.3150   24.5627 C   0  0  0  0  0  0  0  0  0  0  0  0
    7.2508  -13.5598   24.3025 C   0  0  0  0  0  0  0  0  0  0  0  0
    7.4129  -14.1765   22.9691 C   0  0  0  0  0  0  0  0  0  0  0  0
    8.5986  -15.0835   22.9063 C   0  0  2  0  0  0  0  0  0  0  0  0
    8.7422  -15.7970   21.6760 N   0  0  0  0  0  0  0  0  0  0  0  0
    8.6817  -16.0348   24.0135 C   0  0  0  0  0  0  0  0  0  0  0  0
    7.9736  -17.0891   24.0077 O   0  0  0  0  0  0  0  0  0  0  0  0
    6.5470  -14.1661   25.3109 C   0  0  0  0  0  0  0  0  0  0  0  0
    6.4103  -13.5678   26.5403 C   0  0  0  0  0  0  0  0  0  0  0  0
    9.5275  -15.8717   25.1491 N   0  0  0  0  0  0  0  0  0  0  0  0
   10.1150  -16.9904   25.8090 C   0  0  1  0  0  0  0  0  0  0  0  0
   11.3431  -17.5655   25.2188 C   0  0  0  0  0  0  0  0  0  0  0  0
   12.0077  -18.7016   25.8696 C   0  0  0  0  0  0  0  0  0  0  0  0
   12.5365  -19.7089   24.9310 C   0  0  0  0  0  0  0  0  0  0  0  0
   13.1343  -20.7612   25.3335 O   0  0  0  0  0  0  0  0  0  0  0  0
   10.3860  -16.6003   27.2197 C   0  0  0  0  0  0  0  0  0  0  0  0
   10.3083  -15.2815   27.6337 O   0  0  0  0  0  0  0  0  0  0  0  0
   12.4074  -19.5582   23.5600 O   0  0  0  0  0  0  0  0  0  0  0  0
   10.6944  -17.4661   28.0756 O   0  0  0  0  0  0  0  0  0  0  0  0
  2  3  2  0
  2  1  1  0
  4  2  1  0
  5  4  1  0
  6  5  1  0
  6  7  1  6
  8  6  1  0
  9  8  2  0
 10 11  1  0
 11 12  2  0
 12 13  1  0
 14 15  1  0
 14 13  2  0
 16 15  1  6
 16 17  1  0
 17  8  1  0
 18 19  2  0
 18 16  1  0
 20 14  1  0
 21 20  2  0
 21 11  1  0
 22 18  1  0
 23 22  1  0
 23 24  1  6
 25 24  1  0
 26 25  1  0
 26 27  2  0
 28 23  1  0
 29 28  1  0
 30 26  1  0
 31 28  2  0
M  END
$$$$
