QYE.pdb
     RDKit          3D

 31 31  0  0  1  0  0  0  0  0999 V2000
    6.6154  -15.1318   17.1102 N   0  0  0  0  0  0  0  0  0  0  0  0
    7.3300  -13.9975   17.5492 C   0  0  0  0  0  0  0  0  0  0  0  0
    8.2299  -13.5307   16.8048 O   0  0  0  0  0  0  0  0  0  0  0  0
    7.0573  -13.3342   18.8612 C   0  0  0  0  0  0  0  0  0  0  0  0
    8.2091  -13.5190   19.7993 C   0  0  0  0  0  0  0  0  0  0  0  0
    8.1539  -14.8570   20.5067 C   0  0  2  0  0  0  0  0  0  0  0  0
    6.7860  -15.2513   20.7976 N   0  0  0  0  0  0  0  0  0  0  0  0
    8.8766  -14.7878   21.8003 C   0  0  0  0  0  0  0  0  0  0  0  0
   10.0990  -14.4456   21.8848 O   0  0  0  0  0  0  0  0  0  0  0  0
   10.8096  -14.8741   30.4086 O   0  0  0  0  0  0  0  0  0  0  0  0
   10.1232  -14.8291   29.1895 C   0  0  0  0  0  0  0  0  0  0  0  0
    9.6318  -16.0022   28.6659 C   0  0  0  0  0  0  0  0  0  0  0  0
    8.9526  -15.9808   27.4661 C   0  0  0  0  0  0  0  0  0  0  0  0
    8.7509  -14.7907   26.7661 C   0  0  0  0  0  0  0  0  0  0  0  0
    8.0201  -14.8118   25.4816 C   0  0  0  0  0  0  0  0  0  0  0  0
    8.9308  -15.0284   24.3170 C   0  0  2  0  0  0  0  0  0  0  0  0
    8.2751  -15.0946   23.0484 N   0  0  0  0  0  0  0  0  0  0  0  0
    9.8083  -16.1900   24.4534 C   0  0  0  0  0  0  0  0  0  0  0  0
    9.3525  -17.3623   24.2774 O   0  0  0  0  0  0  0  0  0  0  0  0
    9.2498  -13.6342   27.3079 C   0  0  0  0  0  0  0  0  0  0  0  0
    9.9278  -13.6449   28.5029 C   0  0  0  0  0  0  0  0  0  0  0  0
   11.1932  -16.1145   24.7816 N   0  0  0  0  0  0  0  0  0  0  0  0
   12.0630  -17.2306   24.6091 C   0  0  1  0  0  0  0  0  0  0  0  0
   13.3081  -17.0153   23.8403 C   0  0  0  0  0  0  0  0  0  0  0  0
   14.2925  -18.0981   23.7193 C   0  0  0  0  0  0  0  0  0  0  0  0
   15.1657  -17.9892   22.5357 C   0  0  0  0  0  0  0  0  0  0  0  0
   16.1089  -18.8181   22.3119 O   0  0  0  0  0  0  0  0  0  0  0  0
   12.4057  -17.7580   25.9583 C   0  0  0  0  0  0  0  0  0  0  0  0
   12.9919  -19.0015   26.1218 O   0  0  0  0  0  0  0  0  0  0  0  0
   15.0009  -16.9755   21.6061 O   0  0  0  0  0  0  0  0  0  0  0  0
   12.1692  -17.0813   26.9895 O   0  0  0  0  0  0  0  0  0  0  0  0
  2  3  2  0
  2  1  1  0
  4  2  1  0
  5  4  1  0
  6  5  1  0
  6  7  1  1
  8  6  1  0
  9  8  2  0
 10 11  1  0
 11 12  2  0
 12 13  1  0
 14 15  1  0
 14 13  2  0
 16 15  1  1
 16 17  1  0
 17  8  1  0
 18 19  2  0
 18 16  1  0
 20 14  1  0
 21 20  2  0
 21 11  1  0
 22 18  1  0
 23 22  1  0
 23 24  1  1
 25 24  1  0
 26 25  1  0
 26 27  2  0
 28 23  1  0
 29 28  1  0
 30 26  1  0
 31 28  2  0
M  END
$$$$
