QYE.pdb
     RDKit          3D

 31 31  0  0  1  0  0  0  0  0999 V2000
    8.5397  -13.4436   16.4130 N   0  0  0  0  0  0  0  0  0  0  0  0
    7.7589  -14.6089   16.5620 C   0  0  0  0  0  0  0  0  0  0  0  0
    6.7669  -14.7668   15.8052 O   0  0  0  0  0  0  0  0  0  0  0  0
    8.0668  -15.6573   17.5827 C   0  0  0  0  0  0  0  0  0  0  0  0
    9.2921  -15.2954   18.3628 C   0  0  0  0  0  0  0  0  0  0  0  0
    9.5448  -16.2622   19.5007 C   0  0  2  0  0  0  0  0  0  0  0  0
    8.4982  -17.2661   19.5909 N   0  0  0  0  0  0  0  0  0  0  0  0
    9.5744  -15.5397   20.7958 C   0  0  0  0  0  0  0  0  0  0  0  0
   10.5066  -14.7325   21.1090 O   0  0  0  0  0  0  0  0  0  0  0  0
    6.8702  -11.5148   28.1575 O   0  0  0  0  0  0  0  0  0  0  0  0
    6.9370  -12.2134   26.9463 C   0  0  0  0  0  0  0  0  0  0  0  0
    6.4345  -13.4926   26.8945 C   0  0  0  0  0  0  0  0  0  0  0  0
    6.4902  -14.1988   25.7115 C   0  0  0  0  0  0  0  0  0  0  0  0
    7.0476  -13.6438   24.5591 C   0  0  0  0  0  0  0  0  0  0  0  0
    7.0906  -14.4359   23.3120 C   0  0  0  0  0  0  0  0  0  0  0  0
    8.4745  -14.8893   22.9780 C   0  0  2  0  0  0  0  0  0  0  0  0
    8.5751  -15.6827   21.7932 N   0  0  0  0  0  0  0  0  0  0  0  0
    9.1539  -15.5863   24.0691 C   0  0  0  0  0  0  0  0  0  0  0  0
    9.3228  -15.0130   25.1897 O   0  0  0  0  0  0  0  0  0  0  0  0
    7.5420  -12.3672   24.6351 C   0  0  0  0  0  0  0  0  0  0  0  0
    7.4911  -11.6551   25.8092 C   0  0  0  0  0  0  0  0  0  0  0  0
    9.6654  -16.9136   23.9773 N   0  0  0  0  0  0  0  0  0  0  0  0
   10.2273  -17.5767   25.1071 C   0  0  1  0  0  0  0  0  0  0  0  0
   10.1240  -19.0513   25.1563 C   0  0  0  0  0  0  0  0  0  0  0  0
   10.8290  -19.8019   26.2031 C   0  0  0  0  0  0  0  0  0  0  0  0
   10.3578  -21.1893   26.3709 C   0  0  0  0  0  0  0  0  0  0  0  0
   10.5355  -22.0778   25.4732 O   0  0  0  0  0  0  0  0  0  0  0  0
   11.6595  -17.1828   25.2047 C   0  0  0  0  0  0  0  0  0  0  0  0
   12.2969  -17.0684   26.4283 O   0  0  0  0  0  0  0  0  0  0  0  0
    9.6965  -21.5947   27.5186 O   0  0  0  0  0  0  0  0  0  0  0  0
   12.3297  -16.9428   24.1700 O   0  0  0  0  0  0  0  0  0  0  0  0
  2  3  2  0
  2  1  1  0
  4  2  1  0
  5  4  1  0
  6  5  1  0
  6  7  1  1
  8  6  1  0
  9  8  2  0
 10 11  1  0
 11 12  2  0
 12 13  1  0
 14 15  1  0
 14 13  2  0
 16 15  1  1
 16 17  1  0
 17  8  1  0
 18 19  2  0
 18 16  1  0
 20 14  1  0
 21 20  2  0
 21 11  1  0
 22 18  1  0
 23 22  1  0
 23 24  1  6
 25 24  1  0
 26 25  1  0
 26 27  2  0
 28 23  1  0
 29 28  1  0
 30 26  1  0
 31 28  2  0
M  END
$$$$
