QYE.pdb
     RDKit          3D

 31 31  0  0  1  0  0  0  0  0999 V2000
   13.8545  -19.3559   19.8250 N   0  0  0  0  0  0  0  0  0  0  0  0
   13.0644  -19.1763   18.6703 C   0  0  0  0  0  0  0  0  0  0  0  0
   13.5212  -19.5650   17.5649 O   0  0  0  0  0  0  0  0  0  0  0  0
   11.7106  -18.5430   18.7136 C   0  0  0  0  0  0  0  0  0  0  0  0
   11.3616  -18.1307   20.1097 C   0  0  0  0  0  0  0  0  0  0  0  0
    9.9719  -17.5345   20.1931 C   0  0  2  0  0  0  0  0  0  0  0  0
    9.6482  -16.7659   19.0033 N   0  0  0  0  0  0  0  0  0  0  0  0
    9.8732  -16.6140   21.3521 C   0  0  0  0  0  0  0  0  0  0  0  0
   10.8918  -16.2288   22.0100 O   0  0  0  0  0  0  0  0  0  0  0  0
    6.6409  -11.6184   27.8848 O   0  0  0  0  0  0  0  0  0  0  0  0
    6.8110  -12.2903   26.6686 C   0  0  0  0  0  0  0  0  0  0  0  0
    6.1656  -13.4904   26.4825 C   0  0  0  0  0  0  0  0  0  0  0  0
    6.3193  -14.1691   25.2922 C   0  0  0  0  0  0  0  0  0  0  0  0
    7.1188  -13.6648   24.2658 C   0  0  0  0  0  0  0  0  0  0  0  0
    7.2595  -14.4254   23.0064 C   0  0  0  0  0  0  0  0  0  0  0  0
    8.4961  -15.2637   22.9877 C   0  0  2  0  0  0  0  0  0  0  0  0
    8.6451  -16.0852   21.8274 N   0  0  0  0  0  0  0  0  0  0  0  0
    8.6717  -16.0951   24.1776 C   0  0  0  0  0  0  0  0  0  0  0  0
    7.9426  -17.1193   24.3576 O   0  0  0  0  0  0  0  0  0  0  0  0
    7.7521  -12.4667   24.4744 C   0  0  0  0  0  0  0  0  0  0  0  0
    7.6052  -11.7826   25.6570 C   0  0  0  0  0  0  0  0  0  0  0  0
    9.6346  -15.8421   25.1976 N   0  0  0  0  0  0  0  0  0  0  0  0
    9.7878  -16.7166   26.3128 C   0  0  1  0  0  0  0  0  0  0  0  0
   10.9121  -17.6770   26.2798 C   0  0  0  0  0  0  0  0  0  0  0  0
   11.5795  -17.9823   25.0081 C   0  0  0  0  0  0  0  0  0  0  0  0
   12.6997  -18.9341   25.1286 C   0  0  0  0  0  0  0  0  0  0  0  0
   12.9306  -19.5746   26.2071 O   0  0  0  0  0  0  0  0  0  0  0  0
    9.8937  -15.8807   27.5400 C   0  0  0  0  0  0  0  0  0  0  0  0
    9.9452  -14.4989   27.4723 O   0  0  0  0  0  0  0  0  0  0  0  0
   13.5583  -19.1784   24.0694 O   0  0  0  0  0  0  0  0  0  0  0  0
    9.9391  -16.4140   28.6761 O   0  0  0  0  0  0  0  0  0  0  0  0
  2  3  2  0
  2  1  1  0
  4  2  1  0
  5  4  1  0
  6  5  1  0
  6  7  1  6
  8  6  1  0
  9  8  2  0
 10 11  1  0
 11 12  2  0
 12 13  1  0
 14 15  1  0
 14 13  2  0
 16 15  1  1
 16 17  1  0
 17  8  1  0
 18 19  2  0
 18 16  1  0
 20 14  1  0
 21 20  2  0
 21 11  1  0
 22 18  1  0
 23 22  1  0
 23 24  1  6
 25 24  1  0
 26 25  1  0
 26 27  2  0
 28 23  1  0
 29 28  1  0
 30 26  1  0
 31 28  2  0
M  END
$$$$
