SDL.pdb
     RDKit          3D

 23 22  0  0  1  0  0  0  0  0999 V2000
   16.0765  -11.5217  -14.5032 O   0  0  0  0  0  0  0  0  0  0  0  0
   16.7077  -10.2859  -14.4434 C   0  0  0  0  0  0  0  0  0  0  0  0
   15.7167   -9.1528  -14.3925 C   0  0  2  0  0  0  0  0  0  0  0  0
   15.1386   -8.9255  -15.7016 N   0  0  0  0  0  0  0  0  0  0  0  0
   16.2699   -7.8772  -13.9189 C   0  0  0  0  0  0  0  0  0  0  0  0
   16.7432   -7.0456  -14.7554 O   0  0  0  0  0  0  0  0  0  0  0  0
   16.3262   -7.4756  -12.5702 N   0  0  0  0  0  0  0  0  0  0  0  0
   16.8426   -6.1563  -12.1339 C   0  0  1  0  0  0  0  0  0  0  0  0
   16.2948   -5.8351  -10.7973 C   0  0  0  0  0  0  0  0  0  0  0  0
   16.7425   -4.6322  -10.1244 C   0  0  0  0  0  0  0  0  0  0  0  0
   17.5010   -3.7876  -10.6104 O   0  0  0  0  0  0  0  0  0  0  0  0
   18.3298   -6.4070  -12.0822 C   0  0  0  0  0  0  0  0  0  0  0  0
   18.7648   -7.3942  -11.3813 O   0  0  0  0  0  0  0  0  0  0  0  0
   16.3160   -4.3417   -8.8072 O   0  0  0  0  0  0  0  0  0  0  0  0
   22.7887   -7.5730  -14.8356 C   0  0  0  0  0  0  0  0  0  0  0  0
   22.1804   -7.9949  -13.4977 C   0  0  2  0  0  0  0  0  0  0  0  0
   22.3332   -9.4636  -13.3184 C   0  0  0  0  0  0  0  0  0  0  0  0
   20.7734   -7.4876  -13.4067 C   0  0  0  0  0  0  0  0  0  0  0  0
   20.6979   -6.1232  -12.7545 C   0  0  2  0  0  0  0  0  0  0  0  0
   19.3144   -5.6686  -12.7341 N   0  0  0  0  0  0  0  0  0  0  0  0
   21.4836   -5.1193  -13.5082 C   0  0  0  0  0  0  0  0  0  0  0  0
   20.9568   -4.2370  -14.4330 O   0  0  0  0  0  0  0  0  0  0  0  0
   22.7201   -5.0455  -13.3119 O   0  0  0  0  0  0  0  0  0  0  0  0
  2  1  1  0
  3  4  1  6
  3  2  1  0
  5  6  2  0
  5  3  1  0
  7  5  1  0
  8  7  1  0
  8 12  1  0
  8  9  1  1
 10  9  1  0
 10 14  1  0
 11 10  2  0
 12 20  1  0
 13 12  2  0
 16 15  1  6
 16 17  1  0
 18 16  1  0
 19 18  1  6
 20 19  1  0
 21 22  1  0
 21 19  1  0
 23 21  2  0
M  END
$$$$
