SDL.pdb
     RDKit          3D

 23 22  0  0  1  0  0  0  0  0999 V2000
   19.3312  -13.9611  -15.6029 O   0  0  0  0  0  0  0  0  0  0  0  0
   18.5556  -13.9491  -16.7550 C   0  0  0  0  0  0  0  0  0  0  0  0
   19.3916  -14.1306  -17.9947 C   0  0  2  0  0  0  0  0  0  0  0  0
   20.1480  -15.3643  -17.9203 N   0  0  0  0  0  0  0  0  0  0  0  0
   20.3385  -13.0393  -18.2591 C   0  0  0  0  0  0  0  0  0  0  0  0
   21.5354  -13.3091  -18.5908 O   0  0  0  0  0  0  0  0  0  0  0  0
   20.0297  -11.6677  -18.1754 N   0  0  0  0  0  0  0  0  0  0  0  0
   20.9590  -10.5957  -18.6051 C   0  0  1  0  0  0  0  0  0  0  0  0
   20.1966   -9.5430  -19.3125 C   0  0  0  0  0  0  0  0  0  0  0  0
   20.8865   -8.3424  -19.7402 C   0  0  0  0  0  0  0  0  0  0  0  0
   21.9107   -8.3198  -20.4296 O   0  0  0  0  0  0  0  0  0  0  0  0
   21.4967  -10.1033  -17.2839 C   0  0  0  0  0  0  0  0  0  0  0  0
   20.7994  -10.3029  -16.2213 O   0  0  0  0  0  0  0  0  0  0  0  0
   20.4029   -7.0641  -19.3748 O   0  0  0  0  0  0  0  0  0  0  0  0
   24.8118  -11.1008  -14.4829 C   0  0  0  0  0  0  0  0  0  0  0  0
   25.2557  -10.2989  -15.7068 C   0  0  2  0  0  0  0  0  0  0  0  0
   26.7407  -10.2952  -15.7923 C   0  0  0  0  0  0  0  0  0  0  0  0
   24.6187   -8.9429  -15.6733 C   0  0  0  0  0  0  0  0  0  0  0  0
   23.1082   -9.0181  -15.7456 C   0  0  2  0  0  0  0  0  0  0  0  0
   22.7046   -9.4408  -17.0797 N   0  0  0  0  0  0  0  0  0  0  0  0
   22.4882   -7.6973  -15.4923 C   0  0  0  0  0  0  0  0  0  0  0  0
   22.1343   -7.2177  -14.2450 O   0  0  0  0  0  0  0  0  0  0  0  0
   22.2555   -6.9404  -16.4649 O   0  0  0  0  0  0  0  0  0  0  0  0
  2  1  1  0
  3  4  1  1
  3  2  1  0
  5  6  2  0
  5  3  1  0
  7  5  1  0
  8  7  1  0
  8 12  1  0
  8  9  1  1
 10  9  1  0
 10 14  1  0
 11 10  2  0
 12 20  1  0
 13 12  2  0
 16 15  1  1
 16 17  1  0
 18 16  1  0
 19 18  1  6
 20 19  1  0
 21 22  1  0
 21 19  1  0
 23 21  2  0
M  END
$$$$
