SDL.pdb
     RDKit          3D

 23 22  0  0  1  0  0  0  0  0999 V2000
   43.1983  -11.4298  -12.5518 O   0  0  0  0  0  0  0  0  0  0  0  0
   42.1828  -10.8320  -11.8165 C   0  0  0  0  0  0  0  0  0  0  0  0
   41.3218  -11.8519  -11.1187 C   0  0  2  0  0  0  0  0  0  0  0  0
   40.3575  -11.1976  -10.2575 N   0  0  0  0  0  0  0  0  0  0  0  0
   42.0631  -12.8241  -10.3045 C   0  0  0  0  0  0  0  0  0  0  0  0
   42.3359  -12.5543   -9.0928 O   0  0  0  0  0  0  0  0  0  0  0  0
   42.5173  -14.0765  -10.7614 N   0  0  0  0  0  0  0  0  0  0  0  0
   43.3290  -15.0003   -9.9335 C   0  0  1  0  0  0  0  0  0  0  0  0
   42.7826  -16.3704  -10.0521 C   0  0  0  0  0  0  0  0  0  0  0  0
   43.4087  -17.4440   -9.3068 C   0  0  0  0  0  0  0  0  0  0  0  0
   44.3788  -17.3137   -8.5539 O   0  0  0  0  0  0  0  0  0  0  0  0
   44.6876  -14.8832  -10.5797 C   0  0  0  0  0  0  0  0  0  0  0  0
   44.7624  -14.8896  -11.8640 O   0  0  0  0  0  0  0  0  0  0  0  0
   42.9213  -18.7686   -9.4034 O   0  0  0  0  0  0  0  0  0  0  0  0
   50.3819  -12.7713  -10.0532 C   0  0  0  0  0  0  0  0  0  0  0  0
   49.4153  -13.6948  -10.7953 C   0  0  2  0  0  0  0  0  0  0  0  0
   49.2760  -13.2453  -12.2064 C   0  0  0  0  0  0  0  0  0  0  0  0
   48.1304  -13.7915  -10.0304 C   0  0  0  0  0  0  0  0  0  0  0  0
   47.1618  -14.7704  -10.6599 C   0  0  2  0  0  0  0  0  0  0  0  0
   45.9077  -14.7593   -9.9195 N   0  0  0  0  0  0  0  0  0  0  0  0
   47.6884  -16.1539  -10.6197 C   0  0  0  0  0  0  0  0  0  0  0  0
   47.2216  -17.1522   -9.7850 O   0  0  0  0  0  0  0  0  0  0  0  0
   48.6282  -16.4673  -11.3887 O   0  0  0  0  0  0  0  0  0  0  0  0
  2  1  1  0
  3  4  1  1
  3  2  1  0
  5  6  2  0
  5  3  1  0
  7  5  1  0
  8  7  1  0
  8 12  1  0
  8  9  1  6
 10  9  1  0
 10 14  1  0
 11 10  2  0
 12 20  1  0
 13 12  2  0
 16 15  1  1
 16 17  1  0
 18 16  1  0
 19 18  1  1
 20 19  1  0
 21 22  1  0
 21 19  1  0
 23 21  2  0
M  END
$$$$
