SDL.pdb
     RDKit          3D

 23 22  0  0  1  0  0  0  0  0999 V2000
   19.4090  -10.4641  -20.7173 O   0  0  0  0  0  0  0  0  0  0  0  0
   19.1277   -9.6394  -19.6357 C   0  0  0  0  0  0  0  0  0  0  0  0
   19.8475  -10.0846  -18.3898 C   0  0  2  0  0  0  0  0  0  0  0  0
   19.3194  -11.3510  -17.9240 N   0  0  0  0  0  0  0  0  0  0  0  0
   19.7822   -9.1333  -17.2726 C   0  0  0  0  0  0  0  0  0  0  0  0
   18.6877   -8.9682  -16.6479 O   0  0  0  0  0  0  0  0  0  0  0  0
   20.8632   -8.3568  -16.8123 N   0  0  0  0  0  0  0  0  0  0  0  0
   20.7718   -7.4404  -15.6506 C   0  0  1  0  0  0  0  0  0  0  0  0
   21.9790   -7.5965  -14.8092 C   0  0  0  0  0  0  0  0  0  0  0  0
   22.0276   -8.6750  -13.8425 C   0  0  0  0  0  0  0  0  0  0  0  0
   21.0437   -9.1838  -13.2966 O   0  0  0  0  0  0  0  0  0  0  0  0
   20.7308   -6.0901  -16.3233 C   0  0  0  0  0  0  0  0  0  0  0  0
   21.4499   -5.9021  -17.3732 O   0  0  0  0  0  0  0  0  0  0  0  0
   23.2657   -9.2349  -13.4486 O   0  0  0  0  0  0  0  0  0  0  0  0
   18.4674   -1.6480  -18.3204 C   0  0  0  0  0  0  0  0  0  0  0  0
   19.3038   -2.7869  -18.9048 C   0  0  2  0  0  0  0  0  0  0  0  0
   18.8946   -3.0383  -20.3126 C   0  0  0  0  0  0  0  0  0  0  0  0
   19.2270   -3.9784  -17.9994 C   0  0  0  0  0  0  0  0  0  0  0  0
   19.9760   -3.7604  -16.7016 C   0  0  2  0  0  0  0  0  0  0  0  0
   19.9728   -4.9920  -15.9243 N   0  0  0  0  0  0  0  0  0  0  0  0
   19.3332   -2.7128  -15.8756 C   0  0  0  0  0  0  0  0  0  0  0  0
   19.7312   -1.3897  -15.8288 O   0  0  0  0  0  0  0  0  0  0  0  0
   18.3548   -3.0242  -15.1554 O   0  0  0  0  0  0  0  0  0  0  0  0
  2  1  1  0
  3  4  1  1
  3  2  1  0
  5  6  2  0
  5  3  1  0
  7  5  1  0
  8  7  1  0
  8 12  1  0
  8  9  1  1
 10  9  1  0
 10 14  1  0
 11 10  2  0
 12 20  1  0
 13 12  2  0
 16 15  1  1
 16 17  1  0
 18 16  1  0
 19 18  1  6
 20 19  1  0
 21 22  1  0
 21 19  1  0
 23 21  2  0
M  END
$$$$
