SDL.pdb
     RDKit          3D

 23 22  0  0  1  0  0  0  0  0999 V2000
   29.1675  -21.6724  -14.8434 O   0  0  0  0  0  0  0  0  0  0  0  0
   27.8176  -21.8135  -15.1381 C   0  0  0  0  0  0  0  0  0  0  0  0
   27.1365  -20.4795  -15.2963 C   0  0  2  0  0  0  0  0  0  0  0  0
   28.1130  -19.4372  -15.5407 N   0  0  0  0  0  0  0  0  0  0  0  0
   26.3208  -20.0689  -14.1459 C   0  0  0  0  0  0  0  0  0  0  0  0
   26.5766  -18.9763  -13.5490 O   0  0  0  0  0  0  0  0  0  0  0  0
   25.2390  -20.8037  -13.6230 N   0  0  0  0  0  0  0  0  0  0  0  0
   24.3911  -20.3223  -12.5063 C   0  0  1  0  0  0  0  0  0  0  0  0
   23.0091  -20.8168  -12.6942 C   0  0  0  0  0  0  0  0  0  0  0  0
   22.1703  -20.1947  -13.6989 C   0  0  0  0  0  0  0  0  0  0  0  0
   21.4724  -20.8026  -14.5164 O   0  0  0  0  0  0  0  0  0  0  0  0
   25.0562  -20.9636  -11.3131 C   0  0  0  0  0  0  0  0  0  0  0  0
   26.1698  -21.5836  -11.4871 O   0  0  0  0  0  0  0  0  0  0  0  0
   22.0988  -18.7859  -13.8069 O   0  0  0  0  0  0  0  0  0  0  0  0
   26.7197  -20.2661   -6.3716 C   0  0  0  0  0  0  0  0  0  0  0  0
   27.4775  -20.2150   -7.6987 C   0  0  2  0  0  0  0  0  0  0  0  0
   28.5450  -19.1817   -7.6271 C   0  0  0  0  0  0  0  0  0  0  0  0
   26.5030  -20.0436   -8.8239 C   0  0  0  0  0  0  0  0  0  0  0  0
   25.4924  -21.1697   -8.8825 C   0  0  2  0  0  0  0  0  0  0  0  0
   24.5863  -20.9536  -10.0021 N   0  0  0  0  0  0  0  0  0  0  0  0
   24.6713  -21.2241   -7.6514 C   0  0  0  0  0  0  0  0  0  0  0  0
   24.8149  -22.1638   -6.6476 O   0  0  0  0  0  0  0  0  0  0  0  0
   23.7716  -20.3664   -7.4845 O   0  0  0  0  0  0  0  0  0  0  0  0
  2  1  1  0
  3  4  1  1
  3  2  1  0
  5  6  2  0
  5  3  1  0
  7  5  1  0
  8  7  1  0
  8 12  1  0
  8  9  1  6
 10  9  1  0
 10 14  1  0
 11 10  2  0
 12 20  1  0
 13 12  2  0
 16 15  1  1
 16 17  1  0
 18 16  1  0
 19 18  1  1
 20 19  1  0
 21 22  1  0
 21 19  1  0
 23 21  2  0
M  END
$$$$
