SDL.pdb
     RDKit          3D

 23 22  0  0  1  0  0  0  0  0999 V2000
   13.1809  -10.4732  -13.0095 O   0  0  0  0  0  0  0  0  0  0  0  0
   14.3784  -10.5047  -13.7125 C   0  0  0  0  0  0  0  0  0  0  0  0
   14.1567  -10.4251  -15.2001 C   0  0  2  0  0  0  0  0  0  0  0  0
   13.6308  -11.6784  -15.7024 N   0  0  0  0  0  0  0  0  0  0  0  0
   15.3569  -10.0974  -15.9807 C   0  0  0  0  0  0  0  0  0  0  0  0
   16.0805  -11.0322  -16.4475 O   0  0  0  0  0  0  0  0  0  0  0  0
   15.7968   -8.7912  -16.2706 N   0  0  0  0  0  0  0  0  0  0  0  0
   16.9887   -8.4987  -17.1020 C   0  0  1  0  0  0  0  0  0  0  0  0
   16.7659   -7.2414  -17.8500 C   0  0  0  0  0  0  0  0  0  0  0  0
   17.8575   -6.6776  -18.6185 C   0  0  0  0  0  0  0  0  0  0  0  0
   18.4395   -5.6209  -18.3550 O   0  0  0  0  0  0  0  0  0  0  0  0
   18.0655   -8.3429  -16.0564 C   0  0  0  0  0  0  0  0  0  0  0  0
   17.7325   -7.9276  -14.8852 O   0  0  0  0  0  0  0  0  0  0  0  0
   18.3433   -7.3373  -19.7719 O   0  0  0  0  0  0  0  0  0  0  0  0
   23.5205  -10.4250  -14.2715 C   0  0  0  0  0  0  0  0  0  0  0  0
   22.3889   -9.4225  -14.0426 C   0  0  2  0  0  0  0  0  0  0  0  0
   21.8648   -9.5656  -12.6579 C   0  0  0  0  0  0  0  0  0  0  0  0
   21.3650   -9.5691  -15.1268 C   0  0  0  0  0  0  0  0  0  0  0  0
   20.3576   -8.4387  -15.1194 C   0  0  2  0  0  0  0  0  0  0  0  0
   19.4219   -8.6126  -16.2218 N   0  0  0  0  0  0  0  0  0  0  0  0
   21.0173   -7.1253  -15.3006 C   0  0  0  0  0  0  0  0  0  0  0  0
   21.2427   -6.5169  -16.5214 O   0  0  0  0  0  0  0  0  0  0  0  0
   21.4109   -6.4998  -14.2873 O   0  0  0  0  0  0  0  0  0  0  0  0
  2  1  1  0
  3  4  1  6
  3  2  1  0
  5  6  2  0
  5  3  1  0
  7  5  1  0
  8  7  1  0
  8 12  1  0
  8  9  1  1
 10  9  1  0
 10 14  1  0
 11 10  2  0
 12 20  1  0
 13 12  2  0
 16 15  1  6
 16 17  1  0
 18 16  1  0
 19 18  1  6
 20 19  1  0
 21 22  1  0
 21 19  1  0
 23 21  2  0
M  END
$$$$
