SDL.pdb
     RDKit          3D

 23 22  0  0  1  0  0  0  0  0999 V2000
   13.4766  -11.4491  -14.1136 O   0  0  0  0  0  0  0  0  0  0  0  0
   14.0562  -12.6447  -14.5180 C   0  0  0  0  0  0  0  0  0  0  0  0
   15.3897  -12.4240  -15.1826 C   0  0  2  0  0  0  0  0  0  0  0  0
   15.9802  -13.6899  -15.5677 N   0  0  0  0  0  0  0  0  0  0  0  0
   16.3707  -11.7030  -14.3610 C   0  0  0  0  0  0  0  0  0  0  0  0
   17.0645  -12.3369  -13.5053 O   0  0  0  0  0  0  0  0  0  0  0  0
   16.6229  -10.3194  -14.4373 N   0  0  0  0  0  0  0  0  0  0  0  0
   17.5405   -9.6066  -13.5167 C   0  0  1  0  0  0  0  0  0  0  0  0
   18.4917   -8.7942  -14.3074 C   0  0  0  0  0  0  0  0  0  0  0  0
   19.6894   -9.4224  -14.8278 C   0  0  0  0  0  0  0  0  0  0  0  0
   20.4922  -10.0820  -14.1605 O   0  0  0  0  0  0  0  0  0  0  0  0
   16.5837   -8.7412  -12.7338 C   0  0  0  0  0  0  0  0  0  0  0  0
   15.5417   -8.2787  -13.3297 O   0  0  0  0  0  0  0  0  0  0  0  0
   20.0251   -9.3109  -16.1976 O   0  0  0  0  0  0  0  0  0  0  0  0
   15.1714   -6.7534   -7.0903 C   0  0  0  0  0  0  0  0  0  0  0  0
   14.7703   -6.8152   -8.5645 C   0  0  2  0  0  0  0  0  0  0  0  0
   13.3154   -7.1037   -8.6766 C   0  0  0  0  0  0  0  0  0  0  0  0
   15.6652   -7.7767   -9.2856 C   0  0  0  0  0  0  0  0  0  0  0  0
   15.7363   -7.4891  -10.7704 C   0  0  2  0  0  0  0  0  0  0  0  0
   16.7043   -8.3809  -11.3938 N   0  0  0  0  0  0  0  0  0  0  0  0
   16.1799   -6.1006  -11.0317 C   0  0  0  0  0  0  0  0  0  0  0  0
   15.3336   -5.0285  -11.2450 O   0  0  0  0  0  0  0  0  0  0  0  0
   17.4090   -5.8538  -11.0687 O   0  0  0  0  0  0  0  0  0  0  0  0
  2  1  1  0
  3  4  1  1
  3  2  1  0
  5  6  2  0
  5  3  1  0
  7  5  1  0
  8  7  1  0
  8 12  1  0
  8  9  1  6
 10  9  1  0
 10 14  1  0
 11 10  2  0
 12 20  1  0
 13 12  2  0
 16 15  1  1
 16 17  1  0
 18 16  1  0
 19 18  1  1
 20 19  1  0
 21 22  1  0
 21 19  1  0
 23 21  2  0
M  END
$$$$
