SDL.pdb
     RDKit          3D

 23 22  0  0  1  0  0  0  0  0999 V2000
   12.6046  -13.3428  -14.4286 O   0  0  0  0  0  0  0  0  0  0  0  0
   13.4463  -12.4932  -13.7223 C   0  0  0  0  0  0  0  0  0  0  0  0
   14.8533  -12.5257  -14.2589 C   0  0  2  0  0  0  0  0  0  0  0  0
   15.4129  -13.8566  -14.1350 N   0  0  0  0  0  0  0  0  0  0  0  0
   15.7779  -11.5881  -13.6081 C   0  0  0  0  0  0  0  0  0  0  0  0
   16.4001  -11.9424  -12.5580 O   0  0  0  0  0  0  0  0  0  0  0  0
   16.0486  -10.2814  -14.0584 N   0  0  0  0  0  0  0  0  0  0  0  0
   17.0385   -9.3861  -13.4134 C   0  0  1  0  0  0  0  0  0  0  0  0
   17.7068   -8.5691  -14.4505 C   0  0  0  0  0  0  0  0  0  0  0  0
   18.6457   -7.5439  -14.0411 C   0  0  0  0  0  0  0  0  0  0  0  0
   18.3494   -6.5142  -13.4273 O   0  0  0  0  0  0  0  0  0  0  0  0
   16.1599   -8.5448  -12.5202 C   0  0  0  0  0  0  0  0  0  0  0  0
   14.9931   -8.2073  -12.9439 O   0  0  0  0  0  0  0  0  0  0  0  0
   20.0238   -7.6694  -14.3355 O   0  0  0  0  0  0  0  0  0  0  0  0
   15.0146   -6.8531   -6.8030 C   0  0  0  0  0  0  0  0  0  0  0  0
   14.6042   -6.7311   -8.2708 C   0  0  2  0  0  0  0  0  0  0  0  0
   13.1321   -6.9033   -8.3958 C   0  0  0  0  0  0  0  0  0  0  0  0
   15.4256   -7.6718   -9.0988 C   0  0  0  0  0  0  0  0  0  0  0  0
   15.5801   -7.1921  -10.5266 C   0  0  2  0  0  0  0  0  0  0  0  0
   16.4798   -8.0834  -11.2457 N   0  0  0  0  0  0  0  0  0  0  0  0
   16.1658   -5.8330  -10.5801 C   0  0  0  0  0  0  0  0  0  0  0  0
   15.4357   -4.6609  -10.6456 O   0  0  0  0  0  0  0  0  0  0  0  0
   17.4138   -5.7099  -10.5680 O   0  0  0  0  0  0  0  0  0  0  0  0
  2  1  1  0
  3  4  1  1
  3  2  1  0
  5  6  2  0
  5  3  1  0
  7  5  1  0
  8  7  1  0
  8 12  1  0
  8  9  1  6
 10  9  1  0
 10 14  1  0
 11 10  2  0
 12 20  1  0
 13 12  2  0
 16 15  1  1
 16 17  1  0
 18 16  1  0
 19 18  1  1
 20 19  1  0
 21 22  1  0
 21 19  1  0
 23 21  2  0
M  END
$$$$
