TTM.pdb
     RDKit          3D

 23 22  0  0  1  0  0  0  0  0999 V2000
   18.1930  -13.5991  -15.1879 C   0  0  0  0  0  0  0  0  0  0  0  0
   17.3968  -13.9030  -16.4271 C   0  0  1  0  0  0  0  0  0  0  0  0
   16.6386  -15.0537  -16.1658 O   0  0  0  0  0  0  0  0  0  0  0  0
   16.4676  -12.7370  -16.7344 C   0  0  2  0  0  0  0  0  0  0  0  0
   15.5968  -13.1304  -17.8003 N   0  0  0  0  0  0  0  0  0  0  0  0
   17.2357  -11.5050  -17.0361 C   0  0  0  0  0  0  0  0  0  0  0  0
   17.8370  -11.4668  -18.1415 O   0  0  0  0  0  0  0  0  0  0  0  0
   16.2588   -7.9458  -17.2259 C   0  0  0  0  0  0  0  0  0  0  0  0
   17.3866   -8.0126  -16.2298 C   0  0  1  0  0  0  0  0  0  0  0  0
   16.8586   -8.1463  -14.9315 O   0  0  0  0  0  0  0  0  0  0  0  0
   18.1606   -9.2946  -16.4961 C   0  0  2  0  0  0  0  0  0  0  0  0
   17.3132  -10.3985  -16.1452 N   0  0  0  0  0  0  0  0  0  0  0  0
   19.3962   -9.2417  -15.6740 C   0  0  0  0  0  0  0  0  0  0  0  0
   19.3604   -9.8019  -14.5501 O   0  0  0  0  0  0  0  0  0  0  0  0
   26.8889  -10.8378  -14.9430 C   0  0  0  0  0  0  0  0  0  0  0  0
   25.4055  -10.5788  -15.8787 S   0  0  0  0  0  0  0  0  0  0  0  0
   24.1195   -9.6041  -15.1071 C   0  0  0  0  0  0  0  0  0  0  0  0
   22.8288   -9.5391  -15.8278 C   0  0  0  0  0  0  0  0  0  0  0  0
   21.7660   -8.6662  -15.2604 C   0  0  2  0  0  0  0  0  0  0  0  0
   20.5822   -8.6086  -16.0809 N   0  0  0  0  0  0  0  0  0  0  0  0
   22.2354   -7.2695  -15.0262 C   0  0  0  0  0  0  0  0  0  0  0  0
   22.8972   -6.9234  -14.0294 O   0  0  0  0  0  0  0  0  0  0  0  0
   21.9448   -6.2440  -15.9479 O   0  0  0  0  0  0  0  0  0  0  0  0
  2  1  1  1
  2  3  1  0
  4  2  1  0
  4  5  1  6
  6  4  1  0
  7  6  2  0
  9  8  1  6
  9 11  1  0
 10  9  1  0
 11 12  1  1
 11 13  1  0
 12  6  1  0
 13 20  1  0
 14 13  2  0
 15 16  1  0
 17 16  1  0
 18 17  1  0
 19 18  1  6
 19 21  1  0
 20 19  1  0
 21 22  2  0
 21 23  1  0
M  END
$$$$
