TTM.pdb
     RDKit          3D

 23 22  0  0  1  0  0  0  0  0999 V2000
   29.3661  -18.7323  -16.3262 C   0  0  0  0  0  0  0  0  0  0  0  0
   28.4414  -18.5650  -15.1521 C   0  0  1  0  0  0  0  0  0  0  0  0
   28.0823  -17.2105  -15.0916 O   0  0  0  0  0  0  0  0  0  0  0  0
   27.1960  -19.4156  -15.3591 C   0  0  2  0  0  0  0  0  0  0  0  0
   26.5618  -18.9895  -16.5697 N   0  0  0  0  0  0  0  0  0  0  0  0
   26.3001  -19.3499  -14.1794 C   0  0  0  0  0  0  0  0  0  0  0  0
   25.4374  -18.4331  -14.1715 O   0  0  0  0  0  0  0  0  0  0  0  0
   23.5201  -20.2020  -13.3782 C   0  0  0  0  0  0  0  0  0  0  0  0
   24.2348  -20.8534  -12.2235 C   0  0  1  0  0  0  0  0  0  0  0  0
   24.6531  -22.1443  -12.5987 O   0  0  0  0  0  0  0  0  0  0  0  0
   25.5090  -20.0637  -11.9663 C   0  0  2  0  0  0  0  0  0  0  0  0
   26.3805  -20.2608  -13.0895 N   0  0  0  0  0  0  0  0  0  0  0  0
   26.0921  -20.5697  -10.6977 C   0  0  0  0  0  0  0  0  0  0  0  0
   26.9559  -21.4777  -10.7868 O   0  0  0  0  0  0  0  0  0  0  0  0
   29.6990  -18.5487   -5.8822 C   0  0  0  0  0  0  0  0  0  0  0  0
   28.4922  -19.5355   -5.0378 S   0  0  0  0  0  0  0  0  0  0  0  0
   27.4169  -20.5442   -6.0504 C   0  0  0  0  0  0  0  0  0  0  0  0
   27.0703  -19.9965   -7.3805 C   0  0  0  0  0  0  0  0  0  0  0  0
   26.1488  -20.7930   -8.2349 C   0  0  2  0  0  0  0  0  0  0  0  0
   25.7340  -20.0942   -9.4255 N   0  0  0  0  0  0  0  0  0  0  0  0
   24.9239  -21.2306   -7.5043 C   0  0  0  0  0  0  0  0  0  0  0  0
   23.7768  -20.8330   -7.7828 O   0  0  0  0  0  0  0  0  0  0  0  0
   25.0070  -22.1415   -6.4325 O   0  0  0  0  0  0  0  0  0  0  0  0
  2  1  1  6
  2  3  1  0
  4  2  1  0
  4  5  1  6
  6  4  1  0
  7  6  2  0
  9  8  1  6
  9 11  1  0
 10  9  1  0
 11 12  1  6
 11 13  1  0
 12  6  1  0
 13 20  1  0
 14 13  2  0
 15 16  1  0
 17 16  1  0
 18 17  1  0
 19 18  1  1
 19 21  1  0
 20 19  1  0
 21 22  2  0
 21 23  1  0
M  END
$$$$
