TTM.pdb
     RDKit          3D

 23 22  0  0  1  0  0  0  0  0999 V2000
   26.8169  -21.9391  -10.3461 C   0  0  0  0  0  0  0  0  0  0  0  0
   26.6249  -20.7513  -11.2484 C   0  0  1  0  0  0  0  0  0  0  0  0
   27.7828  -20.6279  -12.0302 O   0  0  0  0  0  0  0  0  0  0  0  0
   25.4212  -20.9861  -12.1504 C   0  0  2  0  0  0  0  0  0  0  0  0
   25.6827  -22.1449  -12.9493 N   0  0  0  0  0  0  0  0  0  0  0  0
   25.1136  -19.7809  -12.9578 C   0  0  0  0  0  0  0  0  0  0  0  0
   24.5772  -18.8148  -12.3546 O   0  0  0  0  0  0  0  0  0  0  0  0
   27.2464  -17.5569  -14.9931 C   0  0  0  0  0  0  0  0  0  0  0  0
   26.1597  -18.0479  -15.9131 C   0  0  1  0  0  0  0  0  0  0  0  0
   26.6021  -19.2016  -16.5882 O   0  0  0  0  0  0  0  0  0  0  0  0
   24.9920  -18.4966  -15.0480 C   0  0  2  0  0  0  0  0  0  0  0  0
   25.3958  -19.6833  -14.3488 N   0  0  0  0  0  0  0  0  0  0  0  0
   23.8389  -18.7339  -15.9532 C   0  0  0  0  0  0  0  0  0  0  0  0
   23.6765  -19.9050  -16.3786 O   0  0  0  0  0  0  0  0  0  0  0  0
   18.3543  -20.0057  -14.5702 C   0  0  0  0  0  0  0  0  0  0  0  0
   18.0065  -19.4218  -16.2076 S   0  0  0  0  0  0  0  0  0  0  0  0
   19.3951  -18.8410  -17.1737 C   0  0  0  0  0  0  0  0  0  0  0  0
   20.6539  -18.6072  -16.4320 C   0  0  0  0  0  0  0  0  0  0  0  0
   21.8079  -18.0534  -17.1902 C   0  0  2  0  0  0  0  0  0  0  0  0
   22.9362  -17.7344  -16.3517 N   0  0  0  0  0  0  0  0  0  0  0  0
   21.4496  -16.8323  -17.9687 C   0  0  0  0  0  0  0  0  0  0  0  0
   21.7100  -15.6740  -17.5918 O   0  0  0  0  0  0  0  0  0  0  0  0
   20.7796  -16.9322  -19.2044 O   0  0  0  0  0  0  0  0  0  0  0  0
  2  1  1  1
  2  3  1  0
  4  2  1  0
  4  5  1  6
  6  4  1  0
  7  6  2  0
  9  8  1  1
  9 11  1  0
 10  9  1  0
 11 12  1  6
 11 13  1  0
 12  6  1  0
 13 20  1  0
 14 13  2  0
 15 16  1  0
 17 16  1  0
 18 17  1  0
 19 18  1  1
 19 21  1  0
 20 19  1  0
 21 22  2  0
 21 23  1  0
M  END
$$$$
