TTM.pdb
     RDKit          3D

 23 22  0  0  1  0  0  0  0  0999 V2000
   15.6312  -11.0330  -15.5021 C   0  0  0  0  0  0  0  0  0  0  0  0
   16.6429  -12.1346  -15.3447 C   0  0  1  0  0  0  0  0  0  0  0  0
   16.3794  -13.0899  -16.3373 O   0  0  0  0  0  0  0  0  0  0  0  0
   18.0439  -11.5709  -15.5363 C   0  0  2  0  0  0  0  0  0  0  0  0
   18.9587  -12.6692  -15.6162 N   0  0  0  0  0  0  0  0  0  0  0  0
   18.3853  -10.6073  -14.4622 C   0  0  0  0  0  0  0  0  0  0  0  0
   18.5434  -11.0784  -13.3055 O   0  0  0  0  0  0  0  0  0  0  0  0
   21.2940   -8.3487  -14.2736 C   0  0  0  0  0  0  0  0  0  0  0  0
   20.0740   -7.4853  -14.0882 C   0  0  1  0  0  0  0  0  0  0  0  0
   19.6522   -6.9942  -15.3385 O   0  0  0  0  0  0  0  0  0  0  0  0
   18.9478   -8.3798  -13.5934 C   0  0  2  0  0  0  0  0  0  0  0  0
   18.5354   -9.2108  -14.6886 N   0  0  0  0  0  0  0  0  0  0  0  0
   17.8595   -7.4918  -13.1115 C   0  0  0  0  0  0  0  0  0  0  0  0
   16.9337   -7.2304  -13.9197 O   0  0  0  0  0  0  0  0  0  0  0  0
   13.8818   -8.5349   -7.3590 C   0  0  0  0  0  0  0  0  0  0  0  0
   14.9037   -7.1868   -7.8897 S   0  0  0  0  0  0  0  0  0  0  0  0
   15.3568   -7.1444   -9.6194 C   0  0  0  0  0  0  0  0  0  0  0  0
   16.3838   -6.1498  -10.0008 C   0  0  0  0  0  0  0  0  0  0  0  0
   16.7440   -6.0487  -11.4407 C   0  0  2  0  0  0  0  0  0  0  0  0
   17.8124   -6.9384  -11.8214 N   0  0  0  0  0  0  0  0  0  0  0  0
   17.1305   -4.6639  -11.8392 C   0  0  0  0  0  0  0  0  0  0  0  0
   18.3109   -4.2908  -11.9765 O   0  0  0  0  0  0  0  0  0  0  0  0
   16.1508   -3.6819  -12.0869 O   0  0  0  0  0  0  0  0  0  0  0  0
  2  1  1  6
  2  3  1  0
  4  2  1  0
  4  5  1  1
  6  4  1  0
  7  6  2  0
  9  8  1  6
  9 11  1  0
 10  9  1  0
 11 12  1  6
 11 13  1  0
 12  6  1  0
 13 20  1  0
 14 13  2  0
 15 16  1  0
 17 16  1  0
 18 17  1  0
 19 18  1  1
 19 21  1  0
 20 19  1  0
 21 22  2  0
 21 23  1  0
M  END
$$$$
