TTM.pdb
     RDKit          3D

 23 22  0  0  1  0  0  0  0  0999 V2000
   18.9613  -16.1744  -18.6329 C   0  0  0  0  0  0  0  0  0  0  0  0
   19.6113  -14.8335  -18.4297 C   0  0  1  0  0  0  0  0  0  0  0  0
   20.9987  -15.0388  -18.4142 O   0  0  0  0  0  0  0  0  0  0  0  0
   19.2439  -13.9093  -19.5822 C   0  0  2  0  0  0  0  0  0  0  0  0
   19.6614  -14.5311  -20.8022 N   0  0  0  0  0  0  0  0  0  0  0  0
   19.8232  -12.5578  -19.3909 C   0  0  0  0  0  0  0  0  0  0  0  0
   20.8656  -12.2889  -20.0436 O   0  0  0  0  0  0  0  0  0  0  0  0
   17.8671   -9.2902  -19.4311 C   0  0  0  0  0  0  0  0  0  0  0  0
   18.7679   -9.2657  -18.2243 C   0  0  1  0  0  0  0  0  0  0  0  0
   18.0544   -9.7154  -17.0970 O   0  0  0  0  0  0  0  0  0  0  0  0
   19.8703  -10.2886  -18.4519 C   0  0  2  0  0  0  0  0  0  0  0  0
   19.2574  -11.5846  -18.5210 N   0  0  0  0  0  0  0  0  0  0  0  0
   20.8227  -10.1690  -17.3188 C   0  0  0  0  0  0  0  0  0  0  0  0
   20.8363  -11.1054  -16.4811 O   0  0  0  0  0  0  0  0  0  0  0  0
   27.8164  -10.0823  -14.3963 C   0  0  0  0  0  0  0  0  0  0  0  0
   26.5812  -10.1203  -15.6676 S   0  0  0  0  0  0  0  0  0  0  0  0
   24.9544   -9.5150  -15.2363 C   0  0  0  0  0  0  0  0  0  0  0  0
   23.9121   -9.6456  -16.2784 C   0  0  0  0  0  0  0  0  0  0  0  0
   22.5841   -9.0330  -16.0054 C   0  0  2  0  0  0  0  0  0  0  0  0
   21.6938   -9.0822  -17.1380 N   0  0  0  0  0  0  0  0  0  0  0  0
   22.6884   -7.6130  -15.5597 C   0  0  0  0  0  0  0  0  0  0  0  0
   22.5358   -6.6392  -16.3212 O   0  0  0  0  0  0  0  0  0  0  0  0
   22.9728   -7.2948  -14.2168 O   0  0  0  0  0  0  0  0  0  0  0  0
  2  1  1  6
  2  3  1  0
  4  2  1  0
  4  5  1  6
  6  4  1  0
  7  6  2  0
  9  8  1  6
  9 11  1  0
 10  9  1  0
 11 12  1  1
 11 13  1  0
 12  6  1  0
 13 20  1  0
 14 13  2  0
 15 16  1  0
 17 16  1  0
 18 17  1  0
 19 18  1  6
 19 21  1  0
 20 19  1  0
 21 22  2  0
 21 23  1  0
M  END
$$$$
