TTM.pdb
     RDKit          3D

 23 22  0  0  1  0  0  0  0  0999 V2000
   18.1955  -10.7568  -16.9771 C   0  0  0  0  0  0  0  0  0  0  0  0
   19.0645  -11.6709  -17.7963 C   0  0  1  0  0  0  0  0  0  0  0  0
   18.3193  -12.8287  -18.0634 O   0  0  0  0  0  0  0  0  0  0  0  0
   19.4327  -10.9862  -19.1051 C   0  0  2  0  0  0  0  0  0  0  0  0
   20.1604  -11.9219  -19.9078 N   0  0  0  0  0  0  0  0  0  0  0  0
   20.1777   -9.7277  -18.8603 C   0  0  0  0  0  0  0  0  0  0  0  0
   21.3524   -9.8390  -18.4216 O   0  0  0  0  0  0  0  0  0  0  0  0
   20.4480   -4.8474  -18.7594 C   0  0  0  0  0  0  0  0  0  0  0  0
   19.6652   -6.0525  -19.2104 C   0  0  1  0  0  0  0  0  0  0  0  0
   19.7423   -6.1646  -20.6118 O   0  0  0  0  0  0  0  0  0  0  0  0
   20.3612   -7.2867  -18.6574 C   0  0  2  0  0  0  0  0  0  0  0  0
   19.6258   -8.4381  -19.0976 N   0  0  0  0  0  0  0  0  0  0  0  0
   20.3811   -7.1554  -17.1783 C   0  0  0  0  0  0  0  0  0  0  0  0
   19.3166   -7.4200  -16.5656 O   0  0  0  0  0  0  0  0  0  0  0  0
   22.2877   -9.6239  -10.3377 C   0  0  0  0  0  0  0  0  0  0  0  0
   22.2708   -9.5627  -12.1095 S   0  0  0  0  0  0  0  0  0  0  0  0
   21.8279   -8.0022  -12.8630 C   0  0  0  0  0  0  0  0  0  0  0  0
   21.8071   -7.9745  -14.3423 C   0  0  0  0  0  0  0  0  0  0  0  0
   21.4607   -6.6871  -15.0026 C   0  0  2  0  0  0  0  0  0  0  0  0
   21.5088   -6.7575  -16.4416 N   0  0  0  0  0  0  0  0  0  0  0  0
   22.3386   -5.5634  -14.5643 C   0  0  0  0  0  0  0  0  0  0  0  0
   23.2288   -5.0655  -15.2793 O   0  0  0  0  0  0  0  0  0  0  0  0
   22.1998   -4.9937  -13.2830 O   0  0  0  0  0  0  0  0  0  0  0  0
  2  1  1  1
  2  3  1  0
  4  2  1  0
  4  5  1  6
  6  4  1  0
  7  6  2  0
  9  8  1  1
  9 11  1  0
 10  9  1  0
 11 12  1  1
 11 13  1  0
 12  6  1  0
 13 20  1  0
 14 13  2  0
 15 16  1  0
 17 16  1  0
 18 17  1  0
 19 18  1  1
 19 21  1  0
 20 19  1  0
 21 22  2  0
 21 23  1  0
M  END
$$$$
