TTM.pdb
     RDKit          3D

 23 22  0  0  1  0  0  0  0  0999 V2000
   15.7933   -9.6335  -14.9380 C   0  0  0  0  0  0  0  0  0  0  0  0
   16.2051  -10.6416  -15.9753 C   0  0  1  0  0  0  0  0  0  0  0  0
   15.1285  -11.5227  -16.1534 O   0  0  0  0  0  0  0  0  0  0  0  0
   16.5056   -9.9294  -17.2868 C   0  0  2  0  0  0  0  0  0  0  0  0
   16.6610  -10.9217  -18.3069 N   0  0  0  0  0  0  0  0  0  0  0  0
   17.6855   -9.0409  -17.1558 C   0  0  0  0  0  0  0  0  0  0  0  0
   18.8138   -9.5610  -17.3595 O   0  0  0  0  0  0  0  0  0  0  0  0
   18.1326   -5.5041  -18.5684 C   0  0  0  0  0  0  0  0  0  0  0  0
   18.5016   -5.4747  -17.1085 C   0  0  1  0  0  0  0  0  0  0  0  0
   17.3858   -5.0709  -16.3505 O   0  0  0  0  0  0  0  0  0  0  0  0
   18.7982   -6.9035  -16.6798 C   0  0  2  0  0  0  0  0  0  0  0  0
   17.5878   -7.6624  -16.8181 N   0  0  0  0  0  0  0  0  0  0  0  0
   19.2799   -6.8511  -15.2760 C   0  0  0  0  0  0  0  0  0  0  0  0
   18.4282   -7.0368  -14.3712 O   0  0  0  0  0  0  0  0  0  0  0  0
   23.2527   -9.7454   -9.5079 C   0  0  0  0  0  0  0  0  0  0  0  0
   22.8718   -9.5289  -11.2258 S   0  0  0  0  0  0  0  0  0  0  0  0
   22.1171   -7.9783  -11.7001 C   0  0  0  0  0  0  0  0  0  0  0  0
   21.6517   -7.8807  -13.1013 C   0  0  0  0  0  0  0  0  0  0  0  0
   21.0130   -6.6066  -13.5282 C   0  0  2  0  0  0  0  0  0  0  0  0
   20.6151   -6.6087  -14.9137 N   0  0  0  0  0  0  0  0  0  0  0  0
   21.8896   -5.4212  -13.2999 C   0  0  0  0  0  0  0  0  0  0  0  0
   22.3147   -5.0846  -12.1785 O   0  0  0  0  0  0  0  0  0  0  0  0
   22.2911   -4.6005  -14.3726 O   0  0  0  0  0  0  0  0  0  0  0  0
  2  1  1  1
  2  3  1  0
  4  2  1  0
  4  5  1  6
  6  4  1  0
  7  6  2  0
  9  8  1  6
  9 11  1  0
 10  9  1  0
 11 12  1  1
 11 13  1  0
 12  6  1  0
 13 20  1  0
 14 13  2  0
 15 16  1  0
 17 16  1  0
 18 17  1  0
 19 18  1  6
 19 21  1  0
 20 19  1  0
 21 22  2  0
 21 23  1  0
M  END
$$$$
