TTM.pdb
     RDKit          3D

 23 22  0  0  1  0  0  0  0  0999 V2000
   28.1294  -21.2566  -14.3393 C   0  0  0  0  0  0  0  0  0  0  0  0
   28.1498  -19.8588  -14.8940 C   0  0  1  0  0  0  0  0  0  0  0  0
   28.8851  -19.8928  -16.0879 O   0  0  0  0  0  0  0  0  0  0  0  0
   26.7259  -19.4045  -15.1829 C   0  0  2  0  0  0  0  0  0  0  0  0
   26.7902  -18.2254  -15.9922 N   0  0  0  0  0  0  0  0  0  0  0  0
   25.9614  -19.2069  -13.9278 C   0  0  0  0  0  0  0  0  0  0  0  0
   24.9589  -18.4476  -13.9868 O   0  0  0  0  0  0  0  0  0  0  0  0
   23.5659  -19.5881  -13.1831 C   0  0  0  0  0  0  0  0  0  0  0  0
   24.0898  -20.3419  -11.9891 C   0  0  1  0  0  0  0  0  0  0  0  0
   24.3997  -21.6624  -12.3667 O   0  0  0  0  0  0  0  0  0  0  0  0
   25.4113  -19.7054  -11.5865 C   0  0  2  0  0  0  0  0  0  0  0  0
   26.3124  -19.8279  -12.6969 N   0  0  0  0  0  0  0  0  0  0  0  0
   25.8952  -20.4218  -10.3791 C   0  0  0  0  0  0  0  0  0  0  0  0
   26.3765  -21.5699  -10.5490 O   0  0  0  0  0  0  0  0  0  0  0  0
   27.6293  -18.1042   -3.8752 C   0  0  0  0  0  0  0  0  0  0  0  0
   28.5978  -19.3453   -4.6906 S   0  0  0  0  0  0  0  0  0  0  0  0
   27.7398  -20.4258   -5.8288 C   0  0  0  0  0  0  0  0  0  0  0  0
   27.2249  -19.7955   -7.0645 C   0  0  0  0  0  0  0  0  0  0  0  0
   26.3798  -20.6281   -7.9623 C   0  0  2  0  0  0  0  0  0  0  0  0
   25.8436  -19.8916   -9.0794 N   0  0  0  0  0  0  0  0  0  0  0  0
   25.2423  -21.2728   -7.2438 C   0  0  0  0  0  0  0  0  0  0  0  0
   24.0466  -21.0009   -7.4626 O   0  0  0  0  0  0  0  0  0  0  0  0
   25.4715  -22.2491   -6.2539 O   0  0  0  0  0  0  0  0  0  0  0  0
  2  1  1  6
  2  3  1  0
  4  2  1  0
  4  5  1  1
  6  4  1  0
  7  6  2  0
  9  8  1  6
  9 11  1  0
 10  9  1  0
 11 12  1  6
 11 13  1  0
 12  6  1  0
 13 20  1  0
 14 13  2  0
 15 16  1  0
 17 16  1  0
 18 17  1  0
 19 18  1  1
 19 21  1  0
 20 19  1  0
 21 22  2  0
 21 23  1  0
M  END
$$$$
