NQS.pdb
     RDKit          3D

 24 23  0  0  1  0  0  0  0  0999 V2000
   17.9184  -12.9799  -15.4876 N   0  0  0  0  0  0  0  0  0  0  0  0
   18.6279  -11.7623  -15.3239 C   0  0  0  0  0  0  0  0  0  0  0  0
   19.8121  -11.6998  -15.6889 O   0  0  0  0  0  0  0  0  0  0  0  0
   17.9159  -10.6090  -14.7187 C   0  0  0  0  0  0  0  0  0  0  0  0
   16.5250  -11.0850  -14.3535 C   0  0  2  0  0  0  0  0  0  0  0  0
   15.9752  -11.6793  -15.5587 N   0  0  0  0  0  0  0  0  0  0  0  0
   15.6560   -9.9642  -13.9009 C   0  0  0  0  0  0  0  0  0  0  0  0
   15.2338   -9.0946  -14.7206 O   0  0  0  0  0  0  0  0  0  0  0  0
   11.8703  -10.1765   -8.9796 N   0  0  0  0  0  0  0  0  0  0  0  0
   11.8370   -8.8081   -9.2948 C   0  0  0  0  0  0  0  0  0  0  0  0
   11.1770   -7.9968   -8.6093 O   0  0  0  0  0  0  0  0  0  0  0  0
   12.6110   -8.2859  -10.4876 C   0  0  0  0  0  0  0  0  0  0  0  0
   13.6365   -9.2777  -10.9033 C   0  0  0  0  0  0  0  0  0  0  0  0
   14.4444   -8.8032  -12.0751 C   0  0  2  0  0  0  0  0  0  0  0  0
   15.3181   -9.8984  -12.5418 N   0  0  0  0  0  0  0  0  0  0  0  0
   15.2741   -7.6373  -11.7625 C   0  0  0  0  0  0  0  0  0  0  0  0
   16.4336   -7.7753  -11.3144 O   0  0  0  0  0  0  0  0  0  0  0  0
   17.0357   -3.7795  -13.1452 O   0  0  0  0  0  0  0  0  0  0  0  0
   16.1979   -4.8796  -13.2006 C   0  0  0  0  0  0  0  0  0  0  0  0
   15.6514   -5.2057  -11.8122 C   0  0  2  0  0  0  0  0  0  0  0  0
   14.7443   -6.3185  -11.9752 N   0  0  0  0  0  0  0  0  0  0  0  0
   14.9304   -3.9928  -11.3424 C   0  0  0  0  0  0  0  0  0  0  0  0
   13.6973   -3.8806  -11.4918 O   0  0  0  0  0  0  0  0  0  0  0  0
   15.6739   -2.9920  -10.7335 O   0  0  0  0  0  0  0  0  0  0  0  0
  1  2  1  0
  2  4  1  0
  3  2  2  0
  4  5  1  0
  5  7  1  0
  5  6  1  6
  7  8  2  0
  9 10  1  0
 10 11  2  0
 10 12  1  0
 12 13  1  0
 14 13  1  1
 14 16  1  0
 15 14  1  0
 15  7  1  0
 16 17  2  0
 18 19  1  0
 20 19  1  6
 20 22  1  0
 21 20  1  0
 21 16  1  0
 22 23  2  0
 22 24  1  0
M  END
$$$$
