NQS.pdb
     RDKit          3D

 24 23  0  0  1  0  0  0  0  0999 V2000
   16.3533  -12.8300  -15.8508 N   0  0  0  0  0  0  0  0  0  0  0  0
   17.1828  -11.8983  -16.5265 C   0  0  0  0  0  0  0  0  0  0  0  0
   17.1207  -11.8204  -17.7632 O   0  0  0  0  0  0  0  0  0  0  0  0
   18.0947  -11.0519  -15.7169 C   0  0  0  0  0  0  0  0  0  0  0  0
   19.4370  -11.0443  -16.4186 C   0  0  2  0  0  0  0  0  0  0  0  0
   20.0155  -12.3565  -16.1918 N   0  0  0  0  0  0  0  0  0  0  0  0
   20.3408   -9.9929  -15.8762 C   0  0  0  0  0  0  0  0  0  0  0  0
   20.5460   -9.8892  -14.6298 O   0  0  0  0  0  0  0  0  0  0  0  0
   25.0640   -7.7023  -19.1354 N   0  0  0  0  0  0  0  0  0  0  0  0
   25.2256   -7.0309  -17.9123 C   0  0  0  0  0  0  0  0  0  0  0  0
   26.2350   -6.3298  -17.6816 O   0  0  0  0  0  0  0  0  0  0  0  0
   24.1643   -7.1470  -16.8378 C   0  0  0  0  0  0  0  0  0  0  0  0
   23.1131   -8.1080  -17.2617 C   0  0  0  0  0  0  0  0  0  0  0  0
   21.9757   -8.1738  -16.2855 C   0  0  2  0  0  0  0  0  0  0  0  0
   20.9582   -9.1209  -16.7840 N   0  0  0  0  0  0  0  0  0  0  0  0
   21.3406   -6.8735  -16.0595 C   0  0  0  0  0  0  0  0  0  0  0  0
   20.6518   -6.3310  -16.9514 O   0  0  0  0  0  0  0  0  0  0  0  0
   19.0110   -3.9692  -13.4679 O   0  0  0  0  0  0  0  0  0  0  0  0
   19.7023   -5.1516  -13.6666 C   0  0  0  0  0  0  0  0  0  0  0  0
   20.8743   -4.9316  -14.6210 C   0  0  2  0  0  0  0  0  0  0  0  0
   21.5141   -6.2156  -14.7936 N   0  0  0  0  0  0  0  0  0  0  0  0
   21.7881   -3.9639  -13.9575 C   0  0  0  0  0  0  0  0  0  0  0  0
   22.8034   -4.3542  -13.3474 O   0  0  0  0  0  0  0  0  0  0  0  0
   21.4742   -2.6150  -14.0399 O   0  0  0  0  0  0  0  0  0  0  0  0
  1  2  1  0
  2  4  1  0
  3  2  2  0
  4  5  1  0
  5  7  1  0
  5  6  1  1
  7  8  2  0
  9 10  1  0
 10 11  2  0
 10 12  1  0
 12 13  1  0
 14 13  1  6
 14 16  1  0
 15 14  1  0
 15  7  1  0
 16 17  2  0
 18 19  1  0
 20 19  1  1
 20 22  1  0
 21 20  1  0
 21 16  1  0
 22 23  2  0
 22 24  1  0
M  END
$$$$
