NQS.pdb
     RDKit          3D

 24 23  0  0  1  0  0  0  0  0999 V2000
   25.1723  -20.5249   -7.9210 N   0  0  0  0  0  0  0  0  0  0  0  0
   26.1381  -19.6327   -8.4539 C   0  0  0  0  0  0  0  0  0  0  0  0
   26.6488  -18.7811   -7.7101 O   0  0  0  0  0  0  0  0  0  0  0  0
   26.4968  -19.7594   -9.8887 C   0  0  0  0  0  0  0  0  0  0  0  0
   25.6364  -20.8632  -10.4681 C   0  0  2  0  0  0  0  0  0  0  0  0
   26.1793  -22.1073   -9.9527 N   0  0  0  0  0  0  0  0  0  0  0  0
   25.6745  -20.8733  -11.9563 C   0  0  0  0  0  0  0  0  0  0  0  0
   26.6827  -21.3223  -12.5796 O   0  0  0  0  0  0  0  0  0  0  0  0
   23.9492  -22.9494  -16.0222 N   0  0  0  0  0  0  0  0  0  0  0  0
   23.1766  -23.3050  -14.9044 C   0  0  0  0  0  0  0  0  0  0  0  0
   22.9415  -24.5017  -14.6280 O   0  0  0  0  0  0  0  0  0  0  0  0
   22.6077  -22.2290  -14.0028 C   0  0  0  0  0  0  0  0  0  0  0  0
   23.0442  -20.8882  -14.4716 C   0  0  0  0  0  0  0  0  0  0  0  0
   24.4690  -20.5937  -14.1053 C   0  0  2  0  0  0  0  0  0  0  0  0
   24.5631  -20.3719  -12.6483 N   0  0  0  0  0  0  0  0  0  0  0  0
   25.0062  -19.4201  -14.7976 C   0  0  0  0  0  0  0  0  0  0  0  0
   24.5005  -18.2884  -14.6310 O   0  0  0  0  0  0  0  0  0  0  0  0
   28.4559  -17.6917  -17.7050 O   0  0  0  0  0  0  0  0  0  0  0  0
   27.9686  -18.7436  -16.9490 C   0  0  0  0  0  0  0  0  0  0  0  0
   26.5979  -18.3969  -16.3715 C   0  0  2  0  0  0  0  0  0  0  0  0
   26.1300  -19.5760  -15.6797 N   0  0  0  0  0  0  0  0  0  0  0  0
   25.7192  -18.0707  -17.5262 C   0  0  0  0  0  0  0  0  0  0  0  0
   25.2101  -18.9728  -18.2207 O   0  0  0  0  0  0  0  0  0  0  0  0
   25.4853  -16.7317  -17.8046 O   0  0  0  0  0  0  0  0  0  0  0  0
  1  2  1  0
  2  4  1  0
  3  2  2  0
  4  5  1  0
  5  7  1  0
  5  6  1  1
  7  8  2  0
  9 10  1  0
 10 11  2  0
 10 12  1  0
 12 13  1  0
 14 13  1  6
 14 16  1  0
 15 14  1  0
 15  7  1  0
 16 17  2  0
 18 19  1  0
 20 19  1  6
 20 22  1  0
 21 20  1  0
 21 16  1  0
 22 23  2  0
 22 24  1  0
M  END
$$$$
