NQS.pdb
     RDKit          3D

 24 23  0  0  1  0  0  0  0  0999 V2000
   14.9687  -13.0648  -11.6255 N   0  0  0  0  0  0  0  0  0  0  0  0
   16.0706  -12.9316  -12.5091 C   0  0  0  0  0  0  0  0  0  0  0  0
   16.6119  -13.9540  -12.9577 O   0  0  0  0  0  0  0  0  0  0  0  0
   16.5298  -11.5644  -12.8599 C   0  0  0  0  0  0  0  0  0  0  0  0
   15.6954  -10.5923  -12.0517 C   0  0  2  0  0  0  0  0  0  0  0  0
   14.3666  -10.6222  -12.6360 N   0  0  0  0  0  0  0  0  0  0  0  0
   16.2425   -9.2090  -12.1107 C   0  0  0  0  0  0  0  0  0  0  0  0
   16.2130   -8.5417  -13.1879 O   0  0  0  0  0  0  0  0  0  0  0  0
   13.9085   -5.7588   -7.6340 N   0  0  0  0  0  0  0  0  0  0  0  0
   15.2009   -5.6873   -8.1793 C   0  0  0  0  0  0  0  0  0  0  0  0
   16.1340   -5.1170   -7.5729 O   0  0  0  0  0  0  0  0  0  0  0  0
   15.4892   -6.3090   -9.5302 C   0  0  0  0  0  0  0  0  0  0  0  0
   16.9387   -6.6121   -9.6526 C   0  0  0  0  0  0  0  0  0  0  0  0
   17.2737   -7.2702  -10.9587 C   0  0  2  0  0  0  0  0  0  0  0  0
   16.7912   -8.6657  -10.9405 N   0  0  0  0  0  0  0  0  0  0  0  0
   18.7098   -7.2705  -11.2466 C   0  0  0  0  0  0  0  0  0  0  0  0
   19.4924   -8.0112  -10.6117 O   0  0  0  0  0  0  0  0  0  0  0  0
   21.9989   -7.3814  -14.3719 O   0  0  0  0  0  0  0  0  0  0  0  0
   20.6890   -7.2834  -13.9361 C   0  0  0  0  0  0  0  0  0  0  0  0
   20.6222   -6.5316  -12.6083 C   0  0  2  0  0  0  0  0  0  0  0  0
   19.2222   -6.4059  -12.2738 N   0  0  0  0  0  0  0  0  0  0  0  0
   21.2377   -5.1981  -12.8424 C   0  0  0  0  0  0  0  0  0  0  0  0
   20.5488   -4.2309  -13.2233 O   0  0  0  0  0  0  0  0  0  0  0  0
   22.6014   -5.0663  -12.6232 O   0  0  0  0  0  0  0  0  0  0  0  0
  1  2  1  0
  2  4  1  0
  3  2  2  0
  4  5  1  0
  5  7  1  0
  5  6  1  6
  7  8  2  0
  9 10  1  0
 10 11  2  0
 10 12  1  0
 12 13  1  0
 14 13  1  1
 14 16  1  0
 15 14  1  0
 15  7  1  0
 16 17  2  0
 18 19  1  0
 20 19  1  6
 20 22  1  0
 21 20  1  0
 21 16  1  0
 22 23  2  0
 22 24  1  0
M  END
$$$$
