NQS.pdb
     RDKit          3D

 24 23  0  0  1  0  0  0  0  0999 V2000
   12.7144   -7.3395  -14.4422 N   0  0  0  0  0  0  0  0  0  0  0  0
   13.0807   -8.6343  -13.9927 C   0  0  0  0  0  0  0  0  0  0  0  0
   12.2793   -9.5712  -14.1325 O   0  0  0  0  0  0  0  0  0  0  0  0
   14.4168   -8.8112  -13.3706 C   0  0  0  0  0  0  0  0  0  0  0  0
   15.1866   -9.7871  -14.2364 C   0  0  2  0  0  0  0  0  0  0  0  0
   14.7488  -11.1117  -13.8341 N   0  0  0  0  0  0  0  0  0  0  0  0
   16.6572   -9.6603  -14.0426 C   0  0  0  0  0  0  0  0  0  0  0  0
   17.2063  -10.0280  -12.9611 O   0  0  0  0  0  0  0  0  0  0  0  0
   20.8514  -10.9318  -18.1525 N   0  0  0  0  0  0  0  0  0  0  0  0
   21.6661  -10.3525  -17.1659 C   0  0  0  0  0  0  0  0  0  0  0  0
   22.9134  -10.4131  -17.2318 O   0  0  0  0  0  0  0  0  0  0  0  0
   21.0377   -9.6348  -15.9893 C   0  0  0  0  0  0  0  0  0  0  0  0
   19.5562   -9.7012  -16.0842 C   0  0  0  0  0  0  0  0  0  0  0  0
   18.8814   -9.0180  -14.9314 C   0  0  2  0  0  0  0  0  0  0  0  0
   17.4170   -9.1223  -15.0909 N   0  0  0  0  0  0  0  0  0  0  0  0
   19.2443   -7.6039  -14.8132 C   0  0  0  0  0  0  0  0  0  0  0  0
   18.6314   -6.7269  -15.4608 O   0  0  0  0  0  0  0  0  0  0  0  0
   22.1546   -4.3662  -12.7044 O   0  0  0  0  0  0  0  0  0  0  0  0
   21.8376   -5.6969  -12.9142 C   0  0  0  0  0  0  0  0  0  0  0  0
   20.6575   -5.8201  -13.8760 C   0  0  2  0  0  0  0  0  0  0  0  0
   20.3203   -7.2236  -13.9397 N   0  0  0  0  0  0  0  0  0  0  0  0
   21.1300   -5.3234  -15.1958 C   0  0  0  0  0  0  0  0  0  0  0  0
   21.8662   -6.0234  -15.9192 O   0  0  0  0  0  0  0  0  0  0  0  0
   20.7251   -4.0577  -15.5947 O   0  0  0  0  0  0  0  0  0  0  0  0
  1  2  1  0
  2  4  1  0
  3  2  2  0
  4  5  1  0
  5  7  1  0
  5  6  1  1
  7  8  2  0
  9 10  1  0
 10 11  2  0
 10 12  1  0
 12 13  1  0
 14 13  1  6
 14 16  1  0
 15 14  1  0
 15  7  1  0
 16 17  2  0
 18 19  1  0
 20 19  1  1
 20 22  1  0
 21 20  1  0
 21 16  1  0
 22 23  2  0
 22 24  1  0
M  END
$$$$
