NQS.pdb
     RDKit          3D

 24 23  0  0  1  0  0  0  0  0999 V2000
   16.5800  -11.5826  -17.8095 N   0  0  0  0  0  0  0  0  0  0  0  0
   16.9947  -11.8272  -16.4750 C   0  0  0  0  0  0  0  0  0  0  0  0
   16.5518  -12.8203  -15.8775 O   0  0  0  0  0  0  0  0  0  0  0  0
   17.9474  -10.8766  -15.8489 C   0  0  0  0  0  0  0  0  0  0  0  0
   19.3260  -11.2118  -16.3794 C   0  0  2  0  0  0  0  0  0  0  0  0
   19.6592  -12.5157  -15.8346 N   0  0  0  0  0  0  0  0  0  0  0  0
   20.3428  -10.2113  -15.9536 C   0  0  0  0  0  0  0  0  0  0  0  0
   20.4932   -9.9145  -14.7306 O   0  0  0  0  0  0  0  0  0  0  0  0
   25.3408   -8.6989  -19.3672 N   0  0  0  0  0  0  0  0  0  0  0  0
   25.5027   -7.8643  -18.2492 C   0  0  0  0  0  0  0  0  0  0  0  0
   26.5295   -7.1663  -18.0996 O   0  0  0  0  0  0  0  0  0  0  0  0
   24.4206   -7.7954  -17.1915 C   0  0  0  0  0  0  0  0  0  0  0  0
   23.2845   -8.6765  -17.5670 C   0  0  0  0  0  0  0  0  0  0  0  0
   22.1929   -8.6667  -16.5377 C   0  0  2  0  0  0  0  0  0  0  0  0
   21.1293   -9.6069  -16.9445 N   0  0  0  0  0  0  0  0  0  0  0  0
   21.6024   -7.3404  -16.3436 C   0  0  0  0  0  0  0  0  0  0  0  0
   20.8602   -6.8339  -17.2135 O   0  0  0  0  0  0  0  0  0  0  0  0
   19.7009   -4.1690  -13.6110 O   0  0  0  0  0  0  0  0  0  0  0  0
   20.2746   -5.4042  -13.8573 C   0  0  0  0  0  0  0  0  0  0  0  0
   21.2881   -5.3054  -14.9955 C   0  0  2  0  0  0  0  0  0  0  0  0
   21.8827   -6.6148  -15.1352 N   0  0  0  0  0  0  0  0  0  0  0  0
   22.3013   -4.3001  -14.5777 C   0  0  0  0  0  0  0  0  0  0  0  0
   22.0254   -3.0842  -14.5488 O   0  0  0  0  0  0  0  0  0  0  0  0
   23.5613   -4.7591  -14.2219 O   0  0  0  0  0  0  0  0  0  0  0  0
  1  2  1  0
  2  4  1  0
  3  2  2  0
  4  5  1  0
  5  7  1  0
  5  6  1  1
  7  8  2  0
  9 10  1  0
 10 11  2  0
 10 12  1  0
 12 13  1  0
 14 13  1  6
 14 16  1  0
 15 14  1  0
 15  7  1  0
 16 17  2  0
 18 19  1  0
 20 19  1  1
 20 22  1  0
 21 20  1  0
 21 16  1  0
 22 23  2  0
 22 24  1  0
M  END
$$$$
