NQS.pdb
     RDKit          3D

 24 23  0  0  1  0  0  0  0  0999 V2000
   19.2378  -14.4769  -15.9649 N   0  0  0  0  0  0  0  0  0  0  0  0
   20.5477  -13.9610  -16.1406 C   0  0  0  0  0  0  0  0  0  0  0  0
   21.5205  -14.7113  -15.9671 O   0  0  0  0  0  0  0  0  0  0  0  0
   20.6963  -12.5356  -16.5272 C   0  0  0  0  0  0  0  0  0  0  0  0
   19.3084  -11.9291  -16.5384 C   0  0  2  0  0  0  0  0  0  0  0  0
   18.6164  -12.5321  -17.6634 N   0  0  0  0  0  0  0  0  0  0  0  0
   19.3504  -10.4502  -16.7047 C   0  0  0  0  0  0  0  0  0  0  0  0
   19.4441   -9.9259  -17.8548 O   0  0  0  0  0  0  0  0  0  0  0  0
   15.3655   -6.7161  -15.0694 N   0  0  0  0  0  0  0  0  0  0  0  0
   16.3830   -5.7600  -15.2226 C   0  0  0  0  0  0  0  0  0  0  0  0
   16.1216   -4.5435  -15.3473 O   0  0  0  0  0  0  0  0  0  0  0  0
   17.8343   -6.1937  -15.2393 C   0  0  0  0  0  0  0  0  0  0  0  0
   17.9238   -7.6759  -15.1845 C   0  0  0  0  0  0  0  0  0  0  0  0
   19.2372   -8.1858  -15.7002 C   0  0  2  0  0  0  0  0  0  0  0  0
   19.2833   -9.6544  -15.5524 N   0  0  0  0  0  0  0  0  0  0  0  0
   20.3883   -7.6046  -15.0056 C   0  0  0  0  0  0  0  0  0  0  0  0
   20.7412   -8.0264  -13.8823 O   0  0  0  0  0  0  0  0  0  0  0  0
   24.0343   -4.4339  -15.2279 O   0  0  0  0  0  0  0  0  0  0  0  0
   22.9280   -4.9959  -15.8408 C   0  0  0  0  0  0  0  0  0  0  0  0
   22.2616   -6.0109  -14.9142 C   0  0  2  0  0  0  0  0  0  0  0  0
   21.1195   -6.5350  -15.6273 N   0  0  0  0  0  0  0  0  0  0  0  0
   21.8372   -5.2647  -13.6998 C   0  0  0  0  0  0  0  0  0  0  0  0
   20.6963   -4.7676  -13.6176 O   0  0  0  0  0  0  0  0  0  0  0  0
   22.7510   -5.1401  -12.6632 O   0  0  0  0  0  0  0  0  0  0  0  0
  1  2  1  0
  2  4  1  0
  3  2  2  0
  4  5  1  0
  5  7  1  0
  5  6  1  6
  7  8  2  0
  9 10  1  0
 10 11  2  0
 10 12  1  0
 12 13  1  0
 14 13  1  1
 14 16  1  0
 15 14  1  0
 15  7  1  0
 16 17  2  0
 18 19  1  0
 20 19  1  6
 20 22  1  0
 21 20  1  0
 21 16  1  0
 22 23  2  0
 22 24  1  0
M  END
$$$$
