NQS.pdb
     RDKit          3D

 24 23  0  0  1  0  0  0  0  0999 V2000
   28.0741  -22.5260  -17.2605 N   0  0  0  0  0  0  0  0  0  0  0  0
   28.2850  -21.9219  -15.9943 C   0  0  0  0  0  0  0  0  0  0  0  0
   29.0140  -22.4913  -15.1674 O   0  0  0  0  0  0  0  0  0  0  0  0
   27.6187  -20.6255  -15.7136 C   0  0  0  0  0  0  0  0  0  0  0  0
   26.6253  -20.3831  -16.8311 C   0  0  2  0  0  0  0  0  0  0  0  0
   27.4112  -20.0004  -17.9904 N   0  0  0  0  0  0  0  0  0  0  0  0
   25.6629  -19.2989  -16.4925 C   0  0  0  0  0  0  0  0  0  0  0  0
   26.0668  -18.1879  -16.0354 O   0  0  0  0  0  0  0  0  0  0  0  0
   23.7121  -15.4269  -19.3625 N   0  0  0  0  0  0  0  0  0  0  0  0
   22.4219  -15.6643  -18.8607 C   0  0  0  0  0  0  0  0  0  0  0  0
   21.4333  -15.0178  -19.2711 O   0  0  0  0  0  0  0  0  0  0  0  0
   22.2043  -16.7227  -17.7991 C   0  0  0  0  0  0  0  0  0  0  0  0
   23.4924  -17.3862  -17.4696 C   0  0  0  0  0  0  0  0  0  0  0  0
   23.3314  -18.4565  -16.4306 C   0  0  2  0  0  0  0  0  0  0  0  0
   24.2969  -19.5423  -16.6940 N   0  0  0  0  0  0  0  0  0  0  0  0
   21.9809  -19.0226  -16.3980 C   0  0  0  0  0  0  0  0  0  0  0  0
   21.7142  -20.0839  -17.0035 O   0  0  0  0  0  0  0  0  0  0  0  0
   19.1270  -21.4169  -15.1028 O   0  0  0  0  0  0  0  0  0  0  0  0
   20.1855  -20.5935  -15.4449 C   0  0  0  0  0  0  0  0  0  0  0  0
   19.8068  -19.1269  -15.2491 C   0  0  2  0  0  0  0  0  0  0  0  0
   20.9513  -18.3457  -15.6585 N   0  0  0  0  0  0  0  0  0  0  0  0
   19.5289  -18.9486  -13.7990 C   0  0  0  0  0  0  0  0  0  0  0  0
   20.2575  -18.2265  -13.0896 O   0  0  0  0  0  0  0  0  0  0  0  0
   18.4341  -19.6111  -13.2627 O   0  0  0  0  0  0  0  0  0  0  0  0
  1  2  1  0
  2  4  1  0
  3  2  2  0
  4  5  1  0
  5  7  1  0
  5  6  1  6
  7  8  2  0
  9 10  1  0
 10 11  2  0
 10 12  1  0
 12 13  1  0
 14 13  1  6
 14 16  1  0
 15 14  1  0
 15  7  1  0
 16 17  2  0
 18 19  1  0
 20 19  1  1
 20 22  1  0
 21 20  1  0
 21 16  1  0
 22 23  2  0
 22 24  1  0
M  END
$$$$
