HLC.pdb
     RDKit          3D

 25 25  0  0  1  0  0  0  0  0999 V2000
   21.4345  -15.6051  -17.2994 N   0  0  0  0  0  0  0  0  0  0  0  0
   22.0986  -14.5034  -17.9463 C   0  0  1  0  0  0  0  0  0  0  0  0
   21.1947  -13.8597  -18.9765 C   0  0  0  0  0  0  0  0  0  0  0  0
   20.8976  -14.8207  -20.0666 C   0  0  0  0  0  0  0  0  0  0  0  0
   21.7181  -15.0299  -21.1468 C   0  0  0  0  0  0  0  0  0  0  0  0
   21.1249  -15.9624  -21.9144 N   0  0  0  0  0  0  0  0  0  0  0  0
   19.9692  -16.3300  -21.3390 C   0  0  0  0  0  0  0  0  0  0  0  0
   19.8253  -15.6204  -20.1881 N   0  0  0  0  0  0  0  0  0  0  0  0
   22.5099  -13.4432  -16.9945 C   0  0  0  0  0  0  0  0  0  0  0  0
   21.7061  -13.1548  -16.0771 O   0  0  0  0  0  0  0  0  0  0  0  0
   27.8280  -12.6106  -16.0583 C   0  0  0  0  0  0  0  0  0  0  0  0
   26.3220  -12.7907  -15.9096 C   0  0  1  0  0  0  0  0  0  0  0  0
   26.1580  -13.2862  -14.4535 C   0  0  0  0  0  0  0  0  0  0  0  0
   25.5887  -11.4931  -16.0946 C   0  0  0  0  0  0  0  0  0  0  0  0
   24.1192  -11.7132  -16.1227 C   0  0  2  0  0  0  0  0  0  0  0  0
   23.7353  -12.7536  -17.0642 N   0  0  0  0  0  0  0  0  0  0  0  0
   23.4379  -10.4675  -16.5279 C   0  0  0  0  0  0  0  0  0  0  0  0
   23.5999   -9.8665  -17.6093 O   0  0  0  0  0  0  0  0  0  0  0  0
   22.4946   -9.8564  -15.6270 N   0  0  0  0  0  0  0  0  0  0  0  0
   21.7810   -8.6743  -15.9969 C   0  0  1  0  0  0  0  0  0  0  0  0
   20.3154   -8.9531  -16.2467 C   0  0  0  0  0  0  0  0  0  0  0  0
   20.0447  -10.4036  -17.2716 S   0  0  0  0  0  0  0  0  0  0  0  0
   21.8681   -7.6556  -14.9360 C   0  0  0  0  0  0  0  0  0  0  0  0
   21.3652   -6.3775  -15.1033 O   0  0  0  0  0  0  0  0  0  0  0  0
   22.4186   -7.9511  -13.8346 O   0  0  0  0  0  0  0  0  0  0  0  0
  2  1  1  1
  2  9  1  0
  3  2  1  0
  4  3  1  0
  5  4  2  0
  6  7  1  0
  6  5  1  0
  7  8  2  0
  8  4  1  0
  9 16  1  0
 10  9  2  0
 12 11  1  1
 12 13  1  0
 14 12  1  0
 15 14  1  6
 16 15  1  0
 17 19  1  0
 17 15  1  0
 18 17  2  0
 20 19  1  0
 20 23  1  0
 20 21  1  1
 22 21  1  0
 23 24  1  0
 25 23  2  0
M  END
$$$$
