HLC.pdb
     RDKit          3D

 25 25  0  0  1  0  0  0  0  0999 V2000
   18.8069  -22.0644  -11.9847 N   0  0  0  0  0  0  0  0  0  0  0  0
   19.7919  -21.7469  -12.9858 C   0  0  1  0  0  0  0  0  0  0  0  0
   19.1319  -21.2212  -14.2431 C   0  0  0  0  0  0  0  0  0  0  0  0
   18.2712  -22.2691  -14.8442 C   0  0  0  0  0  0  0  0  0  0  0  0
   16.9103  -22.3302  -14.6769 C   0  0  0  0  0  0  0  0  0  0  0  0
   16.4792  -23.4045  -15.3629 N   0  0  0  0  0  0  0  0  0  0  0  0
   17.5317  -24.0020  -15.9439 C   0  0  0  0  0  0  0  0  0  0  0  0
   18.6488  -23.2968  -15.6224 N   0  0  0  0  0  0  0  0  0  0  0  0
   20.7602  -20.7196  -12.5317 C   0  0  0  0  0  0  0  0  0  0  0  0
   20.4978  -20.1187  -11.4636 O   0  0  0  0  0  0  0  0  0  0  0  0
   24.8472  -20.2823   -9.5864 C   0  0  0  0  0  0  0  0  0  0  0  0
   24.9681  -20.7774  -11.0226 C   0  0  1  0  0  0  0  0  0  0  0  0
   25.8157  -22.0648  -10.8923 C   0  0  0  0  0  0  0  0  0  0  0  0
   23.6252  -21.1057  -11.6095 C   0  0  0  0  0  0  0  0  0  0  0  0
   23.1875  -20.0484  -12.5576 C   0  0  2  0  0  0  0  0  0  0  0  0
   21.9399  -20.3876  -13.2246 N   0  0  0  0  0  0  0  0  0  0  0  0
   24.2163  -19.8583  -13.5995 C   0  0  0  0  0  0  0  0  0  0  0  0
   25.3711  -19.4242  -13.4131 O   0  0  0  0  0  0  0  0  0  0  0  0
   23.9037  -20.1902  -14.9659 N   0  0  0  0  0  0  0  0  0  0  0  0
   24.6433  -19.6237  -16.0501 C   0  0  1  0  0  0  0  0  0  0  0  0
   25.5348  -20.6449  -16.7213 C   0  0  0  0  0  0  0  0  0  0  0  0
   25.4642  -22.2587  -15.9349 S   0  0  0  0  0  0  0  0  0  0  0  0
   23.7364  -19.0789  -17.0755 C   0  0  0  0  0  0  0  0  0  0  0  0
   24.2049  -18.3673  -18.1657 O   0  0  0  0  0  0  0  0  0  0  0  0
   22.4887  -19.2632  -16.9626 O   0  0  0  0  0  0  0  0  0  0  0  0
  2  1  1  1
  2  9  1  0
  3  2  1  0
  4  3  1  0
  5  4  2  0
  6  7  1  0
  6  5  1  0
  7  8  2  0
  8  4  1  0
  9 16  1  0
 10  9  2  0
 12 11  1  1
 12 13  1  0
 14 12  1  0
 15 14  1  1
 16 15  1  0
 17 19  1  0
 17 15  1  0
 18 17  2  0
 20 19  1  0
 20 23  1  0
 20 21  1  6
 22 21  1  0
 23 24  1  0
 25 23  2  0
M  END
$$$$
