HLC.pdb
     RDKit          3D

 25 25  0  0  1  0  0  0  0  0999 V2000
   27.1703  -19.5496  -17.0950 N   0  0  0  0  0  0  0  0  0  0  0  0
   26.3589  -19.3375  -15.9245 C   0  0  1  0  0  0  0  0  0  0  0  0
   25.0944  -18.5822  -16.2754 C   0  0  0  0  0  0  0  0  0  0  0  0
   25.4310  -17.2247  -16.7694 C   0  0  0  0  0  0  0  0  0  0  0  0
   25.2961  -16.8313  -18.0774 C   0  0  0  0  0  0  0  0  0  0  0  0
   25.6944  -15.5477  -18.1434 N   0  0  0  0  0  0  0  0  0  0  0  0
   26.0682  -15.1437  -16.9190 C   0  0  0  0  0  0  0  0  0  0  0  0
   25.9051  -16.1862  -16.0616 N   0  0  0  0  0  0  0  0  0  0  0  0
   25.9505  -20.6054  -15.2726 C   0  0  0  0  0  0  0  0  0  0  0  0
   26.0308  -21.6522  -15.9571 O   0  0  0  0  0  0  0  0  0  0  0  0
   25.9104  -21.0402   -9.6540 C   0  0  0  0  0  0  0  0  0  0  0  0
   25.3630  -20.9107  -11.0703 C   0  0  1  0  0  0  0  0  0  0  0  0
   25.9815  -19.5873  -11.5787 C   0  0  0  0  0  0  0  0  0  0  0  0
   25.8066  -22.0511  -11.9413 C   0  0  0  0  0  0  0  0  0  0  0  0
   25.1898  -21.9597  -13.2903 C   0  0  2  0  0  0  0  0  0  0  0  0
   25.4848  -20.6957  -13.9472 N   0  0  0  0  0  0  0  0  0  0  0  0
   23.7222  -22.0736  -13.1743 C   0  0  0  0  0  0  0  0  0  0  0  0
   23.1019  -23.0448  -12.6957 O   0  0  0  0  0  0  0  0  0  0  0  0
   22.8934  -20.9924  -13.6421 N   0  0  0  0  0  0  0  0  0  0  0  0
   21.4675  -21.0862  -13.6034 C   0  0  1  0  0  0  0  0  0  0  0  0
   20.8590  -20.0692  -12.6635 C   0  0  0  0  0  0  0  0  0  0  0  0
   20.6558  -20.6961  -10.9921 S   0  0  0  0  0  0  0  0  0  0  0  0
   20.8906  -20.8611  -14.9403 C   0  0  0  0  0  0  0  0  0  0  0  0
   19.5293  -20.9400  -15.1746 O   0  0  0  0  0  0  0  0  0  0  0  0
   21.6576  -20.5865  -15.9097 O   0  0  0  0  0  0  0  0  0  0  0  0
  2  1  1  6
  2  9  1  0
  3  2  1  0
  4  3  1  0
  5  4  2  0
  6  7  1  0
  6  5  1  0
  7  8  2  0
  8  4  1  0
  9 16  1  0
 10  9  2  0
 12 11  1  1
 12 13  1  0
 14 12  1  0
 15 14  1  1
 16 15  1  0
 17 19  1  0
 17 15  1  0
 18 17  2  0
 20 19  1  0
 20 23  1  0
 20 21  1  1
 22 21  1  0
 23 24  1  0
 25 23  2  0
M  END
$$$$
