HLC.pdb
     RDKit          3D

 25 25  0  0  1  0  0  0  0  0999 V2000
   21.4554  -15.2862  -18.2012 N   0  0  0  0  0  0  0  0  0  0  0  0
   20.7054  -14.1406  -17.7556 C   0  0  1  0  0  0  0  0  0  0  0  0
   19.4193  -14.5682  -17.0805 C   0  0  0  0  0  0  0  0  0  0  0  0
   18.5326  -15.2487  -18.0557 C   0  0  0  0  0  0  0  0  0  0  0  0
   18.3879  -14.8549  -19.3625 C   0  0  0  0  0  0  0  0  0  0  0  0
   17.5108  -15.7018  -19.9319 N   0  0  0  0  0  0  0  0  0  0  0  0
   17.1148  -16.6000  -19.0163 C   0  0  0  0  0  0  0  0  0  0  0  0
   17.7497  -16.3200  -17.8470 N   0  0  0  0  0  0  0  0  0  0  0  0
   21.4564  -13.3048  -16.7878 C   0  0  0  0  0  0  0  0  0  0  0  0
   22.3351  -13.8758  -16.1002 O   0  0  0  0  0  0  0  0  0  0  0  0
   24.8070  -10.7641  -14.2639 C   0  0  0  0  0  0  0  0  0  0  0  0
   24.3702  -10.1072  -15.5677 C   0  0  1  0  0  0  0  0  0  0  0  0
   25.7030   -9.8543  -16.3109 C   0  0  0  0  0  0  0  0  0  0  0  0
   23.4957  -11.0184  -16.3805 C   0  0  0  0  0  0  0  0  0  0  0  0
   22.1224  -11.0791  -15.8156 C   0  0  2  0  0  0  0  0  0  0  0  0
   21.2394  -11.9263  -16.6022 N   0  0  0  0  0  0  0  0  0  0  0  0
   21.5365   -9.7240  -15.7871 C   0  0  0  0  0  0  0  0  0  0  0  0
   21.2252   -9.0433  -16.7854 O   0  0  0  0  0  0  0  0  0  0  0  0
   21.2848   -9.0929  -14.5171 N   0  0  0  0  0  0  0  0  0  0  0  0
   20.6011   -7.8399  -14.4389 C   0  0  1  0  0  0  0  0  0  0  0  0
   19.9560   -7.6310  -13.0867 C   0  0  0  0  0  0  0  0  0  0  0  0
   18.8559   -8.9733  -12.6222 S   0  0  0  0  0  0  0  0  0  0  0  0
   21.5305   -6.7201  -14.6690 C   0  0  0  0  0  0  0  0  0  0  0  0
   21.0954   -5.4086  -14.7397 O   0  0  0  0  0  0  0  0  0  0  0  0
   22.7667   -6.9571  -14.8071 O   0  0  0  0  0  0  0  0  0  0  0  0
  2  1  1  1
  2  9  1  0
  3  2  1  0
  4  3  1  0
  5  4  2  0
  6  7  1  0
  6  5  1  0
  7  8  2  0
  8  4  1  0
  9 16  1  0
 10  9  2  0
 12 11  1  1
 12 13  1  0
 14 12  1  0
 15 14  1  6
 16 15  1  0
 17 19  1  0
 17 15  1  0
 18 17  2  0
 20 19  1  0
 20 23  1  0
 20 21  1  1
 22 21  1  0
 23 24  1  0
 25 23  2  0
M  END
$$$$
