AGA.pdb
     RDKit          3D

 15 14  0  0  1  0  0  0  0  0999 V2000
   19.7216  -13.2686  -17.1899 C   0  0  0  0  0  0  0  0  0  0  0  0
   20.4216  -12.1318  -17.9364 C   0  0  2  0  0  0  0  0  0  0  0  0
   21.7943  -12.0581  -17.5625 N   0  0  0  0  0  0  0  0  0  0  0  0
   19.7355  -10.8846  -17.5234 C   0  0  0  0  0  0  0  0  0  0  0  0
   18.5074  -10.6827  -17.7861 O   0  0  0  0  0  0  0  0  0  0  0  0
   20.4954   -9.9107  -16.8186 N   0  0  0  0  0  0  0  0  0  0  0  0
   19.8326   -8.7370  -16.2912 C   0  0  0  0  0  0  0  0  0  0  0  0
   20.8831   -7.8228  -15.7396 C   0  0  0  0  0  0  0  0  0  0  0  0
   21.9740   -8.2617  -15.2716 O   0  0  0  0  0  0  0  0  0  0  0  0
   21.3007   -4.1095  -15.5567 C   0  0  0  0  0  0  0  0  0  0  0  0
   21.7976   -5.5390  -15.3029 C   0  0  2  0  0  0  0  0  0  0  0  0
   20.7165   -6.4126  -15.7097 N   0  0  0  0  0  0  0  0  0  0  0  0
   22.1144   -5.6839  -13.8713 C   0  0  0  0  0  0  0  0  0  0  0  0
   23.1781   -5.1982  -13.4349 O   0  0  0  0  0  0  0  0  0  0  0  0
   21.2670   -6.3392  -13.0119 O   0  0  0  0  0  0  0  0  0  0  0  0
  2  1  1  1
  2  3  1  0
  4  2  1  0
  5  4  2  0
  6  4  1  0
  7  6  1  0
  8  7  1  0
  9  8  2  0
 11 10  1  1
 11 13  1  0
 11 12  1  0
 12  8  1  0
 13 15  1  0
 14 13  2  0
M  END
$$$$
