AGA.pdb
     RDKit          3D

 15 14  0  0  1  0  0  0  0  0999 V2000
   25.3472  -35.0387  -12.0643 C   0  0  0  0  0  0  0  0  0  0  0  0
   24.4858  -33.8267  -11.7059 C   0  0  2  0  0  0  0  0  0  0  0  0
   24.2918  -32.9955  -12.8466 N   0  0  0  0  0  0  0  0  0  0  0  0
   25.2421  -33.0744  -10.6767 C   0  0  0  0  0  0  0  0  0  0  0  0
   26.2016  -32.3002  -10.9898 O   0  0  0  0  0  0  0  0  0  0  0  0
   24.8616  -33.2437   -9.3168 N   0  0  0  0  0  0  0  0  0  0  0  0
   25.5386  -32.4817   -8.2892 C   0  0  0  0  0  0  0  0  0  0  0  0
   26.3634  -33.4329   -7.4776 C   0  0  0  0  0  0  0  0  0  0  0  0
   26.4913  -34.6504   -7.7988 O   0  0  0  0  0  0  0  0  0  0  0  0
   28.6144  -33.1208   -4.5113 C   0  0  0  0  0  0  0  0  0  0  0  0
   27.8350  -33.9637   -5.5295 C   0  0  2  0  0  0  0  0  0  0  0  0
   27.0487  -33.0248   -6.3025 N   0  0  0  0  0  0  0  0  0  0  0  0
   26.9876  -34.9238   -4.8008 C   0  0  0  0  0  0  0  0  0  0  0  0
   27.5239  -35.9058   -4.2477 O   0  0  0  0  0  0  0  0  0  0  0  0
   25.6265  -34.7606   -4.7183 O   0  0  0  0  0  0  0  0  0  0  0  0
  2  1  1  6
  2  3  1  0
  4  2  1  0
  5  4  2  0
  6  4  1  0
  7  6  1  0
  8  7  1  0
  9  8  2  0
 11 10  1  1
 11 13  1  0
 11 12  1  0
 12  8  1  0
 13 15  1  0
 14 13  2  0
M  END
$$$$
