AGA.pdb
     RDKit          3D

 15 14  0  0  1  0  0  0  0  0999 V2000
   18.3297  -11.4403  -17.8518 C   0  0  0  0  0  0  0  0  0  0  0  0
   18.2679  -11.0830  -16.3659 C   0  0  2  0  0  0  0  0  0  0  0  0
   17.0753  -10.3605  -16.0740 N   0  0  0  0  0  0  0  0  0  0  0  0
   19.4408  -10.2160  -16.1022 C   0  0  0  0  0  0  0  0  0  0  0  0
   20.2606  -10.4731  -15.1642 O   0  0  0  0  0  0  0  0  0  0  0  0
   19.6260   -9.0779  -16.9348 N   0  0  0  0  0  0  0  0  0  0  0  0
   20.8027   -8.2533  -16.7602 C   0  0  0  0  0  0  0  0  0  0  0  0
   20.4899   -7.2166  -15.7253 C   0  0  0  0  0  0  0  0  0  0  0  0
   19.3023   -6.9647  -15.3674 O   0  0  0  0  0  0  0  0  0  0  0  0
   22.3343   -5.6008  -13.0250 C   0  0  0  0  0  0  0  0  0  0  0  0
   21.1861   -5.5094  -14.0390 C   0  0  2  0  0  0  0  0  0  0  0  0
   21.5059   -6.4571  -15.0864 N   0  0  0  0  0  0  0  0  0  0  0  0
   21.1121   -4.1289  -14.5485 C   0  0  0  0  0  0  0  0  0  0  0  0
   21.6379   -3.8610  -15.6484 O   0  0  0  0  0  0  0  0  0  0  0  0
   20.4796   -3.1362  -13.8412 O   0  0  0  0  0  0  0  0  0  0  0  0
  2  1  1  6
  2  3  1  0
  4  2  1  0
  5  4  2  0
  6  4  1  0
  7  6  1  0
  8  7  1  0
  9  8  2  0
 11 10  1  1
 11 13  1  0
 11 12  1  0
 12  8  1  0
 13 15  1  0
 14 13  2  0
M  END
$$$$
