AGA.pdb
     RDKit          3D

 15 14  0  0  1  0  0  0  0  0999 V2000
   25.6511  -20.8678  -10.2537 C   0  0  0  0  0  0  0  0  0  0  0  0
   25.1458  -21.5511  -11.5254 C   0  0  2  0  0  0  0  0  0  0  0  0
   25.8645  -21.0847  -12.6637 N   0  0  0  0  0  0  0  0  0  0  0  0
   23.7197  -21.1695  -11.6586 C   0  0  0  0  0  0  0  0  0  0  0  0
   22.8458  -21.5596  -10.8207 O   0  0  0  0  0  0  0  0  0  0  0  0
   23.3521  -20.3474  -12.7594 N   0  0  0  0  0  0  0  0  0  0  0  0
   21.9659  -19.9685  -12.9319 C   0  0  0  0  0  0  0  0  0  0  0  0
   21.8078  -19.4147  -14.3146 C   0  0  0  0  0  0  0  0  0  0  0  0
   20.6868  -19.0279  -14.7568 O   0  0  0  0  0  0  0  0  0  0  0  0
   24.0664  -18.1582  -16.9505 C   0  0  0  0  0  0  0  0  0  0  0  0
   22.7225  -18.7830  -16.5522 C   0  0  2  0  0  0  0  0  0  0  0  0
   22.9046  -19.2918  -15.2085 N   0  0  0  0  0  0  0  0  0  0  0  0
   22.3963  -19.8556  -17.5082 C   0  0  0  0  0  0  0  0  0  0  0  0
   22.5001  -21.0444  -17.1422 O   0  0  0  0  0  0  0  0  0  0  0  0
   21.9825  -19.5751  -18.7873 O   0  0  0  0  0  0  0  0  0  0  0  0
  2  1  1  1
  2  3  1  0
  4  2  1  0
  5  4  2  0
  6  4  1  0
  7  6  1  0
  8  7  1  0
  9  8  2  0
 11 10  1  6
 11 13  1  0
 11 12  1  0
 12  8  1  0
 13 15  1  0
 14 13  2  0
M  END
$$$$
