AGA.pdb
     RDKit          3D

 15 14  0  0  1  0  0  0  0  0999 V2000
   14.9857  -12.3750  -18.0239 C   0  0  0  0  0  0  0  0  0  0  0  0
   15.2770  -11.4424  -16.8470 C   0  0  2  0  0  0  0  0  0  0  0  0
   14.6578  -10.1751  -17.0474 N   0  0  0  0  0  0  0  0  0  0  0  0
   16.7485  -11.2672  -16.8154 C   0  0  0  0  0  0  0  0  0  0  0  0
   17.5232  -12.2110  -16.4590 O   0  0  0  0  0  0  0  0  0  0  0  0
   17.2752  -10.0028  -17.1983 N   0  0  0  0  0  0  0  0  0  0  0  0
   18.7096   -9.8183  -17.2565 C   0  0  0  0  0  0  0  0  0  0  0  0
   19.1109   -8.9556  -16.0997 C   0  0  0  0  0  0  0  0  0  0  0  0
   18.2580   -8.3396  -15.3962 O   0  0  0  0  0  0  0  0  0  0  0  0
   22.2760   -8.3525  -14.2341 C   0  0  0  0  0  0  0  0  0  0  0  0
   20.8322   -7.9665  -14.5826 C   0  0  2  0  0  0  0  0  0  0  0  0
   20.4696   -8.7789  -15.7255 N   0  0  0  0  0  0  0  0  0  0  0  0
   20.7881   -6.5270  -14.8933 C   0  0  0  0  0  0  0  0  0  0  0  0
   20.8184   -6.1646  -16.0874 O   0  0  0  0  0  0  0  0  0  0  0  0
   20.7146   -5.5808  -13.9007 O   0  0  0  0  0  0  0  0  0  0  0  0
  2  1  1  6
  2  3  1  0
  4  2  1  0
  5  4  2  0
  6  4  1  0
  7  6  1  0
  8  7  1  0
  9  8  2  0
 11 10  1  6
 11 13  1  0
 11 12  1  0
 12  8  1  0
 13 15  1  0
 14 13  2  0
M  END
$$$$
