FCD.pdb
     RDKit          3D

 26 26  0  0  1  0  0  0  0  0999 V2000
   23.2955  -13.6629  -17.9593 N   0  0  0  0  0  0  0  0  0  0  0  0
   23.6043  -12.6869  -16.9341 C   0  0  1  0  0  0  0  0  0  0  0  0
   24.9039  -12.0246  -17.3359 C   0  0  0  0  0  0  0  0  0  0  0  0
   26.0250  -12.9935  -17.2839 C   0  0  0  0  0  0  0  0  0  0  0  0
   26.7520  -13.2960  -18.4360 C   0  0  0  0  0  0  0  0  0  0  0  0
   27.8008  -14.1991  -18.3998 C   0  0  0  0  0  0  0  0  0  0  0  0
   28.1637  -14.8268  -17.2391 C   0  0  0  0  0  0  0  0  0  0  0  0
   27.4621  -14.5447  -16.0913 C   0  0  0  0  0  0  0  0  0  0  0  0
   26.4095  -13.6388  -16.1267 C   0  0  0  0  0  0  0  0  0  0  0  0
   22.5492  -11.6809  -16.7739 C   0  0  0  0  0  0  0  0  0  0  0  0
   21.9992  -11.2280  -17.8126 O   0  0  0  0  0  0  0  0  0  0  0  0
   22.1090  -11.1866  -15.5344 N   0  0  0  0  0  0  0  0  0  0  0  0
   21.0317  -10.2336  -15.4008 C   0  0  1  0  0  0  0  0  0  0  0  0
   20.1262  -10.5667  -14.2299 C   0  0  0  0  0  0  0  0  0  0  0  0
   18.7898   -9.3789  -14.1059 S   0  0  0  0  0  0  0  0  0  0  0  0
   21.5618   -8.8660  -15.1772 C   0  0  0  0  0  0  0  0  0  0  0  0
   22.5637   -8.6715  -14.4059 O   0  0  0  0  0  0  0  0  0  0  0  0
   20.9608   -7.7648  -15.8169 N   0  0  0  0  0  0  0  0  0  0  0  0
   21.5378   -6.3964  -15.7324 C   0  0  1  0  0  0  0  0  0  0  0  0
   21.1361   -5.6310  -16.9613 C   0  0  0  0  0  0  0  0  0  0  0  0
   21.7025   -4.2800  -16.9603 C   0  0  0  0  0  0  0  0  0  0  0  0
   22.4178   -3.8076  -16.0565 O   0  0  0  0  0  0  0  0  0  0  0  0
   20.9791   -5.8353  -14.4713 C   0  0  0  0  0  0  0  0  0  0  0  0
   21.7632   -5.2182  -13.5220 O   0  0  0  0  0  0  0  0  0  0  0  0
   21.4490   -3.4028  -18.0451 O   0  0  0  0  0  0  0  0  0  0  0  0
   19.7385   -5.9007  -14.2085 O   0  0  0  0  0  0  0  0  0  0  0  0
  2 10  1  0
  2  1  1  6
  3  2  1  0
  4  3  1  0
  5  4  2  0
  6  5  1  0
  7  8  1  0
  7  6  2  0
  8  9  2  0
  9  4  1  0
 10 11  2  0
 12 13  1  0
 12 10  1  0
 13 14  1  1
 14 15  1  0
 16 17  2  0
 16 13  1  0
 18 16  1  0
 19 18  1  0
 19 20  1  6
 20 21  1  0
 21 25  1  0
 21 22  2  0
 23 24  1  0
 23 19  1  0
 26 23  2  0
M  END
$$$$
