FCD.pdb
     RDKit          3D

 26 26  0  0  1  0  0  0  0  0999 V2000
   16.3221  -14.5946    4.8822 N   0  0  0  0  0  0  0  0  0  0  0  0
   16.4607  -15.9144    4.3009 C   0  0  1  0  0  0  0  0  0  0  0  0
   17.9413  -16.2232    4.2611 C   0  0  0  0  0  0  0  0  0  0  0  0
   18.5151  -15.8747    2.9392 C   0  0  0  0  0  0  0  0  0  0  0  0
   18.5485  -16.8186    1.9119 C   0  0  0  0  0  0  0  0  0  0  0  0
   19.0818  -16.5047    0.6734 C   0  0  0  0  0  0  0  0  0  0  0  0
   19.5940  -15.2634    0.4095 C   0  0  0  0  0  0  0  0  0  0  0  0
   19.5720  -14.3170    1.4061 C   0  0  0  0  0  0  0  0  0  0  0  0
   19.0372  -14.6311    2.6492 C   0  0  0  0  0  0  0  0  0  0  0  0
   15.7463  -16.9456    5.0606 C   0  0  0  0  0  0  0  0  0  0  0  0
   15.7908  -16.8930    6.3182 O   0  0  0  0  0  0  0  0  0  0  0  0
   15.0126  -17.9924    4.4771 N   0  0  0  0  0  0  0  0  0  0  0  0
   14.5909  -19.1652    5.2075 C   0  0  1  0  0  0  0  0  0  0  0  0
   13.0960  -19.3954    5.0896 C   0  0  0  0  0  0  0  0  0  0  0  0
   12.5788  -20.7469    6.1471 S   0  0  0  0  0  0  0  0  0  0  0  0
   15.2694  -20.3799    4.6923 C   0  0  0  0  0  0  0  0  0  0  0  0
   15.4408  -20.5495    3.4360 O   0  0  0  0  0  0  0  0  0  0  0  0
   15.7321  -21.3617    5.5895 N   0  0  0  0  0  0  0  0  0  0  0  0
   16.4434  -22.5811    5.1210 C   0  0  1  0  0  0  0  0  0  0  0  0
   17.3608  -23.0500    6.2147 C   0  0  0  0  0  0  0  0  0  0  0  0
   18.6436  -23.5103    5.6777 C   0  0  0  0  0  0  0  0  0  0  0  0
   18.9407  -23.5401    4.4684 O   0  0  0  0  0  0  0  0  0  0  0  0
   15.3551  -23.5459    4.8013 C   0  0  0  0  0  0  0  0  0  0  0  0
   14.0842  -23.4294    5.3188 O   0  0  0  0  0  0  0  0  0  0  0  0
   19.6587  -23.9666    6.5564 O   0  0  0  0  0  0  0  0  0  0  0  0
   15.5504  -24.5337    4.0276 O   0  0  0  0  0  0  0  0  0  0  0  0
  2 10  1  0
  2  1  1  1
  3  2  1  0
  4  3  1  0
  5  4  2  0
  6  5  1  0
  7  8  1  0
  7  6  2  0
  8  9  2  0
  9  4  1  0
 10 11  2  0
 12 13  1  0
 12 10  1  0
 13 14  1  6
 14 15  1  0
 16 17  2  0
 16 13  1  0
 18 16  1  0
 19 18  1  0
 19 20  1  1
 20 21  1  0
 21 25  1  0
 21 22  2  0
 23 24  1  0
 23 19  1  0
 26 23  2  0
M  END
$$$$
