FCD.pdb
     RDKit          3D

 26 26  0  0  1  0  0  0  0  0999 V2000
   27.4373  -22.6415  -12.6085 N   0  0  0  0  0  0  0  0  0  0  0  0
   26.8593  -21.6262  -11.7517 C   0  0  1  0  0  0  0  0  0  0  0  0
   27.7912  -20.4350  -11.7925 C   0  0  0  0  0  0  0  0  0  0  0  0
   29.0045  -20.6893  -10.9792 C   0  0  0  0  0  0  0  0  0  0  0  0
   30.2493  -20.8352  -11.5929 C   0  0  0  0  0  0  0  0  0  0  0  0
   31.3892  -21.0730  -10.8439 C   0  0  0  0  0  0  0  0  0  0  0  0
   31.3400  -21.1735   -9.4800 C   0  0  0  0  0  0  0  0  0  0  0  0
   30.1249  -21.0333   -8.8531 C   0  0  0  0  0  0  0  0  0  0  0  0
   28.9806  -20.7948   -9.6038 C   0  0  0  0  0  0  0  0  0  0  0  0
   25.5107  -21.2316  -12.1716 C   0  0  0  0  0  0  0  0  0  0  0  0
   25.1662  -21.4694  -13.3595 O   0  0  0  0  0  0  0  0  0  0  0  0
   24.5734  -20.6034  -11.3341 N   0  0  0  0  0  0  0  0  0  0  0  0
   23.1581  -20.5649  -11.6205 C   0  0  1  0  0  0  0  0  0  0  0  0
   22.3630  -19.9994  -10.4586 C   0  0  0  0  0  0  0  0  0  0  0  0
   20.6501  -20.5186  -10.5522 S   0  0  0  0  0  0  0  0  0  0  0  0
   22.8822  -19.7134  -12.8037 C   0  0  0  0  0  0  0  0  0  0  0  0
   23.2705  -18.4950  -12.8368 O   0  0  0  0  0  0  0  0  0  0  0  0
   22.1854  -20.2446  -13.9062 N   0  0  0  0  0  0  0  0  0  0  0  0
   21.8752  -19.4252  -15.1081 C   0  0  1  0  0  0  0  0  0  0  0  0
   22.1667  -20.2441  -16.3337 C   0  0  0  0  0  0  0  0  0  0  0  0
   23.3671  -19.7666  -17.0243 C   0  0  0  0  0  0  0  0  0  0  0  0
   24.0155  -18.7513  -16.7075 O   0  0  0  0  0  0  0  0  0  0  0  0
   20.4367  -19.0720  -14.9554 C   0  0  0  0  0  0  0  0  0  0  0  0
   19.5574  -19.8400  -14.2248 O   0  0  0  0  0  0  0  0  0  0  0  0
   23.8721  -20.4760  -18.1434 O   0  0  0  0  0  0  0  0  0  0  0  0
   19.9471  -18.0341  -15.4989 O   0  0  0  0  0  0  0  0  0  0  0  0
  2 10  1  0
  2  1  1  6
  3  2  1  0
  4  3  1  0
  5  4  2  0
  6  5  1  0
  7  8  1  0
  7  6  2  0
  8  9  2  0
  9  4  1  0
 10 11  2  0
 12 13  1  0
 12 10  1  0
 13 14  1  1
 14 15  1  0
 16 17  2  0
 16 13  1  0
 18 16  1  0
 19 18  1  0
 19 20  1  6
 20 21  1  0
 21 25  1  0
 21 22  2  0
 23 24  1  0
 23 19  1  0
 26 23  2  0
M  END
$$$$
