FCD.pdb
     RDKit          3D

 26 26  0  0  1  0  0  0  0  0999 V2000
   38.1058  -23.7919    5.8975 N   0  0  0  0  0  0  0  0  0  0  0  0
   36.6623  -23.6687    5.8944 C   0  0  1  0  0  0  0  0  0  0  0  0
   36.2346  -23.5549    4.4476 C   0  0  0  0  0  0  0  0  0  0  0  0
   34.7775  -23.2988    4.3493 C   0  0  0  0  0  0  0  0  0  0  0  0
   33.9172  -24.2858    3.8664 C   0  0  0  0  0  0  0  0  0  0  0  0
   32.5550  -24.0583    3.7701 C   0  0  0  0  0  0  0  0  0  0  0  0
   32.0019  -22.8632    4.1427 C   0  0  0  0  0  0  0  0  0  0  0  0
   32.8295  -21.8758    4.6215 C   0  0  0  0  0  0  0  0  0  0  0  0
   34.1966  -22.1032    4.7183 C   0  0  0  0  0  0  0  0  0  0  0  0
   35.9955  -24.8078    6.5338 C   0  0  0  0  0  0  0  0  0  0  0  0
   36.3662  -25.9680    6.2133 O   0  0  0  0  0  0  0  0  0  0  0  0
   34.9666  -24.6909    7.4838 N   0  0  0  0  0  0  0  0  0  0  0  0
   34.4636  -25.8100    8.2461 C   0  0  1  0  0  0  0  0  0  0  0  0
   33.8823  -25.3701    9.5766 C   0  0  0  0  0  0  0  0  0  0  0  0
   35.1065  -24.4833   10.5396 S   0  0  0  0  0  0  0  0  0  0  0  0
   33.3897  -26.5144    7.5033 C   0  0  0  0  0  0  0  0  0  0  0  0
   32.6141  -25.8744    6.7125 O   0  0  0  0  0  0  0  0  0  0  0  0
   33.2154  -27.9023    7.6655 N   0  0  0  0  0  0  0  0  0  0  0  0
   32.2539  -28.6755    6.8346 C   0  0  1  0  0  0  0  0  0  0  0  0
   32.9854  -29.2247    5.6426 C   0  0  0  0  0  0  0  0  0  0  0  0
   32.1210  -30.0882    4.8344 C   0  0  0  0  0  0  0  0  0  0  0  0
   30.9136  -30.2983    5.0581 O   0  0  0  0  0  0  0  0  0  0  0  0
   31.7335  -29.7273    7.7513 C   0  0  0  0  0  0  0  0  0  0  0  0
   30.5304  -30.3644    7.5428 O   0  0  0  0  0  0  0  0  0  0  0  0
   32.6469  -30.7590    3.7014 O   0  0  0  0  0  0  0  0  0  0  0  0
   32.3820  -30.0901    8.7810 O   0  0  0  0  0  0  0  0  0  0  0  0
  2 10  1  0
  2  1  1  6
  3  2  1  0
  4  3  1  0
  5  4  2  0
  6  5  1  0
  7  8  1  0
  7  6  2  0
  8  9  2  0
  9  4  1  0
 10 11  2  0
 12 13  1  0
 12 10  1  0
 13 14  1  1
 14 15  1  0
 16 17  2  0
 16 13  1  0
 18 16  1  0
 19 18  1  0
 19 20  1  6
 20 21  1  0
 21 25  1  0
 21 22  2  0
 23 24  1  0
 23 19  1  0
 26 23  2  0
M  END
$$$$
