FCD.pdb
     RDKit          3D

 26 26  0  0  1  0  0  0  0  0999 V2000
   24.9382  -11.2968  -17.9371 N   0  0  0  0  0  0  0  0  0  0  0  0
   24.5219  -10.7731  -16.6521 C   0  0  1  0  0  0  0  0  0  0  0  0
   25.7560  -10.1991  -15.9913 C   0  0  0  0  0  0  0  0  0  0  0  0
   26.7876  -11.2476  -15.8050 C   0  0  0  0  0  0  0  0  0  0  0  0
   28.0218  -11.1475  -16.4485 C   0  0  0  0  0  0  0  0  0  0  0  0
   28.9928  -12.1203  -16.2821 C   0  0  0  0  0  0  0  0  0  0  0  0
   28.7814  -13.2120  -15.4844 C   0  0  0  0  0  0  0  0  0  0  0  0
   27.5733  -13.3323  -14.8402 C   0  0  0  0  0  0  0  0  0  0  0  0
   26.5983  -12.3568  -15.0066 C   0  0  0  0  0  0  0  0  0  0  0  0
   23.4830   -9.7446  -16.7695 C   0  0  0  0  0  0  0  0  0  0  0  0
   23.3759   -9.1324  -17.8650 O   0  0  0  0  0  0  0  0  0  0  0  0
   22.5955   -9.3952  -15.7376 N   0  0  0  0  0  0  0  0  0  0  0  0
   21.4635   -8.5190  -15.9313 C   0  0  1  0  0  0  0  0  0  0  0  0
   20.1823   -9.1252  -15.3902 C   0  0  0  0  0  0  0  0  0  0  0  0
   19.7344  -10.5909  -16.3193 S   0  0  0  0  0  0  0  0  0  0  0  0
   21.6719   -7.2258  -15.2345 C   0  0  0  0  0  0  0  0  0  0  0  0
   22.1614   -7.1916  -14.0531 O   0  0  0  0  0  0  0  0  0  0  0  0
   21.3292   -6.0187  -15.8735 N   0  0  0  0  0  0  0  0  0  0  0  0
   21.5535   -4.6973  -15.2285 C   0  0  1  0  0  0  0  0  0  0  0  0
   22.0957   -3.7476  -16.2589 C   0  0  0  0  0  0  0  0  0  0  0  0
   22.2728   -2.4022  -15.7072 C   0  0  0  0  0  0  0  0  0  0  0  0
   22.0585   -2.0837  -14.5222 O   0  0  0  0  0  0  0  0  0  0  0  0
   20.2151   -4.3080  -14.7046 C   0  0  0  0  0  0  0  0  0  0  0  0
   19.0463   -4.8792  -15.1566 O   0  0  0  0  0  0  0  0  0  0  0  0
   22.7200   -1.3460  -16.5409 O   0  0  0  0  0  0  0  0  0  0  0  0
   20.0870   -3.4198  -13.8062 O   0  0  0  0  0  0  0  0  0  0  0  0
  2 10  1  0
  2  1  1  6
  3  2  1  0
  4  3  1  0
  5  4  2  0
  6  5  1  0
  7  8  1  0
  7  6  2  0
  8  9  2  0
  9  4  1  0
 10 11  2  0
 12 13  1  0
 12 10  1  0
 13 14  1  1
 14 15  1  0
 16 17  2  0
 16 13  1  0
 18 16  1  0
 19 18  1  0
 19 20  1  6
 20 21  1  0
 21 25  1  0
 21 22  2  0
 23 24  1  0
 23 19  1  0
 26 23  2  0
M  END
$$$$
