FCD.pdb
     RDKit          3D

 26 26  0  0  1  0  0  0  0  0999 V2000
   23.8516  -13.6145  -16.8671 N   0  0  0  0  0  0  0  0  0  0  0  0
   22.9262  -12.6676  -17.4551 C   0  0  1  0  0  0  0  0  0  0  0  0
   21.8156  -13.4756  -18.0898 C   0  0  0  0  0  0  0  0  0  0  0  0
   22.2941  -14.1499  -19.3205 C   0  0  0  0  0  0  0  0  0  0  0  0
   22.5414  -15.5233  -19.3236 C   0  0  0  0  0  0  0  0  0  0  0  0
   22.9884  -16.1639  -20.4666 C   0  0  0  0  0  0  0  0  0  0  0  0
   23.2039  -15.4791  -21.6317 C   0  0  0  0  0  0  0  0  0  0  0  0
   22.9672  -14.1254  -21.6529 C   0  0  0  0  0  0  0  0  0  0  0  0
   22.5188  -13.4817  -20.5064 C   0  0  0  0  0  0  0  0  0  0  0  0
   22.3747  -11.7297  -16.4718 C   0  0  0  0  0  0  0  0  0  0  0  0
   21.9233  -12.1985  -15.3934 O   0  0  0  0  0  0  0  0  0  0  0  0
   22.3159  -10.3374  -16.6528 N   0  0  0  0  0  0  0  0  0  0  0  0
   21.7399   -9.4374  -15.6807 C   0  0  1  0  0  0  0  0  0  0  0  0
   22.7392   -8.3945  -15.2163 C   0  0  0  0  0  0  0  0  0  0  0  0
   22.0057   -7.3206  -13.9831 S   0  0  0  0  0  0  0  0  0  0  0  0
   20.5780   -8.7148  -16.2541 C   0  0  0  0  0  0  0  0  0  0  0  0
   20.6498   -8.1769  -17.4125 O   0  0  0  0  0  0  0  0  0  0  0  0
   19.3795   -8.6151  -15.5214 N   0  0  0  0  0  0  0  0  0  0  0  0
   18.2456   -7.7696  -15.9816 C   0  0  1  0  0  0  0  0  0  0  0  0
   17.0075   -8.1835  -15.2378 C   0  0  0  0  0  0  0  0  0  0  0  0
   15.8029   -7.6061  -15.8390 C   0  0  0  0  0  0  0  0  0  0  0  0
   15.7920   -6.8541  -16.8320 O   0  0  0  0  0  0  0  0  0  0  0  0
   18.6792   -6.3755  -15.6883 C   0  0  0  0  0  0  0  0  0  0  0  0
   19.5298   -6.0656  -14.6504 O   0  0  0  0  0  0  0  0  0  0  0  0
   14.5276   -7.8923  -15.2891 O   0  0  0  0  0  0  0  0  0  0  0  0
   18.2796   -5.3951  -16.3894 O   0  0  0  0  0  0  0  0  0  0  0  0
  2 10  1  0
  2  1  1  1
  3  2  1  0
  4  3  1  0
  5  4  2  0
  6  5  1  0
  7  8  1  0
  7  6  2  0
  8  9  2  0
  9  4  1  0
 10 11  2  0
 12 13  1  0
 12 10  1  0
 13 14  1  6
 14 15  1  0
 16 17  2  0
 16 13  1  0
 18 16  1  0
 19 18  1  0
 19 20  1  1
 20 21  1  0
 21 25  1  0
 21 22  2  0
 23 24  1  0
 23 19  1  0
 26 23  2  0
M  END
$$$$
