FCD.pdb
     RDKit          3D

 26 26  0  0  1  0  0  0  0  0999 V2000
   26.8605  -21.8450  -14.1915 N   0  0  0  0  0  0  0  0  0  0  0  0
   26.0278  -21.2555  -13.1628 C   0  0  1  0  0  0  0  0  0  0  0  0
   26.7644  -20.0396  -12.6451 C   0  0  0  0  0  0  0  0  0  0  0  0
   27.9255  -20.4428  -11.8158 C   0  0  0  0  0  0  0  0  0  0  0  0
   29.2233  -20.3376  -12.3176 C   0  0  0  0  0  0  0  0  0  0  0  0
   30.3152  -20.7109  -11.5526 C   0  0  0  0  0  0  0  0  0  0  0  0
   30.1652  -21.1949  -10.2813 C   0  0  0  0  0  0  0  0  0  0  0  0
   28.8962  -21.3075   -9.7654 C   0  0  0  0  0  0  0  0  0  0  0  0
   27.8000  -20.9333  -10.5324 C   0  0  0  0  0  0  0  0  0  0  0  0
   24.7012  -20.8738  -13.6581 C   0  0  0  0  0  0  0  0  0  0  0  0
   24.5934  -20.5396  -14.8676 O   0  0  0  0  0  0  0  0  0  0  0  0
   23.5376  -20.8559  -12.8703 N   0  0  0  0  0  0  0  0  0  0  0  0
   22.2302  -20.5424  -13.3984 C   0  0  1  0  0  0  0  0  0  0  0  0
   21.1210  -21.0696  -12.5075 C   0  0  0  0  0  0  0  0  0  0  0  0
   21.1820  -22.8583  -12.4129 S   0  0  0  0  0  0  0  0  0  0  0  0
   22.0463  -19.0748  -13.5152 C   0  0  0  0  0  0  0  0  0  0  0  0
   22.8312  -18.2676  -12.9080 O   0  0  0  0  0  0  0  0  0  0  0  0
   20.9986  -18.5570  -14.3008 N   0  0  0  0  0  0  0  0  0  0  0  0
   21.1664  -17.3289  -15.1230 C   0  0  1  0  0  0  0  0  0  0  0  0
   22.3146  -17.5396  -16.0690 C   0  0  0  0  0  0  0  0  0  0  0  0
   22.5218  -16.3719  -16.9290 C   0  0  0  0  0  0  0  0  0  0  0  0
   21.9736  -16.1936  -18.0332 O   0  0  0  0  0  0  0  0  0  0  0  0
   19.8546  -17.1576  -15.8066 C   0  0  0  0  0  0  0  0  0  0  0  0
   19.0515  -16.0569  -15.6064 O   0  0  0  0  0  0  0  0  0  0  0  0
   23.4017  -15.3372  -16.5218 O   0  0  0  0  0  0  0  0  0  0  0  0
   19.4091  -18.0294  -16.6153 O   0  0  0  0  0  0  0  0  0  0  0  0
  2 10  1  0
  2  1  1  6
  3  2  1  0
  4  3  1  0
  5  4  2  0
  6  5  1  0
  7  8  1  0
  7  6  2  0
  8  9  2  0
  9  4  1  0
 10 11  2  0
 12 13  1  0
 12 10  1  0
 13 14  1  1
 14 15  1  0
 16 17  2  0
 16 13  1  0
 18 16  1  0
 19 18  1  0
 19 20  1  6
 20 21  1  0
 21 25  1  0
 21 22  2  0
 23 24  1  0
 23 19  1  0
 26 23  2  0
M  END
$$$$
