FCD.pdb
     RDKit          3D

 26 26  0  0  1  0  0  0  0  0999 V2000
   24.7390  -20.6954   -7.5919 N   0  0  0  0  0  0  0  0  0  0  0  0
   25.8903  -20.1306   -8.2661 C   0  0  1  0  0  0  0  0  0  0  0  0
   27.1070  -20.8647   -7.7466 C   0  0  0  0  0  0  0  0  0  0  0  0
   27.5959  -20.2476   -6.4903 C   0  0  0  0  0  0  0  0  0  0  0  0
   27.2352  -20.7824   -5.2528 C   0  0  0  0  0  0  0  0  0  0  0  0
   27.6855  -20.2148   -4.0730 C   0  0  0  0  0  0  0  0  0  0  0  0
   28.4975  -19.1133   -4.0743 C   0  0  0  0  0  0  0  0  0  0  0  0
   28.8663  -18.5688   -5.2812 C   0  0  0  0  0  0  0  0  0  0  0  0
   28.4148  -19.1376   -6.4655 C   0  0  0  0  0  0  0  0  0  0  0  0
   25.8077  -20.2519   -9.7253 C   0  0  0  0  0  0  0  0  0  0  0  0
   24.6707  -20.4092  -10.2438 O   0  0  0  0  0  0  0  0  0  0  0  0
   26.9166  -20.2041  -10.5872 N   0  0  0  0  0  0  0  0  0  0  0  0
   26.8004  -20.0219  -12.0154 C   0  0  1  0  0  0  0  0  0  0  0  0
   28.1272  -20.2329  -12.7204 C   0  0  0  0  0  0  0  0  0  0  0  0
   29.0510  -21.5593  -11.9460 S   0  0  0  0  0  0  0  0  0  0  0  0
   25.8321  -20.9860  -12.5934 C   0  0  0  0  0  0  0  0  0  0  0  0
   25.6482  -22.1308  -12.0530 O   0  0  0  0  0  0  0  0  0  0  0  0
   25.1040  -20.6449  -13.7495 N   0  0  0  0  0  0  0  0  0  0  0  0
   23.8149  -21.3048  -14.0889 C   0  0  1  0  0  0  0  0  0  0  0  0
   22.8719  -21.1367  -12.9313 C   0  0  0  0  0  0  0  0  0  0  0  0
   21.5468  -21.6820  -13.2358 C   0  0  0  0  0  0  0  0  0  0  0  0
   21.2898  -22.8925  -13.3789 O   0  0  0  0  0  0  0  0  0  0  0  0
   23.3625  -20.6188  -15.3308 C   0  0  0  0  0  0  0  0  0  0  0  0
   22.5810  -21.2403  -16.2793 O   0  0  0  0  0  0  0  0  0  0  0  0
   20.4385  -20.8111  -13.3893 O   0  0  0  0  0  0  0  0  0  0  0  0
   23.6805  -19.4144  -15.5768 O   0  0  0  0  0  0  0  0  0  0  0  0
  2 10  1  0
  2  1  1  1
  3  2  1  0
  4  3  1  0
  5  4  2  0
  6  5  1  0
  7  8  1  0
  7  6  2  0
  8  9  2  0
  9  4  1  0
 10 11  2  0
 12 13  1  0
 12 10  1  0
 13 14  1  6
 14 15  1  0
 16 17  2  0
 16 13  1  0
 18 16  1  0
 19 18  1  0
 19 20  1  1
 20 21  1  0
 21 25  1  0
 21 22  2  0
 23 24  1  0
 23 19  1  0
 26 23  2  0
M  END
$$$$
