FCD.pdb
     RDKit          3D

 26 26  0  0  1  0  0  0  0  0999 V2000
   23.9086   -9.8560  -17.9052 N   0  0  0  0  0  0  0  0  0  0  0  0
   23.4604   -9.3371  -16.6290 C   0  0  1  0  0  0  0  0  0  0  0  0
   24.5150   -8.3599  -16.1577 C   0  0  0  0  0  0  0  0  0  0  0  0
   25.8301   -9.0311  -16.0231 C   0  0  0  0  0  0  0  0  0  0  0  0
   26.8882   -8.6889  -16.8662 C   0  0  0  0  0  0  0  0  0  0  0  0
   28.1207   -9.3087  -16.7500 C   0  0  0  0  0  0  0  0  0  0  0  0
   28.3483  -10.2759  -15.8089 C   0  0  0  0  0  0  0  0  0  0  0  0
   27.3211  -10.6298  -14.9670 C   0  0  0  0  0  0  0  0  0  0  0  0
   26.0840  -10.0084  -15.0830 C   0  0  0  0  0  0  0  0  0  0  0  0
   22.1549   -8.6744  -16.7143 C   0  0  0  0  0  0  0  0  0  0  0  0
   21.8428   -8.1167  -17.7996 O   0  0  0  0  0  0  0  0  0  0  0  0
   21.2250   -8.6199  -15.6620 N   0  0  0  0  0  0  0  0  0  0  0  0
   19.9268   -7.9988  -15.7857 C   0  0  1  0  0  0  0  0  0  0  0  0
   18.9315   -8.5705  -14.7935 C   0  0  0  0  0  0  0  0  0  0  0  0
   18.5989  -10.2945  -15.1533 S   0  0  0  0  0  0  0  0  0  0  0  0
   20.0144   -6.5389  -15.5357 C   0  0  0  0  0  0  0  0  0  0  0  0
   21.1046   -6.0105  -15.1250 O   0  0  0  0  0  0  0  0  0  0  0  0
   18.8895   -5.7193  -15.7501 N   0  0  0  0  0  0  0  0  0  0  0  0
   18.9657   -4.2376  -15.6444 C   0  0  1  0  0  0  0  0  0  0  0  0
   20.0425   -3.7466  -16.5701 C   0  0  0  0  0  0  0  0  0  0  0  0
   20.0525   -2.2841  -16.6527 C   0  0  0  0  0  0  0  0  0  0  0  0
   19.2855   -1.5294  -16.0251 O   0  0  0  0  0  0  0  0  0  0  0  0
   17.6018   -3.7684  -16.0145 C   0  0  0  0  0  0  0  0  0  0  0  0
   16.9375   -2.7886  -15.3106 O   0  0  0  0  0  0  0  0  0  0  0  0
   20.9848   -1.6267  -17.4948 O   0  0  0  0  0  0  0  0  0  0  0  0
   16.9793   -4.2561  -17.0080 O   0  0  0  0  0  0  0  0  0  0  0  0
  2 10  1  0
  2  1  1  6
  3  2  1  0
  4  3  1  0
  5  4  2  0
  6  5  1  0
  7  8  1  0
  7  6  2  0
  8  9  2  0
  9  4  1  0
 10 11  2  0
 12 13  1  0
 12 10  1  0
 13 14  1  1
 14 15  1  0
 16 17  2  0
 16 13  1  0
 18 16  1  0
 19 18  1  0
 19 20  1  6
 20 21  1  0
 21 25  1  0
 21 22  2  0
 23 24  1  0
 23 19  1  0
 26 23  2  0
M  END
$$$$
