FCD.pdb
     RDKit          3D

 26 26  0  0  1  0  0  0  0  0999 V2000
   20.8899   -8.5179  -11.5314 N   0  0  0  0  0  0  0  0  0  0  0  0
   21.7086   -8.3597  -12.7161 C   0  0  1  0  0  0  0  0  0  0  0  0
   21.8350   -9.7285  -13.3483 C   0  0  0  0  0  0  0  0  0  0  0  0
   22.8792   -9.7264  -14.4009 C   0  0  0  0  0  0  0  0  0  0  0  0
   24.2246   -9.8771  -14.0624 C   0  0  0  0  0  0  0  0  0  0  0  0
   25.2085   -9.8767  -15.0365 C   0  0  0  0  0  0  0  0  0  0  0  0
   24.9017   -9.7294  -16.3620 C   0  0  0  0  0  0  0  0  0  0  0  0
   23.5831   -9.5793  -16.7197 C   0  0  0  0  0  0  0  0  0  0  0  0
   22.5952   -9.5794  -15.7429 C   0  0  0  0  0  0  0  0  0  0  0  0
   21.1391   -7.4073  -13.6749 C   0  0  0  0  0  0  0  0  0  0  0  0
   19.8917   -7.4156  -13.8492 O   0  0  0  0  0  0  0  0  0  0  0  0
   21.8949   -6.4823  -14.4152 N   0  0  0  0  0  0  0  0  0  0  0  0
   21.3072   -5.5422  -15.3412 C   0  0  1  0  0  0  0  0  0  0  0  0
   22.2485   -4.3936  -15.6519 C   0  0  0  0  0  0  0  0  0  0  0  0
   22.3407   -3.2592  -14.2674 S   0  0  0  0  0  0  0  0  0  0  0  0
   20.9756   -6.2048  -16.6266 C   0  0  0  0  0  0  0  0  0  0  0  0
   21.8249   -6.9640  -17.2085 O   0  0  0  0  0  0  0  0  0  0  0  0
   19.7145   -6.0005  -17.2191 N   0  0  0  0  0  0  0  0  0  0  0  0
   19.3099   -6.7022  -18.4666 C   0  0  1  0  0  0  0  0  0  0  0  0
   17.8822   -7.1480  -18.3233 C   0  0  0  0  0  0  0  0  0  0  0  0
   17.3974   -7.7945  -19.5452 C   0  0  0  0  0  0  0  0  0  0  0  0
   18.0928   -8.0291  -20.5516 O   0  0  0  0  0  0  0  0  0  0  0  0
   19.5144   -5.6936  -19.5428 C   0  0  0  0  0  0  0  0  0  0  0  0
   19.3034   -4.3467  -19.3476 O   0  0  0  0  0  0  0  0  0  0  0  0
   16.0434   -8.2043  -19.6425 O   0  0  0  0  0  0  0  0  0  0  0  0
   19.8969   -6.0322  -20.7054 O   0  0  0  0  0  0  0  0  0  0  0  0
  2 10  1  0
  2  1  1  1
  3  2  1  0
  4  3  1  0
  5  4  2  0
  6  5  1  0
  7  8  1  0
  7  6  2  0
  8  9  2  0
  9  4  1  0
 10 11  2  0
 12 13  1  0
 12 10  1  0
 13 14  1  6
 14 15  1  0
 16 17  2  0
 16 13  1  0
 18 16  1  0
 19 18  1  0
 19 20  1  1
 20 21  1  0
 21 25  1  0
 21 22  2  0
 23 24  1  0
 23 19  1  0
 26 23  2  0
M  END
$$$$
