FCD.pdb
     RDKit          3D

 26 26  0  0  1  0  0  0  0  0999 V2000
   16.2081  -11.1350  -13.9971 N   0  0  0  0  0  0  0  0  0  0  0  0
   17.5296  -10.5425  -14.0374 C   0  0  1  0  0  0  0  0  0  0  0  0
   18.0014  -10.6194  -15.4729 C   0  0  0  0  0  0  0  0  0  0  0  0
   18.0962  -12.0299  -15.9197 C   0  0  0  0  0  0  0  0  0  0  0  0
   19.2070  -12.8049  -15.5836 C   0  0  0  0  0  0  0  0  0  0  0  0
   19.3066  -14.1231  -15.9951 C   0  0  0  0  0  0  0  0  0  0  0  0
   18.3250  -14.7143  -16.7432 C   0  0  0  0  0  0  0  0  0  0  0  0
   17.2212  -13.9707  -17.0865 C   0  0  0  0  0  0  0  0  0  0  0  0
   17.1205  -12.6479  -16.6742 C   0  0  0  0  0  0  0  0  0  0  0  0
   17.5410   -9.1518  -13.5721 C   0  0  0  0  0  0  0  0  0  0  0  0
   16.4345   -8.5776  -13.3924 O   0  0  0  0  0  0  0  0  0  0  0  0
   18.7084   -8.4141  -13.3121 N   0  0  0  0  0  0  0  0  0  0  0  0
   18.7326   -7.2459  -12.4627 C   0  0  1  0  0  0  0  0  0  0  0  0
   18.3551   -7.5812  -11.0321 C   0  0  0  0  0  0  0  0  0  0  0  0
   18.4788   -6.1294   -9.9884 S   0  0  0  0  0  0  0  0  0  0  0  0
   20.0876   -6.6420  -12.4346 C   0  0  0  0  0  0  0  0  0  0  0  0
   21.1039   -7.3334  -12.0805 O   0  0  0  0  0  0  0  0  0  0  0  0
   20.2650   -5.2936  -12.7999 N   0  0  0  0  0  0  0  0  0  0  0  0
   21.4052   -4.8530  -13.6474 C   0  0  1  0  0  0  0  0  0  0  0  0
   21.4518   -5.7186  -14.8746 C   0  0  0  0  0  0  0  0  0  0  0  0
   22.8151   -5.8332  -15.3982 C   0  0  0  0  0  0  0  0  0  0  0  0
   23.7416   -5.0371  -15.1544 O   0  0  0  0  0  0  0  0  0  0  0  0
   21.1195   -3.4208  -13.9385 C   0  0  0  0  0  0  0  0  0  0  0  0
   19.8421   -2.9425  -14.1284 O   0  0  0  0  0  0  0  0  0  0  0  0
   23.1600   -6.9124  -16.2508 O   0  0  0  0  0  0  0  0  0  0  0  0
   22.0517   -2.5631  -14.0272 O   0  0  0  0  0  0  0  0  0  0  0  0
  2 10  1  0
  2  1  1  6
  3  2  1  0
  4  3  1  0
  5  4  2  0
  6  5  1  0
  7  8  1  0
  7  6  2  0
  8  9  2  0
  9  4  1  0
 10 11  2  0
 12 13  1  0
 12 10  1  0
 13 14  1  1
 14 15  1  0
 16 17  2  0
 16 13  1  0
 18 16  1  0
 19 18  1  0
 19 20  1  6
 20 21  1  0
 21 25  1  0
 21 22  2  0
 23 24  1  0
 23 19  1  0
 26 23  2  0
M  END
$$$$
