MIA.pdb
     RDKit          3D

 22 21  0  0  1  0  0  0  0  0999 V2000
    8.6217  -11.6022   19.6392 C   0  0  0  0  0  0  0  0  0  0  0  0
    7.6027  -12.6884   18.6413 S   0  0  0  0  0  0  0  0  0  0  0  0
    7.3522  -14.2831   19.4527 C   0  0  0  0  0  0  0  0  0  0  0  0
    8.0995  -14.2568   20.7675 C   0  0  0  0  0  0  0  0  0  0  0  0
    7.9271  -15.5459   21.5414 C   0  0  2  0  0  0  0  0  0  0  0  0
    6.5538  -15.9030   21.7009 N   0  0  0  0  0  0  0  0  0  0  0  0
    8.6116  -15.3360   22.8617 C   0  0  0  0  0  0  0  0  0  0  0  0
    9.8645  -15.2565   22.9377 O   0  0  0  0  0  0  0  0  0  0  0  0
    6.0570  -12.1619   26.2001 C   0  0  0  0  0  0  0  0  0  0  0  0
    7.1380  -12.9260   25.4404 C   0  0  0  0  0  0  0  0  0  0  0  0
    7.6278  -14.1016   26.1889 C   0  0  2  0  0  0  0  0  0  0  0  0
    8.1733  -13.7695   27.5573 C   0  0  0  0  0  0  0  0  0  0  0  0
    8.5460  -14.9628   25.3637 C   0  0  2  0  0  0  0  0  0  0  0  0
    7.8635  -15.2214   24.0617 N   0  0  0  0  0  0  0  0  0  0  0  0
    8.9242  -16.2460   25.9674 C   0  0  0  0  0  0  0  0  0  0  0  0
    8.0146  -17.0750   26.3392 O   0  0  0  0  0  0  0  0  0  0  0  0
   11.6660  -18.6947   26.0757 C   0  0  0  0  0  0  0  0  0  0  0  0
   10.5334  -17.9940   26.7834 C   0  0  2  0  0  0  0  0  0  0  0  0
   10.2468  -16.6902   26.1894 N   0  0  0  0  0  0  0  0  0  0  0  0
   10.7621  -17.8862   28.2407 C   0  0  0  0  0  0  0  0  0  0  0  0
   10.8308  -19.0082   29.0562 O   0  0  0  0  0  0  0  0  0  0  0  0
   10.9061  -16.7779   28.8180 O   0  0  0  0  0  0  0  0  0  0  0  0
  1  2  1  0
  3  2  1  0
  4  3  1  0
  5  6  1  1
  5  4  1  0
  7  5  1  0
  8  7  2  0
  9 10  1  0
 10 11  1  0
 11 12  1  1
 13 11  1  0
 13 14  1  6
 14  7  1  0
 15 19  1  0
 15 13  1  0
 16 15  2  0
 18 17  1  6
 18 19  1  0
 20 18  1  0
 20 21  1  0
 22 20  2  0
M  END
$$$$
