MIA.pdb
     RDKit          3D

 22 21  0  0  1  0  0  0  0  0999 V2000
    8.3526  -11.4816   19.5041 C   0  0  0  0  0  0  0  0  0  0  0  0
    7.3989  -12.6564   18.5426 S   0  0  0  0  0  0  0  0  0  0  0  0
    7.2699  -14.2472   19.3895 C   0  0  0  0  0  0  0  0  0  0  0  0
    8.0669  -14.1558   20.6717 C   0  0  0  0  0  0  0  0  0  0  0  0
    7.9886  -15.4341   21.4780 C   0  0  2  0  0  0  0  0  0  0  0  0
    6.6527  -15.9271   21.5843 N   0  0  0  0  0  0  0  0  0  0  0  0
    8.5811  -15.1183   22.8215 C   0  0  0  0  0  0  0  0  0  0  0  0
    9.8100  -14.8835   22.9498 O   0  0  0  0  0  0  0  0  0  0  0  0
    6.0007  -11.9226   26.0007 C   0  0  0  0  0  0  0  0  0  0  0  0
    7.0526  -12.7710   25.2915 C   0  0  0  0  0  0  0  0  0  0  0  0
    7.4690  -13.9387   26.0947 C   0  0  2  0  0  0  0  0  0  0  0  0
    7.9805  -13.5819   27.4700 C   0  0  0  0  0  0  0  0  0  0  0  0
    8.3796  -14.8625   25.3310 C   0  0  2  0  0  0  0  0  0  0  0  0
    7.7705  -15.0759   23.9851 N   0  0  0  0  0  0  0  0  0  0  0  0
    8.6269  -16.1677   25.9552 C   0  0  0  0  0  0  0  0  0  0  0  0
    7.6414  -16.9454   26.2322 O   0  0  0  0  0  0  0  0  0  0  0  0
   10.9222  -18.9076   26.0510 C   0  0  0  0  0  0  0  0  0  0  0  0
   10.0524  -18.0102   26.8953 C   0  0  2  0  0  0  0  0  0  0  0  0
    9.8959  -16.6868   26.2960 N   0  0  0  0  0  0  0  0  0  0  0  0
   10.5286  -17.9185   28.2926 C   0  0  0  0  0  0  0  0  0  0  0  0
   10.9113  -16.7091   28.8580 O   0  0  0  0  0  0  0  0  0  0  0  0
   10.6125  -18.9258   29.0413 O   0  0  0  0  0  0  0  0  0  0  0  0
  1  2  1  0
  3  2  1  0
  4  3  1  0
  5  6  1  1
  5  4  1  0
  7  5  1  0
  8  7  2  0
  9 10  1  0
 10 11  1  0
 11 12  1  1
 13 11  1  0
 13 14  1  6
 14  7  1  0
 15 19  1  0
 15 13  1  0
 16 15  2  0
 18 17  1  6
 18 19  1  0
 20 18  1  0
 20 21  1  0
 22 20  2  0
M  END
$$$$
