MIA.pdb
     RDKit          3D

 22 21  0  0  1  0  0  0  0  0999 V2000
    4.8080  -19.1479   22.7198 C   0  0  0  0  0  0  0  0  0  0  0  0
    4.7962  -18.8017   20.9607 S   0  0  0  0  0  0  0  0  0  0  0  0
    5.1628  -17.0636   20.6309 C   0  0  0  0  0  0  0  0  0  0  0  0
    6.1885  -16.6057   21.6438 C   0  0  0  0  0  0  0  0  0  0  0  0
    6.5095  -15.1340   21.4975 C   0  0  2  0  0  0  0  0  0  0  0  0
    7.0228  -14.8172   20.2032 N   0  0  0  0  0  0  0  0  0  0  0  0
    7.4903  -14.8093   22.5875 C   0  0  0  0  0  0  0  0  0  0  0  0
    8.7284  -14.8045   22.3662 O   0  0  0  0  0  0  0  0  0  0  0  0
    5.9257  -11.4146   26.4324 C   0  0  0  0  0  0  0  0  0  0  0  0
    6.8199  -12.1722   25.4548 C   0  0  0  0  0  0  0  0  0  0  0  0
    7.3614  -13.4175   26.0363 C   0  0  2  0  0  0  0  0  0  0  0  0
    8.1943  -13.1995   27.2769 C   0  0  0  0  0  0  0  0  0  0  0  0
    8.0280  -14.2875   25.0046 C   0  0  2  0  0  0  0  0  0  0  0  0
    7.0476  -14.4983   23.8991 N   0  0  0  0  0  0  0  0  0  0  0  0
    8.4955  -15.5938   25.4834 C   0  0  0  0  0  0  0  0  0  0  0  0
    7.7110  -16.3455   26.1707 O   0  0  0  0  0  0  0  0  0  0  0  0
   11.3212  -18.0320   24.9584 C   0  0  0  0  0  0  0  0  0  0  0  0
   10.1389  -17.4797   25.7146 C   0  0  2  0  0  0  0  0  0  0  0  0
    9.7775  -16.1412   25.2534 N   0  0  0  0  0  0  0  0  0  0  0  0
   10.3442  -17.5102   27.1791 C   0  0  0  0  0  0  0  0  0  0  0  0
   10.3768  -16.3479   27.9384 O   0  0  0  0  0  0  0  0  0  0  0  0
   10.4997  -18.5853   27.8135 O   0  0  0  0  0  0  0  0  0  0  0  0
  1  2  1  0
  3  2  1  0
  4  3  1  0
  5  6  1  6
  5  4  1  0
  7  5  1  0
  8  7  2  0
  9 10  1  0
 10 11  1  0
 11 12  1  1
 13 11  1  0
 13 14  1  6
 14  7  1  0
 15 19  1  0
 15 13  1  0
 16 15  2  0
 18 17  1  6
 18 19  1  0
 20 18  1  0
 20 21  1  0
 22 20  2  0
M  END
$$$$
