MIA.pdb
     RDKit          3D

 22 21  0  0  1  0  0  0  0  0999 V2000
    8.1428  -20.6698   22.0440 C   0  0  0  0  0  0  0  0  0  0  0  0
    6.9148  -20.0633   20.8872 S   0  0  0  0  0  0  0  0  0  0  0  0
    7.2474  -18.3517   20.4136 C   0  0  0  0  0  0  0  0  0  0  0  0
    7.9270  -17.6713   21.5810 C   0  0  0  0  0  0  0  0  0  0  0  0
    8.1302  -16.1923   21.3328 C   0  0  2  0  0  0  0  0  0  0  0  0
    8.9426  -15.9416   20.1856 N   0  0  0  0  0  0  0  0  0  0  0  0
    8.7411  -15.6375   22.5877 C   0  0  0  0  0  0  0  0  0  0  0  0
    9.9891  -15.5958   22.7385 O   0  0  0  0  0  0  0  0  0  0  0  0
    7.2088  -11.8471   27.2061 C   0  0  0  0  0  0  0  0  0  0  0  0
    8.1612  -12.8947   26.6363 C   0  0  0  0  0  0  0  0  0  0  0  0
    7.6261  -13.5397   25.4199 C   0  0  2  0  0  0  0  0  0  0  0  0
    6.1853  -13.9746   25.5436 C   0  0  0  0  0  0  0  0  0  0  0  0
    8.5396  -14.6139   24.8932 C   0  0  2  0  0  0  0  0  0  0  0  0
    7.9269  -15.1443   23.6397 N   0  0  0  0  0  0  0  0  0  0  0  0
    8.7973  -15.7318   25.8086 C   0  0  0  0  0  0  0  0  0  0  0  0
    7.8446  -16.5330   26.1299 O   0  0  0  0  0  0  0  0  0  0  0  0
   11.4196  -18.0420   26.7694 C   0  0  0  0  0  0  0  0  0  0  0  0
   10.2344  -17.2281   27.2251 C   0  0  2  0  0  0  0  0  0  0  0  0
   10.0438  -16.0382   26.3989 N   0  0  0  0  0  0  0  0  0  0  0  0
   10.3081  -16.8833   28.6616 C   0  0  0  0  0  0  0  0  0  0  0  0
   10.4033  -17.8592   29.6451 O   0  0  0  0  0  0  0  0  0  0  0  0
   10.2888  -15.6933   29.0688 O   0  0  0  0  0  0  0  0  0  0  0  0
  1  2  1  0
  3  2  1  0
  4  3  1  0
  5  6  1  6
  5  4  1  0
  7  5  1  0
  8  7  2  0
  9 10  1  0
 10 11  1  0
 11 12  1  1
 13 11  1  0
 13 14  1  6
 14  7  1  0
 15 19  1  0
 15 13  1  0
 16 15  2  0
 18 17  1  6
 18 19  1  0
 20 18  1  0
 20 21  1  0
 22 20  2  0
M  END
$$$$
