MIA.pdb
     RDKit          3D

 22 21  0  0  1  0  0  0  0  0999 V2000
    9.9879  -14.4093   28.9951 C   0  0  0  0  0  0  0  0  0  0  0  0
   10.9104  -15.8891   29.4115 S   0  0  0  0  0  0  0  0  0  0  0  0
    9.8739  -17.3642   29.2939 C   0  0  0  0  0  0  0  0  0  0  0  0
    9.4586  -17.5251   27.8485 C   0  0  0  0  0  0  0  0  0  0  0  0
    7.9580  -17.6569   27.7029 C   0  0  2  0  0  0  0  0  0  0  0  0
    7.5310  -19.0195   27.7021 N   0  0  0  0  0  0  0  0  0  0  0  0
    7.5980  -16.9530   26.4260 C   0  0  0  0  0  0  0  0  0  0  0  0
    7.1237  -17.5855   25.4478 O   0  0  0  0  0  0  0  0  0  0  0  0
    5.9300  -11.9879   26.8754 C   0  0  0  0  0  0  0  0  0  0  0  0
    5.9584  -13.2873   26.0753 C   0  0  0  0  0  0  0  0  0  0  0  0
    7.1977  -13.4347   25.2850 C   0  0  2  0  0  0  0  0  0  0  0  0
    7.2604  -12.5334   24.0750 C   0  0  0  0  0  0  0  0  0  0  0  0
    7.5161  -14.8749   24.9843 C   0  0  2  0  0  0  0  0  0  0  0  0
    7.7830  -15.5533   26.2868 N   0  0  0  0  0  0  0  0  0  0  0  0
    8.6563  -15.0981   24.0875 C   0  0  0  0  0  0  0  0  0  0  0  0
    8.5243  -14.9169   22.8216 O   0  0  0  0  0  0  0  0  0  0  0  0
   12.3756  -15.3429   24.1355 C   0  0  0  0  0  0  0  0  0  0  0  0
   11.0360  -15.6773   23.5286 C   0  0  2  0  0  0  0  0  0  0  0  0
    9.9479  -15.5064   24.4887 N   0  0  0  0  0  0  0  0  0  0  0  0
   11.0148  -17.0257   22.9211 C   0  0  0  0  0  0  0  0  0  0  0  0
   10.0307  -17.9544   23.2338 O   0  0  0  0  0  0  0  0  0  0  0  0
   11.8826  -17.4030   22.0924 O   0  0  0  0  0  0  0  0  0  0  0  0
  1  2  1  0
  3  2  1  0
  4  3  1  0
  5  6  1  6
  5  4  1  0
  7  5  1  0
  8  7  2  0
  9 10  1  0
 10 11  1  0
 11 12  1  6
 13 11  1  0
 13 14  1  1
 14  7  1  0
 15 19  1  0
 15 13  1  0
 16 15  2  0
 18 17  1  1
 18 19  1  0
 20 18  1  0
 20 21  1  0
 22 20  2  0
M  END
$$$$
