MIA.pdb
     RDKit          3D

 22 21  0  0  1  0  0  0  0  0999 V2000
    9.3250  -20.6909   28.8477 C   0  0  0  0  0  0  0  0  0  0  0  0
    9.6224  -19.8315   27.3027 S   0  0  0  0  0  0  0  0  0  0  0  0
    8.2052  -18.8135   26.8339 C   0  0  0  0  0  0  0  0  0  0  0  0
    7.2472  -19.6844   26.0520 C   0  0  0  0  0  0  0  0  0  0  0  0
    5.9866  -18.9381   25.6722 C   0  0  2  0  0  0  0  0  0  0  0  0
    5.0766  -19.7524   24.9321 N   0  0  0  0  0  0  0  0  0  0  0  0
    6.4317  -17.7362   24.8892 C   0  0  0  0  0  0  0  0  0  0  0  0
    6.4984  -17.7678   23.6337 O   0  0  0  0  0  0  0  0  0  0  0  0
    6.7948  -11.6222   25.6876 C   0  0  0  0  0  0  0  0  0  0  0  0
    7.0500  -12.8570   24.8276 C   0  0  0  0  0  0  0  0  0  0  0  0
    6.8376  -14.1151   25.5721 C   0  0  2  0  0  0  0  0  0  0  0  0
    7.4356  -14.1117   26.9587 C   0  0  0  0  0  0  0  0  0  0  0  0
    7.2006  -15.3287   24.7591 C   0  0  2  0  0  0  0  0  0  0  0  0
    6.7901  -16.5299   25.5444 N   0  0  0  0  0  0  0  0  0  0  0  0
    8.6193  -15.4527   24.4039 C   0  0  0  0  0  0  0  0  0  0  0  0
    9.4639  -15.8868   25.2705 O   0  0  0  0  0  0  0  0  0  0  0  0
   10.5917  -15.5639   21.1798 C   0  0  0  0  0  0  0  0  0  0  0  0
   10.3963  -15.7828   22.6592 C   0  0  2  0  0  0  0  0  0  0  0  0
    9.1812  -15.1344   23.1474 N   0  0  0  0  0  0  0  0  0  0  0  0
   11.5799  -15.3783   23.4486 C   0  0  0  0  0  0  0  0  0  0  0  0
   12.6176  -16.2613   23.7172 O   0  0  0  0  0  0  0  0  0  0  0  0
   11.7106  -14.2183   23.9173 O   0  0  0  0  0  0  0  0  0  0  0  0
  1  2  1  0
  3  2  1  0
  4  3  1  0
  5  6  1  6
  5  4  1  0
  7  5  1  0
  8  7  2  0
  9 10  1  0
 10 11  1  0
 11 12  1  1
 13 11  1  0
 13 14  1  1
 14  7  1  0
 15 19  1  0
 15 13  1  0
 16 15  2  0
 18 17  1  6
 18 19  1  0
 20 18  1  0
 20 21  1  0
 22 20  2  0
M  END
$$$$
