MIA.pdb
     RDKit          3D

 22 21  0  0  1  0  0  0  0  0999 V2000
    8.8902  -14.3651   29.4434 C   0  0  0  0  0  0  0  0  0  0  0  0
   10.3877  -15.3031   29.7465 S   0  0  0  0  0  0  0  0  0  0  0  0
   10.0433  -17.0735   29.8545 C   0  0  0  0  0  0  0  0  0  0  0  0
    8.7111  -17.3283   29.1854 C   0  0  0  0  0  0  0  0  0  0  0  0
    8.8760  -17.9621   27.8210 C   0  0  2  0  0  0  0  0  0  0  0  0
   10.2159  -17.8658   27.3369 N   0  0  0  0  0  0  0  0  0  0  0  0
    7.8988  -17.2678   26.9162 C   0  0  0  0  0  0  0  0  0  0  0  0
    6.6710  -17.5369   26.9584 O   0  0  0  0  0  0  0  0  0  0  0  0
    7.5863  -12.1035   25.2338 C   0  0  0  0  0  0  0  0  0  0  0  0
    8.0868  -13.5445   25.1849 C   0  0  0  0  0  0  0  0  0  0  0  0
    6.9851  -14.5186   25.0455 C   0  0  2  0  0  0  0  0  0  0  0  0
    5.9409  -14.4181   26.1318 C   0  0  0  0  0  0  0  0  0  0  0  0
    7.4860  -15.9192   24.8151 C   0  0  2  0  0  0  0  0  0  0  0  0
    8.3336  -16.2875   25.9872 N   0  0  0  0  0  0  0  0  0  0  0  0
    8.2598  -16.1212   23.5844 C   0  0  0  0  0  0  0  0  0  0  0  0
    9.5056  -15.8059   23.5487 O   0  0  0  0  0  0  0  0  0  0  0  0
    7.8863  -17.5595   20.0944 C   0  0  0  0  0  0  0  0  0  0  0  0
    8.5954  -16.8039   21.1902 C   0  0  2  0  0  0  0  0  0  0  0  0
    7.7567  -16.6562   22.3774 N   0  0  0  0  0  0  0  0  0  0  0  0
    9.1138  -15.4980   20.7281 C   0  0  0  0  0  0  0  0  0  0  0  0
   10.3379  -15.3829   20.0823 O   0  0  0  0  0  0  0  0  0  0  0  0
    8.4774  -14.4257   20.8939 O   0  0  0  0  0  0  0  0  0  0  0  0
  1  2  1  0
  3  2  1  0
  4  3  1  0
  5  6  1  6
  5  4  1  0
  7  5  1  0
  8  7  2  0
  9 10  1  0
 10 11  1  0
 11 12  1  1
 13 11  1  0
 13 14  1  1
 14  7  1  0
 15 19  1  0
 15 13  1  0
 16 15  2  0
 18 17  1  6
 18 19  1  0
 20 18  1  0
 20 21  1  0
 22 20  2  0
M  END
$$$$
