MIA.pdb
     RDKit          3D

 22 21  0  0  1  0  0  0  0  0999 V2000
    8.0118  -11.4917   19.6841 C   0  0  0  0  0  0  0  0  0  0  0  0
    7.5099  -12.8103   18.5780 S   0  0  0  0  0  0  0  0  0  0  0  0
    7.4613  -14.4016   19.4324 C   0  0  0  0  0  0  0  0  0  0  0  0
    8.1224  -14.2240   20.7811 C   0  0  0  0  0  0  0  0  0  0  0  0
    8.1147  -15.5048   21.5872 C   0  0  2  0  0  0  0  0  0  0  0  0
    6.7998  -16.0390   21.7438 N   0  0  0  0  0  0  0  0  0  0  0  0
    8.7485  -15.1720   22.9076 C   0  0  0  0  0  0  0  0  0  0  0  0
    9.9651  -14.8622   22.9838 O   0  0  0  0  0  0  0  0  0  0  0  0
    6.1260  -12.1338   26.1772 C   0  0  0  0  0  0  0  0  0  0  0  0
    7.2118  -12.9124   25.4395 C   0  0  0  0  0  0  0  0  0  0  0  0
    7.7088  -14.0632   26.2211 C   0  0  2  0  0  0  0  0  0  0  0  0
    8.2401  -13.6906   27.5846 C   0  0  0  0  0  0  0  0  0  0  0  0
    8.6429  -14.9345   25.4248 C   0  0  2  0  0  0  0  0  0  0  0  0
    7.9920  -15.1977   24.1076 N   0  0  0  0  0  0  0  0  0  0  0  0
    8.9986  -16.2158   26.0458 C   0  0  0  0  0  0  0  0  0  0  0  0
    8.0762  -17.0455   26.3828 O   0  0  0  0  0  0  0  0  0  0  0  0
   11.8049  -18.6107   26.2929 C   0  0  0  0  0  0  0  0  0  0  0  0
   10.5787  -17.9735   26.8971 C   0  0  2  0  0  0  0  0  0  0  0  0
   10.3121  -16.6573   26.3214 N   0  0  0  0  0  0  0  0  0  0  0  0
   10.6452  -17.9148   28.3736 C   0  0  0  0  0  0  0  0  0  0  0  0
   10.6556  -19.0645   29.1525 O   0  0  0  0  0  0  0  0  0  0  0  0
   10.6957  -16.8258   29.0011 O   0  0  0  0  0  0  0  0  0  0  0  0
  1  2  1  0
  3  2  1  0
  4  3  1  0
  5  6  1  1
  5  4  1  0
  7  5  1  0
  8  7  2  0
  9 10  1  0
 10 11  1  0
 11 12  1  1
 13 11  1  0
 13 14  1  6
 14  7  1  0
 15 19  1  0
 15 13  1  0
 16 15  2  0
 18 17  1  6
 18 19  1  0
 20 18  1  0
 20 21  1  0
 22 20  2  0
M  END
$$$$
