MFN.pdb
     RDKit          3D

 28 28  0  0  1  0  0  0  0  0999 V2000
   22.2865   -9.1187  -23.2461 C   0  0  0  0  0  0  0  0  0  0  0  0
   23.1638  -10.6927  -23.3759 S   0  0  0  0  0  0  0  0  0  0  0  0
   22.8070  -11.6593  -21.8840 C   0  0  0  0  0  0  0  0  0  0  0  0
   22.7831  -10.7040  -20.7102 C   0  0  0  0  0  0  0  0  0  0  0  0
   24.0003  -10.8891  -19.8310 C   0  0  2  0  0  0  0  0  0  0  0  0
   24.3023  -12.2603  -19.5766 N   0  0  0  0  0  0  0  0  0  0  0  0
   23.7089  -10.1881  -18.5463 C   0  0  0  0  0  0  0  0  0  0  0  0
   23.1200  -10.7770  -17.5941 O   0  0  0  0  0  0  0  0  0  0  0  0
   24.0684   -8.8503  -18.3247 N   0  0  0  0  0  0  0  0  0  0  0  0
   23.7994   -8.1605  -17.0358 C   0  0  1  0  0  0  0  0  0  0  0  0
   25.1336   -7.7021  -16.5742 C   0  0  0  0  0  0  0  0  0  0  0  0
   26.0999   -8.7154  -16.1604 C   0  0  0  0  0  0  0  0  0  0  0  0
   25.8593   -9.5203  -15.0749 C   0  0  0  0  0  0  0  0  0  0  0  0
   26.7536  -10.4902  -14.6504 C   0  0  0  0  0  0  0  0  0  0  0  0
   27.9345  -10.6713  -15.3271 C   0  0  0  0  0  0  0  0  0  0  0  0
   28.2107   -9.8876  -16.4155 C   0  0  0  0  0  0  0  0  0  0  0  0
   27.3057   -8.9186  -16.8312 C   0  0  0  0  0  0  0  0  0  0  0  0
   22.7621   -7.1483  -17.2495 C   0  0  0  0  0  0  0  0  0  0  0  0
   23.0134   -6.2114  -18.0908 O   0  0  0  0  0  0  0  0  0  0  0  0
   18.8935   -4.2010  -17.7673 N   0  0  0  0  0  0  0  0  0  0  0  0
   18.3328   -5.4988  -17.7332 C   0  0  0  0  0  0  0  0  0  0  0  0
   17.1179   -5.6517  -18.0032 O   0  0  0  0  0  0  0  0  0  0  0  0
   19.2008   -6.6776  -17.3747 C   0  0  0  0  0  0  0  0  0  0  0  0
   20.5379   -6.0781  -16.9903 C   0  0  2  0  0  0  0  0  0  0  0  0
   21.4934   -7.0959  -16.6240 N   0  0  0  0  0  0  0  0  0  0  0  0
   20.4011   -5.1120  -15.8809 C   0  0  0  0  0  0  0  0  0  0  0  0
   19.7752   -4.0327  -15.9187 O   0  0  0  0  0  0  0  0  0  0  0  0
   21.0339   -5.4342  -14.6631 O   0  0  0  0  0  0  0  0  0  0  0  0
  2  1  1  0
  2  3  1  0
  4  3  1  0
  5  4  1  0
  5  6  1  1
  7  5  1  0
  8  7  2  0
  9  7  1  0
 10  9  1  0
 10 11  1  6
 11 12  1  0
 12 17  2  0
 13 12  1  0
 13 14  2  0
 14 15  1  0
 15 16  2  0
 17 16  1  0
 18 25  1  0
 18 10  1  0
 19 18  2  0
 20 21  1  0
 21 22  2  0
 23 21  1  0
 24 23  1  1
 24 26  1  0
 24 25  1  0
 26 28  1  0
 27 26  2  0
M  END
$$$$
