MFN.pdb
     RDKit          3D

 28 28  0  0  1  0  0  0  0  0999 V2000
   13.8060   -8.0143  -20.9538 C   0  0  0  0  0  0  0  0  0  0  0  0
   14.4091   -8.3181  -19.2781 S   0  0  0  0  0  0  0  0  0  0  0  0
   16.0824   -9.0056  -19.3994 C   0  0  0  0  0  0  0  0  0  0  0  0
   16.5721   -9.2781  -17.9933 C   0  0  0  0  0  0  0  0  0  0  0  0
   18.0362   -9.6590  -17.9895 C   0  0  2  0  0  0  0  0  0  0  0  0
   18.2836  -10.9332  -18.5821 N   0  0  0  0  0  0  0  0  0  0  0  0
   18.4697   -9.6719  -16.5617 C   0  0  0  0  0  0  0  0  0  0  0  0
   18.1811  -10.6359  -15.7950 O   0  0  0  0  0  0  0  0  0  0  0  0
   19.2143   -8.6265  -15.9954 N   0  0  0  0  0  0  0  0  0  0  0  0
   19.5541   -8.5885  -14.5488 C   0  0  1  0  0  0  0  0  0  0  0  0
   21.0230   -8.3777  -14.5176 C   0  0  0  0  0  0  0  0  0  0  0  0
   21.6540   -8.1483  -13.2211 C   0  0  0  0  0  0  0  0  0  0  0  0
   22.1363   -9.1942  -12.4745 C   0  0  0  0  0  0  0  0  0  0  0  0
   22.7381   -9.0160  -11.2389 C   0  0  0  0  0  0  0  0  0  0  0  0
   22.8683   -7.7514  -10.7203 C   0  0  0  0  0  0  0  0  0  0  0  0
   22.3996   -6.6818  -11.4355 C   0  0  0  0  0  0  0  0  0  0  0  0
   21.7980   -6.8737  -12.6733 C   0  0  0  0  0  0  0  0  0  0  0  0
   18.7038   -7.5940  -13.8900 C   0  0  0  0  0  0  0  0  0  0  0  0
   18.4910   -6.4913  -14.5127 O   0  0  0  0  0  0  0  0  0  0  0  0
   16.2206   -4.5356  -10.9478 N   0  0  0  0  0  0  0  0  0  0  0  0
   15.3602   -5.3772  -11.6902 C   0  0  0  0  0  0  0  0  0  0  0  0
   14.1411   -5.0946  -11.7700 O   0  0  0  0  0  0  0  0  0  0  0  0
   15.9186   -6.5984  -12.3746 C   0  0  0  0  0  0  0  0  0  0  0  0
   17.3939   -6.6012  -12.0305 C   0  0  2  0  0  0  0  0  0  0  0  0
   18.0786   -7.7231  -12.6266 N   0  0  0  0  0  0  0  0  0  0  0  0
   17.6107   -6.6147  -10.5691 C   0  0  0  0  0  0  0  0  0  0  0  0
   17.1771   -5.7750   -9.7536 O   0  0  0  0  0  0  0  0  0  0  0  0
   18.3777   -7.6728  -10.0404 O   0  0  0  0  0  0  0  0  0  0  0  0
  2  1  1  0
  2  3  1  0
  4  3  1  0
  5  4  1  0
  5  6  1  1
  7  5  1  0
  8  7  2  0
  9  7  1  0
 10  9  1  0
 10 11  1  6
 11 12  1  0
 12 17  2  0
 13 12  1  0
 13 14  2  0
 14 15  1  0
 15 16  2  0
 17 16  1  0
 18 25  1  0
 18 10  1  0
 19 18  2  0
 20 21  1  0
 21 22  2  0
 23 21  1  0
 24 23  1  1
 24 26  1  0
 24 25  1  0
 26 28  1  0
 27 26  2  0
M  END
$$$$
