MFN.pdb
     RDKit          3D

 28 28  0  0  1  0  0  0  0  0999 V2000
   23.9294  -21.4836  -19.5691 C   0  0  0  0  0  0  0  0  0  0  0  0
   25.2334  -22.2699  -20.5413 S   0  0  0  0  0  0  0  0  0  0  0  0
   26.5890  -22.7020  -19.4174 C   0  0  0  0  0  0  0  0  0  0  0  0
   26.0214  -22.7730  -18.0160 C   0  0  0  0  0  0  0  0  0  0  0  0
   26.8975  -22.0269  -17.0339 C   0  0  2  0  0  0  0  0  0  0  0  0
   28.2112  -22.5741  -16.9296 N   0  0  0  0  0  0  0  0  0  0  0  0
   26.2122  -22.0997  -15.7104 C   0  0  0  0  0  0  0  0  0  0  0  0
   26.1301  -23.1880  -15.0707 O   0  0  0  0  0  0  0  0  0  0  0  0
   25.6266  -20.9765  -15.1073 N   0  0  0  0  0  0  0  0  0  0  0  0
   25.0203  -21.0309  -13.7512 C   0  0  1  0  0  0  0  0  0  0  0  0
   25.7423  -19.9887  -12.9795 C   0  0  0  0  0  0  0  0  0  0  0  0
   27.0333  -20.3407  -12.3955 C   0  0  0  0  0  0  0  0  0  0  0  0
   28.2057  -19.8855  -12.9455 C   0  0  0  0  0  0  0  0  0  0  0  0
   29.4493  -20.2010  -12.4215 C   0  0  0  0  0  0  0  0  0  0  0  0
   29.5371  -20.9994  -11.3080 C   0  0  0  0  0  0  0  0  0  0  0  0
   28.3895  -21.4732  -10.7303 C   0  0  0  0  0  0  0  0  0  0  0  0
   27.1485  -21.1497  -11.2653 C   0  0  0  0  0  0  0  0  0  0  0  0
   23.5662  -20.9066  -13.8788 C   0  0  0  0  0  0  0  0  0  0  0  0
   23.1166  -20.0029  -14.6725 O   0  0  0  0  0  0  0  0  0  0  0  0
   17.8999  -22.5289  -12.5787 N   0  0  0  0  0  0  0  0  0  0  0  0
   18.9358  -22.2559  -13.5018 C   0  0  0  0  0  0  0  0  0  0  0  0
   18.6642  -21.6685  -14.5758 O   0  0  0  0  0  0  0  0  0  0  0  0
   20.3487  -22.6723  -13.1826 C   0  0  0  0  0  0  0  0  0  0  0  0
   21.1855  -21.4306  -13.4129 C   0  0  2  0  0  0  0  0  0  0  0  0
   22.5915  -21.6908  -13.2165 N   0  0  0  0  0  0  0  0  0  0  0  0
   20.7646  -20.3211  -12.5327 C   0  0  0  0  0  0  0  0  0  0  0  0
   21.3604  -19.9282  -11.5087 O   0  0  0  0  0  0  0  0  0  0  0  0
   19.5802  -19.6383  -12.8769 O   0  0  0  0  0  0  0  0  0  0  0  0
  2  1  1  0
  2  3  1  0
  4  3  1  0
  5  4  1  0
  5  6  1  1
  7  5  1  0
  8  7  2  0
  9  7  1  0
 10  9  1  0
 10 11  1  1
 11 12  1  0
 12 17  2  0
 13 12  1  0
 13 14  2  0
 14 15  1  0
 15 16  2  0
 17 16  1  0
 18 25  1  0
 18 10  1  0
 19 18  2  0
 20 21  1  0
 21 22  2  0
 23 21  1  0
 24 23  1  1
 24 26  1  0
 24 25  1  0
 26 28  1  0
 27 26  2  0
M  END
$$$$
