MFN.pdb
     RDKit          3D

 28 28  0  0  1  0  0  0  0  0999 V2000
   20.8009  -24.3708  -12.7714 C   0  0  0  0  0  0  0  0  0  0  0  0
   19.7649  -22.9097  -13.0077 S   0  0  0  0  0  0  0  0  0  0  0  0
   20.6055  -21.8082  -14.1771 C   0  0  0  0  0  0  0  0  0  0  0  0
   21.9878  -21.5233  -13.6302 C   0  0  0  0  0  0  0  0  0  0  0  0
   21.9577  -20.3809  -12.6390 C   0  0  2  0  0  0  0  0  0  0  0  0
   21.4463  -19.1710  -13.1963 N   0  0  0  0  0  0  0  0  0  0  0  0
   23.3638  -20.1740  -12.1841 C   0  0  0  0  0  0  0  0  0  0  0  0
   24.1175  -19.3244  -12.7412 O   0  0  0  0  0  0  0  0  0  0  0  0
   23.9228  -20.9025  -11.1236 N   0  0  0  0  0  0  0  0  0  0  0  0
   25.3297  -20.7096  -10.6842 C   0  0  1  0  0  0  0  0  0  0  0  0
   25.3185  -21.0533   -9.2403 C   0  0  0  0  0  0  0  0  0  0  0  0
   26.4829  -20.6851   -8.4401 C   0  0  0  0  0  0  0  0  0  0  0  0
   26.4062  -19.6926   -7.4952 C   0  0  0  0  0  0  0  0  0  0  0  0
   27.4903  -19.3136   -6.7193 C   0  0  0  0  0  0  0  0  0  0  0  0
   28.6997  -19.9419   -6.8849 C   0  0  0  0  0  0  0  0  0  0  0  0
   28.8161  -20.9376   -7.8178 C   0  0  0  0  0  0  0  0  0  0  0  0
   27.7217  -21.3084   -8.5895 C   0  0  0  0  0  0  0  0  0  0  0  0
   26.2097  -21.4802  -11.5663 C   0  0  0  0  0  0  0  0  0  0  0  0
   26.0387  -22.7520  -11.6092 O   0  0  0  0  0  0  0  0  0  0  0  0
   27.2499  -22.3819  -16.1350 N   0  0  0  0  0  0  0  0  0  0  0  0
   25.9543  -22.0940  -15.6469 C   0  0  0  0  0  0  0  0  0  0  0  0
   24.9531  -22.4289  -16.3235 O   0  0  0  0  0  0  0  0  0  0  0  0
   25.7946  -21.3915  -14.3230 C   0  0  0  0  0  0  0  0  0  0  0  0
   27.2071  -21.1784  -13.8187 C   0  0  2  0  0  0  0  0  0  0  0  0
   27.2376  -20.9647  -12.3917 N   0  0  0  0  0  0  0  0  0  0  0  0
   27.8609  -20.0414  -14.4989 C   0  0  0  0  0  0  0  0  0  0  0  0
   27.2996  -18.9979  -14.8915 O   0  0  0  0  0  0  0  0  0  0  0  0
   29.2486  -20.1382  -14.7282 O   0  0  0  0  0  0  0  0  0  0  0  0
  2  1  1  0
  2  3  1  0
  4  3  1  0
  5  4  1  0
  5  6  1  6
  7  5  1  0
  8  7  2  0
  9  7  1  0
 10  9  1  0
 10 11  1  1
 11 12  1  0
 12 17  2  0
 13 12  1  0
 13 14  2  0
 14 15  1  0
 15 16  2  0
 17 16  1  0
 18 25  1  0
 18 10  1  0
 19 18  2  0
 20 21  1  0
 21 22  2  0
 23 21  1  0
 24 23  1  6
 24 26  1  0
 24 25  1  0
 26 28  1  0
 27 26  2  0
M  END
$$$$
