FLH.pdb
     RDKit          3D

 30 31  0  0  1  0  0  0  0  0999 V2000
   14.0317  -11.6443    7.1711 N   0  0  0  0  0  0  0  0  0  0  0  0
   15.4188  -12.0448    7.0815 C   0  0  1  0  0  0  0  0  0  0  0  0
   15.9831  -12.3001    8.4636 C   0  0  0  0  0  0  0  0  0  0  0  0
   16.5466  -11.1006    9.0930 C   0  0  0  0  0  0  0  0  0  0  0  0
   15.9261  -10.5503   10.1948 C   0  0  0  0  0  0  0  0  0  0  0  0
   16.4487   -9.4382   10.7779 C   0  0  0  0  0  0  0  0  0  0  0  0
   17.6042   -8.8413   10.2816 C   0  0  0  0  0  0  0  0  0  0  0  0
   18.2304   -9.3843    9.1815 C   0  0  0  0  0  0  0  0  0  0  0  0
   17.6846  -10.5079    8.6089 C   0  0  0  0  0  0  0  0  0  0  0  0
   15.5875  -13.2985    6.3090 C   0  0  0  0  0  0  0  0  0  0  0  0
   14.7125  -14.1964    6.4024 O   0  0  0  0  0  0  0  0  0  0  0  0
   19.5607  -15.0757    1.9992 C   0  0  0  0  0  0  0  0  0  0  0  0
   18.3839  -15.5852    2.8466 C   0  0  2  0  0  0  0  0  0  0  0  0
   17.3153  -16.0045    1.8871 C   0  0  0  0  0  0  0  0  0  0  0  0
   17.9879  -14.4509    3.7317 C   0  0  0  0  0  0  0  0  0  0  0  0
   16.9210  -14.7480    4.7311 C   0  0  2  0  0  0  0  0  0  0  0  0
   16.6991  -13.5104    5.4750 N   0  0  0  0  0  0  0  0  0  0  0  0
   17.3238  -15.8373    5.6559 C   0  0  0  0  0  0  0  0  0  0  0  0
   18.1016  -15.6120    6.6434 O   0  0  0  0  0  0  0  0  0  0  0  0
   16.8183  -17.1430    5.4114 N   0  0  0  0  0  0  0  0  0  0  0  0
   17.1462  -18.1925    6.3751 C   0  0  1  0  0  0  0  0  0  0  0  0
   16.4669  -17.9014    7.6926 C   0  0  0  0  0  0  0  0  0  0  0  0
   16.8192  -18.9642    8.6628 C   0  0  0  0  0  0  0  0  0  0  0  0
   17.6563  -20.0299    8.3104 C   0  0  0  0  0  0  0  0  0  0  0  0
   17.7833  -20.8104    9.3819 N   0  0  0  0  0  0  0  0  0  0  0  0
   17.0639  -20.2663   10.3604 C   0  0  0  0  0  0  0  0  0  0  0  0
   16.4778  -19.1525    9.9387 N   0  0  0  0  0  0  0  0  0  0  0  0
   16.6086  -19.4524    5.8068 C   0  0  0  0  0  0  0  0  0  0  0  0
   16.9592  -20.6019    6.2093 O   0  0  0  0  0  0  0  0  0  0  0  0
   15.6616  -19.4741    4.7702 O   0  0  0  0  0  0  0  0  0  0  0  0
  2 10  1  0
  2  3  1  0
  2  1  1  1
  3  4  1  0
  4  5  2  0
  4  9  1  0
  5  6  1  0
  6  7  2  0
  8  7  1  0
  9  8  2  0
 10 17  1  0
 11 10  2  0
 13 12  1  6
 14 13  1  0
 15 13  1  0
 16 15  1  6
 17 16  1  0
 18 20  1  0
 18 16  1  0
 19 18  2  0
 21 20  1  0
 21 28  1  0
 22 23  1  0
 21 22  1  1
 23 24  2  0
 24 25  1  0
 26 25  1  0
 27 23  1  0
 27 26  2  0
 28 30  1  0
 29 28  2  0
M  END
$$$$
