FLH.pdb
     RDKit          3D

 30 31  0  0  1  0  0  0  0  0999 V2000
   26.9384  -18.2391   -8.0495 N   0  0  0  0  0  0  0  0  0  0  0  0
   27.1779  -19.5565   -8.5968 C   0  0  1  0  0  0  0  0  0  0  0  0
   26.9737  -20.6139   -7.5319 C   0  0  0  0  0  0  0  0  0  0  0  0
   27.8097  -20.4120   -6.3431 C   0  0  0  0  0  0  0  0  0  0  0  0
   27.2166  -20.2569   -5.1078 C   0  0  0  0  0  0  0  0  0  0  0  0
   27.9920  -20.0697   -4.0062 C   0  0  0  0  0  0  0  0  0  0  0  0
   29.3802  -20.0312   -4.1018 C   0  0  0  0  0  0  0  0  0  0  0  0
   29.9808  -20.1852   -5.3316 C   0  0  0  0  0  0  0  0  0  0  0  0
   29.1777  -20.3731   -6.4306 C   0  0  0  0  0  0  0  0  0  0  0  0
   26.2475  -19.8763   -9.7054 C   0  0  0  0  0  0  0  0  0  0  0  0
   25.0793  -19.4128   -9.6759 O   0  0  0  0  0  0  0  0  0  0  0  0
   27.5913  -18.7707  -13.9167 C   0  0  0  0  0  0  0  0  0  0  0  0
   28.2264  -20.0202  -13.2861 C   0  0  2  0  0  0  0  0  0  0  0  0
   29.2769  -20.4944  -14.2401 C   0  0  0  0  0  0  0  0  0  0  0  0
   27.1138  -20.9934  -13.0822 C   0  0  0  0  0  0  0  0  0  0  0  0
   26.0512  -20.5742  -12.1228 C   0  0  2  0  0  0  0  0  0  0  0  0
   26.6363  -20.6837  -10.7885 N   0  0  0  0  0  0  0  0  0  0  0  0
   24.8469  -21.4361  -12.2273 C   0  0  0  0  0  0  0  0  0  0  0  0
   24.7044  -22.4653  -11.4848 O   0  0  0  0  0  0  0  0  0  0  0  0
   23.8528  -21.0832  -13.1799 N   0  0  0  0  0  0  0  0  0  0  0  0
   22.6490  -21.9102  -13.2472 C   0  0  1  0  0  0  0  0  0  0  0  0
   21.9112  -21.8399  -11.9308 C   0  0  0  0  0  0  0  0  0  0  0  0
   20.9714  -20.6951  -11.9645 C   0  0  0  0  0  0  0  0  0  0  0  0
   20.2600  -20.3650  -13.1244 C   0  0  0  0  0  0  0  0  0  0  0  0
   19.5079  -19.3024  -12.8439 N   0  0  0  0  0  0  0  0  0  0  0  0
   19.7323  -18.9780  -11.5729 C   0  0  0  0  0  0  0  0  0  0  0  0
   20.6132  -19.8107  -11.0320 N   0  0  0  0  0  0  0  0  0  0  0  0
   21.8089  -21.3236  -14.3193 C   0  0  0  0  0  0  0  0  0  0  0  0
   21.9680  -20.1466  -14.7616 O   0  0  0  0  0  0  0  0  0  0  0  0
   20.7626  -22.0290  -14.9352 O   0  0  0  0  0  0  0  0  0  0  0  0
  2 10  1  0
  2  3  1  0
  2  1  1  1
  3  4  1  0
  4  5  2  0
  4  9  1  0
  5  6  1  0
  6  7  2  0
  8  7  1  0
  9  8  2  0
 10 17  1  0
 11 10  2  0
 13 12  1  6
 14 13  1  0
 15 13  1  0
 16 15  1  6
 17 16  1  0
 18 20  1  0
 18 16  1  0
 19 18  2  0
 21 20  1  0
 21 28  1  0
 22 23  1  0
 21 22  1  1
 23 24  2  0
 24 25  1  0
 26 25  1  0
 27 23  1  0
 27 26  2  0
 28 30  1  0
 29 28  2  0
M  END
$$$$
