FLH.pdb
     RDKit          3D

 30 31  0  0  1  0  0  0  0  0999 V2000
   26.8811  -19.2152  -16.0895 N   0  0  0  0  0  0  0  0  0  0  0  0
   26.0150  -18.7748  -15.0178 C   0  0  1  0  0  0  0  0  0  0  0  0
   25.0818  -17.6875  -15.5085 C   0  0  0  0  0  0  0  0  0  0  0  0
   25.7672  -16.4274  -15.8167 C   0  0  0  0  0  0  0  0  0  0  0  0
   26.4097  -15.7344  -14.8122 C   0  0  0  0  0  0  0  0  0  0  0  0
   27.0448  -14.5663  -15.0984 C   0  0  0  0  0  0  0  0  0  0  0  0
   27.0590  -14.0536  -16.3925 C   0  0  0  0  0  0  0  0  0  0  0  0
   26.4198  -14.7392  -17.4017 C   0  0  0  0  0  0  0  0  0  0  0  0
   25.7848  -15.9170  -17.0894 C   0  0  0  0  0  0  0  0  0  0  0  0
   25.1635  -19.8734  -14.5032 C   0  0  0  0  0  0  0  0  0  0  0  0
   24.9131  -20.8536  -15.2494 O   0  0  0  0  0  0  0  0  0  0  0  0
   26.0308  -22.5933  -11.4974 C   0  0  0  0  0  0  0  0  0  0  0  0
   25.6613  -21.2219  -10.9100 C   0  0  2  0  0  0  0  0  0  0  0  0
   25.9866  -21.2793   -9.4508 C   0  0  0  0  0  0  0  0  0  0  0  0
   24.2102  -21.0248  -11.1968 C   0  0  0  0  0  0  0  0  0  0  0  0
   23.8383  -20.9402  -12.6389 C   0  0  2  0  0  0  0  0  0  0  0  0
   24.6285  -19.8486  -13.2034 N   0  0  0  0  0  0  0  0  0  0  0  0
   22.3893  -20.6700  -12.8168 C   0  0  0  0  0  0  0  0  0  0  0  0
   21.8341  -19.6576  -12.2711 O   0  0  0  0  0  0  0  0  0  0  0  0
   21.6339  -21.5721  -13.6140 N   0  0  0  0  0  0  0  0  0  0  0  0
   20.2171  -21.2764  -13.8215 C   0  0  1  0  0  0  0  0  0  0  0  0
   19.8116  -21.6913  -15.2163 C   0  0  0  0  0  0  0  0  0  0  0  0
   20.4742  -20.8001  -16.1971 C   0  0  0  0  0  0  0  0  0  0  0  0
   20.4625  -19.4080  -16.0470 C   0  0  0  0  0  0  0  0  0  0  0  0
   21.1318  -18.8890  -17.0746 N   0  0  0  0  0  0  0  0  0  0  0  0
   21.5449  -19.9004  -17.8345 C   0  0  0  0  0  0  0  0  0  0  0  0
   21.1543  -21.0580  -17.3155 N   0  0  0  0  0  0  0  0  0  0  0  0
   19.4790  -22.0916  -12.8265 C   0  0  0  0  0  0  0  0  0  0  0  0
   20.0005  -23.0599  -12.1967 O   0  0  0  0  0  0  0  0  0  0  0  0
   18.1341  -21.8552  -12.4994 O   0  0  0  0  0  0  0  0  0  0  0  0
  2 10  1  0
  2  3  1  0
  2  1  1  6
  3  4  1  0
  4  5  2  0
  4  9  1  0
  5  6  1  0
  6  7  2  0
  8  7  1  0
  9  8  2  0
 10 17  1  0
 11 10  2  0
 13 12  1  6
 14 13  1  0
 15 13  1  0
 16 15  1  1
 17 16  1  0
 18 20  1  0
 18 16  1  0
 19 18  2  0
 21 20  1  0
 21 28  1  0
 22 23  1  0
 21 22  1  6
 23 24  2  0
 24 25  1  0
 26 25  1  0
 27 23  1  0
 27 26  2  0
 28 30  1  0
 29 28  2  0
M  END
$$$$
