FLH.pdb
     RDKit          3D

 30 31  0  0  1  0  0  0  0  0999 V2000
   28.0041  -20.5491  -15.9688 N   0  0  0  0  0  0  0  0  0  0  0  0
   27.3463  -19.8257  -14.9027 C   0  0  1  0  0  0  0  0  0  0  0  0
   26.4107  -18.7811  -15.4748 C   0  0  0  0  0  0  0  0  0  0  0  0
   27.0956  -17.7673  -16.2848 C   0  0  0  0  0  0  0  0  0  0  0  0
   28.0874  -16.9945  -15.7184 C   0  0  0  0  0  0  0  0  0  0  0  0
   28.7218  -16.0548  -16.4696 C   0  0  0  0  0  0  0  0  0  0  0  0
   28.3878  -15.8568  -17.8064 C   0  0  0  0  0  0  0  0  0  0  0  0
   27.3983  -16.6243  -18.3800 C   0  0  0  0  0  0  0  0  0  0  0  0
   26.7711  -17.5674  -17.6021 C   0  0  0  0  0  0  0  0  0  0  0  0
   26.5260  -20.7171  -14.0487 C   0  0  0  0  0  0  0  0  0  0  0  0
   26.3123  -21.8975  -14.4251 O   0  0  0  0  0  0  0  0  0  0  0  0
   26.7460  -20.2684   -8.4787 C   0  0  0  0  0  0  0  0  0  0  0  0
   25.6376  -20.2780   -9.5435 C   0  0  2  0  0  0  0  0  0  0  0  0
   24.4000  -20.7795   -8.8688 C   0  0  0  0  0  0  0  0  0  0  0  0
   26.1252  -21.1618  -10.6425 C   0  0  0  0  0  0  0  0  0  0  0  0
   25.3029  -21.1654  -11.8870 C   0  0  2  0  0  0  0  0  0  0  0  0
   25.9808  -20.2783  -12.8295 N   0  0  0  0  0  0  0  0  0  0  0  0
   23.9214  -20.6848  -11.6330 C   0  0  0  0  0  0  0  0  0  0  0  0
   23.1787  -21.2418  -10.7561 O   0  0  0  0  0  0  0  0  0  0  0  0
   23.4460  -19.5834  -12.3953 N   0  0  0  0  0  0  0  0  0  0  0  0
   22.4691  -19.8545  -13.4488 C   0  0  1  0  0  0  0  0  0  0  0  0
   22.9745  -20.9694  -14.3342 C   0  0  0  0  0  0  0  0  0  0  0  0
   22.8209  -20.5674  -15.7519 C   0  0  0  0  0  0  0  0  0  0  0  0
   22.3296  -19.3052  -16.1066 C   0  0  0  0  0  0  0  0  0  0  0  0
   22.3078  -19.2433  -17.4366 N   0  0  0  0  0  0  0  0  0  0  0  0
   22.7618  -20.4060  -17.8984 C   0  0  0  0  0  0  0  0  0  0  0  0
   23.0744  -21.2127  -16.8917 N   0  0  0  0  0  0  0  0  0  0  0  0
   21.2321  -20.2914  -12.7573 C   0  0  0  0  0  0  0  0  0  0  0  0
   20.1572  -19.6200  -12.7650 O   0  0  0  0  0  0  0  0  0  0  0  0
   21.1509  -21.4918  -12.0334 O   0  0  0  0  0  0  0  0  0  0  0  0
  2 10  1  0
  2  3  1  0
  2  1  1  6
  3  4  1  0
  4  5  2  0
  4  9  1  0
  5  6  1  0
  6  7  2  0
  8  7  1  0
  9  8  2  0
 10 17  1  0
 11 10  2  0
 13 12  1  1
 14 13  1  0
 15 13  1  0
 16 15  1  1
 17 16  1  0
 18 20  1  0
 18 16  1  0
 19 18  2  0
 21 20  1  0
 21 28  1  0
 22 23  1  0
 21 22  1  6
 23 24  2  0
 24 25  1  0
 26 25  1  0
 27 23  1  0
 27 26  2  0
 28 30  1  0
 29 28  2  0
M  END
$$$$
