FLH.pdb
     RDKit          3D

 30 31  0  0  1  0  0  0  0  0999 V2000
   27.8307  -20.4566  -11.5509 N   0  0  0  0  0  0  0  0  0  0  0  0
   26.6818  -21.2522  -11.1770 C   0  0  1  0  0  0  0  0  0  0  0  0
   26.1040  -20.7588   -9.8668 C   0  0  0  0  0  0  0  0  0  0  0  0
   27.1187  -20.5328   -8.8314 C   0  0  0  0  0  0  0  0  0  0  0  0
   28.1429  -21.4417   -8.6671 C   0  0  0  0  0  0  0  0  0  0  0  0
   29.0831  -21.2319   -7.7071 C   0  0  0  0  0  0  0  0  0  0  0  0
   29.0317  -20.1115   -6.8826 C   0  0  0  0  0  0  0  0  0  0  0  0
   28.0124  -19.1987   -7.0398 C   0  0  0  0  0  0  0  0  0  0  0  0
   27.0737  -19.4312   -8.0160 C   0  0  0  0  0  0  0  0  0  0  0  0
   25.5971  -21.1712  -12.1837 C   0  0  0  0  0  0  0  0  0  0  0  0
   25.3695  -20.0721  -12.7500 O   0  0  0  0  0  0  0  0  0  0  0  0
   25.6232  -22.3028  -16.0462 C   0  0  0  0  0  0  0  0  0  0  0  0
   25.6343  -23.5269  -15.1167 C   0  0  2  0  0  0  0  0  0  0  0  0
   25.9033  -24.7183  -15.9808 C   0  0  0  0  0  0  0  0  0  0  0  0
   24.2992  -23.5546  -14.4507 C   0  0  0  0  0  0  0  0  0  0  0  0
   23.9302  -22.3297  -13.6833 C   0  0  2  0  0  0  0  0  0  0  0  0
   24.8163  -22.2901  -12.5224 N   0  0  0  0  0  0  0  0  0  0  0  0
   22.5120  -22.3634  -13.2453 C   0  0  0  0  0  0  0  0  0  0  0  0
   22.1332  -23.1218  -12.2903 O   0  0  0  0  0  0  0  0  0  0  0  0
   21.5837  -21.5253  -13.9206 N   0  0  0  0  0  0  0  0  0  0  0  0
   20.1733  -21.6333  -13.5506 C   0  0  1  0  0  0  0  0  0  0  0  0
   19.4777  -20.3186  -13.8146 C   0  0  0  0  0  0  0  0  0  0  0  0
   19.8130  -19.3683  -12.7285 C   0  0  0  0  0  0  0  0  0  0  0  0
   20.4929  -19.7822  -11.5766 C   0  0  0  0  0  0  0  0  0  0  0  0
   20.6453  -18.7141  -10.7961 N   0  0  0  0  0  0  0  0  0  0  0  0
   20.0905  -17.6790  -11.4222 C   0  0  0  0  0  0  0  0  0  0  0  0
   19.5851  -18.0612  -12.5886 N   0  0  0  0  0  0  0  0  0  0  0  0
   19.5997  -22.6834  -14.4268 C   0  0  0  0  0  0  0  0  0  0  0  0
   20.0747  -22.9748  -15.5651 O   0  0  0  0  0  0  0  0  0  0  0  0
   18.4770  -23.4446  -14.0640 O   0  0  0  0  0  0  0  0  0  0  0  0
  2 10  1  0
  2  3  1  0
  2  1  1  6
  3  4  1  0
  4  5  2  0
  4  9  1  0
  5  6  1  0
  6  7  2  0
  8  7  1  0
  9  8  2  0
 10 17  1  0
 11 10  2  0
 13 12  1  6
 14 13  1  0
 15 13  1  0
 16 15  1  1
 17 16  1  0
 18 20  1  0
 18 16  1  0
 19 18  2  0
 21 20  1  0
 21 28  1  0
 22 23  1  0
 21 22  1  6
 23 24  2  0
 24 25  1  0
 26 25  1  0
 27 23  1  0
 27 26  2  0
 28 30  1  0
 29 28  2  0
M  END
$$$$
