FLH.pdb
     RDKit          3D

 30 31  0  0  1  0  0  0  0  0999 V2000
   24.2805  -18.7894  -18.5913 N   0  0  0  0  0  0  0  0  0  0  0  0
   24.1695  -18.2364  -17.2592 C   0  0  1  0  0  0  0  0  0  0  0  0
   23.0586  -17.2083  -17.2070 C   0  0  0  0  0  0  0  0  0  0  0  0
   23.2955  -16.0507  -18.0768 C   0  0  0  0  0  0  0  0  0  0  0  0
   22.5480  -15.8931  -19.2250 C   0  0  0  0  0  0  0  0  0  0  0  0
   22.7681  -14.8199  -20.0309 C   0  0  0  0  0  0  0  0  0  0  0  0
   23.7384  -13.8721  -19.7178 C   0  0  0  0  0  0  0  0  0  0  0  0
   24.4894  -14.0217  -18.5730 C   0  0  0  0  0  0  0  0  0  0  0  0
   24.2498  -15.1136  -17.7739 C   0  0  0  0  0  0  0  0  0  0  0  0
   23.8444  -19.2734  -16.2513 C   0  0  0  0  0  0  0  0  0  0  0  0
   23.1345  -20.2540  -16.5903 O   0  0  0  0  0  0  0  0  0  0  0  0
   25.9551  -20.5465  -10.6692 C   0  0  0  0  0  0  0  0  0  0  0  0
   24.8902  -20.9840  -11.6875 C   0  0  2  0  0  0  0  0  0  0  0  0
   25.1617  -22.4217  -12.0000 C   0  0  0  0  0  0  0  0  0  0  0  0
   25.0388  -20.0737  -12.8606 C   0  0  0  0  0  0  0  0  0  0  0  0
   23.9655  -20.1631  -13.8926 C   0  0  2  0  0  0  0  0  0  0  0  0
   24.3084  -19.1898  -14.9270 N   0  0  0  0  0  0  0  0  0  0  0  0
   22.6294  -19.8565  -13.3224 C   0  0  0  0  0  0  0  0  0  0  0  0
   22.3181  -18.6693  -12.9697 O   0  0  0  0  0  0  0  0  0  0  0  0
   21.7026  -20.9245  -13.1793 N   0  0  0  0  0  0  0  0  0  0  0  0
   20.2847  -20.5861  -13.0663 C   0  0  1  0  0  0  0  0  0  0  0  0
   19.8431  -19.8339  -14.2998 C   0  0  0  0  0  0  0  0  0  0  0  0
   18.3864  -19.5777  -14.2134 C   0  0  0  0  0  0  0  0  0  0  0  0
   17.6202  -20.0569  -13.1439 C   0  0  0  0  0  0  0  0  0  0  0  0
   16.3625  -19.6696  -13.3474 N   0  0  0  0  0  0  0  0  0  0  0  0
   16.3352  -18.9815  -14.4862 C   0  0  0  0  0  0  0  0  0  0  0  0
   17.5500  -18.9193  -15.0177 N   0  0  0  0  0  0  0  0  0  0  0  0
   19.5607  -21.8779  -12.9865 C   0  0  0  0  0  0  0  0  0  0  0  0
   19.9695  -22.9396  -13.5451 O   0  0  0  0  0  0  0  0  0  0  0  0
   18.3561  -22.0305  -12.2812 O   0  0  0  0  0  0  0  0  0  0  0  0
  2 10  1  0
  2  3  1  0
  2  1  1  6
  3  4  1  0
  4  5  2  0
  4  9  1  0
  5  6  1  0
  6  7  2  0
  8  7  1  0
  9  8  2  0
 10 17  1  0
 11 10  2  0
 13 12  1  1
 14 13  1  0
 15 13  1  0
 16 15  1  1
 17 16  1  0
 18 20  1  0
 18 16  1  0
 19 18  2  0
 21 20  1  0
 21 28  1  0
 22 23  1  0
 21 22  1  6
 23 24  2  0
 24 25  1  0
 26 25  1  0
 27 23  1  0
 27 26  2  0
 28 30  1  0
 29 28  2  0
M  END
$$$$
