GDK.pdb
     RDKit          3D

 22 21  0  0  1  0  0  0  0  0999 V2000
    7.3667  -12.7269   18.5438 N   0  0  0  0  0  0  0  0  0  0  0  0
    8.5954  -13.4528   18.6461 C   0  0  0  0  0  0  0  0  0  0  0  0
    8.4659  -14.5021   19.6698 C   0  0  0  0  0  0  0  0  0  0  0  0
    7.3786  -14.6388   20.2924 O   0  0  0  0  0  0  0  0  0  0  0  0
    9.5363  -15.3881   19.9947 N   0  0  0  0  0  0  0  0  0  0  0  0
    9.3538  -16.3726   21.0336 C   0  0  1  0  0  0  0  0  0  0  0  0
   10.3014  -17.5548   20.8090 C   0  0  0  0  0  0  0  0  0  0  0  0
   10.0484  -18.5944   21.8209 C   0  0  0  0  0  0  0  0  0  0  0  0
    9.0252  -18.5725   22.5553 O   0  0  0  0  0  0  0  0  0  0  0  0
    9.6705  -15.7662   22.3454 C   0  0  0  0  0  0  0  0  0  0  0  0
   10.8072  -15.3296   22.5682 O   0  0  0  0  0  0  0  0  0  0  0  0
   10.9486  -19.6372   21.9883 O   0  0  0  0  0  0  0  0  0  0  0  0
    8.6931  -15.6772   23.3514 N   0  0  0  0  0  0  0  0  0  0  0  0
    8.7619  -14.8422   24.5103 C   0  0  1  0  0  0  0  0  0  0  0  0
    7.4921  -14.0960   24.7839 C   0  0  0  0  0  0  0  0  0  0  0  0
    7.5452  -13.1435   25.9147 C   0  0  0  0  0  0  0  0  0  0  0  0
    6.2398  -12.4744   26.2379 C   0  0  0  0  0  0  0  0  0  0  0  0
    6.5000  -11.4894   27.3764 C   0  0  0  0  0  0  0  0  0  0  0  0
    5.2626  -10.8036   27.7139 N   0  0  0  0  0  0  0  0  0  0  0  0
    9.1546  -15.6958   25.6553 C   0  0  0  0  0  0  0  0  0  0  0  0
    9.8032  -15.1909   26.7766 O   0  0  0  0  0  0  0  0  0  0  0  0
    8.8990  -16.9348   25.6305 O   0  0  0  0  0  0  0  0  0  0  0  0
  2  1  1  0
  3  2  1  0
  4  3  2  0
  5  3  1  0
  6  5  1  0
  6 10  1  0
  6  7  1  6
  8  7  1  0
  8  9  2  0
 10 11  2  0
 12  8  1  0
 13 10  1  0
 13 14  1  0
 14 15  1  1
 15 16  1  0
 16 17  1  0
 17 18  1  0
 18 19  1  0
 20 21  1  0
 20 14  1  0
 22 20  2  0
M  END
$$$$
