GDK.pdb
     RDKit          3D

 22 21  0  0  1  0  0  0  0  0999 V2000
    1.6382  -20.7012   21.4491 N   0  0  0  0  0  0  0  0  0  0  0  0
    1.9800  -19.5775   22.2662 C   0  0  0  0  0  0  0  0  0  0  0  0
    3.4434  -19.4834   22.3904 C   0  0  0  0  0  0  0  0  0  0  0  0
    4.0858  -20.4138   22.9473 O   0  0  0  0  0  0  0  0  0  0  0  0
    4.1811  -18.3650   21.8991 N   0  0  0  0  0  0  0  0  0  0  0  0
    5.5689  -18.2134   22.2631 C   0  0  1  0  0  0  0  0  0  0  0  0
    6.2605  -17.2409   21.3030 C   0  0  0  0  0  0  0  0  0  0  0  0
    6.4346  -17.8798   19.9876 C   0  0  0  0  0  0  0  0  0  0  0  0
    5.5752  -17.7655   19.0738 O   0  0  0  0  0  0  0  0  0  0  0  0
    5.6595  -17.6582   23.6315 C   0  0  0  0  0  0  0  0  0  0  0  0
    4.6287  -17.4402   24.2814 O   0  0  0  0  0  0  0  0  0  0  0  0
    7.5694  -18.6341   19.7244 O   0  0  0  0  0  0  0  0  0  0  0  0
    6.9077  -17.3719   24.2104 N   0  0  0  0  0  0  0  0  0  0  0  0
    7.3069  -17.7077   25.5420 C   0  0  1  0  0  0  0  0  0  0  0  0
    7.2164  -19.1730   25.8400 C   0  0  0  0  0  0  0  0  0  0  0  0
    7.6061  -19.5684   27.2113 C   0  0  0  0  0  0  0  0  0  0  0  0
    7.5570  -21.0454   27.4801 C   0  0  0  0  0  0  0  0  0  0  0  0
    8.1688  -21.2799   28.8604 C   0  0  0  0  0  0  0  0  0  0  0  0
    8.0796  -22.6927   29.1943 N   0  0  0  0  0  0  0  0  0  0  0  0
    8.6803  -17.1906   25.7423 C   0  0  0  0  0  0  0  0  0  0  0  0
    9.0439  -16.4471   26.8594 O   0  0  0  0  0  0  0  0  0  0  0  0
    9.5709  -17.4236   24.8743 O   0  0  0  0  0  0  0  0  0  0  0  0
  2  1  1  0
  3  2  1  0
  4  3  2  0
  5  3  1  0
  6  5  1  0
  6 10  1  0
  6  7  1  6
  8  7  1  0
  8  9  2  0
 10 11  2  0
 12  8  1  0
 13 10  1  0
 13 14  1  0
 14 15  1  6
 15 16  1  0
 16 17  1  0
 17 18  1  0
 18 19  1  0
 20 21  1  0
 20 14  1  0
 22 20  2  0
M  END
$$$$
