GDK.pdb
     RDKit          3D

 22 21  0  0  1  0  0  0  0  0999 V2000
    8.5866  -17.1573   18.3183 N   0  0  0  0  0  0  0  0  0  0  0  0
    9.8671  -17.1144   18.9551 C   0  0  0  0  0  0  0  0  0  0  0  0
    9.7062  -17.3215   20.4033 C   0  0  0  0  0  0  0  0  0  0  0  0
    8.5511  -17.4260   20.8964 O   0  0  0  0  0  0  0  0  0  0  0  0
   10.8205  -17.4108   21.2903 N   0  0  0  0  0  0  0  0  0  0  0  0
   10.6033  -17.7702   22.6707 C   0  0  1  0  0  0  0  0  0  0  0  0
   11.7554  -18.6455   23.1729 C   0  0  0  0  0  0  0  0  0  0  0  0
   11.2395  -19.6573   24.1103 C   0  0  0  0  0  0  0  0  0  0  0  0
   10.0267  -19.6932   24.4487 O   0  0  0  0  0  0  0  0  0  0  0  0
   10.5583  -16.5431   23.4960 C   0  0  0  0  0  0  0  0  0  0  0  0
   11.5522  -15.8088   23.5695 O   0  0  0  0  0  0  0  0  0  0  0  0
   12.0948  -20.6081   24.6490 O   0  0  0  0  0  0  0  0  0  0  0  0
    9.3953  -16.1946   24.2038 N   0  0  0  0  0  0  0  0  0  0  0  0
    9.2570  -15.0746   25.0823 C   0  0  1  0  0  0  0  0  0  0  0  0
    7.8976  -14.4468   25.0385 C   0  0  0  0  0  0  0  0  0  0  0  0
    7.6922  -13.3096   25.9623 C   0  0  0  0  0  0  0  0  0  0  0  0
    6.3125  -12.7165   25.9359 C   0  0  0  0  0  0  0  0  0  0  0  0
    6.3146  -11.5109   26.8745 C   0  0  0  0  0  0  0  0  0  0  0  0
    4.9698  -10.9636   26.9604 N   0  0  0  0  0  0  0  0  0  0  0  0
    9.6080  -15.5294   26.4474 C   0  0  0  0  0  0  0  0  0  0  0  0
    9.5589  -16.8663   26.8259 O   0  0  0  0  0  0  0  0  0  0  0  0
    9.9683  -14.6838   27.3170 O   0  0  0  0  0  0  0  0  0  0  0  0
  2  1  1  0
  3  2  1  0
  4  3  2  0
  5  3  1  0
  6  5  1  0
  6 10  1  0
  6  7  1  1
  8  7  1  0
  8  9  2  0
 10 11  2  0
 12  8  1  0
 13 10  1  0
 13 14  1  0
 14 15  1  1
 15 16  1  0
 16 17  1  0
 17 18  1  0
 18 19  1  0
 20 21  1  0
 20 14  1  0
 22 20  2  0
M  END
$$$$
