GDK.pdb
     RDKit          3D

 22 21  0  0  1  0  0  0  0  0999 V2000
   12.4724  -20.6813   17.1557 N   0  0  0  0  0  0  0  0  0  0  0  0
   11.1409  -20.8385   17.6552 C   0  0  0  0  0  0  0  0  0  0  0  0
   10.6840  -19.5729   18.2514 C   0  0  0  0  0  0  0  0  0  0  0  0
   11.4873  -18.6084   18.3654 O   0  0  0  0  0  0  0  0  0  0  0  0
    9.3472  -19.3857   18.7145 N   0  0  0  0  0  0  0  0  0  0  0  0
    8.9934  -18.1600   19.3884 C   0  0  1  0  0  0  0  0  0  0  0  0
    7.4705  -18.0005   19.4228 C   0  0  0  0  0  0  0  0  0  0  0  0
    6.8944  -18.4473   18.1433 C   0  0  0  0  0  0  0  0  0  0  0  0
    7.6182  -18.8217   17.1828 O   0  0  0  0  0  0  0  0  0  0  0  0
    9.4872  -18.2062   20.7823 C   0  0  0  0  0  0  0  0  0  0  0  0
    9.3517  -19.2373   21.4540 O   0  0  0  0  0  0  0  0  0  0  0  0
    5.5180  -18.4648   17.9675 O   0  0  0  0  0  0  0  0  0  0  0  0
   10.1130  -17.0889   21.3611 N   0  0  0  0  0  0  0  0  0  0  0  0
   10.6388  -17.0217   22.6894 C   0  0  1  0  0  0  0  0  0  0  0  0
   11.8286  -16.1201   22.8147 C   0  0  0  0  0  0  0  0  0  0  0  0
   13.1417  -16.8009   22.8477 C   0  0  0  0  0  0  0  0  0  0  0  0
   14.2136  -16.1442   22.0256 C   0  0  0  0  0  0  0  0  0  0  0  0
   15.5113  -16.9138   22.2668 C   0  0  0  0  0  0  0  0  0  0  0  0
   16.5809  -16.3140   21.4847 N   0  0  0  0  0  0  0  0  0  0  0  0
    9.5371  -16.6048   23.5872 C   0  0  0  0  0  0  0  0  0  0  0  0
    9.6000  -16.7552   24.9679 O   0  0  0  0  0  0  0  0  0  0  0  0
    8.4898  -16.0902   23.0977 O   0  0  0  0  0  0  0  0  0  0  0  0
  2  1  1  0
  3  2  1  0
  4  3  2  0
  5  3  1  0
  6  5  1  0
  6 10  1  0
  6  7  1  1
  8  7  1  0
  8  9  2  0
 10 11  2  0
 12  8  1  0
 13 10  1  0
 13 14  1  0
 14 15  1  6
 15 16  1  0
 16 17  1  0
 17 18  1  0
 18 19  1  0
 20 21  1  0
 20 14  1  0
 22 20  2  0
M  END
$$$$
