GDK.pdb
     RDKit          3D

 22 21  0  0  1  0  0  0  0  0999 V2000
    8.1488  -17.6026   17.8697 N   0  0  0  0  0  0  0  0  0  0  0  0
    8.6306  -16.2907   18.1764 C   0  0  0  0  0  0  0  0  0  0  0  0
    9.6995  -16.3797   19.1841 C   0  0  0  0  0  0  0  0  0  0  0  0
    9.8495  -17.4419   19.8458 O   0  0  0  0  0  0  0  0  0  0  0  0
   10.5902  -15.2970   19.4502 N   0  0  0  0  0  0  0  0  0  0  0  0
   11.6467  -15.4670   20.4178 C   0  0  1  0  0  0  0  0  0  0  0  0
   12.6642  -14.3293   20.2897 C   0  0  0  0  0  0  0  0  0  0  0  0
   13.5743  -14.6002   19.1640 C   0  0  0  0  0  0  0  0  0  0  0  0
   13.7944  -15.7706   18.7537 O   0  0  0  0  0  0  0  0  0  0  0  0
   11.0744  -15.4267   21.7816 C   0  0  0  0  0  0  0  0  0  0  0  0
   10.4538  -14.4262   22.1640 O   0  0  0  0  0  0  0  0  0  0  0  0
   14.2189  -13.5525   18.5218 O   0  0  0  0  0  0  0  0  0  0  0  0
   11.2252  -16.5155   22.6573 N   0  0  0  0  0  0  0  0  0  0  0  0
   10.6720  -16.6114   23.9726 C   0  0  1  0  0  0  0  0  0  0  0  0
    9.7808  -17.8010   24.1593 C   0  0  0  0  0  0  0  0  0  0  0  0
    9.3097  -18.0318   25.5427 C   0  0  0  0  0  0  0  0  0  0  0  0
    8.3967  -19.2127   25.7094 C   0  0  0  0  0  0  0  0  0  0  0  0
    7.8438  -19.1662   27.1330 C   0  0  0  0  0  0  0  0  0  0  0  0
    7.0479  -20.3581   27.3811 N   0  0  0  0  0  0  0  0  0  0  0  0
   11.7988  -16.6134   24.9339 C   0  0  0  0  0  0  0  0  0  0  0  0
   11.6772  -16.1246   26.2297 O   0  0  0  0  0  0  0  0  0  0  0  0
   12.9235  -17.0733   24.5808 O   0  0  0  0  0  0  0  0  0  0  0  0
  2  1  1  0
  3  2  1  0
  4  3  2  0
  5  3  1  0
  6  5  1  0
  6 10  1  0
  6  7  1  1
  8  7  1  0
  8  9  2  0
 10 11  2  0
 12  8  1  0
 13 10  1  0
 13 14  1  0
 14 15  1  6
 15 16  1  0
 16 17  1  0
 17 18  1  0
 18 19  1  0
 20 21  1  0
 20 14  1  0
 22 20  2  0
M  END
$$$$
