GDK.pdb
     RDKit          3D

 22 21  0  0  1  0  0  0  0  0999 V2000
    3.3592  -19.6322   22.0488 N   0  0  0  0  0  0  0  0  0  0  0  0
    3.4876  -18.2226   22.2581 C   0  0  0  0  0  0  0  0  0  0  0  0
    4.9008  -17.8311   22.1338 C   0  0  0  0  0  0  0  0  0  0  0  0
    5.8070  -18.6817   22.3433 O   0  0  0  0  0  0  0  0  0  0  0  0
    5.2980  -16.5070   21.7800 N   0  0  0  0  0  0  0  0  0  0  0  0
    6.6978  -16.1574   21.7927 C   0  0  1  0  0  0  0  0  0  0  0  0
    6.9163  -14.8381   21.0459 C   0  0  0  0  0  0  0  0  0  0  0  0
    6.8943  -15.0792   19.5932 C   0  0  0  0  0  0  0  0  0  0  0  0
    7.6393  -15.9376   19.0503 O   0  0  0  0  0  0  0  0  0  0  0  0
    7.1464  -15.9792   23.1912 C   0  0  0  0  0  0  0  0  0  0  0  0
    6.5202  -15.2302   23.9523 O   0  0  0  0  0  0  0  0  0  0  0  0
    6.0370  -14.3522   18.7794 O   0  0  0  0  0  0  0  0  0  0  0  0
    8.2818  -16.6524   23.6737 N   0  0  0  0  0  0  0  0  0  0  0  0
    8.8085  -16.5560   24.9998 C   0  0  1  0  0  0  0  0  0  0  0  0
    8.7889  -17.8554   25.7449 C   0  0  0  0  0  0  0  0  0  0  0  0
    9.4396  -17.8365   27.0735 C   0  0  0  0  0  0  0  0  0  0  0  0
    9.5596  -19.1790   27.7364 C   0  0  0  0  0  0  0  0  0  0  0  0
   10.2418  -18.9633   29.0864 C   0  0  0  0  0  0  0  0  0  0  0  0
   10.4033  -20.2444   29.7559 N   0  0  0  0  0  0  0  0  0  0  0  0
   10.1782  -16.0016   24.8990 C   0  0  0  0  0  0  0  0  0  0  0  0
   11.0068  -16.2487   23.8102 O   0  0  0  0  0  0  0  0  0  0  0  0
   10.6299  -15.2730   25.8297 O   0  0  0  0  0  0  0  0  0  0  0  0
  2  1  1  0
  3  2  1  0
  4  3  2  0
  5  3  1  0
  6  5  1  0
  6 10  1  0
  6  7  1  6
  8  7  1  0
  8  9  2  0
 10 11  2  0
 12  8  1  0
 13 10  1  0
 13 14  1  0
 14 15  1  6
 15 16  1  0
 16 17  1  0
 17 18  1  0
 18 19  1  0
 20 21  1  0
 20 14  1  0
 22 20  2  0
M  END
$$$$
