CTV.pdb
     RDKit          3D

 21 20  0  0  1  0  0  0  0  0999 V2000
   15.3978  -13.8812  -18.2384 N   0  0  0  0  0  0  0  0  0  0  0  0
   15.8034  -13.2052  -17.0465 C   0  0  1  0  0  0  0  0  0  0  0  0
   16.0208  -14.1729  -15.9119 C   0  0  0  0  0  0  0  0  0  0  0  0
   14.4763  -14.7050  -15.1485 S   0  0  0  0  0  0  0  0  0  0  0  0
   16.9805  -12.3174  -17.2594 C   0  0  0  0  0  0  0  0  0  0  0  0
   17.9573  -12.7093  -17.9500 O   0  0  0  0  0  0  0  0  0  0  0  0
   16.9389   -8.8932  -18.6994 C   0  0  0  0  0  0  0  0  0  0  0  0
   17.6594   -8.7711  -17.3757 C   0  0  1  0  0  0  0  0  0  0  0  0
   16.8682   -8.1949  -16.4060 O   0  0  0  0  0  0  0  0  0  0  0  0
   18.1711  -10.1275  -16.9428 C   0  0  2  0  0  0  0  0  0  0  0  0
   17.0435  -11.0098  -16.6971 N   0  0  0  0  0  0  0  0  0  0  0  0
   19.0273   -9.9865  -15.7397 C   0  0  0  0  0  0  0  0  0  0  0  0
   18.6079  -10.1160  -14.5635 O   0  0  0  0  0  0  0  0  0  0  0  0
   23.2161   -9.5458  -16.4896 C   0  0  0  0  0  0  0  0  0  0  0  0
   22.6737  -10.1968  -15.2374 C   0  0  1  0  0  0  0  0  0  0  0  0
   23.6354  -10.1496  -14.0894 C   0  0  0  0  0  0  0  0  0  0  0  0
   21.3508   -9.5333  -14.8800 C   0  0  2  0  0  0  0  0  0  0  0  0
   20.3989   -9.6878  -15.9439 N   0  0  0  0  0  0  0  0  0  0  0  0
   21.6433   -8.0849  -14.6687 C   0  0  0  0  0  0  0  0  0  0  0  0
   21.5194   -7.2798  -15.6182 O   0  0  0  0  0  0  0  0  0  0  0  0
   22.0521   -7.5966  -13.4423 O   0  0  0  0  0  0  0  0  0  0  0  0
  2  3  1  0
  2  5  1  0
  2  1  1  6
  4  3  1  0
  5 11  1  0
  6  5  2  0
  8  7  1  6
  9  8  1  0
 10 11  1  1
 10 12  1  0
 10  8  1  0
 12 18  1  0
 13 12  2  0
 15 16  1  1
 15 14  1  0
 17 15  1  0
 17 18  1  6
 19 17  1  0
 20 19  2  0
 21 19  1  0
M  END
$$$$
