CTV.pdb
     RDKit          3D

 21 20  0  0  1  0  0  0  0  0999 V2000
   17.6473  -16.4758  -15.9492 N   0  0  0  0  0  0  0  0  0  0  0  0
   16.9262  -15.2444  -16.0270 C   0  0  1  0  0  0  0  0  0  0  0  0
   15.5879  -15.3461  -15.3418 C   0  0  0  0  0  0  0  0  0  0  0  0
   14.6050  -16.7335  -15.9418 S   0  0  0  0  0  0  0  0  0  0  0  0
   17.7185  -14.0807  -15.5401 C   0  0  0  0  0  0  0  0  0  0  0  0
   18.9616  -14.1829  -15.3701 O   0  0  0  0  0  0  0  0  0  0  0  0
   18.1919  -11.0953  -17.1955 C   0  0  0  0  0  0  0  0  0  0  0  0
   18.8963  -11.3228  -15.8772 C   0  0  1  0  0  0  0  0  0  0  0  0
   19.6626  -10.2398  -15.5050 O   0  0  0  0  0  0  0  0  0  0  0  0
   17.8855  -11.6821  -14.8104 C   0  0  2  0  0  0  0  0  0  0  0  0
   17.1072  -12.8262  -15.2527 N   0  0  0  0  0  0  0  0  0  0  0  0
   17.0206  -10.5134  -14.5165 C   0  0  0  0  0  0  0  0  0  0  0  0
   16.1257  -10.0930  -15.2902 O   0  0  0  0  0  0  0  0  0  0  0  0
   17.1988   -9.1837  -10.4862 C   0  0  0  0  0  0  0  0  0  0  0  0
   15.9486   -9.1356  -11.3351 C   0  0  1  0  0  0  0  0  0  0  0  0
   14.9343   -8.1560  -10.8287 C   0  0  0  0  0  0  0  0  0  0  0  0
   16.3492   -8.8264  -12.7711 C   0  0  2  0  0  0  0  0  0  0  0  0
   17.2270   -9.8397  -13.2853 N   0  0  0  0  0  0  0  0  0  0  0  0
   17.0552   -7.5115  -12.7433 C   0  0  0  0  0  0  0  0  0  0  0  0
   18.3055   -7.4766  -12.7191 O   0  0  0  0  0  0  0  0  0  0  0  0
   16.3644   -6.3147  -12.7433 O   0  0  0  0  0  0  0  0  0  0  0  0
  2  3  1  0
  2  5  1  0
  2  1  1  1
  4  3  1  0
  5 11  1  0
  6  5  2  0
  8  7  1  6
  9  8  1  0
 10 11  1  6
 10 12  1  0
 10  8  1  0
 12 18  1  0
 13 12  2  0
 15 16  1  1
 15 14  1  0
 17 15  1  0
 17 18  1  1
 19 17  1  0
 20 19  2  0
 21 19  1  0
M  END
$$$$
