CTV.pdb
     RDKit          3D

 21 20  0  0  1  0  0  0  0  0999 V2000
   23.9103  -16.9056  -17.7654 N   0  0  0  0  0  0  0  0  0  0  0  0
   23.3432  -16.1876  -16.6677 C   0  0  1  0  0  0  0  0  0  0  0  0
   24.1381  -16.3956  -15.4045 C   0  0  0  0  0  0  0  0  0  0  0  0
   24.2582  -18.1333  -14.9387 S   0  0  0  0  0  0  0  0  0  0  0  0
   23.1365  -14.7433  -16.9687 C   0  0  0  0  0  0  0  0  0  0  0  0
   24.0345  -14.0788  -17.5490 O   0  0  0  0  0  0  0  0  0  0  0  0
   20.1032  -11.0232  -17.8216 C   0  0  0  0  0  0  0  0  0  0  0  0
   20.3143  -12.4709  -17.4400 C   0  0  1  0  0  0  0  0  0  0  0  0
   20.0314  -13.3281  -18.4809 O   0  0  0  0  0  0  0  0  0  0  0  0
   21.7238  -12.6659  -16.9258 C   0  0  2  0  0  0  0  0  0  0  0  0
   21.9316  -14.0698  -16.6159 N   0  0  0  0  0  0  0  0  0  0  0  0
   21.9555  -11.8044  -15.7408 C   0  0  0  0  0  0  0  0  0  0  0  0
   21.4311  -12.0038  -14.6176 O   0  0  0  0  0  0  0  0  0  0  0  0
   25.4294  -10.9887  -14.6751 C   0  0  0  0  0  0  0  0  0  0  0  0
   24.7572   -9.6461  -14.8528 C   0  0  1  0  0  0  0  0  0  0  0  0
   25.1825   -8.9394  -16.1036 C   0  0  0  0  0  0  0  0  0  0  0  0
   23.2489   -9.8506  -14.8172 C   0  0  2  0  0  0  0  0  0  0  0  0
   22.8226  -10.6930  -15.8990 N   0  0  0  0  0  0  0  0  0  0  0  0
   22.6317   -8.4985  -14.9548 C   0  0  0  0  0  0  0  0  0  0  0  0
   22.1630   -8.1374  -16.0570 O   0  0  0  0  0  0  0  0  0  0  0  0
   22.5596   -7.6199  -13.8906 O   0  0  0  0  0  0  0  0  0  0  0  0
  2  3  1  0
  2  5  1  0
  2  1  1  6
  4  3  1  0
  5 11  1  0
  6  5  2  0
  8  7  1  6
  9  8  1  0
 10 11  1  1
 10 12  1  0
 10  8  1  0
 12 18  1  0
 13 12  2  0
 15 16  1  6
 15 14  1  0
 17 15  1  0
 17 18  1  6
 19 17  1  0
 20 19  2  0
 21 19  1  0
M  END
$$$$
