CTV.pdb
     RDKit          3D

 21 20  0  0  1  0  0  0  0  0999 V2000
   21.7812  -13.6221  -17.8019 N   0  0  0  0  0  0  0  0  0  0  0  0
   22.0544  -12.7865  -16.6753 C   0  0  1  0  0  0  0  0  0  0  0  0
   23.4999  -12.8788  -16.2593 C   0  0  0  0  0  0  0  0  0  0  0  0
   23.8603  -14.3829  -15.3326 S   0  0  0  0  0  0  0  0  0  0  0  0
   21.6200  -11.3769  -16.8841 C   0  0  0  0  0  0  0  0  0  0  0  0
   21.8346  -10.8004  -17.9824 O   0  0  0  0  0  0  0  0  0  0  0  0
   18.4547   -7.8443  -16.0044 C   0  0  0  0  0  0  0  0  0  0  0  0
   18.9827   -9.2416  -15.7699 C   0  0  1  0  0  0  0  0  0  0  0  0
   18.2755  -10.1887  -16.4777 O   0  0  0  0  0  0  0  0  0  0  0  0
   20.4597   -9.2932  -16.0935 C   0  0  2  0  0  0  0  0  0  0  0  0
   20.9548  -10.6393  -15.8627 N   0  0  0  0  0  0  0  0  0  0  0  0
   21.1930   -8.2939  -15.2786 C   0  0  0  0  0  0  0  0  0  0  0  0
   21.4282   -8.4277  -14.0526 O   0  0  0  0  0  0  0  0  0  0  0  0
   22.0791   -4.7152  -17.2931 C   0  0  0  0  0  0  0  0  0  0  0  0
   23.1410   -5.2425  -16.3548 C   0  0  1  0  0  0  0  0  0  0  0  0
   23.9489   -4.1552  -15.7146 C   0  0  0  0  0  0  0  0  0  0  0  0
   22.4704   -6.1235  -15.3098 C   0  0  2  0  0  0  0  0  0  0  0  0
   21.6501   -7.1225  -15.9351 N   0  0  0  0  0  0  0  0  0  0  0  0
   21.6230   -5.2235  -14.4732 C   0  0  0  0  0  0  0  0  0  0  0  0
   22.1230   -4.6354  -13.4888 O   0  0  0  0  0  0  0  0  0  0  0  0
   20.2860   -5.0150  -14.7536 O   0  0  0  0  0  0  0  0  0  0  0  0
  2  3  1  0
  2  5  1  0
  2  1  1  6
  4  3  1  0
  5 11  1  0
  6  5  2  0
  8  7  1  6
  9  8  1  0
 10 11  1  1
 10 12  1  0
 10  8  1  0
 12 18  1  0
 13 12  2  0
 15 16  1  1
 15 14  1  0
 17 15  1  0
 17 18  1  6
 19 17  1  0
 20 19  2  0
 21 19  1  0
M  END
$$$$
