CTV.pdb
     RDKit          3D

 21 20  0  0  1  0  0  0  0  0999 V2000
   27.5405  -23.9366  -16.4593 N   0  0  0  0  0  0  0  0  0  0  0  0
   28.3600  -24.6425  -17.3932 C   0  0  1  0  0  0  0  0  0  0  0  0
   29.7982  -24.6804  -16.9447 C   0  0  0  0  0  0  0  0  0  0  0  0
   30.6319  -23.0954  -17.1536 S   0  0  0  0  0  0  0  0  0  0  0  0
   27.8354  -26.0004  -17.7095 C   0  0  0  0  0  0  0  0  0  0  0  0
   26.9605  -26.5317  -16.9767 O   0  0  0  0  0  0  0  0  0  0  0  0
   26.6205  -29.2419  -21.0730 C   0  0  0  0  0  0  0  0  0  0  0  0
   27.2307  -27.9228  -20.6562 C   0  0  1  0  0  0  0  0  0  0  0  0
   26.3662  -26.8675  -20.8497 O   0  0  0  0  0  0  0  0  0  0  0  0
   27.6968  -28.0041  -19.2192 C   0  0  2  0  0  0  0  0  0  0  0  0
   28.2978  -26.7379  -18.8374 N   0  0  0  0  0  0  0  0  0  0  0  0
   28.6473  -29.1313  -19.0570 C   0  0  0  0  0  0  0  0  0  0  0  0
   29.8365  -29.1070  -19.4586 O   0  0  0  0  0  0  0  0  0  0  0  0
   28.7058  -31.6752  -15.7656 C   0  0  0  0  0  0  0  0  0  0  0  0
   28.3859  -32.3354  -17.0877 C   0  0  1  0  0  0  0  0  0  0  0  0
   26.9197  -32.5740  -17.2834 C   0  0  0  0  0  0  0  0  0  0  0  0
   28.9631  -31.4814  -18.2082 C   0  0  2  0  0  0  0  0  0  0  0  0
   28.1721  -30.2998  -18.4082 N   0  0  0  0  0  0  0  0  0  0  0  0
   28.9382  -32.3221  -19.4414 C   0  0  0  0  0  0  0  0  0  0  0  0
   29.8579  -33.1431  -19.6537 O   0  0  0  0  0  0  0  0  0  0  0  0
   27.9191  -32.2226  -20.3694 O   0  0  0  0  0  0  0  0  0  0  0  0
  2  3  1  0
  2  5  1  0
  2  1  1  1
  4  3  1  0
  5 11  1  0
  6  5  2  0
  8  7  1  1
  9  8  1  0
 10 11  1  6
 10 12  1  0
 10  8  1  0
 12 18  1  0
 13 12  2  0
 15 16  1  6
 15 14  1  0
 17 15  1  0
 17 18  1  6
 19 17  1  0
 20 19  2  0
 21 19  1  0
M  END
$$$$
