CTV.pdb
     RDKit          3D

 21 20  0  0  1  0  0  0  0  0999 V2000
   24.8053  -23.3516  -12.0602 N   0  0  0  0  0  0  0  0  0  0  0  0
   24.9282  -21.9410  -11.8668 C   0  0  1  0  0  0  0  0  0  0  0  0
   25.5702  -21.6211  -10.5415 C   0  0  0  0  0  0  0  0  0  0  0  0
   24.5844  -20.4826   -9.5501 S   0  0  0  0  0  0  0  0  0  0  0  0
   25.6143  -21.2612  -13.0009 C   0  0  0  0  0  0  0  0  0  0  0  0
   26.7217  -21.6865  -13.4224 O   0  0  0  0  0  0  0  0  0  0  0  0
   24.0155  -20.9952  -16.1177 C   0  0  0  0  0  0  0  0  0  0  0  0
   25.4667  -20.5948  -15.9768 C   0  0  1  0  0  0  0  0  0  0  0  0
   25.9938  -20.1303  -17.1621 O   0  0  0  0  0  0  0  0  0  0  0  0
   25.6131  -19.5778  -14.8663 C   0  0  2  0  0  0  0  0  0  0  0  0
   25.0507  -20.1203  -13.6417 N   0  0  0  0  0  0  0  0  0  0  0  0
   24.9556  -18.3057  -15.2531 C   0  0  0  0  0  0  0  0  0  0  0  0
   23.7520  -18.0397  -15.0154 O   0  0  0  0  0  0  0  0  0  0  0  0
   26.6329  -14.7026  -14.7647 C   0  0  0  0  0  0  0  0  0  0  0  0
   26.3777  -15.0074  -16.2235 C   0  0  1  0  0  0  0  0  0  0  0  0
   27.6068  -15.4609  -16.9506 C   0  0  0  0  0  0  0  0  0  0  0  0
   25.2655  -16.0431  -16.3151 C   0  0  2  0  0  0  0  0  0  0  0  0
   25.7444  -17.3412  -15.9312 N   0  0  0  0  0  0  0  0  0  0  0  0
   24.8220  -16.0680  -17.7401 C   0  0  0  0  0  0  0  0  0  0  0  0
   24.2224  -15.0818  -18.2228 O   0  0  0  0  0  0  0  0  0  0  0  0
   25.0547  -17.1590  -18.5556 O   0  0  0  0  0  0  0  0  0  0  0  0
  2  3  1  0
  2  5  1  0
  2  1  1  6
  4  3  1  0
  5 11  1  0
  6  5  2  0
  8  7  1  6
  9  8  1  0
 10 11  1  1
 10 12  1  0
 10  8  1  0
 12 18  1  0
 13 12  2  0
 15 16  1  1
 15 14  1  0
 17 15  1  0
 17 18  1  6
 19 17  1  0
 20 19  2  0
 21 19  1  0
M  END
$$$$
