CTV.pdb
     RDKit          3D

 21 20  0  0  1  0  0  0  0  0999 V2000
   19.5755  -12.6969  -17.4762 N   0  0  0  0  0  0  0  0  0  0  0  0
   20.5218  -11.9457  -16.7132 C   0  0  1  0  0  0  0  0  0  0  0  0
   21.9263  -12.1560  -17.2173 C   0  0  0  0  0  0  0  0  0  0  0  0
   22.6472  -13.7034  -16.6369 S   0  0  0  0  0  0  0  0  0  0  0  0
   20.1702  -10.5012  -16.6195 C   0  0  0  0  0  0  0  0  0  0  0  0
   19.9389   -9.8332  -17.6611 O   0  0  0  0  0  0  0  0  0  0  0  0
   17.9853   -6.8503  -14.4794 C   0  0  0  0  0  0  0  0  0  0  0  0
   18.3413   -8.3085  -14.6608 C   0  0  1  0  0  0  0  0  0  0  0  0
   17.3970   -8.9845  -15.4023 O   0  0  0  0  0  0  0  0  0  0  0  0
   19.7196   -8.4281  -15.2732 C   0  0  2  0  0  0  0  0  0  0  0  0
   20.0838   -9.8314  -15.3650 N   0  0  0  0  0  0  0  0  0  0  0  0
   20.7008   -7.6602  -14.4683 C   0  0  0  0  0  0  0  0  0  0  0  0
   21.1639   -8.0524  -13.3693 O   0  0  0  0  0  0  0  0  0  0  0  0
   23.9484   -6.3265  -15.8996 C   0  0  0  0  0  0  0  0  0  0  0  0
   23.1613   -5.1314  -15.4112 C   0  0  1  0  0  0  0  0  0  0  0  0
   22.4888   -4.3805  -16.5198 C   0  0  0  0  0  0  0  0  0  0  0  0
   22.1544   -5.6057  -14.3723 C   0  0  2  0  0  0  0  0  0  0  0  0
   21.1335   -6.4107  -14.9817 N   0  0  0  0  0  0  0  0  0  0  0  0
   21.5451   -4.3796  -13.7779 C   0  0  0  0  0  0  0  0  0  0  0  0
   20.4385   -3.9702  -14.1936 O   0  0  0  0  0  0  0  0  0  0  0  0
   22.1710   -3.6716  -12.7697 O   0  0  0  0  0  0  0  0  0  0  0  0
  2  3  1  0
  2  5  1  0
  2  1  1  6
  4  3  1  0
  5 11  1  0
  6  5  2  0
  8  7  1  6
  9  8  1  0
 10 11  1  1
 10 12  1  0
 10  8  1  0
 12 18  1  0
 13 12  2  0
 15 16  1  6
 15 14  1  0
 17 15  1  0
 17 18  1  6
 19 17  1  0
 20 19  2  0
 21 19  1  0
M  END
$$$$
