CTV.pdb
     RDKit          3D

 21 20  0  0  1  0  0  0  0  0999 V2000
   15.5868  -13.8520  -16.8746 N   0  0  0  0  0  0  0  0  0  0  0  0
   16.1024  -13.1067  -15.7697 C   0  0  1  0  0  0  0  0  0  0  0  0
   16.6121  -14.0166  -14.6820 C   0  0  0  0  0  0  0  0  0  0  0  0
   15.3051  -15.0159  -13.9444 S   0  0  0  0  0  0  0  0  0  0  0  0
   17.1192  -12.0979  -16.1790 C   0  0  0  0  0  0  0  0  0  0  0  0
   18.1158  -12.4411  -16.8672 O   0  0  0  0  0  0  0  0  0  0  0  0
   16.5115   -9.0690  -18.1546 C   0  0  0  0  0  0  0  0  0  0  0  0
   17.2238   -8.5833  -16.9124 C   0  0  1  0  0  0  0  0  0  0  0  0
   16.3641   -7.9683  -16.0287 O   0  0  0  0  0  0  0  0  0  0  0  0
   17.9623   -9.7324  -16.2619 C   0  0  2  0  0  0  0  0  0  0  0  0
   17.0030  -10.7261  -15.8120 N   0  0  0  0  0  0  0  0  0  0  0  0
   18.7957   -9.2308  -15.1419 C   0  0  0  0  0  0  0  0  0  0  0  0
   18.4201   -9.2122  -13.9441 O   0  0  0  0  0  0  0  0  0  0  0  0
   22.1082  -10.3703  -13.9881 C   0  0  0  0  0  0  0  0  0  0  0  0
   22.3304   -8.9743  -14.5247 C   0  0  1  0  0  0  0  0  0  0  0  0
   22.9203   -8.9634  -15.9020 C   0  0  0  0  0  0  0  0  0  0  0  0
   21.0072   -8.2223  -14.4824 C   0  0  2  0  0  0  0  0  0  0  0  0
   20.0913   -8.7463  -15.4561 N   0  0  0  0  0  0  0  0  0  0  0  0
   21.3170   -6.7959  -14.7946 C   0  0  0  0  0  0  0  0  0  0  0  0
   21.0156   -6.3240  -15.9134 O   0  0  0  0  0  0  0  0  0  0  0  0
   21.9341   -5.9676  -13.8767 O   0  0  0  0  0  0  0  0  0  0  0  0
  2  3  1  0
  2  5  1  0
  2  1  1  6
  4  3  1  0
  5 11  1  0
  6  5  2  0
  8  7  1  6
  9  8  1  0
 10 11  1  1
 10 12  1  0
 10  8  1  0
 12 18  1  0
 13 12  2  0
 15 16  1  6
 15 14  1  0
 17 15  1  0
 17 18  1  6
 19 17  1  0
 20 19  2  0
 21 19  1  0
M  END
$$$$
