CTV.pdb
     RDKit          3D

 21 20  0  0  1  0  0  0  0  0999 V2000
   29.1875  -21.0737  -15.3171 N   0  0  0  0  0  0  0  0  0  0  0  0
   28.3070  -20.2019  -14.6052 C   0  0  1  0  0  0  0  0  0  0  0  0
   27.9434  -18.9939  -15.4295 C   0  0  0  0  0  0  0  0  0  0  0  0
   26.9913  -17.7791  -14.4974 S   0  0  0  0  0  0  0  0  0  0  0  0
   27.1035  -20.9034  -14.0774 C   0  0  0  0  0  0  0  0  0  0  0  0
   26.6420  -21.9120  -14.6727 O   0  0  0  0  0  0  0  0  0  0  0  0
   26.3840  -21.6208  -10.2656 C   0  0  0  0  0  0  0  0  0  0  0  0
   25.1716  -20.9781  -10.9005 C   0  0  1  0  0  0  0  0  0  0  0  0
   25.0272  -19.6601  -10.5255 O   0  0  0  0  0  0  0  0  0  0  0  0
   25.2416  -21.1242  -12.4047 C   0  0  2  0  0  0  0  0  0  0  0  0
   26.4393  -20.4649  -12.8956 N   0  0  0  0  0  0  0  0  0  0  0  0
   24.0162  -20.5654  -13.0264 C   0  0  0  0  0  0  0  0  0  0  0  0
   23.9061  -19.3745  -13.4082 O   0  0  0  0  0  0  0  0  0  0  0  0
   21.2655  -23.4753  -14.1844 C   0  0  0  0  0  0  0  0  0  0  0  0
   21.2944  -22.1325  -14.8787 C   0  0  1  0  0  0  0  0  0  0  0  0
   19.9963  -21.7891  -15.5437 C   0  0  0  0  0  0  0  0  0  0  0  0
   21.6954  -21.0705  -13.8640 C   0  0  2  0  0  0  0  0  0  0  0  0
   22.9108  -21.4384  -13.1939 N   0  0  0  0  0  0  0  0  0  0  0  0
   20.5797  -20.9813  -12.8764 C   0  0  0  0  0  0  0  0  0  0  0  0
   20.6371  -21.6355  -11.8116 O   0  0  0  0  0  0  0  0  0  0  0  0
   19.4700  -20.1893  -13.1019 O   0  0  0  0  0  0  0  0  0  0  0  0
  2  3  1  0
  2  5  1  0
  2  1  1  6
  4  3  1  0
  5 11  1  0
  6  5  2  0
  8  7  1  1
  9  8  1  0
 10 11  1  6
 10 12  1  0
 10  8  1  0
 12 18  1  0
 13 12  2  0
 15 16  1  1
 15 14  1  0
 17 15  1  0
 17 18  1  1
 19 17  1  0
 20 19  2  0
 21 19  1  0
M  END
$$$$
