DNA.pdb
     RDKit          3D

 22 21  0  0  1  0  0  0  0  0999 V2000
   10.6480  -16.8389   20.0027 N   0  0  0  0  0  0  0  0  0  0  0  0
   11.2004  -17.0159   21.3285 C   0  0  1  0  0  0  0  0  0  0  0  0
   12.5574  -16.3574   21.4361 C   0  0  0  0  0  0  0  0  0  0  0  0
   13.5373  -16.9513   20.4972 C   0  0  0  0  0  0  0  0  0  0  0  0
   14.1637  -16.3011   19.6500 O   0  0  0  0  0  0  0  0  0  0  0  0
   10.2894  -16.3759   22.3033 C   0  0  0  0  0  0  0  0  0  0  0  0
    9.6185  -15.3800   21.9493 O   0  0  0  0  0  0  0  0  0  0  0  0
   13.7652  -18.3171   20.5730 O   0  0  0  0  0  0  0  0  0  0  0  0
    6.5002  -15.8682   25.7419 N   0  0  0  0  0  0  0  0  0  0  0  0
    7.1743  -17.1086   25.7194 C   0  0  0  0  0  0  0  0  0  0  0  0
    6.9467  -17.9355   26.6317 O   0  0  0  0  0  0  0  0  0  0  0  0
    8.1237  -17.4363   24.6540 C   0  0  0  0  0  0  0  0  0  0  0  0
    9.2403  -16.4054   24.5489 C   0  0  2  0  0  0  0  0  0  0  0  0
   10.2094  -16.9184   23.6083 N   0  0  0  0  0  0  0  0  0  0  0  0
    9.8808  -16.0776   25.8259 C   0  0  0  0  0  0  0  0  0  0  0  0
   10.5538  -16.9547   26.4193 O   0  0  0  0  0  0  0  0  0  0  0  0
    9.7633  -13.2738   28.3553 C   0  0  0  0  0  0  0  0  0  0  0  0
   10.3696  -14.5193   27.7416 C   0  0  2  0  0  0  0  0  0  0  0  0
    9.7857  -14.8044   26.4466 N   0  0  0  0  0  0  0  0  0  0  0  0
   10.2017  -15.6384   28.6887 C   0  0  0  0  0  0  0  0  0  0  0  0
   10.9783  -15.7541   29.8242 O   0  0  0  0  0  0  0  0  0  0  0  0
    9.3343  -16.5102   28.4647 O   0  0  0  0  0  0  0  0  0  0  0  0
  2  1  1  6
  3  4  1  0
  3  2  1  0
  4  5  2  0
  6  7  2  0
  6  2  1  0
  8  4  1  0
  9 10  1  0
 10 12  1  0
 11 10  2  0
 13 12  1  1
 13 14  1  0
 13 15  1  0
 14  6  1  0
 15 19  1  0
 16 15  2  0
 18 17  1  1
 19 18  1  0
 20 18  1  0
 20 21  1  0
 22 20  2  0
M  END
$$$$
