DNA.pdb
     RDKit          3D

 22 21  0  0  1  0  0  0  0  0999 V2000
   14.7396  -20.0333   13.3381 N   0  0  0  0  0  0  0  0  0  0  0  0
   14.2478  -18.6746   13.2592 C   0  0  1  0  0  0  0  0  0  0  0  0
   13.5105  -18.4461   11.9589 C   0  0  0  0  0  0  0  0  0  0  0  0
   14.4306  -18.4175   10.7982 C   0  0  0  0  0  0  0  0  0  0  0  0
   15.6442  -18.6509   10.8731 O   0  0  0  0  0  0  0  0  0  0  0  0
   13.3052  -18.4534   14.3784 C   0  0  0  0  0  0  0  0  0  0  0  0
   12.9268  -17.2883   14.6368 O   0  0  0  0  0  0  0  0  0  0  0  0
   13.8993  -18.1107    9.5546 O   0  0  0  0  0  0  0  0  0  0  0  0
   12.1386  -22.1395   15.9587 N   0  0  0  0  0  0  0  0  0  0  0  0
   10.8707  -21.5206   15.9055 C   0  0  0  0  0  0  0  0  0  0  0  0
    9.8588  -22.2336   15.7169 O   0  0  0  0  0  0  0  0  0  0  0  0
   10.7264  -20.0726   16.0680 C   0  0  0  0  0  0  0  0  0  0  0  0
   12.0665  -19.3902   16.3104 C   0  0  2  0  0  0  0  0  0  0  0  0
   12.8629  -19.5755   15.1193 N   0  0  0  0  0  0  0  0  0  0  0  0
   12.7841  -19.8730   17.4937 C   0  0  0  0  0  0  0  0  0  0  0  0
   12.1463  -20.0965   18.5510 O   0  0  0  0  0  0  0  0  0  0  0  0
   15.4591  -21.5658   19.0153 C   0  0  0  0  0  0  0  0  0  0  0  0
   14.9452  -20.1652   18.7513 C   0  0  2  0  0  0  0  0  0  0  0  0
   14.1838  -20.1083   17.5200 N   0  0  0  0  0  0  0  0  0  0  0  0
   16.0934  -19.2383   18.7415 C   0  0  0  0  0  0  0  0  0  0  0  0
   16.8226  -18.9702   19.8826 O   0  0  0  0  0  0  0  0  0  0  0  0
   16.4222  -18.6760   17.6745 O   0  0  0  0  0  0  0  0  0  0  0  0
  2  1  1  6
  3  4  1  0
  3  2  1  0
  4  5  2  0
  6  7  2  0
  6  2  1  0
  8  4  1  0
  9 10  1  0
 10 12  1  0
 11 10  2  0
 13 12  1  6
 13 14  1  0
 13 15  1  0
 14  6  1  0
 15 19  1  0
 16 15  2  0
 18 17  1  6
 19 18  1  0
 20 18  1  0
 20 21  1  0
 22 20  2  0
M  END
$$$$
