DNA.pdb
     RDKit          3D

 22 21  0  0  1  0  0  0  0  0999 V2000
   15.4763  -23.1940   26.4566 N   0  0  0  0  0  0  0  0  0  0  0  0
   15.8384  -21.7956   26.5430 C   0  0  1  0  0  0  0  0  0  0  0  0
   15.2008  -21.0065   25.4216 C   0  0  0  0  0  0  0  0  0  0  0  0
   16.1114  -20.8562   24.2629 C   0  0  0  0  0  0  0  0  0  0  0  0
   16.1090  -21.6094   23.2802 O   0  0  0  0  0  0  0  0  0  0  0  0
   15.3428  -21.2637   27.8320 C   0  0  0  0  0  0  0  0  0  0  0  0
   15.9434  -20.3050   28.3683 O   0  0  0  0  0  0  0  0  0  0  0  0
   17.0203  -19.8089   24.2816 O   0  0  0  0  0  0  0  0  0  0  0  0
   12.0669  -18.5392   29.1861 N   0  0  0  0  0  0  0  0  0  0  0  0
   11.9531  -19.8019   28.5646 C   0  0  0  0  0  0  0  0  0  0  0  0
   11.6817  -19.8509   27.3433 O   0  0  0  0  0  0  0  0  0  0  0  0
   12.1478  -21.0398   29.3219 C   0  0  0  0  0  0  0  0  0  0  0  0
   13.6194  -21.3041   29.6132 C   0  0  2  0  0  0  0  0  0  0  0  0
   14.1997  -21.8624   28.4137 N   0  0  0  0  0  0  0  0  0  0  0  0
   13.8588  -22.1824   30.7619 C   0  0  0  0  0  0  0  0  0  0  0  0
   13.3511  -23.3298   30.7751 O   0  0  0  0  0  0  0  0  0  0  0  0
   15.6523  -23.9493   32.5095 C   0  0  0  0  0  0  0  0  0  0  0  0
   14.9175  -22.7120   32.9836 C   0  0  2  0  0  0  0  0  0  0  0  0
   14.6447  -21.8093   31.8837 N   0  0  0  0  0  0  0  0  0  0  0  0
   15.7149  -22.0716   34.0474 C   0  0  0  0  0  0  0  0  0  0  0  0
   15.6709  -22.5113   35.3552 O   0  0  0  0  0  0  0  0  0  0  0  0
   16.4539  -21.1035   33.7653 O   0  0  0  0  0  0  0  0  0  0  0  0
  2  1  1  6
  3  4  1  0
  3  2  1  0
  4  5  2  0
  6  7  2  0
  6  2  1  0
  8  4  1  0
  9 10  1  0
 10 12  1  0
 11 10  2  0
 13 12  1  6
 13 14  1  0
 13 15  1  0
 14  6  1  0
 15 19  1  0
 16 15  2  0
 18 17  1  6
 19 18  1  0
 20 18  1  0
 20 21  1  0
 22 20  2  0
M  END
$$$$
