DNA.pdb
     RDKit          3D

 22 21  0  0  1  0  0  0  0  0999 V2000
   10.7009  -17.0335   15.7228 N   0  0  0  0  0  0  0  0  0  0  0  0
   11.7496  -17.3205   16.6777 C   0  0  1  0  0  0  0  0  0  0  0  0
   13.0842  -16.8169   16.1756 C   0  0  0  0  0  0  0  0  0  0  0  0
   13.7301  -17.7822   15.2563 C   0  0  0  0  0  0  0  0  0  0  0  0
   13.2880  -18.9147   15.0219 O   0  0  0  0  0  0  0  0  0  0  0  0
   11.4314  -16.6243   17.9441 C   0  0  0  0  0  0  0  0  0  0  0  0
   12.0507  -15.5765   18.2372 O   0  0  0  0  0  0  0  0  0  0  0  0
   14.8997  -17.3927   14.6212 O   0  0  0  0  0  0  0  0  0  0  0  0
    8.9027  -14.7977   21.8719 N   0  0  0  0  0  0  0  0  0  0  0  0
    8.0253  -15.5162   21.0309 C   0  0  0  0  0  0  0  0  0  0  0  0
    6.7943  -15.3065   21.1232 O   0  0  0  0  0  0  0  0  0  0  0  0
    8.5317  -16.4909   20.0627 C   0  0  0  0  0  0  0  0  0  0  0  0
   10.0537  -16.4945   20.0007 C   0  0  2  0  0  0  0  0  0  0  0  0
   10.4309  -17.1726   18.7821 N   0  0  0  0  0  0  0  0  0  0  0  0
   10.7032  -17.1129   21.1601 C   0  0  0  0  0  0  0  0  0  0  0  0
   10.3830  -18.2790   21.4950 O   0  0  0  0  0  0  0  0  0  0  0  0
   13.5500  -16.3480   23.5319 C   0  0  0  0  0  0  0  0  0  0  0  0
   12.2832  -17.0695   23.1194 C   0  0  2  0  0  0  0  0  0  0  0  0
   11.6918  -16.4625   21.9444 N   0  0  0  0  0  0  0  0  0  0  0  0
   11.3563  -17.0836   24.2675 C   0  0  0  0  0  0  0  0  0  0  0  0
   11.6231  -17.8110   25.4100 O   0  0  0  0  0  0  0  0  0  0  0  0
   10.2977  -16.4208   24.2128 O   0  0  0  0  0  0  0  0  0  0  0  0
  2  1  1  6
  3  4  1  0
  3  2  1  0
  4  5  2  0
  6  7  2  0
  6  2  1  0
  8  4  1  0
  9 10  1  0
 10 12  1  0
 11 10  2  0
 13 12  1  1
 13 14  1  0
 13 15  1  0
 14  6  1  0
 15 19  1  0
 16 15  2  0
 18 17  1  1
 19 18  1  0
 20 18  1  0
 20 21  1  0
 22 20  2  0
M  END
$$$$
