DNA.pdb
     RDKit          3D

 22 21  0  0  1  0  0  0  0  0999 V2000
   11.3896  -16.3110   14.7953 N   0  0  0  0  0  0  0  0  0  0  0  0
   11.1357  -15.4600   15.9379 C   0  0  1  0  0  0  0  0  0  0  0  0
    9.7997  -15.7893   16.5651 C   0  0  0  0  0  0  0  0  0  0  0  0
    8.6768  -15.5687   15.6244 C   0  0  0  0  0  0  0  0  0  0  0  0
    8.8211  -15.2025   14.4504 O   0  0  0  0  0  0  0  0  0  0  0  0
   12.1968  -15.6970   16.9418 C   0  0  0  0  0  0  0  0  0  0  0  0
   12.5971  -16.8661   17.1427 O   0  0  0  0  0  0  0  0  0  0  0  0
    7.3879  -15.7855   16.0879 O   0  0  0  0  0  0  0  0  0  0  0  0
   16.2347  -14.9951   19.9075 N   0  0  0  0  0  0  0  0  0  0  0  0
   16.1355  -13.9728   18.9387 C   0  0  0  0  0  0  0  0  0  0  0  0
   17.1345  -13.2505   18.7194 O   0  0  0  0  0  0  0  0  0  0  0  0
   14.8937  -13.7508   18.1953 C   0  0  0  0  0  0  0  0  0  0  0  0
   13.8180  -14.7630   18.5676 C   0  0  2  0  0  0  0  0  0  0  0  0
   12.7237  -14.5850   17.6413 N   0  0  0  0  0  0  0  0  0  0  0  0
   13.3469  -14.6609   19.9518 C   0  0  0  0  0  0  0  0  0  0  0  0
   13.4577  -13.5692   20.5602 O   0  0  0  0  0  0  0  0  0  0  0  0
   10.9366  -16.3124   22.1890 C   0  0  0  0  0  0  0  0  0  0  0  0
   12.2689  -15.6114   22.0187 C   0  0  2  0  0  0  0  0  0  0  0  0
   12.7615  -15.7416   20.6624 N   0  0  0  0  0  0  0  0  0  0  0  0
   13.2155  -16.1554   23.0114 C   0  0  0  0  0  0  0  0  0  0  0  0
   13.0720  -15.9140   24.3630 O   0  0  0  0  0  0  0  0  0  0  0  0
   14.1769  -16.8559   22.6267 O   0  0  0  0  0  0  0  0  0  0  0  0
  2  1  1  6
  3  4  1  0
  3  2  1  0
  4  5  2  0
  6  7  2  0
  6  2  1  0
  8  4  1  0
  9 10  1  0
 10 12  1  0
 11 10  2  0
 13 12  1  6
 13 14  1  0
 13 15  1  0
 14  6  1  0
 15 19  1  0
 16 15  2  0
 18 17  1  6
 19 18  1  0
 20 18  1  0
 20 21  1  0
 22 20  2  0
M  END
$$$$
