DNA.pdb
     RDKit          3D

 22 21  0  0  1  0  0  0  0  0999 V2000
   11.7218  -19.3568   17.8149 N   0  0  0  0  0  0  0  0  0  0  0  0
   13.0680  -18.8292   17.8734 C   0  0  1  0  0  0  0  0  0  0  0  0
   13.2836  -17.7898   16.7965 C   0  0  0  0  0  0  0  0  0  0  0  0
   12.9946  -18.3240   15.4454 C   0  0  0  0  0  0  0  0  0  0  0  0
   11.8519  -18.5035   15.0036 O   0  0  0  0  0  0  0  0  0  0  0  0
   13.2605  -18.1858   19.1921 C   0  0  0  0  0  0  0  0  0  0  0  0
   14.3072  -17.5333   19.4061 O   0  0  0  0  0  0  0  0  0  0  0  0
   14.0689  -18.6415   14.6280 O   0  0  0  0  0  0  0  0  0  0  0  0
   10.6807  -15.2999   23.3539 N   0  0  0  0  0  0  0  0  0  0  0  0
   10.9252  -16.6833   23.2131 C   0  0  0  0  0  0  0  0  0  0  0  0
   11.1304  -17.3673   24.2416 O   0  0  0  0  0  0  0  0  0  0  0  0
   10.9398  -17.3202   21.8948 C   0  0  0  0  0  0  0  0  0  0  0  0
   12.3548  -17.6477   21.4359 C   0  0  2  0  0  0  0  0  0  0  0  0
   12.2462  -18.3326   20.1685 N   0  0  0  0  0  0  0  0  0  0  0  0
   13.1294  -18.4454   22.3911 C   0  0  0  0  0  0  0  0  0  0  0  0
   13.0276  -19.6959   22.3730 O   0  0  0  0  0  0  0  0  0  0  0  0
   15.9044  -19.4228   23.3956 C   0  0  0  0  0  0  0  0  0  0  0  0
   14.8570  -18.6870   24.2061 C   0  0  2  0  0  0  0  0  0  0  0  0
   14.0051  -17.8809   23.3554 N   0  0  0  0  0  0  0  0  0  0  0  0
   15.5412  -17.8812   25.2357 C   0  0  0  0  0  0  0  0  0  0  0  0
   16.3186  -18.4622   26.2175 O   0  0  0  0  0  0  0  0  0  0  0  0
   15.4195  -16.6370   25.2260 O   0  0  0  0  0  0  0  0  0  0  0  0
  2  1  1  1
  3  4  1  0
  3  2  1  0
  4  5  2  0
  6  7  2  0
  6  2  1  0
  8  4  1  0
  9 10  1  0
 10 12  1  0
 11 10  2  0
 13 12  1  1
 13 14  1  0
 13 15  1  0
 14  6  1  0
 15 19  1  0
 16 15  2  0
 18 17  1  6
 19 18  1  0
 20 18  1  0
 20 21  1  0
 22 20  2  0
M  END
$$$$
