DNA.pdb
     RDKit          3D

 22 21  0  0  1  0  0  0  0  0999 V2000
    9.0355  -17.5754   20.1044 N   0  0  0  0  0  0  0  0  0  0  0  0
   10.3508  -17.0856   20.4566 C   0  0  1  0  0  0  0  0  0  0  0  0
   11.1213  -16.6817   19.2197 C   0  0  0  0  0  0  0  0  0  0  0  0
   11.4428  -17.8463   18.3626 C   0  0  0  0  0  0  0  0  0  0  0  0
   11.1350  -19.0133   18.6392 O   0  0  0  0  0  0  0  0  0  0  0  0
   10.1898  -15.8941   21.3193 C   0  0  0  0  0  0  0  0  0  0  0  0
   11.2098  -15.2973   21.7327 O   0  0  0  0  0  0  0  0  0  0  0  0
   12.1296  -17.6140   17.1804 O   0  0  0  0  0  0  0  0  0  0  0  0
    7.4452  -13.2588   19.3628 N   0  0  0  0  0  0  0  0  0  0  0  0
    7.2139  -13.9445   20.5752 C   0  0  0  0  0  0  0  0  0  0  0  0
    6.5914  -15.0304   20.5448 O   0  0  0  0  0  0  0  0  0  0  0  0
    7.6892  -13.4080   21.8520 C   0  0  0  0  0  0  0  0  0  0  0  0
    8.6802  -14.3451   22.5302 C   0  0  2  0  0  0  0  0  0  0  0  0
    8.8794  -15.4702   21.6460 N   0  0  0  0  0  0  0  0  0  0  0  0
    8.2674  -14.7990   23.8613 C   0  0  0  0  0  0  0  0  0  0  0  0
    8.0161  -13.9497   24.7501 O   0  0  0  0  0  0  0  0  0  0  0  0
    6.6989  -17.5873   25.6006 C   0  0  0  0  0  0  0  0  0  0  0  0
    7.8480  -16.6003   25.5692 C   0  0  2  0  0  0  0  0  0  0  0  0
    8.1315  -16.1669   24.2161 N   0  0  0  0  0  0  0  0  0  0  0  0
    9.0201  -17.2244   26.2129 C   0  0  0  0  0  0  0  0  0  0  0  0
    8.9908  -17.6457   27.5272 O   0  0  0  0  0  0  0  0  0  0  0  0
   10.0730  -17.3802   25.5572 O   0  0  0  0  0  0  0  0  0  0  0  0
  2  1  1  6
  3  4  1  0
  3  2  1  0
  4  5  2  0
  6  7  2  0
  6  2  1  0
  8  4  1  0
  9 10  1  0
 10 12  1  0
 11 10  2  0
 13 12  1  6
 13 14  1  0
 13 15  1  0
 14  6  1  0
 15 19  1  0
 16 15  2  0
 18 17  1  6
 19 18  1  0
 20 18  1  0
 20 21  1  0
 22 20  2  0
M  END
$$$$
