DNA.pdb
     RDKit          3D

 22 21  0  0  1  0  0  0  0  0999 V2000
    9.9455  -18.0904   20.9121 N   0  0  0  0  0  0  0  0  0  0  0  0
   11.0123  -17.1738   21.2526 C   0  0  1  0  0  0  0  0  0  0  0  0
   11.8075  -16.7962   20.0231 C   0  0  0  0  0  0  0  0  0  0  0  0
   12.9961  -17.6621   19.8448 C   0  0  0  0  0  0  0  0  0  0  0  0
   13.2949  -18.5905   20.6075 O   0  0  0  0  0  0  0  0  0  0  0  0
   10.4102  -15.9458   21.8178 C   0  0  0  0  0  0  0  0  0  0  0  0
   11.1574  -15.0703   22.3103 O   0  0  0  0  0  0  0  0  0  0  0  0
   13.8223  -17.4169   18.7584 O   0  0  0  0  0  0  0  0  0  0  0  0
    6.9658  -14.8053   19.0994 N   0  0  0  0  0  0  0  0  0  0  0  0
    7.4887  -14.0329   20.1592 C   0  0  0  0  0  0  0  0  0  0  0  0
    8.2610  -13.0846   19.8907 O   0  0  0  0  0  0  0  0  0  0  0  0
    7.1416  -14.3230   21.5518 C   0  0  0  0  0  0  0  0  0  0  0  0
    8.3704  -14.6577   22.3874 C   0  0  2  0  0  0  0  0  0  0  0  0
    9.0022  -15.8056   21.7789 N   0  0  0  0  0  0  0  0  0  0  0  0
    8.0865  -14.9122   23.8027 C   0  0  0  0  0  0  0  0  0  0  0  0
    7.3113  -14.1442   24.4221 O   0  0  0  0  0  0  0  0  0  0  0  0
    6.7985  -16.5855   26.0248 C   0  0  0  0  0  0  0  0  0  0  0  0
    8.2788  -16.2863   25.9032 C   0  0  2  0  0  0  0  0  0  0  0  0
    8.6449  -15.9946   24.5321 N   0  0  0  0  0  0  0  0  0  0  0  0
    9.0348  -17.4284   26.4523 C   0  0  0  0  0  0  0  0  0  0  0  0
    8.9267  -17.8044   27.7762 O   0  0  0  0  0  0  0  0  0  0  0  0
    9.7966  -18.0796   25.7049 O   0  0  0  0  0  0  0  0  0  0  0  0
  2  1  1  6
  3  4  1  0
  3  2  1  0
  4  5  2  0
  6  7  2  0
  6  2  1  0
  8  4  1  0
  9 10  1  0
 10 12  1  0
 11 10  2  0
 13 12  1  6
 13 14  1  0
 13 15  1  0
 14  6  1  0
 15 19  1  0
 16 15  2  0
 18 17  1  6
 19 18  1  0
 20 18  1  0
 20 21  1  0
 22 20  2  0
M  END
$$$$
