HPM.pdb
     RDKit          3D

 26 27  0  0  1  0  0  0  0  0999 V2000
   23.9632  -22.2354  -15.9175 N   0  0  0  0  0  0  0  0  0  0  0  0
   24.7440  -21.1903  -15.3542 C   0  0  1  0  0  0  0  0  0  0  0  0
   23.8550  -19.9721  -15.1803 C   0  0  0  0  0  0  0  0  0  0  0  0
   22.8845  -20.2767  -14.0959 C   0  0  0  0  0  0  0  0  0  0  0  0
   21.6179  -20.8223  -14.2140 C   0  0  0  0  0  0  0  0  0  0  0  0
   21.0497  -20.9467  -13.0067 N   0  0  0  0  0  0  0  0  0  0  0  0
   21.9365  -20.4860  -12.0985 C   0  0  0  0  0  0  0  0  0  0  0  0
   23.0492  -20.0800  -12.7622 N   0  0  0  0  0  0  0  0  0  0  0  0
   25.5011  -21.5063  -14.1446 C   0  0  0  0  0  0  0  0  0  0  0  0
   25.1555  -22.5837  -13.5366 O   0  0  0  0  0  0  0  0  0  0  0  0
   26.5600  -20.7727  -13.5686 N   0  0  0  0  0  0  0  0  0  0  0  0
   27.1505  -19.5104  -13.9524 C   0  0  0  0  0  0  0  0  0  0  0  0
   28.6398  -19.7990  -13.7411 C   0  0  0  0  0  0  0  0  0  0  0  0
   28.6226  -20.4851  -12.3995 C   0  0  0  0  0  0  0  0  0  0  0  0
   27.3083  -21.1910  -12.3904 C   0  0  1  0  0  0  0  0  0  0  0  0
   26.5219  -20.9468  -11.1472 C   0  0  0  0  0  0  0  0  0  0  0  0
   25.4337  -20.3083  -11.1673 O   0  0  0  0  0  0  0  0  0  0  0  0
   27.9219  -19.9671   -4.2194 C   0  0  0  0  0  0  0  0  0  0  0  0
   28.8556  -20.5837   -5.6094 S   0  0  0  0  0  0  0  0  0  0  0  0
   28.0667  -20.5231   -7.1986 C   0  0  0  0  0  0  0  0  0  0  0  0
   26.9730  -21.5066   -7.4505 C   0  0  0  0  0  0  0  0  0  0  0  0
   26.1682  -21.2093   -8.6454 C   0  0  2  0  0  0  0  0  0  0  0  0
   26.9488  -21.4146   -9.8816 N   0  0  0  0  0  0  0  0  0  0  0  0
   25.8227  -19.7658   -8.6921 C   0  0  0  0  0  0  0  0  0  0  0  0
   24.6727  -19.2305   -8.0888 O   0  0  0  0  0  0  0  0  0  0  0  0
   26.5461  -18.9467   -9.2767 O   0  0  0  0  0  0  0  0  0  0  0  0
  2  1  1  1
  3  2  1  0
  4  3  1  0
  5  4  2  0
  6  7  1  0
  6  5  1  0
  7  8  2  0
  8  4  1  0
  9 11  1  0
  9  2  1  0
 10  9  2  0
 11 15  1  0
 12 13  1  0
 12 11  1  0
 13 14  1  0
 14 15  1  0
 15 16  1  1
 16 17  2  0
 19 18  1  0
 19 20  1  0
 20 21  1  0
 22 21  1  1
 22 23  1  0
 23 16  1  0
 24 22  1  0
 25 24  1  0
 26 24  2  0
M  END
$$$$
