HPM.pdb
     RDKit          3D

 26 27  0  0  1  0  0  0  0  0999 V2000
   28.3552  -22.8071  -17.3942 N   0  0  0  0  0  0  0  0  0  0  0  0
   27.3550  -21.8028  -17.2939 C   0  0  1  0  0  0  0  0  0  0  0  0
   26.0948  -22.3167  -17.9664 C   0  0  0  0  0  0  0  0  0  0  0  0
   26.2228  -22.0482  -19.4231 C   0  0  0  0  0  0  0  0  0  0  0  0
   26.2478  -20.8221  -20.0650 C   0  0  0  0  0  0  0  0  0  0  0  0
   26.3771  -20.9912  -21.3880 N   0  0  0  0  0  0  0  0  0  0  0  0
   26.4371  -22.3206  -21.6168 C   0  0  0  0  0  0  0  0  0  0  0  0
   26.3433  -22.9598  -20.4226 N   0  0  0  0  0  0  0  0  0  0  0  0
   27.0947  -21.2567  -15.9634 C   0  0  0  0  0  0  0  0  0  0  0  0
   27.1182  -22.1045  -14.9987 O   0  0  0  0  0  0  0  0  0  0  0  0
   26.8223  -19.9167  -15.6147 N   0  0  0  0  0  0  0  0  0  0  0  0
   26.6063  -18.7522  -16.4433 C   0  0  0  0  0  0  0  0  0  0  0  0
   27.3868  -17.6848  -15.6705 C   0  0  0  0  0  0  0  0  0  0  0  0
   26.9416  -17.9558  -14.2566 C   0  0  0  0  0  0  0  0  0  0  0  0
   26.7018  -19.4283  -14.2472 C   0  0  1  0  0  0  0  0  0  0  0  0
   25.3812  -19.8020  -13.6640 C   0  0  0  0  0  0  0  0  0  0  0  0
   24.4026  -20.1225  -14.3933 O   0  0  0  0  0  0  0  0  0  0  0  0
   21.3701  -21.6861   -6.9547 C   0  0  0  0  0  0  0  0  0  0  0  0
   22.8140  -21.0052   -7.7519 S   0  0  0  0  0  0  0  0  0  0  0  0
   22.7791  -20.8980   -9.5236 C   0  0  0  0  0  0  0  0  0  0  0  0
   24.0119  -20.3937  -10.1966 C   0  0  0  0  0  0  0  0  0  0  0  0
   23.9156  -20.3541  -11.6640 C   0  0  2  0  0  0  0  0  0  0  0  0
   25.1519  -19.8185  -12.2676 N   0  0  0  0  0  0  0  0  0  0  0  0
   22.8758  -19.3830  -12.0896 C   0  0  0  0  0  0  0  0  0  0  0  0
   21.5465  -19.7484  -12.3586 O   0  0  0  0  0  0  0  0  0  0  0  0
   23.1349  -18.1793  -12.2309 O   0  0  0  0  0  0  0  0  0  0  0  0
  2  1  1  1
  3  2  1  0
  4  3  1  0
  5  4  2  0
  6  7  1  0
  6  5  1  0
  7  8  2  0
  8  4  1  0
  9 11  1  0
  9  2  1  0
 10  9  2  0
 11 15  1  0
 12 13  1  0
 12 11  1  0
 13 14  1  0
 14 15  1  0
 15 16  1  6
 16 17  2  0
 19 18  1  0
 19 20  1  0
 20 21  1  0
 22 21  1  1
 22 23  1  0
 23 16  1  0
 24 22  1  0
 25 24  1  0
 26 24  2  0
M  END
$$$$
