HPM.pdb
     RDKit          3D

 26 27  0  0  1  0  0  0  0  0999 V2000
   25.5215  -21.7338  -18.0919 N   0  0  0  0  0  0  0  0  0  0  0  0
   25.0442  -20.9065  -17.0399 C   0  0  1  0  0  0  0  0  0  0  0  0
   23.6905  -21.4319  -16.5974 C   0  0  0  0  0  0  0  0  0  0  0  0
   22.7004  -21.0544  -17.6404 C   0  0  0  0  0  0  0  0  0  0  0  0
   21.9128  -21.8921  -18.4110 C   0  0  0  0  0  0  0  0  0  0  0  0
   21.1435  -21.1749  -19.2414 N   0  0  0  0  0  0  0  0  0  0  0  0
   21.4224  -19.8724  -19.0194 C   0  0  0  0  0  0  0  0  0  0  0  0
   22.3675  -19.8022  -18.0471 N   0  0  0  0  0  0  0  0  0  0  0  0
   25.9486  -20.6763  -15.9150 C   0  0  0  0  0  0  0  0  0  0  0  0
   26.7514  -21.6404  -15.6392 O   0  0  0  0  0  0  0  0  0  0  0  0
   26.0440  -19.5278  -15.1007 N   0  0  0  0  0  0  0  0  0  0  0  0
   25.2942  -18.2922  -15.1219 C   0  0  0  0  0  0  0  0  0  0  0  0
   26.4024  -17.2641  -14.8756 C   0  0  0  0  0  0  0  0  0  0  0  0
   27.1616  -17.9098  -13.7453 C   0  0  0  0  0  0  0  0  0  0  0  0
   26.9926  -19.3690  -14.0062 C   0  0  1  0  0  0  0  0  0  0  0  0
   26.5483  -20.1304  -12.8034 C   0  0  0  0  0  0  0  0  0  0  0  0
   25.3596  -20.5349  -12.6783 O   0  0  0  0  0  0  0  0  0  0  0  0
   32.3442  -22.3597  -10.1560 C   0  0  0  0  0  0  0  0  0  0  0  0
   30.8898  -21.6458   -9.4080 S   0  0  0  0  0  0  0  0  0  0  0  0
   29.3259  -22.0503  -10.1443 C   0  0  0  0  0  0  0  0  0  0  0  0
   28.1206  -21.3614   -9.5970 C   0  0  0  0  0  0  0  0  0  0  0  0
   27.0188  -21.2313  -10.5630 C   0  0  2  0  0  0  0  0  0  0  0  0
   27.4295  -20.4409  -11.7404 N   0  0  0  0  0  0  0  0  0  0  0  0
   25.9105  -20.4323   -9.9813 C   0  0  0  0  0  0  0  0  0  0  0  0
   24.8932  -20.9906   -9.1898 O   0  0  0  0  0  0  0  0  0  0  0  0
   25.8272  -19.2101  -10.1692 O   0  0  0  0  0  0  0  0  0  0  0  0
  2  1  1  6
  3  2  1  0
  4  3  1  0
  5  4  2  0
  6  7  1  0
  6  5  1  0
  7  8  2  0
  8  4  1  0
  9 11  1  0
  9  2  1  0
 10  9  2  0
 11 15  1  0
 12 13  1  0
 12 11  1  0
 13 14  1  0
 14 15  1  0
 15 16  1  1
 16 17  2  0
 19 18  1  0
 19 20  1  0
 20 21  1  0
 22 21  1  1
 22 23  1  0
 23 16  1  0
 24 22  1  0
 25 24  1  0
 26 24  2  0
M  END
$$$$
