HPM.pdb
     RDKit          3D

 26 27  0  0  1  0  0  0  0  0999 V2000
   25.4468  -30.5628  -19.9449 N   0  0  0  0  0  0  0  0  0  0  0  0
   26.1923  -30.4430  -18.7411 C   0  0  1  0  0  0  0  0  0  0  0  0
   25.9331  -29.0667  -18.1553 C   0  0  0  0  0  0  0  0  0  0  0  0
   26.5498  -28.0678  -19.0677 C   0  0  0  0  0  0  0  0  0  0  0  0
   25.9513  -27.3823  -20.1106 C   0  0  0  0  0  0  0  0  0  0  0  0
   26.8354  -26.5654  -20.6995 N   0  0  0  0  0  0  0  0  0  0  0  0
   28.0095  -26.7117  -20.0487 C   0  0  0  0  0  0  0  0  0  0  0  0
   27.8333  -27.6241  -19.0587 N   0  0  0  0  0  0  0  0  0  0  0  0
   26.0334  -31.5090  -17.7539 C   0  0  0  0  0  0  0  0  0  0  0  0
   24.9469  -32.1889  -17.8381 O   0  0  0  0  0  0  0  0  0  0  0  0
   26.9264  -31.8777  -16.7253 N   0  0  0  0  0  0  0  0  0  0  0  0
   28.1680  -31.2761  -16.2942 C   0  0  0  0  0  0  0  0  0  0  0  0
   29.0308  -32.5162  -16.0420 C   0  0  0  0  0  0  0  0  0  0  0  0
   28.0726  -33.3958  -15.2813 C   0  0  0  0  0  0  0  0  0  0  0  0
   26.7421  -33.0236  -15.8443 C   0  0  1  0  0  0  0  0  0  0  0  0
   25.7248  -32.7284  -14.7946 C   0  0  0  0  0  0  0  0  0  0  0  0
   25.6373  -31.5889  -14.2597 O   0  0  0  0  0  0  0  0  0  0  0  0
   18.4444  -32.8174  -12.1622 C   0  0  0  0  0  0  0  0  0  0  0  0
   19.7082  -33.1091  -13.3876 S   0  0  0  0  0  0  0  0  0  0  0  0
   21.3830  -33.2100  -12.8074 C   0  0  0  0  0  0  0  0  0  0  0  0
   22.4513  -33.3455  -13.8406 C   0  0  0  0  0  0  0  0  0  0  0  0
   23.8098  -33.4381  -13.2840 C   0  0  2  0  0  0  0  0  0  0  0  0
   24.8049  -33.7039  -14.3416 N   0  0  0  0  0  0  0  0  0  0  0  0
   23.9268  -34.6223  -12.3956 C   0  0  0  0  0  0  0  0  0  0  0  0
   24.6101  -35.7936  -12.7616 O   0  0  0  0  0  0  0  0  0  0  0  0
   23.4174  -34.6354  -11.2658 O   0  0  0  0  0  0  0  0  0  0  0  0
  2  1  1  6
  3  2  1  0
  4  3  1  0
  5  4  2  0
  6  7  1  0
  6  5  1  0
  7  8  2  0
  8  4  1  0
  9 11  1  0
  9  2  1  0
 10  9  2  0
 11 15  1  0
 12 13  1  0
 12 11  1  0
 13 14  1  0
 14 15  1  0
 15 16  1  1
 16 17  2  0
 19 18  1  0
 19 20  1  0
 20 21  1  0
 22 21  1  6
 22 23  1  0
 23 16  1  0
 24 22  1  0
 25 24  1  0
 26 24  2  0
M  END
$$$$
