HPM.pdb
     RDKit          3D

 26 27  0  0  1  0  0  0  0  0999 V2000
   23.6052  -20.5866  -12.6462 N   0  0  0  0  0  0  0  0  0  0  0  0
   25.0078  -20.4467  -12.8261 C   0  0  1  0  0  0  0  0  0  0  0  0
   25.7069  -21.4212  -11.8955 C   0  0  0  0  0  0  0  0  0  0  0  0
   25.5607  -20.9014  -10.5102 C   0  0  0  0  0  0  0  0  0  0  0  0
   26.3026  -19.9121   -9.8883 C   0  0  0  0  0  0  0  0  0  0  0  0
   25.8684  -19.7226   -8.6348 N   0  0  0  0  0  0  0  0  0  0  0  0
   24.8465  -20.5816   -8.4318 C   0  0  0  0  0  0  0  0  0  0  0  0
   24.6618  -21.2958   -9.5717 N   0  0  0  0  0  0  0  0  0  0  0  0
   25.5116  -20.5236  -14.1959 C   0  0  0  0  0  0  0  0  0  0  0  0
   24.7142  -21.0507  -15.0541 O   0  0  0  0  0  0  0  0  0  0  0  0
   26.7624  -20.0904  -14.6849 N   0  0  0  0  0  0  0  0  0  0  0  0
   27.8907  -19.5028  -13.9986 C   0  0  0  0  0  0  0  0  0  0  0  0
   28.3151  -18.4179  -14.9928 C   0  0  0  0  0  0  0  0  0  0  0  0
   28.2683  -19.1734  -16.2958 C   0  0  0  0  0  0  0  0  0  0  0  0
   27.1722  -20.1624  -16.0813 C   0  0  1  0  0  0  0  0  0  0  0  0
   27.5601  -21.5543  -16.4499 C   0  0  0  0  0  0  0  0  0  0  0  0
   27.9119  -22.3961  -15.5782 O   0  0  0  0  0  0  0  0  0  0  0  0
   25.0430  -26.2200  -14.8395 C   0  0  0  0  0  0  0  0  0  0  0  0
   25.6668  -25.4330  -16.3146 S   0  0  0  0  0  0  0  0  0  0  0  0
   25.0103  -23.8318  -16.7108 C   0  0  0  0  0  0  0  0  0  0  0  0
   25.4540  -23.2163  -17.9958 C   0  0  0  0  0  0  0  0  0  0  0  0
   26.9086  -23.2669  -18.2094 C   0  0  2  0  0  0  0  0  0  0  0  0
   27.5555  -22.0076  -17.7906 N   0  0  0  0  0  0  0  0  0  0  0  0
   27.2173  -23.3469  -19.6598 C   0  0  0  0  0  0  0  0  0  0  0  0
   26.7121  -22.4387  -20.6047 O   0  0  0  0  0  0  0  0  0  0  0  0
   27.9501  -24.2361  -20.1164 O   0  0  0  0  0  0  0  0  0  0  0  0
  2  1  1  6
  3  2  1  0
  4  3  1  0
  5  4  2  0
  6  7  1  0
  6  5  1  0
  7  8  2  0
  8  4  1  0
  9 11  1  0
  9  2  1  0
 10  9  2  0
 11 15  1  0
 12 13  1  0
 12 11  1  0
 13 14  1  0
 14 15  1  0
 15 16  1  1
 16 17  2  0
 19 18  1  0
 19 20  1  0
 20 21  1  0
 22 21  1  6
 22 23  1  0
 23 16  1  0
 24 22  1  0
 25 24  1  0
 26 24  2  0
M  END
$$$$
