HPM.pdb
     RDKit          3D

 26 27  0  0  1  0  0  0  0  0999 V2000
   26.9054  -23.9812  -16.5032 N   0  0  0  0  0  0  0  0  0  0  0  0
   25.9715  -23.2240  -15.7458 C   0  0  1  0  0  0  0  0  0  0  0  0
   24.8996  -24.1673  -15.2305 C   0  0  0  0  0  0  0  0  0  0  0  0
   23.7773  -24.1457  -16.2054 C   0  0  0  0  0  0  0  0  0  0  0  0
   23.8127  -24.4591  -17.5532 C   0  0  0  0  0  0  0  0  0  0  0  0
   22.5954  -24.3204  -18.0960 N   0  0  0  0  0  0  0  0  0  0  0  0
   21.7627  -23.9181  -17.1120 C   0  0  0  0  0  0  0  0  0  0  0  0
   22.4825  -23.8130  -15.9656 N   0  0  0  0  0  0  0  0  0  0  0  0
   26.5122  -22.3653  -14.6938 C   0  0  0  0  0  0  0  0  0  0  0  0
   27.4915  -22.8557  -14.0227 O   0  0  0  0  0  0  0  0  0  0  0  0
   26.0886  -21.0694  -14.3298 N   0  0  0  0  0  0  0  0  0  0  0  0
   25.0231  -20.2443  -14.8527 C   0  0  0  0  0  0  0  0  0  0  0  0
   25.6956  -18.8686  -14.8825 C   0  0  0  0  0  0  0  0  0  0  0  0
   26.3648  -18.8351  -13.5327 C   0  0  0  0  0  0  0  0  0  0  0  0
   26.6997  -20.2666  -13.2786 C   0  0  1  0  0  0  0  0  0  0  0  0
   26.2679  -20.7379  -11.9313 C   0  0  0  0  0  0  0  0  0  0  0  0
   25.2508  -21.4695  -11.7809 O   0  0  0  0  0  0  0  0  0  0  0  0
   29.2104  -20.0354   -5.3173 C   0  0  0  0  0  0  0  0  0  0  0  0
   27.5732  -19.4133   -5.6586 S   0  0  0  0  0  0  0  0  0  0  0  0
   26.6809  -20.1830   -6.9863 C   0  0  0  0  0  0  0  0  0  0  0  0
   27.2143  -19.9851   -8.3659 C   0  0  0  0  0  0  0  0  0  0  0  0
   26.4833  -20.7333   -9.4002 C   0  0  2  0  0  0  0  0  0  0  0  0
   26.9702  -20.3935  -10.7519 N   0  0  0  0  0  0  0  0  0  0  0  0
   25.0584  -20.3161   -9.4325 C   0  0  0  0  0  0  0  0  0  0  0  0
   24.0532  -20.9547   -8.6876 O   0  0  0  0  0  0  0  0  0  0  0  0
   24.6790  -19.3658  -10.1316 O   0  0  0  0  0  0  0  0  0  0  0  0
  2  1  1  1
  3  2  1  0
  4  3  1  0
  5  4  2  0
  6  7  1  0
  6  5  1  0
  7  8  2  0
  8  4  1  0
  9 11  1  0
  9  2  1  0
 10  9  2  0
 11 15  1  0
 12 13  1  0
 12 11  1  0
 13 14  1  0
 14 15  1  0
 15 16  1  1
 16 17  2  0
 19 18  1  0
 19 20  1  0
 20 21  1  0
 22 21  1  1
 22 23  1  0
 23 16  1  0
 24 22  1  0
 25 24  1  0
 26 24  2  0
M  END
$$$$
