HPM.pdb
     RDKit          3D

 26 27  0  0  1  0  0  0  0  0999 V2000
   22.5202  -21.6032  -13.9486 N   0  0  0  0  0  0  0  0  0  0  0  0
   23.4429  -20.6610  -13.4195 C   0  0  1  0  0  0  0  0  0  0  0  0
   22.6750  -19.4126  -13.0242 C   0  0  0  0  0  0  0  0  0  0  0  0
   22.2604  -18.7262  -14.2762 C   0  0  0  0  0  0  0  0  0  0  0  0
   23.0681  -18.1304  -15.2294 C   0  0  0  0  0  0  0  0  0  0  0  0
   22.3223  -17.6175  -16.2176 N   0  0  0  0  0  0  0  0  0  0  0  0
   21.0309  -17.8738  -15.9175 C   0  0  0  0  0  0  0  0  0  0  0  0
   20.9961  -18.5468  -14.7388 N   0  0  0  0  0  0  0  0  0  0  0  0
   24.3328  -21.1284  -12.3584 C   0  0  0  0  0  0  0  0  0  0  0  0
   23.7728  -21.7980  -11.4161 O   0  0  0  0  0  0  0  0  0  0  0  0
   25.7258  -20.9325  -12.2468 N   0  0  0  0  0  0  0  0  0  0  0  0
   26.6469  -20.2087  -13.0936 C   0  0  0  0  0  0  0  0  0  0  0  0
   27.8491  -21.1575  -13.1096 C   0  0  0  0  0  0  0  0  0  0  0  0
   27.9632  -21.5179  -11.6508 C   0  0  0  0  0  0  0  0  0  0  0  0
   26.5509  -21.4693  -11.1725 C   0  0  1  0  0  0  0  0  0  0  0  0
   26.3834  -20.6707   -9.9243 C   0  0  0  0  0  0  0  0  0  0  0  0
   25.9715  -19.4783   -9.9520 O   0  0  0  0  0  0  0  0  0  0  0  0
   29.8140  -21.5267   -3.7915 C   0  0  0  0  0  0  0  0  0  0  0  0
   28.0789  -21.1420   -3.6311 S   0  0  0  0  0  0  0  0  0  0  0  0
   27.2999  -20.3481   -5.0148 C   0  0  0  0  0  0  0  0  0  0  0  0
   27.1338  -21.1591   -6.2564 C   0  0  0  0  0  0  0  0  0  0  0  0
   26.6677  -20.3837   -7.4164 C   0  0  2  0  0  0  0  0  0  0  0  0
   26.6751  -21.2018   -8.6453 N   0  0  0  0  0  0  0  0  0  0  0  0
   27.6220  -19.2888   -7.7258 C   0  0  0  0  0  0  0  0  0  0  0  0
   27.5117  -17.9971   -7.1852 O   0  0  0  0  0  0  0  0  0  0  0  0
   28.5811  -19.4645   -8.4907 O   0  0  0  0  0  0  0  0  0  0  0  0
  2  1  1  1
  3  2  1  0
  4  3  1  0
  5  4  2  0
  6  7  1  0
  6  5  1  0
  7  8  2  0
  8  4  1  0
  9 11  1  0
  9  2  1  0
 10  9  2  0
 11 15  1  0
 12 13  1  0
 12 11  1  0
 13 14  1  0
 14 15  1  0
 15 16  1  1
 16 17  2  0
 19 18  1  0
 19 20  1  0
 20 21  1  0
 22 21  1  1
 22 23  1  0
 23 16  1  0
 24 22  1  0
 25 24  1  0
 26 24  2  0
M  END
$$$$
