HPM.pdb
     RDKit          3D

 26 27  0  0  1  0  0  0  0  0999 V2000
   25.3194  -19.0493  -18.3636 N   0  0  0  0  0  0  0  0  0  0  0  0
   25.6470  -18.4559  -17.1147 C   0  0  1  0  0  0  0  0  0  0  0  0
   24.6654  -17.3283  -16.8511 C   0  0  0  0  0  0  0  0  0  0  0  0
   24.9419  -16.2529  -17.8398 C   0  0  0  0  0  0  0  0  0  0  0  0
   26.1642  -15.8734  -18.3669 C   0  0  0  0  0  0  0  0  0  0  0  0
   26.0049  -14.8623  -19.2319 N   0  0  0  0  0  0  0  0  0  0  0  0
   24.6857  -14.5773  -19.2747 C   0  0  0  0  0  0  0  0  0  0  0  0
   24.0428  -15.4228  -18.4289 N   0  0  0  0  0  0  0  0  0  0  0  0
   25.7863  -19.3540  -15.9700 C   0  0  0  0  0  0  0  0  0  0  0  0
   24.8524  -20.2244  -15.8279 O   0  0  0  0  0  0  0  0  0  0  0  0
   26.8185  -19.3782  -15.0082 N   0  0  0  0  0  0  0  0  0  0  0  0
   27.9739  -18.5254  -14.8436 C   0  0  0  0  0  0  0  0  0  0  0  0
   29.0539  -19.5495  -14.4824 C   0  0  0  0  0  0  0  0  0  0  0  0
   28.3319  -20.3982  -13.4678 C   0  0  0  0  0  0  0  0  0  0  0  0
   26.9121  -20.3458  -13.9227 C   0  0  1  0  0  0  0  0  0  0  0  0
   25.9590  -20.0083  -12.8266 C   0  0  0  0  0  0  0  0  0  0  0  0
   25.6733  -18.8124  -12.5429 O   0  0  0  0  0  0  0  0  0  0  0  0
   19.8800  -18.9795   -9.9994 C   0  0  0  0  0  0  0  0  0  0  0  0
   20.5042  -20.3820  -10.9090 S   0  0  0  0  0  0  0  0  0  0  0  0
   21.9771  -21.1534  -10.2866 C   0  0  0  0  0  0  0  0  0  0  0  0
   23.0598  -21.4416  -11.2723 C   0  0  0  0  0  0  0  0  0  0  0  0
   24.3031  -20.6948  -11.0266 C   0  0  2  0  0  0  0  0  0  0  0  0
   25.3243  -21.0044  -12.0469 N   0  0  0  0  0  0  0  0  0  0  0  0
   24.9353  -21.1425   -9.7596 C   0  0  0  0  0  0  0  0  0  0  0  0
   24.5956  -20.6156   -8.5027 O   0  0  0  0  0  0  0  0  0  0  0  0
   25.8105  -22.0200   -9.7490 O   0  0  0  0  0  0  0  0  0  0  0  0
  2  1  1  6
  3  2  1  0
  4  3  1  0
  5  4  2  0
  6  7  1  0
  6  5  1  0
  7  8  2  0
  8  4  1  0
  9 11  1  0
  9  2  1  0
 10  9  2  0
 11 15  1  0
 12 13  1  0
 12 11  1  0
 13 14  1  0
 14 15  1  0
 15 16  1  1
 16 17  2  0
 19 18  1  0
 19 20  1  0
 20 21  1  0
 22 21  1  6
 22 23  1  0
 23 16  1  0
 24 22  1  0
 25 24  1  0
 26 24  2  0
M  END
$$$$
