HPM.pdb
     RDKit          3D

 26 27  0  0  1  0  0  0  0  0999 V2000
   14.1672   -9.2390  -12.2801 N   0  0  0  0  0  0  0  0  0  0  0  0
   14.8405   -8.8794  -11.0816 C   0  0  1  0  0  0  0  0  0  0  0  0
   15.5139  -10.1198  -10.5229 C   0  0  0  0  0  0  0  0  0  0  0  0
   14.4492  -11.1167  -10.2347 C   0  0  0  0  0  0  0  0  0  0  0  0
   13.3719  -10.9888   -9.3750 C   0  0  0  0  0  0  0  0  0  0  0  0
   12.6307  -12.1052   -9.3874 N   0  0  0  0  0  0  0  0  0  0  0  0
   13.2159  -12.9635  -10.2501 C   0  0  0  0  0  0  0  0  0  0  0  0
   14.3193  -12.3611  -10.7630 N   0  0  0  0  0  0  0  0  0  0  0  0
   15.7463   -7.7342  -11.1479 C   0  0  0  0  0  0  0  0  0  0  0  0
   16.4271   -7.6243  -12.2315 O   0  0  0  0  0  0  0  0  0  0  0  0
   15.9605   -6.7409  -10.1687 N   0  0  0  0  0  0  0  0  0  0  0  0
   15.4777   -6.6367   -8.8102 C   0  0  0  0  0  0  0  0  0  0  0  0
   15.1330   -5.1467   -8.7275 C   0  0  0  0  0  0  0  0  0  0  0  0
   16.3469   -4.5244   -9.3679 C   0  0  0  0  0  0  0  0  0  0  0  0
   16.7705   -5.5464  -10.3688 C   0  0  1  0  0  0  0  0  0  0  0  0
   18.2239   -5.8713  -10.2934 C   0  0  0  0  0  0  0  0  0  0  0  0
   18.6709   -6.7179   -9.4714 O   0  0  0  0  0  0  0  0  0  0  0  0
   22.9002  -10.1332  -14.0054 C   0  0  0  0  0  0  0  0  0  0  0  0
   21.3754   -9.3402  -13.5255 S   0  0  0  0  0  0  0  0  0  0  0  0
   21.5044   -7.7373  -12.7735 C   0  0  0  0  0  0  0  0  0  0  0  0
   20.2601   -7.1637  -12.1821 C   0  0  0  0  0  0  0  0  0  0  0  0
   20.4661   -5.8835  -11.4874 C   0  0  2  0  0  0  0  0  0  0  0  0
   19.1788   -5.2524  -11.1349 N   0  0  0  0  0  0  0  0  0  0  0  0
   21.0965   -4.8946  -12.3983 C   0  0  0  0  0  0  0  0  0  0  0  0
   20.3586   -4.0126  -13.2049 O   0  0  0  0  0  0  0  0  0  0  0  0
   22.3283   -4.7970  -12.4933 O   0  0  0  0  0  0  0  0  0  0  0  0
  2  1  1  6
  3  2  1  0
  4  3  1  0
  5  4  2  0
  6  7  1  0
  6  5  1  0
  7  8  2  0
  8  4  1  0
  9 11  1  0
  9  2  1  0
 10  9  2  0
 11 15  1  0
 12 13  1  0
 12 11  1  0
 13 14  1  0
 14 15  1  0
 15 16  1  1
 16 17  2  0
 19 18  1  0
 19 20  1  0
 20 21  1  0
 22 21  1  6
 22 23  1  0
 23 16  1  0
 24 22  1  0
 25 24  1  0
 26 24  2  0
M  END
$$$$
