HPM.pdb
     RDKit          3D

 26 27  0  0  1  0  0  0  0  0999 V2000
   19.8077  -10.9163  -15.1205 N   0  0  0  0  0  0  0  0  0  0  0  0
   19.2656   -9.6029  -15.1056 C   0  0  1  0  0  0  0  0  0  0  0  0
   17.8737   -9.6551  -15.7092 C   0  0  0  0  0  0  0  0  0  0  0  0
   18.0173  -10.0605  -17.1324 C   0  0  0  0  0  0  0  0  0  0  0  0
   17.4365  -11.1409  -17.7737 C   0  0  0  0  0  0  0  0  0  0  0  0
   17.8059  -11.1722  -19.0614 N   0  0  0  0  0  0  0  0  0  0  0  0
   18.6251  -10.1187  -19.2676 C   0  0  0  0  0  0  0  0  0  0  0  0
   18.7517   -9.4456  -18.0953 N   0  0  0  0  0  0  0  0  0  0  0  0
   19.2950   -8.8879  -13.8311 C   0  0  0  0  0  0  0  0  0  0  0  0
   18.8757   -9.5480  -12.8121 O   0  0  0  0  0  0  0  0  0  0  0  0
   19.7267   -7.5665  -13.5886 N   0  0  0  0  0  0  0  0  0  0  0  0
   20.2571   -6.5678  -14.4889 C   0  0  0  0  0  0  0  0  0  0  0  0
   21.3809   -5.9652  -13.6406 C   0  0  0  0  0  0  0  0  0  0  0  0
   20.6915   -5.7939  -12.3116 C   0  0  0  0  0  0  0  0  0  0  0  0
   19.7153   -6.9216  -12.2820 C   0  0  1  0  0  0  0  0  0  0  0  0
   18.3357   -6.4913  -11.9140 C   0  0  0  0  0  0  0  0  0  0  0  0
   17.4704   -6.2215  -12.7920 O   0  0  0  0  0  0  0  0  0  0  0  0
   12.6050   -6.9994   -6.4097 C   0  0  0  0  0  0  0  0  0  0  0  0
   14.2419   -7.3806   -7.0091 S   0  0  0  0  0  0  0  0  0  0  0  0
   14.8183   -6.4610   -8.4141 C   0  0  0  0  0  0  0  0  0  0  0  0
   16.1357   -6.8594   -8.9910 C   0  0  0  0  0  0  0  0  0  0  0  0
   16.5228   -6.0866  -10.1813 C   0  0  2  0  0  0  0  0  0  0  0  0
   17.9210   -6.3619  -10.5671 N   0  0  0  0  0  0  0  0  0  0  0  0
   16.5295   -4.6332   -9.8765 C   0  0  0  0  0  0  0  0  0  0  0  0
   15.3869   -3.8219   -9.9737 O   0  0  0  0  0  0  0  0  0  0  0  0
   17.5633   -4.0536   -9.5143 O   0  0  0  0  0  0  0  0  0  0  0  0
  2  1  1  1
  3  2  1  0
  4  3  1  0
  5  4  2  0
  6  7  1  0
  6  5  1  0
  7  8  2  0
  8  4  1  0
  9 11  1  0
  9  2  1  0
 10  9  2  0
 11 15  1  0
 12 13  1  0
 12 11  1  0
 13 14  1  0
 14 15  1  0
 15 16  1  6
 16 17  2  0
 19 18  1  0
 19 20  1  0
 20 21  1  0
 22 21  1  1
 22 23  1  0
 23 16  1  0
 24 22  1  0
 25 24  1  0
 26 24  2  0
M  END
$$$$
