HPM.pdb
     RDKit          3D

 26 27  0  0  1  0  0  0  0  0999 V2000
   24.0644  -21.1503  -15.8977 N   0  0  0  0  0  0  0  0  0  0  0  0
   24.7776  -20.2285  -15.0849 C   0  0  1  0  0  0  0  0  0  0  0  0
   23.9429  -18.9678  -14.9495 C   0  0  0  0  0  0  0  0  0  0  0  0
   23.8682  -18.3333  -16.2920 C   0  0  0  0  0  0  0  0  0  0  0  0
   24.8724  -17.6753  -16.9809 C   0  0  0  0  0  0  0  0  0  0  0  0
   24.4183  -17.2412  -18.1646 N   0  0  0  0  0  0  0  0  0  0  0  0
   23.1227  -17.6110  -18.2553 C   0  0  0  0  0  0  0  0  0  0  0  0
   22.7914  -18.2737  -17.1176 N   0  0  0  0  0  0  0  0  0  0  0  0
   25.2626  -20.7181  -13.7959 C   0  0  0  0  0  0  0  0  0  0  0  0
   24.3908  -21.3089  -13.0605 O   0  0  0  0  0  0  0  0  0  0  0  0
   26.5669  -20.6193  -13.2665 N   0  0  0  0  0  0  0  0  0  0  0  0
   27.7683  -20.0384  -13.8220 C   0  0  0  0  0  0  0  0  0  0  0  0
   28.8200  -21.0732  -13.4110 C   0  0  0  0  0  0  0  0  0  0  0  0
   28.4473  -21.3211  -11.9721 C   0  0  0  0  0  0  0  0  0  0  0  0
   26.9681  -21.1274  -11.9611 C   0  0  1  0  0  0  0  0  0  0  0  0
   26.5053  -20.2194  -10.8725 C   0  0  0  0  0  0  0  0  0  0  0  0
   26.4185  -18.9722  -11.0433 O   0  0  0  0  0  0  0  0  0  0  0  0
   21.8109  -22.3846   -7.3097 C   0  0  0  0  0  0  0  0  0  0  0  0
   21.7346  -20.8587   -8.2315 S   0  0  0  0  0  0  0  0  0  0  0  0
   23.2732  -20.1970   -8.8203 C   0  0  0  0  0  0  0  0  0  0  0  0
   24.4443  -20.2819   -7.8993 C   0  0  0  0  0  0  0  0  0  0  0  0
   25.7058  -19.8156   -8.4954 C   0  0  2  0  0  0  0  0  0  0  0  0
   26.1391  -20.7022   -9.5935 N   0  0  0  0  0  0  0  0  0  0  0  0
   26.8136  -19.9190   -7.5118 C   0  0  0  0  0  0  0  0  0  0  0  0
   27.0741  -18.9376   -6.5413 O   0  0  0  0  0  0  0  0  0  0  0  0
   27.5772  -20.8950   -7.4988 O   0  0  0  0  0  0  0  0  0  0  0  0
  2  1  1  1
  3  2  1  0
  4  3  1  0
  5  4  2  0
  6  7  1  0
  6  5  1  0
  7  8  2  0
  8  4  1  0
  9 11  1  0
  9  2  1  0
 10  9  2  0
 11 15  1  0
 12 13  1  0
 12 11  1  0
 13 14  1  0
 14 15  1  0
 15 16  1  1
 16 17  2  0
 19 18  1  0
 19 20  1  0
 20 21  1  0
 22 21  1  1
 22 23  1  0
 23 16  1  0
 24 22  1  0
 25 24  1  0
 26 24  2  0
M  END
$$$$
