QAH.pdb
     RDKit          3D

 25 25  0  0  1  0  0  0  0  0999 V2000
   12.4327  -18.3727   12.7556 N   0  0  0  0  0  0  0  0  0  0  0  0
   13.1406  -17.2079   13.0838 C   0  0  0  0  0  0  0  0  0  0  0  0
   13.7404  -16.5741   12.1960 O   0  0  0  0  0  0  0  0  0  0  0  0
   13.1704  -16.7403   14.4792 C   0  0  0  0  0  0  0  0  0  0  0  0
   12.4093  -17.7106   15.3379 C   0  0  0  0  0  0  0  0  0  0  0  0
   11.6195  -17.0149   16.4266 C   0  0  2  0  0  0  0  0  0  0  0  0
   10.9960  -15.8227   15.9362 N   0  0  0  0  0  0  0  0  0  0  0  0
   12.6009  -16.7059   17.5275 C   0  0  0  0  0  0  0  0  0  0  0  0
   13.2931  -17.6275   18.0311 O   0  0  0  0  0  0  0  0  0  0  0  0
   14.3317  -13.8349   18.9118 C   0  0  0  0  0  0  0  0  0  0  0  0
   13.6220  -15.1500   19.1283 C   0  0  2  0  0  0  0  0  0  0  0  0
   12.7608  -15.3774   18.0130 N   0  0  0  0  0  0  0  0  0  0  0  0
   12.9258  -15.2069   20.4331 C   0  0  0  0  0  0  0  0  0  0  0  0
   13.5946  -15.0330   21.4833 O   0  0  0  0  0  0  0  0  0  0  0  0
   11.5360  -15.4498   20.5406 N   0  0  0  0  0  0  0  0  0  0  0  0
   10.8515  -15.6412   21.8119 C   0  0  1  0  0  0  0  0  0  0  0  0
   10.0372  -14.4169   22.0606 C   0  0  0  0  0  0  0  0  0  0  0  0
    9.1955  -14.0201   20.9285 C   0  0  0  0  0  0  0  0  0  0  0  0
    9.2436  -14.6135   19.6789 C   0  0  0  0  0  0  0  0  0  0  0  0
    8.3342  -13.9808   18.9184 N   0  0  0  0  0  0  0  0  0  0  0  0
    7.7333  -13.0255   19.6534 C   0  0  0  0  0  0  0  0  0  0  0  0
    8.2573  -13.0452   20.8860 N   0  0  0  0  0  0  0  0  0  0  0  0
   10.1239  -16.9076   21.8701 C   0  0  0  0  0  0  0  0  0  0  0  0
    9.5172  -17.2336   22.9003 O   0  0  0  0  0  0  0  0  0  0  0  0
   10.1046  -17.7567   20.7745 O   0  0  0  0  0  0  0  0  0  0  0  0
  2  1  1  0
  3  2  2  0
  4  2  1  0
  5  4  1  0
  6  8  1  0
  6  5  1  0
  6  7  1  6
  8  9  2  0
 11 10  1  6
 12 11  1  0
 12  8  1  0
 13 15  1  0
 13 11  1  0
 14 13  2  0
 16 17  1  6
 16 15  1  0
 17 18  1  0
 18 22  1  0
 19 20  1  0
 19 18  2  0
 20 21  1  0
 21 22  2  0
 23 16  1  0
 23 25  1  0
 24 23  2  0
M  END
$$$$
