QAH.pdb
     RDKit          3D

 25 25  0  0  1  0  0  0  0  0999 V2000
    9.4444  -18.8806   16.9549 N   0  0  0  0  0  0  0  0  0  0  0  0
    8.2033  -18.6506   17.5652 C   0  0  0  0  0  0  0  0  0  0  0  0
    7.1720  -18.5849   16.8711 O   0  0  0  0  0  0  0  0  0  0  0  0
    8.1270  -18.4877   19.0262 C   0  0  0  0  0  0  0  0  0  0  0  0
    9.5008  -18.6571   19.6109 C   0  0  0  0  0  0  0  0  0  0  0  0
    9.5143  -18.4517   21.1111 C   0  0  2  0  0  0  0  0  0  0  0  0
    8.3542  -19.0244   21.7251 N   0  0  0  0  0  0  0  0  0  0  0  0
    9.5715  -16.9623   21.3324 C   0  0  0  0  0  0  0  0  0  0  0  0
   10.5566  -16.3011   20.9150 O   0  0  0  0  0  0  0  0  0  0  0  0
    7.2642  -14.2664   21.9209 C   0  0  0  0  0  0  0  0  0  0  0  0
    8.6197  -14.8713   22.1973 C   0  0  2  0  0  0  0  0  0  0  0  0
    8.5210  -16.2831   22.0116 N   0  0  0  0  0  0  0  0  0  0  0  0
    9.1491  -14.4859   23.5245 C   0  0  0  0  0  0  0  0  0  0  0  0
    9.1211  -13.2741   23.8581 O   0  0  0  0  0  0  0  0  0  0  0  0
    9.6851  -15.4316   24.4304 N   0  0  0  0  0  0  0  0  0  0  0  0
    9.4115  -15.4161   25.8609 C   0  0  1  0  0  0  0  0  0  0  0  0
    7.9295  -15.4389   26.0245 C   0  0  0  0  0  0  0  0  0  0  0  0
    7.3243  -14.1115   26.1643 C   0  0  0  0  0  0  0  0  0  0  0  0
    8.0456  -12.9324   26.2373 C   0  0  0  0  0  0  0  0  0  0  0  0
    7.1478  -11.9404   26.3620 N   0  0  0  0  0  0  0  0  0  0  0  0
    5.9080  -12.4666   26.3680 C   0  0  0  0  0  0  0  0  0  0  0  0
    6.0103  -13.7967   26.2471 N   0  0  0  0  0  0  0  0  0  0  0  0
   10.1437  -16.4559   26.5816 C   0  0  0  0  0  0  0  0  0  0  0  0
   10.3350  -16.3547   27.8018 O   0  0  0  0  0  0  0  0  0  0  0  0
   10.6313  -17.5654   25.9086 O   0  0  0  0  0  0  0  0  0  0  0  0
  2  1  1  0
  3  2  2  0
  4  2  1  0
  5  4  1  0
  6  8  1  0
  6  5  1  0
  6  7  1  1
  8  9  2  0
 11 10  1  1
 12 11  1  0
 12  8  1  0
 13 15  1  0
 13 11  1  0
 14 13  2  0
 16 17  1  6
 16 15  1  0
 17 18  1  0
 18 22  1  0
 19 20  1  0
 19 18  2  0
 20 21  1  0
 21 22  2  0
 23 16  1  0
 23 25  1  0
 24 23  2  0
M  END
$$$$
