QAH.pdb
     RDKit          3D

 25 25  0  0  1  0  0  0  0  0999 V2000
   11.1143  -19.9477   17.3481 N   0  0  0  0  0  0  0  0  0  0  0  0
    9.7637  -19.7949   17.0042 C   0  0  0  0  0  0  0  0  0  0  0  0
    9.2907  -20.4316   16.0448 O   0  0  0  0  0  0  0  0  0  0  0  0
    8.9113  -18.8805   17.7814 C   0  0  0  0  0  0  0  0  0  0  0  0
    9.7404  -18.2271   18.8508 C   0  0  0  0  0  0  0  0  0  0  0  0
    8.9615  -18.0193   20.1327 C   0  0  2  0  0  0  0  0  0  0  0  0
    7.5560  -18.1936   19.9216 N   0  0  0  0  0  0  0  0  0  0  0  0
    9.2760  -16.6199   20.5949 C   0  0  0  0  0  0  0  0  0  0  0  0
   10.4710  -16.2662   20.7640 O   0  0  0  0  0  0  0  0  0  0  0  0
    7.4783  -13.4371   21.0545 C   0  0  0  0  0  0  0  0  0  0  0  0
    8.5709  -14.4156   21.4132 C   0  0  2  0  0  0  0  0  0  0  0  0
    8.2354  -15.6817   20.8461 N   0  0  0  0  0  0  0  0  0  0  0  0
    8.8232  -14.4696   22.8705 C   0  0  0  0  0  0  0  0  0  0  0  0
    9.1852  -13.4202   23.4608 O   0  0  0  0  0  0  0  0  0  0  0  0
    8.6719  -15.6588   23.6223 N   0  0  0  0  0  0  0  0  0  0  0  0
    8.9491  -15.7458   25.0496 C   0  0  1  0  0  0  0  0  0  0  0  0
    7.6407  -15.6449   25.7577 C   0  0  0  0  0  0  0  0  0  0  0  0
    7.2365  -14.2716   26.0716 C   0  0  0  0  0  0  0  0  0  0  0  0
    8.0492  -13.1642   25.9006 C   0  0  0  0  0  0  0  0  0  0  0  0
    7.3332  -12.0982   26.2964 N   0  0  0  0  0  0  0  0  0  0  0  0
    6.1168  -12.5103   26.7018 C   0  0  0  0  0  0  0  0  0  0  0  0
    6.0522  -13.8414   26.5661 N   0  0  0  0  0  0  0  0  0  0  0  0
    9.7651  -16.9095   25.3907 C   0  0  0  0  0  0  0  0  0  0  0  0
   10.0504  -17.7488   24.5248 O   0  0  0  0  0  0  0  0  0  0  0  0
   10.2283  -17.0865   26.6853 O   0  0  0  0  0  0  0  0  0  0  0  0
  2  1  1  0
  3  2  2  0
  4  2  1  0
  5  4  1  0
  6  8  1  0
  6  5  1  0
  6  7  1  6
  8  9  2  0
 11 10  1  1
 12 11  1  0
 12  8  1  0
 13 15  1  0
 13 11  1  0
 14 13  2  0
 16 17  1  1
 16 15  1  0
 17 18  1  0
 18 22  1  0
 19 20  1  0
 19 18  2  0
 20 21  1  0
 21 22  2  0
 23 16  1  0
 23 25  1  0
 24 23  2  0
M  END
$$$$
