QAH.pdb
     RDKit          3D

 25 25  0  0  1  0  0  0  0  0999 V2000
    8.0530  -12.1499   18.0672 N   0  0  0  0  0  0  0  0  0  0  0  0
    7.7875  -13.2200   17.2010 C   0  0  0  0  0  0  0  0  0  0  0  0
    7.8981  -13.0660   15.9707 O   0  0  0  0  0  0  0  0  0  0  0  0
    7.3787  -14.5220   17.7528 C   0  0  0  0  0  0  0  0  0  0  0  0
    7.2966  -14.4163   19.2495 C   0  0  0  0  0  0  0  0  0  0  0  0
    7.4984  -15.7537   19.9303 C   0  0  2  0  0  0  0  0  0  0  0  0
    6.4584  -16.6755   19.5849 N   0  0  0  0  0  0  0  0  0  0  0  0
    7.5130  -15.4752   21.4111 C   0  0  0  0  0  0  0  0  0  0  0  0
    6.8148  -14.5416   21.8832 O   0  0  0  0  0  0  0  0  0  0  0  0
    6.8779  -16.1327   24.1886 C   0  0  0  0  0  0  0  0  0  0  0  0
    8.2917  -15.9547   23.6892 C   0  0  2  0  0  0  0  0  0  0  0  0
    8.3101  -16.2566   22.2943 N   0  0  0  0  0  0  0  0  0  0  0  0
    9.2704  -16.7380   24.4759 C   0  0  0  0  0  0  0  0  0  0  0  0
    9.0468  -17.9589   24.6759 O   0  0  0  0  0  0  0  0  0  0  0  0
   10.4474  -16.1626   25.0104 N   0  0  0  0  0  0  0  0  0  0  0  0
   11.6971  -16.8939   25.1685 C   0  0  1  0  0  0  0  0  0  0  0  0
   12.7830  -16.0304   24.6220 C   0  0  0  0  0  0  0  0  0  0  0  0
   12.7978  -15.9446   23.1591 C   0  0  0  0  0  0  0  0  0  0  0  0
   11.9074  -16.6081   22.3328 C   0  0  0  0  0  0  0  0  0  0  0  0
   12.2395  -16.2839   21.0718 N   0  0  0  0  0  0  0  0  0  0  0  0
   13.2965  -15.4495   21.0953 C   0  0  0  0  0  0  0  0  0  0  0  0
   13.6427  -15.2383   22.3720 N   0  0  0  0  0  0  0  0  0  0  0  0
   11.8961  -17.3719   26.5354 C   0  0  0  0  0  0  0  0  0  0  0  0
   11.1192  -17.0281   27.4376 O   0  0  0  0  0  0  0  0  0  0  0  0
   12.9550  -18.2143   26.8370 O   0  0  0  0  0  0  0  0  0  0  0  0
  2  1  1  0
  3  2  2  0
  4  2  1  0
  5  4  1  0
  6  8  1  0
  6  5  1  0
  6  7  1  1
  8  9  2  0
 11 10  1  1
 12 11  1  0
 12  8  1  0
 13 15  1  0
 13 11  1  0
 14 13  2  0
 16 17  1  1
 16 15  1  0
 17 18  1  0
 18 22  1  0
 19 20  1  0
 19 18  2  0
 20 21  1  0
 21 22  2  0
 23 16  1  0
 23 25  1  0
 24 23  2  0
M  END
$$$$
