QAH.pdb
     RDKit          3D

 25 25  0  0  1  0  0  0  0  0999 V2000
   10.9887  -18.7492   18.2416 N   0  0  0  0  0  0  0  0  0  0  0  0
   11.4468  -18.5794   16.9275 C   0  0  0  0  0  0  0  0  0  0  0  0
   12.6052  -18.9194   16.6242 O   0  0  0  0  0  0  0  0  0  0  0  0
   10.5531  -17.9988   15.9120 C   0  0  0  0  0  0  0  0  0  0  0  0
    9.3465  -17.4191   16.5945 C   0  0  0  0  0  0  0  0  0  0  0  0
    8.7823  -16.2289   15.8475 C   0  0  2  0  0  0  0  0  0  0  0  0
    9.2475  -16.1962   14.4936 N   0  0  0  0  0  0  0  0  0  0  0  0
    9.2248  -15.0055   16.6078 C   0  0  0  0  0  0  0  0  0  0  0  0
   10.2320  -14.3565   16.2254 O   0  0  0  0  0  0  0  0  0  0  0  0
    7.8485  -12.9156   19.3379 C   0  0  0  0  0  0  0  0  0  0  0  0
    8.9648  -13.3929   18.4403 C   0  0  2  0  0  0  0  0  0  0  0  0
    8.5171  -14.5663   17.7621 N   0  0  0  0  0  0  0  0  0  0  0  0
   10.2359  -13.5837   19.1740 C   0  0  0  0  0  0  0  0  0  0  0  0
   10.7680  -12.5898   19.7304 O   0  0  0  0  0  0  0  0  0  0  0  0
   10.8729  -14.8434   19.2716 N   0  0  0  0  0  0  0  0  0  0  0  0
   12.0681  -15.0778   20.0703 C   0  0  1  0  0  0  0  0  0  0  0  0
   11.7861  -16.2491   20.9490 C   0  0  0  0  0  0  0  0  0  0  0  0
   10.8465  -15.9658   22.0374 C   0  0  0  0  0  0  0  0  0  0  0  0
   10.2401  -14.7382   22.2407 C   0  0  0  0  0  0  0  0  0  0  0  0
    9.4587  -14.8713   23.3257 N   0  0  0  0  0  0  0  0  0  0  0  0
    9.5638  -16.1302   23.7926 C   0  0  0  0  0  0  0  0  0  0  0  0
   10.4130  -16.8052   23.0069 N   0  0  0  0  0  0  0  0  0  0  0  0
   13.2762  -15.1760   19.2534 C   0  0  0  0  0  0  0  0  0  0  0  0
   13.1916  -15.3731   18.0329 O   0  0  0  0  0  0  0  0  0  0  0  0
   14.5284  -15.0497   19.8345 O   0  0  0  0  0  0  0  0  0  0  0  0
  2  1  1  0
  3  2  2  0
  4  2  1  0
  5  4  1  0
  6  8  1  0
  6  5  1  0
  6  7  1  6
  8  9  2  0
 11 10  1  1
 12 11  1  0
 12  8  1  0
 13 15  1  0
 13 11  1  0
 14 13  2  0
 16 17  1  6
 16 15  1  0
 17 18  1  0
 18 22  1  0
 19 20  1  0
 19 18  2  0
 20 21  1  0
 21 22  2  0
 23 16  1  0
 23 25  1  0
 24 23  2  0
M  END
$$$$
