QAH.pdb
     RDKit          3D

 25 25  0  0  1  0  0  0  0  0999 V2000
    7.1749  -19.1864   16.0794 N   0  0  0  0  0  0  0  0  0  0  0  0
    8.5215  -18.8463   15.8878 C   0  0  0  0  0  0  0  0  0  0  0  0
    9.3965  -19.7311   15.9186 O   0  0  0  0  0  0  0  0  0  0  0  0
    8.8933  -17.4418   15.6509 C   0  0  0  0  0  0  0  0  0  0  0  0
    7.6604  -16.5871   15.7360 C   0  0  0  0  0  0  0  0  0  0  0  0
    7.9499  -15.1320   15.4328 C   0  0  2  0  0  0  0  0  0  0  0  0
    8.7404  -14.9950   14.2467 N   0  0  0  0  0  0  0  0  0  0  0  0
    8.6718  -14.5859   16.6376 C   0  0  0  0  0  0  0  0  0  0  0  0
    9.9278  -14.6249   16.6903 O   0  0  0  0  0  0  0  0  0  0  0  0
    7.6956  -12.8008   19.7526 C   0  0  0  0  0  0  0  0  0  0  0  0
    8.6808  -13.4676   18.8228 C   0  0  2  0  0  0  0  0  0  0  0  0
    7.9516  -14.0211   17.7277 N   0  0  0  0  0  0  0  0  0  0  0  0
    9.5365  -14.4530   19.5207 C   0  0  0  0  0  0  0  0  0  0  0  0
    9.1476  -15.6463   19.5950 O   0  0  0  0  0  0  0  0  0  0  0  0
   10.7754  -14.1006   20.1066 N   0  0  0  0  0  0  0  0  0  0  0  0
   11.5959  -15.0321   20.8684 C   0  0  1  0  0  0  0  0  0  0  0  0
   13.0073  -14.5630   20.7608 C   0  0  0  0  0  0  0  0  0  0  0  0
   13.5938  -14.7366   19.4291 C   0  0  0  0  0  0  0  0  0  0  0  0
   13.2005  -15.7108   18.5278 C   0  0  0  0  0  0  0  0  0  0  0  0
   13.9639  -15.5518   17.4335 N   0  0  0  0  0  0  0  0  0  0  0  0
   14.8070  -14.5201   17.6306 C   0  0  0  0  0  0  0  0  0  0  0  0
   14.5845  -14.0170   18.8519 N   0  0  0  0  0  0  0  0  0  0  0  0
   11.0979  -15.2334   22.2278 C   0  0  0  0  0  0  0  0  0  0  0  0
   10.1801  -14.5270   22.6686 O   0  0  0  0  0  0  0  0  0  0  0  0
   11.6463  -16.2157   23.0377 O   0  0  0  0  0  0  0  0  0  0  0  0
  2  1  1  0
  3  2  2  0
  4  2  1  0
  5  4  1  0
  6  8  1  0
  6  5  1  0
  6  7  1  6
  8  9  2  0
 11 10  1  1
 12 11  1  0
 12  8  1  0
 13 15  1  0
 13 11  1  0
 14 13  2  0
 16 17  1  1
 16 15  1  0
 17 18  1  0
 18 22  1  0
 19 20  1  0
 19 18  2  0
 20 21  1  0
 21 22  2  0
 23 16  1  0
 23 25  1  0
 24 23  2  0
M  END
$$$$
