QAH.pdb
     RDKit          3D

 25 25  0  0  1  0  0  0  0  0999 V2000
    9.1265  -18.1995   15.4868 N   0  0  0  0  0  0  0  0  0  0  0  0
    8.0969  -17.3152   15.8381 C   0  0  0  0  0  0  0  0  0  0  0  0
    7.0980  -17.7359   16.4505 O   0  0  0  0  0  0  0  0  0  0  0  0
    8.2033  -15.8913   15.4801 C   0  0  0  0  0  0  0  0  0  0  0  0
    8.8593  -15.1493   16.6101 C   0  0  0  0  0  0  0  0  0  0  0  0
    7.8795  -14.2799   17.3698 C   0  0  2  0  0  0  0  0  0  0  0  0
    7.6109  -13.0618   16.6666 N   0  0  0  0  0  0  0  0  0  0  0  0
    8.5086  -14.0095   18.7122 C   0  0  0  0  0  0  0  0  0  0  0  0
    9.6289  -13.4419   18.7796 O   0  0  0  0  0  0  0  0  0  0  0  0
    7.5411  -14.3731   22.2745 C   0  0  0  0  0  0  0  0  0  0  0  0
    8.5464  -14.2426   21.1556 C   0  0  2  0  0  0  0  0  0  0  0  0
    7.8521  -14.3883   19.9170 N   0  0  0  0  0  0  0  0  0  0  0  0
    9.6842  -15.1767   21.3080 C   0  0  0  0  0  0  0  0  0  0  0  0
    9.5984  -16.3226   20.7979 O   0  0  0  0  0  0  0  0  0  0  0  0
   10.8639  -14.8266   22.0067 N   0  0  0  0  0  0  0  0  0  0  0  0
   11.9125  -15.7814   22.3385 C   0  0  1  0  0  0  0  0  0  0  0  0
   13.2147  -15.1380   22.0010 C   0  0  0  0  0  0  0  0  0  0  0  0
   13.4624  -15.0113   20.5622 C   0  0  0  0  0  0  0  0  0  0  0  0
   12.5820  -15.4354   19.5819 C   0  0  0  0  0  0  0  0  0  0  0  0
   13.1575  -15.1527   18.4010 N   0  0  0  0  0  0  0  0  0  0  0  0
   14.3534  -14.5735   18.6211 C   0  0  0  0  0  0  0  0  0  0  0  0
   14.5452  -14.4844   19.9439 N   0  0  0  0  0  0  0  0  0  0  0  0
   11.7934  -16.2909   23.7033 C   0  0  0  0  0  0  0  0  0  0  0  0
   10.9064  -15.8629   24.4555 O   0  0  0  0  0  0  0  0  0  0  0  0
   12.6703  -17.2576   24.1704 O   0  0  0  0  0  0  0  0  0  0  0  0
  2  1  1  0
  3  2  2  0
  4  2  1  0
  5  4  1  0
  6  8  1  0
  6  5  1  0
  6  7  1  6
  8  9  2  0
 11 10  1  1
 12 11  1  0
 12  8  1  0
 13 15  1  0
 13 11  1  0
 14 13  2  0
 16 17  1  1
 16 15  1  0
 17 18  1  0
 18 22  1  0
 19 20  1  0
 19 18  2  0
 20 21  1  0
 21 22  2  0
 23 16  1  0
 23 25  1  0
 24 23  2  0
M  END
$$$$
