QAH.pdb
     RDKit          3D

 25 25  0  0  1  0  0  0  0  0999 V2000
   11.7070  -17.6110   14.5285 N   0  0  0  0  0  0  0  0  0  0  0  0
   10.7582  -18.1705   15.3959 C   0  0  0  0  0  0  0  0  0  0  0  0
   10.0873  -19.1540   15.0324 O   0  0  0  0  0  0  0  0  0  0  0  0
   10.5606  -17.5903   16.7342 C   0  0  0  0  0  0  0  0  0  0  0  0
   11.4862  -16.4186   16.9023 C   0  0  0  0  0  0  0  0  0  0  0  0
   10.8481  -15.1170   16.4644 C   0  0  2  0  0  0  0  0  0  0  0  0
   11.7313  -14.3595   15.6297 N   0  0  0  0  0  0  0  0  0  0  0  0
   10.5111  -14.3669   17.7272 C   0  0  0  0  0  0  0  0  0  0  0  0
   11.4219  -13.8056   18.3883 O   0  0  0  0  0  0  0  0  0  0  0  0
    7.4346  -13.1838   19.3930 C   0  0  0  0  0  0  0  0  0  0  0  0
    8.8974  -13.5580   19.3908 C   0  0  2  0  0  0  0  0  0  0  0  0
    9.1678  -14.2811   18.1903 N   0  0  0  0  0  0  0  0  0  0  0  0
    9.2961  -14.2818   20.6186 C   0  0  0  0  0  0  0  0  0  0  0  0
    9.0346  -13.7674   21.7356 O   0  0  0  0  0  0  0  0  0  0  0  0
    9.9602  -15.5307   20.5803 N   0  0  0  0  0  0  0  0  0  0  0  0
   10.2928  -16.2989   21.7723 C   0  0  1  0  0  0  0  0  0  0  0  0
   10.3451  -17.7336   21.3693 C   0  0  0  0  0  0  0  0  0  0  0  0
    9.0526  -18.2835   20.9515 C   0  0  0  0  0  0  0  0  0  0  0  0
    7.8621  -17.5778   20.9802 C   0  0  0  0  0  0  0  0  0  0  0  0
    6.9105  -18.4121   20.5284 N   0  0  0  0  0  0  0  0  0  0  0  0
    7.4722  -19.5981   20.2253 C   0  0  0  0  0  0  0  0  0  0  0  0
    8.7847  -19.5248   20.4827 N   0  0  0  0  0  0  0  0  0  0  0  0
   11.4818  -15.7889   22.4525 C   0  0  0  0  0  0  0  0  0  0  0  0
   11.8685  -16.3077   23.5094 O   0  0  0  0  0  0  0  0  0  0  0  0
   12.1890  -14.7206   21.9231 O   0  0  0  0  0  0  0  0  0  0  0  0
  2  1  1  0
  3  2  2  0
  4  2  1  0
  5  4  1  0
  6  8  1  0
  6  5  1  0
  6  7  1  6
  8  9  2  0
 11 10  1  1
 12 11  1  0
 12  8  1  0
 13 15  1  0
 13 11  1  0
 14 13  2  0
 16 17  1  6
 16 15  1  0
 17 18  1  0
 18 22  1  0
 19 20  1  0
 19 18  2  0
 20 21  1  0
 21 22  2  0
 23 16  1  0
 23 25  1  0
 24 23  2  0
M  END
$$$$
