VLY.pdb
     RDKit          3D

 28 28  0  0  1  0  0  0  0  0999 V2000
    7.7010  -18.5900   20.8794 C   0  0  0  0  0  0  0  0  0  0  0  0
    8.3249  -17.9010   19.6760 C   0  0  2  0  0  0  0  0  0  0  0  0
    9.8011  -18.2116   19.6981 C   0  0  0  0  0  0  0  0  0  0  0  0
    8.0727  -16.4035   19.7754 C   0  0  2  0  0  0  0  0  0  0  0  0
    8.6198  -15.7027   18.6595 N   0  0  0  0  0  0  0  0  0  0  0  0
    8.5172  -15.8837   21.0814 C   0  0  0  0  0  0  0  0  0  0  0  0
    9.7476  -15.6897   21.2573 O   0  0  0  0  0  0  0  0  0  0  0  0
    6.2794  -13.5617   26.5050 C   0  0  0  0  0  0  0  0  0  0  0  0
    7.3500  -13.7556   25.4994 C   0  0  2  0  0  0  0  0  0  0  0  0
    7.9528  -12.3900   25.1475 C   0  0  0  0  0  0  0  0  0  0  0  0
    6.9983  -14.4407   24.2427 C   0  0  0  0  0  0  0  0  0  0  0  0
    8.0892  -15.0084   23.4193 C   0  0  2  0  0  0  0  0  0  0  0  0
    7.6528  -15.5826   22.1659 N   0  0  0  0  0  0  0  0  0  0  0  0
    9.0095  -15.9030   24.1487 C   0  0  0  0  0  0  0  0  0  0  0  0
    8.7056  -17.1171   24.2744 O   0  0  0  0  0  0  0  0  0  0  0  0
   10.1698  -14.9156   31.5062 O   0  0  0  0  0  0  0  0  0  0  0  0
   10.6297  -15.0537   30.2162 C   0  0  0  0  0  0  0  0  0  0  0  0
   11.2065  -16.2293   29.7912 C   0  0  0  0  0  0  0  0  0  0  0  0
   11.6506  -16.3133   28.4869 C   0  0  0  0  0  0  0  0  0  0  0  0
   11.5475  -15.2742   27.5771 C   0  0  0  0  0  0  0  0  0  0  0  0
   12.0446  -15.4267   26.2032 C   0  0  0  0  0  0  0  0  0  0  0  0
   11.1962  -16.3294   25.3369 C   0  0  2  0  0  0  0  0  0  0  0  0
   10.2072  -15.4464   24.7043 N   0  0  0  0  0  0  0  0  0  0  0  0
   10.5539  -17.4048   26.0940 C   0  0  0  0  0  0  0  0  0  0  0  0
    9.3826  -17.2626   26.5070 O   0  0  0  0  0  0  0  0  0  0  0  0
   10.9620  -14.1003   28.0316 C   0  0  0  0  0  0  0  0  0  0  0  0
   10.5134  -13.9986   29.3287 C   0  0  0  0  0  0  0  0  0  0  0  0
   11.2447  -18.5708   26.3472 O   0  0  0  0  0  0  0  0  0  0  0  0
  2  1  1  1
  2  3  1  0
  4  6  1  0
  4  2  1  0
  4  5  1  6
  6  7  2  0
  9 11  1  0
  9  8  1  1
 10  9  1  0
 12 11  1  1
 12 14  1  0
 13 12  1  0
 13  6  1  0
 14 15  2  0
 16 17  1  0
 17 18  2  0
 18 19  1  0
 20 19  2  0
 20 21  1  0
 22 21  1  1
 22 24  1  0
 23 22  1  0
 23 14  1  0
 24 25  2  0
 24 28  1  0
 26 20  1  0
 27 17  1  0
 27 26  2  0
M  END
$$$$
