VLY.pdb
     RDKit          3D

 28 28  0  0  1  0  0  0  0  0999 V2000
    7.1953  -17.9070   18.5328 C   0  0  0  0  0  0  0  0  0  0  0  0
    8.0186  -19.0660   19.0724 C   0  0  2  0  0  0  0  0  0  0  0  0
    7.2242  -20.3269   18.8372 C   0  0  0  0  0  0  0  0  0  0  0  0
    8.2770  -18.8431   20.5556 C   0  0  2  0  0  0  0  0  0  0  0  0
    7.0833  -18.9835   21.3244 N   0  0  0  0  0  0  0  0  0  0  0  0
    8.9822  -17.5677   20.7779 C   0  0  0  0  0  0  0  0  0  0  0  0
   10.1932  -17.4914   20.4459 O   0  0  0  0  0  0  0  0  0  0  0  0
    7.7355  -12.0407   19.9690 C   0  0  0  0  0  0  0  0  0  0  0  0
    8.4544  -13.3216   20.1633 C   0  0  2  0  0  0  0  0  0  0  0  0
    7.9522  -14.3339   19.1263 C   0  0  0  0  0  0  0  0  0  0  0  0
    8.3875  -13.9537   21.4930 C   0  0  0  0  0  0  0  0  0  0  0  0
    9.1261  -15.2176   21.7113 C   0  0  2  0  0  0  0  0  0  0  0  0
    8.3918  -16.4080   21.3439 N   0  0  0  0  0  0  0  0  0  0  0  0
    9.7542  -15.3418   23.0414 C   0  0  0  0  0  0  0  0  0  0  0  0
   10.7733  -14.6513   23.2999 O   0  0  0  0  0  0  0  0  0  0  0  0
    5.8447  -11.2017   26.4419 O   0  0  0  0  0  0  0  0  0  0  0  0
    6.4779  -12.4230   26.3957 C   0  0  0  0  0  0  0  0  0  0  0  0
    5.7742  -13.5768   26.1330 C   0  0  0  0  0  0  0  0  0  0  0  0
    6.4594  -14.7748   26.0985 C   0  0  0  0  0  0  0  0  0  0  0  0
    7.8232  -14.8805   26.3148 C   0  0  0  0  0  0  0  0  0  0  0  0
    8.4919  -16.1876   26.2686 C   0  0  0  0  0  0  0  0  0  0  0  0
    9.7366  -16.2137   25.4110 C   0  0  2  0  0  0  0  0  0  0  0  0
    9.2547  -16.2009   24.0233 N   0  0  0  0  0  0  0  0  0  0  0  0
   10.5864  -17.3753   25.6769 C   0  0  0  0  0  0  0  0  0  0  0  0
   11.0935  -17.5303   26.8089 O   0  0  0  0  0  0  0  0  0  0  0  0
    8.5084  -13.7019   26.5773 C   0  0  0  0  0  0  0  0  0  0  0  0
    7.8418  -12.4985   26.6156 C   0  0  0  0  0  0  0  0  0  0  0  0
   10.8227  -18.2939   24.6763 O   0  0  0  0  0  0  0  0  0  0  0  0
  2  1  1  1
  2  3  1  0
  4  6  1  0
  4  2  1  0
  4  5  1  1
  6  7  2  0
  9 11  1  0
  9  8  1  1
 10  9  1  0
 12 11  1  1
 12 14  1  0
 13 12  1  0
 13  6  1  0
 14 15  2  0
 16 17  1  0
 17 18  2  0
 18 19  1  0
 20 19  2  0
 20 21  1  0
 22 21  1  1
 22 24  1  0
 23 22  1  0
 23 14  1  0
 24 25  2  0
 24 28  1  0
 26 20  1  0
 27 17  1  0
 27 26  2  0
M  END
$$$$
