VLY.pdb
     RDKit          3D

 28 28  0  0  1  0  0  0  0  0999 V2000
    7.4467  -19.9807   23.3373 C   0  0  0  0  0  0  0  0  0  0  0  0
    6.2746  -19.1786   22.7942 C   0  0  2  0  0  0  0  0  0  0  0  0
    5.0884  -20.1086   22.7281 C   0  0  0  0  0  0  0  0  0  0  0  0
    6.6355  -18.6431   21.4161 C   0  0  2  0  0  0  0  0  0  0  0  0
    6.9141  -19.6991   20.4978 N   0  0  0  0  0  0  0  0  0  0  0  0
    7.7090  -17.6371   21.5105 C   0  0  0  0  0  0  0  0  0  0  0  0
    8.8923  -18.0076   21.2983 O   0  0  0  0  0  0  0  0  0  0  0  0
    8.3562  -14.0100   19.0376 C   0  0  0  0  0  0  0  0  0  0  0  0
    7.5507  -13.6992   20.2417 C   0  0  2  0  0  0  0  0  0  0  0  0
    7.0883  -12.2389   20.1652 C   0  0  0  0  0  0  0  0  0  0  0  0
    8.1719  -13.9165   21.5605 C   0  0  0  0  0  0  0  0  0  0  0  0
    8.5672  -15.2924   21.9361 C   0  0  2  0  0  0  0  0  0  0  0  0
    7.5059  -16.2684   21.8258 N   0  0  0  0  0  0  0  0  0  0  0  0
    9.2860  -15.3974   23.2212 C   0  0  0  0  0  0  0  0  0  0  0  0
   10.4012  -14.8285   23.3428 O   0  0  0  0  0  0  0  0  0  0  0  0
    6.1454  -10.6977   26.5330 O   0  0  0  0  0  0  0  0  0  0  0  0
    6.6596  -11.9744   26.5524 C   0  0  0  0  0  0  0  0  0  0  0  0
    5.8408  -13.0707   26.4004 C   0  0  0  0  0  0  0  0  0  0  0  0
    6.4092  -14.3284   26.4278 C   0  0  0  0  0  0  0  0  0  0  0  0
    7.7654  -14.5494   26.6009 C   0  0  0  0  0  0  0  0  0  0  0  0
    8.3069  -15.9147   26.6252 C   0  0  0  0  0  0  0  0  0  0  0  0
    9.4151  -16.1566   25.6258 C   0  0  2  0  0  0  0  0  0  0  0  0
    8.7691  -16.1079   24.3074 N   0  0  0  0  0  0  0  0  0  0  0  0
   10.1078  -17.4278   25.8411 C   0  0  0  0  0  0  0  0  0  0  0  0
   10.0240  -18.3357   24.9859 O   0  0  0  0  0  0  0  0  0  0  0  0
    8.5682  -13.4267   26.7516 C   0  0  0  0  0  0  0  0  0  0  0  0
    8.0188  -12.1651   26.7269 C   0  0  0  0  0  0  0  0  0  0  0  0
   10.8505  -17.6171   26.9871 O   0  0  0  0  0  0  0  0  0  0  0  0
  2  1  1  6
  2  3  1  0
  4  6  1  0
  4  2  1  0
  4  5  1  6
  6  7  2  0
  9 11  1  0
  9  8  1  6
 10  9  1  0
 12 11  1  1
 12 14  1  0
 13 12  1  0
 13  6  1  0
 14 15  2  0
 16 17  1  0
 17 18  2  0
 18 19  1  0
 20 19  2  0
 20 21  1  0
 22 21  1  1
 22 24  1  0
 23 22  1  0
 23 14  1  0
 24 25  2  0
 24 28  1  0
 26 20  1  0
 27 17  1  0
 27 26  2  0
M  END
$$$$
