DLY.pdb
     RDKit          3D

 29 29  0  0  1  0  0  0  0  0999 V2000
   19.2394  -12.5753  -19.4317 N   0  0  0  0  0  0  0  0  0  0  0  0
   18.5526  -12.1783  -18.2246 C   0  0  1  0  0  0  0  0  0  0  0  0
   17.6979  -13.3045  -17.7441 C   0  0  0  0  0  0  0  0  0  0  0  0
   16.6020  -13.6939  -18.6365 C   0  0  0  0  0  0  0  0  0  0  0  0
   16.2651  -13.1140  -19.6876 O   0  0  0  0  0  0  0  0  0  0  0  0
   19.5147  -11.7507  -17.1679 C   0  0  0  0  0  0  0  0  0  0  0  0
   19.0901  -11.3885  -16.0178 O   0  0  0  0  0  0  0  0  0  0  0  0
   15.8641  -14.8204  -18.2780 O   0  0  0  0  0  0  0  0  0  0  0  0
   23.6453  -12.3002  -13.9819 C   0  0  0  0  0  0  0  0  0  0  0  0
   24.1088  -11.9189  -15.3717 C   0  0  1  0  0  0  0  0  0  0  0  0
   25.2967  -12.8332  -15.6792 C   0  0  0  0  0  0  0  0  0  0  0  0
   23.0568  -12.1939  -16.3872 C   0  0  0  0  0  0  0  0  0  0  0  0
   21.8333  -11.3344  -16.2804 C   0  0  2  0  0  0  0  0  0  0  0  0
   20.9092  -11.7116  -17.3415 N   0  0  0  0  0  0  0  0  0  0  0  0
   22.1347   -9.8879  -16.3217 C   0  0  0  0  0  0  0  0  0  0  0  0
   22.7985   -9.4407  -17.2765 O   0  0  0  0  0  0  0  0  0  0  0  0
   21.5066   -1.3289  -16.9473 O   0  0  0  0  0  0  0  0  0  0  0  0
   21.4540   -2.7171  -16.8500 C   0  0  0  0  0  0  0  0  0  0  0  0
   20.2636   -3.3528  -16.5688 C   0  0  0  0  0  0  0  0  0  0  0  0
   20.1793   -4.7285  -16.4659 C   0  0  0  0  0  0  0  0  0  0  0  0
   21.2892   -5.5308  -16.6410 C   0  0  0  0  0  0  0  0  0  0  0  0
   21.2573   -7.0055  -16.5398 C   0  0  0  0  0  0  0  0  0  0  0  0
   22.0093   -7.5494  -15.3489 C   0  0  2  0  0  0  0  0  0  0  0  0
   21.6940   -8.9852  -15.3094 N   0  0  0  0  0  0  0  0  0  0  0  0
   21.5476   -6.9942  -14.0570 C   0  0  0  0  0  0  0  0  0  0  0  0
   22.1045   -5.8673  -13.4634 O   0  0  0  0  0  0  0  0  0  0  0  0
   22.4843   -4.9028  -16.9225 C   0  0  0  0  0  0  0  0  0  0  0  0
   22.5658   -3.5132  -17.0258 C   0  0  0  0  0  0  0  0  0  0  0  0
   20.5857   -7.5813  -13.4541 O   0  0  0  0  0  0  0  0  0  0  0  0
  2  1  1  6
  2  3  1  0
  4  3  1  0
  4  8  1  0
  5  4  2  0
  6  2  1  0
  7  6  2  0
 10 12  1  0
 10  9  1  1
 11 10  1  0
 13 12  1  6
 13 14  1  0
 14  6  1  0
 15 24  1  0
 15 13  1  0
 16 15  2  0
 18 17  1  0
 19 18  2  0
 20 19  1  0
 21 20  2  0
 21 27  1  0
 23 22  1  6
 22 21  1  0
 23 25  1  0
 23 24  1  0
 25 26  1  0
 27 28  2  0
 28 18  1  0
 29 25  2  0
M  END
$$$$
