DLY.pdb
     RDKit          3D

 29 29  0  0  1  0  0  0  0  0999 V2000
   25.2466  -20.2849  -16.9753 N   0  0  0  0  0  0  0  0  0  0  0  0
   24.6547  -19.5388  -15.8893 C   0  0  1  0  0  0  0  0  0  0  0  0
   23.6037  -18.6247  -16.4272 C   0  0  0  0  0  0  0  0  0  0  0  0
   24.0965  -17.4403  -17.1367 C   0  0  0  0  0  0  0  0  0  0  0  0
   25.1273  -17.3744  -17.8350 O   0  0  0  0  0  0  0  0  0  0  0  0
   24.0898  -20.4480  -14.8504 C   0  0  0  0  0  0  0  0  0  0  0  0
   23.5337  -21.5479  -15.1897 O   0  0  0  0  0  0  0  0  0  0  0  0
   23.3422  -16.2742  -17.0213 O   0  0  0  0  0  0  0  0  0  0  0  0
   26.4665  -21.4745  -11.9459 C   0  0  0  0  0  0  0  0  0  0  0  0
   25.3833  -21.7067  -10.9141 C   0  0  1  0  0  0  0  0  0  0  0  0
   25.9900  -21.2883   -9.5731 C   0  0  0  0  0  0  0  0  0  0  0  0
   24.2031  -20.8357  -11.1634 C   0  0  0  0  0  0  0  0  0  0  0  0
   23.5165  -21.0603  -12.4769 C   0  0  2  0  0  0  0  0  0  0  0  0
   24.1200  -20.1821  -13.4703 N   0  0  0  0  0  0  0  0  0  0  0  0
   22.0530  -20.8647  -12.4077 C   0  0  0  0  0  0  0  0  0  0  0  0
   21.6113  -19.8182  -11.8958 O   0  0  0  0  0  0  0  0  0  0  0  0
   19.9663  -16.8781  -17.2713 O   0  0  0  0  0  0  0  0  0  0  0  0
   19.7939  -18.0594  -16.5545 C   0  0  0  0  0  0  0  0  0  0  0  0
   18.6876  -18.2334  -15.7506 C   0  0  0  0  0  0  0  0  0  0  0  0
   18.4884  -19.3940  -15.0270 C   0  0  0  0  0  0  0  0  0  0  0  0
   19.3932  -20.4357  -15.0777 C   0  0  0  0  0  0  0  0  0  0  0  0
   19.2319  -21.6971  -14.3236 C   0  0  0  0  0  0  0  0  0  0  0  0
   19.6745  -21.6049  -12.8831 C   0  0  2  0  0  0  0  0  0  0  0  0
   21.1277  -21.8292  -12.9051 N   0  0  0  0  0  0  0  0  0  0  0  0
   19.1098  -22.6695  -12.0240 C   0  0  0  0  0  0  0  0  0  0  0  0
   19.8154  -23.8066  -11.6476 O   0  0  0  0  0  0  0  0  0  0  0  0
   20.5029  -20.2699  -15.8796 C   0  0  0  0  0  0  0  0  0  0  0  0
   20.7008  -19.0964  -16.6090 C   0  0  0  0  0  0  0  0  0  0  0  0
   17.9096  -22.5374  -11.6052 O   0  0  0  0  0  0  0  0  0  0  0  0
  2  1  1  6
  2  3  1  0
  4  3  1  0
  4  8  1  0
  5  4  2  0
  6  2  1  0
  7  6  2  0
 10 12  1  0
 10  9  1  6
 11 10  1  0
 13 12  1  1
 13 14  1  0
 14  6  1  0
 15 24  1  0
 15 13  1  0
 16 15  2  0
 18 17  1  0
 19 18  2  0
 20 19  1  0
 21 20  2  0
 21 27  1  0
 23 22  1  6
 22 21  1  0
 23 25  1  0
 23 24  1  0
 25 26  1  0
 27 28  2  0
 28 18  1  0
 29 25  2  0
M  END
$$$$
