DLY.pdb
     RDKit          3D

 29 29  0  0  1  0  0  0  0  0999 V2000
   21.8749  -12.7571  -18.6481 N   0  0  0  0  0  0  0  0  0  0  0  0
   22.3413  -11.4553  -19.0657 C   0  0  1  0  0  0  0  0  0  0  0  0
   21.3077  -10.8085  -19.9276 C   0  0  0  0  0  0  0  0  0  0  0  0
   21.0708  -11.4511  -21.2238 C   0  0  0  0  0  0  0  0  0  0  0  0
   20.0336  -11.3667  -21.9104 O   0  0  0  0  0  0  0  0  0  0  0  0
   22.6720  -10.5950  -17.8928 C   0  0  0  0  0  0  0  0  0  0  0  0
   21.8518  -10.4913  -16.9177 O   0  0  0  0  0  0  0  0  0  0  0  0
   22.1027  -12.2321  -21.7407 O   0  0  0  0  0  0  0  0  0  0  0  0
   27.4520  -10.6459  -15.5584 C   0  0  0  0  0  0  0  0  0  0  0  0
   25.9651  -10.5405  -15.8226 C   0  0  1  0  0  0  0  0  0  0  0  0
   25.2841  -10.8076  -14.4786 C   0  0  0  0  0  0  0  0  0  0  0  0
   25.5879   -9.1665  -16.2510 C   0  0  0  0  0  0  0  0  0  0  0  0
   24.1477   -8.9940  -16.6296 C   0  0  2  0  0  0  0  0  0  0  0  0
   23.8622   -9.8575  -17.7676 N   0  0  0  0  0  0  0  0  0  0  0  0
   23.7878   -7.5899  -16.9189 C   0  0  0  0  0  0  0  0  0  0  0  0
   24.3232   -7.0214  -17.8896 O   0  0  0  0  0  0  0  0  0  0  0  0
   18.8892   -0.1901  -17.2534 O   0  0  0  0  0  0  0  0  0  0  0  0
   19.4044   -1.4686  -17.0558 C   0  0  0  0  0  0  0  0  0  0  0  0
   19.3815   -2.0450  -15.8039 C   0  0  0  0  0  0  0  0  0  0  0  0
   19.8849   -3.3118  -15.5759 C   0  0  0  0  0  0  0  0  0  0  0  0
   20.4359   -4.0597  -16.5974 C   0  0  0  0  0  0  0  0  0  0  0  0
   20.9909   -5.4173  -16.4102 C   0  0  0  0  0  0  0  0  0  0  0  0
   22.5000   -5.4634  -16.4185 C   0  0  2  0  0  0  0  0  0  0  0  0
   22.8503   -6.8618  -16.1283 N   0  0  0  0  0  0  0  0  0  0  0  0
   23.1199   -4.6557  -15.3444 C   0  0  0  0  0  0  0  0  0  0  0  0
   23.5981   -3.3643  -15.5344 O   0  0  0  0  0  0  0  0  0  0  0  0
   20.4629   -3.4905  -17.8533 C   0  0  0  0  0  0  0  0  0  0  0  0
   19.9535   -2.2109  -18.0798 C   0  0  0  0  0  0  0  0  0  0  0  0
   23.2215   -5.1719  -14.1797 O   0  0  0  0  0  0  0  0  0  0  0  0
  2  1  1  1
  2  3  1  0
  4  3  1  0
  4  8  1  0
  5  4  2  0
  6  2  1  0
  7  6  2  0
 10 12  1  0
 10  9  1  1
 11 10  1  0
 13 12  1  6
 13 14  1  0
 14  6  1  0
 15 24  1  0
 15 13  1  0
 16 15  2  0
 18 17  1  0
 19 18  2  0
 20 19  1  0
 21 20  2  0
 21 27  1  0
 23 22  1  1
 22 21  1  0
 23 25  1  0
 23 24  1  0
 25 26  1  0
 27 28  2  0
 28 18  1  0
 29 25  2  0
M  END
$$$$
