DLY.pdb
     RDKit          3D

 29 29  0  0  1  0  0  0  0  0999 V2000
   22.8315  -14.5473  -18.9607 N   0  0  0  0  0  0  0  0  0  0  0  0
   23.2785  -15.7503  -19.6237 C   0  0  1  0  0  0  0  0  0  0  0  0
   24.1262  -15.3867  -20.7978 C   0  0  0  0  0  0  0  0  0  0  0  0
   23.4765  -14.5553  -21.8155 C   0  0  0  0  0  0  0  0  0  0  0  0
   22.2659  -14.5653  -22.1134 O   0  0  0  0  0  0  0  0  0  0  0  0
   24.0199  -16.6432  -18.6867 C   0  0  0  0  0  0  0  0  0  0  0  0
   24.4905  -17.7591  -19.0962 O   0  0  0  0  0  0  0  0  0  0  0  0
   24.2878  -13.6674  -22.5194 O   0  0  0  0  0  0  0  0  0  0  0  0
   27.2489  -14.5134  -15.0948 C   0  0  0  0  0  0  0  0  0  0  0  0
   26.5638  -15.3826  -16.1277 C   0  0  1  0  0  0  0  0  0  0  0  0
   27.6889  -16.0409  -16.9291 C   0  0  0  0  0  0  0  0  0  0  0  0
   25.7769  -16.4691  -15.4842 C   0  0  0  0  0  0  0  0  0  0  0  0
   24.9149  -17.2648  -16.4174 C   0  0  2  0  0  0  0  0  0  0  0  0
   24.2527  -16.3451  -17.3327 N   0  0  0  0  0  0  0  0  0  0  0  0
   23.9349  -18.1201  -15.7153 C   0  0  0  0  0  0  0  0  0  0  0  0
   24.3370  -18.8706  -14.8058 O   0  0  0  0  0  0  0  0  0  0  0  0
   17.3569  -20.8205  -10.8124 O   0  0  0  0  0  0  0  0  0  0  0  0
   18.3631  -20.2369  -11.5780 C   0  0  0  0  0  0  0  0  0  0  0  0
   19.4004  -21.0013  -12.0676 C   0  0  0  0  0  0  0  0  0  0  0  0
   20.4136  -20.4515  -12.8302 C   0  0  0  0  0  0  0  0  0  0  0  0
   20.4314  -19.1054  -13.1368 C   0  0  0  0  0  0  0  0  0  0  0  0
   21.4903  -18.4642  -13.9452 C   0  0  0  0  0  0  0  0  0  0  0  0
   21.5806  -18.9917  -15.3570 C   0  0  2  0  0  0  0  0  0  0  0  0
   22.5462  -18.1181  -16.0402 N   0  0  0  0  0  0  0  0  0  0  0  0
   20.3141  -18.8707  -16.1132 C   0  0  0  0  0  0  0  0  0  0  0  0
   19.3567  -19.8767  -16.1722 O   0  0  0  0  0  0  0  0  0  0  0  0
   19.3973  -18.3332  -12.6508 C   0  0  0  0  0  0  0  0  0  0  0  0
   18.3758  -18.8919  -11.8810 C   0  0  0  0  0  0  0  0  0  0  0  0
   20.0875  -17.7836  -16.7459 O   0  0  0  0  0  0  0  0  0  0  0  0
  2  1  1  1
  2  3  1  0
  4  3  1  0
  4  8  1  0
  5  4  2  0
  6  2  1  0
  7  6  2  0
 10 12  1  0
 10  9  1  1
 11 10  1  0
 13 12  1  1
 13 14  1  0
 14  6  1  0
 15 24  1  0
 15 13  1  0
 16 15  2  0
 18 17  1  0
 19 18  2  0
 20 19  1  0
 21 20  2  0
 21 27  1  0
 23 22  1  1
 22 21  1  0
 23 25  1  0
 23 24  1  0
 25 26  1  0
 27 28  2  0
 28 18  1  0
 29 25  2  0
M  END
$$$$
