DLY.pdb
     RDKit          3D

 29 29  0  0  1  0  0  0  0  0999 V2000
   11.8884   -8.4372  -14.8229 N   0  0  0  0  0  0  0  0  0  0  0  0
   12.7992   -7.9656  -13.8058 C   0  0  1  0  0  0  0  0  0  0  0  0
   13.1398   -9.0885  -12.8823 C   0  0  0  0  0  0  0  0  0  0  0  0
   12.0455   -9.5615  -12.0292 C   0  0  0  0  0  0  0  0  0  0  0  0
   11.5566  -10.7085  -12.0246 O   0  0  0  0  0  0  0  0  0  0  0  0
   14.0309   -7.3794  -14.4093 C   0  0  0  0  0  0  0  0  0  0  0  0
   14.5621   -7.9168  -15.4405 O   0  0  0  0  0  0  0  0  0  0  0  0
   11.4968   -8.6429  -11.1364 O   0  0  0  0  0  0  0  0  0  0  0  0
   14.6517   -1.9947  -14.7012 C   0  0  0  0  0  0  0  0  0  0  0  0
   14.6992   -3.4635  -15.0647 C   0  0  1  0  0  0  0  0  0  0  0  0
   15.0116   -3.5112  -16.5620 C   0  0  0  0  0  0  0  0  0  0  0  0
   15.8044   -4.1611  -14.3538 C   0  0  0  0  0  0  0  0  0  0  0  0
   15.8502   -5.6457  -14.5563 C   0  0  2  0  0  0  0  0  0  0  0  0
   14.6827   -6.2360  -13.9153 N   0  0  0  0  0  0  0  0  0  0  0  0
   17.1004   -6.2606  -14.0628 C   0  0  0  0  0  0  0  0  0  0  0  0
   17.2808   -6.3486  -12.8332 O   0  0  0  0  0  0  0  0  0  0  0  0
   24.6183  -11.1066  -14.5349 O   0  0  0  0  0  0  0  0  0  0  0  0
   23.3952  -10.4756  -14.7468 C   0  0  0  0  0  0  0  0  0  0  0  0
   22.2765  -10.8665  -14.0425 C   0  0  0  0  0  0  0  0  0  0  0  0
   21.0489  -10.2599  -14.2304 C   0  0  0  0  0  0  0  0  0  0  0  0
   20.8880   -9.2305  -15.1363 C   0  0  0  0  0  0  0  0  0  0  0  0
   19.5991   -8.5482  -15.3794 C   0  0  0  0  0  0  0  0  0  0  0  0
   19.3378   -7.3916  -14.4447 C   0  0  2  0  0  0  0  0  0  0  0  0
   18.1079   -6.7569  -14.9417 N   0  0  0  0  0  0  0  0  0  0  0  0
   20.3850   -6.3469  -14.4932 C   0  0  0  0  0  0  0  0  0  0  0  0
   21.4931   -6.3318  -13.6540 O   0  0  0  0  0  0  0  0  0  0  0  0
   22.0022   -8.8332  -15.8452 C   0  0  0  0  0  0  0  0  0  0  0  0
   23.2405   -9.4480  -15.6529 C   0  0  0  0  0  0  0  0  0  0  0  0
   20.2651   -5.4081  -15.3521 O   0  0  0  0  0  0  0  0  0  0  0  0
  2  1  1  6
  2  3  1  0
  4  3  1  0
  4  8  1  0
  5  4  2  0
  6  2  1  0
  7  6  2  0
 10 12  1  0
 10  9  1  1
 11 10  1  0
 13 12  1  1
 13 14  1  0
 14  6  1  0
 15 24  1  0
 15 13  1  0
 16 15  2  0
 18 17  1  0
 19 18  2  0
 20 19  1  0
 21 20  2  0
 21 27  1  0
 23 22  1  6
 22 21  1  0
 23 25  1  0
 23 24  1  0
 25 26  1  0
 27 28  2  0
 28 18  1  0
 29 25  2  0
M  END
$$$$
