DLY.pdb
     RDKit          3D

 29 29  0  0  1  0  0  0  0  0999 V2000
   27.6378  -22.1291  -19.1084 N   0  0  0  0  0  0  0  0  0  0  0  0
   28.4973  -22.5516  -18.0271 C   0  0  1  0  0  0  0  0  0  0  0  0
   29.9058  -22.6384  -18.5148 C   0  0  0  0  0  0  0  0  0  0  0  0
   30.2996  -21.6251  -19.4983 C   0  0  0  0  0  0  0  0  0  0  0  0
   29.5664  -20.7376  -19.9771 O   0  0  0  0  0  0  0  0  0  0  0  0
   28.3933  -21.6298  -16.8589 C   0  0  0  0  0  0  0  0  0  0  0  0
   29.0592  -21.8626  -15.7927 O   0  0  0  0  0  0  0  0  0  0  0  0
   31.6201  -21.6544  -19.9428 O   0  0  0  0  0  0  0  0  0  0  0  0
   27.2017  -16.2668  -17.4034 C   0  0  0  0  0  0  0  0  0  0  0  0
   27.7697  -17.6199  -17.0318 C   0  0  1  0  0  0  0  0  0  0  0  0
   29.1087  -17.3352  -16.3482 C   0  0  0  0  0  0  0  0  0  0  0  0
   26.9022  -18.3182  -16.0451 C   0  0  0  0  0  0  0  0  0  0  0  0
   27.3788  -19.6787  -15.6338 C   0  0  2  0  0  0  0  0  0  0  0  0
   27.5884  -20.4775  -16.8339 N   0  0  0  0  0  0  0  0  0  0  0  0
   26.4611  -20.3554  -14.6934 C   0  0  0  0  0  0  0  0  0  0  0  0
   25.5284  -21.0409  -15.1542 O   0  0  0  0  0  0  0  0  0  0  0  0
   22.5214  -21.8075   -6.7807 O   0  0  0  0  0  0  0  0  0  0  0  0
   23.4129  -21.4996   -7.8051 C   0  0  0  0  0  0  0  0  0  0  0  0
   24.3469  -22.4248   -8.2197 C   0  0  0  0  0  0  0  0  0  0  0  0
   25.2449  -22.1491   -9.2335 C   0  0  0  0  0  0  0  0  0  0  0  0
   25.2462  -20.9286   -9.8790 C   0  0  0  0  0  0  0  0  0  0  0  0
   26.1846  -20.5791  -10.9668 C   0  0  0  0  0  0  0  0  0  0  0  0
   25.6546  -20.8826  -12.3476 C   0  0  2  0  0  0  0  0  0  0  0  0
   26.6035  -20.2530  -13.2780 N   0  0  0  0  0  0  0  0  0  0  0  0
   24.3395  -20.2622  -12.6233 C   0  0  0  0  0  0  0  0  0  0  0  0
   24.1825  -18.9351  -13.0060 O   0  0  0  0  0  0  0  0  0  0  0  0
   24.3150  -19.9971   -9.4704 C   0  0  0  0  0  0  0  0  0  0  0  0
   23.4095  -20.2790   -8.4462 C   0  0  0  0  0  0  0  0  0  0  0  0
   23.2918  -20.9842  -12.5036 O   0  0  0  0  0  0  0  0  0  0  0  0
  2  1  1  6
  2  3  1  0
  4  3  1  0
  4  8  1  0
  5  4  2  0
  6  2  1  0
  7  6  2  0
 10 12  1  0
 10  9  1  1
 11 10  1  0
 13 12  1  6
 13 14  1  0
 14  6  1  0
 15 24  1  0
 15 13  1  0
 16 15  2  0
 18 17  1  0
 19 18  2  0
 20 19  1  0
 21 20  2  0
 21 27  1  0
 23 22  1  1
 22 21  1  0
 23 25  1  0
 23 24  1  0
 25 26  1  0
 27 28  2  0
 28 18  1  0
 29 25  2  0
M  END
$$$$
