YTP.pdb
     RDKit          3D

 27 28  0  0  1  0  0  0  0  0999 V2000
    6.2944  -10.9810   27.0675 O   0  0  0  0  0  0  0  0  0  0  0  0
    6.6543  -12.3053   27.0165 C   0  0  0  0  0  0  0  0  0  0  0  0
    7.9781  -12.6535   27.0222 C   0  0  0  0  0  0  0  0  0  0  0  0
    8.3791  -13.9898   26.9709 C   0  0  0  0  0  0  0  0  0  0  0  0
    7.3779  -14.9330   26.9148 C   0  0  0  0  0  0  0  0  0  0  0  0
    7.7381  -16.3907   26.8576 C   0  0  0  0  0  0  0  0  0  0  0  0
    6.8476  -16.9850   25.7706 C   0  0  2  0  0  0  0  0  0  0  0  0
    6.4951  -18.3421   26.0530 N   0  0  0  0  0  0  0  0  0  0  0  0
    7.5283  -16.8453   24.4475 C   0  0  0  0  0  0  0  0  0  0  0  0
    8.2606  -17.7990   24.0590 O   0  0  0  0  0  0  0  0  0  0  0  0
    6.0399  -14.6006   26.9082 C   0  0  0  0  0  0  0  0  0  0  0  0
    5.6981  -13.2770   26.9597 C   0  0  0  0  0  0  0  0  0  0  0  0
    8.2104  -14.1967   20.2396 C   0  0  0  0  0  0  0  0  0  0  0  0
    7.5444  -14.4374   21.5924 C   0  0  1  0  0  0  0  0  0  0  0  0
    6.1908  -14.7897   21.1624 O   0  0  0  0  0  0  0  0  0  0  0  0
    8.0490  -15.6265   22.2774 C   0  0  2  0  0  0  0  0  0  0  0  0
    7.3949  -15.7218   23.6273 N   0  0  0  0  0  0  0  0  0  0  0  0
    9.4540  -15.9218   22.4108 C   0  0  0  0  0  0  0  0  0  0  0  0
   10.0228  -15.0698   23.3150 O   0  0  0  0  0  0  0  0  0  0  0  0
   10.4053  -16.8015   21.9147 N   0  0  0  0  0  0  0  0  0  0  0  0
    9.9417  -18.1622   21.3035 C   0  0  0  0  0  0  0  0  0  0  0  0
   10.7161  -18.0905   19.9827 C   0  0  0  0  0  0  0  0  0  0  0  0
   11.8567  -17.0626   20.2137 C   0  0  0  0  0  0  0  0  0  0  0  0
   11.7939  -17.0236   21.7294 C   0  0  1  0  0  0  0  0  0  0  0  0
   12.8334  -16.3930   22.4593 C   0  0  0  0  0  0  0  0  0  0  0  0
   14.1698  -16.6813   22.1368 O   0  0  0  0  0  0  0  0  0  0  0  0
   12.6733  -15.5564   23.4066 O   0  0  0  0  0  0  0  0  0  0  0  0
  2 12  2  0
  2  1  1  0
  3  2  1  0
  4  5  1  0
  4  3  2  0
  5 11  2  0
  6  7  1  0
  6  5  1  0
  7  9  1  0
  7  8  1  1
  9 17  1  0
  9 10  2  0
 11 12  1  0
 14 13  1  6
 15 14  1  0
 16 14  1  0
 16 18  1  0
 16 17  1  1
 18 19  2  0
 20 21  1  0
 20 18  1  0
 22 21  1  0
 23 24  1  0
 23 22  1  0
 24 20  1  0
 24 25  1  6
 25 26  1  0
 27 25  2  0
M  END
$$$$
