YTP.pdb
     RDKit          3D

 27 28  0  0  1  0  0  0  0  0999 V2000
    9.4501  -13.5074   15.8813 O   0  0  0  0  0  0  0  0  0  0  0  0
    8.9921  -13.6038   17.1723 C   0  0  0  0  0  0  0  0  0  0  0  0
    9.7217  -14.2891   18.1060 C   0  0  0  0  0  0  0  0  0  0  0  0
    9.2856  -14.4070   19.4269 C   0  0  0  0  0  0  0  0  0  0  0  0
    8.0896  -13.8005   19.7385 C   0  0  0  0  0  0  0  0  0  0  0  0
    7.5603  -13.8877   21.1422 C   0  0  0  0  0  0  0  0  0  0  0  0
    7.0720  -15.3243   21.3018 C   0  0  2  0  0  0  0  0  0  0  0  0
    5.8896  -15.5737   20.5366 N   0  0  0  0  0  0  0  0  0  0  0  0
    6.8734  -15.6169   22.7538 C   0  0  0  0  0  0  0  0  0  0  0  0
    5.7939  -15.2352   23.2886 O   0  0  0  0  0  0  0  0  0  0  0  0
    7.3417  -13.1064   18.8113 C   0  0  0  0  0  0  0  0  0  0  0  0
    7.8120  -13.0195   17.5296 C   0  0  0  0  0  0  0  0  0  0  0  0
    6.9205  -18.1574   26.7235 C   0  0  0  0  0  0  0  0  0  0  0  0
    7.3222  -17.8860   25.2756 C   0  0  1  0  0  0  0  0  0  0  0  0
    6.0467  -18.1216   24.5980 O   0  0  0  0  0  0  0  0  0  0  0  0
    7.6362  -16.4810   25.0204 C   0  0  2  0  0  0  0  0  0  0  0  0
    7.8147  -16.2857   23.5408 N   0  0  0  0  0  0  0  0  0  0  0  0
    8.6746  -15.7664   25.7203 C   0  0  0  0  0  0  0  0  0  0  0  0
    9.8999  -16.2182   25.3184 O   0  0  0  0  0  0  0  0  0  0  0  0
    8.8192  -14.7623   26.6670 N   0  0  0  0  0  0  0  0  0  0  0  0
    8.2688  -13.3342   26.3551 C   0  0  0  0  0  0  0  0  0  0  0  0
    7.4731  -13.1134   27.6463 C   0  0  0  0  0  0  0  0  0  0  0  0
    8.0597  -14.1094   28.6831 C   0  0  0  0  0  0  0  0  0  0  0  0
    9.3436  -14.4411   27.9451 C   0  0  1  0  0  0  0  0  0  0  0  0
   10.3751  -15.1481   28.6135 C   0  0  0  0  0  0  0  0  0  0  0  0
   11.1812  -14.4690   29.5421 O   0  0  0  0  0  0  0  0  0  0  0  0
   10.6507  -16.3821   28.4577 O   0  0  0  0  0  0  0  0  0  0  0  0
  2 12  2  0
  2  1  1  0
  3  2  1  0
  4  5  1  0
  4  3  2  0
  5 11  2  0
  6  7  1  0
  6  5  1  0
  7  9  1  0
  7  8  1  6
  9 17  1  0
  9 10  2  0
 11 12  1  0
 14 13  1  1
 15 14  1  0
 16 14  1  0
 16 18  1  0
 16 17  1  6
 18 19  2  0
 20 21  1  0
 20 18  1  0
 22 21  1  0
 23 24  1  0
 23 22  1  0
 24 20  1  0
 24 25  1  1
 25 26  1  0
 27 25  2  0
M  END
$$$$
