YTP.pdb
     RDKit          3D

 27 28  0  0  1  0  0  0  0  0999 V2000
    9.6021  -13.0265   16.5957 O   0  0  0  0  0  0  0  0  0  0  0  0
    8.9691  -13.2943   17.7846 C   0  0  0  0  0  0  0  0  0  0  0  0
    7.6143  -13.4886   17.8079 C   0  0  0  0  0  0  0  0  0  0  0  0
    6.9390  -13.7623   18.9987 C   0  0  0  0  0  0  0  0  0  0  0  0
    7.7040  -13.8261   20.1415 C   0  0  0  0  0  0  0  0  0  0  0  0
    7.0419  -14.1168   21.4588 C   0  0  0  0  0  0  0  0  0  0  0  0
    7.0053  -15.6383   21.5660 C   0  0  2  0  0  0  0  0  0  0  0  0
    5.9644  -16.2044   20.7649 N   0  0  0  0  0  0  0  0  0  0  0  0
    6.8816  -16.0264   23.0038 C   0  0  0  0  0  0  0  0  0  0  0  0
    5.7196  -16.1035   23.4945 O   0  0  0  0  0  0  0  0  0  0  0  0
    9.0691  -13.6332   20.1368 C   0  0  0  0  0  0  0  0  0  0  0  0
    9.6844  -13.3675   18.9442 C   0  0  0  0  0  0  0  0  0  0  0  0
    7.2089  -18.4679   26.8579 C   0  0  0  0  0  0  0  0  0  0  0  0
    7.4159  -18.0327   25.4090 C   0  0  1  0  0  0  0  0  0  0  0  0
    6.0362  -18.0666   24.9223 O   0  0  0  0  0  0  0  0  0  0  0  0
    7.8311  -16.6366   25.2824 C   0  0  2  0  0  0  0  0  0  0  0  0
    7.9783  -16.3055   23.8237 N   0  0  0  0  0  0  0  0  0  0  0  0
    8.9438  -16.0769   26.0088 C   0  0  0  0  0  0  0  0  0  0  0  0
   10.0851  -16.7673   25.7126 O   0  0  0  0  0  0  0  0  0  0  0  0
    9.2190  -15.0559   26.9073 N   0  0  0  0  0  0  0  0  0  0  0  0
    8.8630  -13.5844   26.5229 C   0  0  0  0  0  0  0  0  0  0  0  0
    8.1020  -13.1977   27.7959 C   0  0  0  0  0  0  0  0  0  0  0  0
    8.5502  -14.2109   28.8837 C   0  0  0  0  0  0  0  0  0  0  0  0
    9.7797  -14.7451   28.1725 C   0  0  1  0  0  0  0  0  0  0  0  0
   10.7077  -15.5490   28.8820 C   0  0  0  0  0  0  0  0  0  0  0  0
   10.8160  -16.9131   28.5645 O   0  0  0  0  0  0  0  0  0  0  0  0
   11.4861  -15.1446   29.8058 O   0  0  0  0  0  0  0  0  0  0  0  0
  2 12  2  0
  2  1  1  0
  3  2  1  0
  4  5  1  0
  4  3  2  0
  5 11  2  0
  6  7  1  0
  6  5  1  0
  7  9  1  0
  7  8  1  6
  9 17  1  0
  9 10  2  0
 11 12  1  0
 14 13  1  1
 15 14  1  0
 16 14  1  0
 16 18  1  0
 16 17  1  6
 18 19  2  0
 20 21  1  0
 20 18  1  0
 22 21  1  0
 23 24  1  0
 23 22  1  0
 24 20  1  0
 24 25  1  1
 25 26  1  0
 27 25  2  0
M  END
$$$$
