YTP.pdb
     RDKit          3D

 27 28  0  0  1  0  0  0  0  0999 V2000
   10.8730  -14.8537   31.2441 O   0  0  0  0  0  0  0  0  0  0  0  0
   10.4992  -15.5706   30.1341 C   0  0  0  0  0  0  0  0  0  0  0  0
   10.4475  -16.9373   30.1898 C   0  0  0  0  0  0  0  0  0  0  0  0
   10.0722  -17.6970   29.0803 C   0  0  0  0  0  0  0  0  0  0  0  0
    9.7584  -17.0021   27.9340 C   0  0  0  0  0  0  0  0  0  0  0  0
    9.3460  -17.7568   26.7017 C   0  0  0  0  0  0  0  0  0  0  0  0
    7.8249  -17.6498   26.6520 C   0  0  2  0  0  0  0  0  0  0  0  0
    7.2073  -18.9231   26.4447 N   0  0  0  0  0  0  0  0  0  0  0  0
    7.4364  -16.6595   25.6024 C   0  0  0  0  0  0  0  0  0  0  0  0
    6.9553  -17.1053   24.5223 O   0  0  0  0  0  0  0  0  0  0  0  0
    9.8049  -15.6262   27.8598 C   0  0  0  0  0  0  0  0  0  0  0  0
   10.1790  -14.9269   28.9745 C   0  0  0  0  0  0  0  0  0  0  0  0
    8.0074  -12.3295   25.9391 C   0  0  0  0  0  0  0  0  0  0  0  0
    6.7338  -13.0364   25.4811 C   0  0  1  0  0  0  0  0  0  0  0  0
    6.2749  -12.1107   24.4448 O   0  0  0  0  0  0  0  0  0  0  0  0
    6.9946  -14.2936   24.7818 C   0  0  2  0  0  0  0  0  0  0  0  0
    7.5780  -15.2778   25.7565 N   0  0  0  0  0  0  0  0  0  0  0  0
    7.7248  -14.3677   23.5408 C   0  0  0  0  0  0  0  0  0  0  0  0
    9.0175  -14.7367   23.7850 O   0  0  0  0  0  0  0  0  0  0  0  0
    7.5252  -14.1880   22.1795 N   0  0  0  0  0  0  0  0  0  0  0  0
    6.0748  -13.9666   21.6434 C   0  0  0  0  0  0  0  0  0  0  0  0
    6.3377  -12.7187   20.7933 C   0  0  0  0  0  0  0  0  0  0  0  0
    7.8665  -12.7028   20.5225 C   0  0  0  0  0  0  0  0  0  0  0  0
    8.1587  -14.1403   20.9113 C   0  0  1  0  0  0  0  0  0  0  0  0
    9.4188  -14.7102   20.5983 C   0  0  0  0  0  0  0  0  0  0  0  0
   10.5806  -14.1553   21.1600 O   0  0  0  0  0  0  0  0  0  0  0  0
    9.6112  -15.7145   19.8385 O   0  0  0  0  0  0  0  0  0  0  0  0
  2 12  2  0
  2  1  1  0
  3  2  1  0
  4  5  1  0
  4  3  2  0
  5 11  2  0
  6  7  1  0
  6  5  1  0
  7  9  1  0
  7  8  1  6
  9 17  1  0
  9 10  2  0
 11 12  1  0
 14 13  1  6
 15 14  1  0
 16 14  1  0
 16 18  1  0
 16 17  1  1
 18 19  2  0
 20 21  1  0
 20 18  1  0
 22 21  1  0
 23 24  1  0
 23 22  1  0
 24 20  1  0
 24 25  1  1
 25 26  1  0
 27 25  2  0
M  END
$$$$
