YTP.pdb
     RDKit          3D

 27 28  0  0  1  0  0  0  0  0999 V2000
    9.0729  -13.1864   15.7474 O   0  0  0  0  0  0  0  0  0  0  0  0
    8.4211  -13.5058   16.9132 C   0  0  0  0  0  0  0  0  0  0  0  0
    8.7207  -12.8354   18.0684 C   0  0  0  0  0  0  0  0  0  0  0  0
    8.0778  -13.1347   19.2709 C   0  0  0  0  0  0  0  0  0  0  0  0
    7.1318  -14.1343   19.2329 C   0  0  0  0  0  0  0  0  0  0  0  0
    6.4009  -14.5083   20.4915 C   0  0  0  0  0  0  0  0  0  0  0  0
    7.1470  -15.7169   21.0485 C   0  0  2  0  0  0  0  0  0  0  0  0
    6.8470  -16.9108   20.3204 N   0  0  0  0  0  0  0  0  0  0  0  0
    6.8402  -15.8550   22.5046 C   0  0  0  0  0  0  0  0  0  0  0  0
    5.6804  -16.2388   22.8276 O   0  0  0  0  0  0  0  0  0  0  0  0
    6.8174  -14.8199   18.0789 C   0  0  0  0  0  0  0  0  0  0  0  0
    7.4756  -14.4894   16.9260 C   0  0  0  0  0  0  0  0  0  0  0  0
    6.2665  -17.7546   23.8359 C   0  0  0  0  0  0  0  0  0  0  0  0
    7.0437  -17.2852   25.0635 C   0  0  1  0  0  0  0  0  0  0  0  0
    8.2565  -18.0939   24.9346 O   0  0  0  0  0  0  0  0  0  0  0  0
    7.4966  -15.8988   24.9609 C   0  0  2  0  0  0  0  0  0  0  0  0
    7.7652  -15.5829   23.5161 N   0  0  0  0  0  0  0  0  0  0  0  0
    8.5600  -15.3557   25.7691 C   0  0  0  0  0  0  0  0  0  0  0  0
    9.7193  -16.0380   25.5292 O   0  0  0  0  0  0  0  0  0  0  0  0
    8.7756  -14.3564   26.7072 N   0  0  0  0  0  0  0  0  0  0  0  0
    8.4735  -12.8724   26.3247 C   0  0  0  0  0  0  0  0  0  0  0  0
    7.6168  -12.4975   27.5391 C   0  0  0  0  0  0  0  0  0  0  0  0
    7.9600  -13.5380   28.6393 C   0  0  0  0  0  0  0  0  0  0  0  0
    9.2356  -14.0784   28.0199 C   0  0  1  0  0  0  0  0  0  0  0  0
   10.0908  -14.9103   28.7862 C   0  0  0  0  0  0  0  0  0  0  0  0
   10.9079  -14.3312   29.7713 O   0  0  0  0  0  0  0  0  0  0  0  0
   10.1921  -16.1752   28.6737 O   0  0  0  0  0  0  0  0  0  0  0  0
  2 12  2  0
  2  1  1  0
  3  2  1  0
  4  5  1  0
  4  3  2  0
  5 11  2  0
  6  7  1  0
  6  5  1  0
  7  9  1  0
  7  8  1  6
  9 17  1  0
  9 10  2  0
 11 12  1  0
 14 13  1  6
 15 14  1  0
 16 14  1  0
 16 18  1  0
 16 17  1  6
 18 19  2  0
 20 21  1  0
 20 18  1  0
 22 21  1  0
 23 24  1  0
 23 22  1  0
 24 20  1  0
 24 25  1  1
 25 26  1  0
 27 25  2  0
M  END
$$$$
