YTP.pdb
     RDKit          3D

 27 28  0  0  1  0  0  0  0  0999 V2000
   10.0613  -15.4921   31.6889 O   0  0  0  0  0  0  0  0  0  0  0  0
   10.2801  -15.2994   30.3469 C   0  0  0  0  0  0  0  0  0  0  0  0
   11.1842  -16.0842   29.6832 C   0  0  0  0  0  0  0  0  0  0  0  0
   11.4313  -15.9153   28.3196 C   0  0  0  0  0  0  0  0  0  0  0  0
   10.7211  -14.9233   27.6819 C   0  0  0  0  0  0  0  0  0  0  0  0
   10.9375  -14.6865   26.2138 C   0  0  0  0  0  0  0  0  0  0  0  0
   10.5933  -16.0092   25.5357 C   0  0  2  0  0  0  0  0  0  0  0  0
   11.4219  -17.0782   26.0009 N   0  0  0  0  0  0  0  0  0  0  0  0
   10.6773  -15.8376   24.0536 C   0  0  0  0  0  0  0  0  0  0  0  0
   11.8046  -15.5558   23.5569 O   0  0  0  0  0  0  0  0  0  0  0  0
    9.8068  -14.1236   28.3342 C   0  0  0  0  0  0  0  0  0  0  0  0
    9.6003  -14.3285   29.6709 C   0  0  0  0  0  0  0  0  0  0  0  0
   11.9102  -17.0690   21.9041 C   0  0  0  0  0  0  0  0  0  0  0  0
   10.5290  -17.0351   21.2538 C   0  0  1  0  0  0  0  0  0  0  0  0
    9.9200  -18.2178   21.8634 O   0  0  0  0  0  0  0  0  0  0  0  0
    9.7105  -15.9099   21.7028 C   0  0  2  0  0  0  0  0  0  0  0  0
    9.5800  -15.9726   23.1989 N   0  0  0  0  0  0  0  0  0  0  0  0
    8.4265  -15.5916   21.1292 C   0  0  0  0  0  0  0  0  0  0  0  0
    7.4561  -16.3572   21.7115 O   0  0  0  0  0  0  0  0  0  0  0  0
    7.8684  -14.7497   20.1780 N   0  0  0  0  0  0  0  0  0  0  0  0
    7.3163  -13.3572   20.6210 C   0  0  0  0  0  0  0  0  0  0  0  0
    8.0257  -12.4911   19.5741 C   0  0  0  0  0  0  0  0  0  0  0  0
    8.4191  -13.4540   18.4213 C   0  0  0  0  0  0  0  0  0  0  0  0
    7.5225  -14.6153   18.8090 C   0  0  1  0  0  0  0  0  0  0  0  0
    7.3276  -15.6860   17.8999 C   0  0  0  0  0  0  0  0  0  0  0  0
    8.4096  -16.5256   17.5877 O   0  0  0  0  0  0  0  0  0  0  0  0
    6.2305  -15.9791   17.3224 O   0  0  0  0  0  0  0  0  0  0  0  0
  2 12  2  0
  2  1  1  0
  3  2  1  0
  4  5  1  0
  4  3  2  0
  5 11  2  0
  6  7  1  0
  6  5  1  0
  7  9  1  0
  7  8  1  1
  9 17  1  0
  9 10  2  0
 11 12  1  0
 14 13  1  1
 15 14  1  0
 16 14  1  0
 16 18  1  0
 16 17  1  1
 18 19  2  0
 20 21  1  0
 20 18  1  0
 22 21  1  0
 23 24  1  0
 23 22  1  0
 24 20  1  0
 24 25  1  6
 25 26  1  0
 27 25  2  0
M  END
$$$$
