YTP.pdb
     RDKit          3D

 27 28  0  0  1  0  0  0  0  0999 V2000
   10.3389  -16.8874   30.6066 O   0  0  0  0  0  0  0  0  0  0  0  0
   10.7996  -16.4881   29.3760 C   0  0  0  0  0  0  0  0  0  0  0  0
   10.4295  -15.2710   28.8708 C   0  0  0  0  0  0  0  0  0  0  0  0
   10.8789  -14.8340   27.6233 C   0  0  0  0  0  0  0  0  0  0  0  0
   11.7094  -15.6877   26.9327 C   0  0  0  0  0  0  0  0  0  0  0  0
   12.2305  -15.2809   25.5832 C   0  0  0  0  0  0  0  0  0  0  0  0
   11.6766  -16.3147   24.6074 C   0  0  2  0  0  0  0  0  0  0  0  0
   12.7157  -16.9519   23.8591 N   0  0  0  0  0  0  0  0  0  0  0  0
   10.6660  -15.6615   23.7213 C   0  0  0  0  0  0  0  0  0  0  0  0
   11.0729  -14.7729   22.9201 O   0  0  0  0  0  0  0  0  0  0  0  0
   12.0923  -16.9168   27.4260 C   0  0  0  0  0  0  0  0  0  0  0  0
   11.6249  -17.2995   28.6534 C   0  0  0  0  0  0  0  0  0  0  0  0
    6.5819  -14.6290   21.4519 C   0  0  0  0  0  0  0  0  0  0  0  0
    7.6368  -15.5574   22.0492 C   0  0  1  0  0  0  0  0  0  0  0  0
    8.6806  -15.4643   21.0278 O   0  0  0  0  0  0  0  0  0  0  0  0
    8.2461  -15.0258   23.2673 C   0  0  2  0  0  0  0  0  0  0  0  0
    9.3061  -15.9829   23.7359 N   0  0  0  0  0  0  0  0  0  0  0  0
    7.4772  -14.5792   24.4023 C   0  0  0  0  0  0  0  0  0  0  0  0
    6.6387  -15.5758   24.8152 O   0  0  0  0  0  0  0  0  0  0  0  0
    7.3267  -13.4597   25.2080 N   0  0  0  0  0  0  0  0  0  0  0  0
    8.4690  -12.3953   25.2570 C   0  0  0  0  0  0  0  0  0  0  0  0
    7.6202  -11.1435   25.0086 C   0  0  0  0  0  0  0  0  0  0  0  0
    6.1627  -11.5395   25.3688 C   0  0  0  0  0  0  0  0  0  0  0  0
    6.4791  -12.8076   26.1399 C   0  0  1  0  0  0  0  0  0  0  0  0
    5.4655  -13.4332   26.9092 C   0  0  0  0  0  0  0  0  0  0  0  0
    4.6942  -14.4528   26.3272 O   0  0  0  0  0  0  0  0  0  0  0  0
    5.1774  -13.1603   28.1198 O   0  0  0  0  0  0  0  0  0  0  0  0
  2 12  2  0
  2  1  1  0
  3  2  1  0
  4  5  1  0
  4  3  2  0
  5 11  2  0
  6  7  1  0
  6  5  1  0
  7  9  1  0
  7  8  1  6
  9 17  1  0
  9 10  2  0
 11 12  1  0
 14 13  1  6
 15 14  1  0
 16 14  1  0
 16 18  1  0
 16 17  1  1
 18 19  2  0
 20 21  1  0
 20 18  1  0
 22 21  1  0
 23 24  1  0
 23 22  1  0
 24 20  1  0
 24 25  1  6
 25 26  1  0
 27 25  2  0
M  END
$$$$
