YTP.pdb
     RDKit          3D

 27 28  0  0  1  0  0  0  0  0999 V2000
   10.7784  -15.5903   31.1831 O   0  0  0  0  0  0  0  0  0  0  0  0
   10.5881  -15.4450   29.8308 C   0  0  0  0  0  0  0  0  0  0  0  0
   10.3433  -16.5450   29.0539 C   0  0  0  0  0  0  0  0  0  0  0  0
   10.1456  -16.4335   27.6764 C   0  0  0  0  0  0  0  0  0  0  0  0
   10.2094  -15.1653   27.1444 C   0  0  0  0  0  0  0  0  0  0  0  0
   10.0060  -14.9720   25.6681 C   0  0  0  0  0  0  0  0  0  0  0  0
   10.9858  -15.9292   24.9962 C   0  0  2  0  0  0  0  0  0  0  0  0
   12.3322  -15.6987   25.4204 N   0  0  0  0  0  0  0  0  0  0  0  0
   10.8382  -15.8218   23.5130 C   0  0  0  0  0  0  0  0  0  0  0  0
   11.4178  -14.8607   22.9321 O   0  0  0  0  0  0  0  0  0  0  0  0
   10.4548  -14.0464   27.9115 C   0  0  0  0  0  0  0  0  0  0  0  0
   10.6420  -14.2082   29.2570 C   0  0  0  0  0  0  0  0  0  0  0  0
   10.6417  -17.4989   19.0670 C   0  0  0  0  0  0  0  0  0  0  0  0
   10.5728  -17.6769   20.5819 C   0  0  1  0  0  0  0  0  0  0  0  0
   11.9894  -17.5540   20.9279 O   0  0  0  0  0  0  0  0  0  0  0  0
    9.9157  -16.5617   21.2618 C   0  0  2  0  0  0  0  0  0  0  0  0
   10.0974  -16.7242   22.7450 N   0  0  0  0  0  0  0  0  0  0  0  0
    8.5554  -16.1665   20.9926 C   0  0  0  0  0  0  0  0  0  0  0  0
    7.6971  -17.1422   21.4149 O   0  0  0  0  0  0  0  0  0  0  0  0
    7.8467  -15.1063   20.4460 N   0  0  0  0  0  0  0  0  0  0  0  0
    8.1641  -13.6517   20.9185 C   0  0  0  0  0  0  0  0  0  0  0  0
    8.3273  -12.9989   19.5414 C   0  0  0  0  0  0  0  0  0  0  0  0
    7.6043  -13.9373   18.5375 C   0  0  0  0  0  0  0  0  0  0  0  0
    6.8104  -14.7453   19.5473 C   0  0  1  0  0  0  0  0  0  0  0  0
    5.7720  -15.6017   19.1010 C   0  0  0  0  0  0  0  0  0  0  0  0
    6.1026  -16.7667   18.3892 O   0  0  0  0  0  0  0  0  0  0  0  0
    4.5258  -15.4196   19.2928 O   0  0  0  0  0  0  0  0  0  0  0  0
  2 12  2  0
  2  1  1  0
  3  2  1  0
  4  5  1  0
  4  3  2  0
  5 11  2  0
  6  7  1  0
  6  5  1  0
  7  9  1  0
  7  8  1  6
  9 17  1  0
  9 10  2  0
 11 12  1  0
 14 13  1  6
 15 14  1  0
 16 14  1  0
 16 18  1  0
 16 17  1  1
 18 19  2  0
 20 21  1  0
 20 18  1  0
 22 21  1  0
 23 24  1  0
 23 22  1  0
 24 20  1  0
 24 25  1  6
 25 26  1  0
 27 25  2  0
M  END
$$$$
