YTP.pdb
     RDKit          3D

 27 28  0  0  1  0  0  0  0  0999 V2000
    5.9328  -10.6313   27.0176 O   0  0  0  0  0  0  0  0  0  0  0  0
    6.3586  -11.9329   26.9156 C   0  0  0  0  0  0  0  0  0  0  0  0
    5.4498  -12.9548   26.9735 C   0  0  0  0  0  0  0  0  0  0  0  0
    5.8480  -14.2892   26.8735 C   0  0  0  0  0  0  0  0  0  0  0  0
    7.1957  -14.5208   26.7144 C   0  0  0  0  0  0  0  0  0  0  0  0
    7.6944  -15.9337   26.6001 C   0  0  0  0  0  0  0  0  0  0  0  0
    6.7782  -16.6047   25.5811 C   0  0  2  0  0  0  0  0  0  0  0  0
    6.3637  -17.9043   26.0112 N   0  0  0  0  0  0  0  0  0  0  0  0
    7.4653  -16.6448   24.2547 C   0  0  0  0  0  0  0  0  0  0  0  0
    8.0583  -17.7128   23.9312 O   0  0  0  0  0  0  0  0  0  0  0  0
    8.1250  -13.5042   26.6541 C   0  0  0  0  0  0  0  0  0  0  0  0
    7.6845  -12.2131   26.7571 C   0  0  0  0  0  0  0  0  0  0  0  0
    8.3624  -14.4723   19.8280 C   0  0  0  0  0  0  0  0  0  0  0  0
    7.7107  -14.5118   21.2083 C   0  0  1  0  0  0  0  0  0  0  0  0
    6.3284  -14.8203   20.8401 O   0  0  0  0  0  0  0  0  0  0  0  0
    8.1518  -15.6455   22.0194 C   0  0  2  0  0  0  0  0  0  0  0  0
    7.4832  -15.5686   23.3634 N   0  0  0  0  0  0  0  0  0  0  0  0
    9.5397  -15.9914   22.2009 C   0  0  0  0  0  0  0  0  0  0  0  0
   10.1296  -15.1062   23.0584 O   0  0  0  0  0  0  0  0  0  0  0  0
   10.4599  -16.9423   21.7834 N   0  0  0  0  0  0  0  0  0  0  0  0
    9.9482  -18.3268   21.2721 C   0  0  0  0  0  0  0  0  0  0  0  0
   10.7354  -18.3858   19.9583 C   0  0  0  0  0  0  0  0  0  0  0  0
   11.9135  -17.3879   20.1232 C   0  0  0  0  0  0  0  0  0  0  0  0
   11.8402  -17.2311   21.6308 C   0  0  1  0  0  0  0  0  0  0  0  0
   12.8976  -16.5871   22.3221 C   0  0  0  0  0  0  0  0  0  0  0  0
   13.9335  -17.3638   22.8670 O   0  0  0  0  0  0  0  0  0  0  0  0
   13.0119  -15.3308   22.4996 O   0  0  0  0  0  0  0  0  0  0  0  0
  2 12  2  0
  2  1  1  0
  3  2  1  0
  4  5  1  0
  4  3  2  0
  5 11  2  0
  6  7  1  0
  6  5  1  0
  7  9  1  0
  7  8  1  1
  9 17  1  0
  9 10  2  0
 11 12  1  0
 14 13  1  6
 15 14  1  0
 16 14  1  0
 16 18  1  0
 16 17  1  1
 18 19  2  0
 20 21  1  0
 20 18  1  0
 22 21  1  0
 23 24  1  0
 23 22  1  0
 24 20  1  0
 24 25  1  6
 25 26  1  0
 27 25  2  0
M  END
$$$$
