MLW.pdb
     RDKit          3D

 31 32  0  0  1  0  0  0  0  0999 V2000
   11.6709  -18.0861   14.3607 C   0  0  0  0  0  0  0  0  0  0  0  0
   10.2500  -19.1774   14.5109 S   0  0  0  0  0  0  0  0  0  0  0  0
    9.5685  -19.1420   16.2115 C   0  0  0  0  0  0  0  0  0  0  0  0
   10.6043  -18.4992   17.0772 C   0  0  0  0  0  0  0  0  0  0  0  0
   10.2522  -18.4179   18.5254 C   0  0  2  0  0  0  0  0  0  0  0  0
    8.9112  -18.8243   18.8163 N   0  0  0  0  0  0  0  0  0  0  0  0
   10.6123  -17.1114   19.1572 C   0  0  0  0  0  0  0  0  0  0  0  0
   11.7926  -16.7567   19.1452 O   0  0  0  0  0  0  0  0  0  0  0  0
    7.2531  -12.2447   20.1718 C   0  0  0  0  0  0  0  0  0  0  0  0
    8.5911  -12.9648   19.8628 C   0  0  2  0  0  0  0  0  0  0  0  0
    8.4245  -13.4164   18.3971 C   0  0  0  0  0  0  0  0  0  0  0  0
    8.6146  -14.1858   20.6862 C   0  0  0  0  0  0  0  0  0  0  0  0
    9.8065  -15.0858   20.4962 C   0  0  2  0  0  0  0  0  0  0  0  0
    9.6512  -16.2771   19.7629 N   0  0  0  0  0  0  0  0  0  0  0  0
   10.6771  -15.1318   21.6770 C   0  0  0  0  0  0  0  0  0  0  0  0
   11.6244  -14.2877   21.8478 O   0  0  0  0  0  0  0  0  0  0  0  0
   10.5449  -16.0980   22.7106 N   0  0  0  0  0  0  0  0  0  0  0  0
    9.6756  -15.9071   23.8898 C   0  0  1  0  0  0  0  0  0  0  0  0
    8.4171  -15.2293   23.5022 C   0  0  0  0  0  0  0  0  0  0  0  0
    7.4878  -15.0277   24.6166 C   0  0  0  0  0  0  0  0  0  0  0  0
    6.4423  -15.8466   25.0387 C   0  0  0  0  0  0  0  0  0  0  0  0
    5.8060  -15.2981   26.0781 N   0  0  0  0  0  0  0  0  0  0  0  0
    6.3975  -14.1270   26.3687 C   0  0  0  0  0  0  0  0  0  0  0  0
    6.1073  -13.2023   27.3705 C   0  0  0  0  0  0  0  0  0  0  0  0
    6.8658  -12.0535   27.5057 C   0  0  0  0  0  0  0  0  0  0  0  0
    7.8933  -11.8774   26.6230 C   0  0  0  0  0  0  0  0  0  0  0  0
    8.1801  -12.7816   25.6393 C   0  0  0  0  0  0  0  0  0  0  0  0
    7.4458  -13.9276   25.4813 C   0  0  0  0  0  0  0  0  0  0  0  0
    9.6099  -17.1113   24.6959 C   0  0  0  0  0  0  0  0  0  0  0  0
    9.6960  -17.0219   25.9631 O   0  0  0  0  0  0  0  0  0  0  0  0
    9.4508  -18.4003   24.2094 O   0  0  0  0  0  0  0  0  0  0  0  0
  1  2  1  0
  2  3  1  0
  4  3  1  0
  5  6  1  6
  5  4  1  0
  7  8  2  0
  7  5  1  0
 10  9  1  1
 10 11  1  0
 10 12  1  0
 13 12  1  1
 13 14  1  0
 14  7  1  0
 15 13  1  0
 16 15  2  0
 17 15  1  0
 18 29  1  0
 18 17  1  0
 18 19  1  6
 20 19  1  0
 20 28  1  0
 21 22  1  0
 21 20  2  0
 22 23  1  0
 23 28  2  0
 23 24  1  0
 24 25  2  0
 25 26  1  0
 27 26  2  0
 28 27  1  0
 29 31  1  0
 30 29  2  0
M  END
$$$$
