MLW.pdb
     RDKit          3D

 31 32  0  0  1  0  0  0  0  0999 V2000
   10.9985  -20.7043   16.8425 C   0  0  0  0  0  0  0  0  0  0  0  0
    9.2034  -20.7569   16.9281 S   0  0  0  0  0  0  0  0  0  0  0  0
    8.6157  -20.4526   18.6369 C   0  0  0  0  0  0  0  0  0  0  0  0
    9.5030  -19.3975   19.2159 C   0  0  0  0  0  0  0  0  0  0  0  0
    9.1931  -19.0188   20.6260 C   0  0  2  0  0  0  0  0  0  0  0  0
    7.8152  -19.1808   20.9769 N   0  0  0  0  0  0  0  0  0  0  0  0
    9.7396  -17.6845   21.0219 C   0  0  0  0  0  0  0  0  0  0  0  0
   10.9073  -17.4166   20.7325 O   0  0  0  0  0  0  0  0  0  0  0  0
    8.3368  -13.3282   20.1696 C   0  0  0  0  0  0  0  0  0  0  0  0
    7.4350  -14.1454   21.1304 C   0  0  2  0  0  0  0  0  0  0  0  0
    6.3366  -13.1396   21.5329 C   0  0  0  0  0  0  0  0  0  0  0  0
    8.2349  -14.4108   22.3384 C   0  0  0  0  0  0  0  0  0  0  0  0
    9.3115  -15.4541   22.1997 C   0  0  2  0  0  0  0  0  0  0  0  0
    8.9670  -16.7285   21.7118 N   0  0  0  0  0  0  0  0  0  0  0  0
   10.3035  -15.3932   23.2798 C   0  0  0  0  0  0  0  0  0  0  0  0
   11.0513  -14.3680   23.4495 O   0  0  0  0  0  0  0  0  0  0  0  0
   10.5136  -16.4462   24.2106 N   0  0  0  0  0  0  0  0  0  0  0  0
   11.5163  -16.3803   25.2936 C   0  0  1  0  0  0  0  0  0  0  0  0
   11.3500  -15.1359   26.0794 C   0  0  0  0  0  0  0  0  0  0  0  0
   10.0325  -15.0055   26.7066 C   0  0  0  0  0  0  0  0  0  0  0  0
    9.3274  -15.9446   27.4567 C   0  0  0  0  0  0  0  0  0  0  0  0
    8.1422  -15.4534   27.8307 N   0  0  0  0  0  0  0  0  0  0  0  0
    8.0298  -14.2032   27.3508 C   0  0  0  0  0  0  0  0  0  0  0  0
    6.9917  -13.2829   27.4863 C   0  0  0  0  0  0  0  0  0  0  0  0
    7.0908  -12.0253   26.9186 C   0  0  0  0  0  0  0  0  0  0  0  0
    8.2370  -11.7396   26.2325 C   0  0  0  0  0  0  0  0  0  0  0  0
    9.2563  -12.6398   26.0974 C   0  0  0  0  0  0  0  0  0  0  0  0
    9.1855  -13.8925   26.6481 C   0  0  0  0  0  0  0  0  0  0  0  0
   11.6215  -17.6476   25.9915 C   0  0  0  0  0  0  0  0  0  0  0  0
   12.4943  -17.7870   26.9080 O   0  0  0  0  0  0  0  0  0  0  0  0
   10.8341  -18.7652   25.7580 O   0  0  0  0  0  0  0  0  0  0  0  0
  1  2  1  0
  2  3  1  0
  4  3  1  0
  5  6  1  6
  5  4  1  0
  7  8  2  0
  7  5  1  0
 10  9  1  6
 10 11  1  0
 10 12  1  0
 13 12  1  1
 13 14  1  0
 14  7  1  0
 15 13  1  0
 16 15  2  0
 17 15  1  0
 18 29  1  0
 18 17  1  0
 18 19  1  1
 20 19  1  0
 20 28  1  0
 21 22  1  0
 21 20  2  0
 22 23  1  0
 23 28  2  0
 23 24  1  0
 24 25  2  0
 25 26  1  0
 27 26  2  0
 28 27  1  0
 29 31  1  0
 30 29  2  0
M  END
$$$$
