MLW.pdb
     RDKit          3D

 31 32  0  0  1  0  0  0  0  0999 V2000
    6.9887  -20.4344   26.1240 C   0  0  0  0  0  0  0  0  0  0  0  0
    5.4994  -19.6995   25.4349 S   0  0  0  0  0  0  0  0  0  0  0  0
    5.5317  -19.7390   23.6032 C   0  0  0  0  0  0  0  0  0  0  0  0
    6.6986  -18.9079   23.1750 C   0  0  0  0  0  0  0  0  0  0  0  0
    6.8097  -18.6901   21.7026 C   0  0  2  0  0  0  0  0  0  0  0  0
    6.7199  -19.8935   20.9334 N   0  0  0  0  0  0  0  0  0  0  0  0
    7.9721  -17.8357   21.3094 C   0  0  0  0  0  0  0  0  0  0  0  0
    9.0109  -18.3873   20.9411 O   0  0  0  0  0  0  0  0  0  0  0  0
    7.2078  -14.1953   18.9226 C   0  0  0  0  0  0  0  0  0  0  0  0
    7.3076  -13.8164   20.4228 C   0  0  2  0  0  0  0  0  0  0  0  0
    7.1417  -12.2826   20.4165 C   0  0  0  0  0  0  0  0  0  0  0  0
    8.6931  -14.0947   20.8383 C   0  0  0  0  0  0  0  0  0  0  0  0
    8.9533  -15.4741   21.3826 C   0  0  2  0  0  0  0  0  0  0  0  0
    7.9188  -16.4276   21.3462 N   0  0  0  0  0  0  0  0  0  0  0  0
    9.8155  -15.4624   22.5704 C   0  0  0  0  0  0  0  0  0  0  0  0
   10.9010  -14.7847   22.6071 O   0  0  0  0  0  0  0  0  0  0  0  0
    9.5241  -16.1878   23.7570 N   0  0  0  0  0  0  0  0  0  0  0  0
   10.3905  -16.1633   24.9533 C   0  0  1  0  0  0  0  0  0  0  0  0
    9.9929  -15.0612   25.8593 C   0  0  0  0  0  0  0  0  0  0  0  0
    8.5432  -14.8836   25.9720 C   0  0  0  0  0  0  0  0  0  0  0  0
    7.5327  -15.8255   25.7882 C   0  0  0  0  0  0  0  0  0  0  0  0
    6.3312  -15.2638   25.9521 N   0  0  0  0  0  0  0  0  0  0  0  0
    6.5061  -13.9635   26.2429 C   0  0  0  0  0  0  0  0  0  0  0  0
    5.5636  -12.9723   26.5120 C   0  0  0  0  0  0  0  0  0  0  0  0
    5.9673  -11.6833   26.8103 C   0  0  0  0  0  0  0  0  0  0  0  0
    7.3112  -11.4389   26.8267 C   0  0  0  0  0  0  0  0  0  0  0  0
    8.2375  -12.4082   26.5628 C   0  0  0  0  0  0  0  0  0  0  0  0
    7.8671  -13.6930   26.2637 C   0  0  0  0  0  0  0  0  0  0  0  0
   10.5726  -17.4951   25.4988 C   0  0  0  0  0  0  0  0  0  0  0  0
    9.7793  -18.4281   25.1507 O   0  0  0  0  0  0  0  0  0  0  0  0
   11.5649  -17.8727   26.3912 O   0  0  0  0  0  0  0  0  0  0  0  0
  1  2  1  0
  2  3  1  0
  4  3  1  0
  5  6  1  6
  5  4  1  0
  7  8  2  0
  7  5  1  0
 10  9  1  6
 10 11  1  0
 10 12  1  0
 13 12  1  1
 13 14  1  0
 14  7  1  0
 15 13  1  0
 16 15  2  0
 17 15  1  0
 18 29  1  0
 18 17  1  0
 18 19  1  1
 20 19  1  0
 20 28  1  0
 21 22  1  0
 21 20  2  0
 22 23  1  0
 23 28  2  0
 23 24  1  0
 24 25  2  0
 25 26  1  0
 27 26  2  0
 28 27  1  0
 29 31  1  0
 30 29  2  0
M  END
$$$$
