MLW.pdb
     RDKit          3D

 31 32  0  0  1  0  0  0  0  0999 V2000
   10.2137  -17.4061   15.7486 C   0  0  0  0  0  0  0  0  0  0  0  0
   11.1398  -17.8151   17.2345 S   0  0  0  0  0  0  0  0  0  0  0  0
   10.5174  -19.3622   17.9942 C   0  0  0  0  0  0  0  0  0  0  0  0
   11.3136  -19.5802   19.2409 C   0  0  0  0  0  0  0  0  0  0  0  0
   10.5785  -19.3123   20.5121 C   0  0  2  0  0  0  0  0  0  0  0  0
    9.3289  -20.0026   20.6118 N   0  0  0  0  0  0  0  0  0  0  0  0
   10.4665  -17.8589   20.8445 C   0  0  0  0  0  0  0  0  0  0  0  0
   11.4833  -17.1638   20.7985 O   0  0  0  0  0  0  0  0  0  0  0  0
    6.3195  -13.3193   20.6946 C   0  0  0  0  0  0  0  0  0  0  0  0
    7.6553  -13.8011   21.3173 C   0  0  2  0  0  0  0  0  0  0  0  0
    8.7253  -13.0815   20.4702 C   0  0  0  0  0  0  0  0  0  0  0  0
    7.7681  -15.2387   21.0169 C   0  0  0  0  0  0  0  0  0  0  0  0
    8.9534  -15.9463   21.6178 C   0  0  2  0  0  0  0  0  0  0  0  0
    9.2426  -17.2611   21.2072 N   0  0  0  0  0  0  0  0  0  0  0  0
    9.1445  -15.6281   23.0379 C   0  0  0  0  0  0  0  0  0  0  0  0
    8.3279  -14.8751   23.6744 O   0  0  0  0  0  0  0  0  0  0  0  0
   10.2304  -16.1195   23.8116 N   0  0  0  0  0  0  0  0  0  0  0  0
   10.2775  -16.0337   25.2856 C   0  0  1  0  0  0  0  0  0  0  0  0
    8.9872  -16.4642   25.8717 C   0  0  0  0  0  0  0  0  0  0  0  0
    7.8958  -15.5098   25.6616 C   0  0  0  0  0  0  0  0  0  0  0  0
    6.6550  -15.7222   25.0640 C   0  0  0  0  0  0  0  0  0  0  0  0
    5.9470  -14.5891   25.0354 N   0  0  0  0  0  0  0  0  0  0  0  0
    6.6806  -13.6153   25.6004 C   0  0  0  0  0  0  0  0  0  0  0  0
    6.3718  -12.2731   25.8159 C   0  0  0  0  0  0  0  0  0  0  0  0
    7.2787  -11.4365   26.4413 C   0  0  0  0  0  0  0  0  0  0  0  0
    8.4685  -11.9849   26.8285 C   0  0  0  0  0  0  0  0  0  0  0  0
    8.7745  -13.3000   26.6182 C   0  0  0  0  0  0  0  0  0  0  0  0
    7.8963  -14.1516   26.0008 C   0  0  0  0  0  0  0  0  0  0  0  0
   11.5109  -16.5919   25.8064 C   0  0  0  0  0  0  0  0  0  0  0  0
   12.2648  -17.2709   25.0371 O   0  0  0  0  0  0  0  0  0  0  0  0
   11.9747  -16.4515   27.1060 O   0  0  0  0  0  0  0  0  0  0  0  0
  1  2  1  0
  2  3  1  0
  4  3  1  0
  5  6  1  6
  5  4  1  0
  7  8  2  0
  7  5  1  0
 10  9  1  6
 10 11  1  0
 10 12  1  0
 13 12  1  1
 13 14  1  0
 14  7  1  0
 15 13  1  0
 16 15  2  0
 17 15  1  0
 18 29  1  0
 18 17  1  0
 18 19  1  1
 20 19  1  0
 20 28  1  0
 21 22  1  0
 21 20  2  0
 22 23  1  0
 23 28  2  0
 23 24  1  0
 24 25  2  0
 25 26  1  0
 27 26  2  0
 28 27  1  0
 29 31  1  0
 30 29  2  0
M  END
$$$$
