MLW.pdb
     RDKit          3D

 31 32  0  0  1  0  0  0  0  0999 V2000
    9.9620  -21.9894   19.9647 C   0  0  0  0  0  0  0  0  0  0  0  0
   11.3686  -21.8078   18.8597 S   0  0  0  0  0  0  0  0  0  0  0  0
   11.3787  -20.1535   18.0718 C   0  0  0  0  0  0  0  0  0  0  0  0
   11.2580  -19.1507   19.1743 C   0  0  0  0  0  0  0  0  0  0  0  0
   11.0586  -17.7415   18.7245 C   0  0  2  0  0  0  0  0  0  0  0  0
   12.0234  -17.3011   17.7636 N   0  0  0  0  0  0  0  0  0  0  0  0
   10.8766  -16.7735   19.8494 C   0  0  0  0  0  0  0  0  0  0  0  0
   11.8764  -16.2452   20.3397 O   0  0  0  0  0  0  0  0  0  0  0  0
    8.4111  -12.8839   20.5642 C   0  0  0  0  0  0  0  0  0  0  0  0
    7.5923  -14.1908   20.4025 C   0  0  2  0  0  0  0  0  0  0  0  0
    6.1327  -13.7227   20.5771 C   0  0  0  0  0  0  0  0  0  0  0  0
    7.9118  -15.0369   21.5650 C   0  0  0  0  0  0  0  0  0  0  0  0
    9.2442  -15.7367   21.5244 C   0  0  2  0  0  0  0  0  0  0  0  0
    9.6058  -16.4475   20.3647 N   0  0  0  0  0  0  0  0  0  0  0  0
    9.6163  -16.3246   22.8168 C   0  0  0  0  0  0  0  0  0  0  0  0
    9.8666  -17.5741   22.9404 O   0  0  0  0  0  0  0  0  0  0  0  0
    9.7285  -15.5717   24.0167 N   0  0  0  0  0  0  0  0  0  0  0  0
   10.0340  -16.1801   25.3278 C   0  0  1  0  0  0  0  0  0  0  0  0
    9.7469  -15.2246   26.4224 C   0  0  0  0  0  0  0  0  0  0  0  0
    8.3420  -14.8159   26.4959 C   0  0  0  0  0  0  0  0  0  0  0  0
    7.1982  -15.5899   26.3102 C   0  0  0  0  0  0  0  0  0  0  0  0
    6.0985  -14.8402   26.4317 N   0  0  0  0  0  0  0  0  0  0  0  0
    6.4727  -13.5768   26.6956 C   0  0  0  0  0  0  0  0  0  0  0  0
    5.6952  -12.4414   26.9183 C   0  0  0  0  0  0  0  0  0  0  0  0
    6.2931  -11.2252   27.1955 C   0  0  0  0  0  0  0  0  0  0  0  0
    7.6582  -11.1971   27.2386 C   0  0  0  0  0  0  0  0  0  0  0  0
    8.4233  -12.3082   27.0202 C   0  0  0  0  0  0  0  0  0  0  0  0
    7.8587  -13.5255   26.7429 C   0  0  0  0  0  0  0  0  0  0  0  0
    9.5138  -17.5313   25.4152 C   0  0  0  0  0  0  0  0  0  0  0  0
    8.5577  -17.8847   24.6522 O   0  0  0  0  0  0  0  0  0  0  0  0
    9.9730  -18.5187   26.2742 O   0  0  0  0  0  0  0  0  0  0  0  0
  1  2  1  0
  2  3  1  0
  4  3  1  0
  5  6  1  1
  5  4  1  0
  7  8  2  0
  7  5  1  0
 10  9  1  1
 10 11  1  0
 10 12  1  0
 13 12  1  1
 13 14  1  0
 14  7  1  0
 15 13  1  0
 16 15  2  0
 17 15  1  0
 18 29  1  0
 18 17  1  0
 18 19  1  1
 20 19  1  0
 20 28  1  0
 21 22  1  0
 21 20  2  0
 22 23  1  0
 23 28  2  0
 23 24  1  0
 24 25  2  0
 25 26  1  0
 27 26  2  0
 28 27  1  0
 29 31  1  0
 30 29  2  0
M  END
$$$$
