MLW.pdb
     RDKit          3D

 31 32  0  0  1  0  0  0  0  0999 V2000
    9.8811  -22.4109   21.0732 C   0  0  0  0  0  0  0  0  0  0  0  0
   10.8988  -22.3955   19.5911 S   0  0  0  0  0  0  0  0  0  0  0  0
   10.5922  -20.8873   18.5965 C   0  0  0  0  0  0  0  0  0  0  0  0
   11.0032  -19.7238   19.4409 C   0  0  0  0  0  0  0  0  0  0  0  0
   10.6892  -18.3841   18.8624 C   0  0  2  0  0  0  0  0  0  0  0  0
   11.4924  -18.0434   17.7281 N   0  0  0  0  0  0  0  0  0  0  0  0
   10.6298  -17.2908   19.8806 C   0  0  0  0  0  0  0  0  0  0  0  0
   11.6870  -16.7942   20.2743 O   0  0  0  0  0  0  0  0  0  0  0  0
    8.7322  -13.0118   20.4260 C   0  0  0  0  0  0  0  0  0  0  0  0
    7.7749  -14.2162   20.2335 C   0  0  2  0  0  0  0  0  0  0  0  0
    6.3735  -13.5759   20.3123 C   0  0  0  0  0  0  0  0  0  0  0  0
    7.9227  -15.0691   21.4253 C   0  0  0  0  0  0  0  0  0  0  0  0
    9.1562  -15.9311   21.4697 C   0  0  2  0  0  0  0  0  0  0  0  0
    9.4109  -16.8123   20.4023 N   0  0  0  0  0  0  0  0  0  0  0  0
    9.4682  -16.4064   22.8229 C   0  0  0  0  0  0  0  0  0  0  0  0
    9.3212  -17.6339   23.1555 O   0  0  0  0  0  0  0  0  0  0  0  0
    9.9507  -15.5610   23.8583 N   0  0  0  0  0  0  0  0  0  0  0  0
   10.1476  -16.0176   25.2494 C   0  0  1  0  0  0  0  0  0  0  0  0
    9.7063  -14.9754   26.2047 C   0  0  0  0  0  0  0  0  0  0  0  0
    8.3007  -14.5919   26.0521 C   0  0  0  0  0  0  0  0  0  0  0  0
    7.2241  -15.3732   25.6370 C   0  0  0  0  0  0  0  0  0  0  0  0
    6.1029  -14.6468   25.5997 N   0  0  0  0  0  0  0  0  0  0  0  0
    6.3967  -13.3921   25.9806 C   0  0  0  0  0  0  0  0  0  0  0  0
    5.5664  -12.2806   26.1158 C   0  0  0  0  0  0  0  0  0  0  0  0
    6.0794  -11.0702   26.5464 C   0  0  0  0  0  0  0  0  0  0  0  0
    7.4157  -11.0237   26.8262 C   0  0  0  0  0  0  0  0  0  0  0  0
    8.2325  -12.1113   26.6940 C   0  0  0  0  0  0  0  0  0  0  0  0
    7.7524  -13.3222   26.2691 C   0  0  0  0  0  0  0  0  0  0  0  0
    9.6836  -17.3804   25.4269 C   0  0  0  0  0  0  0  0  0  0  0  0
    9.9971  -18.0157   26.4849 O   0  0  0  0  0  0  0  0  0  0  0  0
    8.8976  -18.0885   24.5300 O   0  0  0  0  0  0  0  0  0  0  0  0
  1  2  1  0
  2  3  1  0
  4  3  1  0
  5  6  1  6
  5  4  1  0
  7  8  2  0
  7  5  1  0
 10  9  1  1
 10 11  1  0
 10 12  1  0
 13 12  1  1
 13 14  1  0
 14  7  1  0
 15 13  1  0
 16 15  2  0
 17 15  1  0
 18 29  1  0
 18 17  1  0
 18 19  1  1
 20 19  1  0
 20 28  1  0
 21 22  1  0
 21 20  2  0
 22 23  1  0
 23 28  2  0
 23 24  1  0
 24 25  2  0
 25 26  1  0
 27 26  2  0
 28 27  1  0
 29 31  1  0
 30 29  2  0
M  END
$$$$
