MLW.pdb
     RDKit          3D

 31 32  0  0  1  0  0  0  0  0999 V2000
    7.1725  -20.7592   26.3420 C   0  0  0  0  0  0  0  0  0  0  0  0
    7.6126  -21.4522   24.7424 S   0  0  0  0  0  0  0  0  0  0  0  0
    6.5110  -20.8170   23.4231 C   0  0  0  0  0  0  0  0  0  0  0  0
    6.2757  -19.3702   23.7181 C   0  0  0  0  0  0  0  0  0  0  0  0
    6.1416  -18.4963   22.5155 C   0  0  2  0  0  0  0  0  0  0  0  0
    6.3358  -19.1864   21.2769 N   0  0  0  0  0  0  0  0  0  0  0  0
    6.9314  -17.2298   22.6040 C   0  0  0  0  0  0  0  0  0  0  0  0
    7.8238  -17.0329   21.7770 O   0  0  0  0  0  0  0  0  0  0  0  0
    6.9875  -13.0022   26.7068 C   0  0  0  0  0  0  0  0  0  0  0  0
    7.3825  -12.9073   25.2104 C   0  0  2  0  0  0  0  0  0  0  0  0
    6.8415  -11.5269   24.7841 C   0  0  0  0  0  0  0  0  0  0  0  0
    6.5836  -13.9184   24.4968 C   0  0  0  0  0  0  0  0  0  0  0  0
    7.3569  -15.0517   23.8768 C   0  0  2  0  0  0  0  0  0  0  0  0
    6.6902  -16.2592   23.5973 N   0  0  0  0  0  0  0  0  0  0  0  0
    8.7318  -15.1441   24.3820 C   0  0  0  0  0  0  0  0  0  0  0  0
    9.1865  -14.3201   25.2499 O   0  0  0  0  0  0  0  0  0  0  0  0
    9.6567  -16.1367   23.9592 N   0  0  0  0  0  0  0  0  0  0  0  0
   10.7667  -16.6207   24.8054 C   0  0  1  0  0  0  0  0  0  0  0  0
   10.2450  -17.4168   25.9400 C   0  0  0  0  0  0  0  0  0  0  0  0
    9.5870  -16.6123   26.9725 C   0  0  0  0  0  0  0  0  0  0  0  0
    8.2309  -16.5327   27.2830 C   0  0  0  0  0  0  0  0  0  0  0  0
    8.0261  -15.6597   28.2740 N   0  0  0  0  0  0  0  0  0  0  0  0
    9.2130  -15.1473   28.6410 C   0  0  0  0  0  0  0  0  0  0  0  0
    9.5176  -14.2170   29.6333 C   0  0  0  0  0  0  0  0  0  0  0  0
   10.8282  -13.8368   29.8597 C   0  0  0  0  0  0  0  0  0  0  0  0
   11.7881  -14.4101   29.0749 C   0  0  0  0  0  0  0  0  0  0  0  0
   11.4928  -15.3219   28.1008 C   0  0  0  0  0  0  0  0  0  0  0  0
   10.2041  -15.7167   27.8539 C   0  0  0  0  0  0  0  0  0  0  0  0
   11.8454  -17.1614   24.0002 C   0  0  0  0  0  0  0  0  0  0  0  0
   12.9061  -17.5745   24.5707 O   0  0  0  0  0  0  0  0  0  0  0  0
   11.8375  -17.2849   22.6188 O   0  0  0  0  0  0  0  0  0  0  0  0
  1  2  1  0
  2  3  1  0
  4  3  1  0
  5  6  1  6
  5  4  1  0
  7  8  2  0
  7  5  1  0
 10  9  1  1
 10 11  1  0
 10 12  1  0
 13 12  1  1
 13 14  1  0
 14  7  1  0
 15 13  1  0
 16 15  2  0
 17 15  1  0
 18 29  1  0
 18 17  1  0
 18 19  1  1
 20 19  1  0
 20 28  1  0
 21 22  1  0
 21 20  2  0
 22 23  1  0
 23 28  2  0
 23 24  1  0
 24 25  2  0
 25 26  1  0
 27 26  2  0
 28 27  1  0
 29 31  1  0
 30 29  2  0
M  END
$$$$
