MLW.pdb
     RDKit          3D

 31 32  0  0  1  0  0  0  0  0999 V2000
   14.8579  -16.9014   18.4463 C   0  0  0  0  0  0  0  0  0  0  0  0
   14.3032  -18.5360   17.9435 S   0  0  0  0  0  0  0  0  0  0  0  0
   13.2076  -19.2791   19.2105 C   0  0  0  0  0  0  0  0  0  0  0  0
   11.8077  -18.9032   18.8432 C   0  0  0  0  0  0  0  0  0  0  0  0
   10.8355  -18.9134   19.9757 C   0  0  2  0  0  0  0  0  0  0  0  0
    9.6188  -19.6084   19.6847 N   0  0  0  0  0  0  0  0  0  0  0  0
   10.6033  -17.5648   20.5782 C   0  0  0  0  0  0  0  0  0  0  0  0
   11.4416  -16.6817   20.3869 O   0  0  0  0  0  0  0  0  0  0  0  0
    6.4264  -13.3900   21.1407 C   0  0  0  0  0  0  0  0  0  0  0  0
    7.5570  -14.0296   21.9874 C   0  0  2  0  0  0  0  0  0  0  0  0
    8.7446  -13.0657   21.7855 C   0  0  0  0  0  0  0  0  0  0  0  0
    7.9168  -15.2954   21.3258 C   0  0  0  0  0  0  0  0  0  0  0  0
    9.0483  -16.0672   21.9509 C   0  0  2  0  0  0  0  0  0  0  0  0
    9.4633  -17.2722   21.3538 N   0  0  0  0  0  0  0  0  0  0  0  0
    9.0287  -16.0155   23.4177 C   0  0  0  0  0  0  0  0  0  0  0  0
    8.0465  -16.4809   24.0942 O   0  0  0  0  0  0  0  0  0  0  0  0
   10.0777  -15.4558   24.1959 N   0  0  0  0  0  0  0  0  0  0  0  0
   10.5220  -16.0263   25.4841 C   0  0  1  0  0  0  0  0  0  0  0  0
    9.7745  -15.4154   26.6073 C   0  0  0  0  0  0  0  0  0  0  0  0
    8.3983  -15.0451   26.2683 C   0  0  0  0  0  0  0  0  0  0  0  0
    7.3379  -15.8720   25.9030 C   0  0  0  0  0  0  0  0  0  0  0  0
    6.2453  -15.1479   25.6423 N   0  0  0  0  0  0  0  0  0  0  0  0
    6.5426  -13.8499   25.8233 C   0  0  0  0  0  0  0  0  0  0  0  0
    5.7367  -12.7205   25.6902 C   0  0  0  0  0  0  0  0  0  0  0  0
    6.2469  -11.4606   25.9469 C   0  0  0  0  0  0  0  0  0  0  0  0
    7.5559  -11.3843   26.3299 C   0  0  0  0  0  0  0  0  0  0  0  0
    8.3489  -12.4895   26.4607 C   0  0  0  0  0  0  0  0  0  0  0  0
    7.8709  -13.7495   26.2125 C   0  0  0  0  0  0  0  0  0  0  0  0
   10.6305  -17.4710   25.4107 C   0  0  0  0  0  0  0  0  0  0  0  0
   10.8521  -18.1369   26.4730 O   0  0  0  0  0  0  0  0  0  0  0  0
   10.5069  -18.2318   24.2577 O   0  0  0  0  0  0  0  0  0  0  0  0
  1  2  1  0
  2  3  1  0
  4  3  1  0
  5  6  1  6
  5  4  1  0
  7  8  2  0
  7  5  1  0
 10  9  1  6
 10 11  1  0
 10 12  1  0
 13 12  1  6
 13 14  1  0
 14  7  1  0
 15 13  1  0
 16 15  2  0
 17 15  1  0
 18 29  1  0
 18 17  1  0
 18 19  1  1
 20 19  1  0
 20 28  1  0
 21 22  1  0
 21 20  2  0
 22 23  1  0
 23 28  2  0
 23 24  1  0
 24 25  2  0
 25 26  1  0
 27 26  2  0
 28 27  1  0
 29 31  1  0
 30 29  2  0
M  END
$$$$
