MLW.pdb
     RDKit          3D

 31 32  0  0  1  0  0  0  0  0999 V2000
   12.0996  -22.1826   20.4299 C   0  0  0  0  0  0  0  0  0  0  0  0
   11.6518  -21.7186   18.7516 S   0  0  0  0  0  0  0  0  0  0  0  0
   10.2263  -20.5672   18.7440 C   0  0  0  0  0  0  0  0  0  0  0  0
   10.6620  -19.3377   19.4750 C   0  0  0  0  0  0  0  0  0  0  0  0
    9.6609  -18.7892   20.4366 C   0  0  2  0  0  0  0  0  0  0  0  0
    8.3390  -18.6883   19.8977 N   0  0  0  0  0  0  0  0  0  0  0  0
   10.1077  -17.5344   21.1160 C   0  0  0  0  0  0  0  0  0  0  0  0
   11.2908  -17.4323   21.4462 O   0  0  0  0  0  0  0  0  0  0  0  0
    8.8861  -12.8596   19.4982 C   0  0  0  0  0  0  0  0  0  0  0  0
    8.1252  -14.0221   20.1867 C   0  0  2  0  0  0  0  0  0  0  0  0
    6.6618  -13.5339   20.2001 C   0  0  0  0  0  0  0  0  0  0  0  0
    8.5782  -14.0531   21.5879 C   0  0  0  0  0  0  0  0  0  0  0  0
    9.4634  -15.2099   21.9687 C   0  0  2  0  0  0  0  0  0  0  0  0
    9.2247  -16.4704   21.3899 N   0  0  0  0  0  0  0  0  0  0  0  0
    9.8559  -15.1829   23.3828 C   0  0  0  0  0  0  0  0  0  0  0  0
   10.2963  -14.1170   23.9385 O   0  0  0  0  0  0  0  0  0  0  0  0
    9.7815  -16.3152   24.2382 N   0  0  0  0  0  0  0  0  0  0  0  0
   10.1862  -16.2838   25.6586 C   0  0  1  0  0  0  0  0  0  0  0  0
    9.0239  -16.5559   26.5353 C   0  0  0  0  0  0  0  0  0  0  0  0
    7.8258  -15.7906   26.1815 C   0  0  0  0  0  0  0  0  0  0  0  0
    6.6902  -16.2169   25.4957 C   0  0  0  0  0  0  0  0  0  0  0  0
    5.8264  -15.2084   25.3442 N   0  0  0  0  0  0  0  0  0  0  0  0
    6.3520  -14.1098   25.9122 C   0  0  0  0  0  0  0  0  0  0  0  0
    5.8280  -12.8231   26.0250 C   0  0  0  0  0  0  0  0  0  0  0  0
    6.5391  -11.8307   26.6753 C   0  0  0  0  0  0  0  0  0  0  0  0
    7.7573  -12.1723   27.1904 C   0  0  0  0  0  0  0  0  0  0  0  0
    8.2741  -13.4326   27.0811 C   0  0  0  0  0  0  0  0  0  0  0  0
    7.5927  -14.4350   26.4421 C   0  0  0  0  0  0  0  0  0  0  0  0
   11.4186  -17.0188   25.8713 C   0  0  0  0  0  0  0  0  0  0  0  0
   11.9482  -17.0314   27.0292 O   0  0  0  0  0  0  0  0  0  0  0  0
   12.1032  -17.7428   24.9065 O   0  0  0  0  0  0  0  0  0  0  0  0
  1  2  1  0
  2  3  1  0
  4  3  1  0
  5  6  1  6
  5  4  1  0
  7  8  2  0
  7  5  1  0
 10  9  1  6
 10 11  1  0
 10 12  1  0
 13 12  1  1
 13 14  1  0
 14  7  1  0
 15 13  1  0
 16 15  2  0
 17 15  1  0
 18 29  1  0
 18 17  1  0
 18 19  1  1
 20 19  1  0
 20 28  1  0
 21 22  1  0
 21 20  2  0
 22 23  1  0
 23 28  2  0
 23 24  1  0
 24 25  2  0
 25 26  1  0
 27 26  2  0
 28 27  1  0
 29 31  1  0
 30 29  2  0
M  END
$$$$
