RDD.pdb
     RDKit          3D

 28 27  0  0  1  0  0  0  0  0999 V2000
   31.7450  -20.7893  -10.3136 N   0  0  0  0  0  0  0  0  0  0  0  0
   31.4181  -22.1659  -10.4187 C   0  0  0  0  0  0  0  0  0  0  0  0
   32.2316  -23.0186   -9.9177 N   0  0  0  0  0  0  0  0  0  0  0  0
   30.2217  -22.6142  -11.0645 N   0  0  0  0  0  0  0  0  0  0  0  0
   29.3552  -21.6423  -11.7511 C   0  0  0  0  0  0  0  0  0  0  0  0
   28.7313  -20.7722  -10.7151 C   0  0  0  0  0  0  0  0  0  0  0  0
   27.5018  -20.0484  -11.1094 C   0  0  0  0  0  0  0  0  0  0  0  0
   26.2276  -20.8266  -11.1321 C   0  0  2  0  0  0  0  0  0  0  0  0
   26.4336  -22.1614  -10.6903 N   0  0  0  0  0  0  0  0  0  0  0  0
   25.5540  -20.6643  -12.4369 C   0  0  0  0  0  0  0  0  0  0  0  0
   25.2681  -19.4773  -12.8472 O   0  0  0  0  0  0  0  0  0  0  0  0
   32.0691  -24.0314   -9.9008 N   0  0  0  0  0  0  0  0  0  0  0  0
   25.1669  -21.6848  -13.3257 C   0  0  1  0  0  0  0  0  0  0  0  0
   24.4182  -21.4125  -14.5746 C   0  0  0  0  0  0  0  0  0  0  0  0
   24.7854  -22.5532  -15.4909 C   0  0  0  0  0  0  0  0  0  0  0  0
   26.1515  -22.3451  -16.0055 O   0  0  0  0  0  0  0  0  0  0  0  0
   27.0008  -23.2811  -16.1636 C   0  0  0  0  0  0  0  0  0  0  0  0
   22.9713  -21.4367  -14.3160 O   0  0  0  0  0  0  0  0  0  0  0  0
   22.5487  -21.9450  -13.2549 O   0  0  0  0  0  0  0  0  0  0  0  0
   26.5208  -21.0245  -16.3363 N   0  0  0  0  0  0  0  0  0  0  0  0
   22.0028  -20.9070  -15.2191 C   0  0  2  0  0  0  0  0  0  0  0  0
   20.6841  -20.4719  -14.8516 C   0  0  0  0  0  0  0  0  0  0  0  0
   20.6918  -19.4531  -13.7430 C   0  0  0  0  0  0  0  0  0  0  0  0
   19.3429  -19.0789  -13.2655 O   0  0  0  0  0  0  0  0  0  0  0  0
   18.3318  -19.5994  -13.7775 C   0  0  0  0  0  0  0  0  0  0  0  0
   19.9719  -19.9859  -16.0563 O   0  0  0  0  0  0  0  0  0  0  0  0
   20.4569  -19.0323  -16.7263 O   0  0  0  0  0  0  0  0  0  0  0  0
   19.1868  -18.1524  -12.2530 O   0  0  0  0  0  0  0  0  0  0  0  0
  1  2  1  0
  2  3  2  0
  4  2  1  0
  5  4  1  0
  6  5  1  0
  7  6  1  0
  8 10  1  0
  8  7  1  0
  8  9  1  6
 10 12  1  0
 11 10  2  0
 12 13  1  0
 13 14  1  6
 13 17  1  0
 15 19  1  0
 15 14  1  0
 16 15  2  0
 17 18  2  0
 17 20  1  0
 20 21  1  0
 21 25  1  0
 21 22  1  1
 23 22  1  0
 24 23  2  0
 25 28  1  0
 26 25  2  0
 27 23  1  0
M  END
$$$$
