RDD.pdb
     RDKit          3D

 28 27  0  0  1  0  0  0  0  0999 V2000
   24.6348  -16.7234  -18.3371 N   0  0  0  0  0  0  0  0  0  0  0  0
   25.9495  -17.1886  -18.0763 C   0  0  0  0  0  0  0  0  0  0  0  0
   26.9117  -16.6904  -18.7587 N   0  0  0  0  0  0  0  0  0  0  0  0
   26.2181  -18.1879  -17.0870 N   0  0  0  0  0  0  0  0  0  0  0  0
   25.1130  -18.7329  -16.2816 C   0  0  0  0  0  0  0  0  0  0  0  0
   24.2085  -19.4864  -17.1946 C   0  0  0  0  0  0  0  0  0  0  0  0
   22.9871  -20.0644  -16.5901 C   0  0  0  0  0  0  0  0  0  0  0  0
   23.0880  -20.5598  -15.1851 C   0  0  2  0  0  0  0  0  0  0  0  0
   23.6835  -21.8492  -15.1372 N   0  0  0  0  0  0  0  0  0  0  0  0
   21.7890  -20.4114  -14.4974 C   0  0  0  0  0  0  0  0  0  0  0  0
   20.7825  -21.1006  -14.9111 O   0  0  0  0  0  0  0  0  0  0  0  0
   27.8955  -16.9616  -18.6538 N   0  0  0  0  0  0  0  0  0  0  0  0
   21.4982  -19.5763  -13.4024 C   0  0  2  0  0  0  0  0  0  0  0  0
   20.1579  -19.5243  -12.7733 C   0  0  0  0  0  0  0  0  0  0  0  0
   20.4081  -18.9545  -11.3990 C   0  0  0  0  0  0  0  0  0  0  0  0
   21.1742  -19.9282  -10.5995 O   0  0  0  0  0  0  0  0  0  0  0  0
   22.1302  -19.6108   -9.8198 C   0  0  0  0  0  0  0  0  0  0  0  0
   19.2770  -18.6202  -13.5267 O   0  0  0  0  0  0  0  0  0  0  0  0
   19.7804  -17.8061  -14.3308 O   0  0  0  0  0  0  0  0  0  0  0  0
   20.8124  -21.2863  -10.7190 N   0  0  0  0  0  0  0  0  0  0  0  0
   17.8570  -18.6147  -13.3926 C   0  0  1  0  0  0  0  0  0  0  0  0
   16.9543  -17.8572  -14.2140 C   0  0  0  0  0  0  0  0  0  0  0  0
   17.6575  -16.8354  -15.0677 C   0  0  0  0  0  0  0  0  0  0  0  0
   16.7905  -15.7169  -15.4975 O   0  0  0  0  0  0  0  0  0  0  0  0
   15.9460  -15.2429  -14.7116 C   0  0  0  0  0  0  0  0  0  0  0  0
   16.1232  -18.7840  -15.0171 O   0  0  0  0  0  0  0  0  0  0  0  0
   14.9987  -18.4027  -15.4456 O   0  0  0  0  0  0  0  0  0  0  0  0
   16.9037  -15.1868  -16.7680 O   0  0  0  0  0  0  0  0  0  0  0  0
  1  2  1  0
  2  3  2  0
  4  2  1  0
  5  4  1  0
  6  5  1  0
  7  6  1  0
  8 10  1  0
  8  7  1  0
  8  9  1  6
 10 12  1  0
 11 10  2  0
 12 13  1  0
 13 14  1  6
 13 17  1  0
 15 19  1  0
 15 14  1  0
 16 15  2  0
 17 18  2  0
 17 20  1  0
 20 21  1  0
 21 25  1  0
 21 22  1  1
 23 22  1  0
 24 23  2  0
 25 28  1  0
 26 25  2  0
 27 23  1  0
M  END
$$$$
