RDD.pdb
     RDKit          3D

 28 27  0  0  1  0  0  0  0  0999 V2000
   26.7338  -20.1829  -14.2389 N   0  0  0  0  0  0  0  0  0  0  0  0
   26.7315  -21.2440  -15.1808 C   0  0  0  0  0  0  0  0  0  0  0  0
   27.8500  -21.7970  -15.4685 N   0  0  0  0  0  0  0  0  0  0  0  0
   25.5277  -21.6988  -15.8080 N   0  0  0  0  0  0  0  0  0  0  0  0
   24.2245  -21.2177  -15.3209 C   0  0  0  0  0  0  0  0  0  0  0  0
   23.2561  -22.3461  -15.4120 C   0  0  0  0  0  0  0  0  0  0  0  0
   21.8739  -22.0725  -14.9581 C   0  0  0  0  0  0  0  0  0  0  0  0
   21.5509  -22.3711  -13.5312 C   0  0  2  0  0  0  0  0  0  0  0  0
   22.6574  -22.9677  -12.8686 N   0  0  0  0  0  0  0  0  0  0  0  0
   20.2649  -23.0924  -13.4395 C   0  0  0  0  0  0  0  0  0  0  0  0
   19.2225  -22.5813  -13.9975 O   0  0  0  0  0  0  0  0  0  0  0  0
   27.9653  -22.5371  -16.1695 N   0  0  0  0  0  0  0  0  0  0  0  0
   20.0228  -24.3180  -12.7912 C   0  0  1  0  0  0  0  0  0  0  0  0
   18.6691  -24.9103  -12.6858 C   0  0  0  0  0  0  0  0  0  0  0  0
   18.9091  -26.3996  -12.6703 C   0  0  0  0  0  0  0  0  0  0  0  0
   19.1228  -26.8736  -14.0501 O   0  0  0  0  0  0  0  0  0  0  0  0
   19.3651  -28.0865  -14.3546 C   0  0  0  0  0  0  0  0  0  0  0  0
   18.0320  -24.5026  -11.4253 O   0  0  0  0  0  0  0  0  0  0  0  0
   16.8633  -24.0591  -11.4468 O   0  0  0  0  0  0  0  0  0  0  0  0
   19.0511  -25.9120  -15.0797 N   0  0  0  0  0  0  0  0  0  0  0  0
   18.6784  -24.5826  -10.1564 C   0  0  1  0  0  0  0  0  0  0  0  0
   18.0924  -24.1862   -8.9063 C   0  0  0  0  0  0  0  0  0  0  0  0
   19.0783  -24.1978   -7.7683 C   0  0  0  0  0  0  0  0  0  0  0  0
   18.6264  -24.9748   -6.5937 O   0  0  0  0  0  0  0  0  0  0  0  0
   17.5143  -25.5391   -6.6077 C   0  0  0  0  0  0  0  0  0  0  0  0
   17.4345  -22.8686   -9.0661 O   0  0  0  0  0  0  0  0  0  0  0  0
   16.3585  -22.6290   -8.4510 O   0  0  0  0  0  0  0  0  0  0  0  0
   19.4255  -25.0838   -5.4723 O   0  0  0  0  0  0  0  0  0  0  0  0
  1  2  1  0
  2  3  2  0
  4  2  1  0
  5  4  1  0
  6  5  1  0
  7  6  1  0
  8 10  1  0
  8  7  1  0
  8  9  1  6
 10 12  1  0
 11 10  2  0
 12 13  1  0
 13 14  1  6
 13 17  1  0
 15 19  1  0
 15 14  1  0
 16 15  2  0
 17 18  2  0
 17 20  1  0
 20 21  1  0
 21 25  1  0
 21 22  1  6
 23 22  1  0
 24 23  2  0
 25 28  1  0
 26 25  2  0
 27 23  1  0
M  END
$$$$
