RDD.pdb
     RDKit          3D

 28 27  0  0  1  0  0  0  0  0999 V2000
   28.5069  -27.5030  -16.9202 N   0  0  0  0  0  0  0  0  0  0  0  0
   27.1173  -27.7798  -16.9921 C   0  0  0  0  0  0  0  0  0  0  0  0
   26.7439  -29.0041  -16.9556 N   0  0  0  0  0  0  0  0  0  0  0  0
   26.1415  -26.7386  -17.1065 N   0  0  0  0  0  0  0  0  0  0  0  0
   26.5588  -25.3317  -16.9911 C   0  0  0  0  0  0  0  0  0  0  0  0
   26.2979  -24.8893  -15.5926 C   0  0  0  0  0  0  0  0  0  0  0  0
   24.8812  -24.6860  -15.2144 C   0  0  0  0  0  0  0  0  0  0  0  0
   24.2491  -23.3901  -15.6024 C   0  0  2  0  0  0  0  0  0  0  0  0
   24.8455  -22.3010  -14.9113 N   0  0  0  0  0  0  0  0  0  0  0  0
   22.7779  -23.4944  -15.5169 C   0  0  0  0  0  0  0  0  0  0  0  0
   22.1799  -24.4261  -16.1754 O   0  0  0  0  0  0  0  0  0  0  0  0
   25.7661  -29.3115  -16.9996 N   0  0  0  0  0  0  0  0  0  0  0  0
   21.9094  -22.6696  -14.7777 C   0  0  1  0  0  0  0  0  0  0  0  0
   20.4360  -22.8137  -14.8301 C   0  0  0  0  0  0  0  0  0  0  0  0
   20.0277  -23.0390  -13.3954 C   0  0  0  0  0  0  0  0  0  0  0  0
   18.5944  -23.3815  -13.3443 O   0  0  0  0  0  0  0  0  0  0  0  0
   17.9589  -23.6171  -12.2658 C   0  0  0  0  0  0  0  0  0  0  0  0
   19.8209  -21.5744  -15.3268 O   0  0  0  0  0  0  0  0  0  0  0  0
   20.0263  -20.5029  -14.7164 O   0  0  0  0  0  0  0  0  0  0  0  0
   17.9039  -23.4477  -14.5725 N   0  0  0  0  0  0  0  0  0  0  0  0
   18.9879  -21.5194  -16.4833 C   0  0  2  0  0  0  0  0  0  0  0  0
   18.3977  -20.3240  -17.0181 C   0  0  0  0  0  0  0  0  0  0  0  0
   17.6915  -20.5555  -18.3277 C   0  0  0  0  0  0  0  0  0  0  0  0
   17.1077  -19.3309  -18.9167 O   0  0  0  0  0  0  0  0  0  0  0  0
   17.2056  -18.2412  -18.3180 C   0  0  0  0  0  0  0  0  0  0  0  0
   17.5093  -19.7153  -16.0007 O   0  0  0  0  0  0  0  0  0  0  0  0
   17.3830  -18.4602  -15.9525 O   0  0  0  0  0  0  0  0  0  0  0  0
   16.4492  -19.3785  -20.1300 O   0  0  0  0  0  0  0  0  0  0  0  0
  1  2  1  0
  2  3  2  0
  4  2  1  0
  5  4  1  0
  6  5  1  0
  7  6  1  0
  8 10  1  0
  8  7  1  0
  8  9  1  1
 10 12  1  0
 11 10  2  0
 12 13  1  0
 13 14  1  6
 13 17  1  0
 15 19  1  0
 15 14  1  0
 16 15  2  0
 17 18  2  0
 17 20  1  0
 20 21  1  0
 21 25  1  0
 21 22  1  6
 23 22  1  0
 24 23  2  0
 25 28  1  0
 26 25  2  0
 27 23  1  0
M  END
$$$$
