RDD.pdb
     RDKit          3D

 28 27  0  0  1  0  0  0  0  0999 V2000
    9.8132  -11.0906   -8.7700 N   0  0  0  0  0  0  0  0  0  0  0  0
   10.4599  -12.2822   -9.1879 C   0  0  0  0  0  0  0  0  0  0  0  0
    9.9923  -13.3994   -8.7720 N   0  0  0  0  0  0  0  0  0  0  0  0
   11.6056  -12.2625  -10.0460 N   0  0  0  0  0  0  0  0  0  0  0  0
   12.1889  -10.9744  -10.4549 C   0  0  0  0  0  0  0  0  0  0  0  0
   13.5267  -10.8519   -9.8110 C   0  0  0  0  0  0  0  0  0  0  0  0
   14.3171   -9.6463  -10.1473 C   0  0  0  0  0  0  0  0  0  0  0  0
   15.6513   -9.8586  -10.7831 C   0  0  2  0  0  0  0  0  0  0  0  0
   16.3023  -10.9995  -10.2409 N   0  0  0  0  0  0  0  0  0  0  0  0
   16.4240   -8.5995  -10.7800 C   0  0  0  0  0  0  0  0  0  0  0  0
   17.0970   -8.2839   -9.7281 O   0  0  0  0  0  0  0  0  0  0  0  0
   10.4253  -14.3112   -8.9554 N   0  0  0  0  0  0  0  0  0  0  0  0
   16.5213   -7.6601  -11.8236 C   0  0  1  0  0  0  0  0  0  0  0  0
   17.3353   -6.4273  -11.7132 C   0  0  0  0  0  0  0  0  0  0  0  0
   17.9328   -6.2456  -13.0865 C   0  0  0  0  0  0  0  0  0  0  0  0
   19.0422   -7.2002  -13.2659 O   0  0  0  0  0  0  0  0  0  0  0  0
   19.8624   -7.5168  -12.3442 C   0  0  0  0  0  0  0  0  0  0  0  0
   16.4767   -5.2773  -11.3953 O   0  0  0  0  0  0  0  0  0  0  0  0
   15.4615   -5.0615  -12.0923 O   0  0  0  0  0  0  0  0  0  0  0  0
   19.1875   -7.7866  -14.5406 N   0  0  0  0  0  0  0  0  0  0  0  0
   16.7367   -4.3758  -10.3211 C   0  0  2  0  0  0  0  0  0  0  0  0
   15.8964   -3.2717   -9.9497 C   0  0  0  0  0  0  0  0  0  0  0  0
   16.1174   -2.8197   -8.5304 C   0  0  0  0  0  0  0  0  0  0  0  0
   15.2870   -1.6612   -8.1358 O   0  0  0  0  0  0  0  0  0  0  0  0
   14.4484   -1.1931   -8.9316 C   0  0  0  0  0  0  0  0  0  0  0  0
   16.0716   -2.1695  -10.9239 O   0  0  0  0  0  0  0  0  0  0  0  0
   17.2065   -1.9641  -11.4372 O   0  0  0  0  0  0  0  0  0  0  0  0
   15.4297   -1.0855   -6.8884 O   0  0  0  0  0  0  0  0  0  0  0  0
  1  2  1  0
  2  3  2  0
  4  2  1  0
  5  4  1  0
  6  5  1  0
  7  6  1  0
  8 10  1  0
  8  7  1  0
  8  9  1  1
 10 12  1  0
 11 10  2  0
 12 13  1  0
 13 14  1  1
 13 17  1  0
 15 19  1  0
 15 14  1  0
 16 15  2  0
 17 18  2  0
 17 20  1  0
 20 21  1  0
 21 25  1  0
 21 22  1  6
 23 22  1  0
 24 23  2  0
 25 28  1  0
 26 25  2  0
 27 23  1  0
M  END
$$$$
