RDD.pdb
     RDKit          3D

 28 27  0  0  1  0  0  0  0  0999 V2000
   27.6656  -20.6089   -8.2773 N   0  0  0  0  0  0  0  0  0  0  0  0
   28.7815  -20.8840   -9.1091 C   0  0  0  0  0  0  0  0  0  0  0  0
   29.9388  -20.9452   -8.5645 N   0  0  0  0  0  0  0  0  0  0  0  0
   28.6444  -21.0870  -10.5196 N   0  0  0  0  0  0  0  0  0  0  0  0
   27.3721  -20.7594  -11.1835 C   0  0  0  0  0  0  0  0  0  0  0  0
   27.5794  -20.8752  -12.6543 C   0  0  0  0  0  0  0  0  0  0  0  0
   26.4329  -20.5103  -13.5167 C   0  0  0  0  0  0  0  0  0  0  0  0
   25.0640  -20.7807  -12.9851 C   0  0  2  0  0  0  0  0  0  0  0  0
   24.9660  -22.1004  -12.4673 N   0  0  0  0  0  0  0  0  0  0  0  0
   24.0441  -20.3890  -13.9795 C   0  0  0  0  0  0  0  0  0  0  0  0
   24.0351  -19.1783  -14.4192 O   0  0  0  0  0  0  0  0  0  0  0  0
   30.8122  -21.1021   -9.0794 N   0  0  0  0  0  0  0  0  0  0  0  0
   23.0372  -21.2041  -14.5297 C   0  0  1  0  0  0  0  0  0  0  0  0
   22.0648  -20.7046  -15.5294 C   0  0  0  0  0  0  0  0  0  0  0  0
   22.3425  -21.5216  -16.7668 C   0  0  0  0  0  0  0  0  0  0  0  0
   21.5039  -21.0289  -17.8750 O   0  0  0  0  0  0  0  0  0  0  0  0
   20.7102  -20.0372  -17.7780 C   0  0  0  0  0  0  0  0  0  0  0  0
   20.6905  -20.9569  -15.0727 O   0  0  0  0  0  0  0  0  0  0  0  0
   20.4272  -22.0323  -14.4922 O   0  0  0  0  0  0  0  0  0  0  0  0
   21.6000  -21.7089  -19.1071 N   0  0  0  0  0  0  0  0  0  0  0  0
   19.6196  -20.0329  -15.2561 C   0  0  2  0  0  0  0  0  0  0  0  0
   18.2790  -20.2186  -14.7748 C   0  0  0  0  0  0  0  0  0  0  0  0
   17.4641  -18.9529  -14.8100 C   0  0  0  0  0  0  0  0  0  0  0  0
   17.7912  -18.0010  -13.7262 O   0  0  0  0  0  0  0  0  0  0  0  0
   18.6040  -18.3220  -12.8364 C   0  0  0  0  0  0  0  0  0  0  0  0
   17.6348  -21.3224  -15.5241 O   0  0  0  0  0  0  0  0  0  0  0  0
   17.9013  -21.4860  -16.7471 O   0  0  0  0  0  0  0  0  0  0  0  0
   17.2030  -16.7519  -13.6854 O   0  0  0  0  0  0  0  0  0  0  0  0
  1  2  1  0
  2  3  2  0
  4  2  1  0
  5  4  1  0
  6  5  1  0
  7  6  1  0
  8 10  1  0
  8  7  1  0
  8  9  1  6
 10 12  1  0
 11 10  2  0
 12 13  1  0
 13 14  1  1
 13 17  1  0
 15 19  1  0
 15 14  1  0
 16 15  2  0
 17 18  2  0
 17 20  1  0
 20 21  1  0
 21 25  1  0
 21 22  1  1
 23 22  1  0
 24 23  2  0
 25 28  1  0
 26 25  2  0
 27 23  1  0
M  END
$$$$
