RDD.pdb
     RDKit          3D

 28 27  0  0  1  0  0  0  0  0999 V2000
   42.6940  -19.0984  -10.5885 N   0  0  0  0  0  0  0  0  0  0  0  0
   43.8693  -18.9340   -9.8109 C   0  0  0  0  0  0  0  0  0  0  0  0
   44.7911  -19.8164   -9.9179 N   0  0  0  0  0  0  0  0  0  0  0  0
   44.0420  -17.8249   -8.9224 N   0  0  0  0  0  0  0  0  0  0  0  0
   42.9278  -16.8894   -8.6981 C   0  0  0  0  0  0  0  0  0  0  0  0
   43.5014  -15.5244   -8.5334 C   0  0  0  0  0  0  0  0  0  0  0  0
   42.5360  -14.4071   -8.4298 C   0  0  0  0  0  0  0  0  0  0  0  0
   43.0931  -13.0409   -8.1997 C   0  0  2  0  0  0  0  0  0  0  0  0
   44.1327  -13.0672   -7.2311 N   0  0  0  0  0  0  0  0  0  0  0  0
   41.9990  -12.0773   -7.9614 C   0  0  0  0  0  0  0  0  0  0  0  0
   41.4386  -12.0449   -6.8020 O   0  0  0  0  0  0  0  0  0  0  0  0
   45.6964  -19.7674   -9.4378 N   0  0  0  0  0  0  0  0  0  0  0  0
   41.4671  -11.1522   -8.8791 C   0  0  2  0  0  0  0  0  0  0  0  0
   41.1181   -9.7634   -8.4994 C   0  0  0  0  0  0  0  0  0  0  0  0
   41.7250   -9.5829   -7.1301 C   0  0  0  0  0  0  0  0  0  0  0  0
   40.6885   -9.8025   -6.1045 O   0  0  0  0  0  0  0  0  0  0  0  0
   39.4890  -10.1405   -6.3684 C   0  0  0  0  0  0  0  0  0  0  0  0
   41.7298   -8.8106   -9.4369 O   0  0  0  0  0  0  0  0  0  0  0  0
   41.6368   -7.5847   -9.2099 O   0  0  0  0  0  0  0  0  0  0  0  0
   41.0669   -9.6225   -4.7576 N   0  0  0  0  0  0  0  0  0  0  0  0
   42.4347   -9.2070  -10.6117 C   0  0  1  0  0  0  0  0  0  0  0  0
   42.9756   -8.3069  -11.5918 C   0  0  0  0  0  0  0  0  0  0  0  0
   44.1332   -8.8972  -12.3527 C   0  0  0  0  0  0  0  0  0  0  0  0
   45.2653   -9.3083  -11.4943 O   0  0  0  0  0  0  0  0  0  0  0  0
   45.4777   -8.7199  -10.4154 C   0  0  0  0  0  0  0  0  0  0  0  0
   41.8908   -7.8451  -12.4888 O   0  0  0  0  0  0  0  0  0  0  0  0
   41.0623   -8.6796  -12.9479 O   0  0  0  0  0  0  0  0  0  0  0  0
   46.0979  -10.3425  -11.8754 O   0  0  0  0  0  0  0  0  0  0  0  0
  1  2  1  0
  2  3  2  0
  4  2  1  0
  5  4  1  0
  6  5  1  0
  7  6  1  0
  8 10  1  0
  8  7  1  0
  8  9  1  1
 10 12  1  0
 11 10  2  0
 12 13  1  0
 13 14  1  6
 13 17  1  0
 15 19  1  0
 15 14  1  0
 16 15  2  0
 17 18  2  0
 17 20  1  0
 20 21  1  0
 21 25  1  0
 21 22  1  1
 23 22  1  0
 24 23  2  0
 25 28  1  0
 26 25  2  0
 27 23  1  0
M  END
$$$$
