RDD.pdb
     RDKit          3D

 28 27  0  0  1  0  0  0  0  0999 V2000
   27.1555  -20.6646  -15.4615 N   0  0  0  0  0  0  0  0  0  0  0  0
   27.7407  -19.8094  -14.4924 C   0  0  0  0  0  0  0  0  0  0  0  0
   28.1732  -18.6677  -14.8787 N   0  0  0  0  0  0  0  0  0  0  0  0
   27.8594  -20.1903  -13.1176 N   0  0  0  0  0  0  0  0  0  0  0  0
   27.1222  -21.3628  -12.6190 C   0  0  0  0  0  0  0  0  0  0  0  0
   26.4700  -20.9822  -11.3348 C   0  0  0  0  0  0  0  0  0  0  0  0
   25.0388  -20.6100  -11.4022 C   0  0  0  0  0  0  0  0  0  0  0  0
   24.1633  -21.4193  -12.3011 C   0  0  2  0  0  0  0  0  0  0  0  0
   24.9055  -22.4354  -12.9615 N   0  0  0  0  0  0  0  0  0  0  0  0
   23.3570  -20.5309  -13.1630 C   0  0  0  0  0  0  0  0  0  0  0  0
   22.6823  -19.5785  -12.6181 O   0  0  0  0  0  0  0  0  0  0  0  0
   28.6465  -17.9925  -14.2683 N   0  0  0  0  0  0  0  0  0  0  0  0
   23.2250  -20.5963  -14.5628 C   0  0  1  0  0  0  0  0  0  0  0  0
   22.3560  -19.6703  -15.3256 C   0  0  0  0  0  0  0  0  0  0  0  0
   22.9512  -19.6502  -16.7117 C   0  0  0  0  0  0  0  0  0  0  0  0
   24.1199  -18.7513  -16.7276 O   0  0  0  0  0  0  0  0  0  0  0  0
   24.4014  -17.9362  -15.7901 C   0  0  0  0  0  0  0  0  0  0  0  0
   20.9842  -20.1950  -15.3880 O   0  0  0  0  0  0  0  0  0  0  0  0
   20.8013  -21.3915  -15.7005 O   0  0  0  0  0  0  0  0  0  0  0  0
   24.9638  -18.8119  -17.8563 N   0  0  0  0  0  0  0  0  0  0  0  0
   19.8284  -19.4071  -15.1096 C   0  0  1  0  0  0  0  0  0  0  0  0
   18.4733  -19.8790  -15.1768 C   0  0  0  0  0  0  0  0  0  0  0  0
   17.8414  -20.0389  -13.8194 C   0  0  0  0  0  0  0  0  0  0  0  0
   16.4463  -20.5278  -13.8633 O   0  0  0  0  0  0  0  0  0  0  0  0
   16.0498  -21.2002  -14.8361 C   0  0  0  0  0  0  0  0  0  0  0  0
   17.6853  -18.9902  -16.0621 O   0  0  0  0  0  0  0  0  0  0  0  0
   18.1086  -17.8288  -16.3181 O   0  0  0  0  0  0  0  0  0  0  0  0
   15.5693  -20.2466  -12.8339 O   0  0  0  0  0  0  0  0  0  0  0  0
  1  2  1  0
  2  3  2  0
  4  2  1  0
  5  4  1  0
  6  5  1  0
  7  6  1  0
  8 10  1  0
  8  7  1  0
  8  9  1  6
 10 12  1  0
 11 10  2  0
 12 13  1  0
 13 14  1  1
 13 17  1  0
 15 19  1  0
 15 14  1  0
 16 15  2  0
 17 18  2  0
 17 20  1  0
 20 21  1  0
 21 25  1  0
 21 22  1  6
 23 22  1  0
 24 23  2  0
 25 28  1  0
 26 25  2  0
 27 23  1  0
M  END
$$$$
