RDD.pdb
     RDKit          3D

 28 27  0  0  1  0  0  0  0  0999 V2000
   38.8334  -10.7079   -6.7239 N   0  0  0  0  0  0  0  0  0  0  0  0
   39.7657   -9.8574   -7.3723 C   0  0  0  0  0  0  0  0  0  0  0  0
   41.0080  -10.1597   -7.3016 N   0  0  0  0  0  0  0  0  0  0  0  0
   39.3550   -8.6874   -8.0878 N   0  0  0  0  0  0  0  0  0  0  0  0
   38.3148   -8.7934   -9.1238 C   0  0  0  0  0  0  0  0  0  0  0  0
   38.9694   -9.2343  -10.3874 C   0  0  0  0  0  0  0  0  0  0  0  0
   38.1074   -9.3154  -11.5881 C   0  0  0  0  0  0  0  0  0  0  0  0
   38.1877   -8.1890  -12.5650 C   0  0  2  0  0  0  0  0  0  0  0  0
   38.5097   -6.9674  -11.9143 N   0  0  0  0  0  0  0  0  0  0  0  0
   36.9889   -8.1760  -13.4282 C   0  0  0  0  0  0  0  0  0  0  0  0
   36.6455   -9.2596  -14.0340 O   0  0  0  0  0  0  0  0  0  0  0  0
   41.7647   -9.5895   -7.6947 N   0  0  0  0  0  0  0  0  0  0  0  0
   36.1391   -7.0839  -13.6853 C   0  0  1  0  0  0  0  0  0  0  0  0
   35.1317   -7.0961  -14.7714 C   0  0  0  0  0  0  0  0  0  0  0  0
   33.9558   -6.3404  -14.2037 C   0  0  0  0  0  0  0  0  0  0  0  0
   32.8048   -6.4726  -15.1157 O   0  0  0  0  0  0  0  0  0  0  0  0
   32.8408   -7.1136  -16.2159 C   0  0  0  0  0  0  0  0  0  0  0  0
   35.6472   -6.3874  -15.9516 O   0  0  0  0  0  0  0  0  0  0  0  0
   36.3718   -5.3813  -15.7921 O   0  0  0  0  0  0  0  0  0  0  0  0
   31.6019   -5.8450  -14.7298 N   0  0  0  0  0  0  0  0  0  0  0  0
   35.3647   -6.7846  -17.2920 C   0  0  1  0  0  0  0  0  0  0  0  0
   35.9196   -6.1731  -18.4674 C   0  0  0  0  0  0  0  0  0  0  0  0
   36.5240   -7.1730  -19.4173 C   0  0  0  0  0  0  0  0  0  0  0  0
   37.0526   -6.5721  -20.6611 O   0  0  0  0  0  0  0  0  0  0  0  0
   37.5279   -5.4192  -20.6455 C   0  0  0  0  0  0  0  0  0  0  0  0
   34.8889   -5.3316  -19.1186 O   0  0  0  0  0  0  0  0  0  0  0  0
   35.2403   -4.3273  -19.7979 O   0  0  0  0  0  0  0  0  0  0  0  0
   37.0256   -7.2759  -21.8493 O   0  0  0  0  0  0  0  0  0  0  0  0
  1  2  1  0
  2  3  2  0
  4  2  1  0
  5  4  1  0
  6  5  1  0
  7  6  1  0
  8 10  1  0
  8  7  1  0
  8  9  1  1
 10 12  1  0
 11 10  2  0
 12 13  1  0
 13 14  1  6
 13 17  1  0
 15 19  1  0
 15 14  1  0
 16 15  2  0
 17 18  2  0
 17 20  1  0
 20 21  1  0
 21 25  1  0
 21 22  1  6
 23 22  1  0
 24 23  2  0
 25 28  1  0
 26 25  2  0
 27 23  1  0
M  END
$$$$
