AMS.pdb
     RDKit          3D

 20 19  0  0  1  0  0  0  0  0999 V2000
   17.7850   -9.0308  -19.8014 C   0  0  0  0  0  0  0  0  0  0  0  0
   18.7454  -10.1865  -19.5119 C   0  0  2  0  0  0  0  0  0  0  0  0
   18.0176  -11.4375  -19.4247 N   0  0  0  0  0  0  0  0  0  0  0  0
   19.4709   -9.9590  -18.2406 C   0  0  0  0  0  0  0  0  0  0  0  0
   18.8734  -10.0306  -17.1390 O   0  0  0  0  0  0  0  0  0  0  0  0
   26.2657   -9.9965  -14.4143 C   0  0  0  0  0  0  0  0  0  0  0  0
   25.3508  -10.4211  -15.9265 S   0  0  0  0  0  0  0  0  0  0  0  0
   23.7433   -9.6122  -15.8925 C   0  0  0  0  0  0  0  0  0  0  0  0
   22.9856   -9.9219  -17.1533 C   0  0  0  0  0  0  0  0  0  0  0  0
   21.5887   -9.3773  -17.0393 C   0  0  2  0  0  0  0  0  0  0  0  0
   20.8459   -9.6582  -18.2492 N   0  0  0  0  0  0  0  0  0  0  0  0
   21.6415   -7.8951  -16.8005 C   0  0  0  0  0  0  0  0  0  0  0  0
   22.0261   -7.1332  -17.7254 O   0  0  0  0  0  0  0  0  0  0  0  0
   20.1904   -3.8813  -14.8912 O   0  0  0  0  0  0  0  0  0  0  0  0
   20.0261   -5.2709  -15.0762 C   0  0  0  0  0  0  0  0  0  0  0  0
   21.3704   -5.8989  -15.3877 C   0  0  2  0  0  0  0  0  0  0  0  0
   21.2762   -7.3176  -15.5763 N   0  0  0  0  0  0  0  0  0  0  0  0
   22.2964   -5.5432  -14.2878 C   0  0  0  0  0  0  0  0  0  0  0  0
   22.6659   -4.1896  -14.1968 O   0  0  0  0  0  0  0  0  0  0  0  0
   22.7484   -6.3539  -13.4684 O   0  0  0  0  0  0  0  0  0  0  0  0
  2  3  1  0
  2  1  1  1
  4 11  1  0
  4  2  1  0
  5  4  2  0
  7  8  1  0
  7  6  1  0
  8  9  1  0
 10  9  1  6
 10 11  1  0
 10 12  1  0
 12 17  1  0
 13 12  2  0
 15 14  1  0
 16 15  1  1
 16 18  1  0
 17 16  1  0
 18 19  1  0
 20 18  2  0
M  END
$$$$
