AMS.pdb
     RDKit          3D

 20 19  0  0  1  0  0  0  0  0999 V2000
   20.2125  -14.1540  -16.1100 C   0  0  0  0  0  0  0  0  0  0  0  0
   20.5852  -12.9539  -16.9833 C   0  0  2  0  0  0  0  0  0  0  0  0
   21.4842  -13.3624  -18.0452 N   0  0  0  0  0  0  0  0  0  0  0  0
   21.2398  -11.8999  -16.1739 C   0  0  0  0  0  0  0  0  0  0  0  0
   20.7622  -11.5516  -15.0666 O   0  0  0  0  0  0  0  0  0  0  0  0
   27.5928  -12.9956  -14.7626 C   0  0  0  0  0  0  0  0  0  0  0  0
   26.9115  -11.6047  -15.7139 S   0  0  0  0  0  0  0  0  0  0  0  0
   25.1367  -11.5069  -15.4306 C   0  0  0  0  0  0  0  0  0  0  0  0
   24.5699  -10.3045  -16.1325 C   0  0  0  0  0  0  0  0  0  0  0  0
   23.0885  -10.2372  -15.8838 C   0  0  2  0  0  0  0  0  0  0  0  0
   22.4112  -11.2713  -16.6364 N   0  0  0  0  0  0  0  0  0  0  0  0
   22.5692   -8.8857  -16.2844 C   0  0  0  0  0  0  0  0  0  0  0  0
   22.3816   -8.6316  -17.5026 O   0  0  0  0  0  0  0  0  0  0  0  0
   21.5127   -5.9319  -13.4910 O   0  0  0  0  0  0  0  0  0  0  0  0
   20.7612   -6.0831  -14.6761 C   0  0  0  0  0  0  0  0  0  0  0  0
   21.6453   -6.6660  -15.7610 C   0  0  2  0  0  0  0  0  0  0  0  0
   22.2811   -7.8833  -15.3474 N   0  0  0  0  0  0  0  0  0  0  0  0
   22.6281   -5.6263  -16.1445 C   0  0  0  0  0  0  0  0  0  0  0  0
   22.1060   -4.4634  -16.7379 O   0  0  0  0  0  0  0  0  0  0  0  0
   23.8502   -5.7266  -15.9741 O   0  0  0  0  0  0  0  0  0  0  0  0
  2  3  1  0
  2  1  1  1
  4 11  1  0
  4  2  1  0
  5  4  2  0
  7  8  1  0
  7  6  1  0
  8  9  1  0
 10  9  1  6
 10 11  1  0
 10 12  1  0
 12 17  1  0
 13 12  2  0
 15 14  1  0
 16 15  1  1
 16 18  1  0
 17 16  1  0
 18 19  1  0
 20 18  2  0
M  END
$$$$
