AMS.pdb
     RDKit          3D

 20 19  0  0  1  0  0  0  0  0999 V2000
   17.5662   -9.1885  -18.5729 C   0  0  0  0  0  0  0  0  0  0  0  0
   18.4590  -10.3711  -18.1906 C   0  0  2  0  0  0  0  0  0  0  0  0
   17.6659  -11.4319  -17.6004 N   0  0  0  0  0  0  0  0  0  0  0  0
   19.5003   -9.9508  -17.2245 C   0  0  0  0  0  0  0  0  0  0  0  0
   19.2103   -9.7315  -16.0231 O   0  0  0  0  0  0  0  0  0  0  0  0
   26.9295  -10.4330  -15.1043 C   0  0  0  0  0  0  0  0  0  0  0  0
   25.7141  -10.7292  -16.4230 S   0  0  0  0  0  0  0  0  0  0  0  0
   24.2217   -9.7851  -16.0752 C   0  0  0  0  0  0  0  0  0  0  0  0
   23.1825  -10.0614  -17.1257 C   0  0  0  0  0  0  0  0  0  0  0  0
   21.8918   -9.3970  -16.7338 C   0  0  2  0  0  0  0  0  0  0  0  0
   20.8353   -9.7905  -17.6412 N   0  0  0  0  0  0  0  0  0  0  0  0
   22.0628   -7.9048  -16.7596 C   0  0  0  0  0  0  0  0  0  0  0  0
   22.1469   -7.3112  -17.8661 O   0  0  0  0  0  0  0  0  0  0  0  0
   22.0537   -5.5800  -13.2793 O   0  0  0  0  0  0  0  0  0  0  0  0
   21.4921   -5.0567  -14.4637 C   0  0  0  0  0  0  0  0  0  0  0  0
   22.1559   -5.7039  -15.6634 C   0  0  2  0  0  0  0  0  0  0  0  0
   22.1336   -7.1360  -15.5893 N   0  0  0  0  0  0  0  0  0  0  0  0
   23.5354   -5.1719  -15.7529 C   0  0  0  0  0  0  0  0  0  0  0  0
   24.5748   -6.1124  -15.6433 O   0  0  0  0  0  0  0  0  0  0  0  0
   23.8114   -3.9759  -15.9148 O   0  0  0  0  0  0  0  0  0  0  0  0
  2  3  1  0
  2  1  1  1
  4 11  1  0
  4  2  1  0
  5  4  2  0
  7  8  1  0
  7  6  1  0
  8  9  1  0
 10  9  1  6
 10 11  1  0
 10 12  1  0
 12 17  1  0
 13 12  2  0
 15 14  1  0
 16 15  1  1
 16 18  1  0
 17 16  1  0
 18 19  1  0
 20 18  2  0
M  END
$$$$
