AMS.pdb
     RDKit          3D

 20 19  0  0  1  0  0  0  0  0999 V2000
   21.1941  -22.1158  -14.3903 C   0  0  0  0  0  0  0  0  0  0  0  0
   21.1414  -21.2057  -13.1611 C   0  0  2  0  0  0  0  0  0  0  0  0
   20.1335  -20.1782  -13.3370 N   0  0  0  0  0  0  0  0  0  0  0  0
   22.4548  -20.5608  -12.9299 C   0  0  0  0  0  0  0  0  0  0  0  0
   22.6925  -19.4113  -13.3744 O   0  0  0  0  0  0  0  0  0  0  0  0
   26.3963  -19.7091   -7.6089 C   0  0  0  0  0  0  0  0  0  0  0  0
   27.2300  -20.8275   -8.7743 S   0  0  0  0  0  0  0  0  0  0  0  0
   26.6626  -20.4714  -10.4450 C   0  0  0  0  0  0  0  0  0  0  0  0
   25.3492  -21.1573  -10.6986 C   0  0  0  0  0  0  0  0  0  0  0  0
   24.7763  -20.6670  -11.9994 C   0  0  2  0  0  0  0  0  0  0  0  0
   23.4591  -21.2301  -12.2055 N   0  0  0  0  0  0  0  0  0  0  0  0
   25.6848  -21.0559  -13.1308 C   0  0  0  0  0  0  0  0  0  0  0  0
   25.8402  -22.2736  -13.4084 O   0  0  0  0  0  0  0  0  0  0  0  0
   27.7169  -18.2285  -15.3982 O   0  0  0  0  0  0  0  0  0  0  0  0
   27.1152  -19.3007  -16.0912 C   0  0  0  0  0  0  0  0  0  0  0  0
   26.9627  -20.4825  -15.1539 C   0  0  2  0  0  0  0  0  0  0  0  0
   26.3753  -20.1087  -13.8999 N   0  0  0  0  0  0  0  0  0  0  0  0
   28.3010  -21.0936  -14.9823 C   0  0  0  0  0  0  0  0  0  0  0  0
   28.8342  -21.0720  -13.6814 O   0  0  0  0  0  0  0  0  0  0  0  0
   28.9547  -21.6074  -15.8996 O   0  0  0  0  0  0  0  0  0  0  0  0
  2  3  1  0
  2  1  1  6
  4 11  1  0
  4  2  1  0
  5  4  2  0
  7  8  1  0
  7  6  1  0
  8  9  1  0
 10  9  1  1
 10 11  1  0
 10 12  1  0
 12 17  1  0
 13 12  2  0
 15 14  1  0
 16 15  1  6
 16 18  1  0
 17 16  1  0
 18 19  1  0
 20 18  2  0
M  END
$$$$
