AMS.pdb
     RDKit          3D

 20 19  0  0  1  0  0  0  0  0999 V2000
   27.7165  -19.2569  -16.4026 C   0  0  0  0  0  0  0  0  0  0  0  0
   28.1694  -20.4343  -15.5363 C   0  0  2  0  0  0  0  0  0  0  0  0
   28.7159  -21.4904  -16.3661 N   0  0  0  0  0  0  0  0  0  0  0  0
   27.0351  -20.9739  -14.7511 C   0  0  0  0  0  0  0  0  0  0  0  0
   26.3286  -21.9081  -15.2027 O   0  0  0  0  0  0  0  0  0  0  0  0
   26.8590  -20.2741   -8.2512 C   0  0  0  0  0  0  0  0  0  0  0  0
   25.1144  -20.6274   -8.6195 S   0  0  0  0  0  0  0  0  0  0  0  0
   24.9825  -21.2766  -10.2931 C   0  0  0  0  0  0  0  0  0  0  0  0
   25.9166  -20.5339  -11.2072 C   0  0  0  0  0  0  0  0  0  0  0  0
   25.7312  -21.0290  -12.6148 C   0  0  2  0  0  0  0  0  0  0  0  0
   26.7317  -20.4451  -13.4824 N   0  0  0  0  0  0  0  0  0  0  0  0
   24.3560  -20.6691  -13.1006 C   0  0  0  0  0  0  0  0  0  0  0  0
   24.0873  -19.4677  -13.3622 O   0  0  0  0  0  0  0  0  0  0  0  0
   22.3872  -22.8853  -15.5562 O   0  0  0  0  0  0  0  0  0  0  0  0
   21.4491  -22.3781  -14.6317 C   0  0  0  0  0  0  0  0  0  0  0  0
   22.0824  -21.2507  -13.8403 C   0  0  2  0  0  0  0  0  0  0  0  0
   23.3469  -21.6263  -13.2771 N   0  0  0  0  0  0  0  0  0  0  0  0
   21.1122  -20.8322  -12.8022 C   0  0  0  0  0  0  0  0  0  0  0  0
   19.8909  -20.3107  -13.2642 O   0  0  0  0  0  0  0  0  0  0  0  0
   21.3163  -20.9160  -11.5840 O   0  0  0  0  0  0  0  0  0  0  0  0
  2  3  1  0
  2  1  1  6
  4 11  1  0
  4  2  1  0
  5  4  2  0
  7  8  1  0
  7  6  1  0
  8  9  1  0
 10  9  1  1
 10 11  1  0
 10 12  1  0
 12 17  1  0
 13 12  2  0
 15 14  1  0
 16 15  1  1
 16 18  1  0
 17 16  1  0
 18 19  1  0
 20 18  2  0
M  END
$$$$
