AMS.pdb
     RDKit          3D

 20 19  0  0  1  0  0  0  0  0999 V2000
   21.1932   -9.8375  -20.3474 C   0  0  0  0  0  0  0  0  0  0  0  0
   22.5739  -10.2863  -19.8636 C   0  0  2  0  0  0  0  0  0  0  0  0
   22.6648  -11.7335  -19.8694 N   0  0  0  0  0  0  0  0  0  0  0  0
   22.8354   -9.7906  -18.4924 C   0  0  0  0  0  0  0  0  0  0  0  0
   22.1992  -10.2487  -17.5121 O   0  0  0  0  0  0  0  0  0  0  0  0
   26.7508  -11.9461  -15.1472 C   0  0  0  0  0  0  0  0  0  0  0  0
   25.8707  -10.3564  -15.1941 S   0  0  0  0  0  0  0  0  0  0  0  0
   26.2065   -9.5400  -16.7627 C   0  0  0  0  0  0  0  0  0  0  0  0
   25.5951   -8.1668  -16.7684 C   0  0  0  0  0  0  0  0  0  0  0  0
   24.1070   -8.2869  -16.9468 C   0  0  2  0  0  0  0  0  0  0  0  0
   23.8046   -8.7948  -18.2679 N   0  0  0  0  0  0  0  0  0  0  0  0
   23.4641   -6.9431  -16.7528 C   0  0  0  0  0  0  0  0  0  0  0  0
   23.8054   -5.9822  -17.4904 O   0  0  0  0  0  0  0  0  0  0  0  0
   19.8957   -6.3909  -14.8722 O   0  0  0  0  0  0  0  0  0  0  0  0
   20.4351   -5.3772  -15.6927 C   0  0  0  0  0  0  0  0  0  0  0  0
   21.9473   -5.3960  -15.5865 C   0  0  2  0  0  0  0  0  0  0  0  0
   22.4883   -6.7112  -15.7732 N   0  0  0  0  0  0  0  0  0  0  0  0
   22.3108   -4.8258  -14.2687 C   0  0  0  0  0  0  0  0  0  0  0  0
   22.0181   -3.4640  -14.0763 O   0  0  0  0  0  0  0  0  0  0  0  0
   22.8438   -5.4687  -13.3548 O   0  0  0  0  0  0  0  0  0  0  0  0
  2  3  1  0
  2  1  1  1
  4 11  1  0
  4  2  1  0
  5  4  2  0
  7  8  1  0
  7  6  1  0
  8  9  1  0
 10  9  1  6
 10 11  1  0
 10 12  1  0
 12 17  1  0
 13 12  2  0
 15 14  1  0
 16 15  1  1
 16 18  1  0
 17 16  1  0
 18 19  1  0
 20 18  2  0
M  END
$$$$
