WIP.pdb
     RDKit          3D

 30 32  0  0  1  0  0  0  0  0999 V2000
   26.5146  -18.7432  -14.2663 N   0  0  0  0  0  0  0  0  0  0  0  0
   25.5741  -19.2049  -13.2948 C   0  0  1  0  0  0  0  0  0  0  0  0
   24.5743  -20.1729  -13.8853 C   0  0  0  0  0  0  0  0  0  0  0  0
   23.8138  -19.4810  -14.9550 C   0  0  0  0  0  0  0  0  0  0  0  0
   23.9064  -19.6810  -16.3154 C   0  0  0  0  0  0  0  0  0  0  0  0
   23.0506  -18.8578  -16.9606 N   0  0  0  0  0  0  0  0  0  0  0  0
   22.4014  -18.1238  -16.0383 C   0  0  0  0  0  0  0  0  0  0  0  0
   21.4350  -17.1489  -16.1836 C   0  0  0  0  0  0  0  0  0  0  0  0
   20.8979  -16.5157  -15.0848 C   0  0  0  0  0  0  0  0  0  0  0  0
   21.3678  -16.8992  -13.8459 C   0  0  0  0  0  0  0  0  0  0  0  0
   22.3322  -17.8698  -13.6716 C   0  0  0  0  0  0  0  0  0  0  0  0
   22.8558  -18.4896  -14.7755 C   0  0  0  0  0  0  0  0  0  0  0  0
   26.2763  -19.8134  -12.1196 C   0  0  0  0  0  0  0  0  0  0  0  0
   27.0843  -20.7514  -12.3444 O   0  0  0  0  0  0  0  0  0  0  0  0
   27.8084  -17.2790   -7.8808 C   0  0  0  0  0  0  0  0  0  0  0  0
   27.6884  -18.4281   -8.8372 C   0  0  0  0  0  0  0  0  0  0  0  0
   26.4479  -19.2321   -8.5003 C   0  0  2  0  0  0  0  0  0  0  0  0
   26.6625  -19.7906   -7.1362 C   0  0  0  0  0  0  0  0  0  0  0  0
   26.1938  -20.1818   -9.6061 C   0  0  2  0  0  0  0  0  0  0  0  0
   26.0268  -19.3367  -10.8102 N   0  0  0  0  0  0  0  0  0  0  0  0
   25.0957  -21.1269   -9.4695 C   0  0  0  0  0  0  0  0  0  0  0  0
   23.9192  -20.5789   -9.5278 O   0  0  0  0  0  0  0  0  0  0  0  0
   25.0834  -22.4996   -9.2924 N   0  0  0  0  0  0  0  0  0  0  0  0
   26.1901  -23.4147   -9.2536 C   0  0  0  0  0  0  0  0  0  0  0  0
   25.7282  -24.7164   -9.8904 C   0  0  0  0  0  0  0  0  0  0  0  0
   24.2624  -24.7169   -9.5950 C   0  0  0  0  0  0  0  0  0  0  0  0
   23.9014  -23.3390   -9.1482 C   0  0  1  0  0  0  0  0  0  0  0  0
   23.4497  -23.3676   -7.7173 C   0  0  0  0  0  0  0  0  0  0  0  0
   24.1742  -22.9946   -6.7809 O   0  0  0  0  0  0  0  0  0  0  0  0
   22.1862  -23.8261   -7.4543 O   0  0  0  0  0  0  0  0  0  0  0  0
  2  1  1  6
  2 13  1  0
  3  4  1  0
  3  2  1  0
  4  5  2  0
  5  6  1  0
  7  6  1  0
  8  7  2  0
  9  8  1  0
 10 11  1  0
 10  9  2  0
 11 12  2  0
 12  4  1  0
 12  7  1  0
 13 20  1  0
 13 14  2  0
 16 17  1  0
 16 15  1  0
 17 18  1  1
 19 17  1  0
 19 21  1  0
 19 20  1  6
 21 22  2  0
 23 27  1  0
 23 21  1  0
 24 23  1  0
 25 24  1  0
 25 26  1  0
 26 27  1  0
 27 28  1  1
 28 29  2  0
 28 30  1  0
M  END
$$$$
