WIP.pdb
     RDKit          3D

 30 32  0  0  1  0  0  0  0  0999 V2000
   20.6713  -20.0380  -13.1097 N   0  0  0  0  0  0  0  0  0  0  0  0
   21.7986  -20.7894  -13.5641 C   0  0  1  0  0  0  0  0  0  0  0  0
   21.7615  -21.0250  -15.0569 C   0  0  0  0  0  0  0  0  0  0  0  0
   20.3458  -21.1230  -15.4901 C   0  0  0  0  0  0  0  0  0  0  0  0
   19.6141  -20.1868  -16.1881 C   0  0  0  0  0  0  0  0  0  0  0  0
   18.3590  -20.6437  -16.3934 N   0  0  0  0  0  0  0  0  0  0  0  0
   18.2631  -21.8657  -15.8382 C   0  0  0  0  0  0  0  0  0  0  0  0
   17.1995  -22.7435  -15.7763 C   0  0  0  0  0  0  0  0  0  0  0  0
   17.3240  -23.9627  -15.1478 C   0  0  0  0  0  0  0  0  0  0  0  0
   18.5498  -24.2603  -14.5896 C   0  0  0  0  0  0  0  0  0  0  0  0
   19.6290  -23.4025  -14.6367 C   0  0  0  0  0  0  0  0  0  0  0  0
   19.4878  -22.1937  -15.2658 C   0  0  0  0  0  0  0  0  0  0  0  0
   23.0797  -20.1262  -13.1599 C   0  0  0  0  0  0  0  0  0  0  0  0
   23.2562  -18.9324  -13.5162 O   0  0  0  0  0  0  0  0  0  0  0  0
   25.7130  -20.9187   -8.6611 C   0  0  0  0  0  0  0  0  0  0  0  0
   25.2352  -20.3472   -9.9630 C   0  0  0  0  0  0  0  0  0  0  0  0
   25.9960  -20.9952  -11.1032 C   0  0  2  0  0  0  0  0  0  0  0  0
   27.4438  -20.8106  -10.8055 C   0  0  0  0  0  0  0  0  0  0  0  0
   25.4759  -20.4529  -12.3778 C   0  0  2  0  0  0  0  0  0  0  0  0
   24.0454  -20.8335  -12.4042 N   0  0  0  0  0  0  0  0  0  0  0  0
   26.1438  -20.8288  -13.6149 C   0  0  0  0  0  0  0  0  0  0  0  0
   25.9571  -22.0676  -13.9585 O   0  0  0  0  0  0  0  0  0  0  0  0
   26.9362  -20.1024  -14.4869 N   0  0  0  0  0  0  0  0  0  0  0  0
   27.4948  -18.7897  -14.3187 C   0  0  0  0  0  0  0  0  0  0  0  0
   27.4968  -18.1166  -15.6826 C   0  0  0  0  0  0  0  0  0  0  0  0
   27.6255  -19.2786  -16.6148 C   0  0  0  0  0  0  0  0  0  0  0  0
   27.3469  -20.5131  -15.8230 C   0  0  1  0  0  0  0  0  0  0  0  0
   28.5803  -21.3654  -15.7540 C   0  0  0  0  0  0  0  0  0  0  0  0
   29.2495  -21.4884  -14.7159 O   0  0  0  0  0  0  0  0  0  0  0  0
   28.9665  -22.0251  -16.8905 O   0  0  0  0  0  0  0  0  0  0  0  0
  2  1  1  6
  2 13  1  0
  3  4  1  0
  3  2  1  0
  4  5  2  0
  5  6  1  0
  7  6  1  0
  8  7  2  0
  9  8  1  0
 10 11  1  0
 10  9  2  0
 11 12  2  0
 12  4  1  0
 12  7  1  0
 13 20  1  0
 13 14  2  0
 16 17  1  0
 16 15  1  0
 17 18  1  1
 19 17  1  0
 19 21  1  0
 19 20  1  6
 21 22  2  0
 23 27  1  0
 23 21  1  0
 24 23  1  0
 25 24  1  0
 25 26  1  0
 26 27  1  0
 27 28  1  1
 28 29  2  0
 28 30  1  0
M  END
$$$$
