WIP.pdb
     RDKit          3D

 30 32  0  0  1  0  0  0  0  0999 V2000
   27.5213  -19.1118  -17.4156 N   0  0  0  0  0  0  0  0  0  0  0  0
   26.6299  -18.7921  -16.3456 C   0  0  1  0  0  0  0  0  0  0  0  0
   25.3154  -18.2379  -16.8460 C   0  0  0  0  0  0  0  0  0  0  0  0
   25.5549  -16.8964  -17.4328 C   0  0  0  0  0  0  0  0  0  0  0  0
   25.6258  -16.5642  -18.7684 C   0  0  0  0  0  0  0  0  0  0  0  0
   25.8588  -15.2397  -18.9012 N   0  0  0  0  0  0  0  0  0  0  0  0
   25.9408  -14.7042  -17.6694 C   0  0  0  0  0  0  0  0  0  0  0  0
   26.1648  -13.4024  -17.2687 C   0  0  0  0  0  0  0  0  0  0  0  0
   26.2100  -13.0711  -15.9326 C   0  0  0  0  0  0  0  0  0  0  0  0
   26.0225  -14.0926  -15.0248 C   0  0  0  0  0  0  0  0  0  0  0  0
   25.7970  -15.4015  -15.3970 C   0  0  0  0  0  0  0  0  0  0  0  0
   25.7552  -15.7135  -16.7303 C   0  0  0  0  0  0  0  0  0  0  0  0
   26.4064  -19.9824  -15.4638 C   0  0  0  0  0  0  0  0  0  0  0  0
   26.3287  -21.1106  -16.0154 O   0  0  0  0  0  0  0  0  0  0  0  0
   26.2950  -21.4040   -9.5315 C   0  0  0  0  0  0  0  0  0  0  0  0
   25.5812  -21.5181  -10.8458 C   0  0  0  0  0  0  0  0  0  0  0  0
   26.1550  -20.5045  -11.8164 C   0  0  2  0  0  0  0  0  0  0  0  0
   25.7721  -19.1604  -11.3011 C   0  0  0  0  0  0  0  0  0  0  0  0
   25.7227  -20.8718  -13.1830 C   0  0  2  0  0  0  0  0  0  0  0  0
   26.2892  -19.8237  -14.0619 N   0  0  0  0  0  0  0  0  0  0  0  0
   24.3014  -21.0580  -13.4339 C   0  0  0  0  0  0  0  0  0  0  0  0
   23.6294  -19.9484  -13.5033 O   0  0  0  0  0  0  0  0  0  0  0  0
   23.5438  -22.2023  -13.6137 N   0  0  0  0  0  0  0  0  0  0  0  0
   23.9706  -23.5738  -13.6328 C   0  0  0  0  0  0  0  0  0  0  0  0
   23.1019  -24.3079  -14.6425 C   0  0  0  0  0  0  0  0  0  0  0  0
   21.8247  -23.5321  -14.5926 C   0  0  0  0  0  0  0  0  0  0  0  0
   22.1115  -22.2549  -13.8751 C   0  0  1  0  0  0  0  0  0  0  0  0
   21.3412  -22.2076  -12.5879 C   0  0  0  0  0  0  0  0  0  0  0  0
   21.8822  -22.3537  -11.4803 O   0  0  0  0  0  0  0  0  0  0  0  0
   19.9901  -21.9940  -12.6582 O   0  0  0  0  0  0  0  0  0  0  0  0
  2  1  1  6
  2 13  1  0
  3  4  1  0
  3  2  1  0
  4  5  2  0
  5  6  1  0
  7  6  1  0
  8  7  2  0
  9  8  1  0
 10 11  1  0
 10  9  2  0
 11 12  2  0
 12  4  1  0
 12  7  1  0
 13 20  1  0
 13 14  2  0
 16 17  1  0
 16 15  1  0
 17 18  1  1
 19 17  1  0
 19 21  1  0
 19 20  1  6
 21 22  2  0
 23 27  1  0
 23 21  1  0
 24 23  1  0
 25 24  1  0
 25 26  1  0
 26 27  1  0
 27 28  1  1
 28 29  2  0
 28 30  1  0
M  END
$$$$
