WIP.pdb
     RDKit          3D

 30 32  0  0  1  0  0  0  0  0999 V2000
   22.0309  -20.8086  -17.4592 N   0  0  0  0  0  0  0  0  0  0  0  0
   22.2343  -20.0504  -16.2653 C   0  0  1  0  0  0  0  0  0  0  0  0
   21.1224  -20.2583  -15.2624 C   0  0  0  0  0  0  0  0  0  0  0  0
   19.8672  -19.6940  -15.8168 C   0  0  0  0  0  0  0  0  0  0  0  0
   18.7079  -20.3705  -16.1291 C   0  0  0  0  0  0  0  0  0  0  0  0
   17.7872  -19.5070  -16.6118 N   0  0  0  0  0  0  0  0  0  0  0  0
   18.3313  -18.2764  -16.6182 C   0  0  0  0  0  0  0  0  0  0  0  0
   17.8051  -17.0634  -17.0147 C   0  0  0  0  0  0  0  0  0  0  0  0
   18.5510  -15.9083  -16.9344 C   0  0  0  0  0  0  0  0  0  0  0  0
   19.8352  -16.0218  -16.4439 C   0  0  0  0  0  0  0  0  0  0  0  0
   20.3862  -17.2204  -16.0408 C   0  0  0  0  0  0  0  0  0  0  0  0
   19.6303  -18.3597  -16.1274 C   0  0  0  0  0  0  0  0  0  0  0  0
   23.5673  -20.3613  -15.6564 C   0  0  0  0  0  0  0  0  0  0  0  0
   23.8525  -21.5716  -15.4637 O   0  0  0  0  0  0  0  0  0  0  0  0
   27.8190  -17.3730  -16.7209 C   0  0  0  0  0  0  0  0  0  0  0  0
   26.9364  -18.5239  -16.3386 C   0  0  0  0  0  0  0  0  0  0  0  0
   26.5856  -18.4184  -14.8674 C   0  0  2  0  0  0  0  0  0  0  0  0
   27.8755  -18.3021  -14.1316 C   0  0  0  0  0  0  0  0  0  0  0  0
   25.6887  -19.5429  -14.5206 C   0  0  2  0  0  0  0  0  0  0  0  0
   24.4611  -19.3174  -15.3167 N   0  0  0  0  0  0  0  0  0  0  0  0
   25.3727  -19.7704  -13.1184 C   0  0  0  0  0  0  0  0  0  0  0  0
   24.3971  -19.0374  -12.6730 O   0  0  0  0  0  0  0  0  0  0  0  0
   25.9233  -20.6277  -12.1814 N   0  0  0  0  0  0  0  0  0  0  0  0
   27.0235  -21.5394  -12.3285 C   0  0  0  0  0  0  0  0  0  0  0  0
   26.7202  -22.7617  -11.4757 C   0  0  0  0  0  0  0  0  0  0  0  0
   25.8772  -22.1896  -10.3813 C   0  0  0  0  0  0  0  0  0  0  0  0
   25.4574  -20.8242  -10.8151 C   0  0  1  0  0  0  0  0  0  0  0  0
   26.0545  -19.7921   -9.9036 C   0  0  0  0  0  0  0  0  0  0  0  0
   27.0194  -19.0857  -10.2362 O   0  0  0  0  0  0  0  0  0  0  0  0
   25.4997  -19.6384   -8.6608 O   0  0  0  0  0  0  0  0  0  0  0  0
  2  1  1  6
  2 13  1  0
  3  4  1  0
  3  2  1  0
  4  5  2  0
  5  6  1  0
  7  6  1  0
  8  7  2  0
  9  8  1  0
 10 11  1  0
 10  9  2  0
 11 12  2  0
 12  4  1  0
 12  7  1  0
 13 20  1  0
 13 14  2  0
 16 17  1  0
 16 15  1  0
 17 18  1  1
 19 17  1  0
 19 21  1  0
 19 20  1  6
 21 22  2  0
 23 27  1  0
 23 21  1  0
 24 23  1  0
 25 24  1  0
 25 26  1  0
 26 27  1  0
 27 28  1  1
 28 29  2  0
 28 30  1  0
M  END
$$$$
