WIP.pdb
     RDKit          3D

 30 32  0  0  1  0  0  0  0  0999 V2000
   25.6592  -20.6333  -12.9081 N   0  0  0  0  0  0  0  0  0  0  0  0
   24.5974  -20.3306  -12.0012 C   0  0  1  0  0  0  0  0  0  0  0  0
   23.2499  -20.7535  -12.5406 C   0  0  0  0  0  0  0  0  0  0  0  0
   23.0585  -20.1437  -13.8796 C   0  0  0  0  0  0  0  0  0  0  0  0
   23.6878  -20.4865  -15.0567 C   0  0  0  0  0  0  0  0  0  0  0  0
   23.2454  -19.6983  -16.0613 N   0  0  0  0  0  0  0  0  0  0  0  0
   22.3358  -18.8461  -15.5543 C   0  0  0  0  0  0  0  0  0  0  0  0
   21.5989  -17.8509  -16.1644 C   0  0  0  0  0  0  0  0  0  0  0  0
   20.7099  -17.0855  -15.4429 C   0  0  0  0  0  0  0  0  0  0  0  0
   20.5932  -17.3590  -14.0959 C   0  0  0  0  0  0  0  0  0  0  0  0
   21.3166  -18.3469  -13.4608 C   0  0  0  0  0  0  0  0  0  0  0  0
   22.1966  -19.0989  -14.1934 C   0  0  0  0  0  0  0  0  0  0  0  0
   24.8514  -20.9443  -10.6584 C   0  0  0  0  0  0  0  0  0  0  0  0
   24.9462  -22.1976  -10.5984 O   0  0  0  0  0  0  0  0  0  0  0  0
   27.6781  -18.2821   -7.2453 C   0  0  0  0  0  0  0  0  0  0  0  0
   27.0777  -19.5505   -7.7748 C   0  0  0  0  0  0  0  0  0  0  0  0
   25.6406  -19.6586   -7.3038 C   0  0  2  0  0  0  0  0  0  0  0  0
   25.6928  -19.8800   -5.8317 C   0  0  0  0  0  0  0  0  0  0  0  0
   24.9536  -20.6731   -8.1333 C   0  0  2  0  0  0  0  0  0  0  0  0
   24.9775  -20.1272   -9.5093 N   0  0  0  0  0  0  0  0  0  0  0  0
   23.6106  -21.0851   -7.7534 C   0  0  0  0  0  0  0  0  0  0  0  0
   22.6881  -20.2256   -8.0659 O   0  0  0  0  0  0  0  0  0  0  0  0
   23.1449  -22.2266   -7.1240 N   0  0  0  0  0  0  0  0  0  0  0  0
   23.8707  -23.4045   -6.7379 C   0  0  0  0  0  0  0  0  0  0  0  0
   22.9384  -24.5931   -6.9145 C   0  0  0  0  0  0  0  0  0  0  0  0
   21.5921  -23.9823   -6.6903 C   0  0  0  0  0  0  0  0  0  0  0  0
   21.7642  -22.5006   -6.7484 C   0  0  1  0  0  0  0  0  0  0  0  0
   21.4551  -21.8972   -5.4094 C   0  0  0  0  0  0  0  0  0  0  0  0
   22.3334  -21.4206   -4.6731 O   0  0  0  0  0  0  0  0  0  0  0  0
   20.1478  -21.8809   -5.0014 O   0  0  0  0  0  0  0  0  0  0  0  0
  2  1  1  6
  2 13  1  0
  3  4  1  0
  3  2  1  0
  4  5  2  0
  5  6  1  0
  7  6  1  0
  8  7  2  0
  9  8  1  0
 10 11  1  0
 10  9  2  0
 11 12  2  0
 12  4  1  0
 12  7  1  0
 13 20  1  0
 13 14  2  0
 16 17  1  0
 16 15  1  0
 17 18  1  1
 19 17  1  0
 19 21  1  0
 19 20  1  6
 21 22  2  0
 23 27  1  0
 23 21  1  0
 24 23  1  0
 25 24  1  0
 25 26  1  0
 26 27  1  0
 27 28  1  1
 28 29  2  0
 28 30  1  0
M  END
$$$$
