AFR.pdb
     RDKit          3D

 28 28  0  0  1  0  0  0  0  0999 V2000
    9.2508  -18.3807   20.6934 C   0  0  0  0  0  0  0  0  0  0  0  0
    9.2686  -16.9426   20.2635 C   0  0  2  0  0  0  0  0  0  0  0  0
   10.3337  -16.6557   19.3537 N   0  0  0  0  0  0  0  0  0  0  0  0
    9.3204  -16.0973   21.4904 C   0  0  0  0  0  0  0  0  0  0  0  0
   10.4288  -15.7589   21.9760 O   0  0  0  0  0  0  0  0  0  0  0  0
    8.1570  -15.6389   22.1618 N   0  0  0  0  0  0  0  0  0  0  0  0
    8.1725  -14.8652   23.3878 C   0  0  1  0  0  0  0  0  0  0  0  0
    6.8826  -14.1584   23.6366 C   0  0  0  0  0  0  0  0  0  0  0  0
    6.8001  -13.4513   24.9252 C   0  0  0  0  0  0  0  0  0  0  0  0
    7.4353  -12.2311   25.0885 C   0  0  0  0  0  0  0  0  0  0  0  0
    7.3904  -11.5296   26.2740 C   0  0  0  0  0  0  0  0  0  0  0  0
    6.7024  -12.0177   27.3638 C   0  0  0  0  0  0  0  0  0  0  0  0
    6.0648  -13.2311   27.2175 C   0  0  0  0  0  0  0  0  0  0  0  0
    6.1146  -13.9347   26.0157 C   0  0  0  0  0  0  0  0  0  0  0  0
    8.5900  -15.7519   24.4905 C   0  0  0  0  0  0  0  0  0  0  0  0
    7.9891  -16.8449   24.6851 O   0  0  0  0  0  0  0  0  0  0  0  0
   15.0898  -16.2300   21.9209 N   0  0  0  0  0  0  0  0  0  0  0  0
   14.7821  -16.8087   23.1785 C   0  0  0  0  0  0  0  0  0  0  0  0
   15.5949  -16.7809   24.1919 N   0  0  0  0  0  0  0  0  0  0  0  0
   13.5271  -17.4570   23.3576 N   0  0  0  0  0  0  0  0  0  0  0  0
   13.1182  -18.0279   24.6392 C   0  0  0  0  0  0  0  0  0  0  0  0
   11.7072  -17.5942   24.8915 C   0  0  0  0  0  0  0  0  0  0  0  0
   11.5149  -16.7793   26.1209 C   0  0  0  0  0  0  0  0  0  0  0  0
   10.0684  -16.4230   26.4142 C   0  0  2  0  0  0  0  0  0  0  0  0
    9.6597  -15.4719   25.3918 N   0  0  0  0  0  0  0  0  0  0  0  0
    9.8986  -15.9105   27.7834 C   0  0  0  0  0  0  0  0  0  0  0  0
    9.8861  -16.8136   28.8340 O   0  0  0  0  0  0  0  0  0  0  0  0
    9.7627  -14.7003   28.0619 O   0  0  0  0  0  0  0  0  0  0  0  0
  2  1  1  1
  2  3  1  0
  4  5  2  0
  4  2  1  0
  6  4  1  0
  7  6  1  0
  7  8  1  1
  9 14  2  0
  9  8  1  0
 10  9  1  0
 11 12  1  0
 11 10  2  0
 12 13  2  0
 13 14  1  0
 15 16  2  0
 15  7  1  0
 17 18  1  0
 18 19  2  0
 20 21  1  0
 20 18  1  0
 21 22  1  0
 22 23  1  0
 24 23  1  6
 24 25  1  0
 25 15  1  0
 26 24  1  0
 27 26  1  0
 28 26  2  0
M  END
$$$$
