AFR.pdb
     RDKit          3D

 28 28  0  0  1  0  0  0  0  0999 V2000
    3.9840  -20.2721   23.2233 C   0  0  0  0  0  0  0  0  0  0  0  0
    5.4274  -20.1742   23.6236 C   0  0  2  0  0  0  0  0  0  0  0  0
    5.7154  -20.9041   24.8190 N   0  0  0  0  0  0  0  0  0  0  0  0
    5.7753  -18.7290   23.7376 C   0  0  0  0  0  0  0  0  0  0  0  0
    5.6474  -17.9701   22.7445 O   0  0  0  0  0  0  0  0  0  0  0  0
    6.2566  -18.1430   24.9374 N   0  0  0  0  0  0  0  0  0  0  0  0
    6.6823  -16.7625   25.0590 C   0  0  1  0  0  0  0  0  0  0  0  0
    6.4635  -16.2131   26.4285 C   0  0  0  0  0  0  0  0  0  0  0  0
    6.7639  -14.7797   26.5782 C   0  0  0  0  0  0  0  0  0  0  0  0
    8.0334  -14.3730   26.9549 C   0  0  0  0  0  0  0  0  0  0  0  0
    8.3659  -13.0446   27.1104 C   0  0  0  0  0  0  0  0  0  0  0  0
    7.4377  -12.0490   26.8952 C   0  0  0  0  0  0  0  0  0  0  0  0
    6.1693  -12.4373   26.5198 C   0  0  0  0  0  0  0  0  0  0  0  0
    5.8405  -13.7825   26.3645 C   0  0  0  0  0  0  0  0  0  0  0  0
    8.0785  -16.6650   24.5924 C   0  0  0  0  0  0  0  0  0  0  0  0
    8.9670  -17.4065   25.0968 O   0  0  0  0  0  0  0  0  0  0  0  0
    8.4395  -14.0878   16.2440 N   0  0  0  0  0  0  0  0  0  0  0  0
    8.4689  -13.5201   17.5433 C   0  0  0  0  0  0  0  0  0  0  0  0
    8.4683  -12.2388   17.7594 N   0  0  0  0  0  0  0  0  0  0  0  0
    8.5023  -14.3800   18.6776 N   0  0  0  0  0  0  0  0  0  0  0  0
    8.4708  -13.8695   20.0466 C   0  0  0  0  0  0  0  0  0  0  0  0
    8.6826  -15.0350   20.9628 C   0  0  0  0  0  0  0  0  0  0  0  0
    9.9029  -14.9502   21.8089 C   0  0  0  0  0  0  0  0  0  0  0  0
    9.8778  -15.8480   23.0331 C   0  0  2  0  0  0  0  0  0  0  0  0
    8.5306  -15.7709   23.5770 N   0  0  0  0  0  0  0  0  0  0  0  0
   10.9176  -15.4751   24.0059 C   0  0  0  0  0  0  0  0  0  0  0  0
   12.2432  -15.7253   23.6900 O   0  0  0  0  0  0  0  0  0  0  0  0
   10.6787  -14.9424   25.1102 O   0  0  0  0  0  0  0  0  0  0  0  0
  2  1  1  1
  2  3  1  0
  4  5  2  0
  4  2  1  0
  6  4  1  0
  7  6  1  0
  7  8  1  1
  9 14  2  0
  9  8  1  0
 10  9  1  0
 11 12  1  0
 11 10  2  0
 12 13  2  0
 13 14  1  0
 15 16  2  0
 15  7  1  0
 17 18  1  0
 18 19  2  0
 20 21  1  0
 20 18  1  0
 21 22  1  0
 22 23  1  0
 24 23  1  6
 24 25  1  0
 25 15  1  0
 26 24  1  0
 27 26  1  0
 28 26  2  0
M  END
$$$$
