AFR.pdb
     RDKit          3D

 28 28  0  0  1  0  0  0  0  0999 V2000
    9.2146  -18.3930   20.7784 C   0  0  0  0  0  0  0  0  0  0  0  0
    8.7768  -17.0219   20.3522 C   0  0  2  0  0  0  0  0  0  0  0  0
    9.4465  -16.5753   19.1704 N   0  0  0  0  0  0  0  0  0  0  0  0
    8.9737  -16.0979   21.5055 C   0  0  0  0  0  0  0  0  0  0  0  0
   10.0555  -15.4719   21.6336 O   0  0  0  0  0  0  0  0  0  0  0  0
    7.9815  -15.8774   22.4962 N   0  0  0  0  0  0  0  0  0  0  0  0
    8.1481  -15.0003   23.6385 C   0  0  1  0  0  0  0  0  0  0  0  0
    6.8586  -14.4110   24.1022 C   0  0  0  0  0  0  0  0  0  0  0  0
    6.9476  -13.6165   25.3384 C   0  0  0  0  0  0  0  0  0  0  0  0
    7.4640  -12.3315   25.3010 C   0  0  0  0  0  0  0  0  0  0  0  0
    7.5705  -11.5469   26.4292 C   0  0  0  0  0  0  0  0  0  0  0  0
    7.1625  -12.0124   27.6605 C   0  0  0  0  0  0  0  0  0  0  0  0
    6.6464  -13.2895   27.7146 C   0  0  0  0  0  0  0  0  0  0  0  0
    6.5418  -14.0769   26.5696 C   0  0  0  0  0  0  0  0  0  0  0  0
    8.8791  -15.7376   24.6866 C   0  0  0  0  0  0  0  0  0  0  0  0
    8.4774  -16.8760   25.0560 O   0  0  0  0  0  0  0  0  0  0  0  0
   16.5482  -16.1949   24.7672 N   0  0  0  0  0  0  0  0  0  0  0  0
   15.8554  -16.7855   23.6798 C   0  0  0  0  0  0  0  0  0  0  0  0
   16.4286  -17.0953   22.5556 N   0  0  0  0  0  0  0  0  0  0  0  0
   14.4638  -17.0584   23.8074 N   0  0  0  0  0  0  0  0  0  0  0  0
   13.5129  -16.0605   24.2929 C   0  0  0  0  0  0  0  0  0  0  0  0
   13.2182  -16.3840   25.7250 C   0  0  0  0  0  0  0  0  0  0  0  0
   12.1905  -15.5176   26.3620 C   0  0  0  0  0  0  0  0  0  0  0  0
   10.7795  -16.0751   26.3024 C   0  0  2  0  0  0  0  0  0  0  0  0
   10.0504  -15.2580   25.3446 N   0  0  0  0  0  0  0  0  0  0  0  0
   10.1492  -16.1107   27.6320 C   0  0  0  0  0  0  0  0  0  0  0  0
   10.0509  -17.3270   28.2883 O   0  0  0  0  0  0  0  0  0  0  0  0
    9.6917  -15.1037   28.2126 O   0  0  0  0  0  0  0  0  0  0  0  0
  2  1  1  1
  2  3  1  0
  4  5  2  0
  4  2  1  0
  6  4  1  0
  7  6  1  0
  7  8  1  1
  9 14  2  0
  9  8  1  0
 10  9  1  0
 11 12  1  0
 11 10  2  0
 12 13  2  0
 13 14  1  0
 15 16  2  0
 15  7  1  0
 17 18  1  0
 18 19  2  0
 20 21  1  0
 20 18  1  0
 21 22  1  0
 22 23  1  0
 24 23  1  1
 24 25  1  0
 25 15  1  0
 26 24  1  0
 27 26  1  0
 28 26  2  0
M  END
$$$$
