AFR.pdb
     RDKit          3D

 28 28  0  0  1  0  0  0  0  0999 V2000
    8.1324  -17.4504   19.2125 C   0  0  0  0  0  0  0  0  0  0  0  0
    7.9857  -15.9602   19.1072 C   0  0  2  0  0  0  0  0  0  0  0  0
    8.7397  -15.4104   18.0239 N   0  0  0  0  0  0  0  0  0  0  0  0
    8.3593  -15.3680   20.4234 C   0  0  0  0  0  0  0  0  0  0  0  0
    9.5506  -15.0399   20.6511 O   0  0  0  0  0  0  0  0  0  0  0  0
    7.4206  -15.1465   21.4647 N   0  0  0  0  0  0  0  0  0  0  0  0
    7.7562  -14.5989   22.7645 C   0  0  1  0  0  0  0  0  0  0  0  0
    6.6154  -13.8712   23.3924 C   0  0  0  0  0  0  0  0  0  0  0  0
    6.8547  -13.4115   24.7703 C   0  0  0  0  0  0  0  0  0  0  0  0
    7.4886  -12.2008   24.9970 C   0  0  0  0  0  0  0  0  0  0  0  0
    7.7378  -11.7257   26.2666 C   0  0  0  0  0  0  0  0  0  0  0  0
    7.3623  -12.4438   27.3813 C   0  0  0  0  0  0  0  0  0  0  0  0
    6.7304  -13.6510   27.1726 C   0  0  0  0  0  0  0  0  0  0  0  0
    6.4818  -14.1249   25.8859 C   0  0  0  0  0  0  0  0  0  0  0  0
    8.3028  -15.6861   23.5987 C   0  0  0  0  0  0  0  0  0  0  0  0
    7.7127  -16.8009   23.6508 O   0  0  0  0  0  0  0  0  0  0  0  0
   15.6288  -15.4594   21.6299 N   0  0  0  0  0  0  0  0  0  0  0  0
   14.3872  -15.1244   21.0320 C   0  0  0  0  0  0  0  0  0  0  0  0
   14.2838  -14.3473   19.9958 N   0  0  0  0  0  0  0  0  0  0  0  0
   13.1853  -15.6547   21.5810 N   0  0  0  0  0  0  0  0  0  0  0  0
   13.1815  -16.5452   22.7397 C   0  0  0  0  0  0  0  0  0  0  0  0
   12.0681  -16.1038   23.6387 C   0  0  0  0  0  0  0  0  0  0  0  0
   11.2267  -17.2055   24.1776 C   0  0  0  0  0  0  0  0  0  0  0  0
   10.0711  -16.7414   25.0463 C   0  0  2  0  0  0  0  0  0  0  0  0
    9.4908  -15.5845   24.3818 N   0  0  0  0  0  0  0  0  0  0  0  0
   10.5021  -16.4617   26.4255 C   0  0  0  0  0  0  0  0  0  0  0  0
   11.0017  -17.5037   27.1897 O   0  0  0  0  0  0  0  0  0  0  0  0
   10.4450  -15.3326   26.9572 O   0  0  0  0  0  0  0  0  0  0  0  0
  2  1  1  1
  2  3  1  0
  4  5  2  0
  4  2  1  0
  6  4  1  0
  7  6  1  0
  7  8  1  1
  9 14  2  0
  9  8  1  0
 10  9  1  0
 11 12  1  0
 11 10  2  0
 12 13  2  0
 13 14  1  0
 15 16  2  0
 15  7  1  0
 17 18  1  0
 18 19  2  0
 20 21  1  0
 20 18  1  0
 21 22  1  0
 22 23  1  0
 24 23  1  6
 24 25  1  0
 25 15  1  0
 26 24  1  0
 27 26  1  0
 28 26  2  0
M  END
$$$$
