AFR.pdb
     RDKit          3D

 28 28  0  0  1  0  0  0  0  0999 V2000
    9.3150  -18.5669   20.6956 C   0  0  0  0  0  0  0  0  0  0  0  0
    9.3163  -17.1290   20.2645 C   0  0  2  0  0  0  0  0  0  0  0  0
   10.3899  -16.8260   19.3701 N   0  0  0  0  0  0  0  0  0  0  0  0
    9.3367  -16.2819   21.4912 C   0  0  0  0  0  0  0  0  0  0  0  0
   10.4224  -15.8114   21.9138 O   0  0  0  0  0  0  0  0  0  0  0  0
    8.1673  -15.9666   22.2312 N   0  0  0  0  0  0  0  0  0  0  0  0
    8.1528  -15.1437   23.4247 C   0  0  1  0  0  0  0  0  0  0  0  0
    6.8130  -14.5453   23.6927 C   0  0  0  0  0  0  0  0  0  0  0  0
    6.7211  -13.7577   24.9332 C   0  0  0  0  0  0  0  0  0  0  0  0
    7.2398  -12.4741   24.9794 C   0  0  0  0  0  0  0  0  0  0  0  0
    7.1812  -11.6959   26.1155 C   0  0  0  0  0  0  0  0  0  0  0  0
    6.5960  -12.1670   27.2709 C   0  0  0  0  0  0  0  0  0  0  0  0
    6.0750  -13.4429   27.2413 C   0  0  0  0  0  0  0  0  0  0  0  0
    6.1381  -14.2238   26.0888 C   0  0  0  0  0  0  0  0  0  0  0  0
    8.6852  -15.9422   24.5452 C   0  0  0  0  0  0  0  0  0  0  0  0
    8.1842  -17.0697   24.8123 O   0  0  0  0  0  0  0  0  0  0  0  0
   16.3494  -16.1111   23.4194 N   0  0  0  0  0  0  0  0  0  0  0  0
   15.2988  -16.6562   22.6381 C   0  0  0  0  0  0  0  0  0  0  0  0
   15.4646  -17.0821   21.4218 N   0  0  0  0  0  0  0  0  0  0  0  0
   13.9922  -16.7480   23.1964 N   0  0  0  0  0  0  0  0  0  0  0  0
   13.6799  -16.2618   24.5387 C   0  0  0  0  0  0  0  0  0  0  0  0
   12.3160  -16.7696   24.8916 C   0  0  0  0  0  0  0  0  0  0  0  0
   11.8291  -16.3672   26.2381 C   0  0  0  0  0  0  0  0  0  0  0  0
   10.3202  -16.4207   26.3984 C   0  0  2  0  0  0  0  0  0  0  0  0
    9.7635  -15.5362   25.3862 N   0  0  0  0  0  0  0  0  0  0  0  0
    9.9030  -16.0713   27.7660 C   0  0  0  0  0  0  0  0  0  0  0  0
    9.2181  -14.8841   27.9688 O   0  0  0  0  0  0  0  0  0  0  0  0
   10.1300  -16.7841   28.7665 O   0  0  0  0  0  0  0  0  0  0  0  0
  2  1  1  1
  2  3  1  0
  4  5  2  0
  4  2  1  0
  6  4  1  0
  7  6  1  0
  7  8  1  1
  9 14  2  0
  9  8  1  0
 10  9  1  0
 11 12  1  0
 11 10  2  0
 12 13  2  0
 13 14  1  0
 15 16  2  0
 15  7  1  0
 17 18  1  0
 18 19  2  0
 20 21  1  0
 20 18  1  0
 21 22  1  0
 22 23  1  0
 24 23  1  1
 24 25  1  0
 25 15  1  0
 26 24  1  0
 27 26  1  0
 28 26  2  0
M  END
$$$$
