AFR.pdb
     RDKit          3D

 28 28  0  0  1  0  0  0  0  0999 V2000
    7.9177  -17.7765   19.6796 C   0  0  0  0  0  0  0  0  0  0  0  0
    8.3496  -16.3476   19.5217 C   0  0  2  0  0  0  0  0  0  0  0  0
    9.4567  -16.2052   18.6281 N   0  0  0  0  0  0  0  0  0  0  0  0
    8.6357  -15.8017   20.8791 C   0  0  0  0  0  0  0  0  0  0  0  0
    9.7890  -15.9008   21.3677 O   0  0  0  0  0  0  0  0  0  0  0  0
    7.6528  -15.1578   21.6752 N   0  0  0  0  0  0  0  0  0  0  0  0
    7.9065  -14.5868   22.9835 C   0  0  1  0  0  0  0  0  0  0  0  0
    6.7646  -13.7673   23.4831 C   0  0  0  0  0  0  0  0  0  0  0  0
    6.9486  -13.2010   24.8296 C   0  0  0  0  0  0  0  0  0  0  0  0
    6.0981  -13.5699   25.8590 C   0  0  0  0  0  0  0  0  0  0  0  0
    6.2261  -13.0683   27.1363 C   0  0  0  0  0  0  0  0  0  0  0  0
    7.2191  -12.1656   27.4498 C   0  0  0  0  0  0  0  0  0  0  0  0
    8.0739  -11.7882   26.4363 C   0  0  0  0  0  0  0  0  0  0  0  0
    7.9382  -12.2997   25.1471 C   0  0  0  0  0  0  0  0  0  0  0  0
    8.3042  -15.6760   23.8956 C   0  0  0  0  0  0  0  0  0  0  0  0
    7.5487  -16.6747   24.0552 O   0  0  0  0  0  0  0  0  0  0  0  0
   13.1886  -21.1700   23.5963 N   0  0  0  0  0  0  0  0  0  0  0  0
   13.3990  -21.3066   24.9921 C   0  0  0  0  0  0  0  0  0  0  0  0
   13.4913  -22.4576   25.5879 N   0  0  0  0  0  0  0  0  0  0  0  0
   13.5158  -20.1370   25.7957 N   0  0  0  0  0  0  0  0  0  0  0  0
   13.2365  -18.8002   25.2755 C   0  0  0  0  0  0  0  0  0  0  0  0
   11.8140  -18.4772   25.6143 C   0  0  0  0  0  0  0  0  0  0  0  0
   11.3496  -17.1423   25.1512 C   0  0  0  0  0  0  0  0  0  0  0  0
    9.8925  -16.8466   25.4589 C   0  0  2  0  0  0  0  0  0  0  0  0
    9.5196  -15.7019   24.6419 N   0  0  0  0  0  0  0  0  0  0  0  0
    9.6709  -16.6284   26.8975 C   0  0  0  0  0  0  0  0  0  0  0  0
    9.3804  -17.7212   27.6982 O   0  0  0  0  0  0  0  0  0  0  0  0
    9.7280  -15.5088   27.4487 O   0  0  0  0  0  0  0  0  0  0  0  0
  2  1  1  1
  2  3  1  0
  4  5  2  0
  4  2  1  0
  6  4  1  0
  7  6  1  0
  7  8  1  1
  9 14  2  0
  9  8  1  0
 10  9  1  0
 11 12  1  0
 11 10  2  0
 12 13  2  0
 13 14  1  0
 15 16  2  0
 15  7  1  0
 17 18  1  0
 18 19  2  0
 20 21  1  0
 20 18  1  0
 21 22  1  0
 22 23  1  0
 24 23  1  1
 24 25  1  0
 25 15  1  0
 26 24  1  0
 27 26  1  0
 28 26  2  0
M  END
$$$$
