AFR.pdb
     RDKit          3D

 28 28  0  0  1  0  0  0  0  0999 V2000
    8.0307  -17.5991   19.3596 C   0  0  0  0  0  0  0  0  0  0  0  0
    8.0757  -16.1010   19.2758 C   0  0  2  0  0  0  0  0  0  0  0  0
    8.9636  -15.6355   18.2562 N   0  0  0  0  0  0  0  0  0  0  0  0
    8.4288  -15.5760   20.6257 C   0  0  0  0  0  0  0  0  0  0  0  0
    9.6342  -15.4506   20.9574 O   0  0  0  0  0  0  0  0  0  0  0  0
    7.4545  -15.1986   21.5864 N   0  0  0  0  0  0  0  0  0  0  0  0
    7.7626  -14.6072   22.8738 C   0  0  1  0  0  0  0  0  0  0  0  0
    6.6177  -13.8367   23.4399 C   0  0  0  0  0  0  0  0  0  0  0  0
    6.8595  -13.2512   24.7689 C   0  0  0  0  0  0  0  0  0  0  0  0
    7.5782  -12.0729   24.8870 C   0  0  0  0  0  0  0  0  0  0  0  0
    7.8336  -11.4845   26.1070 C   0  0  0  0  0  0  0  0  0  0  0  0
    7.3789  -12.0500   27.2786 C   0  0  0  0  0  0  0  0  0  0  0  0
    6.6619  -13.2231   27.1781 C   0  0  0  0  0  0  0  0  0  0  0  0
    6.4077  -13.8122   25.9410 C   0  0  0  0  0  0  0  0  0  0  0  0
    8.2655  -15.6706   23.7642 C   0  0  0  0  0  0  0  0  0  0  0  0
    7.5626  -16.6959   23.9843 O   0  0  0  0  0  0  0  0  0  0  0  0
    9.1856  -18.6994   21.5119 N   0  0  0  0  0  0  0  0  0  0  0  0
   10.5150  -18.8743   21.0501 C   0  0  0  0  0  0  0  0  0  0  0  0
   10.8406  -18.8441   19.7926 N   0  0  0  0  0  0  0  0  0  0  0  0
   11.5562  -19.0961   21.9956 N   0  0  0  0  0  0  0  0  0  0  0  0
   11.3778  -18.8544   23.4258 C   0  0  0  0  0  0  0  0  0  0  0  0
   11.7293  -17.4218   23.6841 C   0  0  0  0  0  0  0  0  0  0  0  0
   11.4245  -16.9422   25.0586 C   0  0  0  0  0  0  0  0  0  0  0  0
    9.9486  -16.7047   25.3244 C   0  0  2  0  0  0  0  0  0  0  0  0
    9.5302  -15.6418   24.4232 N   0  0  0  0  0  0  0  0  0  0  0  0
    9.6905  -16.3986   26.7407 C   0  0  0  0  0  0  0  0  0  0  0  0
    9.1693  -17.3940   27.5513 O   0  0  0  0  0  0  0  0  0  0  0  0
    9.9133  -15.2865   27.2643 O   0  0  0  0  0  0  0  0  0  0  0  0
  2  1  1  1
  2  3  1  0
  4  5  2  0
  4  2  1  0
  6  4  1  0
  7  6  1  0
  7  8  1  1
  9 14  2  0
  9  8  1  0
 10  9  1  0
 11 12  1  0
 11 10  2  0
 12 13  2  0
 13 14  1  0
 15 16  2  0
 15  7  1  0
 17 18  1  0
 18 19  2  0
 20 21  1  0
 20 18  1  0
 21 22  1  0
 22 23  1  0
 24 23  1  1
 24 25  1  0
 25 15  1  0
 26 24  1  0
 27 26  1  0
 28 26  2  0
M  END
$$$$
