AFR.pdb
     RDKit          3D

 28 28  0  0  1  0  0  0  0  0999 V2000
    9.6709  -19.5683   22.1437 C   0  0  0  0  0  0  0  0  0  0  0  0
    8.8926  -18.4298   21.5511 C   0  0  2  0  0  0  0  0  0  0  0  0
    9.2614  -18.1603   20.1962 N   0  0  0  0  0  0  0  0  0  0  0  0
    9.0660  -17.2442   22.4382 C   0  0  0  0  0  0  0  0  0  0  0  0
   10.1444  -16.5997   22.4248 O   0  0  0  0  0  0  0  0  0  0  0  0
    8.0544  -16.7874   23.3229 N   0  0  0  0  0  0  0  0  0  0  0  0
    8.1811  -15.6232   24.1775 C   0  0  1  0  0  0  0  0  0  0  0  0
    6.8654  -14.9905   24.4839 C   0  0  0  0  0  0  0  0  0  0  0  0
    6.9255  -13.8517   25.4150 C   0  0  0  0  0  0  0  0  0  0  0  0
    7.5232  -12.6654   25.0218 C   0  0  0  0  0  0  0  0  0  0  0  0
    7.6069  -11.5708   25.8551 C   0  0  0  0  0  0  0  0  0  0  0  0
    7.0928  -11.6087   27.1331 C   0  0  0  0  0  0  0  0  0  0  0  0
    6.4947  -12.7823   27.5397 C   0  0  0  0  0  0  0  0  0  0  0  0
    6.4138  -13.8850   26.6916 C   0  0  0  0  0  0  0  0  0  0  0  0
    8.9518  -16.0085   25.3750 C   0  0  0  0  0  0  0  0  0  0  0  0
    8.6855  -17.0844   25.9792 O   0  0  0  0  0  0  0  0  0  0  0  0
   16.1795  -17.6754   25.9492 N   0  0  0  0  0  0  0  0  0  0  0  0
   15.6818  -17.4108   24.6478 C   0  0  0  0  0  0  0  0  0  0  0  0
   15.8521  -18.2179   23.6439 N   0  0  0  0  0  0  0  0  0  0  0  0
   14.9594  -16.2070   24.4108 N   0  0  0  0  0  0  0  0  0  0  0  0
   14.3909  -15.4101   25.4959 C   0  0  0  0  0  0  0  0  0  0  0  0
   13.0649  -16.0122   25.8450 C   0  0  0  0  0  0  0  0  0  0  0  0
   12.2425  -15.2074   26.7875 C   0  0  0  0  0  0  0  0  0  0  0  0
   10.8432  -15.7505   27.0160 C   0  0  2  0  0  0  0  0  0  0  0  0
   10.0179  -15.2412   25.9314 N   0  0  0  0  0  0  0  0  0  0  0  0
   10.3305  -15.3966   28.3495 C   0  0  0  0  0  0  0  0  0  0  0  0
    9.4648  -14.3211   28.4645 O   0  0  0  0  0  0  0  0  0  0  0  0
   10.6297  -16.0103   29.3956 O   0  0  0  0  0  0  0  0  0  0  0  0
  2  1  1  1
  2  3  1  0
  4  5  2  0
  4  2  1  0
  6  4  1  0
  7  6  1  0
  7  8  1  1
  9 14  2  0
  9  8  1  0
 10  9  1  0
 11 12  1  0
 11 10  2  0
 12 13  2  0
 13 14  1  0
 15 16  2  0
 15  7  1  0
 17 18  1  0
 18 19  2  0
 20 21  1  0
 20 18  1  0
 21 22  1  0
 22 23  1  0
 24 23  1  6
 24 25  1  0
 25 15  1  0
 26 24  1  0
 27 26  1  0
 28 26  2  0
M  END
$$$$
