AFR.pdb
     RDKit          3D

 28 28  0  0  1  0  0  0  0  0999 V2000
    7.3654  -15.0999   18.6870 C   0  0  0  0  0  0  0  0  0  0  0  0
    7.5220  -13.7263   19.2718 C   0  0  2  0  0  0  0  0  0  0  0  0
    8.4185  -12.9078   18.5161 N   0  0  0  0  0  0  0  0  0  0  0  0
    7.9455  -13.8779   20.6931 C   0  0  0  0  0  0  0  0  0  0  0  0
    9.1415  -14.1465   20.9688 O   0  0  0  0  0  0  0  0  0  0  0  0
    7.0505  -13.7324   21.7851 N   0  0  0  0  0  0  0  0  0  0  0  0
    7.4531  -13.7380   23.1779 C   0  0  1  0  0  0  0  0  0  0  0  0
    6.3717  -13.2643   24.0896 C   0  0  0  0  0  0  0  0  0  0  0  0
    6.7789  -13.0776   25.4920 C   0  0  0  0  0  0  0  0  0  0  0  0
    5.8532  -12.6558   26.4324 C   0  0  0  0  0  0  0  0  0  0  0  0
    6.1831  -12.4644   27.7568 C   0  0  0  0  0  0  0  0  0  0  0  0
    7.4653  -12.6871   28.2100 C   0  0  0  0  0  0  0  0  0  0  0  0
    8.3985  -13.1072   27.2864 C   0  0  0  0  0  0  0  0  0  0  0  0
    8.0576  -13.2986   25.9488 C   0  0  0  0  0  0  0  0  0  0  0  0
    7.9658  -15.0817   23.5069 C   0  0  0  0  0  0  0  0  0  0  0  0
    7.3499  -16.1088   23.1077 O   0  0  0  0  0  0  0  0  0  0  0  0
   14.8722  -20.1541   21.9763 N   0  0  0  0  0  0  0  0  0  0  0  0
   13.6498  -19.7860   21.3588 C   0  0  0  0  0  0  0  0  0  0  0  0
   13.1282  -20.4432   20.3666 N   0  0  0  0  0  0  0  0  0  0  0  0
   12.9465  -18.6431   21.8347 N   0  0  0  0  0  0  0  0  0  0  0  0
   12.8099  -18.3467   23.2592 C   0  0  0  0  0  0  0  0  0  0  0  0
   11.3450  -18.2848   23.5641 C   0  0  0  0  0  0  0  0  0  0  0  0
   10.7517  -16.9223   23.5036 C   0  0  0  0  0  0  0  0  0  0  0  0
    9.6335  -16.6830   24.5025 C   0  0  2  0  0  0  0  0  0  0  0  0
    9.1474  -15.3323   24.2659 N   0  0  0  0  0  0  0  0  0  0  0  0
   10.0810  -16.9035   25.8872 C   0  0  0  0  0  0  0  0  0  0  0  0
   10.0220  -18.1859   26.4082 O   0  0  0  0  0  0  0  0  0  0  0  0
   10.5146  -15.9984   26.6311 O   0  0  0  0  0  0  0  0  0  0  0  0
  2  1  1  6
  2  3  1  0
  4  5  2  0
  4  2  1  0
  6  4  1  0
  7  6  1  0
  7  8  1  1
  9 14  2  0
  9  8  1  0
 10  9  1  0
 11 12  1  0
 11 10  2  0
 12 13  2  0
 13 14  1  0
 15 16  2  0
 15  7  1  0
 17 18  1  0
 18 19  2  0
 20 21  1  0
 20 18  1  0
 21 22  1  0
 22 23  1  0
 24 23  1  6
 24 25  1  0
 25 15  1  0
 26 24  1  0
 27 26  1  0
 28 26  2  0
M  END
$$$$
