AFR.pdb
     RDKit          3D

 28 28  0  0  1  0  0  0  0  0999 V2000
    8.7776  -17.2562   17.4252 C   0  0  0  0  0  0  0  0  0  0  0  0
    9.1846  -18.1397   18.5685 C   0  0  2  0  0  0  0  0  0  0  0  0
    8.1165  -18.9747   19.0230 N   0  0  0  0  0  0  0  0  0  0  0  0
    9.7307  -17.2699   19.6491 C   0  0  0  0  0  0  0  0  0  0  0  0
   10.7083  -16.5155   19.4169 O   0  0  0  0  0  0  0  0  0  0  0  0
    9.1954  -17.2433   20.9634 N   0  0  0  0  0  0  0  0  0  0  0  0
    9.7287  -16.4409   22.0467 C   0  0  1  0  0  0  0  0  0  0  0  0
    8.7132  -15.5171   22.6302 C   0  0  0  0  0  0  0  0  0  0  0  0
    8.2534  -14.4491   21.7273 C   0  0  0  0  0  0  0  0  0  0  0  0
    7.0038  -14.5322   21.1350 C   0  0  0  0  0  0  0  0  0  0  0  0
    6.5268  -13.5608   20.2814 C   0  0  0  0  0  0  0  0  0  0  0  0
    7.2819  -12.4493   19.9756 C   0  0  0  0  0  0  0  0  0  0  0  0
    8.5280  -12.3518   20.5569 C   0  0  0  0  0  0  0  0  0  0  0  0
    9.0037  -13.3379   21.4190 C   0  0  0  0  0  0  0  0  0  0  0  0
   10.3489  -17.3463   23.0327 C   0  0  0  0  0  0  0  0  0  0  0  0
    9.6479  -18.2155   23.6216 O   0  0  0  0  0  0  0  0  0  0  0  0
   18.3112  -19.1842   20.5316 N   0  0  0  0  0  0  0  0  0  0  0  0
   17.0211  -19.7597   20.6569 C   0  0  0  0  0  0  0  0  0  0  0  0
   16.7706  -21.0074   20.3945 N   0  0  0  0  0  0  0  0  0  0  0  0
   15.9354  -18.9458   21.0884 N   0  0  0  0  0  0  0  0  0  0  0  0
   15.7085  -18.6278   22.4967 C   0  0  0  0  0  0  0  0  0  0  0  0
   14.2339  -18.7155   22.7425 C   0  0  0  0  0  0  0  0  0  0  0  0
   13.7994  -18.2766   24.0955 C   0  0  0  0  0  0  0  0  0  0  0  0
   12.2962  -18.3040   24.3083 C   0  0  2  0  0  0  0  0  0  0  0  0
   11.7293  -17.3267   23.3917 N   0  0  0  0  0  0  0  0  0  0  0  0
   11.9385  -18.0555   25.7142 C   0  0  0  0  0  0  0  0  0  0  0  0
   11.2343  -16.9041   26.0270 O   0  0  0  0  0  0  0  0  0  0  0  0
   12.2330  -18.8243   26.6537 O   0  0  0  0  0  0  0  0  0  0  0  0
  2  1  1  6
  2  3  1  0
  4  5  2  0
  4  2  1  0
  6  4  1  0
  7  6  1  0
  7  8  1  1
  9 14  2  0
  9  8  1  0
 10  9  1  0
 11 12  1  0
 11 10  2  0
 12 13  2  0
 13 14  1  0
 15 16  2  0
 15  7  1  0
 17 18  1  0
 18 19  2  0
 20 21  1  0
 20 18  1  0
 21 22  1  0
 22 23  1  0
 24 23  1  1
 24 25  1  0
 25 15  1  0
 26 24  1  0
 27 26  1  0
 28 26  2  0
M  END
$$$$
