CHW.pdb
     RDKit          3D

 31 33  0  0  1  0  0  0  0  0999 V2000
    6.5099  -15.0284   19.7955 N   0  0  0  0  0  0  0  0  0  0  0  0
    7.9221  -15.2834   19.8678 C   0  0  1  0  0  0  0  0  0  0  0  0
    8.6841  -13.9584   19.9515 C   0  0  0  0  0  0  0  0  0  0  0  0
    8.3826  -13.0086   18.4406 S   0  0  0  0  0  0  0  0  0  0  0  0
    8.2123  -16.0365   21.1213 C   0  0  0  0  0  0  0  0  0  0  0  0
    7.8265  -15.5230   22.2072 O   0  0  0  0  0  0  0  0  0  0  0  0
    8.9014  -17.2930   21.0771 N   0  0  0  0  0  0  0  0  0  0  0  0
   10.3200  -17.3127   21.1997 C   0  0  1  0  0  0  0  0  0  0  0  0
   10.9822  -16.4430   20.1799 C   0  0  0  0  0  0  0  0  0  0  0  0
   11.1673  -17.1658   18.9079 C   0  0  0  0  0  0  0  0  0  0  0  0
   10.3649  -18.1245   18.3236 C   0  0  0  0  0  0  0  0  0  0  0  0
   10.9203  -18.5067   17.1626 N   0  0  0  0  0  0  0  0  0  0  0  0
   12.0521  -17.8077   17.0088 C   0  0  0  0  0  0  0  0  0  0  0  0
   12.2110  -16.9991   18.0508 N   0  0  0  0  0  0  0  0  0  0  0  0
   10.7375  -16.9663   22.5953 C   0  0  0  0  0  0  0  0  0  0  0  0
   11.9531  -16.9632   22.8695 O   0  0  0  0  0  0  0  0  0  0  0  0
    9.7845  -16.6498   23.5850 N   0  0  0  0  0  0  0  0  0  0  0  0
   10.2911  -16.2582   24.9168 C   0  0  1  0  0  0  0  0  0  0  0  0
    9.8636  -14.8694   25.2312 C   0  0  0  0  0  0  0  0  0  0  0  0
    8.4745  -14.6614   25.6471 C   0  0  0  0  0  0  0  0  0  0  0  0
    7.4475  -15.6189   25.6982 C   0  0  0  0  0  0  0  0  0  0  0  0
    6.3009  -15.0401   26.0906 N   0  0  0  0  0  0  0  0  0  0  0  0
    6.5232  -13.7266   26.3062 C   0  0  0  0  0  0  0  0  0  0  0  0
    5.7191  -12.6864   26.7288 C   0  0  0  0  0  0  0  0  0  0  0  0
    6.2532  -11.4243   26.8776 C   0  0  0  0  0  0  0  0  0  0  0  0
    7.5761  -11.1487   26.6194 C   0  0  0  0  0  0  0  0  0  0  0  0
    8.3597  -12.1939   26.1996 C   0  0  0  0  0  0  0  0  0  0  0  0
    7.8593  -13.4904   26.0343 C   0  0  0  0  0  0  0  0  0  0  0  0
    9.8426  -17.2685   25.8731 C   0  0  0  0  0  0  0  0  0  0  0  0
   10.2058  -17.2164   27.2236 O   0  0  0  0  0  0  0  0  0  0  0  0
    9.1118  -18.2394   25.5572 O   0  0  0  0  0  0  0  0  0  0  0  0
  2  1  1  1
  2  3  1  0
  3  4  1  0
  5  2  1  0
  5  6  2  0
  7  5  1  0
  8  7  1  0
  8  9  1  6
 10  9  1  0
 11 10  2  0
 12 11  1  0
 13 12  1  0
 13 14  2  0
 14 10  1  0
 15 17  1  0
 15  8  1  0
 16 15  2  0
 18 17  1  0
 18 29  1  0
 18 19  1  1
 20 19  1  0
 21 20  2  0
 22 23  1  0
 22 21  1  0
 23 28  2  0
 24 25  2  0
 24 23  1  0
 25 26  1  0
 26 27  2  0
 28 27  1  0
 28 20  1  0
 29 30  1  0
 31 29  2  0
M  END
$$$$
