CHW.pdb
     RDKit          3D

 31 33  0  0  1  0  0  0  0  0999 V2000
    7.2465  -14.2324   17.8943 N   0  0  0  0  0  0  0  0  0  0  0  0
    8.3994  -14.1511   18.7479 C   0  0  1  0  0  0  0  0  0  0  0  0
    8.4278  -12.7923   19.4523 C   0  0  0  0  0  0  0  0  0  0  0  0
    9.9278  -12.6816   20.4592 S   0  0  0  0  0  0  0  0  0  0  0  0
    8.2883  -15.1929   19.8085 C   0  0  0  0  0  0  0  0  0  0  0  0
    7.1745  -15.3111   20.3890 O   0  0  0  0  0  0  0  0  0  0  0  0
    9.4110  -16.0201   20.1421 N   0  0  0  0  0  0  0  0  0  0  0  0
    9.2771  -16.9899   21.1762 C   0  0  1  0  0  0  0  0  0  0  0  0
    9.7926  -18.3292   20.7577 C   0  0  0  0  0  0  0  0  0  0  0  0
    9.7090  -19.2985   21.8660 C   0  0  0  0  0  0  0  0  0  0  0  0
   10.7257  -19.9454   22.5387 C   0  0  0  0  0  0  0  0  0  0  0  0
   10.1880  -20.7381   23.4794 N   0  0  0  0  0  0  0  0  0  0  0  0
    8.8577  -20.6005   23.4092 C   0  0  0  0  0  0  0  0  0  0  0  0
    8.5583  -19.7384   22.4439 N   0  0  0  0  0  0  0  0  0  0  0  0
    9.9156  -16.5084   22.4421 C   0  0  0  0  0  0  0  0  0  0  0  0
   11.0378  -15.9709   22.3757 O   0  0  0  0  0  0  0  0  0  0  0  0
    9.2702  -16.6555   23.6870 N   0  0  0  0  0  0  0  0  0  0  0  0
   10.0578  -16.3569   24.9011 C   0  0  1  0  0  0  0  0  0  0  0  0
    9.6819  -15.0194   25.4305 C   0  0  0  0  0  0  0  0  0  0  0  0
    8.2620  -14.7592   25.6791 C   0  0  0  0  0  0  0  0  0  0  0  0
    7.2126  -15.6935   25.6867 C   0  0  0  0  0  0  0  0  0  0  0  0
    6.0452  -15.0691   25.9121 N   0  0  0  0  0  0  0  0  0  0  0  0
    6.2748  -13.7472   26.0574 C   0  0  0  0  0  0  0  0  0  0  0  0
    5.4557  -12.6661   26.3169 C   0  0  0  0  0  0  0  0  0  0  0  0
    6.0011  -11.4055   26.4332 C   0  0  0  0  0  0  0  0  0  0  0  0
    7.3502  -11.1710   26.2999 C   0  0  0  0  0  0  0  0  0  0  0  0
    8.1485  -12.2566   26.0412 C   0  0  0  0  0  0  0  0  0  0  0  0
    7.6375  -13.5533   25.9147 C   0  0  0  0  0  0  0  0  0  0  0  0
    9.8617  -17.4631   25.8364 C   0  0  0  0  0  0  0  0  0  0  0  0
   10.6738  -17.6259   26.9644 O   0  0  0  0  0  0  0  0  0  0  0  0
    8.9661  -18.3320   25.6972 O   0  0  0  0  0  0  0  0  0  0  0  0
  2  1  1  6
  2  3  1  0
  3  4  1  0
  5  2  1  0
  5  6  2  0
  7  5  1  0
  8  7  1  0
  8  9  1  6
 10  9  1  0
 11 10  2  0
 12 11  1  0
 13 12  1  0
 13 14  2  0
 14 10  1  0
 15 17  1  0
 15  8  1  0
 16 15  2  0
 18 17  1  0
 18 29  1  0
 18 19  1  1
 20 19  1  0
 21 20  2  0
 22 23  1  0
 22 21  1  0
 23 28  2  0
 24 25  2  0
 24 23  1  0
 25 26  1  0
 26 27  2  0
 28 27  1  0
 28 20  1  0
 29 30  1  0
 31 29  2  0
M  END
$$$$
