CHW.pdb
     RDKit          3D

 31 33  0  0  1  0  0  0  0  0999 V2000
    5.5856  -17.1557   23.5717 N   0  0  0  0  0  0  0  0  0  0  0  0
    6.3474  -15.9402   23.6547 C   0  0  1  0  0  0  0  0  0  0  0  0
    6.7460  -15.6769   25.1090 C   0  0  0  0  0  0  0  0  0  0  0  0
    5.8655  -14.2122   25.7053 S   0  0  0  0  0  0  0  0  0  0  0  0
    7.6085  -16.1078   22.8775 C   0  0  0  0  0  0  0  0  0  0  0  0
    8.0343  -17.2839   22.7121 O   0  0  0  0  0  0  0  0  0  0  0  0
    8.2967  -14.9683   22.3449 N   0  0  0  0  0  0  0  0  0  0  0  0
    9.4901  -15.1654   21.5934 C   0  0  1  0  0  0  0  0  0  0  0  0
    9.7319  -14.0528   20.6248 C   0  0  0  0  0  0  0  0  0  0  0  0
    8.6809  -14.0131   19.5910 C   0  0  0  0  0  0  0  0  0  0  0  0
    7.7796  -13.0093   19.3004 C   0  0  0  0  0  0  0  0  0  0  0  0
    7.0070  -13.4032   18.2754 N   0  0  0  0  0  0  0  0  0  0  0  0
    7.4060  -14.6309   17.9195 C   0  0  0  0  0  0  0  0  0  0  0  0
    8.4107  -15.0077   18.7026 N   0  0  0  0  0  0  0  0  0  0  0  0
   10.6593  -15.3887   22.5018 C   0  0  0  0  0  0  0  0  0  0  0  0
   11.3959  -14.4208   22.7728 O   0  0  0  0  0  0  0  0  0  0  0  0
   10.9301  -16.6619   23.0436 N   0  0  0  0  0  0  0  0  0  0  0  0
   11.3270  -16.7258   24.4655 C   0  0  1  0  0  0  0  0  0  0  0  0
   10.2870  -16.0803   25.3094 C   0  0  0  0  0  0  0  0  0  0  0  0
   10.4477  -16.1525   26.7636 C   0  0  0  0  0  0  0  0  0  0  0  0
   10.6298  -17.3060   27.5449 C   0  0  0  0  0  0  0  0  0  0  0  0
   10.6967  -16.9731   28.8443 N   0  0  0  0  0  0  0  0  0  0  0  0
   10.5670  -15.6350   28.9622 C   0  0  0  0  0  0  0  0  0  0  0  0
   10.5787  -14.7734   30.0414 C   0  0  0  0  0  0  0  0  0  0  0  0
   10.4397  -13.4173   29.8370 C   0  0  0  0  0  0  0  0  0  0  0  0
   10.2869  -12.8728   28.5827 C   0  0  0  0  0  0  0  0  0  0  0  0
   10.2765  -13.7439   27.5226 C   0  0  0  0  0  0  0  0  0  0  0  0
   10.4137  -15.1273   27.6841 C   0  0  0  0  0  0  0  0  0  0  0  0
   11.5931  -18.1269   24.7859 C   0  0  0  0  0  0  0  0  0  0  0  0
   12.6208  -18.4998   25.6596 O   0  0  0  0  0  0  0  0  0  0  0  0
   10.9303  -19.0804   24.3084 O   0  0  0  0  0  0  0  0  0  0  0  0
  2  1  1  1
  2  3  1  0
  3  4  1  0
  5  2  1  0
  5  6  2  0
  7  5  1  0
  8  7  1  0
  8  9  1  1
 10  9  1  0
 11 10  2  0
 12 11  1  0
 13 12  1  0
 13 14  2  0
 14 10  1  0
 15 17  1  0
 15  8  1  0
 16 15  2  0
 18 17  1  0
 18 29  1  0
 18 19  1  1
 20 19  1  0
 21 20  2  0
 22 23  1  0
 22 21  1  0
 23 28  2  0
 24 25  2  0
 24 23  1  0
 25 26  1  0
 26 27  2  0
 28 27  1  0
 28 20  1  0
 29 30  1  0
 31 29  2  0
M  END
$$$$
