ERC.pdb
     RDKit          3D

 27 26  0  0  1  0  0  0  0  0999 V2000
   13.5530  -17.1091   19.8290 N   0  0  0  0  0  0  0  0  0  0  0  0
   13.9223  -15.7975   20.3311 C   0  0  1  0  0  0  0  0  0  0  0  0
   14.3794  -14.8586   19.2707 C   0  0  0  0  0  0  0  0  0  0  0  0
   15.0342  -15.5655   18.1059 C   0  0  0  0  0  0  0  0  0  0  0  0
   16.4310  -15.1536   17.9045 C   0  0  0  0  0  0  0  0  0  0  0  0
   16.6965  -14.1385   17.1729 O   0  0  0  0  0  0  0  0  0  0  0  0
   12.7800  -15.2099   21.0973 C   0  0  0  0  0  0  0  0  0  0  0  0
   12.8503  -14.0298   21.5547 O   0  0  0  0  0  0  0  0  0  0  0  0
   17.5198  -15.7991   18.4628 O   0  0  0  0  0  0  0  0  0  0  0  0
    6.8636  -12.0261   19.4166 N   0  0  0  0  0  0  0  0  0  0  0  0
    7.4805  -13.1692   18.7958 C   0  0  0  0  0  0  0  0  0  0  0  0
    7.7501  -13.2082   17.5305 N   0  0  0  0  0  0  0  0  0  0  0  0
    7.8035  -14.2804   19.5867 N   0  0  0  0  0  0  0  0  0  0  0  0
    7.4278  -14.2781   21.0213 C   0  0  0  0  0  0  0  0  0  0  0  0
    7.8978  -15.4896   21.7000 C   0  0  0  0  0  0  0  0  0  0  0  0
    9.2708  -15.9062   21.5074 C   0  0  0  0  0  0  0  0  0  0  0  0
   10.4581  -15.2913   22.1379 C   0  0  2  0  0  0  0  0  0  0  0  0
   11.5945  -15.9183   21.3471 N   0  0  0  0  0  0  0  0  0  0  0  0
   10.6819  -15.8147   23.5237 C   0  0  0  0  0  0  0  0  0  0  0  0
   11.3013  -16.8374   23.7606 O   0  0  0  0  0  0  0  0  0  0  0  0
    8.3083  -14.0400   17.2025 N   0  0  0  0  0  0  0  0  0  0  0  0
   10.1579  -15.1079   24.6571 C   0  0  2  0  0  0  0  0  0  0  0  0
   10.3801  -15.6629   25.9744 C   0  0  0  0  0  0  0  0  0  0  0  0
   10.0447  -14.5354   26.9493 S   0  0  0  0  0  0  0  0  0  0  0  0
    8.4981  -13.7101   26.5551 C   0  0  0  0  0  0  0  0  0  0  0  0
    9.5014  -16.8221   26.1616 O   0  0  0  0  0  0  0  0  0  0  0  0
    8.5879  -17.0492   25.3342 O   0  0  0  0  0  0  0  0  0  0  0  0
  2  1  1  6
  3  2  1  0
  4  5  1  0
  4  3  1  0
  5  6  2  0
  7  2  1  0
  7  8  2  0
  9  5  1  0
 10 11  1  0
 11 13  1  0
 11 12  2  0
 13 14  1  0
 14 15  1  0
 17 16  1  6
 16 15  1  0
 17 18  1  0
 18  7  1  0
 19 17  1  0
 20 19  2  0
 21 19  1  0
 22 25  1  0
 22 21  1  0
 22 23  1  6
 24 23  1  0
 25 27  1  0
 26 25  2  0
M  END
$$$$
