ERC.pdb
     RDKit          3D

 27 26  0  0  1  0  0  0  0  0999 V2000
   10.1469  -19.7249   18.0730 N   0  0  0  0  0  0  0  0  0  0  0  0
   11.4769  -19.1427   18.0454 C   0  0  1  0  0  0  0  0  0  0  0  0
   11.8525  -18.5728   16.7229 C   0  0  0  0  0  0  0  0  0  0  0  0
   13.3225  -18.7375   16.4110 C   0  0  0  0  0  0  0  0  0  0  0  0
   13.7018  -18.1300   15.1270 C   0  0  0  0  0  0  0  0  0  0  0  0
   14.4515  -17.0939   15.1095 O   0  0  0  0  0  0  0  0  0  0  0  0
   11.5973  -18.1070   19.1178 C   0  0  0  0  0  0  0  0  0  0  0  0
   12.7133  -17.5570   19.3599 O   0  0  0  0  0  0  0  0  0  0  0  0
   13.2981  -18.6066   13.8926 O   0  0  0  0  0  0  0  0  0  0  0  0
    7.1549  -13.0477   18.2050 N   0  0  0  0  0  0  0  0  0  0  0  0
    7.7001  -13.1891   19.5299 C   0  0  0  0  0  0  0  0  0  0  0  0
    8.6310  -12.4118   19.9819 N   0  0  0  0  0  0  0  0  0  0  0  0
    7.2066  -14.2024   20.3633 N   0  0  0  0  0  0  0  0  0  0  0  0
    7.7141  -14.3040   21.7530 C   0  0  0  0  0  0  0  0  0  0  0  0
    9.0856  -14.8208   21.7859 C   0  0  0  0  0  0  0  0  0  0  0  0
    9.3698  -16.0805   21.1316 C   0  0  0  0  0  0  0  0  0  0  0  0
   10.6897  -16.7431   21.0663 C   0  0  2  0  0  0  0  0  0  0  0  0
   10.5050  -17.6979   19.8984 N   0  0  0  0  0  0  0  0  0  0  0  0
   10.9032  -17.6663   22.2268 C   0  0  0  0  0  0  0  0  0  0  0  0
   10.9558  -18.8790   22.1160 O   0  0  0  0  0  0  0  0  0  0  0  0
    9.0146  -12.6550   20.9331 N   0  0  0  0  0  0  0  0  0  0  0  0
   11.0578  -17.1383   23.5519 C   0  0  2  0  0  0  0  0  0  0  0  0
   11.1118  -18.0681   24.6589 C   0  0  0  0  0  0  0  0  0  0  0  0
   12.5851  -18.1362   25.0574 S   0  0  0  0  0  0  0  0  0  0  0  0
   12.8514  -19.0333   26.5915 C   0  0  0  0  0  0  0  0  0  0  0  0
   10.2761  -17.5617   25.7525 O   0  0  0  0  0  0  0  0  0  0  0  0
    9.8146  -16.3980   25.6940 O   0  0  0  0  0  0  0  0  0  0  0  0
  2  1  1  6
  3  2  1  0
  4  5  1  0
  4  3  1  0
  5  6  2  0
  7  2  1  0
  7  8  2  0
  9  5  1  0
 10 11  1  0
 11 13  1  0
 11 12  2  0
 13 14  1  0
 14 15  1  0
 17 16  1  1
 16 15  1  0
 17 18  1  0
 18  7  1  0
 19 17  1  0
 20 19  2  0
 21 19  1  0
 22 25  1  0
 22 21  1  0
 22 23  1  6
 24 23  1  0
 25 27  1  0
 26 25  2  0
M  END
$$$$
