ERC.pdb
     RDKit          3D

 27 26  0  0  1  0  0  0  0  0999 V2000
   10.5219  -18.9781   20.4280 N   0  0  0  0  0  0  0  0  0  0  0  0
   11.5483  -17.9552   20.5225 C   0  0  1  0  0  0  0  0  0  0  0  0
   11.7170  -17.1608   19.2753 C   0  0  0  0  0  0  0  0  0  0  0  0
   12.3875  -17.9435   18.1693 C   0  0  0  0  0  0  0  0  0  0  0  0
   12.5527  -17.1577   16.9377 C   0  0  0  0  0  0  0  0  0  0  0  0
   11.5335  -16.6163   16.3863 O   0  0  0  0  0  0  0  0  0  0  0  0
   11.2610  -17.0569   21.6835 C   0  0  0  0  0  0  0  0  0  0  0  0
   12.1661  -16.3062   22.1567 O   0  0  0  0  0  0  0  0  0  0  0  0
   13.7654  -16.9502   16.3052 O   0  0  0  0  0  0  0  0  0  0  0  0
    7.8876  -11.5781   20.5310 N   0  0  0  0  0  0  0  0  0  0  0  0
    8.2951  -12.7543   19.8078 C   0  0  0  0  0  0  0  0  0  0  0  0
    8.7842  -12.6960   18.6109 N   0  0  0  0  0  0  0  0  0  0  0  0
    8.1601  -14.0086   20.4188 N   0  0  0  0  0  0  0  0  0  0  0  0
    7.6445  -14.0826   21.8072 C   0  0  0  0  0  0  0  0  0  0  0  0
    7.5172  -15.4718   22.2579 C   0  0  0  0  0  0  0  0  0  0  0  0
    8.2763  -15.9000   23.4139 C   0  0  0  0  0  0  0  0  0  0  0  0
    9.7440  -16.0666   23.4719 C   0  0  2  0  0  0  0  0  0  0  0  0
   10.0014  -16.9989   22.2995 N   0  0  0  0  0  0  0  0  0  0  0  0
   10.1613  -16.8871   24.6538 C   0  0  0  0  0  0  0  0  0  0  0  0
   10.1438  -18.1058   24.6619 O   0  0  0  0  0  0  0  0  0  0  0  0
    9.0724  -13.6159   18.1844 N   0  0  0  0  0  0  0  0  0  0  0  0
   10.6104  -16.2465   25.8566 C   0  0  1  0  0  0  0  0  0  0  0  0
   10.9417  -17.0772   26.9937 C   0  0  0  0  0  0  0  0  0  0  0  0
   12.3213  -16.6054   27.4499 S   0  0  0  0  0  0  0  0  0  0  0  0
   12.8117  -17.3091   29.0289 C   0  0  0  0  0  0  0  0  0  0  0  0
    9.9299  -16.8872   28.0382 O   0  0  0  0  0  0  0  0  0  0  0  0
    9.1798  -15.8839   28.0013 O   0  0  0  0  0  0  0  0  0  0  0  0
  2  1  1  6
  3  2  1  0
  4  5  1  0
  4  3  1  0
  5  6  2  0
  7  2  1  0
  7  8  2  0
  9  5  1  0
 10 11  1  0
 11 13  1  0
 11 12  2  0
 13 14  1  0
 14 15  1  0
 17 16  1  1
 16 15  1  0
 17 18  1  0
 18  7  1  0
 19 17  1  0
 20 19  2  0
 21 19  1  0
 22 25  1  0
 22 21  1  0
 22 23  1  6
 24 23  1  0
 25 27  1  0
 26 25  2  0
M  END
$$$$
