ERC.pdb
     RDKit          3D

 27 26  0  0  1  0  0  0  0  0999 V2000
    9.6608  -18.8446   20.8201 N   0  0  0  0  0  0  0  0  0  0  0  0
   10.8998  -18.0907   20.8907 C   0  0  1  0  0  0  0  0  0  0  0  0
   11.5070  -17.8130   19.5606 C   0  0  0  0  0  0  0  0  0  0  0  0
   10.7970  -18.5266   18.4328 C   0  0  0  0  0  0  0  0  0  0  0  0
   11.4236  -18.2854   17.1249 C   0  0  0  0  0  0  0  0  0  0  0  0
   11.1392  -17.2253   16.4683 O   0  0  0  0  0  0  0  0  0  0  0  0
   10.6742  -16.8172   21.6421 C   0  0  0  0  0  0  0  0  0  0  0  0
   11.6056  -15.9659   21.7614 O   0  0  0  0  0  0  0  0  0  0  0  0
   12.3281  -19.1442   16.5265 O   0  0  0  0  0  0  0  0  0  0  0  0
    7.7848  -11.9227   18.1995 N   0  0  0  0  0  0  0  0  0  0  0  0
    7.9661  -13.3503   18.2395 C   0  0  0  0  0  0  0  0  0  0  0  0
    8.7859  -13.9662   17.4497 N   0  0  0  0  0  0  0  0  0  0  0  0
    7.2318  -14.1030   19.1663 N   0  0  0  0  0  0  0  0  0  0  0  0
    7.9376  -14.7195   20.3155 C   0  0  0  0  0  0  0  0  0  0  0  0
    7.2194  -14.4875   21.5723 C   0  0  0  0  0  0  0  0  0  0  0  0
    7.8246  -14.9300   22.8108 C   0  0  0  0  0  0  0  0  0  0  0  0
    9.2609  -15.2098   23.0203 C   0  0  2  0  0  0  0  0  0  0  0  0
    9.4459  -16.5033   22.2441 N   0  0  0  0  0  0  0  0  0  0  0  0
    9.5442  -15.6203   24.4330 C   0  0  0  0  0  0  0  0  0  0  0  0
    8.9519  -15.1617   25.3945 O   0  0  0  0  0  0  0  0  0  0  0  0
    8.8570  -15.0098   17.5804 N   0  0  0  0  0  0  0  0  0  0  0  0
   10.5554  -16.5990   24.7127 C   0  0  2  0  0  0  0  0  0  0  0  0
   10.7792  -16.9798   26.0903 C   0  0  0  0  0  0  0  0  0  0  0  0
    9.4767  -17.6365   26.5443 S   0  0  0  0  0  0  0  0  0  0  0  0
    9.5732  -18.2956   28.2132 C   0  0  0  0  0  0  0  0  0  0  0  0
   11.9087  -17.9131   26.1530 O   0  0  0  0  0  0  0  0  0  0  0  0
   12.3660  -18.4069   25.0958 O   0  0  0  0  0  0  0  0  0  0  0  0
  2  1  1  6
  3  2  1  0
  4  5  1  0
  4  3  1  0
  5  6  2  0
  7  2  1  0
  7  8  2  0
  9  5  1  0
 10 11  1  0
 11 13  1  0
 11 12  2  0
 13 14  1  0
 14 15  1  0
 17 16  1  1
 16 15  1  0
 17 18  1  0
 18  7  1  0
 19 17  1  0
 20 19  2  0
 21 19  1  0
 22 25  1  0
 22 21  1  0
 22 23  1  1
 24 23  1  0
 25 27  1  0
 26 25  2  0
M  END
$$$$
