ERC.pdb
     RDKit          3D

 27 26  0  0  1  0  0  0  0  0999 V2000
   10.3350  -13.5096   19.3972 N   0  0  0  0  0  0  0  0  0  0  0  0
    8.9429  -13.6805   19.0212 C   0  0  1  0  0  0  0  0  0  0  0  0
    8.7485  -14.5461   17.8262 C   0  0  0  0  0  0  0  0  0  0  0  0
    7.7336  -13.9850   16.8563 C   0  0  0  0  0  0  0  0  0  0  0  0
    7.8713  -14.5448   15.5038 C   0  0  0  0  0  0  0  0  0  0  0  0
    8.9394  -14.3332   14.8327 O   0  0  0  0  0  0  0  0  0  0  0  0
    8.1664  -14.2090   20.1853 C   0  0  0  0  0  0  0  0  0  0  0  0
    6.8991  -14.2198   20.1630 O   0  0  0  0  0  0  0  0  0  0  0  0
    6.9035  -15.3091   14.8769 O   0  0  0  0  0  0  0  0  0  0  0  0
    9.8784  -21.6494   22.3085 N   0  0  0  0  0  0  0  0  0  0  0  0
    9.4883  -21.1628   21.0110 C   0  0  0  0  0  0  0  0  0  0  0  0
    9.6752  -21.8490   19.9296 N   0  0  0  0  0  0  0  0  0  0  0  0
    8.8831  -19.9024   20.9115 N   0  0  0  0  0  0  0  0  0  0  0  0
    9.0350  -18.9394   22.0289 C   0  0  0  0  0  0  0  0  0  0  0  0
    8.4103  -17.6510   21.7142 C   0  0  0  0  0  0  0  0  0  0  0  0
    8.4866  -16.5845   22.6902 C   0  0  0  0  0  0  0  0  0  0  0  0
    7.9631  -15.2131   22.5158 C   0  0  2  0  0  0  0  0  0  0  0  0
    8.7855  -14.7093   21.3412 N   0  0  0  0  0  0  0  0  0  0  0  0
    8.3869  -14.3126   23.6357 C   0  0  0  0  0  0  0  0  0  0  0  0
    8.8661  -13.2059   23.4594 O   0  0  0  0  0  0  0  0  0  0  0  0
    9.3743  -21.3866   19.0313 N   0  0  0  0  0  0  0  0  0  0  0  0
    8.2390  -14.7352   24.9989 C   0  0  2  0  0  0  0  0  0  0  0  0
    7.9860  -13.7278   26.0058 C   0  0  0  0  0  0  0  0  0  0  0  0
    6.6786  -13.0576   25.5869 S   0  0  0  0  0  0  0  0  0  0  0  0
    6.1611  -11.7669   26.7248 C   0  0  0  0  0  0  0  0  0  0  0  0
    7.8682  -14.3770   27.3155 O   0  0  0  0  0  0  0  0  0  0  0  0
    7.3305  -15.5056   27.4034 O   0  0  0  0  0  0  0  0  0  0  0  0
  2  1  1  1
  3  2  1  0
  4  5  1  0
  4  3  1  0
  5  6  2  0
  7  2  1  0
  7  8  2  0
  9  5  1  0
 10 11  1  0
 11 13  1  0
 11 12  2  0
 13 14  1  0
 14 15  1  0
 17 16  1  1
 16 15  1  0
 17 18  1  0
 18  7  1  0
 19 17  1  0
 20 19  2  0
 21 19  1  0
 22 25  1  0
 22 21  1  0
 22 23  1  6
 24 23  1  0
 25 27  1  0
 26 25  2  0
M  END
$$$$
