ERC.pdb
     RDKit          3D

 27 26  0  0  1  0  0  0  0  0999 V2000
    8.1859  -15.1117   17.8911 N   0  0  0  0  0  0  0  0  0  0  0  0
    9.1015  -14.9933   19.0119 C   0  0  1  0  0  0  0  0  0  0  0  0
    9.7487  -13.6572   19.1163 C   0  0  0  0  0  0  0  0  0  0  0  0
   10.7260  -13.5688   20.2663 C   0  0  0  0  0  0  0  0  0  0  0  0
   12.1181  -13.4191   19.8179 C   0  0  0  0  0  0  0  0  0  0  0  0
   12.4007  -13.5179   18.5744 O   0  0  0  0  0  0  0  0  0  0  0  0
    8.3906  -15.3341   20.2831 C   0  0  0  0  0  0  0  0  0  0  0  0
    7.2140  -14.9135   20.4960 O   0  0  0  0  0  0  0  0  0  0  0  0
   13.1845  -13.1714   20.6636 O   0  0  0  0  0  0  0  0  0  0  0  0
    9.1912  -19.1402   26.9882 N   0  0  0  0  0  0  0  0  0  0  0  0
    7.7544  -19.1866   26.9105 C   0  0  0  0  0  0  0  0  0  0  0  0
    6.9962  -18.8385   27.9000 N   0  0  0  0  0  0  0  0  0  0  0  0
    7.1518  -19.6223   25.7224 N   0  0  0  0  0  0  0  0  0  0  0  0
    7.1938  -18.7440   24.5283 C   0  0  0  0  0  0  0  0  0  0  0  0
    8.5224  -18.7458   23.9086 C   0  0  0  0  0  0  0  0  0  0  0  0
    8.7410  -17.9338   22.7301 C   0  0  0  0  0  0  0  0  0  0  0  0
    8.1661  -16.5945   22.4835 C   0  0  2  0  0  0  0  0  0  0  0  0
    8.9758  -16.1198   21.2880 N   0  0  0  0  0  0  0  0  0  0  0  0
    8.5481  -15.6223   23.5575 C   0  0  0  0  0  0  0  0  0  0  0  0
    9.6533  -15.1147   23.6381 O   0  0  0  0  0  0  0  0  0  0  0  0
    5.9577  -18.8945   27.7282 N   0  0  0  0  0  0  0  0  0  0  0  0
    7.5958  -15.2426   24.5613 C   0  0  2  0  0  0  0  0  0  0  0  0
    7.9969  -14.2708   25.5550 C   0  0  0  0  0  0  0  0  0  0  0  0
    6.8040  -13.3279   25.7021 S   0  0  0  0  0  0  0  0  0  0  0  0
    7.0199  -12.1320   27.0258 C   0  0  0  0  0  0  0  0  0  0  0  0
    8.2987  -14.9650   26.8110 O   0  0  0  0  0  0  0  0  0  0  0  0
    7.8746  -16.1299   26.9945 O   0  0  0  0  0  0  0  0  0  0  0  0
  2  1  1  6
  3  2  1  0
  4  5  1  0
  4  3  1  0
  5  6  2  0
  7  2  1  0
  7  8  2  0
  9  5  1  0
 10 11  1  0
 11 13  1  0
 11 12  2  0
 13 14  1  0
 14 15  1  0
 17 16  1  1
 16 15  1  0
 17 18  1  0
 18  7  1  0
 19 17  1  0
 20 19  2  0
 21 19  1  0
 22 25  1  0
 22 21  1  0
 22 23  1  6
 24 23  1  0
 25 27  1  0
 26 25  2  0
M  END
$$$$
