NIM.pdb
     RDKit          3D

 25 24  0  0  1  0  0  0  0  0999 V2000
    8.5169  -19.2343   16.1333 N   0  0  0  0  0  0  0  0  0  0  0  0
    9.3610  -19.0611   17.2428 C   0  0  0  0  0  0  0  0  0  0  0  0
   10.2606  -19.8841   17.4752 O   0  0  0  0  0  0  0  0  0  0  0  0
    9.1666  -17.8993   18.1205 C   0  0  0  0  0  0  0  0  0  0  0  0
    9.1685  -18.1719   19.5795 C   0  0  2  0  0  0  0  0  0  0  0  0
    7.9676  -18.7106   20.1060 N   0  0  0  0  0  0  0  0  0  0  0  0
    9.5706  -16.9178   20.2738 C   0  0  0  0  0  0  0  0  0  0  0  0
   10.7555  -16.5134   20.1873 O   0  0  0  0  0  0  0  0  0  0  0  0
    6.6845  -12.7066   19.4490 C   0  0  0  0  0  0  0  0  0  0  0  0
    7.8969  -13.5126   19.7983 C   0  0  0  0  0  0  0  0  0  0  0  0
    7.9668  -13.9062   21.2321 C   0  0  2  0  0  0  0  0  0  0  0  0
    7.9499  -12.6316   22.0486 C   0  0  0  0  0  0  0  0  0  0  0  0
    9.0579  -14.8367   21.6301 C   0  0  2  0  0  0  0  0  0  0  0  0
    8.6620  -16.1435   21.0426 N   0  0  0  0  0  0  0  0  0  0  0  0
    9.2929  -14.9999   23.0631 C   0  0  0  0  0  0  0  0  0  0  0  0
    9.9229  -14.0840   23.6981 O   0  0  0  0  0  0  0  0  0  0  0  0
    6.3264  -11.8504   26.5661 C   0  0  0  0  0  0  0  0  0  0  0  0
    7.2407  -13.2423   27.3279 S   0  0  0  0  0  0  0  0  0  0  0  0
    6.6600  -14.8108   26.6292 C   0  0  0  0  0  0  0  0  0  0  0  0
    7.1940  -14.9694   25.2273 C   0  0  0  0  0  0  0  0  0  0  0  0
    8.3674  -15.9335   25.1928 C   0  0  2  0  0  0  0  0  0  0  0  0
    8.8837  -16.0944   23.8482 N   0  0  0  0  0  0  0  0  0  0  0  0
    7.9550  -17.2414   25.7150 C   0  0  0  0  0  0  0  0  0  0  0  0
    7.6099  -17.4274   26.9210 O   0  0  0  0  0  0  0  0  0  0  0  0
    7.9316  -18.3396   24.8789 O   0  0  0  0  0  0  0  0  0  0  0  0
  2  1  1  0
  3  2  2  0
  4  2  1  0
  5  6  1  1
  5  4  1  0
  7  5  1  0
  8  7  2  0
  9 10  1  0
 11 10  1  0
 11 13  1  0
 11 12  1  1
 13 14  1  1
 14  7  1  0
 15 13  1  0
 15 16  2  0
 18 17  1  0
 19 18  1  0
 20 19  1  0
 21 20  1  6
 22 21  1  0
 22 15  1  0
 23 21  1  0
 24 23  2  0
 25 23  1  0
M  END
$$$$
