NIM.pdb
     RDKit          3D

 25 24  0  0  1  0  0  0  0  0999 V2000
    7.6139  -17.9114   18.4937 N   0  0  0  0  0  0  0  0  0  0  0  0
    8.1944  -16.6440   18.3197 C   0  0  0  0  0  0  0  0  0  0  0  0
    8.6991  -16.3350   17.2287 O   0  0  0  0  0  0  0  0  0  0  0  0
    8.1967  -15.6936   19.4397 C   0  0  0  0  0  0  0  0  0  0  0  0
    7.5614  -16.1604   20.6973 C   0  0  2  0  0  0  0  0  0  0  0  0
    6.1572  -15.9840   20.7793 N   0  0  0  0  0  0  0  0  0  0  0  0
    8.2738  -15.5115   21.8323 C   0  0  0  0  0  0  0  0  0  0  0  0
    9.3849  -14.9625   21.6346 O   0  0  0  0  0  0  0  0  0  0  0  0
    5.7892  -12.4295   25.2114 C   0  0  0  0  0  0  0  0  0  0  0  0
    6.8609  -13.0767   24.3903 C   0  0  0  0  0  0  0  0  0  0  0  0
    7.5812  -14.1725   25.0946 C   0  0  2  0  0  0  0  0  0  0  0  0
    8.1978  -13.5754   26.3416 C   0  0  0  0  0  0  0  0  0  0  0  0
    8.5468  -14.9755   24.2963 C   0  0  2  0  0  0  0  0  0  0  0  0
    7.7473  -15.4833   23.1507 N   0  0  0  0  0  0  0  0  0  0  0  0
    9.1883  -16.0987   24.9762 C   0  0  0  0  0  0  0  0  0  0  0  0
    8.4559  -17.0095   25.4988 O   0  0  0  0  0  0  0  0  0  0  0  0
   10.9177  -12.9071   28.9994 C   0  0  0  0  0  0  0  0  0  0  0  0
   11.0757  -14.4749   29.9324 S   0  0  0  0  0  0  0  0  0  0  0  0
   11.3902  -15.8413   28.7835 C   0  0  0  0  0  0  0  0  0  0  0  0
   10.9291  -15.4558   27.3999 C   0  0  0  0  0  0  0  0  0  0  0  0
   11.1885  -16.5731   26.4039 C   0  0  2  0  0  0  0  0  0  0  0  0
   10.5749  -16.2944   25.1208 N   0  0  0  0  0  0  0  0  0  0  0  0
   10.6663  -17.8405   26.9275 C   0  0  0  0  0  0  0  0  0  0  0  0
    9.4926  -18.2569   26.6882 O   0  0  0  0  0  0  0  0  0  0  0  0
   11.4660  -18.6388   27.7206 O   0  0  0  0  0  0  0  0  0  0  0  0
  2  1  1  0
  3  2  2  0
  4  2  1  0
  5  6  1  6
  5  4  1  0
  7  5  1  0
  8  7  2  0
  9 10  1  0
 11 10  1  0
 11 13  1  0
 11 12  1  1
 13 14  1  6
 14  7  1  0
 15 13  1  0
 15 16  2  0
 18 17  1  0
 19 18  1  0
 20 19  1  0
 21 20  1  1
 22 21  1  0
 22 15  1  0
 23 21  1  0
 24 23  2  0
 25 23  1  0
M  END
$$$$
