NIM.pdb
     RDKit          3D

 25 24  0  0  1  0  0  0  0  0999 V2000
    9.7212  -20.6276   18.2816 N   0  0  0  0  0  0  0  0  0  0  0  0
    9.9503  -20.5205   19.6636 C   0  0  0  0  0  0  0  0  0  0  0  0
    9.9215  -21.5338   20.3797 O   0  0  0  0  0  0  0  0  0  0  0  0
   10.2232  -19.2005   20.2476 C   0  0  0  0  0  0  0  0  0  0  0  0
   10.1371  -18.0433   19.3221 C   0  0  2  0  0  0  0  0  0  0  0  0
   11.1581  -17.9624   18.3421 N   0  0  0  0  0  0  0  0  0  0  0  0
   10.0561  -16.8077   20.1487 C   0  0  0  0  0  0  0  0  0  0  0  0
   11.1047  -16.1749   20.4228 O   0  0  0  0  0  0  0  0  0  0  0  0
    8.5886  -12.5160   19.3135 C   0  0  0  0  0  0  0  0  0  0  0  0
    7.8052  -13.7887   19.4050 C   0  0  0  0  0  0  0  0  0  0  0  0
    7.6255  -14.2874   20.7959 C   0  0  2  0  0  0  0  0  0  0  0  0
    7.1594  -13.1172   21.6355 C   0  0  0  0  0  0  0  0  0  0  0  0
    8.7649  -15.0239   21.4075 C   0  0  2  0  0  0  0  0  0  0  0  0
    8.8279  -16.3018   20.6508 N   0  0  0  0  0  0  0  0  0  0  0  0
    8.6710  -15.3106   22.8373 C   0  0  0  0  0  0  0  0  0  0  0  0
    7.7269  -16.0654   23.2593 O   0  0  0  0  0  0  0  0  0  0  0  0
    6.7580  -10.9272   26.8092 C   0  0  0  0  0  0  0  0  0  0  0  0
    6.0813  -12.6204   26.9789 S   0  0  0  0  0  0  0  0  0  0  0  0
    7.4170  -13.8333   26.8042 C   0  0  0  0  0  0  0  0  0  0  0  0
    7.8848  -13.8685   25.3705 C   0  0  0  0  0  0  0  0  0  0  0  0
    9.1379  -14.7143   25.2227 C   0  0  2  0  0  0  0  0  0  0  0  0
    9.5402  -14.8305   23.8353 N   0  0  0  0  0  0  0  0  0  0  0  0
    8.9049  -16.0536   25.7752 C   0  0  0  0  0  0  0  0  0  0  0  0
    8.5542  -16.2549   26.9771 O   0  0  0  0  0  0  0  0  0  0  0  0
    9.0669  -17.1660   24.9738 O   0  0  0  0  0  0  0  0  0  0  0  0
  2  1  1  0
  3  2  2  0
  4  2  1  0
  5  6  1  6
  5  4  1  0
  7  5  1  0
  8  7  2  0
  9 10  1  0
 11 10  1  0
 11 13  1  0
 11 12  1  1
 13 14  1  6
 14  7  1  0
 15 13  1  0
 15 16  2  0
 18 17  1  0
 19 18  1  0
 20 19  1  0
 21 20  1  6
 22 21  1  0
 22 15  1  0
 23 21  1  0
 24 23  2  0
 25 23  1  0
M  END
$$$$
