NIM.pdb
     RDKit          3D

 25 24  0  0  1  0  0  0  0  0999 V2000
   13.0899  -20.6683   20.1569 N   0  0  0  0  0  0  0  0  0  0  0  0
   11.9230  -19.9427   19.8645 C   0  0  0  0  0  0  0  0  0  0  0  0
   11.2214  -20.2582   18.8906 O   0  0  0  0  0  0  0  0  0  0  0  0
   11.5455  -18.8111   20.7218 C   0  0  0  0  0  0  0  0  0  0  0  0
   11.4942  -17.4803   20.0666 C   0  0  2  0  0  0  0  0  0  0  0  0
   12.7220  -17.0064   19.5400 N   0  0  0  0  0  0  0  0  0  0  0  0
   10.8937  -16.5219   21.0348 C   0  0  0  0  0  0  0  0  0  0  0  0
   11.6359  -15.8995   21.8328 O   0  0  0  0  0  0  0  0  0  0  0  0
    7.2206  -13.1529   19.2946 C   0  0  0  0  0  0  0  0  0  0  0  0
    8.3366  -13.7813   20.0700 C   0  0  0  0  0  0  0  0  0  0  0  0
    7.8828  -14.5717   21.2468 C   0  0  2  0  0  0  0  0  0  0  0  0
    7.0119  -13.6636   22.0886 C   0  0  0  0  0  0  0  0  0  0  0  0
    8.9285  -15.2727   22.0403 C   0  0  2  0  0  0  0  0  0  0  0  0
    9.4971  -16.2737   21.0999 N   0  0  0  0  0  0  0  0  0  0  0  0
    8.4873  -15.9474   23.2591 C   0  0  0  0  0  0  0  0  0  0  0  0
    7.9575  -17.1095   23.1694 O   0  0  0  0  0  0  0  0  0  0  0  0
   11.5062  -13.3621   28.9429 C   0  0  0  0  0  0  0  0  0  0  0  0
    9.7647  -13.6409   28.4498 S   0  0  0  0  0  0  0  0  0  0  0  0
    9.6695  -15.0471   27.3099 C   0  0  0  0  0  0  0  0  0  0  0  0
    8.2251  -15.3453   26.9932 C   0  0  0  0  0  0  0  0  0  0  0  0
    8.1004  -16.1675   25.7219 C   0  0  2  0  0  0  0  0  0  0  0  0
    8.5886  -15.4392   24.5680 N   0  0  0  0  0  0  0  0  0  0  0  0
    6.6982  -16.5408   25.5037 C   0  0  0  0  0  0  0  0  0  0  0  0
    5.8909  -15.8336   24.8282 O   0  0  0  0  0  0  0  0  0  0  0  0
    6.2054  -17.7105   26.0465 O   0  0  0  0  0  0  0  0  0  0  0  0
  2  1  1  0
  3  2  2  0
  4  2  1  0
  5  6  1  1
  5  4  1  0
  7  5  1  0
  8  7  2  0
  9 10  1  0
 11 10  1  0
 11 13  1  0
 11 12  1  1
 13 14  1  6
 14  7  1  0
 15 13  1  0
 15 16  2  0
 18 17  1  0
 19 18  1  0
 20 19  1  0
 21 20  1  1
 22 21  1  0
 22 15  1  0
 23 21  1  0
 24 23  2  0
 25 23  1  0
M  END
$$$$
