NIM.pdb
     RDKit          3D

 25 24  0  0  1  0  0  0  0  0999 V2000
   12.2324  -21.2275   20.2849 N   0  0  0  0  0  0  0  0  0  0  0  0
   11.8506  -20.0510   19.6189 C   0  0  0  0  0  0  0  0  0  0  0  0
   11.5986  -20.0772   18.4039 O   0  0  0  0  0  0  0  0  0  0  0  0
   11.7537  -18.7952   20.3749 C   0  0  0  0  0  0  0  0  0  0  0  0
   11.1702  -17.6377   19.6519 C   0  0  2  0  0  0  0  0  0  0  0  0
   11.9895  -17.0635   18.6477 N   0  0  0  0  0  0  0  0  0  0  0  0
   10.7465  -16.6359   20.6685 C   0  0  0  0  0  0  0  0  0  0  0  0
   11.6159  -15.9985   21.3112 O   0  0  0  0  0  0  0  0  0  0  0  0
    6.8060  -13.3559   19.3777 C   0  0  0  0  0  0  0  0  0  0  0  0
    8.0438  -13.9464   19.9782 C   0  0  0  0  0  0  0  0  0  0  0  0
    7.8126  -14.6424   21.2735 C   0  0  2  0  0  0  0  0  0  0  0  0
    7.1125  -13.6626   22.1908 C   0  0  0  0  0  0  0  0  0  0  0  0
    8.9853  -15.2996   21.9119 C   0  0  2  0  0  0  0  0  0  0  0  0
    9.3821  -16.3621   20.9510 N   0  0  0  0  0  0  0  0  0  0  0  0
    8.7698  -15.8930   23.2298 C   0  0  0  0  0  0  0  0  0  0  0  0
    8.1389  -17.0037   23.3159 O   0  0  0  0  0  0  0  0  0  0  0  0
    6.7243  -12.4562   26.4716 C   0  0  0  0  0  0  0  0  0  0  0  0
    8.1736  -12.8425   27.5223 S   0  0  0  0  0  0  0  0  0  0  0  0
    9.4264  -13.7105   26.5410 C   0  0  0  0  0  0  0  0  0  0  0  0
    9.4210  -15.1767   26.8957 C   0  0  0  0  0  0  0  0  0  0  0  0
    8.9596  -16.0236   25.7219 C   0  0  2  0  0  0  0  0  0  0  0  0
    9.1995  -15.3560   24.4581 N   0  0  0  0  0  0  0  0  0  0  0  0
    7.5283  -16.3197   25.8514 C   0  0  0  0  0  0  0  0  0  0  0  0
    6.6443  -15.8030   25.1032 O   0  0  0  0  0  0  0  0  0  0  0  0
    7.0927  -17.1976   26.8237 O   0  0  0  0  0  0  0  0  0  0  0  0
  2  1  1  0
  3  2  2  0
  4  2  1  0
  5  6  1  6
  5  4  1  0
  7  5  1  0
  8  7  2  0
  9 10  1  0
 11 10  1  0
 11 13  1  0
 11 12  1  1
 13 14  1  6
 14  7  1  0
 15 13  1  0
 15 16  2  0
 18 17  1  0
 19 18  1  0
 20 19  1  0
 21 20  1  1
 22 21  1  0
 22 15  1  0
 23 21  1  0
 24 23  2  0
 25 23  1  0
M  END
$$$$
