NIM.pdb
     RDKit          3D

 25 24  0  0  1  0  0  0  0  0999 V2000
    8.5269  -21.3527   18.3065 N   0  0  0  0  0  0  0  0  0  0  0  0
    8.3498  -20.2271   17.4848 C   0  0  0  0  0  0  0  0  0  0  0  0
    8.2208  -20.3658   16.2582 O   0  0  0  0  0  0  0  0  0  0  0  0
    8.3193  -18.8901   18.0926 C   0  0  0  0  0  0  0  0  0  0  0  0
    8.5962  -18.8254   19.5494 C   0  0  2  0  0  0  0  0  0  0  0  0
    7.5096  -19.1573   20.3971 N   0  0  0  0  0  0  0  0  0  0  0  0
    9.1447  -17.4736   19.8463 C   0  0  0  0  0  0  0  0  0  0  0  0
   10.2640  -17.1432   19.3846 O   0  0  0  0  0  0  0  0  0  0  0  0
    7.1268  -11.9141   19.9832 C   0  0  0  0  0  0  0  0  0  0  0  0
    8.2490  -12.7815   20.4628 C   0  0  0  0  0  0  0  0  0  0  0  0
    7.9466  -14.2382   20.4181 C   0  0  2  0  0  0  0  0  0  0  0  0
    6.6208  -14.4431   21.1195 C   0  0  0  0  0  0  0  0  0  0  0  0
    9.0060  -15.1683   20.8949 C   0  0  2  0  0  0  0  0  0  0  0  0
    8.4502  -16.5233   20.6405 N   0  0  0  0  0  0  0  0  0  0  0  0
    9.3938  -15.0586   22.2996 C   0  0  0  0  0  0  0  0  0  0  0  0
   10.1505  -14.0915   22.6619 O   0  0  0  0  0  0  0  0  0  0  0  0
    6.6365  -11.7492   28.0151 C   0  0  0  0  0  0  0  0  0  0  0  0
    6.6381  -12.4408   26.3194 S   0  0  0  0  0  0  0  0  0  0  0  0
    7.7256  -13.8894   26.2508 C   0  0  0  0  0  0  0  0  0  0  0  0
    7.8582  -14.3559   24.8224 C   0  0  0  0  0  0  0  0  0  0  0  0
    8.8613  -15.4908   24.7065 C   0  0  2  0  0  0  0  0  0  0  0  0
    9.0083  -15.9322   23.3340 N   0  0  0  0  0  0  0  0  0  0  0  0
    8.4343  -16.6220   25.5380 C   0  0  0  0  0  0  0  0  0  0  0  0
    7.8256  -17.6323   25.0721 O   0  0  0  0  0  0  0  0  0  0  0  0
    8.6928  -16.6151   26.8940 O   0  0  0  0  0  0  0  0  0  0  0  0
  2  1  1  0
  3  2  2  0
  4  2  1  0
  5  6  1  1
  5  4  1  0
  7  5  1  0
  8  7  2  0
  9 10  1  0
 11 10  1  0
 11 13  1  0
 11 12  1  1
 13 14  1  1
 14  7  1  0
 15 13  1  0
 15 16  2  0
 18 17  1  0
 19 18  1  0
 20 19  1  0
 21 20  1  6
 22 21  1  0
 22 15  1  0
 23 21  1  0
 24 23  2  0
 25 23  1  0
M  END
$$$$
