NIM.pdb
     RDKit          3D

 25 24  0  0  1  0  0  0  0  0999 V2000
    9.5414  -17.4092   19.6988 N   0  0  0  0  0  0  0  0  0  0  0  0
    8.6403  -18.1459   20.4856 C   0  0  0  0  0  0  0  0  0  0  0  0
    8.7772  -19.3737   20.6043 O   0  0  0  0  0  0  0  0  0  0  0  0
    7.5392  -17.4481   21.1627 C   0  0  0  0  0  0  0  0  0  0  0  0
    7.4850  -15.9761   20.9806 C   0  0  2  0  0  0  0  0  0  0  0  0
    7.8900  -15.4985   19.7089 N   0  0  0  0  0  0  0  0  0  0  0  0
    8.2649  -15.3543   22.0859 C   0  0  0  0  0  0  0  0  0  0  0  0
    9.4688  -15.0512   21.9015 O   0  0  0  0  0  0  0  0  0  0  0  0
    6.8394  -11.6595   26.6734 C   0  0  0  0  0  0  0  0  0  0  0  0
    7.9312  -12.4290   25.9971 C   0  0  0  0  0  0  0  0  0  0  0  0
    7.4404  -13.4491   25.0305 C   0  0  2  0  0  0  0  0  0  0  0  0
    6.3300  -14.2178   25.7145 C   0  0  0  0  0  0  0  0  0  0  0  0
    8.4571  -14.3344   24.4003 C   0  0  2  0  0  0  0  0  0  0  0  0
    7.7024  -15.0828   23.3611 N   0  0  0  0  0  0  0  0  0  0  0  0
    9.1408  -15.2804   25.2794 C   0  0  0  0  0  0  0  0  0  0  0  0
    8.4879  -16.2771   25.7480 O   0  0  0  0  0  0  0  0  0  0  0  0
   12.5686  -14.9107   30.2122 C   0  0  0  0  0  0  0  0  0  0  0  0
   11.0711  -13.8945   29.9323 S   0  0  0  0  0  0  0  0  0  0  0  0
   10.3625  -14.2836   28.3098 C   0  0  0  0  0  0  0  0  0  0  0  0
   10.4385  -15.7705   28.0673 C   0  0  0  0  0  0  0  0  0  0  0  0
   11.0383  -16.0745   26.7052 C   0  0  2  0  0  0  0  0  0  0  0  0
   10.4892  -15.2120   25.6782 N   0  0  0  0  0  0  0  0  0  0  0  0
   10.7859  -17.4756   26.3495 C   0  0  0  0  0  0  0  0  0  0  0  0
    9.9429  -18.2027   26.9569 O   0  0  0  0  0  0  0  0  0  0  0  0
   11.4831  -18.0576   25.3099 O   0  0  0  0  0  0  0  0  0  0  0  0
  2  1  1  0
  3  2  2  0
  4  2  1  0
  5  6  1  6
  5  4  1  0
  7  5  1  0
  8  7  2  0
  9 10  1  0
 11 10  1  0
 11 13  1  0
 11 12  1  1
 13 14  1  6
 14  7  1  0
 15 13  1  0
 15 16  2  0
 18 17  1  0
 19 18  1  0
 20 19  1  0
 21 20  1  1
 22 21  1  0
 22 15  1  0
 23 21  1  0
 24 23  2  0
 25 23  1  0
M  END
$$$$
