KDA.pdb
     RDKit          3D

 23 22  0  0  1  0  0  0  0  0999 V2000
    5.6784  -17.0029   22.0927 N   0  0  0  0  0  0  0  0  0  0  0  0
    7.0543  -16.5289   21.9521 C   0  0  1  0  0  0  0  0  0  0  0  0
    6.9392  -15.0631   21.6098 C   0  0  0  0  0  0  0  0  0  0  0  0
    8.0119  -14.5866   20.6780 C   0  0  0  0  0  0  0  0  0  0  0  0
    7.8640  -13.1126   20.3686 C   0  0  0  0  0  0  0  0  0  0  0  0
    8.9474  -12.7409   19.3736 C   0  0  0  0  0  0  0  0  0  0  0  0
    8.6940  -11.3957   18.9226 N   0  0  0  0  0  0  0  0  0  0  0  0
    7.7826  -16.6548   23.2361 C   0  0  0  0  0  0  0  0  0  0  0  0
    7.2533  -16.4824   24.3609 O   0  0  0  0  0  0  0  0  0  0  0  0
    9.1767  -16.9903   23.2869 N   0  0  0  0  0  0  0  0  0  0  0  0
    9.9238  -17.2079   24.4722 C   0  0  1  0  0  0  0  0  0  0  0  0
   11.2354  -17.9030   24.2891 C   0  0  0  0  0  0  0  0  0  0  0  0
   11.9233  -18.2081   25.5631 C   0  0  0  0  0  0  0  0  0  0  0  0
   12.8870  -17.5732   26.0163 O   0  0  0  0  0  0  0  0  0  0  0  0
   10.0197  -15.9610   25.2392 C   0  0  0  0  0  0  0  0  0  0  0  0
   10.7455  -15.0348   24.8041 O   0  0  0  0  0  0  0  0  0  0  0  0
   11.4478  -19.2860   26.2981 O   0  0  0  0  0  0  0  0  0  0  0  0
    8.3377  -13.7964   27.4752 C   0  0  0  0  0  0  0  0  0  0  0  0
    9.6341  -14.5882   27.3262 C   0  0  2  0  0  0  0  0  0  0  0  0
    9.3369  -15.7173   26.4658 N   0  0  0  0  0  0  0  0  0  0  0  0
   10.1384  -15.0182   28.6523 C   0  0  0  0  0  0  0  0  0  0  0  0
   10.4288  -14.1087   29.4716 O   0  0  0  0  0  0  0  0  0  0  0  0
   10.3073  -16.3227   29.0410 O   0  0  0  0  0  0  0  0  0  0  0  0
  2  1  1  1
  3  2  1  0
  4  3  1  0
  5  6  1  0
  5  4  1  0
  7  6  1  0
  8  2  1  0
  8 10  1  0
  9  8  2  0
 11 10  1  0
 12 13  1  0
 11 12  1  6
 13 17  1  0
 14 13  2  0
 15 11  1  0
 15 20  1  0
 16 15  2  0
 19 18  1  1
 19 20  1  0
 19 21  1  0
 21 22  2  0
 21 23  1  0
M  END
$$$$
