KDA.pdb
     RDKit          3D

 23 22  0  0  1  0  0  0  0  0999 V2000
    6.9203  -17.1066   21.4243 N   0  0  0  0  0  0  0  0  0  0  0  0
    8.2948  -16.6084   21.4152 C   0  0  1  0  0  0  0  0  0  0  0  0
    8.1763  -15.1110   21.2645 C   0  0  0  0  0  0  0  0  0  0  0  0
    7.8112  -14.6827   19.8755 C   0  0  0  0  0  0  0  0  0  0  0  0
    7.7618  -13.1750   19.7544 C   0  0  0  0  0  0  0  0  0  0  0  0
    7.3637  -12.8412   18.3289 C   0  0  0  0  0  0  0  0  0  0  0  0
    7.1991  -11.4124   18.2364 N   0  0  0  0  0  0  0  0  0  0  0  0
    8.9628  -16.8985   22.7054 C   0  0  0  0  0  0  0  0  0  0  0  0
    8.3487  -17.1213   23.7771 O   0  0  0  0  0  0  0  0  0  0  0  0
   10.3918  -16.9466   22.8249 N   0  0  0  0  0  0  0  0  0  0  0  0
   11.1044  -17.2400   24.0151 C   0  0  1  0  0  0  0  0  0  0  0  0
   12.5159  -17.6968   23.8254 C   0  0  0  0  0  0  0  0  0  0  0  0
   12.6444  -18.8443   22.9000 C   0  0  0  0  0  0  0  0  0  0  0  0
   11.9922  -19.8955   22.9820 O   0  0  0  0  0  0  0  0  0  0  0  0
   10.9663  -16.1323   24.9670 C   0  0  0  0  0  0  0  0  0  0  0  0
   11.0150  -14.9541   24.5388 O   0  0  0  0  0  0  0  0  0  0  0  0
   13.5652  -18.7260   21.8674 O   0  0  0  0  0  0  0  0  0  0  0  0
    9.2811  -14.4870   26.8096 C   0  0  0  0  0  0  0  0  0  0  0  0
   10.5568  -15.1847   27.2741 C   0  0  2  0  0  0  0  0  0  0  0  0
   10.7773  -16.2967   26.3697 N   0  0  0  0  0  0  0  0  0  0  0  0
   10.4244  -15.6314   28.6815 C   0  0  0  0  0  0  0  0  0  0  0  0
   10.2932  -16.8677   28.8750 O   0  0  0  0  0  0  0  0  0  0  0  0
   10.4353  -14.7996   29.7720 O   0  0  0  0  0  0  0  0  0  0  0  0
  2  1  1  1
  3  2  1  0
  4  3  1  0
  5  6  1  0
  5  4  1  0
  7  6  1  0
  8  2  1  0
  8 10  1  0
  9  8  2  0
 11 10  1  0
 12 13  1  0
 11 12  1  6
 13 17  1  0
 14 13  2  0
 15 11  1  0
 15 20  1  0
 16 15  2  0
 19 18  1  6
 19 20  1  0
 19 21  1  0
 21 22  2  0
 21 23  1  0
M  END
$$$$
