KDA.pdb
     RDKit          3D

 23 22  0  0  1  0  0  0  0  0999 V2000
    6.5453  -16.9279   21.0101 N   0  0  0  0  0  0  0  0  0  0  0  0
    7.9637  -17.1858   21.2534 C   0  0  1  0  0  0  0  0  0  0  0  0
    8.6976  -16.0521   20.5788 C   0  0  0  0  0  0  0  0  0  0  0  0
    7.8525  -14.8290   20.3895 C   0  0  0  0  0  0  0  0  0  0  0  0
    8.6435  -13.6984   19.7681 C   0  0  0  0  0  0  0  0  0  0  0  0
    7.6978  -12.5278   19.5750 C   0  0  0  0  0  0  0  0  0  0  0  0
    8.4116  -11.4909   18.8733 N   0  0  0  0  0  0  0  0  0  0  0  0
    8.2604  -17.1391   22.7042 C   0  0  0  0  0  0  0  0  0  0  0  0
    7.4155  -16.8382   23.5822 O   0  0  0  0  0  0  0  0  0  0  0  0
    9.5643  -17.4412   23.2212 N   0  0  0  0  0  0  0  0  0  0  0  0
    9.8944  -17.5529   24.5956 C   0  0  1  0  0  0  0  0  0  0  0  0
   11.0662  -18.4283   24.9081 C   0  0  0  0  0  0  0  0  0  0  0  0
   11.3710  -18.5107   26.3537 C   0  0  0  0  0  0  0  0  0  0  0  0
   10.7939  -19.2585   27.1568 O   0  0  0  0  0  0  0  0  0  0  0  0
    9.9775  -16.2188   25.2002 C   0  0  0  0  0  0  0  0  0  0  0  0
   10.9124  -15.4548   24.8592 O   0  0  0  0  0  0  0  0  0  0  0  0
   12.3785  -17.6864   26.8372 O   0  0  0  0  0  0  0  0  0  0  0  0
    7.8835  -13.7627   26.8835 C   0  0  0  0  0  0  0  0  0  0  0  0
    9.2452  -14.4515   26.8522 C   0  0  2  0  0  0  0  0  0  0  0  0
    9.0581  -15.7149   26.1651 N   0  0  0  0  0  0  0  0  0  0  0  0
    9.7670  -14.6391   28.2271 C   0  0  0  0  0  0  0  0  0  0  0  0
    9.9747  -13.5983   28.9027 O   0  0  0  0  0  0  0  0  0  0  0  0
   10.0350  -15.8540   28.8045 O   0  0  0  0  0  0  0  0  0  0  0  0
  2  1  1  1
  3  2  1  0
  4  3  1  0
  5  6  1  0
  5  4  1  0
  7  6  1  0
  8  2  1  0
  8 10  1  0
  9  8  2  0
 11 10  1  0
 12 13  1  0
 11 12  1  6
 13 17  1  0
 14 13  2  0
 15 11  1  0
 15 20  1  0
 16 15  2  0
 19 18  1  1
 19 20  1  0
 19 21  1  0
 21 22  2  0
 21 23  1  0
M  END
$$$$
