KDA.pdb
     RDKit          3D

 23 22  0  0  1  0  0  0  0  0999 V2000
    8.3989  -17.9637   19.4131 N   0  0  0  0  0  0  0  0  0  0  0  0
    9.4662  -17.0273   19.7618 C   0  0  1  0  0  0  0  0  0  0  0  0
    8.7906  -15.6844   19.9001 C   0  0  0  0  0  0  0  0  0  0  0  0
    8.2695  -15.1472   18.6017 C   0  0  0  0  0  0  0  0  0  0  0  0
    7.7782  -13.7232   18.7472 C   0  0  0  0  0  0  0  0  0  0  0  0
    7.4627  -13.2016   17.3579 C   0  0  0  0  0  0  0  0  0  0  0  0
    6.9696  -11.8539   17.4905 N   0  0  0  0  0  0  0  0  0  0  0  0
   10.0683  -17.3860   21.0671 C   0  0  0  0  0  0  0  0  0  0  0  0
    9.4250  -17.8889   22.0202 O   0  0  0  0  0  0  0  0  0  0  0  0
   11.4615  -17.1794   21.3414 N   0  0  0  0  0  0  0  0  0  0  0  0
   12.1402  -17.6180   22.5065 C   0  0  1  0  0  0  0  0  0  0  0  0
   13.6299  -17.6935   22.3947 C   0  0  0  0  0  0  0  0  0  0  0  0
   14.2746  -18.3541   23.5511 C   0  0  0  0  0  0  0  0  0  0  0  0
   15.4485  -18.1717   23.9059 O   0  0  0  0  0  0  0  0  0  0  0  0
   11.6744  -16.8593   23.6725 C   0  0  0  0  0  0  0  0  0  0  0  0
   12.0841  -15.6848   23.8359 O   0  0  0  0  0  0  0  0  0  0  0  0
   13.5005  -19.2415   24.2870 O   0  0  0  0  0  0  0  0  0  0  0  0
    8.9397  -16.2989   25.7513 C   0  0  0  0  0  0  0  0  0  0  0  0
   10.4242  -16.6375   25.8579 C   0  0  2  0  0  0  0  0  0  0  0  0
   10.7736  -17.3657   24.6534 N   0  0  0  0  0  0  0  0  0  0  0  0
   10.6924  -17.4286   27.0827 C   0  0  0  0  0  0  0  0  0  0  0  0
   10.9578  -18.6482   26.9242 O   0  0  0  0  0  0  0  0  0  0  0  0
   10.6711  -16.9277   28.3593 O   0  0  0  0  0  0  0  0  0  0  0  0
  2  1  1  1
  3  2  1  0
  4  3  1  0
  5  6  1  0
  5  4  1  0
  7  6  1  0
  8  2  1  0
  8 10  1  0
  9  8  2  0
 11 10  1  0
 12 13  1  0
 11 12  1  6
 13 17  1  0
 14 13  2  0
 15 11  1  0
 15 20  1  0
 16 15  2  0
 19 18  1  6
 19 20  1  0
 19 21  1  0
 21 22  2  0
 21 23  1  0
M  END
$$$$
