KDA.pdb
     RDKit          3D

 23 22  0  0  1  0  0  0  0  0999 V2000
   10.4080  -13.1015   18.7502 N   0  0  0  0  0  0  0  0  0  0  0  0
    9.0650  -12.9407   19.3052 C   0  0  1  0  0  0  0  0  0  0  0  0
    8.1266  -13.0974   18.1331 C   0  0  0  0  0  0  0  0  0  0  0  0
    8.5773  -14.1329   17.1479 C   0  0  0  0  0  0  0  0  0  0  0  0
    7.6948  -14.1510   15.9187 C   0  0  0  0  0  0  0  0  0  0  0  0
    8.2491  -15.1975   14.9703 C   0  0  0  0  0  0  0  0  0  0  0  0
    7.4267  -15.2050   13.7869 N   0  0  0  0  0  0  0  0  0  0  0  0
    8.7744  -14.0132   20.2853 C   0  0  0  0  0  0  0  0  0  0  0  0
    7.6866  -14.1221   20.9017 O   0  0  0  0  0  0  0  0  0  0  0  0
    9.7373  -15.0270   20.6071 N   0  0  0  0  0  0  0  0  0  0  0  0
    9.5255  -16.1005   21.5088 C   0  0  1  0  0  0  0  0  0  0  0  0
   10.3372  -17.3298   21.2496 C   0  0  0  0  0  0  0  0  0  0  0  0
    9.9777  -18.4683   22.1237 C   0  0  0  0  0  0  0  0  0  0  0  0
    9.1103  -18.4340   23.0090 O   0  0  0  0  0  0  0  0  0  0  0  0
    9.6128  -15.6174   22.8912 C   0  0  0  0  0  0  0  0  0  0  0  0
   10.7439  -15.3981   23.3876 O   0  0  0  0  0  0  0  0  0  0  0  0
   10.6675  -19.6579   21.9313 O   0  0  0  0  0  0  0  0  0  0  0  0
    7.3639  -13.9968   25.3270 C   0  0  0  0  0  0  0  0  0  0  0  0
    8.6030  -14.8528   25.0786 C   0  0  2  0  0  0  0  0  0  0  0  0
    8.4870  -15.3735   23.7300 N   0  0  0  0  0  0  0  0  0  0  0  0
    8.6993  -15.9363   26.0858 C   0  0  0  0  0  0  0  0  0  0  0  0
    8.7927  -15.5853   27.2904 O   0  0  0  0  0  0  0  0  0  0  0  0
    8.6937  -17.2772   25.7972 O   0  0  0  0  0  0  0  0  0  0  0  0
  2  1  1  6
  3  2  1  0
  4  3  1  0
  5  6  1  0
  5  4  1  0
  7  6  1  0
  8  2  1  0
  8 10  1  0
  9  8  2  0
 11 10  1  0
 12 13  1  0
 11 12  1  1
 13 17  1  0
 14 13  2  0
 15 11  1  0
 15 20  1  0
 16 15  2  0
 19 18  1  1
 19 20  1  0
 19 21  1  0
 21 22  2  0
 21 23  1  0
M  END
$$$$
