KDA.pdb
     RDKit          3D

 23 22  0  0  1  0  0  0  0  0999 V2000
   10.0732  -15.7365   20.4524 N   0  0  0  0  0  0  0  0  0  0  0  0
    8.8745  -15.3742   21.2069 C   0  0  1  0  0  0  0  0  0  0  0  0
    7.7333  -16.0652   20.5006 C   0  0  0  0  0  0  0  0  0  0  0  0
    8.1837  -16.9799   19.4021 C   0  0  0  0  0  0  0  0  0  0  0  0
    7.0159  -17.7065   18.7709 C   0  0  0  0  0  0  0  0  0  0  0  0
    7.5626  -18.5642   17.6451 C   0  0  0  0  0  0  0  0  0  0  0  0
    6.4481  -19.2029   16.9915 N   0  0  0  0  0  0  0  0  0  0  0  0
    8.9531  -15.8951   22.5917 C   0  0  0  0  0  0  0  0  0  0  0  0
    8.0324  -15.7787   23.4367 O   0  0  0  0  0  0  0  0  0  0  0  0
   10.1136  -16.5855   23.0770 N   0  0  0  0  0  0  0  0  0  0  0  0
   10.2859  -17.0679   24.3991 C   0  0  1  0  0  0  0  0  0  0  0  0
   11.2852  -18.1694   24.5582 C   0  0  0  0  0  0  0  0  0  0  0  0
   11.2367  -18.8214   25.8856 C   0  0  0  0  0  0  0  0  0  0  0  0
   10.2062  -18.9886   26.5544 O   0  0  0  0  0  0  0  0  0  0  0  0
   10.4961  -15.9441   25.3184 C   0  0  0  0  0  0  0  0  0  0  0  0
   11.6165  -15.3801   25.3418 O   0  0  0  0  0  0  0  0  0  0  0  0
   12.4382  -19.2761   26.4128 O   0  0  0  0  0  0  0  0  0  0  0  0
    8.5741  -13.4408   27.1368 C   0  0  0  0  0  0  0  0  0  0  0  0
    9.7701  -14.3883   27.1734 C   0  0  2  0  0  0  0  0  0  0  0  0
    9.5038  -15.4343   26.2047 N   0  0  0  0  0  0  0  0  0  0  0  0
    9.9634  -14.9323   28.5389 C   0  0  0  0  0  0  0  0  0  0  0  0
   10.2131  -14.1022   29.4508 O   0  0  0  0  0  0  0  0  0  0  0  0
    9.8895  -16.2610   28.8708 O   0  0  0  0  0  0  0  0  0  0  0  0
  2  1  1  6
  3  2  1  0
  4  3  1  0
  5  6  1  0
  5  4  1  0
  7  6  1  0
  8  2  1  0
  8 10  1  0
  9  8  2  0
 11 10  1  0
 12 13  1  0
 11 12  1  6
 13 17  1  0
 14 13  2  0
 15 11  1  0
 15 20  1  0
 16 15  2  0
 19 18  1  1
 19 20  1  0
 19 21  1  0
 21 22  2  0
 21 23  1  0
M  END
$$$$
