KDA.pdb
     RDKit          3D

 23 22  0  0  1  0  0  0  0  0999 V2000
    9.9559  -16.7896   18.8053 N   0  0  0  0  0  0  0  0  0  0  0  0
    8.9004  -17.1601   19.7467 C   0  0  1  0  0  0  0  0  0  0  0  0
    8.0812  -18.2101   19.0359 C   0  0  0  0  0  0  0  0  0  0  0  0
    8.2058  -18.1485   17.5436 C   0  0  0  0  0  0  0  0  0  0  0  0
    6.9191  -18.5605   16.8616 C   0  0  0  0  0  0  0  0  0  0  0  0
    7.2001  -18.6636   15.3742 C   0  0  0  0  0  0  0  0  0  0  0  0
    6.0264  -19.2053   14.7368 N   0  0  0  0  0  0  0  0  0  0  0  0
    9.4805  -17.7655   20.9682 C   0  0  0  0  0  0  0  0  0  0  0  0
    8.7975  -18.2837   21.8847 O   0  0  0  0  0  0  0  0  0  0  0  0
   10.8966  -17.8034   21.1960 N   0  0  0  0  0  0  0  0  0  0  0  0
   11.5249  -18.3087   22.3624 C   0  0  1  0  0  0  0  0  0  0  0  0
   12.8976  -18.8687   22.1640 C   0  0  0  0  0  0  0  0  0  0  0  0
   13.4665  -19.4801   23.3855 C   0  0  0  0  0  0  0  0  0  0  0  0
   14.1340  -18.8725   24.2355 O   0  0  0  0  0  0  0  0  0  0  0  0
   11.4421  -17.3205   23.4434 C   0  0  0  0  0  0  0  0  0  0  0  0
   12.1745  -16.3031   23.3935 O   0  0  0  0  0  0  0  0  0  0  0  0
   13.2304  -20.8337   23.5860 O   0  0  0  0  0  0  0  0  0  0  0  0
    9.2520  -15.8058   25.7158 C   0  0  0  0  0  0  0  0  0  0  0  0
   10.6074  -16.5072   25.6863 C   0  0  2  0  0  0  0  0  0  0  0  0
   10.5751  -17.4309   24.5687 N   0  0  0  0  0  0  0  0  0  0  0  0
   10.8649  -17.1994   26.9717 C   0  0  0  0  0  0  0  0  0  0  0  0
   10.8420  -18.4572   26.9539 O   0  0  0  0  0  0  0  0  0  0  0  0
   11.1230  -16.5700   28.1627 O   0  0  0  0  0  0  0  0  0  0  0  0
  2  1  1  6
  3  2  1  0
  4  3  1  0
  5  6  1  0
  5  4  1  0
  7  6  1  0
  8  2  1  0
  8 10  1  0
  9  8  2  0
 11 10  1  0
 12 13  1  0
 11 12  1  6
 13 17  1  0
 14 13  2  0
 15 11  1  0
 15 20  1  0
 16 15  2  0
 19 18  1  1
 19 20  1  0
 19 21  1  0
 21 22  2  0
 21 23  1  0
M  END
$$$$
