KDA.pdb
     RDKit          3D

 23 22  0  0  1  0  0  0  0  0999 V2000
    9.7660  -14.1171   18.2804 N   0  0  0  0  0  0  0  0  0  0  0  0
    8.9182  -13.2694   19.1172 C   0  0  1  0  0  0  0  0  0  0  0  0
    7.7051  -12.9601   18.2736 C   0  0  0  0  0  0  0  0  0  0  0  0
    7.3735  -14.0442   17.2933 C   0  0  0  0  0  0  0  0  0  0  0  0
    8.1586  -13.8904   16.0088 C   0  0  0  0  0  0  0  0  0  0  0  0
    7.7188  -14.9950   15.0663 C   0  0  0  0  0  0  0  0  0  0  0  0
    8.5489  -14.9322   13.8898 N   0  0  0  0  0  0  0  0  0  0  0  0
    8.4747  -14.0055   20.3241 C   0  0  0  0  0  0  0  0  0  0  0  0
    7.5907  -13.5899   21.1121 O   0  0  0  0  0  0  0  0  0  0  0  0
    9.0368  -15.2750   20.6867 N   0  0  0  0  0  0  0  0  0  0  0  0
    8.5992  -16.0863   21.7640 C   0  0  1  0  0  0  0  0  0  0  0  0
    8.8681  -17.5505   21.6190 C   0  0  0  0  0  0  0  0  0  0  0  0
   10.1590  -17.8499   20.9606 C   0  0  0  0  0  0  0  0  0  0  0  0
   10.9500  -16.9961   20.5335 O   0  0  0  0  0  0  0  0  0  0  0  0
    9.0671  -15.5243   23.0358 C   0  0  0  0  0  0  0  0  0  0  0  0
   10.2725  -15.1950   23.1473 O   0  0  0  0  0  0  0  0  0  0  0  0
   10.5011  -19.1878   20.8150 O   0  0  0  0  0  0  0  0  0  0  0  0
    7.6248  -13.8660   25.9704 C   0  0  0  0  0  0  0  0  0  0  0  0
    8.7315  -14.7632   25.4226 C   0  0  2  0  0  0  0  0  0  0  0  0
    8.2391  -15.3201   24.1773 N   0  0  0  0  0  0  0  0  0  0  0  0
    9.0811  -15.8186   26.4032 C   0  0  0  0  0  0  0  0  0  0  0  0
    8.6835  -16.9848   26.1483 O   0  0  0  0  0  0  0  0  0  0  0  0
    9.7988  -15.6126   27.5537 O   0  0  0  0  0  0  0  0  0  0  0  0
  2  1  1  6
  3  2  1  0
  4  3  1  0
  5  6  1  0
  5  4  1  0
  7  6  1  0
  8  2  1  0
  8 10  1  0
  9  8  2  0
 11 10  1  0
 12 13  1  0
 11 12  1  6
 13 17  1  0
 14 13  2  0
 15 11  1  0
 15 20  1  0
 16 15  2  0
 19 18  1  1
 19 20  1  0
 19 21  1  0
 21 22  2  0
 21 23  1  0
M  END
$$$$
