KDA.pdb
     RDKit          3D

 23 22  0  0  1  0  0  0  0  0999 V2000
   10.2021  -19.5996   19.0238 N   0  0  0  0  0  0  0  0  0  0  0  0
    9.9516  -18.5223   19.9800 C   0  0  1  0  0  0  0  0  0  0  0  0
    8.6310  -18.8617   20.6279 C   0  0  0  0  0  0  0  0  0  0  0  0
    7.5033  -18.9784   19.6478 C   0  0  0  0  0  0  0  0  0  0  0  0
    6.2117  -19.3710   20.3318 C   0  0  0  0  0  0  0  0  0  0  0  0
    5.1107  -19.3384   19.2884 C   0  0  0  0  0  0  0  0  0  0  0  0
    3.8674  -19.6565   19.9441 N   0  0  0  0  0  0  0  0  0  0  0  0
   10.9975  -18.5031   21.0292 C   0  0  0  0  0  0  0  0  0  0  0  0
   11.3772  -19.5210   21.6577 O   0  0  0  0  0  0  0  0  0  0  0  0
   11.6664  -17.2924   21.4106 N   0  0  0  0  0  0  0  0  0  0  0  0
   12.6934  -17.1960   22.3833 C   0  0  1  0  0  0  0  0  0  0  0  0
   13.6272  -16.0387   22.2223 C   0  0  0  0  0  0  0  0  0  0  0  0
   14.8188  -16.1173   23.0961 C   0  0  0  0  0  0  0  0  0  0  0  0
   15.1012  -15.2977   23.9825 O   0  0  0  0  0  0  0  0  0  0  0  0
   12.1201  -17.3078   23.7291 C   0  0  0  0  0  0  0  0  0  0  0  0
   11.5109  -16.3237   24.2133 O   0  0  0  0  0  0  0  0  0  0  0  0
   15.6777  -17.1909   22.9018 O   0  0  0  0  0  0  0  0  0  0  0  0
   10.6242  -19.5088   26.0063 C   0  0  0  0  0  0  0  0  0  0  0  0
   11.7708  -18.5043   25.9279 C   0  0  2  0  0  0  0  0  0  0  0  0
   12.2046  -18.4733   24.5444 N   0  0  0  0  0  0  0  0  0  0  0  0
   12.8685  -18.8926   26.8455 C   0  0  0  0  0  0  0  0  0  0  0  0
   13.9222  -19.3318   26.3167 O   0  0  0  0  0  0  0  0  0  0  0  0
   12.8137  -18.8066   28.2133 O   0  0  0  0  0  0  0  0  0  0  0  0
  2  1  1  6
  3  2  1  0
  4  3  1  0
  5  6  1  0
  5  4  1  0
  7  6  1  0
  8  2  1  0
  8 10  1  0
  9  8  2  0
 11 10  1  0
 12 13  1  0
 11 12  1  1
 13 17  1  0
 14 13  2  0
 15 11  1  0
 15 20  1  0
 16 15  2  0
 19 18  1  6
 19 20  1  0
 19 21  1  0
 21 22  2  0
 21 23  1  0
M  END
$$$$
