NKE.pdb
     RDKit          3D

 27 26  0  0  1  0  0  0  0  0999 V2000
    7.4748  -12.1594   16.1743 N   0  0  0  0  0  0  0  0  0  0  0  0
    7.3320  -13.2772   17.0357 C   0  0  0  0  0  0  0  0  0  0  0  0
    6.6558  -14.2727   16.6487 O   0  0  0  0  0  0  0  0  0  0  0  0
    7.9261  -13.3751   18.3858 C   0  0  0  0  0  0  0  0  0  0  0  0
    8.6209  -14.6964   18.6235 C   0  0  2  0  0  0  0  0  0  0  0  0
    7.6279  -15.7383   18.4476 N   0  0  0  0  0  0  0  0  0  0  0  0
    9.1121  -14.7295   20.0132 C   0  0  0  0  0  0  0  0  0  0  0  0
   10.1127  -14.0084   20.3500 O   0  0  0  0  0  0  0  0  0  0  0  0
    8.5252  -15.5315   21.0142 N   0  0  0  0  0  0  0  0  0  0  0  0
    9.1544  -15.7089   22.2966 C   0  0  1  0  0  0  0  0  0  0  0  0
    8.1932  -16.4446   23.1887 C   0  0  0  0  0  0  0  0  0  0  0  0
    8.8067  -16.8523   24.4947 C   0  0  0  0  0  0  0  0  0  0  0  0
    7.8274  -17.5878   25.3470 C   0  0  0  0  0  0  0  0  0  0  0  0
    8.3676  -17.9324   26.7074 C   0  0  0  0  0  0  0  0  0  0  0  0
    7.3726  -18.4836   27.5839 N   0  0  0  0  0  0  0  0  0  0  0  0
   10.3877  -16.5310   22.1484 C   0  0  0  0  0  0  0  0  0  0  0  0
   10.3722  -17.6977   21.7014 O   0  0  0  0  0  0  0  0  0  0  0  0
   11.6481  -15.9993   22.5202 N   0  0  0  0  0  0  0  0  0  0  0  0
   12.9102  -16.6342   22.4825 C   0  0  1  0  0  0  0  0  0  0  0  0
   13.8453  -16.2760   21.3709 C   0  0  0  0  0  0  0  0  0  0  0  0
   13.8572  -14.7987   21.1007 C   0  0  0  0  0  0  0  0  0  0  0  0
   14.7592  -14.5764   19.9102 C   0  0  0  0  0  0  0  0  0  0  0  0
   16.0036  -14.6745   19.9728 O   0  0  0  0  0  0  0  0  0  0  0  0
   13.5682  -16.5185   23.7813 C   0  0  0  0  0  0  0  0  0  0  0  0
   13.0656  -15.7768   24.6594 O   0  0  0  0  0  0  0  0  0  0  0  0
   14.2013  -14.2489   18.6877 O   0  0  0  0  0  0  0  0  0  0  0  0
   14.7360  -17.1935   24.1031 O   0  0  0  0  0  0  0  0  0  0  0  0
  2  1  1  0
  3  2  2  0
  4  2  1  0
  5  4  1  0
  5  6  1  1
  7  8  2  0
  7  5  1  0
  9  7  1  0
 10  9  1  0
 10 11  1  1
 12 11  1  0
 13 12  1  0
 13 14  1  0
 14 15  1  0
 16 10  1  0
 17 16  2  0
 18 16  1  0
 19 18  1  0
 19 20  1  6
 20 21  1  0
 21 22  1  0
 22 26  1  0
 23 22  2  0
 24 19  1  0
 25 24  2  0
 27 24  1  0
M  END
$$$$
