NKE.pdb
     RDKit          3D

 27 26  0  0  1  0  0  0  0  0999 V2000
   16.4781  -13.9068   15.7766 N   0  0  0  0  0  0  0  0  0  0  0  0
   16.4455  -13.1583   16.9809 C   0  0  0  0  0  0  0  0  0  0  0  0
   17.2132  -12.1622   17.1099 O   0  0  0  0  0  0  0  0  0  0  0  0
   15.5629  -13.4567   18.1286 C   0  0  0  0  0  0  0  0  0  0  0  0
   15.2689  -14.9327   18.2707 C   0  0  2  0  0  0  0  0  0  0  0  0
   14.5520  -15.3416   17.0783 N   0  0  0  0  0  0  0  0  0  0  0  0
   14.4009  -15.1313   19.4457 C   0  0  0  0  0  0  0  0  0  0  0  0
   14.7998  -14.7540   20.6004 O   0  0  0  0  0  0  0  0  0  0  0  0
   13.1256  -15.7285   19.3640 N   0  0  0  0  0  0  0  0  0  0  0  0
   12.3128  -15.9225   20.5359 C   0  0  1  0  0  0  0  0  0  0  0  0
   11.0405  -16.6030   20.1123 C   0  0  0  0  0  0  0  0  0  0  0  0
   10.1584  -16.9610   21.2706 C   0  0  0  0  0  0  0  0  0  0  0  0
    8.9243  -17.6649   20.8143 C   0  0  0  0  0  0  0  0  0  0  0  0
    8.1009  -18.2118   21.9476 C   0  0  0  0  0  0  0  0  0  0  0  0
    6.9564  -18.9561   21.5023 N   0  0  0  0  0  0  0  0  0  0  0  0
   13.0212  -16.8034   21.5059 C   0  0  0  0  0  0  0  0  0  0  0  0
   13.3852  -17.9648   21.2227 O   0  0  0  0  0  0  0  0  0  0  0  0
   13.3106  -16.3373   22.8130 N   0  0  0  0  0  0  0  0  0  0  0  0
   13.9518  -17.0288   23.8656 C   0  0  1  0  0  0  0  0  0  0  0  0
   15.2540  -16.4921   24.3700 C   0  0  0  0  0  0  0  0  0  0  0  0
   16.4193  -17.0034   23.5723 C   0  0  0  0  0  0  0  0  0  0  0  0
   17.6656  -16.4084   24.1830 C   0  0  0  0  0  0  0  0  0  0  0  0
   18.0496  -15.2432   23.9444 O   0  0  0  0  0  0  0  0  0  0  0  0
   13.0141  -17.2514   24.9631 C   0  0  0  0  0  0  0  0  0  0  0  0
   11.9093  -16.6573   24.9557 O   0  0  0  0  0  0  0  0  0  0  0  0
   18.4290  -17.1720   25.0474 O   0  0  0  0  0  0  0  0  0  0  0  0
   13.2812  -18.0963   26.0298 O   0  0  0  0  0  0  0  0  0  0  0  0
  2  1  1  0
  3  2  2  0
  4  2  1  0
  5  4  1  0
  5  6  1  6
  7  8  2  0
  7  5  1  0
  9  7  1  0
 10  9  1  0
 10 11  1  6
 12 11  1  0
 13 12  1  0
 13 14  1  0
 14 15  1  0
 16 10  1  0
 17 16  2  0
 18 16  1  0
 19 18  1  0
 19 20  1  1
 20 21  1  0
 21 22  1  0
 22 26  1  0
 23 22  2  0
 24 19  1  0
 25 24  2  0
 27 24  1  0
M  END
$$$$
