ATL.pdb
     RDKit          3D

 21 20  0  0  1  0  0  0  0  0999 V2000
   17.2046  -12.7442  -14.6558 C   0  0  0  0  0  0  0  0  0  0  0  0
   17.5624  -11.4744  -15.3948 C   0  0  2  0  0  0  0  0  0  0  0  0
   18.5525  -11.6832  -16.4129 N   0  0  0  0  0  0  0  0  0  0  0  0
   18.0673  -10.4649  -14.4457 C   0  0  0  0  0  0  0  0  0  0  0  0
   19.3104  -10.1929  -14.3637 O   0  0  0  0  0  0  0  0  0  0  0  0
   19.2926   -8.1410  -14.4829 C   0  0  0  0  0  0  0  0  0  0  0  0
   18.0907   -7.5715  -13.7462 C   0  0  1  0  0  0  0  0  0  0  0  0
   17.1313   -7.1800  -14.6696 O   0  0  0  0  0  0  0  0  0  0  0  0
   17.5851   -8.6722  -12.8340 C   0  0  2  0  0  0  0  0  0  0  0  0
   17.1477   -9.7924  -13.6164 N   0  0  0  0  0  0  0  0  0  0  0  0
   16.4811   -8.1888  -11.9614 C   0  0  0  0  0  0  0  0  0  0  0  0
   15.3030   -8.5041  -12.2557 O   0  0  0  0  0  0  0  0  0  0  0  0
   14.8566   -6.4682   -6.3131 C   0  0  0  0  0  0  0  0  0  0  0  0
   14.6090   -6.5111   -7.7734 C   0  0  2  0  0  0  0  0  0  0  0  0
   13.3097   -7.3018   -8.0209 C   0  0  0  0  0  0  0  0  0  0  0  0
   15.6402   -7.1266   -8.6359 C   0  0  0  0  0  0  0  0  0  0  0  0
   15.6983   -6.7353  -10.0633 C   0  0  2  0  0  0  0  0  0  0  0  0
   16.7232   -7.3812  -10.8058 N   0  0  0  0  0  0  0  0  0  0  0  0
   15.7528   -5.2531  -10.1437 C   0  0  0  0  0  0  0  0  0  0  0  0
   14.5365   -4.5867  -10.1921 O   0  0  0  0  0  0  0  0  0  0  0  0
   16.7981   -4.5881  -10.1698 O   0  0  0  0  0  0  0  0  0  0  0  0
  2  1  1  1
  3  2  1  0
  4  2  1  0
  4  5  2  0
  7  6  1  6
  7  9  1  0
  8  7  1  0
  9 10  1  6
 10  4  1  0
 11  9  1  0
 12 11  2  0
 14 13  1  1
 14 15  1  0
 16 14  1  0
 17 18  1  0
 17 16  1  1
 18 11  1  0
 19 17  1  0
 20 19  1  0
 21 19  2  0
M  END
$$$$
