ATL.pdb
     RDKit          3D

 21 20  0  0  1  0  0  0  0  0999 V2000
   17.6493  -14.6511  -15.6583 C   0  0  0  0  0  0  0  0  0  0  0  0
   17.2103  -13.9753  -16.9378 C   0  0  2  0  0  0  0  0  0  0  0  0
   17.3657  -14.8144  -18.0920 N   0  0  0  0  0  0  0  0  0  0  0  0
   17.9864  -12.7386  -17.1457 C   0  0  0  0  0  0  0  0  0  0  0  0
   19.2115  -12.7741  -17.4978 O   0  0  0  0  0  0  0  0  0  0  0  0
   16.4919   -9.9070  -19.1010 C   0  0  0  0  0  0  0  0  0  0  0  0
   17.0798   -9.2718  -17.8511 C   0  0  1  0  0  0  0  0  0  0  0  0
   16.0541   -8.9657  -16.9675 O   0  0  0  0  0  0  0  0  0  0  0  0
   18.0473  -10.2841  -17.2694 C   0  0  2  0  0  0  0  0  0  0  0  0
   17.3508  -11.4966  -16.9483 N   0  0  0  0  0  0  0  0  0  0  0  0
   18.7334   -9.7473  -16.0632 C   0  0  0  0  0  0  0  0  0  0  0  0
   18.3488  -10.1339  -14.9333 O   0  0  0  0  0  0  0  0  0  0  0  0
   23.2016   -6.9600  -13.7389 C   0  0  0  0  0  0  0  0  0  0  0  0
   22.5767   -8.2968  -13.6039 C   0  0  2  0  0  0  0  0  0  0  0  0
   23.6900   -9.3254  -13.3255 C   0  0  0  0  0  0  0  0  0  0  0  0
   21.8035   -8.8219  -14.7495 C   0  0  0  0  0  0  0  0  0  0  0  0
   20.4669   -8.2471  -15.0274 C   0  0  2  0  0  0  0  0  0  0  0  0
   19.8106   -8.8105  -16.1547 N   0  0  0  0  0  0  0  0  0  0  0  0
   20.5943   -6.7687  -15.0938 C   0  0  0  0  0  0  0  0  0  0  0  0
   20.5104   -6.0816  -13.8910 O   0  0  0  0  0  0  0  0  0  0  0  0
   20.7676   -6.1238  -16.1377 O   0  0  0  0  0  0  0  0  0  0  0  0
  2  1  1  1
  3  2  1  0
  4  2  1  0
  4  5  2  0
  7  6  1  6
  7  9  1  0
  8  7  1  0
  9 10  1  1
 10  4  1  0
 11  9  1  0
 12 11  2  0
 14 13  1  6
 14 15  1  0
 16 14  1  0
 17 18  1  0
 17 16  1  6
 18 11  1  0
 19 17  1  0
 20 19  1  0
 21 19  2  0
M  END
$$$$
