ATL.pdb
     RDKit          3D

 21 20  0  0  1  0  0  0  0  0999 V2000
   24.0038  -26.2016  -16.7377 C   0  0  0  0  0  0  0  0  0  0  0  0
   25.2969  -25.7213  -17.3570 C   0  0  2  0  0  0  0  0  0  0  0  0
   26.1856  -26.7968  -17.6945 N   0  0  0  0  0  0  0  0  0  0  0  0
   25.9912  -24.8093  -16.4289 C   0  0  0  0  0  0  0  0  0  0  0  0
   26.9532  -25.2131  -15.6957 O   0  0  0  0  0  0  0  0  0  0  0  0
   27.5524  -21.5747  -17.3204 C   0  0  0  0  0  0  0  0  0  0  0  0
   26.5378  -21.2524  -16.2350 C   0  0  1  0  0  0  0  0  0  0  0  0
   25.3886  -20.7397  -16.8205 O   0  0  0  0  0  0  0  0  0  0  0  0
   26.2694  -22.5507  -15.4989 C   0  0  2  0  0  0  0  0  0  0  0  0
   25.5746  -23.4650  -16.3589 N   0  0  0  0  0  0  0  0  0  0  0  0
   25.4882  -22.3168  -14.2544 C   0  0  0  0  0  0  0  0  0  0  0  0
   24.2433  -22.4672  -14.2913 O   0  0  0  0  0  0  0  0  0  0  0  0
   24.2477  -21.4407   -9.1635 C   0  0  0  0  0  0  0  0  0  0  0  0
   25.6053  -20.8995   -9.4080 C   0  0  2  0  0  0  0  0  0  0  0  0
   25.5400  -19.3634   -9.3036 C   0  0  0  0  0  0  0  0  0  0  0  0
   26.2509  -21.2004  -10.7037 C   0  0  0  0  0  0  0  0  0  0  0  0
   25.3940  -21.5545  -11.8589 C   0  0  2  0  0  0  0  0  0  0  0  0
   26.1116  -21.9284  -13.0269 N   0  0  0  0  0  0  0  0  0  0  0  0
   24.4281  -20.4491  -12.0855 C   0  0  0  0  0  0  0  0  0  0  0  0
   24.8753  -19.3769  -12.8449 O   0  0  0  0  0  0  0  0  0  0  0  0
   23.2695  -20.4262  -11.6464 O   0  0  0  0  0  0  0  0  0  0  0  0
  2  1  1  1
  3  2  1  0
  4  2  1  0
  4  5  2  0
  7  6  1  6
  7  9  1  0
  8  7  1  0
  9 10  1  6
 10  4  1  0
 11  9  1  0
 12 11  2  0
 14 13  1  6
 14 15  1  0
 16 14  1  0
 17 18  1  0
 17 16  1  1
 18 11  1  0
 19 17  1  0
 20 19  1  0
 21 19  2  0
M  END
$$$$
