ATL.pdb
     RDKit          3D

 21 20  0  0  1  0  0  0  0  0999 V2000
   14.8100  -12.3901  -16.7626 C   0  0  0  0  0  0  0  0  0  0  0  0
   15.1987  -12.0617  -18.1866 C   0  0  2  0  0  0  0  0  0  0  0  0
   15.1482  -13.2036  -19.0547 N   0  0  0  0  0  0  0  0  0  0  0  0
   16.5635  -11.5038  -18.2198 C   0  0  0  0  0  0  0  0  0  0  0  0
   17.5716  -12.2303  -18.5061 O   0  0  0  0  0  0  0  0  0  0  0  0
   17.3279   -8.4648  -20.1623 C   0  0  0  0  0  0  0  0  0  0  0  0
   17.8995   -8.1931  -18.7801 C   0  0  1  0  0  0  0  0  0  0  0  0
   17.0422   -7.3489  -18.0880 O   0  0  0  0  0  0  0  0  0  0  0  0
   18.0395   -9.5415  -18.1007 C   0  0  2  0  0  0  0  0  0  0  0  0
   16.7462  -10.1375  -17.9272 N   0  0  0  0  0  0  0  0  0  0  0  0
   18.7319   -9.4186  -16.7894 C   0  0  0  0  0  0  0  0  0  0  0  0
   18.0396   -9.4282  -15.7432 O   0  0  0  0  0  0  0  0  0  0  0  0
   22.2720  -10.0710  -12.8764 C   0  0  0  0  0  0  0  0  0  0  0  0
   22.9462   -9.8511  -14.1775 C   0  0  2  0  0  0  0  0  0  0  0  0
   23.5778   -8.4456  -14.1638 C   0  0  0  0  0  0  0  0  0  0  0  0
   22.1274   -9.9263  -15.4064 C   0  0  0  0  0  0  0  0  0  0  0  0
   20.8518   -9.1752  -15.4569 C   0  0  2  0  0  0  0  0  0  0  0  0
   20.1531   -9.2908  -16.6888 N   0  0  0  0  0  0  0  0  0  0  0  0
   21.1163   -7.7697  -15.0556 C   0  0  0  0  0  0  0  0  0  0  0  0
   21.1510   -7.5068  -13.6934 O   0  0  0  0  0  0  0  0  0  0  0  0
   21.3042   -6.8355  -15.8478 O   0  0  0  0  0  0  0  0  0  0  0  0
  2  1  1  1
  3  2  1  0
  4  2  1  0
  4  5  2  0
  7  6  1  6
  7  9  1  0
  8  7  1  0
  9 10  1  1
 10  4  1  0
 11  9  1  0
 12 11  2  0
 14 13  1  1
 14 15  1  0
 16 14  1  0
 17 18  1  0
 17 16  1  6
 18 11  1  0
 19 17  1  0
 20 19  1  0
 21 19  2  0
M  END
$$$$
