ATL.pdb
     RDKit          3D

 21 20  0  0  1  0  0  0  0  0999 V2000
   16.4387  -11.7232  -19.3315 C   0  0  0  0  0  0  0  0  0  0  0  0
   16.4804  -11.1105  -17.9497 C   0  0  2  0  0  0  0  0  0  0  0  0
   15.3847  -10.2164  -17.7040 N   0  0  0  0  0  0  0  0  0  0  0  0
   17.7430  -10.3712  -17.7647 C   0  0  0  0  0  0  0  0  0  0  0  0
   18.8721  -10.9619  -17.8126 O   0  0  0  0  0  0  0  0  0  0  0  0
   18.5320   -7.0785  -19.5287 C   0  0  0  0  0  0  0  0  0  0  0  0
   18.7262   -6.8598  -18.0368 C   0  0  1  0  0  0  0  0  0  0  0  0
   17.6173   -6.2023  -17.5224 O   0  0  0  0  0  0  0  0  0  0  0  0
   18.9078   -8.2337  -17.4214 C   0  0  2  0  0  0  0  0  0  0  0  0
   17.6891   -8.9827  -17.5308 N   0  0  0  0  0  0  0  0  0  0  0  0
   19.3300   -8.1387  -15.9978 C   0  0  0  0  0  0  0  0  0  0  0  0
   18.4636   -8.2959  -15.1042 O   0  0  0  0  0  0  0  0  0  0  0  0
   23.1772   -9.9375  -11.8618 C   0  0  0  0  0  0  0  0  0  0  0  0
   22.2394   -8.8798  -12.3063 C   0  0  2  0  0  0  0  0  0  0  0  0
   21.0005   -8.9155  -11.3906 C   0  0  0  0  0  0  0  0  0  0  0  0
   21.7319   -8.9387  -13.6938 C   0  0  0  0  0  0  0  0  0  0  0  0
   21.1180   -7.7236  -14.2776 C   0  0  2  0  0  0  0  0  0  0  0  0
   20.6849   -7.8753  -15.6223 N   0  0  0  0  0  0  0  0  0  0  0  0
   22.0495   -6.5837  -14.0802 C   0  0  0  0  0  0  0  0  0  0  0  0
   21.9963   -5.9412  -12.8512 O   0  0  0  0  0  0  0  0  0  0  0  0
   22.8559   -6.1790  -14.9297 O   0  0  0  0  0  0  0  0  0  0  0  0
  2  1  1  6
  3  2  1  0
  4  2  1  0
  4  5  2  0
  7  6  1  6
  7  9  1  0
  8  7  1  0
  9 10  1  1
 10  4  1  0
 11  9  1  0
 12 11  2  0
 14 13  1  1
 14 15  1  0
 16 14  1  0
 17 18  1  0
 17 16  1  6
 18 11  1  0
 19 17  1  0
 20 19  1  0
 21 19  2  0
M  END
$$$$
