ATL.pdb
     RDKit          3D

 21 20  0  0  1  0  0  0  0  0999 V2000
   27.4668  -18.0246  -15.2793 C   0  0  0  0  0  0  0  0  0  0  0  0
   26.2691  -18.9358  -15.1322 C   0  0  2  0  0  0  0  0  0  0  0  0
   25.2305  -18.6472  -16.0801 N   0  0  0  0  0  0  0  0  0  0  0  0
   25.7118  -18.8190  -13.7718 C   0  0  0  0  0  0  0  0  0  0  0  0
   25.1488  -17.7462  -13.3741 O   0  0  0  0  0  0  0  0  0  0  0  0
   22.9896  -20.2114  -12.6062 C   0  0  0  0  0  0  0  0  0  0  0  0
   23.9681  -20.7744  -11.5880 C   0  0  1  0  0  0  0  0  0  0  0  0
   24.2885  -22.0798  -11.9342 O   0  0  0  0  0  0  0  0  0  0  0  0
   25.1823  -19.8663  -11.6116 C   0  0  2  0  0  0  0  0  0  0  0  0
   25.8090  -19.9225  -12.9009 N   0  0  0  0  0  0  0  0  0  0  0  0
   26.1552  -20.2341  -10.5476 C   0  0  0  0  0  0  0  0  0  0  0  0
   27.0288  -21.0965  -10.8067 O   0  0  0  0  0  0  0  0  0  0  0  0
   28.1976  -18.8761   -4.7934 C   0  0  0  0  0  0  0  0  0  0  0  0
   27.8706  -19.8263   -5.8824 C   0  0  2  0  0  0  0  0  0  0  0  0
   29.1764  -20.5027   -6.3427 C   0  0  0  0  0  0  0  0  0  0  0  0
   27.2277  -19.2918   -7.1019 C   0  0  0  0  0  0  0  0  0  0  0  0
   26.6635  -20.2464   -8.0839 C   0  0  2  0  0  0  0  0  0  0  0  0
   26.1228  -19.6371   -9.2481 N   0  0  0  0  0  0  0  0  0  0  0  0
   25.7032  -21.1343   -7.3798 C   0  0  0  0  0  0  0  0  0  0  0  0
   26.2162  -22.3085   -6.8467 O   0  0  0  0  0  0  0  0  0  0  0  0
   24.4952  -20.8952   -7.2418 O   0  0  0  0  0  0  0  0  0  0  0  0
  2  1  1  1
  3  2  1  0
  4  2  1  0
  4  5  2  0
  7  6  1  6
  7  9  1  0
  8  7  1  0
  9 10  1  6
 10  4  1  0
 11  9  1  0
 12 11  2  0
 14 13  1  1
 14 15  1  0
 16 14  1  0
 17 18  1  0
 17 16  1  1
 18 11  1  0
 19 17  1  0
 20 19  1  0
 21 19  2  0
M  END
$$$$
