ATL.pdb
     RDKit          3D

 21 20  0  0  1  0  0  0  0  0999 V2000
   28.8049  -22.7849  -16.5150 C   0  0  0  0  0  0  0  0  0  0  0  0
   28.2986  -21.7467  -17.4908 C   0  0  2  0  0  0  0  0  0  0  0  0
   29.3572  -20.9942  -18.1019 N   0  0  0  0  0  0  0  0  0  0  0  0
   27.3903  -20.8102  -16.8030 C   0  0  0  0  0  0  0  0  0  0  0  0
   27.8106  -19.7027  -16.3309 O   0  0  0  0  0  0  0  0  0  0  0  0
   22.9924  -19.1055  -16.2339 C   0  0  0  0  0  0  0  0  0  0  0  0
   24.1505  -19.6828  -17.0320 C   0  0  1  0  0  0  0  0  0  0  0  0
   24.7223  -18.6784  -17.8006 O   0  0  0  0  0  0  0  0  0  0  0  0
   25.1279  -20.2503  -16.0210 C   0  0  2  0  0  0  0  0  0  0  0  0
   26.0309  -21.1565  -16.6703 N   0  0  0  0  0  0  0  0  0  0  0  0
   24.4188  -20.9366  -14.9075 C   0  0  0  0  0  0  0  0  0  0  0  0
   23.8193  -22.0114  -15.1512 O   0  0  0  0  0  0  0  0  0  0  0  0
   26.1973  -22.0646  -10.7806 C   0  0  0  0  0  0  0  0  0  0  0  0
   25.6095  -20.7044  -10.7893 C   0  0  2  0  0  0  0  0  0  0  0  0
   25.7553  -20.1052   -9.3770 C   0  0  0  0  0  0  0  0  0  0  0  0
   24.1834  -20.5655  -11.1539 C   0  0  0  0  0  0  0  0  0  0  0  0
   23.7419  -21.0374  -12.4867 C   0  0  2  0  0  0  0  0  0  0  0  0
   24.4014  -20.4099  -13.5777 N   0  0  0  0  0  0  0  0  0  0  0  0
   22.2613  -20.9401  -12.5544 C   0  0  0  0  0  0  0  0  0  0  0  0
   21.5457  -22.0766  -12.2046 O   0  0  0  0  0  0  0  0  0  0  0  0
   21.6379  -19.9256  -12.8975 O   0  0  0  0  0  0  0  0  0  0  0  0
  2  1  1  1
  3  2  1  0
  4  2  1  0
  4  5  2  0
  7  6  1  1
  7  9  1  0
  8  7  1  0
  9 10  1  6
 10  4  1  0
 11  9  1  0
 12 11  2  0
 14 13  1  1
 14 15  1  0
 16 14  1  0
 17 18  1  0
 17 16  1  1
 18 11  1  0
 19 17  1  0
 20 19  1  0
 21 19  2  0
M  END
$$$$
