GNW.pdb
     RDKit          3D

 27 28  0  0  1  0  0  0  0  0999 V2000
   22.7234  -17.6293  -14.6036 N   0  0  0  0  0  0  0  0  0  0  0  0
   21.7907  -18.0496  -13.5730 C   0  0  0  0  0  0  0  0  0  0  0  0
   22.4520  -19.0281  -12.6388 C   0  0  0  0  0  0  0  0  0  0  0  0
   22.0931  -19.0456  -11.4360 O   0  0  0  0  0  0  0  0  0  0  0  0
   21.6192  -22.2690  -12.5395 N   0  0  0  0  0  0  0  0  0  0  0  0
   22.7843  -22.8992  -13.0662 C   0  0  0  0  0  0  0  0  0  0  0  0
   22.6200  -24.0501  -13.5404 O   0  0  0  0  0  0  0  0  0  0  0  0
   24.0888  -22.1971  -13.0331 C   0  0  0  0  0  0  0  0  0  0  0  0
   24.0268  -20.8875  -12.2853 C   0  0  2  0  0  0  0  0  0  0  0  0
   23.4506  -19.8850  -13.1634 N   0  0  0  0  0  0  0  0  0  0  0  0
   25.3820  -20.4749  -11.8209 C   0  0  0  0  0  0  0  0  0  0  0  0
   26.0793  -19.7517  -12.5733 O   0  0  0  0  0  0  0  0  0  0  0  0
   25.7997  -20.9315  -10.5450 N   0  0  0  0  0  0  0  0  0  0  0  0
   27.1709  -20.7589  -10.1291 C   0  0  1  0  0  0  0  0  0  0  0  0
   27.2604  -21.3805   -8.7353 C   0  0  0  0  0  0  0  0  0  0  0  0
   27.2712  -20.2760   -7.7466 C   0  0  0  0  0  0  0  0  0  0  0  0
   26.6945  -19.0181   -7.8310 C   0  0  0  0  0  0  0  0  0  0  0  0
   26.9543  -18.3386   -6.7020 N   0  0  0  0  0  0  0  0  0  0  0  0
   27.6781  -19.1358   -5.9121 C   0  0  0  0  0  0  0  0  0  0  0  0
   28.2099  -18.9387   -4.6466 C   0  0  0  0  0  0  0  0  0  0  0  0
   28.9344  -19.9206   -4.0173 C   0  0  0  0  0  0  0  0  0  0  0  0
   29.1599  -21.1387   -4.6201 C   0  0  0  0  0  0  0  0  0  0  0  0
   28.6292  -21.3378   -5.8850 C   0  0  0  0  0  0  0  0  0  0  0  0
   27.9074  -20.3545   -6.5076 C   0  0  0  0  0  0  0  0  0  0  0  0
   28.0911  -21.4576  -11.0544 C   0  0  0  0  0  0  0  0  0  0  0  0
   29.2572  -21.0576  -11.2563 O   0  0  0  0  0  0  0  0  0  0  0  0
   27.6455  -22.5849  -11.7130 O   0  0  0  0  0  0  0  0  0  0  0  0
  1  2  1  0
  2  3  1  0
  3 10  1  0
  3  4  2  0
  6  8  1  0
  6  5  1  0
  7  6  2  0
  9  8  1  6
 10  9  1  0
 11  9  1  0
 11 13  1  0
 12 11  2  0
 14 13  1  0
 14 15  1  1
 14 25  1  0
 16 15  1  0
 16 17  2  0
 18 17  1  0
 19 24  2  0
 19 18  1  0
 20 19  1  0
 21 22  1  0
 21 20  2  0
 22 23  2  0
 23 24  1  0
 24 16  1  0
 25 27  1  0
 26 25  2  0
M  END
$$$$
