GNW.pdb
     RDKit          3D

 27 28  0  0  1  0  0  0  0  0999 V2000
   27.7443  -17.6172  -16.3481 N   0  0  0  0  0  0  0  0  0  0  0  0
   28.2558  -18.8089  -15.6944 C   0  0  0  0  0  0  0  0  0  0  0  0
   27.3002  -19.9575  -15.8820 C   0  0  0  0  0  0  0  0  0  0  0  0
   26.1158  -19.7047  -16.2121 O   0  0  0  0  0  0  0  0  0  0  0  0
   27.2458  -26.0869  -16.4203 N   0  0  0  0  0  0  0  0  0  0  0  0
   26.8507  -24.7418  -16.6783 C   0  0  0  0  0  0  0  0  0  0  0  0
   25.7835  -24.5965  -17.3235 O   0  0  0  0  0  0  0  0  0  0  0  0
   27.6834  -23.6162  -16.1933 C   0  0  0  0  0  0  0  0  0  0  0  0
   26.8716  -22.3821  -15.8834 C   0  0  2  0  0  0  0  0  0  0  0  0
   27.7850  -21.2726  -15.6763 N   0  0  0  0  0  0  0  0  0  0  0  0
   26.0124  -22.5971  -14.6842 C   0  0  0  0  0  0  0  0  0  0  0  0
   25.9243  -23.7557  -14.2096 O   0  0  0  0  0  0  0  0  0  0  0  0
   25.3432  -21.4658  -14.1519 N   0  0  0  0  0  0  0  0  0  0  0  0
   25.1366  -21.3524  -12.7281 C   0  0  1  0  0  0  0  0  0  0  0  0
   26.5325  -21.2251  -12.1177 C   0  0  0  0  0  0  0  0  0  0  0  0
   26.3725  -20.8043  -10.7053 C   0  0  0  0  0  0  0  0  0  0  0  0
   25.2129  -20.5157  -10.0024 C   0  0  0  0  0  0  0  0  0  0  0  0
   25.5349  -20.1751   -8.7438 N   0  0  0  0  0  0  0  0  0  0  0  0
   26.8645  -20.2422   -8.6382 C   0  0  0  0  0  0  0  0  0  0  0  0
   27.7154  -19.9957   -7.5712 C   0  0  0  0  0  0  0  0  0  0  0  0
   29.0756  -20.1323   -7.6983 C   0  0  0  0  0  0  0  0  0  0  0  0
   29.6458  -20.5195   -8.8912 C   0  0  0  0  0  0  0  0  0  0  0  0
   28.7972  -20.7663   -9.9589 C   0  0  0  0  0  0  0  0  0  0  0  0
   27.4411  -20.6283   -9.8260 C   0  0  0  0  0  0  0  0  0  0  0  0
   24.3337  -20.1504  -12.4091 C   0  0  0  0  0  0  0  0  0  0  0  0
   24.4750  -19.0756  -13.0299 O   0  0  0  0  0  0  0  0  0  0  0  0
   23.4014  -20.2212  -11.3947 O   0  0  0  0  0  0  0  0  0  0  0  0
  1  2  1  0
  2  3  1  0
  3 10  1  0
  3  4  2  0
  6  8  1  0
  6  5  1  0
  7  6  2  0
  9  8  1  1
 10  9  1  0
 11  9  1  0
 11 13  1  0
 12 11  2  0
 14 13  1  0
 14 15  1  1
 14 25  1  0
 16 15  1  0
 16 17  2  0
 18 17  1  0
 19 24  2  0
 19 18  1  0
 20 19  1  0
 21 22  1  0
 21 20  2  0
 22 23  2  0
 23 24  1  0
 24 16  1  0
 25 27  1  0
 26 25  2  0
M  END
$$$$
