GNW.pdb
     RDKit          3D

 27 28  0  0  1  0  0  0  0  0999 V2000
   28.1033  -21.3210  -15.2140 N   0  0  0  0  0  0  0  0  0  0  0  0
   27.2925  -20.2975  -14.5785 C   0  0  0  0  0  0  0  0  0  0  0  0
   26.0803  -20.9173  -13.9350 C   0  0  0  0  0  0  0  0  0  0  0  0
   25.4961  -21.8534  -14.5335 O   0  0  0  0  0  0  0  0  0  0  0  0
   26.3779  -20.1720   -8.9787 N   0  0  0  0  0  0  0  0  0  0  0  0
   25.8073  -21.0366   -9.9580 C   0  0  0  0  0  0  0  0  0  0  0  0
   26.4669  -22.0696  -10.2304 O   0  0  0  0  0  0  0  0  0  0  0  0
   24.5109  -20.6932  -10.5882 C   0  0  0  0  0  0  0  0  0  0  0  0
   24.4808  -21.0029  -12.0650 C   0  0  2  0  0  0  0  0  0  0  0  0
   25.6557  -20.4129  -12.6812 N   0  0  0  0  0  0  0  0  0  0  0  0
   23.2318  -20.4845  -12.6925 C   0  0  0  0  0  0  0  0  0  0  0  0
   22.9850  -19.2566  -12.6116 O   0  0  0  0  0  0  0  0  0  0  0  0
   22.3945  -21.4232  -13.3474 N   0  0  0  0  0  0  0  0  0  0  0  0
   21.1349  -20.9988  -13.9097 C   0  0  1  0  0  0  0  0  0  0  0  0
   21.2189  -21.3237  -15.4012 C   0  0  0  0  0  0  0  0  0  0  0  0
   22.1013  -20.3154  -16.0354 C   0  0  0  0  0  0  0  0  0  0  0  0
   23.4352  -20.4217  -16.3978 C   0  0  0  0  0  0  0  0  0  0  0  0
   23.8365  -19.2617  -16.9430 N   0  0  0  0  0  0  0  0  0  0  0  0
   22.7909  -18.4310  -16.9324 C   0  0  0  0  0  0  0  0  0  0  0  0
   22.6524  -17.1222  -17.3695 C   0  0  0  0  0  0  0  0  0  0  0  0
   21.4580  -16.4551  -17.2541 C   0  0  0  0  0  0  0  0  0  0  0  0
   20.3523  -17.0617  -16.6995 C   0  0  0  0  0  0  0  0  0  0  0  0
   20.4885  -18.3698  -16.2620 C   0  0  0  0  0  0  0  0  0  0  0  0
   21.6826  -19.0299  -16.3798 C   0  0  0  0  0  0  0  0  0  0  0  0
   20.0102  -21.7382  -13.2937 C   0  0  0  0  0  0  0  0  0  0  0  0
   20.1878  -22.7818  -12.6304 O   0  0  0  0  0  0  0  0  0  0  0  0
   18.7272  -21.2586  -13.4582 O   0  0  0  0  0  0  0  0  0  0  0  0
  1  2  1  0
  2  3  1  0
  3 10  1  0
  3  4  2  0
  6  8  1  0
  6  5  1  0
  7  6  2  0
  9  8  1  1
 10  9  1  0
 11  9  1  0
 11 13  1  0
 12 11  2  0
 14 13  1  0
 14 15  1  6
 14 25  1  0
 16 15  1  0
 16 17  2  0
 18 17  1  0
 19 24  2  0
 19 18  1  0
 20 19  1  0
 21 22  1  0
 21 20  2  0
 22 23  2  0
 23 24  1  0
 24 16  1  0
 25 27  1  0
 26 25  2  0
M  END
$$$$
