GNW.pdb
     RDKit          3D

 27 28  0  0  1  0  0  0  0  0999 V2000
   19.9635   -7.9944  -20.7764 N   0  0  0  0  0  0  0  0  0  0  0  0
   18.6991   -7.7215  -20.1165 C   0  0  0  0  0  0  0  0  0  0  0  0
   18.7579   -8.1570  -18.6761 C   0  0  0  0  0  0  0  0  0  0  0  0
   18.1115   -7.4999  -17.8239 O   0  0  0  0  0  0  0  0  0  0  0  0
   20.3735  -12.8934  -15.2612 N   0  0  0  0  0  0  0  0  0  0  0  0
   19.4375  -11.9018  -15.6769 C   0  0  0  0  0  0  0  0  0  0  0  0
   18.5490  -11.6005  -14.8425 O   0  0  0  0  0  0  0  0  0  0  0  0
   19.5483  -11.2927  -17.0231 C   0  0  0  0  0  0  0  0  0  0  0  0
   19.5035   -9.7846  -16.9857 C   0  0  2  0  0  0  0  0  0  0  0  0
   19.5422   -9.2908  -18.3506 N   0  0  0  0  0  0  0  0  0  0  0  0
   20.6379   -9.2377  -16.1879 C   0  0  0  0  0  0  0  0  0  0  0  0
   20.6942   -9.5063  -14.9632 O   0  0  0  0  0  0  0  0  0  0  0  0
   21.5904   -8.4407  -16.8725 N   0  0  0  0  0  0  0  0  0  0  0  0
   22.7009   -7.8645  -16.1531 C   0  0  1  0  0  0  0  0  0  0  0  0
   23.8958   -7.9488  -17.1030 C   0  0  0  0  0  0  0  0  0  0  0  0
   24.2370   -9.3811  -17.2755 C   0  0  0  0  0  0  0  0  0  0  0  0
   23.6722  -10.3209  -18.1238 C   0  0  0  0  0  0  0  0  0  0  0  0
   24.2924  -11.4994  -17.9497 N   0  0  0  0  0  0  0  0  0  0  0  0
   25.2306  -11.3244  -17.0156 C   0  0  0  0  0  0  0  0  0  0  0  0
   26.1494  -12.2020  -16.4600 C   0  0  0  0  0  0  0  0  0  0  0  0
   27.0342  -11.7902  -15.4943 C   0  0  0  0  0  0  0  0  0  0  0  0
   27.0419  -10.4890  -15.0413 C   0  0  0  0  0  0  0  0  0  0  0  0
   26.1244   -9.6103  -15.5953 C   0  0  0  0  0  0  0  0  0  0  0  0
   25.2443  -10.0270  -16.5583 C   0  0  0  0  0  0  0  0  0  0  0  0
   22.4265   -6.4509  -15.8102 C   0  0  0  0  0  0  0  0  0  0  0  0
   23.2247   -5.7658  -15.1362 O   0  0  0  0  0  0  0  0  0  0  0  0
   21.2527   -5.8740  -16.2491 O   0  0  0  0  0  0  0  0  0  0  0  0
  1  2  1  0
  2  3  1  0
  3 10  1  0
  3  4  2  0
  6  8  1  0
  6  5  1  0
  7  6  2  0
  9  8  1  6
 10  9  1  0
 11  9  1  0
 11 13  1  0
 12 11  2  0
 14 13  1  0
 14 15  1  6
 14 25  1  0
 16 15  1  0
 16 17  2  0
 18 17  1  0
 19 24  2  0
 19 18  1  0
 20 19  1  0
 21 22  1  0
 21 20  2  0
 22 23  2  0
 23 24  1  0
 24 16  1  0
 25 27  1  0
 26 25  2  0
M  END
$$$$
