GNW.pdb
     RDKit          3D

 27 28  0  0  1  0  0  0  0  0999 V2000
   23.2450  -27.2909  -15.5632 N   0  0  0  0  0  0  0  0  0  0  0  0
   23.4242  -25.9031  -15.9514 C   0  0  0  0  0  0  0  0  0  0  0  0
   24.6547  -25.3331  -15.2967 C   0  0  0  0  0  0  0  0  0  0  0  0
   25.7720  -25.8257  -15.5879 O   0  0  0  0  0  0  0  0  0  0  0  0
   27.4315  -21.2325  -14.6579 N   0  0  0  0  0  0  0  0  0  0  0  0
   26.6437  -21.5594  -15.8000 C   0  0  0  0  0  0  0  0  0  0  0  0
   26.9483  -20.9687  -16.8652 O   0  0  0  0  0  0  0  0  0  0  0  0
   25.5419  -22.5437  -15.6864 C   0  0  0  0  0  0  0  0  0  0  0  0
   25.5106  -23.2307  -14.3429 C   0  0  2  0  0  0  0  0  0  0  0  0
   24.4922  -24.2649  -14.3805 N   0  0  0  0  0  0  0  0  0  0  0  0
   25.2382  -22.2528  -13.2511 C   0  0  0  0  0  0  0  0  0  0  0  0
   24.2257  -21.5170  -13.3439 O   0  0  0  0  0  0  0  0  0  0  0  0
   26.1511  -22.2175  -12.1664 N   0  0  0  0  0  0  0  0  0  0  0  0
   25.8948  -21.3602  -11.0340 C   0  0  1  0  0  0  0  0  0  0  0  0
   27.1095  -21.5124  -10.1184 C   0  0  0  0  0  0  0  0  0  0  0  0
   26.9025  -20.6346   -8.9419 C   0  0  0  0  0  0  0  0  0  0  0  0
   25.7872  -19.8908   -8.5883 C   0  0  0  0  0  0  0  0  0  0  0  0
   26.0381  -19.2409   -7.4400 N   0  0  0  0  0  0  0  0  0  0  0  0
   27.2799  -19.5567   -7.0639 C   0  0  0  0  0  0  0  0  0  0  0  0
   28.0342  -19.1699   -5.9663 C   0  0  0  0  0  0  0  0  0  0  0  0
   29.3142  -19.6314   -5.7832 C   0  0  0  0  0  0  0  0  0  0  0  0
   29.8970  -20.4963   -6.6835 C   0  0  0  0  0  0  0  0  0  0  0  0
   29.1448  -20.8842   -7.7811 C   0  0  0  0  0  0  0  0  0  0  0  0
   27.8684  -20.4204   -7.9584 C   0  0  0  0  0  0  0  0  0  0  0  0
   25.7592  -19.9503  -11.4641 C   0  0  0  0  0  0  0  0  0  0  0  0
   26.5900  -19.4062  -12.2220 O   0  0  0  0  0  0  0  0  0  0  0  0
   24.6817  -19.2163  -11.0130 O   0  0  0  0  0  0  0  0  0  0  0  0
  1  2  1  0
  2  3  1  0
  3 10  1  0
  3  4  2  0
  6  8  1  0
  6  5  1  0
  7  6  2  0
  9  8  1  6
 10  9  1  0
 11  9  1  0
 11 13  1  0
 12 11  2  0
 14 13  1  0
 14 15  1  1
 14 25  1  0
 16 15  1  0
 16 17  2  0
 18 17  1  0
 19 24  2  0
 19 18  1  0
 20 19  1  0
 21 22  1  0
 21 20  2  0
 22 23  2  0
 23 24  1  0
 24 16  1  0
 25 27  1  0
 26 25  2  0
M  END
$$$$
