GNW.pdb
     RDKit          3D

 27 28  0  0  1  0  0  0  0  0999 V2000
   25.3814  -28.4254  -16.2783 N   0  0  0  0  0  0  0  0  0  0  0  0
   25.7337  -27.4713  -17.3149 C   0  0  0  0  0  0  0  0  0  0  0  0
   26.2959  -26.2169  -16.7000 C   0  0  0  0  0  0  0  0  0  0  0  0
   26.0116  -25.9547  -15.5058 O   0  0  0  0  0  0  0  0  0  0  0  0
   30.5315  -25.8153  -17.1178 N   0  0  0  0  0  0  0  0  0  0  0  0
   29.8732  -24.7058  -16.5114 C   0  0  0  0  0  0  0  0  0  0  0  0
   30.1215  -24.5170  -15.2952 O   0  0  0  0  0  0  0  0  0  0  0  0
   28.9597  -23.8558  -17.3105 C   0  0  0  0  0  0  0  0  0  0  0  0
   27.5061  -24.0909  -16.9792 C   0  0  2  0  0  0  0  0  0  0  0  0
   27.1213  -25.3901  -17.5011 N   0  0  0  0  0  0  0  0  0  0  0  0
   26.6490  -23.0120  -17.5483 C   0  0  0  0  0  0  0  0  0  0  0  0
   26.2305  -23.1364  -18.7250 O   0  0  0  0  0  0  0  0  0  0  0  0
   26.3590  -21.9029  -16.7135 N   0  0  0  0  0  0  0  0  0  0  0  0
   25.4805  -20.8573  -17.1804 C   0  0  1  0  0  0  0  0  0  0  0  0
   24.0919  -21.4914  -17.2620 C   0  0  0  0  0  0  0  0  0  0  0  0
   23.5991  -21.6823  -15.8770 C   0  0  0  0  0  0  0  0  0  0  0  0
   23.3776  -20.7374  -14.8871 C   0  0  0  0  0  0  0  0  0  0  0  0
   22.9281  -21.3548  -13.7824 N   0  0  0  0  0  0  0  0  0  0  0  0
   22.8615  -22.6610  -14.0524 C   0  0  0  0  0  0  0  0  0  0  0  0
   22.4677  -23.7410  -13.2767 C   0  0  0  0  0  0  0  0  0  0  0  0
   22.4823  -25.0199  -13.7760 C   0  0  0  0  0  0  0  0  0  0  0  0
   22.8891  -25.2776  -15.0668 C   0  0  0  0  0  0  0  0  0  0  0  0
   23.2831  -24.1996  -15.8438 C   0  0  0  0  0  0  0  0  0  0  0  0
   23.2663  -22.9262  -15.3401 C   0  0  0  0  0  0  0  0  0  0  0  0
   25.4635  -19.7234  -16.2291 C   0  0  0  0  0  0  0  0  0  0  0  0
   26.0198  -19.7872  -15.1123 O   0  0  0  0  0  0  0  0  0  0  0  0
   24.8127  -18.5612  -16.5885 O   0  0  0  0  0  0  0  0  0  0  0  0
  1  2  1  0
  2  3  1  0
  3 10  1  0
  3  4  2  0
  6  8  1  0
  6  5  1  0
  7  6  2  0
  9  8  1  6
 10  9  1  0
 11  9  1  0
 11 13  1  0
 12 11  2  0
 14 13  1  0
 14 15  1  1
 14 25  1  0
 16 15  1  0
 16 17  2  0
 18 17  1  0
 19 24  2  0
 19 18  1  0
 20 19  1  0
 21 22  1  0
 21 20  2  0
 22 23  2  0
 23 24  1  0
 24 16  1  0
 25 27  1  0
 26 25  2  0
M  END
$$$$
