GNW.pdb
     RDKit          3D

 27 28  0  0  1  0  0  0  0  0999 V2000
   26.1462  -25.3515  -15.7359 N   0  0  0  0  0  0  0  0  0  0  0  0
   26.7960  -24.3563  -16.5703 C   0  0  0  0  0  0  0  0  0  0  0  0
   27.3751  -23.2584  -15.7176 C   0  0  0  0  0  0  0  0  0  0  0  0
   28.5755  -23.3456  -15.3610 O   0  0  0  0  0  0  0  0  0  0  0  0
   28.7073  -18.5177  -13.9275 N   0  0  0  0  0  0  0  0  0  0  0  0
   27.3292  -18.6972  -14.2445 C   0  0  0  0  0  0  0  0  0  0  0  0
   26.5363  -17.8643  -13.7405 O   0  0  0  0  0  0  0  0  0  0  0  0
   26.9072  -19.8149  -15.1210 C   0  0  0  0  0  0  0  0  0  0  0  0
   27.0643  -21.1635  -14.4617 C   0  0  2  0  0  0  0  0  0  0  0  0
   26.5349  -22.1762  -15.3575 N   0  0  0  0  0  0  0  0  0  0  0  0
   26.3654  -21.1974  -13.1453 C   0  0  0  0  0  0  0  0  0  0  0  0
   25.1105  -21.1772  -13.1319 O   0  0  0  0  0  0  0  0  0  0  0  0
   27.1730  -21.2509  -11.9809 N   0  0  0  0  0  0  0  0  0  0  0  0
   26.5604  -21.2171  -10.6746 C   0  0  1  0  0  0  0  0  0  0  0  0
   27.6821  -20.8510   -9.7025 C   0  0  0  0  0  0  0  0  0  0  0  0
   27.0700  -20.6142   -8.3733 C   0  0  0  0  0  0  0  0  0  0  0  0
   25.7364  -20.6728   -7.9991 C   0  0  0  0  0  0  0  0  0  0  0  0
   25.6337  -20.3861   -6.6911 N   0  0  0  0  0  0  0  0  0  0  0  0
   26.8662  -20.1493   -6.2347 C   0  0  0  0  0  0  0  0  0  0  0  0
   27.3297  -19.8118   -4.9720 C   0  0  0  0  0  0  0  0  0  0  0  0
   28.6671  -19.6132   -4.7335 C   0  0  0  0  0  0  0  0  0  0  0  0
   29.5986  -19.7420   -5.7404 C   0  0  0  0  0  0  0  0  0  0  0  0
   29.1375  -20.0793   -7.0032 C   0  0  0  0  0  0  0  0  0  0  0  0
   27.8022  -20.2761   -7.2349 C   0  0  0  0  0  0  0  0  0  0  0  0
   25.4924  -20.1935  -10.6229 C   0  0  0  0  0  0  0  0  0  0  0  0
   25.6553  -19.0425  -11.0805 O   0  0  0  0  0  0  0  0  0  0  0  0
   24.2806  -20.5224  -10.0513 O   0  0  0  0  0  0  0  0  0  0  0  0
  1  2  1  0
  2  3  1  0
  3 10  1  0
  3  4  2  0
  6  8  1  0
  6  5  1  0
  7  6  2  0
  9  8  1  6
 10  9  1  0
 11  9  1  0
 11 13  1  0
 12 11  2  0
 14 13  1  0
 14 15  1  1
 14 25  1  0
 16 15  1  0
 16 17  2  0
 18 17  1  0
 19 24  2  0
 19 18  1  0
 20 19  1  0
 21 22  1  0
 21 20  2  0
 22 23  2  0
 23 24  1  0
 24 16  1  0
 25 27  1  0
 26 25  2  0
M  END
$$$$
