GNW.pdb
     RDKit          3D

 27 28  0  0  1  0  0  0  0  0999 V2000
   30.3513  -24.2969  -16.5034 N   0  0  0  0  0  0  0  0  0  0  0  0
   29.4890  -23.3365  -17.1688 C   0  0  0  0  0  0  0  0  0  0  0  0
   28.8761  -22.4001  -16.1612 C   0  0  0  0  0  0  0  0  0  0  0  0
   29.5805  -22.0109  -15.1979 O   0  0  0  0  0  0  0  0  0  0  0  0
   27.0514  -18.0573  -17.0840 N   0  0  0  0  0  0  0  0  0  0  0  0
   26.6303  -19.4022  -17.2987 C   0  0  0  0  0  0  0  0  0  0  0  0
   26.8391  -19.8670  -18.4462 O   0  0  0  0  0  0  0  0  0  0  0  0
   25.9893  -20.1647  -16.2017 C   0  0  0  0  0  0  0  0  0  0  0  0
   26.9693  -21.0209  -15.4372 C   0  0  2  0  0  0  0  0  0  0  0  0
   27.5297  -22.0020  -16.3492 N   0  0  0  0  0  0  0  0  0  0  0  0
   26.3054  -21.6861  -14.2799 C   0  0  0  0  0  0  0  0  0  0  0  0
   25.6459  -22.7335  -14.4877 O   0  0  0  0  0  0  0  0  0  0  0  0
   26.4642  -21.0852  -13.0052 N   0  0  0  0  0  0  0  0  0  0  0  0
   25.9616  -21.7486  -11.8261 C   0  0  1  0  0  0  0  0  0  0  0  0
   27.1160  -21.7387  -10.8238 C   0  0  0  0  0  0  0  0  0  0  0  0
   26.7484  -20.8214   -9.7188 C   0  0  0  0  0  0  0  0  0  0  0  0
   25.5493  -20.1658   -9.4857 C   0  0  0  0  0  0  0  0  0  0  0  0
   25.6588  -19.4343   -8.3647 N   0  0  0  0  0  0  0  0  0  0  0  0
   26.8936  -19.6132   -7.8884 C   0  0  0  0  0  0  0  0  0  0  0  0
   27.5302  -19.0996   -6.7685 C   0  0  0  0  0  0  0  0  0  0  0  0
   28.8296  -19.4302   -6.4733 C   0  0  0  0  0  0  0  0  0  0  0  0
   29.5495  -20.2850   -7.2790 C   0  0  0  0  0  0  0  0  0  0  0  0
   28.9151  -20.7995   -8.3988 C   0  0  0  0  0  0  0  0  0  0  0  0
   27.6188  -20.4660   -8.6881 C   0  0  0  0  0  0  0  0  0  0  0  0
   24.8013  -21.0181  -11.2682 C   0  0  0  0  0  0  0  0  0  0  0  0
   24.5572  -19.8313  -11.5722 O   0  0  0  0  0  0  0  0  0  0  0  0
   23.9649  -21.6697  -10.3855 O   0  0  0  0  0  0  0  0  0  0  0  0
  1  2  1  0
  2  3  1  0
  3 10  1  0
  3  4  2  0
  6  8  1  0
  6  5  1  0
  7  6  2  0
  9  8  1  6
 10  9  1  0
 11  9  1  0
 11 13  1  0
 12 11  2  0
 14 13  1  0
 14 15  1  1
 14 25  1  0
 16 15  1  0
 16 17  2  0
 18 17  1  0
 19 24  2  0
 19 18  1  0
 20 19  1  0
 21 22  1  0
 21 20  2  0
 22 23  2  0
 23 24  1  0
 24 16  1  0
 25 27  1  0
 26 25  2  0
M  END
$$$$
