GNW.pdb
     RDKit          3D

 27 28  0  0  1  0  0  0  0  0999 V2000
   31.0212  -24.2829  -17.5502 N   0  0  0  0  0  0  0  0  0  0  0  0
   30.6751  -23.9301  -16.1846 C   0  0  0  0  0  0  0  0  0  0  0  0
   29.5333  -22.9483  -16.1730 C   0  0  0  0  0  0  0  0  0  0  0  0
   29.7944  -21.7259  -16.0577 O   0  0  0  0  0  0  0  0  0  0  0  0
   26.6993  -23.1633  -19.6538 N   0  0  0  0  0  0  0  0  0  0  0  0
   26.4143  -22.2972  -18.5581 C   0  0  0  0  0  0  0  0  0  0  0  0
   26.4654  -21.0667  -18.8024 O   0  0  0  0  0  0  0  0  0  0  0  0
   26.0829  -22.8633  -17.2294 C   0  0  0  0  0  0  0  0  0  0  0  0
   27.1088  -22.5194  -16.1772 C   0  0  2  0  0  0  0  0  0  0  0  0
   28.2150  -23.4527  -16.2932 N   0  0  0  0  0  0  0  0  0  0  0  0
   26.5096  -22.5688  -14.8130 C   0  0  0  0  0  0  0  0  0  0  0  0
   26.4711  -23.6713  -14.2144 O   0  0  0  0  0  0  0  0  0  0  0  0
   26.0164  -21.3532  -14.2744 N   0  0  0  0  0  0  0  0  0  0  0  0
   25.6046  -21.2896  -12.8927 C   0  0  1  0  0  0  0  0  0  0  0  0
   26.8833  -21.0416  -12.0923 C   0  0  0  0  0  0  0  0  0  0  0  0
   26.4943  -20.7864  -10.6848 C   0  0  0  0  0  0  0  0  0  0  0  0
   25.2396  -20.5270  -10.1552 C   0  0  0  0  0  0  0  0  0  0  0  0
   25.3493  -20.3569   -8.8275 N   0  0  0  0  0  0  0  0  0  0  0  0
   26.6382  -20.5026   -8.5100 C   0  0  0  0  0  0  0  0  0  0  0  0
   27.2990  -20.4293   -7.2929 C   0  0  0  0  0  0  0  0  0  0  0  0
   28.6563  -20.6174   -7.2067 C   0  0  0  0  0  0  0  0  0  0  0  0
   29.4124  -20.8861   -8.3266 C   0  0  0  0  0  0  0  0  0  0  0  0
   28.7539  -20.9598   -9.5440 C   0  0  0  0  0  0  0  0  0  0  0  0
   27.3998  -20.7712   -9.6237 C   0  0  0  0  0  0  0  0  0  0  0  0
   24.6516  -20.1770  -12.6805 C   0  0  0  0  0  0  0  0  0  0  0  0
   24.6240  -19.1767  -13.4284 O   0  0  0  0  0  0  0  0  0  0  0  0
   23.7674  -20.2487  -11.6239 O   0  0  0  0  0  0  0  0  0  0  0  0
  1  2  1  0
  2  3  1  0
  3 10  1  0
  3  4  2  0
  6  8  1  0
  6  5  1  0
  7  6  2  0
  9  8  1  6
 10  9  1  0
 11  9  1  0
 11 13  1  0
 12 11  2  0
 14 13  1  0
 14 15  1  1
 14 25  1  0
 16 15  1  0
 16 17  2  0
 18 17  1  0
 19 24  2  0
 19 18  1  0
 20 19  1  0
 21 22  1  0
 21 20  2  0
 22 23  2  0
 23 24  1  0
 24 16  1  0
 25 27  1  0
 26 25  2  0
M  END
$$$$
