GNW.pdb
     RDKit          3D

 27 28  0  0  1  0  0  0  0  0999 V2000
   29.9542  -22.8864  -17.5755 N   0  0  0  0  0  0  0  0  0  0  0  0
   28.5096  -22.7396  -17.5586 C   0  0  0  0  0  0  0  0  0  0  0  0
   28.0750  -21.9997  -16.3211 C   0  0  0  0  0  0  0  0  0  0  0  0
   28.2955  -22.5222  -15.2013 O   0  0  0  0  0  0  0  0  0  0  0  0
   29.3394  -18.5453  -15.7740 N   0  0  0  0  0  0  0  0  0  0  0  0
   28.0957  -17.8640  -15.9192 C   0  0  0  0  0  0  0  0  0  0  0  0
   28.1658  -16.6621  -16.2755 O   0  0  0  0  0  0  0  0  0  0  0  0
   26.8230  -18.5749  -15.6538 C   0  0  0  0  0  0  0  0  0  0  0  0
   27.0306  -20.0242  -15.2872 C   0  0  2  0  0  0  0  0  0  0  0  0
   27.4361  -20.7454  -16.4803 N   0  0  0  0  0  0  0  0  0  0  0  0
   25.7888  -20.6095  -14.7059 C   0  0  0  0  0  0  0  0  0  0  0  0
   24.7794  -20.7271  -15.4425 O   0  0  0  0  0  0  0  0  0  0  0  0
   25.8294  -20.9998  -13.3431 N   0  0  0  0  0  0  0  0  0  0  0  0
   24.6676  -21.5941  -12.7269 C   0  0  1  0  0  0  0  0  0  0  0  0
   25.1972  -22.4027  -11.5425 C   0  0  0  0  0  0  0  0  0  0  0  0
   25.9217  -21.4708  -10.6457 C   0  0  0  0  0  0  0  0  0  0  0  0
   25.4175  -20.6131   -9.6803 C   0  0  0  0  0  0  0  0  0  0  0  0
   26.4352  -19.9524   -9.1044 N   0  0  0  0  0  0  0  0  0  0  0  0
   27.5636  -20.3724   -9.6821 C   0  0  0  0  0  0  0  0  0  0  0  0
   28.8891  -20.0231   -9.4716 C   0  0  0  0  0  0  0  0  0  0  0  0
   29.9016  -20.5979  -10.1991 C   0  0  0  0  0  0  0  0  0  0  0  0
   29.6380  -21.5436  -11.1658 C   0  0  0  0  0  0  0  0  0  0  0  0
   28.3139  -21.8942  -11.3778 C   0  0  0  0  0  0  0  0  0  0  0  0
   27.3083  -21.3172  -10.6488 C   0  0  0  0  0  0  0  0  0  0  0  0
   23.7353  -20.5484  -12.2487 C   0  0  0  0  0  0  0  0  0  0  0  0
   24.0631  -19.3442  -12.1925 O   0  0  0  0  0  0  0  0  0  0  0  0
   22.4660  -20.9168  -11.8534 O   0  0  0  0  0  0  0  0  0  0  0  0
  1  2  1  0
  2  3  1  0
  3 10  1  0
  3  4  2  0
  6  8  1  0
  6  5  1  0
  7  6  2  0
  9  8  1  6
 10  9  1  0
 11  9  1  0
 11 13  1  0
 12 11  2  0
 14 13  1  0
 14 15  1  1
 14 25  1  0
 16 15  1  0
 16 17  2  0
 18 17  1  0
 19 24  2  0
 19 18  1  0
 20 19  1  0
 21 22  1  0
 21 20  2  0
 22 23  2  0
 23 24  1  0
 24 16  1  0
 25 27  1  0
 26 25  2  0
M  END
$$$$
