GNW.pdb
     RDKit          3D

 27 28  0  0  1  0  0  0  0  0999 V2000
   24.3478  -15.0137  -20.9973 N   0  0  0  0  0  0  0  0  0  0  0  0
   25.2476  -14.8941  -19.8637 C   0  0  0  0  0  0  0  0  0  0  0  0
   25.7781  -16.2484  -19.4738 C   0  0  0  0  0  0  0  0  0  0  0  0
   26.6808  -16.7644  -20.1772 O   0  0  0  0  0  0  0  0  0  0  0  0
   27.8106  -20.0426  -18.2232 N   0  0  0  0  0  0  0  0  0  0  0  0
   28.2677  -18.7930  -17.7117 C   0  0  0  0  0  0  0  0  0  0  0  0
   29.5055  -18.6949  -17.5256 O   0  0  0  0  0  0  0  0  0  0  0  0
   27.3008  -17.7055  -17.4323 C   0  0  0  0  0  0  0  0  0  0  0  0
   25.8878  -18.0685  -17.8192 C   0  0  2  0  0  0  0  0  0  0  0  0
   25.2316  -16.8775  -18.3283 N   0  0  0  0  0  0  0  0  0  0  0  0
   25.1449  -18.6312  -16.6556 C   0  0  0  0  0  0  0  0  0  0  0  0
   25.6173  -18.4640  -15.5048 O   0  0  0  0  0  0  0  0  0  0  0  0
   23.9393  -19.3265  -16.9277 N   0  0  0  0  0  0  0  0  0  0  0  0
   22.7791  -19.1136  -16.0963 C   0  0  1  0  0  0  0  0  0  0  0  0
   22.5471  -17.6025  -16.0912 C   0  0  0  0  0  0  0  0  0  0  0  0
   21.0956  -17.3666  -16.2790 C   0  0  0  0  0  0  0  0  0  0  0  0
   20.0826  -17.3363  -15.3331 C   0  0  0  0  0  0  0  0  0  0  0  0
   18.9145  -17.0883  -15.9475 N   0  0  0  0  0  0  0  0  0  0  0  0
   19.1670  -16.9622  -17.2528 C   0  0  0  0  0  0  0  0  0  0  0  0
   18.3322  -16.7054  -18.3300 C   0  0  0  0  0  0  0  0  0  0  0  0
   18.8250  -16.6181  -19.6084 C   0  0  0  0  0  0  0  0  0  0  0  0
   20.1680  -16.7824  -19.8686 C   0  0  0  0  0  0  0  0  0  0  0  0
   21.0041  -17.0391  -18.7934 C   0  0  0  0  0  0  0  0  0  0  0  0
   20.5066  -17.1252  -17.5204 C   0  0  0  0  0  0  0  0  0  0  0  0
   21.5971  -19.8047  -16.6590 C   0  0  0  0  0  0  0  0  0  0  0  0
   21.5138  -20.0938  -17.8714 O   0  0  0  0  0  0  0  0  0  0  0  0
   20.5566  -20.1389  -15.8170 O   0  0  0  0  0  0  0  0  0  0  0  0
  1  2  1  0
  2  3  1  0
  3 10  1  0
  3  4  2  0
  6  8  1  0
  6  5  1  0
  7  6  2  0
  9  8  1  1
 10  9  1  0
 11  9  1  0
 11 13  1  0
 12 11  2  0
 14 13  1  0
 14 15  1  6
 14 25  1  0
 16 15  1  0
 16 17  2  0
 18 17  1  0
 19 24  2  0
 19 18  1  0
 20 19  1  0
 21 22  1  0
 21 20  2  0
 22 23  2  0
 23 24  1  0
 24 16  1  0
 25 27  1  0
 26 25  2  0
M  END
$$$$
