GNW.pdb
     RDKit          3D

 27 28  0  0  1  0  0  0  0  0999 V2000
   25.1597  -16.6085  -19.9414 N   0  0  0  0  0  0  0  0  0  0  0  0
   25.9135  -17.6090  -19.2068 C   0  0  0  0  0  0  0  0  0  0  0  0
   25.2330  -17.9190  -17.8997 C   0  0  0  0  0  0  0  0  0  0  0  0
   25.5619  -17.2625  -16.8816 O   0  0  0  0  0  0  0  0  0  0  0  0
   21.4173  -17.9107  -17.5346 N   0  0  0  0  0  0  0  0  0  0  0  0
   21.2770  -19.3188  -17.3623 C   0  0  0  0  0  0  0  0  0  0  0  0
   20.1515  -19.7978  -17.6455 O   0  0  0  0  0  0  0  0  0  0  0  0
   22.4203  -20.1259  -16.8755 C   0  0  0  0  0  0  0  0  0  0  0  0
   23.6498  -19.2925  -16.6076 C   0  0  2  0  0  0  0  0  0  0  0  0
   24.2511  -18.9399  -17.8814 N   0  0  0  0  0  0  0  0  0  0  0  0
   24.6171  -20.0317  -15.7472 C   0  0  0  0  0  0  0  0  0  0  0  0
   25.2036  -21.0322  -16.2270 O   0  0  0  0  0  0  0  0  0  0  0  0
   24.8138  -19.5507  -14.4277 N   0  0  0  0  0  0  0  0  0  0  0  0
   25.7938  -20.1733  -13.5704 C   0  0  1  0  0  0  0  0  0  0  0  0
   26.3618  -19.0465  -12.7073 C   0  0  0  0  0  0  0  0  0  0  0  0
   27.3690  -19.6387  -11.7949 C   0  0  0  0  0  0  0  0  0  0  0  0
   28.6548  -20.0757  -12.0735 C   0  0  0  0  0  0  0  0  0  0  0  0
   29.2149  -20.5419  -10.9453 N   0  0  0  0  0  0  0  0  0  0  0  0
   28.3156  -20.4092   -9.9670 C   0  0  0  0  0  0  0  0  0  0  0  0
   28.3706  -20.7284   -8.6185 C   0  0  0  0  0  0  0  0  0  0  0  0
   27.3023  -20.4977   -7.7877 C   0  0  0  0  0  0  0  0  0  0  0  0
   26.1354  -19.9403   -8.2631 C   0  0  0  0  0  0  0  0  0  0  0  0
   26.0784  -19.6206   -9.6105 C   0  0  0  0  0  0  0  0  0  0  0  0
   27.1474  -19.8531  -10.4344 C   0  0  0  0  0  0  0  0  0  0  0  0
   25.1618  -21.1992  -12.7106 C   0  0  0  0  0  0  0  0  0  0  0  0
   24.0042  -21.0647  -12.2605 O   0  0  0  0  0  0  0  0  0  0  0  0
   25.8745  -22.3382  -12.3978 O   0  0  0  0  0  0  0  0  0  0  0  0
  1  2  1  0
  2  3  1  0
  3 10  1  0
  3  4  2  0
  6  8  1  0
  6  5  1  0
  7  6  2  0
  9  8  1  6
 10  9  1  0
 11  9  1  0
 11 13  1  0
 12 11  2  0
 14 13  1  0
 14 15  1  1
 14 25  1  0
 16 15  1  0
 16 17  2  0
 18 17  1  0
 19 24  2  0
 19 18  1  0
 20 19  1  0
 21 22  1  0
 21 20  2  0
 22 23  2  0
 23 24  1  0
 24 16  1  0
 25 27  1  0
 26 25  2  0
M  END
$$$$
