PEC.pdb
     RDKit          3D

 23 23  0  0  1  0  0  0  0  0999 V2000
    7.9527  -15.0869   18.9070 N   0  0  0  0  0  0  0  0  0  0  0  0
    7.6873  -14.1752   17.7940 C   0  0  0  0  0  0  0  0  0  0  0  0
    7.9316  -12.7948   18.3292 C   0  0  0  0  0  0  0  0  0  0  0  0
    7.5313  -12.9757   19.8018 C   0  0  0  0  0  0  0  0  0  0  0  0
    8.2772  -14.2805   20.0302 C   0  0  1  0  0  0  0  0  0  0  0  0
    8.0962  -14.8630   21.3580 C   0  0  0  0  0  0  0  0  0  0  0  0
    6.9876  -14.8187   21.9675 O   0  0  0  0  0  0  0  0  0  0  0  0
    9.1649  -15.5078   22.0273 N   0  0  0  0  0  0  0  0  0  0  0  0
    9.1883  -16.0202   23.3482 C   0  0  1  0  0  0  0  0  0  0  0  0
    9.8584  -17.3580   23.5668 C   0  0  0  0  0  0  0  0  0  0  0  0
    9.8752  -17.7929   25.0092 C   0  0  0  0  0  0  0  0  0  0  0  0
   10.5619  -19.1026   25.1563 C   0  0  0  0  0  0  0  0  0  0  0  0
   11.8012  -19.1342   25.1684 O   0  0  0  0  0  0  0  0  0  0  0  0
    9.4120  -15.0472   24.4271 C   0  0  0  0  0  0  0  0  0  0  0  0
   10.5385  -14.4439   24.4782 O   0  0  0  0  0  0  0  0  0  0  0  0
    9.8455  -20.2675   25.2779 O   0  0  0  0  0  0  0  0  0  0  0  0
    8.4400  -14.7460   25.4121 N   0  0  0  0  0  0  0  0  0  0  0  0
    8.7003  -13.7555   26.4242 C   0  0  1  0  0  0  0  0  0  0  0  0
    7.5947  -12.7149   26.4579 C   0  0  0  0  0  0  0  0  0  0  0  0
    6.0261  -13.6114   26.7702 S   0  0  0  0  0  0  0  0  0  0  0  0
    8.8739  -14.4309   27.7237 C   0  0  0  0  0  0  0  0  0  0  0  0
    9.2780  -13.6986   28.8229 O   0  0  0  0  0  0  0  0  0  0  0  0
    8.6685  -15.6653   27.8872 O   0  0  0  0  0  0  0  0  0  0  0  0
  1  2  1  0
  2  3  1  0
  4  3  1  0
  5  4  1  0
  5  1  1  0
  6  7  2  0
  5  6  1  1
  8  6  1  0
  9 14  1  0
  9  8  1  0
  9 10  1  6
 11 12  1  0
 11 10  1  0
 12 13  2  0
 14 17  1  0
 15 14  2  0
 16 12  1  0
 17 18  1  0
 18 21  1  0
 18 19  1  1
 19 20  1  0
 21 23  2  0
 21 22  1  0
M  END
$$$$
