PEC.pdb
     RDKit          3D

 23 23  0  0  1  0  0  0  0  0999 V2000
    8.9221  -14.8094   19.1870 N   0  0  0  0  0  0  0  0  0  0  0  0
    8.4076  -14.4245   17.8727 C   0  0  0  0  0  0  0  0  0  0  0  0
    7.6326  -13.1583   18.0920 C   0  0  0  0  0  0  0  0  0  0  0  0
    7.1154  -13.3746   19.5227 C   0  0  0  0  0  0  0  0  0  0  0  0
    8.4297  -13.8551   20.1166 C   0  0  1  0  0  0  0  0  0  0  0  0
    8.3564  -14.2520   21.5210 C   0  0  0  0  0  0  0  0  0  0  0  0
    7.7488  -13.5563   22.3866 O   0  0  0  0  0  0  0  0  0  0  0  0
    8.9695  -15.4438   21.9788 N   0  0  0  0  0  0  0  0  0  0  0  0
    9.0355  -15.9409   23.3040 C   0  0  1  0  0  0  0  0  0  0  0  0
    9.7620  -17.2485   23.5243 C   0  0  0  0  0  0  0  0  0  0  0  0
    9.5072  -18.2669   22.4435 C   0  0  0  0  0  0  0  0  0  0  0  0
   10.5807  -19.2944   22.4244 C   0  0  0  0  0  0  0  0  0  0  0  0
   10.7056  -20.0522   23.3976 O   0  0  0  0  0  0  0  0  0  0  0  0
    9.2381  -14.9484   24.3692 C   0  0  0  0  0  0  0  0  0  0  0  0
   10.3049  -14.2432   24.3487 O   0  0  0  0  0  0  0  0  0  0  0  0
   11.4281  -19.4126   21.3506 O   0  0  0  0  0  0  0  0  0  0  0  0
    8.3089  -14.7358   25.4166 N   0  0  0  0  0  0  0  0  0  0  0  0
    8.6164  -13.8425   26.5032 C   0  0  1  0  0  0  0  0  0  0  0  0
    7.5295  -12.7941   26.6641 C   0  0  0  0  0  0  0  0  0  0  0  0
    5.9483  -13.5841   26.1766 S   0  0  0  0  0  0  0  0  0  0  0  0
    8.8188  -14.6327   27.7318 C   0  0  0  0  0  0  0  0  0  0  0  0
    9.2674  -14.0060   28.8781 O   0  0  0  0  0  0  0  0  0  0  0  0
    8.5995  -15.8740   27.7921 O   0  0  0  0  0  0  0  0  0  0  0  0
  1  2  1  0
  2  3  1  0
  4  3  1  0
  5  4  1  0
  5  1  1  0
  6  7  2  0
  5  6  1  1
  8  6  1  0
  9 14  1  0
  9  8  1  0
  9 10  1  6
 11 12  1  0
 11 10  1  0
 12 13  2  0
 14 17  1  0
 15 14  2  0
 16 12  1  0
 17 18  1  0
 18 21  1  0
 18 19  1  1
 19 20  1  0
 21 23  2  0
 21 22  1  0
M  END
$$$$
