PEC.pdb
     RDKit          3D

 23 23  0  0  1  0  0  0  0  0999 V2000
    9.0900  -14.7472   19.3668 N   0  0  0  0  0  0  0  0  0  0  0  0
    8.3608  -14.1706   18.2370 C   0  0  0  0  0  0  0  0  0  0  0  0
    7.5955  -13.0070   18.7956 C   0  0  0  0  0  0  0  0  0  0  0  0
    7.3206  -13.4958   20.2262 C   0  0  0  0  0  0  0  0  0  0  0  0
    8.7261  -13.9969   20.5165 C   0  0  1  0  0  0  0  0  0  0  0  0
    8.8901  -14.6338   21.8214 C   0  0  0  0  0  0  0  0  0  0  0  0
    8.4965  -14.0858   22.8925 O   0  0  0  0  0  0  0  0  0  0  0  0
    9.5039  -15.9042   21.9450 N   0  0  0  0  0  0  0  0  0  0  0  0
    9.8229  -16.6104   23.1312 C   0  0  1  0  0  0  0  0  0  0  0  0
   10.5440  -17.9314   22.9854 C   0  0  0  0  0  0  0  0  0  0  0  0
   10.6831  -18.6863   24.2819 C   0  0  0  0  0  0  0  0  0  0  0  0
   11.3756  -19.9831   24.0644 C   0  0  0  0  0  0  0  0  0  0  0  0
   11.7722  -20.2698   22.9253 O   0  0  0  0  0  0  0  0  0  0  0  0
   10.2625  -15.8037   24.2787 C   0  0  0  0  0  0  0  0  0  0  0  0
   11.2009  -14.9531   24.1004 O   0  0  0  0  0  0  0  0  0  0  0  0
   11.5792  -20.8592   25.1017 O   0  0  0  0  0  0  0  0  0  0  0  0
    9.6970  -15.9233   25.5716 N   0  0  0  0  0  0  0  0  0  0  0  0
   10.1059  -15.0460   26.6377 C   0  0  1  0  0  0  0  0  0  0  0  0
    9.0060  -14.0535   26.9717 C   0  0  0  0  0  0  0  0  0  0  0  0
    9.6311  -13.0021   28.3375 S   0  0  0  0  0  0  0  0  0  0  0  0
   10.5003  -15.8586   27.8036 C   0  0  0  0  0  0  0  0  0  0  0  0
   10.3100  -17.2264   27.7757 O   0  0  0  0  0  0  0  0  0  0  0  0
   11.0121  -15.3608   28.8442 O   0  0  0  0  0  0  0  0  0  0  0  0
  1  2  1  0
  2  3  1  0
  4  3  1  0
  5  4  1  0
  5  1  1  0
  6  7  2  0
  5  6  1  1
  8  6  1  0
  9 14  1  0
  9  8  1  0
  9 10  1  6
 11 12  1  0
 11 10  1  0
 12 13  2  0
 14 17  1  0
 15 14  2  0
 16 12  1  0
 17 18  1  0
 18 21  1  0
 18 19  1  1
 19 20  1  0
 21 23  2  0
 21 22  1  0
M  END
$$$$
