PEC.pdb
     RDKit          3D

 23 23  0  0  1  0  0  0  0  0999 V2000
    8.9500  -14.5716   19.3743 N   0  0  0  0  0  0  0  0  0  0  0  0
    8.4337  -14.1993   18.0570 C   0  0  0  0  0  0  0  0  0  0  0  0
    7.4667  -13.0777   18.2992 C   0  0  0  0  0  0  0  0  0  0  0  0
    6.9339  -13.4450   19.6929 C   0  0  0  0  0  0  0  0  0  0  0  0
    8.2823  -13.7530   20.3237 C   0  0  1  0  0  0  0  0  0  0  0  0
    8.2164  -14.2304   21.7032 C   0  0  0  0  0  0  0  0  0  0  0  0
    7.5199  -13.6475   22.5850 O   0  0  0  0  0  0  0  0  0  0  0  0
    8.9375  -15.3769   22.1172 N   0  0  0  0  0  0  0  0  0  0  0  0
    8.9772  -15.9683   23.4042 C   0  0  1  0  0  0  0  0  0  0  0  0
    9.7230  -17.2756   23.5496 C   0  0  0  0  0  0  0  0  0  0  0  0
    9.5960  -17.8906   24.9191 C   0  0  0  0  0  0  0  0  0  0  0  0
   10.3493  -19.1695   24.9939 C   0  0  0  0  0  0  0  0  0  0  0  0
   11.0357  -19.4056   25.9990 O   0  0  0  0  0  0  0  0  0  0  0  0
    9.1312  -15.0530   24.5440 C   0  0  0  0  0  0  0  0  0  0  0  0
   10.2288  -14.4072   24.6615 O   0  0  0  0  0  0  0  0  0  0  0  0
   10.2940  -20.0842   23.9715 O   0  0  0  0  0  0  0  0  0  0  0  0
    8.1226  -14.8522   25.5178 N   0  0  0  0  0  0  0  0  0  0  0  0
    8.2972  -13.8841   26.5692 C   0  0  1  0  0  0  0  0  0  0  0  0
    6.9629  -13.2852   26.9783 C   0  0  0  0  0  0  0  0  0  0  0  0
    6.3361  -12.3410   25.5371 S   0  0  0  0  0  0  0  0  0  0  0  0
    8.9944  -14.5241   27.7003 C   0  0  0  0  0  0  0  0  0  0  0  0
    9.3171  -13.7732   28.8138 O   0  0  0  0  0  0  0  0  0  0  0  0
    9.3173  -15.7440   27.7044 O   0  0  0  0  0  0  0  0  0  0  0  0
  1  2  1  0
  2  3  1  0
  4  3  1  0
  5  4  1  0
  5  1  1  0
  6  7  2  0
  5  6  1  1
  8  6  1  0
  9 14  1  0
  9  8  1  0
  9 10  1  6
 11 12  1  0
 11 10  1  0
 12 13  2  0
 14 17  1  0
 15 14  2  0
 16 12  1  0
 17 18  1  0
 18 21  1  0
 18 19  1  1
 19 20  1  0
 21 23  2  0
 21 22  1  0
M  END
$$$$
