PEC.pdb
     RDKit          3D

 23 23  0  0  1  0  0  0  0  0999 V2000
    9.0472  -14.8640   18.7132 N   0  0  0  0  0  0  0  0  0  0  0  0
    8.4553  -14.4744   17.4333 C   0  0  0  0  0  0  0  0  0  0  0  0
    7.5441  -13.3217   17.7384 C   0  0  0  0  0  0  0  0  0  0  0  0
    7.0953  -13.6720   19.1657 C   0  0  0  0  0  0  0  0  0  0  0  0
    8.4726  -14.0243   19.7041 C   0  0  1  0  0  0  0  0  0  0  0  0
    8.4848  -14.4998   21.0858 C   0  0  0  0  0  0  0  0  0  0  0  0
    7.8561  -13.9037   22.0088 O   0  0  0  0  0  0  0  0  0  0  0  0
    9.2092  -15.6594   21.4555 N   0  0  0  0  0  0  0  0  0  0  0  0
    9.3469  -16.2314   22.7444 C   0  0  1  0  0  0  0  0  0  0  0  0
   10.2893  -17.4047   22.8910 C   0  0  0  0  0  0  0  0  0  0  0  0
   10.3239  -17.9772   24.2842 C   0  0  0  0  0  0  0  0  0  0  0  0
   11.2394  -19.1459   24.3508 C   0  0  0  0  0  0  0  0  0  0  0  0
   10.8452  -20.2437   23.9304 O   0  0  0  0  0  0  0  0  0  0  0  0
    9.3605  -15.2980   23.8800 C   0  0  0  0  0  0  0  0  0  0  0  0
   10.3152  -14.4507   23.9596 O   0  0  0  0  0  0  0  0  0  0  0  0
   12.5054  -19.0246   24.8679 O   0  0  0  0  0  0  0  0  0  0  0  0
    8.3674  -15.2923   24.8897 N   0  0  0  0  0  0  0  0  0  0  0  0
    8.3622  -14.2773   25.9110 C   0  0  1  0  0  0  0  0  0  0  0  0
    7.0083  -13.5934   25.9852 C   0  0  0  0  0  0  0  0  0  0  0  0
    7.0883  -12.3981   27.3732 S   0  0  0  0  0  0  0  0  0  0  0  0
    8.7531  -14.8869   27.1957 C   0  0  0  0  0  0  0  0  0  0  0  0
    9.0454  -14.0743   28.2737 O   0  0  0  0  0  0  0  0  0  0  0  0
    8.8357  -16.1347   27.3650 O   0  0  0  0  0  0  0  0  0  0  0  0
  1  2  1  0
  2  3  1  0
  4  3  1  0
  5  4  1  0
  5  1  1  0
  6  7  2  0
  5  6  1  1
  8  6  1  0
  9 14  1  0
  9  8  1  0
  9 10  1  6
 11 12  1  0
 11 10  1  0
 12 13  2  0
 14 17  1  0
 15 14  2  0
 16 12  1  0
 17 18  1  0
 18 21  1  0
 18 19  1  1
 19 20  1  0
 21 23  2  0
 21 22  1  0
M  END
$$$$
