PEC.pdb
     RDKit          3D

 23 23  0  0  1  0  0  0  0  0999 V2000
    9.0693  -14.3776   18.3539 N   0  0  0  0  0  0  0  0  0  0  0  0
    8.3073  -13.8228   17.2349 C   0  0  0  0  0  0  0  0  0  0  0  0
    7.3158  -12.8761   17.8451 C   0  0  0  0  0  0  0  0  0  0  0  0
    7.0602  -13.5524   19.2011 C   0  0  0  0  0  0  0  0  0  0  0  0
    8.5163  -13.8270   19.5406 C   0  0  1  0  0  0  0  0  0  0  0  0
    8.7250  -14.5581   20.7884 C   0  0  0  0  0  0  0  0  0  0  0  0
    8.1712  -14.2116   21.8727 O   0  0  0  0  0  0  0  0  0  0  0  0
    9.5656  -15.6969   20.8388 N   0  0  0  0  0  0  0  0  0  0  0  0
    9.9012  -16.4877   21.9656 C   0  0  1  0  0  0  0  0  0  0  0  0
   11.0581  -17.4510   21.8234 C   0  0  0  0  0  0  0  0  0  0  0  0
   11.2135  -18.3809   22.9987 C   0  0  0  0  0  0  0  0  0  0  0  0
   12.4038  -19.2537   22.8258 C   0  0  0  0  0  0  0  0  0  0  0  0
   12.2929  -20.2993   22.1689 O   0  0  0  0  0  0  0  0  0  0  0  0
    9.8173  -15.8314   23.2782 C   0  0  0  0  0  0  0  0  0  0  0  0
   10.7193  -14.9807   23.5917 O   0  0  0  0  0  0  0  0  0  0  0  0
   13.6140  -18.9180   23.3804 O   0  0  0  0  0  0  0  0  0  0  0  0
    8.7856  -16.0959   24.2118 N   0  0  0  0  0  0  0  0  0  0  0  0
    8.7911  -15.4739   25.5104 C   0  0  1  0  0  0  0  0  0  0  0  0
    7.4192  -14.9167   25.8476 C   0  0  0  0  0  0  0  0  0  0  0  0
    7.1265  -13.4989   24.7226 S   0  0  0  0  0  0  0  0  0  0  0  0
    9.2595  -16.4524   26.5094 C   0  0  0  0  0  0  0  0  0  0  0  0
    9.6078  -17.7258   26.1037 O   0  0  0  0  0  0  0  0  0  0  0  0
    9.3608  -16.1822   27.7380 O   0  0  0  0  0  0  0  0  0  0  0  0
  1  2  1  0
  2  3  1  0
  4  3  1  0
  5  4  1  0
  5  1  1  0
  6  7  2  0
  5  6  1  1
  8  6  1  0
  9 14  1  0
  9  8  1  0
  9 10  1  6
 11 12  1  0
 11 10  1  0
 12 13  2  0
 14 17  1  0
 15 14  2  0
 16 12  1  0
 17 18  1  0
 18 21  1  0
 18 19  1  1
 19 20  1  0
 21 23  2  0
 21 22  1  0
M  END
$$$$
