FYT.pdb
     RDKit          3D

 31 32  0  0  1  0  0  0  0  0999 V2000
   28.5087  -20.2220  -16.9901 N   0  0  0  0  0  0  0  0  0  0  0  0
   27.6357  -19.3807  -16.2389 C   0  0  1  0  0  0  0  0  0  0  0  0
   26.8253  -18.4278  -17.0876 C   0  0  0  0  0  0  0  0  0  0  0  0
   27.6607  -17.2304  -17.3260 C   0  0  0  0  0  0  0  0  0  0  0  0
   28.2957  -17.0773  -18.5374 C   0  0  0  0  0  0  0  0  0  0  0  0
   29.0804  -15.9602  -18.7702 C   0  0  0  0  0  0  0  0  0  0  0  0
   29.1867  -15.0472  -17.7646 C   0  0  0  0  0  0  0  0  0  0  0  0
   28.5685  -15.1605  -16.5362 C   0  0  0  0  0  0  0  0  0  0  0  0
   27.7797  -16.2904  -16.3115 C   0  0  0  0  0  0  0  0  0  0  0  0
   26.7931  -20.1268  -15.2742 C   0  0  0  0  0  0  0  0  0  0  0  0
   26.5419  -21.3460  -15.5587 O   0  0  0  0  0  0  0  0  0  0  0  0
   22.6594  -21.8023   -7.4236 O   0  0  0  0  0  0  0  0  0  0  0  0
   23.4188  -21.3473   -8.5189 C   0  0  0  0  0  0  0  0  0  0  0  0
   24.7783  -21.5776   -8.5827 C   0  0  0  0  0  0  0  0  0  0  0  0
   25.5462  -21.1420   -9.6469 C   0  0  0  0  0  0  0  0  0  0  0  0
   24.9652  -20.4540  -10.6908 C   0  0  0  0  0  0  0  0  0  0  0  0
   25.7548  -19.9637  -11.8043 C   0  0  0  0  0  0  0  0  0  0  0  0
   25.4270  -20.4313  -13.1692 C   0  0  2  0  0  0  0  0  0  0  0  0
   26.2565  -19.6006  -14.0857 N   0  0  0  0  0  0  0  0  0  0  0  0
   24.0357  -20.2394  -13.6180 C   0  0  0  0  0  0  0  0  0  0  0  0
   23.5804  -19.0844  -13.8686 O   0  0  0  0  0  0  0  0  0  0  0  0
   23.6117  -20.2187  -10.6381 C   0  0  0  0  0  0  0  0  0  0  0  0
   22.8370  -20.6606   -9.5602 C   0  0  0  0  0  0  0  0  0  0  0  0
   22.1473  -20.7361  -16.4762 C   0  0  0  0  0  0  0  0  0  0  0  0
   21.3125  -21.5131  -15.4805 C   0  0  1  0  0  0  0  0  0  0  0  0
   21.6267  -22.8601  -15.6583 O   0  0  0  0  0  0  0  0  0  0  0  0
   21.7180  -21.0529  -14.0853 C   0  0  2  0  0  0  0  0  0  0  0  0
   23.0968  -21.3015  -13.8145 N   0  0  0  0  0  0  0  0  0  0  0  0
   20.8007  -21.5730  -13.0650 C   0  0  0  0  0  0  0  0  0  0  0  0
   21.1900  -22.4129  -12.1774 O   0  0  0  0  0  0  0  0  0  0  0  0
   19.4770  -21.2059  -12.9837 O   0  0  0  0  0  0  0  0  0  0  0  0
  2  1  1  6
  3  2  1  0
  3  4  1  0
  4  9  1  0
  4  5  2  0
  5  6  1  0
  6  7  2  0
  8  7  1  0
  9  8  2  0
 10 19  1  0
 10  2  1  0
 11 10  2  0
 12 13  1  0
 13 14  2  0
 14 15  1  0
 16 17  1  0
 16 15  2  0
 18 17  1  1
 18 19  1  0
 20 18  1  0
 21 20  2  0
 22 16  1  0
 23 22  2  0
 23 13  1  0
 25 27  1  0
 25 24  1  6
 25 26  1  0
 27 28  1  1
 28 20  1  0
 29 27  1  0
 29 31  1  0
 30 29  2  0
M  END
$$$$
