FYT.pdb
     RDKit          3D

 31 32  0  0  1  0  0  0  0  0999 V2000
   17.2859  -12.0213    5.5252 N   0  0  0  0  0  0  0  0  0  0  0  0
   18.0591  -13.2150    5.6324 C   0  0  1  0  0  0  0  0  0  0  0  0
   18.8350  -13.3266    6.9249 C   0  0  0  0  0  0  0  0  0  0  0  0
   19.8912  -12.2912    6.8957 C   0  0  0  0  0  0  0  0  0  0  0  0
   20.0410  -11.4453    7.9710 C   0  0  0  0  0  0  0  0  0  0  0  0
   21.0265  -10.4725    7.9531 C   0  0  0  0  0  0  0  0  0  0  0  0
   21.8169  -10.4000    6.8458 C   0  0  0  0  0  0  0  0  0  0  0  0
   21.7019  -11.2263    5.7468 C   0  0  0  0  0  0  0  0  0  0  0  0
   20.7053  -12.2038    5.7747 C   0  0  0  0  0  0  0  0  0  0  0  0
   17.2819  -14.4423    5.3378 C   0  0  0  0  0  0  0  0  0  0  0  0
   16.0603  -14.4480    5.7098 O   0  0  0  0  0  0  0  0  0  0  0  0
   14.8149  -22.0320    1.2670 O   0  0  0  0  0  0  0  0  0  0  0  0
   15.4183  -20.8417    1.7169 C   0  0  0  0  0  0  0  0  0  0  0  0
   16.7710  -20.7918    1.9878 C   0  0  0  0  0  0  0  0  0  0  0  0
   17.3877  -19.6359    2.4299 C   0  0  0  0  0  0  0  0  0  0  0  0
   16.6561  -18.4823    2.6156 C   0  0  0  0  0  0  0  0  0  0  0  0
   17.2761  -17.2655    3.1045 C   0  0  0  0  0  0  0  0  0  0  0  0
   16.9316  -16.7874    4.4615 C   0  0  2  0  0  0  0  0  0  0  0  0
   17.7812  -15.5855    4.6889 N   0  0  0  0  0  0  0  0  0  0  0  0
   17.2342  -17.6984    5.5807 C   0  0  0  0  0  0  0  0  0  0  0  0
   18.4153  -17.8296    6.0191 O   0  0  0  0  0  0  0  0  0  0  0  0
   15.3079  -18.5201    2.3491 C   0  0  0  0  0  0  0  0  0  0  0  0
   14.6863  -19.6909    1.9017 C   0  0  0  0  0  0  0  0  0  0  0  0
   15.9756  -20.6586    9.2958 C   0  0  0  0  0  0  0  0  0  0  0  0
   15.4487  -19.7614    8.1962 C   0  0  1  0  0  0  0  0  0  0  0  0
   14.9737  -18.6053    8.8148 O   0  0  0  0  0  0  0  0  0  0  0  0
   16.6179  -19.4294    7.2765 C   0  0  2  0  0  0  0  0  0  0  0  0
   16.2578  -18.4916    6.2629 N   0  0  0  0  0  0  0  0  0  0  0  0
   17.2596  -20.6474    6.7694 C   0  0  0  0  0  0  0  0  0  0  0  0
   18.3748  -21.0665    7.2443 O   0  0  0  0  0  0  0  0  0  0  0  0
   16.7238  -21.4195    5.7643 O   0  0  0  0  0  0  0  0  0  0  0  0
  2  1  1  1
  3  2  1  0
  3  4  1  0
  4  9  1  0
  4  5  2  0
  5  6  1  0
  6  7  2  0
  8  7  1  0
  9  8  2  0
 10 19  1  0
 10  2  1  0
 11 10  2  0
 12 13  1  0
 13 14  2  0
 14 15  1  0
 16 17  1  0
 16 15  2  0
 18 17  1  6
 18 19  1  0
 20 18  1  0
 21 20  2  0
 22 16  1  0
 23 22  2  0
 23 13  1  0
 25 27  1  0
 25 24  1  1
 25 26  1  0
 27 28  1  6
 28 20  1  0
 29 27  1  0
 29 31  1  0
 30 29  2  0
M  END
$$$$
