FYT.pdb
     RDKit          3D

 31 32  0  0  1  0  0  0  0  0999 V2000
   26.6251  -22.5305  -18.6430 N   0  0  0  0  0  0  0  0  0  0  0  0
   25.9114  -21.4649  -18.0191 C   0  0  1  0  0  0  0  0  0  0  0  0
   24.7634  -20.9319  -18.8456 C   0  0  0  0  0  0  0  0  0  0  0  0
   25.3396  -20.3559  -20.0804 C   0  0  0  0  0  0  0  0  0  0  0  0
   25.1828  -21.0204  -21.2754 C   0  0  0  0  0  0  0  0  0  0  0  0
   25.7188  -20.4897  -22.4369 C   0  0  0  0  0  0  0  0  0  0  0  0
   26.3901  -19.3085  -22.3358 C   0  0  0  0  0  0  0  0  0  0  0  0
   26.5710  -18.6094  -21.1601 C   0  0  0  0  0  0  0  0  0  0  0  0
   26.0268  -19.1528  -19.9948 C   0  0  0  0  0  0  0  0  0  0  0  0
   25.5046  -21.7711  -16.6270 C   0  0  0  0  0  0  0  0  0  0  0  0
   25.1166  -22.9653  -16.3947 O   0  0  0  0  0  0  0  0  0  0  0  0
   25.0458  -20.8731   -7.6811 O   0  0  0  0  0  0  0  0  0  0  0  0
   25.2783  -20.8147   -9.0689 C   0  0  0  0  0  0  0  0  0  0  0  0
   26.3453  -21.4811   -9.6370 C   0  0  0  0  0  0  0  0  0  0  0  0
   26.5951  -21.4403  -10.9964 C   0  0  0  0  0  0  0  0  0  0  0  0
   25.7714  -20.7205  -11.8356 C   0  0  0  0  0  0  0  0  0  0  0  0
   26.0293  -20.6409  -13.2607 C   0  0  0  0  0  0  0  0  0  0  0  0
   25.0562  -21.2488  -14.1947 C   0  0  2  0  0  0  0  0  0  0  0  0
   25.5132  -20.8584  -15.5573 N   0  0  0  0  0  0  0  0  0  0  0  0
   23.6628  -20.7764  -14.0986 C   0  0  0  0  0  0  0  0  0  0  0  0
   23.2473  -19.8102  -14.8044 O   0  0  0  0  0  0  0  0  0  0  0  0
   24.7056  -20.0525  -11.2809 C   0  0  0  0  0  0  0  0  0  0  0  0
   24.4549  -20.0955   -9.9052 C   0  0  0  0  0  0  0  0  0  0  0  0
   20.8333  -22.5399  -15.1726 C   0  0  0  0  0  0  0  0  0  0  0  0
   20.7723  -21.0856  -14.7565 C   0  0  1  0  0  0  0  0  0  0  0  0
   19.4304  -20.7096  -14.8079 O   0  0  0  0  0  0  0  0  0  0  0  0
   21.2945  -20.9960  -13.3274 C   0  0  2  0  0  0  0  0  0  0  0  0
   22.6747  -21.3461  -13.2342 N   0  0  0  0  0  0  0  0  0  0  0  0
   20.4247  -21.7227  -12.3957 C   0  0  0  0  0  0  0  0  0  0  0  0
   20.8759  -22.6653  -11.6522 O   0  0  0  0  0  0  0  0  0  0  0  0
   19.0831  -21.4533  -12.2505 O   0  0  0  0  0  0  0  0  0  0  0  0
  2  1  1  6
  3  2  1  0
  3  4  1  0
  4  9  1  0
  4  5  2  0
  5  6  1  0
  6  7  2  0
  8  7  1  0
  9  8  2  0
 10 19  1  0
 10  2  1  0
 11 10  2  0
 12 13  1  0
 13 14  2  0
 14 15  1  0
 16 17  1  0
 16 15  2  0
 18 17  1  1
 18 19  1  0
 20 18  1  0
 21 20  2  0
 22 16  1  0
 23 22  2  0
 23 13  1  0
 25 27  1  0
 25 24  1  1
 25 26  1  0
 27 28  1  6
 28 20  1  0
 29 27  1  0
 29 31  1  0
 30 29  2  0
M  END
$$$$
