FYT.pdb
     RDKit          3D

 31 32  0  0  1  0  0  0  0  0999 V2000
   24.3669  -11.8645  -15.8760 N   0  0  0  0  0  0  0  0  0  0  0  0
   23.7353  -11.0244  -16.8400 C   0  0  1  0  0  0  0  0  0  0  0  0
   22.8443  -11.7680  -17.8085 C   0  0  0  0  0  0  0  0  0  0  0  0
   23.7089  -12.6738  -18.5963 C   0  0  0  0  0  0  0  0  0  0  0  0
   24.4732  -12.1611  -19.6197 C   0  0  0  0  0  0  0  0  0  0  0  0
   25.2855  -13.0008  -20.3633 C   0  0  0  0  0  0  0  0  0  0  0  0
   25.2872  -14.3235  -20.0368 C   0  0  0  0  0  0  0  0  0  0  0  0
   24.5379  -14.8795  -19.0203 C   0  0  0  0  0  0  0  0  0  0  0  0
   23.7223  -14.0245  -18.2766 C   0  0  0  0  0  0  0  0  0  0  0  0
   23.0537   -9.8542  -16.2372 C   0  0  0  0  0  0  0  0  0  0  0  0
   22.3173  -10.0836  -15.2196 O   0  0  0  0  0  0  0  0  0  0  0  0
   22.1167   -1.1835  -14.1811 O   0  0  0  0  0  0  0  0  0  0  0  0
   22.4677   -2.5085  -14.5042 C   0  0  0  0  0  0  0  0  0  0  0  0
   23.2672   -2.7834  -15.5954 C   0  0  0  0  0  0  0  0  0  0  0  0
   23.6266   -4.0751  -15.9338 C   0  0  0  0  0  0  0  0  0  0  0  0
   23.1887   -5.1416  -15.1779 C   0  0  0  0  0  0  0  0  0  0  0  0
   23.5303   -6.5067  -15.5292 C   0  0  0  0  0  0  0  0  0  0  0  0
   22.4579   -7.4086  -16.0039 C   0  0  2  0  0  0  0  0  0  0  0  0
   23.1551   -8.5285  -16.6953 N   0  0  0  0  0  0  0  0  0  0  0  0
   21.5212   -6.8562  -16.9996 C   0  0  0  0  0  0  0  0  0  0  0  0
   21.8164   -6.8234  -18.2309 O   0  0  0  0  0  0  0  0  0  0  0  0
   22.3917   -4.8799  -14.0887 C   0  0  0  0  0  0  0  0  0  0  0  0
   22.0296   -3.5721  -13.7484 C   0  0  0  0  0  0  0  0  0  0  0  0
   17.2370   -5.7470  -18.8480 C   0  0  0  0  0  0  0  0  0  0  0  0
   17.9792   -6.3150  -17.6571 C   0  0  1  0  0  0  0  0  0  0  0  0
   18.0163   -7.6983  -17.8300 O   0  0  0  0  0  0  0  0  0  0  0  0
   19.3901   -5.7391  -17.6797 C   0  0  2  0  0  0  0  0  0  0  0  0
   20.2290   -6.3270  -16.6862 N   0  0  0  0  0  0  0  0  0  0  0  0
   19.3674   -4.2722  -17.6574 C   0  0  0  0  0  0  0  0  0  0  0  0
   19.0295   -3.6218  -16.6049 O   0  0  0  0  0  0  0  0  0  0  0  0
   19.7010   -3.4963  -18.7437 O   0  0  0  0  0  0  0  0  0  0  0  0
  2  1  1  1
  3  2  1  0
  3  4  1  0
  4  9  1  0
  4  5  2  0
  5  6  1  0
  6  7  2  0
  8  7  1  0
  9  8  2  0
 10 19  1  0
 10  2  1  0
 11 10  2  0
 12 13  1  0
 13 14  2  0
 14 15  1  0
 16 17  1  0
 16 15  2  0
 18 17  1  6
 18 19  1  0
 20 18  1  0
 21 20  2  0
 22 16  1  0
 23 22  2  0
 23 13  1  0
 25 27  1  0
 25 24  1  6
 25 26  1  0
 27 28  1  1
 28 20  1  0
 29 27  1  0
 29 31  1  0
 30 29  2  0
M  END
$$$$
