FYT.pdb
     RDKit          3D

 31 32  0  0  1  0  0  0  0  0999 V2000
   23.1750  -12.1063  -19.6761 N   0  0  0  0  0  0  0  0  0  0  0  0
   21.8257  -12.5031  -19.9128 C   0  0  1  0  0  0  0  0  0  0  0  0
   21.6954  -13.7937  -20.6888 C   0  0  0  0  0  0  0  0  0  0  0  0
   22.1333  -13.5205  -22.0753 C   0  0  0  0  0  0  0  0  0  0  0  0
   21.2132  -13.0910  -23.0044 C   0  0  0  0  0  0  0  0  0  0  0  0
   21.6131  -12.8330  -24.3049 C   0  0  0  0  0  0  0  0  0  0  0  0
   22.9283  -13.0217  -24.6064 C   0  0  0  0  0  0  0  0  0  0  0  0
   23.8833  -13.4505  -23.7077 C   0  0  0  0  0  0  0  0  0  0  0  0
   23.4701  -13.7079  -22.3991 C   0  0  0  0  0  0  0  0  0  0  0  0
   20.9927  -12.5002  -18.6867 C   0  0  0  0  0  0  0  0  0  0  0  0
   21.5697  -12.8520  -17.6032 O   0  0  0  0  0  0  0  0  0  0  0  0
   21.3707   -7.9817  -12.8632 O   0  0  0  0  0  0  0  0  0  0  0  0
   20.7083   -8.6141  -13.9331 C   0  0  0  0  0  0  0  0  0  0  0  0
   19.5945   -9.3989  -13.7120 C   0  0  0  0  0  0  0  0  0  0  0  0
   18.9259  -10.0300  -14.7448 C   0  0  0  0  0  0  0  0  0  0  0  0
   19.3610   -9.8904  -16.0455 C   0  0  0  0  0  0  0  0  0  0  0  0
   18.6921  -10.5647  -17.1418 C   0  0  0  0  0  0  0  0  0  0  0  0
   18.9170  -12.0151  -17.3280 C   0  0  2  0  0  0  0  0  0  0  0  0
   19.6336  -12.1444  -18.6272 N   0  0  0  0  0  0  0  0  0  0  0  0
   17.7154  -12.8597  -17.4577 C   0  0  0  0  0  0  0  0  0  0  0  0
   16.8964  -12.6939  -18.4096 O   0  0  0  0  0  0  0  0  0  0  0  0
   20.4695   -9.1112  -16.2778 C   0  0  0  0  0  0  0  0  0  0  0  0
   21.1441   -8.4736  -15.2311 C   0  0  0  0  0  0  0  0  0  0  0  0
   17.4766  -16.5088  -17.8101 C   0  0  0  0  0  0  0  0  0  0  0  0
   16.5060  -16.2062  -16.6883 C   0  0  1  0  0  0  0  0  0  0  0  0
   17.1555  -16.5303  -15.4976 O   0  0  0  0  0  0  0  0  0  0  0  0
   16.2004  -14.7139  -16.7374 C   0  0  2  0  0  0  0  0  0  0  0  0
   17.3706  -13.9172  -16.5572 N   0  0  0  0  0  0  0  0  0  0  0  0
   15.0920  -14.3671  -15.8408 C   0  0  0  0  0  0  0  0  0  0  0  0
   15.2520  -13.5618  -14.8555 O   0  0  0  0  0  0  0  0  0  0  0  0
   13.8193  -14.8698  -15.9858 O   0  0  0  0  0  0  0  0  0  0  0  0
  2  1  1  1
  3  2  1  0
  3  4  1  0
  4  9  1  0
  4  5  2  0
  5  6  1  0
  6  7  2  0
  8  7  1  0
  9  8  2  0
 10 19  1  0
 10  2  1  0
 11 10  2  0
 12 13  1  0
 13 14  2  0
 14 15  1  0
 16 17  1  0
 16 15  2  0
 18 17  1  6
 18 19  1  0
 20 18  1  0
 21 20  2  0
 22 16  1  0
 23 22  2  0
 23 13  1  0
 25 27  1  0
 25 24  1  6
 25 26  1  0
 27 28  1  1
 28 20  1  0
 29 27  1  0
 29 31  1  0
 30 29  2  0
M  END
$$$$
