VEM.pdb
     RDKit          3D

 25 24  0  0  1  0  0  0  0  0999 V2000
    7.1655  -13.5088   20.9457 C   0  0  0  0  0  0  0  0  0  0  0  0
    8.3713  -13.1484   20.0551 C   0  0  2  0  0  0  0  0  0  0  0  0
    7.7749  -12.2625   18.9483 C   0  0  0  0  0  0  0  0  0  0  0  0
    8.8946  -14.4198   19.4681 C   0  0  2  0  0  0  0  0  0  0  0  0
    7.8076  -14.8886   18.5472 N   0  0  0  0  0  0  0  0  0  0  0  0
    9.1596  -15.5276   20.3662 C   0  0  0  0  0  0  0  0  0  0  0  0
    8.9125  -16.7248   19.9387 O   0  0  0  0  0  0  0  0  0  0  0  0
    9.6679  -15.4307   21.6729 N   0  0  0  0  0  0  0  0  0  0  0  0
   10.1878  -16.6345   22.3602 C   0  0  1  0  0  0  0  0  0  0  0  0
   11.3348  -17.1674   21.5608 C   0  0  0  0  0  0  0  0  0  0  0  0
   11.9753  -18.3980   22.0991 C   0  0  0  0  0  0  0  0  0  0  0  0
   13.1787  -18.8247   21.3541 C   0  0  0  0  0  0  0  0  0  0  0  0
   14.3029  -18.4228   21.6600 O   0  0  0  0  0  0  0  0  0  0  0  0
   10.5222  -16.2737   23.7410 C   0  0  0  0  0  0  0  0  0  0  0  0
   11.3063  -15.2639   23.9070 O   0  0  0  0  0  0  0  0  0  0  0  0
   13.0470  -19.7133   20.2647 O   0  0  0  0  0  0  0  0  0  0  0  0
    7.8029  -11.6491   26.6407 C   0  0  0  0  0  0  0  0  0  0  0  0
    6.9075  -13.1591   26.3078 S   0  0  0  0  0  0  0  0  0  0  0  0
    7.7168  -14.6769   26.7804 C   0  0  0  0  0  0  0  0  0  0  0  0
    8.3520  -15.4135   25.6687 C   0  0  0  0  0  0  0  0  0  0  0  0
    9.5394  -16.2652   25.9986 C   0  0  2  0  0  0  0  0  0  0  0  0
   10.0197  -16.9845   24.8353 N   0  0  0  0  0  0  0  0  0  0  0  0
    9.1716  -17.3453   26.9814 C   0  0  0  0  0  0  0  0  0  0  0  0
    8.7206  -18.4574   26.6776 O   0  0  0  0  0  0  0  0  0  0  0  0
    9.3325  -17.1268   28.3706 O   0  0  0  0  0  0  0  0  0  0  0  0
  2  1  1  1
  2  3  1  0
  4  2  1  0
  4  5  1  6
  6  7  2  0
  6  4  1  0
  8  6  1  0
  9  8  1  0
  9 10  1  6
 11 10  1  0
 12 11  1  0
 13 12  2  0
 14 15  2  0
 14  9  1  0
 16 12  1  0
 18 17  1  0
 19 18  1  0
 19 20  1  0
 21 20  1  6
 21 22  1  0
 21 23  1  0
 22 14  1  0
 23 25  1  0
 24 23  2  0
M  END
$$$$
