VEM.pdb
     RDKit          3D

 25 24  0  0  1  0  0  0  0  0999 V2000
    7.5430  -13.3011   21.7960 C   0  0  0  0  0  0  0  0  0  0  0  0
    8.3502  -13.4417   20.4899 C   0  0  2  0  0  0  0  0  0  0  0  0
    7.5201  -12.6759   19.4459 C   0  0  0  0  0  0  0  0  0  0  0  0
    8.3966  -14.8950   20.1424 C   0  0  2  0  0  0  0  0  0  0  0  0
    6.9598  -15.3238   20.1099 N   0  0  0  0  0  0  0  0  0  0  0  0
    9.0594  -15.7964   21.0656 C   0  0  0  0  0  0  0  0  0  0  0  0
    8.3359  -16.3734   21.9714 O   0  0  0  0  0  0  0  0  0  0  0  0
   10.4287  -16.1131   21.0740 N   0  0  0  0  0  0  0  0  0  0  0  0
   10.9524  -17.1251   22.0192 C   0  0  1  0  0  0  0  0  0  0  0  0
   12.2808  -17.5911   21.5126 C   0  0  0  0  0  0  0  0  0  0  0  0
   13.0241  -18.5125   22.4141 C   0  0  0  0  0  0  0  0  0  0  0  0
   14.3433  -18.9292   21.8932 C   0  0  0  0  0  0  0  0  0  0  0  0
   15.3495  -18.9221   22.6049 O   0  0  0  0  0  0  0  0  0  0  0  0
   10.9840  -16.5359   23.3610 C   0  0  0  0  0  0  0  0  0  0  0  0
   11.3033  -15.2896   23.4441 O   0  0  0  0  0  0  0  0  0  0  0  0
   14.4634  -19.3465   20.5496 O   0  0  0  0  0  0  0  0  0  0  0  0
    9.7651  -12.9292   29.0730 C   0  0  0  0  0  0  0  0  0  0  0  0
   10.0074  -13.7712   27.5157 S   0  0  0  0  0  0  0  0  0  0  0  0
    9.0400  -15.2476   27.2581 C   0  0  0  0  0  0  0  0  0  0  0  0
    9.2794  -15.9292   25.9697 C   0  0  0  0  0  0  0  0  0  0  0  0
   10.5975  -16.6182   25.7914 C   0  0  2  0  0  0  0  0  0  0  0  0
   10.6832  -17.2814   24.5053 N   0  0  0  0  0  0  0  0  0  0  0  0
   10.7664  -17.7269   26.7965 C   0  0  0  0  0  0  0  0  0  0  0  0
   10.6286  -18.9327   26.5526 O   0  0  0  0  0  0  0  0  0  0  0  0
   11.1076  -17.4252   28.1367 O   0  0  0  0  0  0  0  0  0  0  0  0
  2  1  1  1
  2  3  1  0
  4  2  1  0
  4  5  1  1
  6  7  2  0
  6  4  1  0
  8  6  1  0
  9  8  1  0
  9 10  1  6
 11 10  1  0
 12 11  1  0
 13 12  2  0
 14 15  2  0
 14  9  1  0
 16 12  1  0
 18 17  1  0
 19 18  1  0
 19 20  1  0
 21 20  1  1
 21 22  1  0
 21 23  1  0
 22 14  1  0
 23 25  1  0
 24 23  2  0
M  END
$$$$
