VEM.pdb
     RDKit          3D

 25 24  0  0  1  0  0  0  0  0999 V2000
    7.5496  -12.5767   18.2881 C   0  0  0  0  0  0  0  0  0  0  0  0
    7.6512  -13.4037   19.5853 C   0  0  2  0  0  0  0  0  0  0  0  0
    8.5998  -12.5898   20.4815 C   0  0  0  0  0  0  0  0  0  0  0  0
    8.2759  -14.7162   19.2360 C   0  0  2  0  0  0  0  0  0  0  0  0
    7.2180  -15.4467   18.4637 N   0  0  0  0  0  0  0  0  0  0  0  0
    8.6578  -15.6003   20.3206 C   0  0  0  0  0  0  0  0  0  0  0  0
    7.7139  -16.2094   20.9649 O   0  0  0  0  0  0  0  0  0  0  0  0
    9.9698  -15.8683   20.7474 N   0  0  0  0  0  0  0  0  0  0  0  0
   10.2096  -16.7854   21.8845 C   0  0  1  0  0  0  0  0  0  0  0  0
   11.5443  -17.4321   21.6870 C   0  0  0  0  0  0  0  0  0  0  0  0
   11.9668  -18.3725   22.7600 C   0  0  0  0  0  0  0  0  0  0  0  0
   13.3276  -18.9204   22.5779 C   0  0  0  0  0  0  0  0  0  0  0  0
   13.6468  -19.5277   21.5540 O   0  0  0  0  0  0  0  0  0  0  0  0
   10.0788  -16.0251   23.1309 C   0  0  0  0  0  0  0  0  0  0  0  0
   10.7070  -14.9013   23.1978 O   0  0  0  0  0  0  0  0  0  0  0  0
   14.2913  -18.7493   23.5957 O   0  0  0  0  0  0  0  0  0  0  0  0
    6.8494  -11.2127   27.1299 C   0  0  0  0  0  0  0  0  0  0  0  0
    6.4627  -12.8682   26.5802 S   0  0  0  0  0  0  0  0  0  0  0  0
    7.7810  -14.0647   26.6917 C   0  0  0  0  0  0  0  0  0  0  0  0
    8.0475  -14.8120   25.4457 C   0  0  0  0  0  0  0  0  0  0  0  0
    9.2456  -15.7109   25.4265 C   0  0  2  0  0  0  0  0  0  0  0  0
    9.3107  -16.4873   24.2041 N   0  0  0  0  0  0  0  0  0  0  0  0
    9.1634  -16.7420   26.5211 C   0  0  0  0  0  0  0  0  0  0  0  0
    8.9902  -17.9546   26.3421 O   0  0  0  0  0  0  0  0  0  0  0  0
    9.2862  -16.3512   27.8761 O   0  0  0  0  0  0  0  0  0  0  0  0
  2  1  1  6
  2  3  1  0
  4  2  1  0
  4  5  1  6
  6  7  2  0
  6  4  1  0
  8  6  1  0
  9  8  1  0
  9 10  1  6
 11 10  1  0
 12 11  1  0
 13 12  2  0
 14 15  2  0
 14  9  1  0
 16 12  1  0
 18 17  1  0
 19 18  1  0
 19 20  1  0
 21 20  1  6
 21 22  1  0
 21 23  1  0
 22 14  1  0
 23 25  1  0
 24 23  2  0
M  END
$$$$
