VEM.pdb
     RDKit          3D

 25 24  0  0  1  0  0  0  0  0999 V2000
    8.1585  -14.5716   17.8338 C   0  0  0  0  0  0  0  0  0  0  0  0
    7.6202  -13.5214   18.8260 C   0  0  2  0  0  0  0  0  0  0  0  0
    7.7688  -12.1839   18.0814 C   0  0  0  0  0  0  0  0  0  0  0  0
    8.5080  -13.5401   20.0286 C   0  0  2  0  0  0  0  0  0  0  0  0
    9.8852  -13.2945   19.4879 N   0  0  0  0  0  0  0  0  0  0  0  0
    8.5949  -14.7696   20.7933 C   0  0  0  0  0  0  0  0  0  0  0  0
    7.5149  -15.2084   21.3574 O   0  0  0  0  0  0  0  0  0  0  0  0
    9.7510  -15.5458   20.9843 N   0  0  0  0  0  0  0  0  0  0  0  0
    9.7464  -16.6597   21.9595 C   0  0  1  0  0  0  0  0  0  0  0  0
   10.9233  -17.5369   21.6690 C   0  0  0  0  0  0  0  0  0  0  0  0
   10.7901  -18.4146   20.4748 C   0  0  0  0  0  0  0  0  0  0  0  0
   11.9822  -19.2454   20.2032 C   0  0  0  0  0  0  0  0  0  0  0  0
   12.1524  -20.3312   20.7610 O   0  0  0  0  0  0  0  0  0  0  0  0
    9.7265  -16.0941   23.3116 C   0  0  0  0  0  0  0  0  0  0  0  0
   10.7707  -15.4366   23.6849 O   0  0  0  0  0  0  0  0  0  0  0  0
   12.9545  -18.7927   19.2848 O   0  0  0  0  0  0  0  0  0  0  0  0
    6.9826  -11.2553   27.7300 C   0  0  0  0  0  0  0  0  0  0  0  0
    6.2312  -12.5773   26.7918 S   0  0  0  0  0  0  0  0  0  0  0  0
    7.0241  -14.1715   26.9004 C   0  0  0  0  0  0  0  0  0  0  0  0
    7.2650  -14.8342   25.6024 C   0  0  0  0  0  0  0  0  0  0  0  0
    8.5831  -15.5209   25.4157 C   0  0  2  0  0  0  0  0  0  0  0  0
    8.6308  -16.2535   24.1658 N   0  0  0  0  0  0  0  0  0  0  0  0
    8.7985  -16.5709   26.4736 C   0  0  0  0  0  0  0  0  0  0  0  0
    8.7578  -17.7928   26.2792 O   0  0  0  0  0  0  0  0  0  0  0  0
    9.0708  -16.1887   27.8091 O   0  0  0  0  0  0  0  0  0  0  0  0
  2  1  1  6
  2  3  1  0
  4  2  1  0
  4  5  1  6
  6  7  2  0
  6  4  1  0
  8  6  1  0
  9  8  1  0
  9 10  1  1
 11 10  1  0
 12 11  1  0
 13 12  2  0
 14 15  2  0
 14  9  1  0
 16 12  1  0
 18 17  1  0
 19 18  1  0
 19 20  1  0
 21 20  1  1
 21 22  1  0
 21 23  1  0
 22 14  1  0
 23 25  1  0
 24 23  2  0
M  END
$$$$
