VEM.pdb
     RDKit          3D

 25 24  0  0  1  0  0  0  0  0999 V2000
    9.1780  -12.7115   20.0868 C   0  0  0  0  0  0  0  0  0  0  0  0
    7.7373  -13.2059   19.8477 C   0  0  2  0  0  0  0  0  0  0  0  0
    6.9844  -12.8176   21.1314 C   0  0  0  0  0  0  0  0  0  0  0  0
    7.7874  -14.6939   19.7128 C   0  0  2  0  0  0  0  0  0  0  0  0
    6.3755  -15.0951   19.4048 N   0  0  0  0  0  0  0  0  0  0  0  0
    8.1771  -15.4714   20.8737 C   0  0  0  0  0  0  0  0  0  0  0  0
    7.2710  -15.7246   21.7636 O   0  0  0  0  0  0  0  0  0  0  0  0
    9.4585  -15.9877   21.1322 N   0  0  0  0  0  0  0  0  0  0  0  0
    9.6891  -16.8490   22.3141 C   0  0  1  0  0  0  0  0  0  0  0  0
   10.8785  -17.7127   22.0350 C   0  0  0  0  0  0  0  0  0  0  0  0
   11.2413  -18.6727   23.1126 C   0  0  0  0  0  0  0  0  0  0  0  0
   12.4725  -19.4444   22.8410 C   0  0  0  0  0  0  0  0  0  0  0  0
   13.1211  -19.2809   21.8058 O   0  0  0  0  0  0  0  0  0  0  0  0
    9.8217  -15.9916   23.4956 C   0  0  0  0  0  0  0  0  0  0  0  0
   10.8160  -15.1711   23.5129 O   0  0  0  0  0  0  0  0  0  0  0  0
   12.9240  -20.3937   23.7838 O   0  0  0  0  0  0  0  0  0  0  0  0
    7.0025  -11.0318   26.6290 C   0  0  0  0  0  0  0  0  0  0  0  0
    6.2228  -12.5227   26.0273 S   0  0  0  0  0  0  0  0  0  0  0  0
    7.3060  -13.7462   25.3121 C   0  0  0  0  0  0  0  0  0  0  0  0
    8.0297  -14.5824   26.2914 C   0  0  0  0  0  0  0  0  0  0  0  0
    9.2149  -15.3520   25.7947 C   0  0  2  0  0  0  0  0  0  0  0  0
    8.9175  -16.0520   24.5606 N   0  0  0  0  0  0  0  0  0  0  0  0
    9.5934  -16.4425   26.7619 C   0  0  0  0  0  0  0  0  0  0  0  0
   10.3166  -16.2905   27.7550 O   0  0  0  0  0  0  0  0  0  0  0  0
    9.1150  -17.7607   26.5692 O   0  0  0  0  0  0  0  0  0  0  0  0
  2  1  1  1
  2  3  1  0
  4  2  1  0
  4  5  1  1
  6  7  2  0
  6  4  1  0
  8  6  1  0
  9  8  1  0
  9 10  1  6
 11 10  1  0
 12 11  1  0
 13 12  2  0
 14 15  2  0
 14  9  1  0
 16 12  1  0
 18 17  1  0
 19 18  1  0
 19 20  1  0
 21 20  1  1
 21 22  1  0
 21 23  1  0
 22 14  1  0
 23 25  1  0
 24 23  2  0
M  END
$$$$
