VEM.pdb
     RDKit          3D

 25 24  0  0  1  0  0  0  0  0999 V2000
    7.6728  -14.9683   18.6181 C   0  0  0  0  0  0  0  0  0  0  0  0
    7.5697  -13.6291   19.3752 C   0  0  2  0  0  0  0  0  0  0  0  0
    7.7047  -12.5606   18.2773 C   0  0  0  0  0  0  0  0  0  0  0  0
    8.7312  -13.5504   20.3130 C   0  0  2  0  0  0  0  0  0  0  0  0
    9.9380  -13.7118   19.4373 N   0  0  0  0  0  0  0  0  0  0  0  0
    8.8479  -14.5667   21.3414 C   0  0  0  0  0  0  0  0  0  0  0  0
    7.8789  -14.6788   22.1932 O   0  0  0  0  0  0  0  0  0  0  0  0
    9.9224  -15.4574   21.5070 N   0  0  0  0  0  0  0  0  0  0  0  0
    9.8431  -16.5397   22.5141 C   0  0  1  0  0  0  0  0  0  0  0  0
   10.9448  -17.5136   22.2378 C   0  0  0  0  0  0  0  0  0  0  0  0
   10.9911  -18.7011   23.1333 C   0  0  0  0  0  0  0  0  0  0  0  0
   12.0312  -19.6872   22.7712 C   0  0  0  0  0  0  0  0  0  0  0  0
   11.8028  -20.6049   21.9809 O   0  0  0  0  0  0  0  0  0  0  0  0
    9.8831  -15.9363   23.8494 C   0  0  0  0  0  0  0  0  0  0  0  0
   10.8633  -15.1373   24.0999 O   0  0  0  0  0  0  0  0  0  0  0  0
   13.3197  -19.5835   23.3393 O   0  0  0  0  0  0  0  0  0  0  0  0
    6.6335  -10.6926   26.3306 C   0  0  0  0  0  0  0  0  0  0  0  0
    6.9692  -12.2954   27.0453 S   0  0  0  0  0  0  0  0  0  0  0  0
    7.6933  -13.5088   25.9566 C   0  0  0  0  0  0  0  0  0  0  0  0
    7.8361  -14.8586   26.5395 C   0  0  0  0  0  0  0  0  0  0  0  0
    9.0445  -15.6521   26.1470 C   0  0  2  0  0  0  0  0  0  0  0  0
    8.9085  -16.2073   24.8148 N   0  0  0  0  0  0  0  0  0  0  0  0
    9.2129  -16.8541   27.0384 C   0  0  0  0  0  0  0  0  0  0  0  0
    8.9402  -18.0185   26.7184 O   0  0  0  0  0  0  0  0  0  0  0  0
    9.7164  -16.6996   28.3522 O   0  0  0  0  0  0  0  0  0  0  0  0
  2  1  1  6
  2  3  1  0
  4  2  1  0
  4  5  1  6
  6  7  2  0
  6  4  1  0
  8  6  1  0
  9  8  1  0
  9 10  1  1
 11 10  1  0
 12 11  1  0
 13 12  2  0
 14 15  2  0
 14  9  1  0
 16 12  1  0
 18 17  1  0
 19 18  1  0
 19 20  1  0
 21 20  1  1
 21 22  1  0
 21 23  1  0
 22 14  1  0
 23 25  1  0
 24 23  2  0
M  END
$$$$
