PCA.pdb
     RDKit          3D

 19 19  0  0  1  0  0  0  0  0999 V2000
    7.0225  -14.7339   20.6084 N   0  0  0  0  0  0  0  0  0  0  0  0
    6.7992  -14.2680   19.2321 C   0  0  0  0  0  0  0  0  0  0  0  0
    7.2426  -12.8264   19.3466 C   0  0  0  0  0  0  0  0  0  0  0  0
    8.4829  -12.9474   20.2178 C   0  0  0  0  0  0  0  0  0  0  0  0
    8.3409  -14.2738   20.9370 C   0  0  1  0  0  0  0  0  0  0  0  0
    8.5747  -14.1323   22.3850 C   0  0  0  0  0  0  0  0  0  0  0  0
    9.7776  -13.8677   22.7273 O   0  0  0  0  0  0  0  0  0  0  0  0
    7.5803  -14.2681   23.3732 N   0  0  0  0  0  0  0  0  0  0  0  0
    7.9176  -14.1046   24.7573 C   0  0  1  0  0  0  0  0  0  0  0  0
    6.8806  -13.3065   25.5192 C   0  0  0  0  0  0  0  0  0  0  0  0
    7.2839  -13.1291   27.2522 S   0  0  0  0  0  0  0  0  0  0  0  0
    8.0070  -15.4903   25.3424 C   0  0  0  0  0  0  0  0  0  0  0  0
    7.0033  -16.2387   25.4643 O   0  0  0  0  0  0  0  0  0  0  0  0
   10.2429  -18.1909   25.6160 C   0  0  0  0  0  0  0  0  0  0  0  0
    9.3126  -17.3276   26.4347 C   0  0  2  0  0  0  0  0  0  0  0  0
    9.2515  -16.0189   25.7890 N   0  0  0  0  0  0  0  0  0  0  0  0
    9.7628  -17.2026   27.8476 C   0  0  0  0  0  0  0  0  0  0  0  0
   10.1156  -16.0775   28.2791 O   0  0  0  0  0  0  0  0  0  0  0  0
    9.8130  -18.2790   28.7217 O   0  0  0  0  0  0  0  0  0  0  0  0
  1  5  1  0
  1  2  1  0
  3  2  1  0
  4  3  1  0
  4  5  1  0
  6  7  2  0
  5  6  1  1
  8  6  1  0
  9 12  1  0
  9  8  1  0
  9 10  1  1
 11 10  1  0
 12 16  1  0
 13 12  2  0
 15 14  1  6
 15 17  1  0
 16 15  1  0
 17 18  2  0
 17 19  1  0
M  END
$$$$
