PCA.pdb
     RDKit          3D

 19 19  0  0  1  0  0  0  0  0999 V2000
    7.2454  -15.0032   20.1418 N   0  0  0  0  0  0  0  0  0  0  0  0
    6.8074  -14.4397   18.8566 C   0  0  0  0  0  0  0  0  0  0  0  0
    7.1774  -12.9853   19.0453 C   0  0  0  0  0  0  0  0  0  0  0  0
    8.5310  -13.0917   19.7297 C   0  0  0  0  0  0  0  0  0  0  0  0
    8.5674  -14.4808   20.3345 C   0  0  1  0  0  0  0  0  0  0  0  0
    8.9902  -14.4459   21.7457 C   0  0  0  0  0  0  0  0  0  0  0  0
   10.2408  -14.2705   21.9437 O   0  0  0  0  0  0  0  0  0  0  0  0
    8.1217  -14.5901   22.8452 N   0  0  0  0  0  0  0  0  0  0  0  0
    8.6338  -14.4941   24.1811 C   0  0  1  0  0  0  0  0  0  0  0  0
    7.6570  -13.8372   25.1336 C   0  0  0  0  0  0  0  0  0  0  0  0
    8.2525  -13.8069   26.8193 S   0  0  0  0  0  0  0  0  0  0  0  0
    8.9022  -15.9044   24.6388 C   0  0  0  0  0  0  0  0  0  0  0  0
    8.0138  -16.7951   24.6410 O   0  0  0  0  0  0  0  0  0  0  0  0
   11.7411  -18.1149   24.9542 C   0  0  0  0  0  0  0  0  0  0  0  0
   10.4356  -17.6574   25.5603 C   0  0  2  0  0  0  0  0  0  0  0  0
   10.1935  -16.2942   25.0952 N   0  0  0  0  0  0  0  0  0  0  0  0
   10.4576  -17.7157   27.0471 C   0  0  0  0  0  0  0  0  0  0  0  0
   10.3454  -16.6502   27.7019 O   0  0  0  0  0  0  0  0  0  0  0  0
   10.5974  -18.9015   27.7539 O   0  0  0  0  0  0  0  0  0  0  0  0
  1  5  1  0
  1  2  1  0
  3  2  1  0
  4  3  1  0
  4  5  1  0
  6  7  2  0
  5  6  1  1
  8  6  1  0
  9 12  1  0
  9  8  1  0
  9 10  1  1
 11 10  1  0
 12 16  1  0
 13 12  2  0
 15 14  1  6
 15 17  1  0
 16 15  1  0
 17 18  2  0
 17 19  1  0
M  END
$$$$
