PCA.pdb
     RDKit          3D

 19 19  0  0  1  0  0  0  0  0999 V2000
    7.8131  -15.1746   18.2905 N   0  0  0  0  0  0  0  0  0  0  0  0
    7.4459  -14.6308   16.9750 C   0  0  0  0  0  0  0  0  0  0  0  0
    7.5414  -13.1459   17.2467 C   0  0  0  0  0  0  0  0  0  0  0  0
    8.8006  -13.0620   18.0950 C   0  0  0  0  0  0  0  0  0  0  0  0
    8.9955  -14.4533   18.6634 C   0  0  1  0  0  0  0  0  0  0  0  0
    9.2322  -14.4157   20.1174 C   0  0  0  0  0  0  0  0  0  0  0  0
   10.3724  -13.9657   20.4802 O   0  0  0  0  0  0  0  0  0  0  0  0
    8.3036  -14.8336   21.0904 N   0  0  0  0  0  0  0  0  0  0  0  0
    8.6399  -14.7573   22.4823 C   0  0  1  0  0  0  0  0  0  0  0  0
    7.4570  -14.3759   23.3473 C   0  0  0  0  0  0  0  0  0  0  0  0
    7.8163  -14.4892   25.0952 S   0  0  0  0  0  0  0  0  0  0  0  0
    9.1260  -16.1268   22.8806 C   0  0  0  0  0  0  0  0  0  0  0  0
    8.4293  -17.1628   22.7261 O   0  0  0  0  0  0  0  0  0  0  0  0
   12.2421  -17.8517   23.3605 C   0  0  0  0  0  0  0  0  0  0  0  0
   10.8495  -17.6304   23.9014 C   0  0  2  0  0  0  0  0  0  0  0  0
   10.4149  -16.3084   23.4579 N   0  0  0  0  0  0  0  0  0  0  0  0
   10.8018  -17.7355   25.3851 C   0  0  0  0  0  0  0  0  0  0  0  0
   11.2082  -18.7879   25.9363 O   0  0  0  0  0  0  0  0  0  0  0  0
   10.3255  -16.7176   26.1988 O   0  0  0  0  0  0  0  0  0  0  0  0
  1  5  1  0
  1  2  1  0
  3  2  1  0
  4  3  1  0
  4  5  1  0
  6  7  2  0
  5  6  1  1
  8  6  1  0
  9 12  1  0
  9  8  1  0
  9 10  1  1
 11 10  1  0
 12 16  1  0
 13 12  2  0
 15 14  1  1
 15 17  1  0
 16 15  1  0
 17 18  2  0
 17 19  1  0
M  END
$$$$
