PCA.pdb
     RDKit          3D

 19 19  0  0  1  0  0  0  0  0999 V2000
    7.1884  -14.8452   19.8309 N   0  0  0  0  0  0  0  0  0  0  0  0
    6.9012  -14.2393   18.5226 C   0  0  0  0  0  0  0  0  0  0  0  0
    7.3098  -12.8059   18.7797 C   0  0  0  0  0  0  0  0  0  0  0  0
    8.5846  -12.9828   19.5894 C   0  0  0  0  0  0  0  0  0  0  0  0
    8.5053  -14.3834   20.1627 C   0  0  1  0  0  0  0  0  0  0  0  0
    8.7892  -14.3933   21.6086 C   0  0  0  0  0  0  0  0  0  0  0  0
    9.9974  -14.1345   21.9363 O   0  0  0  0  0  0  0  0  0  0  0  0
    7.8357  -14.6627   22.6096 N   0  0  0  0  0  0  0  0  0  0  0  0
    8.1773  -14.4881   23.9912 C   0  0  1  0  0  0  0  0  0  0  0  0
    7.0221  -13.9583   24.8145 C   0  0  0  0  0  0  0  0  0  0  0  0
    7.4004  -13.8761   26.5602 S   0  0  0  0  0  0  0  0  0  0  0  0
    8.5746  -15.8464   24.5086 C   0  0  0  0  0  0  0  0  0  0  0  0
    7.7984  -16.8358   24.4762 O   0  0  0  0  0  0  0  0  0  0  0  0
   11.6140  -17.7054   25.0225 C   0  0  0  0  0  0  0  0  0  0  0  0
   10.2398  -17.3910   25.5644 C   0  0  2  0  0  0  0  0  0  0  0  0
    9.8662  -16.0704   25.0648 N   0  0  0  0  0  0  0  0  0  0  0  0
   10.2028  -17.4267   27.0517 C   0  0  0  0  0  0  0  0  0  0  0  0
    9.9636  -16.3676   27.6824 O   0  0  0  0  0  0  0  0  0  0  0  0
   10.4216  -18.5844   27.7845 O   0  0  0  0  0  0  0  0  0  0  0  0
  1  5  1  0
  1  2  1  0
  3  2  1  0
  4  3  1  0
  4  5  1  0
  6  7  2  0
  5  6  1  1
  8  6  1  0
  9 12  1  0
  9  8  1  0
  9 10  1  1
 11 10  1  0
 12 16  1  0
 13 12  2  0
 15 14  1  1
 15 17  1  0
 16 15  1  0
 17 18  2  0
 17 19  1  0
M  END
$$$$
