PCA.pdb
     RDKit          3D

 19 19  0  0  1  0  0  0  0  0999 V2000
    7.1338  -14.7676   20.5518 N   0  0  0  0  0  0  0  0  0  0  0  0
    6.8527  -14.2614   19.2006 C   0  0  0  0  0  0  0  0  0  0  0  0
    7.4093  -12.8588   19.3031 C   0  0  0  0  0  0  0  0  0  0  0  0
    8.6936  -13.0868   20.0847 C   0  0  0  0  0  0  0  0  0  0  0  0
    8.5022  -14.4121   20.7943 C   0  0  1  0  0  0  0  0  0  0  0  0
    8.8440  -14.3148   22.2243 C   0  0  0  0  0  0  0  0  0  0  0  0
   10.0908  -14.2178   22.4891 O   0  0  0  0  0  0  0  0  0  0  0  0
    7.9049  -14.3228   23.2740 N   0  0  0  0  0  0  0  0  0  0  0  0
    8.3513  -14.2849   24.6361 C   0  0  1  0  0  0  0  0  0  0  0  0
    7.3869  -13.5523   25.5451 C   0  0  0  0  0  0  0  0  0  0  0  0
    5.8550  -14.4426   25.7856 S   0  0  0  0  0  0  0  0  0  0  0  0
    8.4691  -15.7176   25.0877 C   0  0  0  0  0  0  0  0  0  0  0  0
    7.5420  -16.5537   24.9328 O   0  0  0  0  0  0  0  0  0  0  0  0
   10.9206  -18.2041   25.4378 C   0  0  0  0  0  0  0  0  0  0  0  0
    9.7521  -17.5804   26.1634 C   0  0  2  0  0  0  0  0  0  0  0  0
    9.6538  -16.1926   25.7190 N   0  0  0  0  0  0  0  0  0  0  0  0
    9.9063  -17.6554   27.6416 C   0  0  0  0  0  0  0  0  0  0  0  0
    9.9737  -16.5906   28.3036 O   0  0  0  0  0  0  0  0  0  0  0  0
    9.9801  -18.8563   28.3328 O   0  0  0  0  0  0  0  0  0  0  0  0
  1  5  1  0
  1  2  1  0
  3  2  1  0
  4  3  1  0
  4  5  1  0
  6  7  2  0
  5  6  1  1
  8  6  1  0
  9 12  1  0
  9  8  1  0
  9 10  1  1
 11 10  1  0
 12 16  1  0
 13 12  2  0
 15 14  1  6
 15 17  1  0
 16 15  1  0
 17 18  2  0
 17 19  1  0
M  END
$$$$
