PCA.pdb
     RDKit          3D

 19 19  0  0  1  0  0  0  0  0999 V2000
    7.3159  -16.0239   21.3080 N   0  0  0  0  0  0  0  0  0  0  0  0
    6.9278  -16.0653   19.8907 C   0  0  0  0  0  0  0  0  0  0  0  0
    6.8815  -14.5884   19.5675 C   0  0  0  0  0  0  0  0  0  0  0  0
    8.1100  -14.0684   20.2973 C   0  0  0  0  0  0  0  0  0  0  0  0
    8.4195  -15.1089   21.3548 C   0  0  1  0  0  0  0  0  0  0  0  0
    8.6218  -14.4924   22.6778 C   0  0  0  0  0  0  0  0  0  0  0  0
    9.6861  -13.7961   22.8062 O   0  0  0  0  0  0  0  0  0  0  0  0
    7.7377  -14.6252   23.7662 N   0  0  0  0  0  0  0  0  0  0  0  0
    7.9149  -13.8166   24.9370 C   0  0  1  0  0  0  0  0  0  0  0  0
    6.6101  -13.5297   25.6499 C   0  0  0  0  0  0  0  0  0  0  0  0
    5.7623  -15.0186   26.1615 S   0  0  0  0  0  0  0  0  0  0  0  0
    8.8244  -14.5894   25.8569 C   0  0  0  0  0  0  0  0  0  0  0  0
    9.1903  -15.7679   25.6126 O   0  0  0  0  0  0  0  0  0  0  0  0
   10.6612  -13.8137   29.0307 C   0  0  0  0  0  0  0  0  0  0  0  0
   10.2641  -14.7343   27.9014 C   0  0  2  0  0  0  0  0  0  0  0  0
    9.3155  -14.0086   27.0607 N   0  0  0  0  0  0  0  0  0  0  0  0
    9.6702  -16.0054   28.3975 C   0  0  0  0  0  0  0  0  0  0  0  0
    8.4307  -16.1799   28.2992 O   0  0  0  0  0  0  0  0  0  0  0  0
   10.4260  -17.0187   28.9697 O   0  0  0  0  0  0  0  0  0  0  0  0
  1  5  1  0
  1  2  1  0
  3  2  1  0
  4  3  1  0
  4  5  1  0
  6  7  2  0
  5  6  1  1
  8  6  1  0
  9 12  1  0
  9  8  1  0
  9 10  1  1
 11 10  1  0
 12 16  1  0
 13 12  2  0
 15 14  1  1
 15 17  1  0
 16 15  1  0
 17 18  2  0
 17 19  1  0
M  END
$$$$
