SFM.pdb
     RDKit          3D

 26 26  0  0  1  0  0  0  0  0999 V2000
   13.6926  -21.6866   -5.7641 O   0  0  0  0  0  0  0  0  0  0  0  0
   14.7656  -22.1615   -4.9879 C   0  0  0  0  0  0  0  0  0  0  0  0
   14.3126  -23.4125   -4.2405 C   0  0  2  0  0  0  0  0  0  0  0  0
   13.5681  -24.2632   -5.1426 N   0  0  0  0  0  0  0  0  0  0  0  0
   13.4486  -22.9941   -3.1256 C   0  0  0  0  0  0  0  0  0  0  0  0
   12.2213  -22.8074   -3.2856 O   0  0  0  0  0  0  0  0  0  0  0  0
   14.0206  -22.7964   -1.8343 N   0  0  0  0  0  0  0  0  0  0  0  0
   13.1798  -22.4124   -0.7496 C   0  0  1  0  0  0  0  0  0  0  0  0
   12.9527  -23.5224    0.2531 C   0  0  0  0  0  0  0  0  0  0  0  0
   14.2252  -24.1154    0.7197 C   0  0  0  0  0  0  0  0  0  0  0  0
   14.8420  -23.6408    1.8709 C   0  0  0  0  0  0  0  0  0  0  0  0
   16.0446  -24.2058    2.3071 C   0  0  0  0  0  0  0  0  0  0  0  0
   16.6518  -25.2291    1.6318 C   0  0  0  0  0  0  0  0  0  0  0  0
   16.0383  -25.6959    0.4932 C   0  0  0  0  0  0  0  0  0  0  0  0
   14.8492  -25.1467    0.0504 C   0  0  0  0  0  0  0  0  0  0  0  0
   13.7471  -21.2356    0.0021 C   0  0  0  0  0  0  0  0  0  0  0  0
   14.9980  -21.0006    0.0049 O   0  0  0  0  0  0  0  0  0  0  0  0
   10.4673  -16.2551   -0.7776 C   0  0  0  0  0  0  0  0  0  0  0  0
   10.1010  -16.5816    0.9643 S   0  0  0  0  0  0  0  0  0  0  0  0
   11.1391  -17.8711    1.6236 C   0  0  0  0  0  0  0  0  0  0  0  0
   12.4412  -18.0988    0.9727 C   0  0  0  0  0  0  0  0  0  0  0  0
   13.3174  -19.1940    1.4484 C   0  0  2  0  0  0  0  0  0  0  0  0
   12.8612  -20.3966    0.7053 N   0  0  0  0  0  0  0  0  0  0  0  0
   13.2307  -19.5661    2.8645 C   0  0  0  0  0  0  0  0  0  0  0  0
   13.7569  -18.7802    3.9114 O   0  0  0  0  0  0  0  0  0  0  0  0
   12.6759  -20.6196    3.2321 O   0  0  0  0  0  0  0  0  0  0  0  0
  2  1  1  0
  3  2  1  0
  3  5  1  0
  3  4  1  6
  5  6  2  0
  7  8  1  0
  7  5  1  0
  8  9  1  1
  9 10  1  0
 10 15  2  0
 11 10  1  0
 11 12  2  0
 12 13  1  0
 13 14  2  0
 15 14  1  0
 16  8  1  0
 16 17  2  0
 19 18  1  0
 19 20  1  0
 20 21  1  0
 22 21  1  1
 22 23  1  0
 22 24  1  0
 23 16  1  0
 24 26  2  0
 24 25  1  0
M  END
$$$$
