SFM.pdb
     RDKit          3D

 26 26  0  0  1  0  0  0  0  0999 V2000
   12.9108  -21.1398    1.8709 O   0  0  0  0  0  0  0  0  0  0  0  0
   14.1031  -21.0308    2.6097 C   0  0  0  0  0  0  0  0  0  0  0  0
   15.2056  -20.5196    1.6868 C   0  0  2  0  0  0  0  0  0  0  0  0
   15.6243  -21.5884    0.8069 N   0  0  0  0  0  0  0  0  0  0  0  0
   16.3392  -20.0889    2.5197 C   0  0  0  0  0  0  0  0  0  0  0  0
   17.2459  -20.8859    2.8506 O   0  0  0  0  0  0  0  0  0  0  0  0
   16.4078  -18.7343    2.9606 N   0  0  0  0  0  0  0  0  0  0  0  0
   17.4667  -18.3347    3.8265 C   0  0  1  0  0  0  0  0  0  0  0  0
   17.8076  -16.8648    3.7156 C   0  0  0  0  0  0  0  0  0  0  0  0
   18.9371  -16.6271    2.7903 C   0  0  0  0  0  0  0  0  0  0  0  0
   19.6596  -17.6955    2.2732 C   0  0  0  0  0  0  0  0  0  0  0  0
   20.7260  -17.4643    1.3985 C   0  0  0  0  0  0  0  0  0  0  0  0
   21.0950  -16.2015    1.0230 C   0  0  0  0  0  0  0  0  0  0  0  0
   20.3776  -15.1470    1.5369 C   0  0  0  0  0  0  0  0  0  0  0  0
   19.3210  -15.3609    2.4026 C   0  0  0  0  0  0  0  0  0  0  0  0
   17.1368  -18.6128    5.2707 C   0  0  0  0  0  0  0  0  0  0  0  0
   15.9513  -18.4711    5.7115 O   0  0  0  0  0  0  0  0  0  0  0  0
   20.3986  -22.6964    6.0040 C   0  0  0  0  0  0  0  0  0  0  0  0
   19.6868  -23.0886    7.6210 S   0  0  0  0  0  0  0  0  0  0  0  0
   18.6296  -21.7801    8.2086 C   0  0  0  0  0  0  0  0  0  0  0  0
   18.9962  -20.3969    7.8574 C   0  0  0  0  0  0  0  0  0  0  0  0
   17.9339  -19.4137    7.5440 C   0  0  2  0  0  0  0  0  0  0  0  0
   18.1717  -19.0346    6.1276 N   0  0  0  0  0  0  0  0  0  0  0  0
   17.9419  -18.1469    8.2833 C   0  0  0  0  0  0  0  0  0  0  0  0
   17.4581  -18.0098    9.6016 O   0  0  0  0  0  0  0  0  0  0  0  0
   18.3856  -17.0972    7.7794 O   0  0  0  0  0  0  0  0  0  0  0  0
  2  1  1  0
  3  2  1  0
  3  5  1  0
  3  4  1  6
  5  6  2  0
  7  8  1  0
  7  5  1  0
  8  9  1  1
  9 10  1  0
 10 15  2  0
 11 10  1  0
 11 12  2  0
 12 13  1  0
 13 14  2  0
 15 14  1  0
 16  8  1  0
 16 17  2  0
 19 18  1  0
 19 20  1  0
 20 21  1  0
 22 21  1  1
 22 23  1  0
 22 24  1  0
 23 16  1  0
 24 26  2  0
 24 25  1  0
M  END
$$$$
