SFM.pdb
     RDKit          3D

 26 26  0  0  1  0  0  0  0  0999 V2000
   28.4452   -6.8086  -20.6492 O   0  0  0  0  0  0  0  0  0  0  0  0
   27.1914   -7.4328  -20.5158 C   0  0  0  0  0  0  0  0  0  0  0  0
   27.3928   -8.8028  -19.8746 C   0  0  2  0  0  0  0  0  0  0  0  0
   27.4706   -9.8077  -20.9119 N   0  0  0  0  0  0  0  0  0  0  0  0
   26.2392   -9.0764  -19.0034 C   0  0  0  0  0  0  0  0  0  0  0  0
   25.2631   -9.7491  -19.4050 O   0  0  0  0  0  0  0  0  0  0  0  0
   26.2318   -8.5645  -17.6723 N   0  0  0  0  0  0  0  0  0  0  0  0
   25.1436   -8.8818  -16.8085 C   0  0  1  0  0  0  0  0  0  0  0  0
   25.5842   -9.3929  -15.4544 C   0  0  0  0  0  0  0  0  0  0  0  0
   26.2914  -10.6884  -15.5553 C   0  0  0  0  0  0  0  0  0  0  0  0
   25.5816  -11.8823  -15.5146 C   0  0  0  0  0  0  0  0  0  0  0  0
   26.2558  -13.1038  -15.6110 C   0  0  0  0  0  0  0  0  0  0  0  0
   27.6154  -13.1726  -15.7467 C   0  0  0  0  0  0  0  0  0  0  0  0
   28.3142  -11.9890  -15.7866 C   0  0  0  0  0  0  0  0  0  0  0  0
   27.6606  -10.7743  -15.6924 C   0  0  0  0  0  0  0  0  0  0  0  0
   24.2568   -7.6861  -16.5717 C   0  0  0  0  0  0  0  0  0  0  0  0
   24.7520   -6.5484  -16.2884 O   0  0  0  0  0  0  0  0  0  0  0  0
   17.5771   -4.7313  -19.2810 C   0  0  0  0  0  0  0  0  0  0  0  0
   18.7487   -6.1043  -19.1497 S   0  0  0  0  0  0  0  0  0  0  0  0
   19.8547   -5.8946  -17.7684 C   0  0  0  0  0  0  0  0  0  0  0  0
   20.9893   -6.8278  -17.6549 C   0  0  0  0  0  0  0  0  0  0  0  0
   21.9066   -6.7296  -16.4962 C   0  0  2  0  0  0  0  0  0  0  0  0
   22.8620   -7.8535  -16.6706 N   0  0  0  0  0  0  0  0  0  0  0  0
   21.3342   -6.9208  -15.1593 C   0  0  0  0  0  0  0  0  0  0  0  0
   20.8502   -5.8641  -14.3594 O   0  0  0  0  0  0  0  0  0  0  0  0
   21.2405   -8.0507  -14.6423 O   0  0  0  0  0  0  0  0  0  0  0  0
  2  1  1  0
  3  2  1  0
  3  5  1  0
  3  4  1  6
  5  6  2  0
  7  8  1  0
  7  5  1  0
  8  9  1  1
  9 10  1  0
 10 15  2  0
 11 10  1  0
 11 12  2  0
 12 13  1  0
 13 14  2  0
 15 14  1  0
 16  8  1  0
 16 17  2  0
 19 18  1  0
 19 20  1  0
 20 21  1  0
 22 21  1  6
 22 23  1  0
 22 24  1  0
 23 16  1  0
 24 26  2  0
 24 25  1  0
M  END
$$$$
