SFM.pdb
     RDKit          3D

 26 26  0  0  1  0  0  0  0  0999 V2000
   26.8518  -22.4896  -19.2440 O   0  0  0  0  0  0  0  0  0  0  0  0
   25.9406  -22.8898  -18.2497 C   0  0  0  0  0  0  0  0  0  0  0  0
   26.7247  -23.4064  -17.0468 C   0  0  2  0  0  0  0  0  0  0  0  0
   26.9583  -24.8251  -17.2038 N   0  0  0  0  0  0  0  0  0  0  0  0
   25.9223  -23.1659  -15.8374 C   0  0  0  0  0  0  0  0  0  0  0  0
   25.0011  -23.9432  -15.5001 O   0  0  0  0  0  0  0  0  0  0  0  0
   26.1988  -22.0225  -15.0311 N   0  0  0  0  0  0  0  0  0  0  0  0
   25.3709  -21.7458  -13.9047 C   0  0  1  0  0  0  0  0  0  0  0  0
   26.0035  -20.7891  -12.9180 C   0  0  0  0  0  0  0  0  0  0  0  0
   25.1992  -20.6555  -11.6836 C   0  0  0  0  0  0  0  0  0  0  0  0
   24.0027  -19.9491  -11.6967 C   0  0  0  0  0  0  0  0  0  0  0  0
   23.2466  -19.8266  -10.5266 C   0  0  0  0  0  0  0  0  0  0  0  0
   23.6458  -20.3862   -9.3437 C   0  0  0  0  0  0  0  0  0  0  0  0
   24.8303  -21.0844   -9.3348 C   0  0  0  0  0  0  0  0  0  0  0  0
   25.5879  -21.2134  -10.4842 C   0  0  0  0  0  0  0  0  0  0  0  0
   24.0483  -21.1544  -14.3206 C   0  0  0  0  0  0  0  0  0  0  0  0
   23.9955  -20.1496  -15.1000 O   0  0  0  0  0  0  0  0  0  0  0  0
   20.1213  -23.7695  -17.9122 C   0  0  0  0  0  0  0  0  0  0  0  0
   19.6340  -22.0321  -17.7745 S   0  0  0  0  0  0  0  0  0  0  0  0
   19.9286  -21.3947  -16.1368 C   0  0  0  0  0  0  0  0  0  0  0  0
   21.2423  -21.6632  -15.5261 C   0  0  0  0  0  0  0  0  0  0  0  0
   21.5163  -21.2049  -14.1446 C   0  0  2  0  0  0  0  0  0  0  0  0
   22.8658  -21.7384  -13.8270 N   0  0  0  0  0  0  0  0  0  0  0  0
   20.6466  -21.7097  -13.0769 C   0  0  0  0  0  0  0  0  0  0  0  0
   20.8191  -22.9662  -12.4587 O   0  0  0  0  0  0  0  0  0  0  0  0
   19.6855  -21.0444  -12.6454 O   0  0  0  0  0  0  0  0  0  0  0  0
  2  1  1  0
  3  2  1  0
  3  5  1  0
  3  4  1  6
  5  6  2  0
  7  8  1  0
  7  5  1  0
  8  9  1  1
  9 10  1  0
 10 15  2  0
 11 10  1  0
 11 12  2  0
 12 13  1  0
 13 14  2  0
 15 14  1  0
 16  8  1  0
 16 17  2  0
 19 18  1  0
 19 20  1  0
 20 21  1  0
 22 21  1  6
 22 23  1  0
 22 24  1  0
 23 16  1  0
 24 26  2  0
 24 25  1  0
M  END
$$$$
