SFM.pdb
     RDKit          3D

 26 26  0  0  1  0  0  0  0  0999 V2000
   26.9364  -20.0719  -16.5200 O   0  0  0  0  0  0  0  0  0  0  0  0
   27.3394  -19.4941  -15.3022 C   0  0  0  0  0  0  0  0  0  0  0  0
   27.7045  -20.6105  -14.3281 C   0  0  2  0  0  0  0  0  0  0  0  0
   28.3455  -21.6852  -15.0535 N   0  0  0  0  0  0  0  0  0  0  0  0
   26.4649  -21.1012  -13.7061 C   0  0  0  0  0  0  0  0  0  0  0  0
   26.0305  -22.2524  -13.9361 O   0  0  0  0  0  0  0  0  0  0  0  0
   25.7413  -20.2477  -12.8218 N   0  0  0  0  0  0  0  0  0  0  0  0
   24.5343  -20.7190  -12.2286 C   0  0  1  0  0  0  0  0  0  0  0  0
   24.1156  -19.9236  -11.0116 C   0  0  0  0  0  0  0  0  0  0  0  0
   25.0677  -20.0848   -9.8909 C   0  0  0  0  0  0  0  0  0  0  0  0
   25.2293  -21.3212   -9.2775 C   0  0  0  0  0  0  0  0  0  0  0  0
   26.1312  -21.4673   -8.2188 C   0  0  0  0  0  0  0  0  0  0  0  0
   26.8772  -20.4197   -7.7521 C   0  0  0  0  0  0  0  0  0  0  0  0
   26.7144  -19.1980   -8.3616 C   0  0  0  0  0  0  0  0  0  0  0  0
   25.8264  -19.0391   -9.4093 C   0  0  0  0  0  0  0  0  0  0  0  0
   23.3867  -20.6855  -13.2052 C   0  0  0  0  0  0  0  0  0  0  0  0
   23.2920  -19.7605  -14.0742 O   0  0  0  0  0  0  0  0  0  0  0  0
   21.1646  -26.2153  -15.3766 C   0  0  0  0  0  0  0  0  0  0  0  0
   19.5754  -25.3513  -15.3219 S   0  0  0  0  0  0  0  0  0  0  0  0
   19.7850  -23.6085  -15.0154 C   0  0  0  0  0  0  0  0  0  0  0  0
   20.9658  -23.1892  -14.2402 C   0  0  0  0  0  0  0  0  0  0  0  0
   21.2368  -21.7471  -14.0393 C   0  0  2  0  0  0  0  0  0  0  0  0
   22.4158  -21.7033  -13.1367 N   0  0  0  0  0  0  0  0  0  0  0  0
   20.2084  -20.9512  -13.3607 C   0  0  0  0  0  0  0  0  0  0  0  0
   19.1311  -20.3340  -14.0308 O   0  0  0  0  0  0  0  0  0  0  0  0
   20.2274  -20.7707  -12.1279 O   0  0  0  0  0  0  0  0  0  0  0  0
  2  1  1  0
  3  2  1  0
  3  5  1  0
  3  4  1  6
  5  6  2  0
  7  8  1  0
  7  5  1  0
  8  9  1  1
  9 10  1  0
 10 15  2  0
 11 10  1  0
 11 12  2  0
 12 13  1  0
 13 14  2  0
 15 14  1  0
 16  8  1  0
 16 17  2  0
 19 18  1  0
 19 20  1  0
 20 21  1  0
 22 21  1  1
 22 23  1  0
 22 24  1  0
 23 16  1  0
 24 26  2  0
 24 25  1  0
M  END
$$$$
