VDC.pdb
     RDKit          3D

 22 21  0  0  1  0  0  0  0  0999 V2000
   21.6224  -13.2988  -20.7542 C   0  0  0  0  0  0  0  0  0  0  0  0
   20.9794  -12.0117  -20.2727 C   0  0  2  0  0  0  0  0  0  0  0  0
   20.8971  -11.0660  -21.4160 C   0  0  0  0  0  0  0  0  0  0  0  0
   21.7961  -11.5142  -19.0979 C   0  0  2  0  0  0  0  0  0  0  0  0
   21.6961  -12.5665  -18.0763 N   0  0  0  0  0  0  0  0  0  0  0  0
   21.2789  -10.2824  -18.4883 C   0  0  0  0  0  0  0  0  0  0  0  0
   21.3077   -9.2069  -19.1295 O   0  0  0  0  0  0  0  0  0  0  0  0
   20.7324  -10.2438  -17.1856 N   0  0  0  0  0  0  0  0  0  0  0  0
   20.1706   -8.9804  -16.6482 C   0  0  1  0  0  0  0  0  0  0  0  0
   18.8862   -9.3201  -15.9159 C   0  0  0  0  0  0  0  0  0  0  0  0
   18.2222   -8.2062  -15.2569 C   0  0  0  0  0  0  0  0  0  0  0  0
   18.1160   -7.0262  -15.6361 O   0  0  0  0  0  0  0  0  0  0  0  0
   21.1539   -8.2652  -15.8334 C   0  0  0  0  0  0  0  0  0  0  0  0
   21.9265   -8.8366  -15.0070 O   0  0  0  0  0  0  0  0  0  0  0  0
   17.6126   -8.4995  -14.0157 O   0  0  0  0  0  0  0  0  0  0  0  0
   21.3273   -6.8470  -15.9041 N   0  0  0  0  0  0  0  0  0  0  0  0
   22.3085   -6.1603  -15.0771 C   0  0  1  0  0  0  0  0  0  0  0  0
   23.0928   -5.1643  -15.9014 C   0  0  0  0  0  0  0  0  0  0  0  0
   23.9798   -5.9702  -17.2585 S   0  0  0  0  0  0  0  0  0  0  0  0
   21.6114   -5.4300  -13.9910 C   0  0  0  0  0  0  0  0  0  0  0  0
   22.3261   -4.8392  -12.9796 O   0  0  0  0  0  0  0  0  0  0  0  0
   20.3503   -5.3268  -13.9572 O   0  0  0  0  0  0  0  0  0  0  0  0
  2  1  1  6
  2  3  1  0
  4  5  1  1
  4  6  1  0
  4  2  1  0
  6  7  2  0
  8  9  1  0
  8  6  1  0
  9 13  1  0
  9 10  1  1
 11 10  1  0
 12 11  2  0
 13 14  2  0
 13 16  1  0
 15 11  1  0
 16 17  1  0
 17 20  1  0
 17 18  1  6
 19 18  1  0
 20 22  2  0
 20 21  1  0
M  END
$$$$
