VDC.pdb
     RDKit          3D

 22 21  0  0  1  0  0  0  0  0999 V2000
   13.0943  -10.6712   -8.7942 C   0  0  0  0  0  0  0  0  0  0  0  0
   12.4128  -10.9834  -10.1132 C   0  0  2  0  0  0  0  0  0  0  0  0
   12.1519  -12.4449  -10.1782 C   0  0  0  0  0  0  0  0  0  0  0  0
   13.3041  -10.4504  -11.2161 C   0  0  2  0  0  0  0  0  0  0  0  0
   14.5158  -11.2819  -11.1781 N   0  0  0  0  0  0  0  0  0  0  0  0
   13.7376   -9.0617  -11.0167 C   0  0  0  0  0  0  0  0  0  0  0  0
   12.8947   -8.1354  -11.0261 O   0  0  0  0  0  0  0  0  0  0  0  0
   15.0884   -8.7042  -10.8049 N   0  0  0  0  0  0  0  0  0  0  0  0
   15.4699   -7.2781  -10.6595 C   0  0  1  0  0  0  0  0  0  0  0  0
   16.2832   -7.1445   -9.3859 C   0  0  0  0  0  0  0  0  0  0  0  0
   16.6594   -5.7887   -9.0169 C   0  0  0  0  0  0  0  0  0  0  0  0
   16.3661   -4.7176   -9.5775 O   0  0  0  0  0  0  0  0  0  0  0  0
   16.1486   -6.7842  -11.8585 C   0  0  0  0  0  0  0  0  0  0  0  0
   17.1743   -7.3352  -12.3594 O   0  0  0  0  0  0  0  0  0  0  0  0
   17.4689   -5.6661   -7.8646 O   0  0  0  0  0  0  0  0  0  0  0  0
   15.7049   -5.6271  -12.5731 N   0  0  0  0  0  0  0  0  0  0  0  0
   16.4229   -5.1336  -13.7391 C   0  0  1  0  0  0  0  0  0  0  0  0
   15.5348   -5.1683  -14.9626 C   0  0  0  0  0  0  0  0  0  0  0  0
   15.1518   -6.8655  -15.4633 S   0  0  0  0  0  0  0  0  0  0  0  0
   16.8440   -3.7320  -13.5004 C   0  0  0  0  0  0  0  0  0  0  0  0
   16.4890   -3.0864  -12.3428 O   0  0  0  0  0  0  0  0  0  0  0  0
   17.5355   -3.0891  -14.3434 O   0  0  0  0  0  0  0  0  0  0  0  0
  2  1  1  1
  2  3  1  0
  4  5  1  1
  4  6  1  0
  4  2  1  0
  6  7  2  0
  8  9  1  0
  8  6  1  0
  9 13  1  0
  9 10  1  1
 11 10  1  0
 12 11  2  0
 13 14  2  0
 13 16  1  0
 15 11  1  0
 16 17  1  0
 17 20  1  0
 17 18  1  6
 19 18  1  0
 20 22  2  0
 20 21  1  0
M  END
$$$$
