VDC.pdb
     RDKit          3D

 22 21  0  0  1  0  0  0  0  0999 V2000
   19.8490  -12.6003  -18.4862 C   0  0  0  0  0  0  0  0  0  0  0  0
   21.2393  -12.2541  -18.9852 C   0  0  2  0  0  0  0  0  0  0  0  0
   21.9538  -13.5154  -19.3120 C   0  0  0  0  0  0  0  0  0  0  0  0
   21.9026  -11.4103  -17.9162 C   0  0  2  0  0  0  0  0  0  0  0  0
   22.1617  -12.3272  -16.7967 N   0  0  0  0  0  0  0  0  0  0  0  0
   21.0541  -10.3324  -17.3923 C   0  0  0  0  0  0  0  0  0  0  0  0
   20.8352   -9.3141  -18.0879 O   0  0  0  0  0  0  0  0  0  0  0  0
   20.4519  -10.3842  -16.1149 N   0  0  0  0  0  0  0  0  0  0  0  0
   19.6249   -9.2513  -15.6322 C   0  0  1  0  0  0  0  0  0  0  0  0
   18.4844   -9.8268  -14.8141 C   0  0  0  0  0  0  0  0  0  0  0  0
   17.3213  -10.2617  -15.5716 C   0  0  0  0  0  0  0  0  0  0  0  0
   17.0427  -10.0478  -16.7650 O   0  0  0  0  0  0  0  0  0  0  0  0
   20.4377   -8.2661  -14.9173 C   0  0  0  0  0  0  0  0  0  0  0  0
   21.5064   -8.5556  -14.3004 O   0  0  0  0  0  0  0  0  0  0  0  0
   16.3754  -11.0333  -14.8589 O   0  0  0  0  0  0  0  0  0  0  0  0
   20.0904   -6.8797  -14.8561 N   0  0  0  0  0  0  0  0  0  0  0  0
   20.9686   -5.9044  -14.2268 C   0  0  1  0  0  0  0  0  0  0  0  0
   22.3197   -5.8913  -14.9059 C   0  0  0  0  0  0  0  0  0  0  0  0
   23.3693   -4.5547  -14.2816 S   0  0  0  0  0  0  0  0  0  0  0  0
   20.3677   -4.5539  -14.3440 C   0  0  0  0  0  0  0  0  0  0  0  0
   20.5007   -3.6426  -13.3268 O   0  0  0  0  0  0  0  0  0  0  0  0
   19.7190   -4.1977  -15.3709 O   0  0  0  0  0  0  0  0  0  0  0  0
  2  1  1  1
  2  3  1  0
  4  5  1  1
  4  6  1  0
  4  2  1  0
  6  7  2  0
  8  9  1  0
  8  6  1  0
  9 13  1  0
  9 10  1  1
 11 10  1  0
 12 11  2  0
 13 14  2  0
 13 16  1  0
 15 11  1  0
 16 17  1  0
 17 20  1  0
 17 18  1  6
 19 18  1  0
 20 22  2  0
 20 21  1  0
M  END
$$$$
