VDC.pdb
     RDKit          3D

 22 21  0  0  1  0  0  0  0  0999 V2000
   19.7398  -11.7694  -16.2986 C   0  0  0  0  0  0  0  0  0  0  0  0
   18.5494  -12.0912  -15.4146 C   0  0  2  0  0  0  0  0  0  0  0  0
   18.3518  -13.5640  -15.4025 C   0  0  0  0  0  0  0  0  0  0  0  0
   17.3710  -11.2993  -15.9428 C   0  0  2  0  0  0  0  0  0  0  0  0
   17.0808  -11.8642  -17.2686 N   0  0  0  0  0  0  0  0  0  0  0  0
   17.6508   -9.8718  -16.1434 C   0  0  0  0  0  0  0  0  0  0  0  0
   18.0240   -9.4588  -17.2654 O   0  0  0  0  0  0  0  0  0  0  0  0
   17.5145   -8.9128  -15.1143 N   0  0  0  0  0  0  0  0  0  0  0  0
   17.9869   -7.5220  -15.3216 C   0  0  1  0  0  0  0  0  0  0  0  0
   16.8035   -6.5959  -15.1142 C   0  0  0  0  0  0  0  0  0  0  0  0
   17.0657   -5.1805  -15.3237 C   0  0  0  0  0  0  0  0  0  0  0  0
   18.0705   -4.6377  -15.8168 O   0  0  0  0  0  0  0  0  0  0  0  0
   19.1403   -7.2199  -14.4727 C   0  0  0  0  0  0  0  0  0  0  0  0
   19.1666   -7.4374  -13.2243 O   0  0  0  0  0  0  0  0  0  0  0  0
   16.0418   -4.2970  -14.9126 O   0  0  0  0  0  0  0  0  0  0  0  0
   20.3470   -6.6494  -14.9874 N   0  0  0  0  0  0  0  0  0  0  0  0
   21.4635   -6.3200  -14.1138 C   0  0  1  0  0  0  0  0  0  0  0  0
   22.7573   -6.8611  -14.6797 C   0  0  0  0  0  0  0  0  0  0  0  0
   22.9189   -8.6418  -14.3951 S   0  0  0  0  0  0  0  0  0  0  0  0
   21.5785   -4.8462  -13.9973 C   0  0  0  0  0  0  0  0  0  0  0  0
   22.2932   -4.2831  -12.9701 O   0  0  0  0  0  0  0  0  0  0  0  0
   21.0294   -4.0651  -14.8283 O   0  0  0  0  0  0  0  0  0  0  0  0
  2  1  1  6
  2  3  1  0
  4  5  1  6
  4  6  1  0
  4  2  1  0
  6  7  2  0
  8  9  1  0
  8  6  1  0
  9 13  1  0
  9 10  1  1
 11 10  1  0
 12 11  2  0
 13 14  2  0
 13 16  1  0
 15 11  1  0
 16 17  1  0
 17 20  1  0
 17 18  1  6
 19 18  1  0
 20 22  2  0
 20 21  1  0
M  END
$$$$
