VDC.pdb
     RDKit          3D

 22 21  0  0  1  0  0  0  0  0999 V2000
   20.7315  -11.3621  -15.3767 C   0  0  0  0  0  0  0  0  0  0  0  0
   19.3341  -11.4416  -15.9624 C   0  0  2  0  0  0  0  0  0  0  0  0
   19.2990  -12.5441  -16.9581 C   0  0  0  0  0  0  0  0  0  0  0  0
   19.0037  -10.0732  -16.5222 C   0  0  2  0  0  0  0  0  0  0  0  0
   19.9154   -9.8836  -17.6597 N   0  0  0  0  0  0  0  0  0  0  0  0
   19.2561   -8.9679  -15.5890 C   0  0  0  0  0  0  0  0  0  0  0  0
   18.5553   -8.8469  -14.5580 O   0  0  0  0  0  0  0  0  0  0  0  0
   20.2756   -8.0109  -15.7935 N   0  0  0  0  0  0  0  0  0  0  0  0
   20.3092   -6.7698  -14.9816 C   0  0  1  0  0  0  0  0  0  0  0  0
   21.7247   -6.5927  -14.4658 C   0  0  0  0  0  0  0  0  0  0  0  0
   21.9586   -5.4046  -13.6599 C   0  0  0  0  0  0  0  0  0  0  0  0
   21.3547   -5.0207  -12.6422 O   0  0  0  0  0  0  0  0  0  0  0  0
   19.7995   -5.6253  -15.7383 C   0  0  0  0  0  0  0  0  0  0  0  0
   20.2569   -5.2724  -16.8665 O   0  0  0  0  0  0  0  0  0  0  0  0
   23.0153   -4.5687  -14.0872 O   0  0  0  0  0  0  0  0  0  0  0  0
   18.7304   -4.8022  -15.2630 N   0  0  0  0  0  0  0  0  0  0  0  0
   18.2207   -3.6900  -16.0514 C   0  0  1  0  0  0  0  0  0  0  0  0
   16.7554   -3.8911  -16.3666 C   0  0  0  0  0  0  0  0  0  0  0  0
   15.8291   -4.4491  -14.9146 S   0  0  0  0  0  0  0  0  0  0  0  0
   18.3699   -2.4319  -15.2809 C   0  0  0  0  0  0  0  0  0  0  0  0
   17.9902   -1.2320  -15.8277 O   0  0  0  0  0  0  0  0  0  0  0  0
   18.8467   -2.4187  -14.1084 O   0  0  0  0  0  0  0  0  0  0  0  0
  2  1  1  6
  2  3  1  0
  4  5  1  6
  4  6  1  0
  4  2  1  0
  6  7  2  0
  8  9  1  0
  8  6  1  0
  9 13  1  0
  9 10  1  6
 11 10  1  0
 12 11  2  0
 13 14  2  0
 13 16  1  0
 15 11  1  0
 16 17  1  0
 17 20  1  0
 17 18  1  1
 19 18  1  0
 20 22  2  0
 20 21  1  0
M  END
$$$$
