VDC.pdb
     RDKit          3D

 22 21  0  0  1  0  0  0  0  0999 V2000
   22.5903  -33.4380  -11.6912 C   0  0  0  0  0  0  0  0  0  0  0  0
   24.0511  -33.1651  -11.9968 C   0  0  2  0  0  0  0  0  0  0  0  0
   24.2224  -33.0953  -13.4713 C   0  0  0  0  0  0  0  0  0  0  0  0
   24.8620  -34.2489  -11.3165 C   0  0  2  0  0  0  0  0  0  0  0  0
   24.4226  -35.5110  -11.9290 N   0  0  0  0  0  0  0  0  0  0  0  0
   24.6108  -34.3684   -9.8747 C   0  0  0  0  0  0  0  0  0  0  0  0
   23.7627  -35.1879   -9.4530 O   0  0  0  0  0  0  0  0  0  0  0  0
   25.2943  -33.5924   -8.9115 N   0  0  0  0  0  0  0  0  0  0  0  0
   24.9959  -33.7603   -7.4682 C   0  0  1  0  0  0  0  0  0  0  0  0
   26.2290  -33.3428   -6.6893 C   0  0  0  0  0  0  0  0  0  0  0  0
   26.2146  -33.6573   -5.2692 C   0  0  0  0  0  0  0  0  0  0  0  0
   25.3054  -34.1703   -4.5928 O   0  0  0  0  0  0  0  0  0  0  0  0
   23.7772  -33.0433   -7.0901 C   0  0  0  0  0  0  0  0  0  0  0  0
   23.6436  -31.7871   -7.1931 O   0  0  0  0  0  0  0  0  0  0  0  0
   27.3925  -33.3384   -4.5558 O   0  0  0  0  0  0  0  0  0  0  0  0
   22.6228  -33.7083   -6.5690 N   0  0  0  0  0  0  0  0  0  0  0  0
   21.4024  -32.9786   -6.2581 C   0  0  1  0  0  0  0  0  0  0  0  0
   20.1927  -33.7225   -6.7779 C   0  0  0  0  0  0  0  0  0  0  0  0
   18.6480  -32.9533   -6.2301 S   0  0  0  0  0  0  0  0  0  0  0  0
   21.2747  -32.8380   -4.7875 C   0  0  0  0  0  0  0  0  0  0  0  0
   20.2884  -32.0519   -4.2468 O   0  0  0  0  0  0  0  0  0  0  0  0
   22.0594  -33.4284   -3.9889 O   0  0  0  0  0  0  0  0  0  0  0  0
  2  1  1  6
  2  3  1  0
  4  5  1  6
  4  6  1  0
  4  2  1  0
  6  7  2  0
  8  9  1  0
  8  6  1  0
  9 13  1  0
  9 10  1  1
 11 10  1  0
 12 11  2  0
 13 14  2  0
 13 16  1  0
 15 11  1  0
 16 17  1  0
 17 20  1  0
 17 18  1  1
 19 18  1  0
 20 22  2  0
 20 21  1  0
M  END
$$$$
