VDC.pdb
     RDKit          3D

 22 21  0  0  1  0  0  0  0  0999 V2000
   17.5851  -12.1719  -17.5744 C   0  0  0  0  0  0  0  0  0  0  0  0
   18.9367  -12.6492  -18.0716 C   0  0  2  0  0  0  0  0  0  0  0  0
   18.9426  -14.1351  -18.0768 C   0  0  0  0  0  0  0  0  0  0  0  0
   19.9899  -12.0157  -17.1859 C   0  0  2  0  0  0  0  0  0  0  0  0
   20.0075  -12.8231  -15.9576 N   0  0  0  0  0  0  0  0  0  0  0  0
   19.6824  -10.6378  -16.7820 C   0  0  0  0  0  0  0  0  0  0  0  0
   19.7032   -9.7173  -17.6311 O   0  0  0  0  0  0  0  0  0  0  0  0
   19.3516  -10.2850  -15.4542 N   0  0  0  0  0  0  0  0  0  0  0  0
   19.0471   -8.8746  -15.1096 C   0  0  1  0  0  0  0  0  0  0  0  0
   17.7943   -8.8677  -14.2541 C   0  0  0  0  0  0  0  0  0  0  0  0
   16.5507   -9.1495  -14.9541 C   0  0  0  0  0  0  0  0  0  0  0  0
   16.2307   -8.8642  -16.1218 O   0  0  0  0  0  0  0  0  0  0  0  0
   20.1992   -8.2177  -14.4904 C   0  0  0  0  0  0  0  0  0  0  0  0
   20.7638   -8.6407  -13.4375 O   0  0  0  0  0  0  0  0  0  0  0  0
   15.5685   -9.8421  -14.2101 O   0  0  0  0  0  0  0  0  0  0  0  0
   20.7908   -7.0318  -15.0291 N   0  0  0  0  0  0  0  0  0  0  0  0
   21.9679   -6.4280  -14.4222 C   0  0  1  0  0  0  0  0  0  0  0  0
   23.0714   -6.2732  -15.4445 C   0  0  0  0  0  0  0  0  0  0  0  0
   23.4797   -7.8514  -16.2322 S   0  0  0  0  0  0  0  0  0  0  0  0
   21.6173   -5.0858  -13.8984 C   0  0  0  0  0  0  0  0  0  0  0  0
   22.3527   -4.5194  -12.8878 O   0  0  0  0  0  0  0  0  0  0  0  0
   20.6410   -4.4234  -14.3570 O   0  0  0  0  0  0  0  0  0  0  0  0
  2  1  1  1
  2  3  1  0
  4  5  1  1
  4  6  1  0
  4  2  1  0
  6  7  2  0
  8  9  1  0
  8  6  1  0
  9 13  1  0
  9 10  1  1
 11 10  1  0
 12 11  2  0
 13 14  2  0
 13 16  1  0
 15 11  1  0
 16 17  1  0
 17 20  1  0
 17 18  1  6
 19 18  1  0
 20 22  2  0
 20 21  1  0
M  END
$$$$
