VDC.pdb
     RDKit          3D

 22 21  0  0  1  0  0  0  0  0999 V2000
   22.6918  -14.2155  -17.6865 C   0  0  0  0  0  0  0  0  0  0  0  0
   23.3447  -12.8846  -17.3638 C   0  0  2  0  0  0  0  0  0  0  0  0
   24.4252  -13.1148  -16.3699 C   0  0  0  0  0  0  0  0  0  0  0  0
   22.2483  -11.9475  -16.9003 C   0  0  2  0  0  0  0  0  0  0  0  0
   21.2039  -12.0243  -17.9321 N   0  0  0  0  0  0  0  0  0  0  0  0
   22.6589  -10.5401  -16.8181 C   0  0  0  0  0  0  0  0  0  0  0  0
   23.5155  -10.1863  -15.9756 O   0  0  0  0  0  0  0  0  0  0  0  0
   22.1300   -9.5377  -17.6623 N   0  0  0  0  0  0  0  0  0  0  0  0
   22.5430   -8.1231  -17.4921 C   0  0  1  0  0  0  0  0  0  0  0  0
   22.6992   -7.5174  -18.8741 C   0  0  0  0  0  0  0  0  0  0  0  0
   23.0897   -6.1166  -18.9086 C   0  0  0  0  0  0  0  0  0  0  0  0
   23.3288   -5.3496  -17.9588 O   0  0  0  0  0  0  0  0  0  0  0  0
   21.6151   -7.3992  -16.6219 C   0  0  0  0  0  0  0  0  0  0  0  0
   20.3593   -7.3873  -16.7935 O   0  0  0  0  0  0  0  0  0  0  0  0
   23.2163   -5.5440  -20.1947 O   0  0  0  0  0  0  0  0  0  0  0  0
   22.0531   -6.6382  -15.4926 N   0  0  0  0  0  0  0  0  0  0  0  0
   21.1110   -5.9048  -14.6601 C   0  0  1  0  0  0  0  0  0  0  0  0
   20.4560   -6.8299  -13.6591 C   0  0  0  0  0  0  0  0  0  0  0  0
   21.6781   -7.6356  -12.5935 S   0  0  0  0  0  0  0  0  0  0  0  0
   21.8328   -4.8421  -13.9196 C   0  0  0  0  0  0  0  0  0  0  0  0
   21.1599   -4.0181  -13.0529 O   0  0  0  0  0  0  0  0  0  0  0  0
   23.0775   -4.6583  -14.0581 O   0  0  0  0  0  0  0  0  0  0  0  0
  2  1  1  1
  2  3  1  0
  4  5  1  6
  4  6  1  0
  4  2  1  0
  6  7  2  0
  8  9  1  0
  8  6  1  0
  9 13  1  0
  9 10  1  6
 11 10  1  0
 12 11  2  0
 13 14  2  0
 13 16  1  0
 15 11  1  0
 16 17  1  0
 17 20  1  0
 17 18  1  1
 19 18  1  0
 20 22  2  0
 20 21  1  0
M  END
$$$$
