MYL.pdb
     RDKit          3D

 29 29  0  0  1  0  0  0  0  0999 V2000
   20.5234  -16.3990  -22.0536 C   0  0  0  0  0  0  0  0  0  0  0  0
   20.6559  -15.2998  -20.6459 S   0  0  0  0  0  0  0  0  0  0  0  0
   22.3405  -14.7950  -20.2884 C   0  0  0  0  0  0  0  0  0  0  0  0
   22.4424  -13.9754  -19.0226 C   0  0  0  0  0  0  0  0  0  0  0  0
   23.8058  -13.4361  -18.7763 C   0  0  2  0  0  0  0  0  0  0  0  0
   24.7000  -14.5331  -18.4611 N   0  0  0  0  0  0  0  0  0  0  0  0
   23.8712  -12.4319  -17.6972 C   0  0  0  0  0  0  0  0  0  0  0  0
   23.9612  -12.8030  -16.4878 O   0  0  0  0  0  0  0  0  0  0  0  0
   30.1575  -11.6552  -17.4647 O   0  0  0  0  0  0  0  0  0  0  0  0
   28.9098  -11.0467  -17.4202 C   0  0  0  0  0  0  0  0  0  0  0  0
   28.1706  -10.8134  -18.5639 C   0  0  0  0  0  0  0  0  0  0  0  0
   26.9244  -10.2010  -18.4760 C   0  0  0  0  0  0  0  0  0  0  0  0
   26.4017   -9.8173  -17.2696 C   0  0  0  0  0  0  0  0  0  0  0  0
   25.1039   -9.1750  -17.1785 C   0  0  0  0  0  0  0  0  0  0  0  0
   23.9389  -10.0401  -16.8442 C   0  0  2  0  0  0  0  0  0  0  0  0
   23.8405  -11.0307  -17.9076 N   0  0  0  0  0  0  0  0  0  0  0  0
   22.7078   -9.2347  -16.7296 C   0  0  0  0  0  0  0  0  0  0  0  0
   21.9061   -9.1745  -17.6962 O   0  0  0  0  0  0  0  0  0  0  0  0
   27.1404  -10.0507  -16.1309 C   0  0  0  0  0  0  0  0  0  0  0  0
   28.3969  -10.6660  -16.1995 C   0  0  0  0  0  0  0  0  0  0  0  0
   18.1514   -7.1209  -16.4854 C   0  0  0  0  0  0  0  0  0  0  0  0
   18.5607   -8.1473  -15.4820 C   0  0  1  0  0  0  0  0  0  0  0  0
   17.5395   -9.2873  -15.5898 C   0  0  0  0  0  0  0  0  0  0  0  0
   19.9219   -8.7432  -15.6936 C   0  0  0  0  0  0  0  0  0  0  0  0
   21.0702   -7.8301  -15.4141 C   0  0  2  0  0  0  0  0  0  0  0  0
   22.3554   -8.5008  -15.5683 N   0  0  0  0  0  0  0  0  0  0  0  0
   21.0486   -7.1873  -14.0864 C   0  0  0  0  0  0  0  0  0  0  0  0
   20.2602   -6.0740  -13.8367 O   0  0  0  0  0  0  0  0  0  0  0  0
   21.7376   -7.6149  -13.1256 O   0  0  0  0  0  0  0  0  0  0  0  0
  2  1  1  0
  3  2  1  0
  4  3  1  0
  4  5  1  0
  5  6  1  1
  7  5  1  0
  7  8  2  0
  9 10  1  0
 10 20  2  0
 10 11  1  0
 11 12  2  0
 12 13  1  0
 13 14  1  0
 15 14  1  6
 15 16  1  0
 16  7  1  0
 17 15  1  0
 18 17  2  0
 19 13  2  0
 20 19  1  0
 22 21  1  6
 22 24  1  0
 23 22  1  0
 25 24  1  1
 25 26  1  0
 25 27  1  0
 26 17  1  0
 27 28  1  0
 29 27  2  0
M  END
$$$$
