MYL.pdb
     RDKit          3D

 29 29  0  0  1  0  0  0  0  0999 V2000
   30.7151  -41.0068   -1.4965 C   0  0  0  0  0  0  0  0  0  0  0  0
   32.2697  -40.4961   -2.2242 S   0  0  0  0  0  0  0  0  0  0  0  0
   32.1098  -39.9032   -3.9105 C   0  0  0  0  0  0  0  0  0  0  0  0
   31.5312  -38.5087   -3.9809 C   0  0  0  0  0  0  0  0  0  0  0  0
   31.2530  -38.0540   -5.3687 C   0  0  2  0  0  0  0  0  0  0  0  0
   32.5095  -37.8702   -6.0685 N   0  0  0  0  0  0  0  0  0  0  0  0
   30.4668  -36.8079   -5.4488 C   0  0  0  0  0  0  0  0  0  0  0  0
   31.0533  -35.6951   -5.6104 O   0  0  0  0  0  0  0  0  0  0  0  0
   24.4600  -31.2094   -8.4161 O   0  0  0  0  0  0  0  0  0  0  0  0
   25.2792  -32.2701   -8.0514 C   0  0  0  0  0  0  0  0  0  0  0  0
   26.5878  -32.3638   -8.4848 C   0  0  0  0  0  0  0  0  0  0  0  0
   27.3755  -33.4429   -8.0963 C   0  0  0  0  0  0  0  0  0  0  0  0
   26.8830  -34.4296   -7.2842 C   0  0  0  0  0  0  0  0  0  0  0  0
   27.7032  -35.5571   -6.8825 C   0  0  0  0  0  0  0  0  0  0  0  0
   28.2737  -35.5273   -5.5073 C   0  0  2  0  0  0  0  0  0  0  0  0
   29.0537  -36.7482   -5.3564 N   0  0  0  0  0  0  0  0  0  0  0  0
   27.1997  -35.4349   -4.4996 C   0  0  0  0  0  0  0  0  0  0  0  0
   26.4678  -36.4312   -4.2707 O   0  0  0  0  0  0  0  0  0  0  0  0
   25.5783  -34.3342   -6.8536 C   0  0  0  0  0  0  0  0  0  0  0  0
   24.7700  -33.2553   -7.2341 C   0  0  0  0  0  0  0  0  0  0  0  0
   27.6275  -34.5439    0.6220 C   0  0  0  0  0  0  0  0  0  0  0  0
   27.0789  -34.9148   -0.7156 C   0  0  1  0  0  0  0  0  0  0  0  0
   26.1092  -36.0794   -0.4764 C   0  0  0  0  0  0  0  0  0  0  0  0
   26.3137  -33.8310   -1.4174 C   0  0  0  0  0  0  0  0  0  0  0  0
   25.8329  -34.1732   -2.7893 C   0  0  2  0  0  0  0  0  0  0  0  0
   26.9273  -34.2633   -3.7482 N   0  0  0  0  0  0  0  0  0  0  0  0
   24.8175  -33.2569   -3.3421 C   0  0  0  0  0  0  0  0  0  0  0  0
   25.0452  -32.5497   -4.5131 O   0  0  0  0  0  0  0  0  0  0  0  0
   23.7060  -33.0753   -2.7831 O   0  0  0  0  0  0  0  0  0  0  0  0
  2  1  1  0
  3  2  1  0
  4  3  1  0
  4  5  1  0
  5  6  1  1
  7  5  1  0
  7  8  2  0
  9 10  1  0
 10 20  2  0
 10 11  1  0
 11 12  2  0
 12 13  1  0
 13 14  1  0
 15 14  1  6
 15 16  1  0
 16  7  1  0
 17 15  1  0
 18 17  2  0
 19 13  2  0
 20 19  1  0
 22 21  1  1
 22 24  1  0
 23 22  1  0
 25 24  1  1
 25 26  1  0
 25 27  1  0
 26 17  1  0
 27 28  1  0
 29 27  2  0
M  END
$$$$
