MYL.pdb
     RDKit          3D

 29 29  0  0  1  0  0  0  0  0999 V2000
   27.7407  -21.0408   -9.2941 C   0  0  0  0  0  0  0  0  0  0  0  0
   29.1907  -21.4650  -10.2557 S   0  0  0  0  0  0  0  0  0  0  0  0
   28.9446  -21.3121  -12.0267 C   0  0  0  0  0  0  0  0  0  0  0  0
   27.6987  -20.5292  -12.3721 C   0  0  0  0  0  0  0  0  0  0  0  0
   27.3681  -20.5543  -13.8213 C   0  0  2  0  0  0  0  0  0  0  0  0
   28.4693  -19.9791  -14.5691 N   0  0  0  0  0  0  0  0  0  0  0  0
   26.1227  -19.8430  -14.1682 C   0  0  0  0  0  0  0  0  0  0  0  0
   26.1151  -18.5775  -14.2509 O   0  0  0  0  0  0  0  0  0  0  0  0
   27.1825  -15.9696  -18.7472 O   0  0  0  0  0  0  0  0  0  0  0  0
   26.3583  -16.9281  -18.1719 C   0  0  0  0  0  0  0  0  0  0  0  0
   26.6734  -18.2730  -18.1997 C   0  0  0  0  0  0  0  0  0  0  0  0
   25.8204  -19.2015  -17.6113 C   0  0  0  0  0  0  0  0  0  0  0  0
   24.6598  -18.8141  -16.9960 C   0  0  0  0  0  0  0  0  0  0  0  0
   23.7683  -19.7828  -16.3860 C   0  0  0  0  0  0  0  0  0  0  0  0
   23.6904  -19.7934  -14.8990 C   0  0  2  0  0  0  0  0  0  0  0  0
   24.8842  -20.4816  -14.4270 N   0  0  0  0  0  0  0  0  0  0  0  0
   22.4562  -20.4639  -14.4468 C   0  0  0  0  0  0  0  0  0  0  0  0
   22.3452  -21.7115  -14.5548 O   0  0  0  0  0  0  0  0  0  0  0  0
   24.3477  -17.4729  -16.9696 C   0  0  0  0  0  0  0  0  0  0  0  0
   25.1940  -16.5235  -17.5565 C   0  0  0  0  0  0  0  0  0  0  0  0
   19.8486  -19.5489   -9.6533 C   0  0  0  0  0  0  0  0  0  0  0  0
   20.4056  -20.1323  -10.9091 C   0  0  1  0  0  0  0  0  0  0  0  0
   20.4123  -21.6538  -10.7121 C   0  0  0  0  0  0  0  0  0  0  0  0
   19.6176  -19.8447  -12.1538 C   0  0  0  0  0  0  0  0  0  0  0  0
   20.1536  -20.4576  -13.4058 C   0  0  2  0  0  0  0  0  0  0  0  0
   21.3519  -19.7767  -13.8811 N   0  0  0  0  0  0  0  0  0  0  0  0
   19.1962  -20.5292  -14.5259 C   0  0  0  0  0  0  0  0  0  0  0  0
   18.2509  -21.5409  -14.6032 O   0  0  0  0  0  0  0  0  0  0  0  0
   19.1912  -19.6831  -15.4560 O   0  0  0  0  0  0  0  0  0  0  0  0
  2  1  1  0
  3  2  1  0
  4  3  1  0
  4  5  1  0
  5  6  1  6
  7  5  1  0
  7  8  2  0
  9 10  1  0
 10 20  2  0
 10 11  1  0
 11 12  2  0
 12 13  1  0
 13 14  1  0
 15 14  1  6
 15 16  1  0
 16  7  1  0
 17 15  1  0
 18 17  2  0
 19 13  2  0
 20 19  1  0
 22 21  1  1
 22 24  1  0
 23 22  1  0
 25 24  1  1
 25 26  1  0
 25 27  1  0
 26 17  1  0
 27 28  1  0
 29 27  2  0
M  END
$$$$
