MYL.pdb
     RDKit          3D

 29 29  0  0  1  0  0  0  0  0999 V2000
   18.3511  -19.1198  -13.4853 C   0  0  0  0  0  0  0  0  0  0  0  0
   19.9083  -19.9996  -13.5777 S   0  0  0  0  0  0  0  0  0  0  0  0
   20.2773  -20.9574  -12.1057 C   0  0  0  0  0  0  0  0  0  0  0  0
   21.6099  -21.6651  -12.1951 C   0  0  0  0  0  0  0  0  0  0  0  0
   22.7366  -20.7607  -12.5455 C   0  0  2  0  0  0  0  0  0  0  0  0
   22.8960  -20.7378  -13.9865 N   0  0  0  0  0  0  0  0  0  0  0  0
   24.0219  -21.1289  -11.9213 C   0  0  0  0  0  0  0  0  0  0  0  0
   24.5002  -22.2916  -12.0887 O   0  0  0  0  0  0  0  0  0  0  0  0
   28.4061  -20.0940  -16.5856 O   0  0  0  0  0  0  0  0  0  0  0  0
   28.0846  -19.9981  -15.2378 C   0  0  0  0  0  0  0  0  0  0  0  0
   28.2612  -21.0573  -14.3685 C   0  0  0  0  0  0  0  0  0  0  0  0
   27.9265  -20.9200  -13.0250 C   0  0  0  0  0  0  0  0  0  0  0  0
   27.4196  -19.7470  -12.5325 C   0  0  0  0  0  0  0  0  0  0  0  0
   27.0668  -19.6052  -11.1322 C   0  0  0  0  0  0  0  0  0  0  0  0
   26.1051  -20.5933  -10.5698 C   0  0  2  0  0  0  0  0  0  0  0  0
   24.7981  -20.2568  -11.1178 N   0  0  0  0  0  0  0  0  0  0  0  0
   26.1103  -20.5441   -9.0950 C   0  0  0  0  0  0  0  0  0  0  0  0
   25.1346  -20.0423   -8.4812 O   0  0  0  0  0  0  0  0  0  0  0  0
   27.2443  -18.6926  -13.4010 C   0  0  0  0  0  0  0  0  0  0  0  0
   27.5755  -18.8118  -14.7567 C   0  0  0  0  0  0  0  0  0  0  0  0
   28.3032  -21.3582   -3.9326 C   0  0  0  0  0  0  0  0  0  0  0  0
   29.0307  -20.6051   -4.9962 C   0  0  1  0  0  0  0  0  0  0  0  0
   30.5253  -20.8547   -4.7561 C   0  0  0  0  0  0  0  0  0  0  0  0
   28.7258  -21.0281   -6.4035 C   0  0  0  0  0  0  0  0  0  0  0  0
   27.3753  -20.6401   -6.9096 C   0  0  2  0  0  0  0  0  0  0  0  0
   27.1733  -21.0392   -8.2971 N   0  0  0  0  0  0  0  0  0  0  0  0
   27.0548  -19.2044   -6.7976 C   0  0  0  0  0  0  0  0  0  0  0  0
   26.3243  -18.7097   -5.7278 O   0  0  0  0  0  0  0  0  0  0  0  0
   27.4263  -18.3676   -7.6593 O   0  0  0  0  0  0  0  0  0  0  0  0
  2  1  1  0
  3  2  1  0
  4  3  1  0
  4  5  1  0
  5  6  1  6
  7  5  1  0
  7  8  2  0
  9 10  1  0
 10 20  2  0
 10 11  1  0
 11 12  2  0
 12 13  1  0
 13 14  1  0
 15 14  1  6
 15 16  1  0
 16  7  1  0
 17 15  1  0
 18 17  2  0
 19 13  2  0
 20 19  1  0
 22 21  1  1
 22 24  1  0
 23 22  1  0
 25 24  1  6
 25 26  1  0
 25 27  1  0
 26 17  1  0
 27 28  1  0
 29 27  2  0
M  END
$$$$
