MYL.pdb
     RDKit          3D

 29 29  0  0  1  0  0  0  0  0999 V2000
   28.7446  -23.1224  -15.9394 C   0  0  0  0  0  0  0  0  0  0  0  0
   28.5086  -22.4588  -17.5860 S   0  0  0  0  0  0  0  0  0  0  0  0
   28.9621  -20.7287  -17.7320 C   0  0  0  0  0  0  0  0  0  0  0  0
   28.1937  -19.8466  -16.7749 C   0  0  0  0  0  0  0  0  0  0  0  0
   26.7221  -19.8923  -16.9814 C   0  0  2  0  0  0  0  0  0  0  0  0
   26.3619  -18.9628  -18.0343 N   0  0  0  0  0  0  0  0  0  0  0  0
   25.9337  -19.5848  -15.7727 C   0  0  0  0  0  0  0  0  0  0  0  0
   25.8993  -18.4005  -15.3200 O   0  0  0  0  0  0  0  0  0  0  0  0
   20.1193  -16.7310  -17.0748 O   0  0  0  0  0  0  0  0  0  0  0  0
   20.8409  -17.6823  -16.3652 C   0  0  0  0  0  0  0  0  0  0  0  0
   21.5198  -18.7053  -16.9989 C   0  0  0  0  0  0  0  0  0  0  0  0
   22.2312  -19.6383  -16.2510 C   0  0  0  0  0  0  0  0  0  0  0  0
   22.2783  -19.5702  -14.8840 C   0  0  0  0  0  0  0  0  0  0  0  0
   23.0168  -20.5456  -14.1040 C   0  0  0  0  0  0  0  0  0  0  0  0
   24.4482  -20.2477  -13.8215 C   0  0  2  0  0  0  0  0  0  0  0  0
   25.1812  -20.5408  -15.0457 N   0  0  0  0  0  0  0  0  0  0  0  0
   24.9339  -21.0541  -12.6853 C   0  0  0  0  0  0  0  0  0  0  0  0
   25.1214  -22.2891  -12.8281 O   0  0  0  0  0  0  0  0  0  0  0  0
   21.6007  -18.5498  -14.2545 C   0  0  0  0  0  0  0  0  0  0  0  0
   20.8792  -17.6012  -14.9905 C   0  0  0  0  0  0  0  0  0  0  0  0
   28.2659  -19.6133   -8.0658 C   0  0  0  0  0  0  0  0  0  0  0  0
   26.9199  -20.0022   -8.5803 C   0  0  1  0  0  0  0  0  0  0  0  0
   26.2634  -18.7124   -9.0895 C   0  0  0  0  0  0  0  0  0  0  0  0
   26.9270  -20.9812   -9.7179 C   0  0  0  0  0  0  0  0  0  0  0  0
   25.5828  -21.3414  -10.2600 C   0  0  2  0  0  0  0  0  0  0  0  0
   25.2124  -20.5157  -11.4031 N   0  0  0  0  0  0  0  0  0  0  0  0
   24.4795  -21.2864   -9.2822 C   0  0  0  0  0  0  0  0  0  0  0  0
   24.4506  -22.1265   -8.1793 O   0  0  0  0  0  0  0  0  0  0  0  0
   23.5209  -20.4814   -9.4008 O   0  0  0  0  0  0  0  0  0  0  0  0
  2  1  1  0
  3  2  1  0
  4  3  1  0
  4  5  1  0
  5  6  1  6
  7  5  1  0
  7  8  2  0
  9 10  1  0
 10 20  2  0
 10 11  1  0
 11 12  2  0
 12 13  1  0
 13 14  1  0
 15 14  1  6
 15 16  1  0
 16  7  1  0
 17 15  1  0
 18 17  2  0
 19 13  2  0
 20 19  1  0
 22 21  1  6
 22 24  1  0
 23 22  1  0
 25 24  1  1
 25 26  1  0
 25 27  1  0
 26 17  1  0
 27 28  1  0
 29 27  2  0
M  END
$$$$
