MYL.pdb
     RDKit          3D

 29 29  0  0  1  0  0  0  0  0999 V2000
   32.5192  -22.1627  -10.9957 C   0  0  0  0  0  0  0  0  0  0  0  0
   32.4443  -22.6357  -12.7214 S   0  0  0  0  0  0  0  0  0  0  0  0
   30.9343  -22.1168  -13.5406 C   0  0  0  0  0  0  0  0  0  0  0  0
   29.9913  -21.3903  -12.6093 C   0  0  0  0  0  0  0  0  0  0  0  0
   28.7767  -20.8674  -13.2885 C   0  0  2  0  0  0  0  0  0  0  0  0
   29.1664  -19.8345  -14.2286 N   0  0  0  0  0  0  0  0  0  0  0  0
   27.7573  -20.3264  -12.3691 C   0  0  0  0  0  0  0  0  0  0  0  0
   27.7280  -19.0849  -12.1114 O   0  0  0  0  0  0  0  0  0  0  0  0
   21.7996  -19.0221  -15.5066 O   0  0  0  0  0  0  0  0  0  0  0  0
   22.4537  -19.5357  -14.3942 C   0  0  0  0  0  0  0  0  0  0  0  0
   22.2592  -19.0159  -13.1289 C   0  0  0  0  0  0  0  0  0  0  0  0
   22.9340  -19.5595  -12.0403 C   0  0  0  0  0  0  0  0  0  0  0  0
   23.7985  -20.6112  -12.1898 C   0  0  0  0  0  0  0  0  0  0  0  0
   24.5054  -21.1754  -11.0552 C   0  0  0  0  0  0  0  0  0  0  0  0
   25.8376  -20.5963  -10.7275 C   0  0  2  0  0  0  0  0  0  0  0  0
   26.7682  -21.1098  -11.7235 N   0  0  0  0  0  0  0  0  0  0  0  0
   26.2429  -20.9644   -9.3573 C   0  0  0  0  0  0  0  0  0  0  0  0
   26.3489  -22.1762   -9.0393 O   0  0  0  0  0  0  0  0  0  0  0  0
   23.9909  -21.1275  -13.4520 C   0  0  0  0  0  0  0  0  0  0  0  0
   23.3205  -20.5936  -14.5599 C   0  0  0  0  0  0  0  0  0  0  0  0
   28.8864  -20.5279   -4.5080 C   0  0  0  0  0  0  0  0  0  0  0  0
   27.7940  -19.5474   -4.7780 C   0  0  1  0  0  0  0  0  0  0  0  0
   28.2348  -18.2237   -4.1395 C   0  0  0  0  0  0  0  0  0  0  0  0
   27.5202  -19.2763   -6.2286 C   0  0  0  0  0  0  0  0  0  0  0  0
   26.8750  -20.3957   -6.9777 C   0  0  2  0  0  0  0  0  0  0  0  0
   26.5299  -20.0162   -8.3423 N   0  0  0  0  0  0  0  0  0  0  0  0
   25.6683  -20.9587   -6.3427 C   0  0  0  0  0  0  0  0  0  0  0  0
   24.4026  -20.7107   -6.8523 O   0  0  0  0  0  0  0  0  0  0  0  0
   25.7292  -21.6848   -5.3180 O   0  0  0  0  0  0  0  0  0  0  0  0
  2  1  1  0
  3  2  1  0
  4  3  1  0
  4  5  1  0
  5  6  1  6
  7  5  1  0
  7  8  2  0
  9 10  1  0
 10 20  2  0
 10 11  1  0
 11 12  2  0
 12 13  1  0
 13 14  1  0
 15 14  1  6
 15 16  1  0
 16  7  1  0
 17 15  1  0
 18 17  2  0
 19 13  2  0
 20 19  1  0
 22 21  1  6
 22 24  1  0
 23 22  1  0
 25 24  1  1
 25 26  1  0
 25 27  1  0
 26 17  1  0
 27 28  1  0
 29 27  2  0
M  END
$$$$
