MYL.pdb
     RDKit          3D

 29 29  0  0  1  0  0  0  0  0999 V2000
   29.6785  -16.3540  -16.6289 C   0  0  0  0  0  0  0  0  0  0  0  0
   28.6041  -17.4876  -17.5051 S   0  0  0  0  0  0  0  0  0  0  0  0
   28.2097  -18.9673  -16.5695 C   0  0  0  0  0  0  0  0  0  0  0  0
   27.7957  -18.6601  -15.1487 C   0  0  0  0  0  0  0  0  0  0  0  0
   28.0887  -19.7635  -14.1964 C   0  0  2  0  0  0  0  0  0  0  0  0
   27.7331  -21.0276  -14.8112 N   0  0  0  0  0  0  0  0  0  0  0  0
   27.3936  -19.6422  -12.9005 C   0  0  0  0  0  0  0  0  0  0  0  0
   27.4206  -18.5452  -12.2646 O   0  0  0  0  0  0  0  0  0  0  0  0
   20.6063  -19.6959  -14.7623 O   0  0  0  0  0  0  0  0  0  0  0  0
   21.5956  -20.1104  -13.8799 C   0  0  0  0  0  0  0  0  0  0  0  0
   21.5766  -19.7574  -12.5443 C   0  0  0  0  0  0  0  0  0  0  0  0
   22.5871  -20.1938  -11.6932 C   0  0  0  0  0  0  0  0  0  0  0  0
   23.6155  -20.9751  -12.1488 C   0  0  0  0  0  0  0  0  0  0  0  0
   24.6714  -21.4267  -11.2620 C   0  0  0  0  0  0  0  0  0  0  0  0
   25.8465  -20.5281  -11.0909 C   0  0  2  0  0  0  0  0  0  0  0  0
   26.6692  -20.6916  -12.2818 N   0  0  0  0  0  0  0  0  0  0  0  0
   26.5880  -20.8685   -9.8615 C   0  0  0  0  0  0  0  0  0  0  0  0
   27.4538  -21.7799   -9.8838 O   0  0  0  0  0  0  0  0  0  0  0  0
   23.6324  -21.3256  -13.4806 C   0  0  0  0  0  0  0  0  0  0  0  0
   22.6240  -20.8959  -14.3526 C   0  0  0  0  0  0  0  0  0  0  0  0
   29.7747  -20.6442   -5.5305 C   0  0  0  0  0  0  0  0  0  0  0  0
   28.5588  -19.7785   -5.5207 C   0  0  1  0  0  0  0  0  0  0  0  0
   28.9975  -18.4250   -4.9467 C   0  0  0  0  0  0  0  0  0  0  0  0
   27.9468  -19.5179   -6.8662 C   0  0  0  0  0  0  0  0  0  0  0  0
   27.0776  -20.6108   -7.3958 C   0  0  2  0  0  0  0  0  0  0  0  0
   26.3852  -20.2185   -8.6173 N   0  0  0  0  0  0  0  0  0  0  0  0
   26.0713  -21.1241   -6.4470 C   0  0  0  0  0  0  0  0  0  0  0  0
   24.7216  -21.1393   -6.7650 O   0  0  0  0  0  0  0  0  0  0  0  0
   26.3868  -21.5693   -5.3142 O   0  0  0  0  0  0  0  0  0  0  0  0
  2  1  1  0
  3  2  1  0
  4  3  1  0
  4  5  1  0
  5  6  1  6
  7  5  1  0
  7  8  2  0
  9 10  1  0
 10 20  2  0
 10 11  1  0
 11 12  2  0
 12 13  1  0
 13 14  1  0
 15 14  1  6
 15 16  1  0
 16  7  1  0
 17 15  1  0
 18 17  2  0
 19 13  2  0
 20 19  1  0
 22 21  1  6
 22 24  1  0
 23 22  1  0
 25 24  1  1
 25 26  1  0
 25 27  1  0
 26 17  1  0
 27 28  1  0
 29 27  2  0
M  END
$$$$
