MYL.pdb
     RDKit          3D

 29 29  0  0  1  0  0  0  0  0999 V2000
   29.8737  -16.4381  -16.5571 C   0  0  0  0  0  0  0  0  0  0  0  0
   29.0337  -17.4974  -17.7317 S   0  0  0  0  0  0  0  0  0  0  0  0
   28.3203  -18.9663  -16.9875 C   0  0  0  0  0  0  0  0  0  0  0  0
   27.7605  -18.7025  -15.6086 C   0  0  0  0  0  0  0  0  0  0  0  0
   28.0997  -19.7608  -14.6210 C   0  0  2  0  0  0  0  0  0  0  0  0
   27.8661  -21.0606  -15.2196 N   0  0  0  0  0  0  0  0  0  0  0  0
   27.3473  -19.6678  -13.3551 C   0  0  0  0  0  0  0  0  0  0  0  0
   27.2808  -18.5638  -12.7344 O   0  0  0  0  0  0  0  0  0  0  0  0
   20.5412  -19.3969  -15.0152 O   0  0  0  0  0  0  0  0  0  0  0  0
   21.5655  -19.9225  -14.2382 C   0  0  0  0  0  0  0  0  0  0  0  0
   22.6232  -20.6144  -14.7963 C   0  0  0  0  0  0  0  0  0  0  0  0
   23.6295  -21.1251  -13.9825 C   0  0  0  0  0  0  0  0  0  0  0  0
   23.6008  -20.9588  -12.6234 C   0  0  0  0  0  0  0  0  0  0  0  0
   24.6482  -21.4950  -11.7743 C   0  0  0  0  0  0  0  0  0  0  0  0
   25.8467  -20.6400  -11.5507 C   0  0  2  0  0  0  0  0  0  0  0  0
   26.6653  -20.7530  -12.7502 N   0  0  0  0  0  0  0  0  0  0  0  0
   26.5784  -21.0737  -10.3449 C   0  0  0  0  0  0  0  0  0  0  0  0
   27.7447  -21.5311  -10.4503 O   0  0  0  0  0  0  0  0  0  0  0  0
   22.5454  -20.2689  -12.0693 C   0  0  0  0  0  0  0  0  0  0  0  0
   21.5232  -19.7475  -12.8724 C   0  0  0  0  0  0  0  0  0  0  0  0
   27.7749  -18.6808   -5.5189 C   0  0  0  0  0  0  0  0  0  0  0  0
   28.4790  -19.1998   -6.7283 C   0  0  1  0  0  0  0  0  0  0  0  0
   29.1375  -20.5210   -6.3103 C   0  0  0  0  0  0  0  0  0  0  0  0
   27.5973  -19.4915   -7.9073 C   0  0  0  0  0  0  0  0  0  0  0  0
   26.8615  -20.7899   -7.8500 C   0  0  2  0  0  0  0  0  0  0  0  0
   26.0401  -21.0084   -9.0344 N   0  0  0  0  0  0  0  0  0  0  0  0
   26.0053  -20.9710   -6.6623 C   0  0  0  0  0  0  0  0  0  0  0  0
   24.7267  -20.4370   -6.6067 O   0  0  0  0  0  0  0  0  0  0  0  0
   26.3905  -21.6134   -5.6524 O   0  0  0  0  0  0  0  0  0  0  0  0
  2  1  1  0
  3  2  1  0
  4  3  1  0
  4  5  1  0
  5  6  1  6
  7  5  1  0
  7  8  2  0
  9 10  1  0
 10 20  2  0
 10 11  1  0
 11 12  2  0
 12 13  1  0
 13 14  1  0
 15 14  1  6
 15 16  1  0
 16  7  1  0
 17 15  1  0
 18 17  2  0
 19 13  2  0
 20 19  1  0
 22 21  1  1
 22 24  1  0
 23 22  1  0
 25 24  1  6
 25 26  1  0
 25 27  1  0
 26 17  1  0
 27 28  1  0
 29 27  2  0
M  END
$$$$
