GGQ.pdb
     RDKit          3D

 18 17  0  0  1  0  0  0  0  0999 V2000
    7.5134  -12.4308   19.8573 N   0  0  0  0  0  0  0  0  0  0  0  0
    7.3501  -13.4686   20.8275 C   0  0  0  0  0  0  0  0  0  0  0  0
    8.4875  -14.4384   20.8102 C   0  0  0  0  0  0  0  0  0  0  0  0
    9.5120  -14.1100   20.1451 O   0  0  0  0  0  0  0  0  0  0  0  0
    8.4367  -15.6682   21.4991 N   0  0  0  0  0  0  0  0  0  0  0  0
    9.5526  -16.5649   21.4840 C   0  0  0  0  0  0  0  0  0  0  0  0
   10.3125  -16.4820   22.7513 C   0  0  0  0  0  0  0  0  0  0  0  0
   11.5228  -16.8204   22.7515 O   0  0  0  0  0  0  0  0  0  0  0  0
    9.9432  -13.6993   29.6614 N   0  0  0  0  0  0  0  0  0  0  0  0
    9.5324  -13.9209   28.3262 C   0  0  0  0  0  0  0  0  0  0  0  0
    8.4786  -13.3868   27.9239 O   0  0  0  0  0  0  0  0  0  0  0  0
   10.3354  -14.7618   27.4439 C   0  0  0  0  0  0  0  0  0  0  0  0
    9.7628  -14.9706   26.0839 C   0  0  0  0  0  0  0  0  0  0  0  0
   10.5584  -15.8480   25.1744 C   0  0  2  0  0  0  0  0  0  0  0  0
    9.7397  -16.0384   23.9669 N   0  0  0  0  0  0  0  0  0  0  0  0
   10.7786  -17.2045   25.7857 C   0  0  0  0  0  0  0  0  0  0  0  0
   11.7578  -17.4120   26.5441 O   0  0  0  0  0  0  0  0  0  0  0  0
    9.9053  -18.2431   25.5211 O   0  0  0  0  0  0  0  0  0  0  0  0
  2  1  1  0
  3  2  1  0
  4  3  2  0
  5  3  1  0
  6  5  1  0
  7  6  1  0
  7  8  2  0
 10  9  1  0
 10 12  1  0
 11 10  2  0
 13 12  1  0
 14 13  1  1
 14 15  1  0
 15  7  1  0
 16 18  1  0
 16 14  1  0
 17 16  2  0
M  END
$$$$
