GGQ.pdb
     RDKit          3D

 18 17  0  0  1  0  0  0  0  0999 V2000
    5.5017  -19.4579   23.6096 N   0  0  0  0  0  0  0  0  0  0  0  0
    6.2936  -19.4252   22.4194 C   0  0  0  0  0  0  0  0  0  0  0  0
    7.4407  -18.4734   22.5334 C   0  0  0  0  0  0  0  0  0  0  0  0
    8.3494  -18.7661   23.3630 O   0  0  0  0  0  0  0  0  0  0  0  0
    7.5212  -17.2977   21.7582 N   0  0  0  0  0  0  0  0  0  0  0  0
    8.7746  -16.6364   21.5552 C   0  0  0  0  0  0  0  0  0  0  0  0
    9.1018  -15.7631   22.7044 C   0  0  0  0  0  0  0  0  0  0  0  0
   10.1512  -15.0732   22.6574 O   0  0  0  0  0  0  0  0  0  0  0  0
    6.4066  -10.9962   27.3367 N   0  0  0  0  0  0  0  0  0  0  0  0
    6.3063  -12.2340   26.6597 C   0  0  0  0  0  0  0  0  0  0  0  0
    5.1828  -12.6240   26.2811 O   0  0  0  0  0  0  0  0  0  0  0  0
    7.5032  -13.0325   26.4142 C   0  0  0  0  0  0  0  0  0  0  0  0
    7.4032  -13.9760   25.2650 C   0  0  0  0  0  0  0  0  0  0  0  0
    8.6346  -14.7669   24.9678 C   0  0  2  0  0  0  0  0  0  0  0  0
    8.2869  -15.6672   23.8574 N   0  0  0  0  0  0  0  0  0  0  0  0
    9.0216  -15.6277   26.1390 C   0  0  0  0  0  0  0  0  0  0  0  0
    8.6110  -16.8114   26.2249 O   0  0  0  0  0  0  0  0  0  0  0  0
    9.8355  -15.1275   27.1383 O   0  0  0  0  0  0  0  0  0  0  0  0
  2  1  1  0
  3  2  1  0
  4  3  2  0
  5  3  1  0
  6  5  1  0
  7  6  1  0
  7  8  2  0
 10  9  1  0
 10 12  1  0
 11 10  2  0
 13 12  1  0
 14 13  1  1
 14 15  1  0
 15  7  1  0
 16 18  1  0
 16 14  1  0
 17 16  2  0
M  END
$$$$
