GGQ.pdb
     RDKit          3D

 18 17  0  0  1  0  0  0  0  0999 V2000
    8.1219  -12.5217   17.8195 N   0  0  0  0  0  0  0  0  0  0  0  0
    7.4730  -13.7454   18.1750 C   0  0  0  0  0  0  0  0  0  0  0  0
    7.8276  -14.1885   19.5579 C   0  0  0  0  0  0  0  0  0  0  0  0
    8.7804  -13.5831   20.1283 O   0  0  0  0  0  0  0  0  0  0  0  0
    7.1406  -15.2330   20.2114 N   0  0  0  0  0  0  0  0  0  0  0  0
    7.5212  -15.6521   21.5263 C   0  0  0  0  0  0  0  0  0  0  0  0
    8.9141  -16.1522   21.5376 C   0  0  0  0  0  0  0  0  0  0  0  0
    9.1953  -17.1679   20.8531 O   0  0  0  0  0  0  0  0  0  0  0  0
   11.8483  -15.0142   18.5018 N   0  0  0  0  0  0  0  0  0  0  0  0
   12.6342  -14.8319   19.6636 C   0  0  0  0  0  0  0  0  0  0  0  0
   13.8254  -15.2040   19.6492 O   0  0  0  0  0  0  0  0  0  0  0  0
   12.0507  -14.2184   20.8524 C   0  0  0  0  0  0  0  0  0  0  0  0
   12.2472  -14.9853   22.1150 C   0  0  0  0  0  0  0  0  0  0  0  0
   11.2996  -16.1177   22.3387 C   0  0  2  0  0  0  0  0  0  0  0  0
    9.9479  -15.5394   22.2848 N   0  0  0  0  0  0  0  0  0  0  0  0
   11.4792  -16.7120   23.7087 C   0  0  0  0  0  0  0  0  0  0  0  0
   12.5234  -17.3470   23.9976 O   0  0  0  0  0  0  0  0  0  0  0  0
   10.4963  -16.5674   24.6701 O   0  0  0  0  0  0  0  0  0  0  0  0
  2  1  1  0
  3  2  1  0
  4  3  2  0
  5  3  1  0
  6  5  1  0
  7  6  1  0
  7  8  2  0
 10  9  1  0
 10 12  1  0
 11 10  2  0
 13 12  1  0
 14 13  1  1
 14 15  1  0
 15  7  1  0
 16 18  1  0
 16 14  1  0
 17 16  2  0
M  END
$$$$
