GGQ.pdb
     RDKit          3D

 18 17  0  0  1  0  0  0  0  0999 V2000
    5.0302  -19.6075   21.2491 N   0  0  0  0  0  0  0  0  0  0  0  0
    6.2095  -18.9110   20.8382 C   0  0  0  0  0  0  0  0  0  0  0  0
    6.3355  -17.5780   21.5029 C   0  0  0  0  0  0  0  0  0  0  0  0
    5.6718  -17.4010   22.5650 O   0  0  0  0  0  0  0  0  0  0  0  0
    7.1531  -16.5532   20.9824 N   0  0  0  0  0  0  0  0  0  0  0  0
    8.5661  -16.5529   21.2126 C   0  0  0  0  0  0  0  0  0  0  0  0
    8.9332  -15.5480   22.2353 C   0  0  0  0  0  0  0  0  0  0  0  0
    9.7566  -14.6495   21.9290 O   0  0  0  0  0  0  0  0  0  0  0  0
    6.3677  -11.2171   27.4313 N   0  0  0  0  0  0  0  0  0  0  0  0
    6.3692  -12.3164   26.5412 C   0  0  0  0  0  0  0  0  0  0  0  0
    5.2782  -12.8219   26.2067 O   0  0  0  0  0  0  0  0  0  0  0  0
    7.6313  -12.8416   26.0298 C   0  0  0  0  0  0  0  0  0  0  0  0
    7.4950  -13.9135   25.0034 C   0  0  0  0  0  0  0  0  0  0  0  0
    8.7738  -14.5198   24.5268 C   0  0  2  0  0  0  0  0  0  0  0  0
    8.3996  -15.5506   23.5460 N   0  0  0  0  0  0  0  0  0  0  0  0
    9.4975  -15.2107   25.6498 C   0  0  0  0  0  0  0  0  0  0  0  0
    9.2557  -16.4127   25.9216 O   0  0  0  0  0  0  0  0  0  0  0  0
   10.4401  -14.5317   26.3994 O   0  0  0  0  0  0  0  0  0  0  0  0
  2  1  1  0
  3  2  1  0
  4  3  2  0
  5  3  1  0
  6  5  1  0
  7  6  1  0
  7  8  2  0
 10  9  1  0
 10 12  1  0
 11 10  2  0
 13 12  1  0
 14 13  1  1
 14 15  1  0
 15  7  1  0
 16 18  1  0
 16 14  1  0
 17 16  2  0
M  END
$$$$
