GGQ.pdb
     RDKit          3D

 18 17  0  0  1  0  0  0  0  0999 V2000
    5.6892  -21.2630   20.2020 N   0  0  0  0  0  0  0  0  0  0  0  0
    5.6346  -19.9016   20.6361 C   0  0  0  0  0  0  0  0  0  0  0  0
    6.4064  -18.9927   19.7345 C   0  0  0  0  0  0  0  0  0  0  0  0
    5.7376  -18.2338   18.9752 O   0  0  0  0  0  0  0  0  0  0  0  0
    7.8167  -18.9702   19.7188 N   0  0  0  0  0  0  0  0  0  0  0  0
    8.5271  -18.0452   18.8885 C   0  0  0  0  0  0  0  0  0  0  0  0
    9.2969  -17.0840   19.7093 C   0  0  0  0  0  0  0  0  0  0  0  0
   10.2132  -16.4215   19.1607 O   0  0  0  0  0  0  0  0  0  0  0  0
    7.4173  -11.5649   21.1297 N   0  0  0  0  0  0  0  0  0  0  0  0
    7.5489  -12.7564   21.8805 C   0  0  0  0  0  0  0  0  0  0  0  0
    7.0315  -12.8136   23.0148 O   0  0  0  0  0  0  0  0  0  0  0  0
    8.2795  -13.8925   21.3274 C   0  0  0  0  0  0  0  0  0  0  0  0
    8.7618  -14.8789   22.3351 C   0  0  0  0  0  0  0  0  0  0  0  0
    9.7844  -15.8529   21.8495 C   0  0  2  0  0  0  0  0  0  0  0  0
    9.0498  -16.8743   21.0869 N   0  0  0  0  0  0  0  0  0  0  0  0
   10.4580  -16.5499   22.9996 C   0  0  0  0  0  0  0  0  0  0  0  0
    9.8608  -17.4512   23.6384 O   0  0  0  0  0  0  0  0  0  0  0  0
   11.7453  -16.2079   23.3701 O   0  0  0  0  0  0  0  0  0  0  0  0
  2  1  1  0
  3  2  1  0
  4  3  2  0
  5  3  1  0
  6  5  1  0
  7  6  1  0
  7  8  2  0
 10  9  1  0
 10 12  1  0
 11 10  2  0
 13 12  1  0
 14 13  1  1
 14 15  1  0
 15  7  1  0
 16 18  1  0
 16 14  1  0
 17 16  2  0
M  END
$$$$
