GGQ.pdb
     RDKit          3D

 18 17  0  0  1  0  0  0  0  0999 V2000
    5.9582  -18.7586   20.1468 N   0  0  0  0  0  0  0  0  0  0  0  0
    5.6690  -17.6142   20.9538 C   0  0  0  0  0  0  0  0  0  0  0  0
    6.6928  -16.5374   20.7898 C   0  0  0  0  0  0  0  0  0  0  0  0
    7.8487  -16.8954   20.4217 O   0  0  0  0  0  0  0  0  0  0  0  0
    6.3994  -15.1788   21.0306 N   0  0  0  0  0  0  0  0  0  0  0  0
    7.4068  -14.1726   20.8815 C   0  0  0  0  0  0  0  0  0  0  0  0
    8.1084  -13.9354   22.1629 C   0  0  0  0  0  0  0  0  0  0  0  0
    9.0257  -13.0771   22.1978 O   0  0  0  0  0  0  0  0  0  0  0  0
    6.2921  -10.7861   27.1066 N   0  0  0  0  0  0  0  0  0  0  0  0
    6.3380  -12.1232   26.6475 C   0  0  0  0  0  0  0  0  0  0  0  0
    5.4999  -12.9387   27.0836 O   0  0  0  0  0  0  0  0  0  0  0  0
    7.3528  -12.5301   25.6806 C   0  0  0  0  0  0  0  0  0  0  0  0
    7.6220  -13.9951   25.6325 C   0  0  0  0  0  0  0  0  0  0  0  0
    8.5843  -14.4423   24.5816 C   0  0  2  0  0  0  0  0  0  0  0  0
    7.7947  -14.6310   23.3547 N   0  0  0  0  0  0  0  0  0  0  0  0
    9.1914  -15.7726   24.9336 C   0  0  0  0  0  0  0  0  0  0  0  0
    8.7483  -16.8316   24.4245 O   0  0  0  0  0  0  0  0  0  0  0  0
   10.2468  -15.8484   25.8234 O   0  0  0  0  0  0  0  0  0  0  0  0
  2  1  1  0
  3  2  1  0
  4  3  2  0
  5  3  1  0
  6  5  1  0
  7  6  1  0
  7  8  2  0
 10  9  1  0
 10 12  1  0
 11 10  2  0
 13 12  1  0
 14 13  1  1
 14 15  1  0
 15  7  1  0
 16 18  1  0
 16 14  1  0
 17 16  2  0
M  END
$$$$
