GGQ.pdb
     RDKit          3D

 18 17  0  0  1  0  0  0  0  0999 V2000
    2.6303  -20.3306   21.8881 N   0  0  0  0  0  0  0  0  0  0  0  0
    2.9875  -19.1150   22.5511 C   0  0  0  0  0  0  0  0  0  0  0  0
    3.8169  -18.2242   21.6833 C   0  0  0  0  0  0  0  0  0  0  0  0
    3.2252  -17.2588   21.1196 O   0  0  0  0  0  0  0  0  0  0  0  0
    5.1981  -18.4366   21.4912 N   0  0  0  0  0  0  0  0  0  0  0  0
    5.9620  -17.5759   20.6397 C   0  0  0  0  0  0  0  0  0  0  0  0
    6.9977  -16.8542   21.4123 C   0  0  0  0  0  0  0  0  0  0  0  0
    7.9179  -16.2697   20.7871 O   0  0  0  0  0  0  0  0  0  0  0  0
    7.3938  -12.6588   21.3437 N   0  0  0  0  0  0  0  0  0  0  0  0
    7.7899  -13.1626   22.6046 C   0  0  0  0  0  0  0  0  0  0  0  0
    8.9480  -12.9318   23.0085 O   0  0  0  0  0  0  0  0  0  0  0  0
    6.8515  -13.9378   23.4100 C   0  0  0  0  0  0  0  0  0  0  0  0
    7.4772  -14.9762   24.2767 C   0  0  0  0  0  0  0  0  0  0  0  0
    8.0936  -16.1322   23.5597 C   0  0  2  0  0  0  0  0  0  0  0  0
    7.0014  -16.7905   22.8260 N   0  0  0  0  0  0  0  0  0  0  0  0
    8.6515  -17.1367   24.5303 C   0  0  0  0  0  0  0  0  0  0  0  0
    8.0885  -18.2473   24.6942 O   0  0  0  0  0  0  0  0  0  0  0  0
    9.7929  -16.8515   25.2562 O   0  0  0  0  0  0  0  0  0  0  0  0
  2  1  1  0
  3  2  1  0
  4  3  2  0
  5  3  1  0
  6  5  1  0
  7  6  1  0
  7  8  2  0
 10  9  1  0
 10 12  1  0
 11 10  2  0
 13 12  1  0
 14 13  1  1
 14 15  1  0
 15  7  1  0
 16 18  1  0
 16 14  1  0
 17 16  2  0
M  END
$$$$
