GGQ.pdb
     RDKit          3D

 18 17  0  0  1  0  0  0  0  0999 V2000
    8.1287  -16.3828   15.1985 N   0  0  0  0  0  0  0  0  0  0  0  0
    9.4511  -16.9139   15.3168 C   0  0  0  0  0  0  0  0  0  0  0  0
    9.5216  -18.0309   16.3078 C   0  0  0  0  0  0  0  0  0  0  0  0
    8.9520  -19.1153   15.9922 O   0  0  0  0  0  0  0  0  0  0  0  0
   10.1891  -17.8981   17.5433 N   0  0  0  0  0  0  0  0  0  0  0  0
   11.4058  -17.1504   17.6438 C   0  0  0  0  0  0  0  0  0  0  0  0
   11.5439  -16.5466   18.9879 C   0  0  0  0  0  0  0  0  0  0  0  0
   12.6144  -15.9546   19.2757 O   0  0  0  0  0  0  0  0  0  0  0  0
    7.3805  -12.1773   19.6543 N   0  0  0  0  0  0  0  0  0  0  0  0
    7.6116  -13.4453   20.2369 C   0  0  0  0  0  0  0  0  0  0  0  0
    6.6633  -14.0324   20.7971 O   0  0  0  0  0  0  0  0  0  0  0  0
    8.9403  -14.0462   20.1776 C   0  0  0  0  0  0  0  0  0  0  0  0
    9.2093  -15.0781   21.2186 C   0  0  0  0  0  0  0  0  0  0  0  0
   10.5508  -15.7308   21.1518 C   0  0  2  0  0  0  0  0  0  0  0  0
   10.5246  -16.6040   19.9680 N   0  0  0  0  0  0  0  0  0  0  0  0
   10.7873  -16.6075   22.3509 C   0  0  0  0  0  0  0  0  0  0  0  0
   10.7022  -17.8568   22.2554 O   0  0  0  0  0  0  0  0  0  0  0  0
   11.1021  -16.0499   23.5761 O   0  0  0  0  0  0  0  0  0  0  0  0
  2  1  1  0
  3  2  1  0
  4  3  2  0
  5  3  1  0
  6  5  1  0
  7  6  1  0
  7  8  2  0
 10  9  1  0
 10 12  1  0
 11 10  2  0
 13 12  1  0
 14 13  1  1
 14 15  1  0
 15  7  1  0
 16 18  1  0
 16 14  1  0
 17 16  2  0
M  END
$$$$
