GGQ.pdb
     RDKit          3D

 18 17  0  0  1  0  0  0  0  0999 V2000
    4.9966  -18.7389   19.6958 N   0  0  0  0  0  0  0  0  0  0  0  0
    6.2362  -18.0618   19.9192 C   0  0  0  0  0  0  0  0  0  0  0  0
    6.7463  -18.2670   21.3093 C   0  0  0  0  0  0  0  0  0  0  0  0
    7.8874  -18.7992   21.4295 O   0  0  0  0  0  0  0  0  0  0  0  0
    6.0013  -17.8900   22.4462 N   0  0  0  0  0  0  0  0  0  0  0  0
    6.5221  -18.0898   23.7647 C   0  0  0  0  0  0  0  0  0  0  0  0
    7.5555  -17.0791   24.0819 C   0  0  0  0  0  0  0  0  0  0  0  0
    8.6370  -17.1015   23.4422 O   0  0  0  0  0  0  0  0  0  0  0  0
    5.8101  -10.8606   25.7531 N   0  0  0  0  0  0  0  0  0  0  0  0
    6.2703  -12.0738   26.3160 C   0  0  0  0  0  0  0  0  0  0  0  0
    6.1161  -12.2667   27.5394 O   0  0  0  0  0  0  0  0  0  0  0  0
    6.9130  -13.0750   25.4706 C   0  0  0  0  0  0  0  0  0  0  0  0
    7.7936  -14.0353   26.1939 C   0  0  0  0  0  0  0  0  0  0  0  0
    8.4315  -15.0900   25.3508 C   0  0  2  0  0  0  0  0  0  0  0  0
    7.3837  -16.0851   25.0745 N   0  0  0  0  0  0  0  0  0  0  0  0
    9.5304  -15.7919   26.1005 C   0  0  0  0  0  0  0  0  0  0  0  0
   10.6872  -15.3049   26.1423 O   0  0  0  0  0  0  0  0  0  0  0  0
    9.2824  -16.9843   26.7548 O   0  0  0  0  0  0  0  0  0  0  0  0
  2  1  1  0
  3  2  1  0
  4  3  2  0
  5  3  1  0
  6  5  1  0
  7  6  1  0
  7  8  2  0
 10  9  1  0
 10 12  1  0
 11 10  2  0
 13 12  1  0
 14 13  1  1
 14 15  1  0
 15  7  1  0
 16 18  1  0
 16 14  1  0
 17 16  2  0
M  END
$$$$
