GGQ.pdb
     RDKit          3D

 18 17  0  0  1  0  0  0  0  0999 V2000
    6.5756  -18.9513   19.8202 N   0  0  0  0  0  0  0  0  0  0  0  0
    5.5798  -17.9369   19.9751 C   0  0  0  0  0  0  0  0  0  0  0  0
    6.1716  -16.6254   20.3806 C   0  0  0  0  0  0  0  0  0  0  0  0
    7.2195  -16.2568   19.7757 O   0  0  0  0  0  0  0  0  0  0  0  0
    5.5997  -15.8232   21.3902 N   0  0  0  0  0  0  0  0  0  0  0  0
    6.1188  -14.5196   21.6742 C   0  0  0  0  0  0  0  0  0  0  0  0
    7.1112  -14.5749   22.7708 C   0  0  0  0  0  0  0  0  0  0  0  0
    6.8949  -13.9076   23.8135 O   0  0  0  0  0  0  0  0  0  0  0  0
    7.8790  -19.3468   26.4040 N   0  0  0  0  0  0  0  0  0  0  0  0
    8.0121  -17.9851   26.7629 C   0  0  0  0  0  0  0  0  0  0  0  0
    7.3945  -17.5626   27.7618 O   0  0  0  0  0  0  0  0  0  0  0  0
    8.8597  -17.0995   25.9709 C   0  0  0  0  0  0  0  0  0  0  0  0
    8.2215  -16.5572   24.7381 C   0  0  0  0  0  0  0  0  0  0  0  0
    9.0776  -15.6586   23.9076 C   0  0  2  0  0  0  0  0  0  0  0  0
    8.2960  -15.3457   22.7012 N   0  0  0  0  0  0  0  0  0  0  0  0
   10.3293  -16.3631   23.4612 C   0  0  0  0  0  0  0  0  0  0  0  0
   10.2716  -17.3015   22.6286 O   0  0  0  0  0  0  0  0  0  0  0  0
   11.5621  -15.9871   23.9614 O   0  0  0  0  0  0  0  0  0  0  0  0
  2  1  1  0
  3  2  1  0
  4  3  2  0
  5  3  1  0
  6  5  1  0
  7  6  1  0
  7  8  2  0
 10  9  1  0
 10 12  1  0
 11 10  2  0
 13 12  1  0
 14 13  1  1
 14 15  1  0
 15  7  1  0
 16 18  1  0
 16 14  1  0
 17 16  2  0
M  END
$$$$
