AVY.pdb
     RDKit          3D

 25 25  0  0  1  0  0  0  0  0999 V2000
    5.2240  -18.5790   22.2353 C   0  0  0  0  0  0  0  0  0  0  0  0
    5.7500  -18.0652   20.9337 C   0  0  2  0  0  0  0  0  0  0  0  0
    6.0788  -19.1560   20.0754 N   0  0  0  0  0  0  0  0  0  0  0  0
    6.9023  -17.1508   21.0862 C   0  0  0  0  0  0  0  0  0  0  0  0
    8.0634  -17.6156   21.1388 O   0  0  0  0  0  0  0  0  0  0  0  0
    8.7811  -12.5844   20.6846 C   0  0  0  0  0  0  0  0  0  0  0  0
    7.5799  -13.5007   20.6316 C   0  0  1  0  0  0  0  0  0  0  0  0
    7.1074  -13.6049   19.2205 C   0  0  0  0  0  0  0  0  0  0  0  0
    7.8767  -14.8441   21.2559 C   0  0  2  0  0  0  0  0  0  0  0  0
    6.7481  -15.7427   21.1774 N   0  0  0  0  0  0  0  0  0  0  0  0
    8.3272  -14.6308   22.6526 C   0  0  0  0  0  0  0  0  0  0  0  0
    7.7780  -13.7550   23.3981 O   0  0  0  0  0  0  0  0  0  0  0  0
    5.5695  -11.2405   27.2413 O   0  0  0  0  0  0  0  0  0  0  0  0
    6.3551  -12.2834   26.8053 C   0  0  0  0  0  0  0  0  0  0  0  0
    5.7416  -13.5065   26.5397 C   0  0  0  0  0  0  0  0  0  0  0  0
    6.5179  -14.5651   26.1005 C   0  0  0  0  0  0  0  0  0  0  0  0
    7.8830  -14.4468   25.9171 C   0  0  0  0  0  0  0  0  0  0  0  0
    8.6913  -15.5671   25.4619 C   0  0  0  0  0  0  0  0  0  0  0  0
    9.8396  -15.2595   24.5762 C   0  0  2  0  0  0  0  0  0  0  0  0
    9.3898  -15.4103   23.1831 N   0  0  0  0  0  0  0  0  0  0  0  0
   10.9840  -16.1244   24.8635 C   0  0  0  0  0  0  0  0  0  0  0  0
   11.6519  -16.0044   25.9189 O   0  0  0  0  0  0  0  0  0  0  0  0
    8.4912  -13.2392   26.1792 C   0  0  0  0  0  0  0  0  0  0  0  0
    7.7174  -12.1660   26.6223 C   0  0  0  0  0  0  0  0  0  0  0  0
   11.3440  -17.1081   23.9424 O   0  0  0  0  0  0  0  0  0  0  0  0
  2  4  1  0
  2  1  1  1
  3  2  1  0
  4  5  2  0
  7  9  1  0
  7  6  1  6
  8  7  1  0
  9 10  1  1
 10  4  1  0
 11  9  1  0
 12 11  2  0
 13 14  1  0
 14 15  2  0
 15 16  1  0
 17 16  2  0
 17 18  1  0
 19 18  1  1
 19 21  1  0
 19 20  1  0
 20 11  1  0
 21 25  1  0
 22 21  2  0
 23 17  1  0
 24 14  1  0
 24 23  2  0
M  END
$$$$
