AVY.pdb
     RDKit          3D

 25 25  0  0  1  0  0  0  0  0999 V2000
    8.2545  -12.0719   20.4322 C   0  0  0  0  0  0  0  0  0  0  0  0
    8.0936  -13.3704   19.7091 C   0  0  2  0  0  0  0  0  0  0  0  0
    6.9162  -13.3384   18.9045 N   0  0  0  0  0  0  0  0  0  0  0  0
    8.0842  -14.5452   20.6075 C   0  0  0  0  0  0  0  0  0  0  0  0
    6.9953  -15.0069   21.0176 O   0  0  0  0  0  0  0  0  0  0  0  0
   10.0228  -18.7315   22.1387 C   0  0  0  0  0  0  0  0  0  0  0  0
   10.0491  -17.5026   21.2586 C   0  0  1  0  0  0  0  0  0  0  0  0
    9.5739  -17.8698   19.8931 C   0  0  0  0  0  0  0  0  0  0  0  0
    9.2670  -16.3636   21.8699 C   0  0  2  0  0  0  0  0  0  0  0  0
    9.2772  -15.1853   21.0338 N   0  0  0  0  0  0  0  0  0  0  0  0
    9.8017  -16.0930   23.2263 C   0  0  0  0  0  0  0  0  0  0  0  0
   10.9630  -15.5947   23.3921 O   0  0  0  0  0  0  0  0  0  0  0  0
    5.7528  -10.7677   25.7226 O   0  0  0  0  0  0  0  0  0  0  0  0
    6.3886  -11.9711   25.9293 C   0  0  0  0  0  0  0  0  0  0  0  0
    5.6841  -13.1444   25.6648 C   0  0  0  0  0  0  0  0  0  0  0  0
    6.3096  -14.3626   25.8675 C   0  0  0  0  0  0  0  0  0  0  0  0
    7.6113  -14.4516   26.3242 C   0  0  0  0  0  0  0  0  0  0  0  0
    8.2575  -15.7366   26.5408 C   0  0  0  0  0  0  0  0  0  0  0  0
    9.4613  -16.0360   25.7291 C   0  0  2  0  0  0  0  0  0  0  0  0
    9.0156  -16.3897   24.3719 N   0  0  0  0  0  0  0  0  0  0  0  0
   10.2561  -17.1094   26.3260 C   0  0  0  0  0  0  0  0  0  0  0  0
   10.9666  -16.9163   27.3419 O   0  0  0  0  0  0  0  0  0  0  0  0
    8.3091  -13.2934   26.5863 C   0  0  0  0  0  0  0  0  0  0  0  0
    7.6876  -12.0606   26.3851 C   0  0  0  0  0  0  0  0  0  0  0  0
   10.2249  -18.3809   25.7531 O   0  0  0  0  0  0  0  0  0  0  0  0
  2  4  1  0
  2  1  1  1
  3  2  1  0
  4  5  2  0
  7  9  1  0
  7  6  1  1
  8  7  1  0
  9 10  1  6
 10  4  1  0
 11  9  1  0
 12 11  2  0
 13 14  1  0
 14 15  2  0
 15 16  1  0
 17 16  2  0
 17 18  1  0
 19 18  1  1
 19 21  1  0
 19 20  1  0
 20 11  1  0
 21 25  1  0
 22 21  2  0
 23 17  1  0
 24 14  1  0
 24 23  2  0
M  END
$$$$
