AVY.pdb
     RDKit          3D

 25 25  0  0  1  0  0  0  0  0999 V2000
   10.7776  -18.9052   19.4816 C   0  0  0  0  0  0  0  0  0  0  0  0
   10.9491  -17.4493   19.1886 C   0  0  2  0  0  0  0  0  0  0  0  0
   12.3098  -17.1744   18.8606 N   0  0  0  0  0  0  0  0  0  0  0  0
   10.4851  -16.5715   20.2847 C   0  0  0  0  0  0  0  0  0  0  0  0
   11.2724  -16.2559   21.2054 O   0  0  0  0  0  0  0  0  0  0  0  0
    6.9445  -13.6485   22.2412 C   0  0  0  0  0  0  0  0  0  0  0  0
    7.4658  -14.4443   21.0663 C   0  0  1  0  0  0  0  0  0  0  0  0
    7.6934  -13.5230   19.9153 C   0  0  0  0  0  0  0  0  0  0  0  0
    8.6941  -15.2425   21.4359 C   0  0  2  0  0  0  0  0  0  0  0  0
    9.1619  -16.0608   20.3409 N   0  0  0  0  0  0  0  0  0  0  0  0
    8.3941  -16.0445   22.6466 C   0  0  0  0  0  0  0  0  0  0  0  0
    7.9202  -17.2244   22.5576 O   0  0  0  0  0  0  0  0  0  0  0  0
    5.6748  -10.7420   26.8284 O   0  0  0  0  0  0  0  0  0  0  0  0
    6.4042  -11.9032   26.7075 C   0  0  0  0  0  0  0  0  0  0  0  0
    7.7885  -11.8034   26.5778 C   0  0  0  0  0  0  0  0  0  0  0  0
    8.5361  -12.9619   26.4554 C   0  0  0  0  0  0  0  0  0  0  0  0
    7.9524  -14.2151   26.4578 C   0  0  0  0  0  0  0  0  0  0  0  0
    8.7459  -15.4264   26.3216 C   0  0  0  0  0  0  0  0  0  0  0  0
    8.4565  -16.2999   25.1593 C   0  0  2  0  0  0  0  0  0  0  0  0
    8.6345  -15.5003   23.9367 N   0  0  0  0  0  0  0  0  0  0  0  0
    7.1088  -16.8639   25.2360 C   0  0  0  0  0  0  0  0  0  0  0  0
    6.1639  -16.4085   24.5476 O   0  0  0  0  0  0  0  0  0  0  0  0
    6.5847  -14.3159   26.5858 C   0  0  0  0  0  0  0  0  0  0  0  0
    5.8223  -13.1540   26.7098 C   0  0  0  0  0  0  0  0  0  0  0  0
    6.8655  -17.9353   26.0955 O   0  0  0  0  0  0  0  0  0  0  0  0
  2  4  1  0
  2  1  1  1
  3  2  1  0
  4  5  2  0
  7  9  1  0
  7  6  1  1
  8  7  1  0
  9 10  1  6
 10  4  1  0
 11  9  1  0
 12 11  2  0
 13 14  1  0
 14 15  2  0
 15 16  1  0
 17 16  2  0
 17 18  1  0
 19 18  1  1
 19 21  1  0
 19 20  1  0
 20 11  1  0
 21 25  1  0
 22 21  2  0
 23 17  1  0
 24 14  1  0
 24 23  2  0
M  END
$$$$
