AVY.pdb
     RDKit          3D

 25 25  0  0  1  0  0  0  0  0999 V2000
   12.9492  -16.6671   20.8567 C   0  0  0  0  0  0  0  0  0  0  0  0
   12.3583  -15.3579   20.4422 C   0  0  2  0  0  0  0  0  0  0  0  0
   13.3621  -14.3444   20.4521 N   0  0  0  0  0  0  0  0  0  0  0  0
   11.1951  -14.9534   21.2611 C   0  0  0  0  0  0  0  0  0  0  0  0
   11.3563  -14.1813   22.2332 O   0  0  0  0  0  0  0  0  0  0  0  0
    6.2856  -14.7317   21.9777 C   0  0  0  0  0  0  0  0  0  0  0  0
    7.4599  -15.0117   21.0678 C   0  0  1  0  0  0  0  0  0  0  0  0
    7.4872  -13.9929   19.9785 C   0  0  0  0  0  0  0  0  0  0  0  0
    8.7565  -15.0863   21.8396 C   0  0  2  0  0  0  0  0  0  0  0  0
    9.8789  -15.4098   20.9893 N   0  0  0  0  0  0  0  0  0  0  0  0
    8.5952  -16.0575   22.9485 C   0  0  0  0  0  0  0  0  0  0  0  0
    9.1855  -17.1870   22.9295 O   0  0  0  0  0  0  0  0  0  0  0  0
    7.6868  -10.3608   26.9865 O   0  0  0  0  0  0  0  0  0  0  0  0
    7.4691  -11.7079   26.8048 C   0  0  0  0  0  0  0  0  0  0  0  0
    8.4772  -12.5961   27.1760 C   0  0  0  0  0  0  0  0  0  0  0  0
    8.2734  -13.9539   26.9997 C   0  0  0  0  0  0  0  0  0  0  0  0
    7.1011  -14.4564   26.4667 C   0  0  0  0  0  0  0  0  0  0  0  0
    6.8992  -15.8845   26.2789 C   0  0  0  0  0  0  0  0  0  0  0  0
    7.7537  -16.5643   25.2762 C   0  0  2  0  0  0  0  0  0  0  0  0
    7.7702  -15.7363   24.0596 N   0  0  0  0  0  0  0  0  0  0  0  0
    7.2745  -17.9174   24.9937 C   0  0  0  0  0  0  0  0  0  0  0  0
    6.6211  -18.1816   23.9556 O   0  0  0  0  0  0  0  0  0  0  0  0
    6.1037  -13.5805   26.0991 C   0  0  0  0  0  0  0  0  0  0  0  0
    6.2994  -12.2100   26.2729 C   0  0  0  0  0  0  0  0  0  0  0  0
    7.5496  -18.9417   25.8997 O   0  0  0  0  0  0  0  0  0  0  0  0
  2  4  1  0
  2  1  1  1
  3  2  1  0
  4  5  2  0
  7  9  1  0
  7  6  1  1
  8  7  1  0
  9 10  1  6
 10  4  1  0
 11  9  1  0
 12 11  2  0
 13 14  1  0
 14 15  2  0
 15 16  1  0
 17 16  2  0
 17 18  1  0
 19 18  1  1
 19 21  1  0
 19 20  1  0
 20 11  1  0
 21 25  1  0
 22 21  2  0
 23 17  1  0
 24 14  1  0
 24 23  2  0
M  END
$$$$
