AVY.pdb
     RDKit          3D

 25 25  0  0  1  0  0  0  0  0999 V2000
    9.0286  -19.3302   19.8771 C   0  0  0  0  0  0  0  0  0  0  0  0
    9.4667  -18.0854   19.1747 C   0  0  2  0  0  0  0  0  0  0  0  0
   10.7506  -18.2834   18.5857 N   0  0  0  0  0  0  0  0  0  0  0  0
    9.4666  -16.8895   20.0449 C   0  0  0  0  0  0  0  0  0  0  0  0
   10.4592  -16.6450   20.7673 O   0  0  0  0  0  0  0  0  0  0  0  0
    7.2242  -12.6843   21.5503 C   0  0  0  0  0  0  0  0  0  0  0  0
    7.2899  -13.8399   20.5778 C   0  0  1  0  0  0  0  0  0  0  0  0
    7.4617  -13.3056   19.1957 C   0  0  0  0  0  0  0  0  0  0  0  0
    8.3611  -14.8326   20.9648 C   0  0  2  0  0  0  0  0  0  0  0  0
    8.3706  -15.9891   20.0988 N   0  0  0  0  0  0  0  0  0  0  0  0
    8.1766  -15.2007   22.3894 C   0  0  0  0  0  0  0  0  0  0  0  0
    7.4156  -16.1647   22.7302 O   0  0  0  0  0  0  0  0  0  0  0  0
   10.5578  -15.7800   30.9292 O   0  0  0  0  0  0  0  0  0  0  0  0
   10.4513  -15.5660   29.5736 C   0  0  0  0  0  0  0  0  0  0  0  0
   10.3573  -14.2523   29.1174 C   0  0  0  0  0  0  0  0  0  0  0  0
   10.2496  -14.0205   27.7569 C   0  0  0  0  0  0  0  0  0  0  0  0
   10.2325  -15.0518   26.8365 C   0  0  0  0  0  0  0  0  0  0  0  0
   10.1120  -14.7984   25.4093 C   0  0  0  0  0  0  0  0  0  0  0  0
    8.7508  -14.8470   24.8242 C   0  0  2  0  0  0  0  0  0  0  0  0
    8.8547  -14.4739   23.4044 N   0  0  0  0  0  0  0  0  0  0  0  0
    7.8282  -13.9662   25.5407 C   0  0  0  0  0  0  0  0  0  0  0  0
    7.7624  -12.7383   25.2916 O   0  0  0  0  0  0  0  0  0  0  0  0
   10.3251  -16.3507   27.2851 C   0  0  0  0  0  0  0  0  0  0  0  0
   10.4340  -16.5948   28.6545 C   0  0  0  0  0  0  0  0  0  0  0  0
    6.9997  -14.5026   26.5264 O   0  0  0  0  0  0  0  0  0  0  0  0
  2  4  1  0
  2  1  1  1
  3  2  1  0
  4  5  2  0
  7  9  1  0
  7  6  1  1
  8  7  1  0
  9 10  1  6
 10  4  1  0
 11  9  1  0
 12 11  2  0
 13 14  1  0
 14 15  2  0
 15 16  1  0
 17 16  2  0
 17 18  1  0
 19 18  1  1
 19 21  1  0
 19 20  1  0
 20 11  1  0
 21 25  1  0
 22 21  2  0
 23 17  1  0
 24 14  1  0
 24 23  2  0
M  END
$$$$
