AVY.pdb
     RDKit          3D

 25 25  0  0  1  0  0  0  0  0999 V2000
    5.5557  -19.5006   24.0503 C   0  0  0  0  0  0  0  0  0  0  0  0
    5.5224  -19.0170   22.6361 C   0  0  2  0  0  0  0  0  0  0  0  0
    5.4258  -20.1254   21.7435 N   0  0  0  0  0  0  0  0  0  0  0  0
    6.6722  -18.1565   22.2829 C   0  0  0  0  0  0  0  0  0  0  0  0
    7.6888  -18.6614   21.7549 O   0  0  0  0  0  0  0  0  0  0  0  0
    8.6160  -13.6119   21.6879 C   0  0  0  0  0  0  0  0  0  0  0  0
    7.4229  -14.4709   22.0401 C   0  0  1  0  0  0  0  0  0  0  0  0
    6.3555  -14.2664   21.0183 C   0  0  0  0  0  0  0  0  0  0  0  0
    7.8113  -15.9214   22.2065 C   0  0  2  0  0  0  0  0  0  0  0  0
    6.6752  -16.7571   22.5202 N   0  0  0  0  0  0  0  0  0  0  0  0
    8.8761  -16.0142   23.2344 C   0  0  0  0  0  0  0  0  0  0  0  0
    8.6164  -15.8540   24.4719 O   0  0  0  0  0  0  0  0  0  0  0  0
    8.9236  -19.0292   29.3264 O   0  0  0  0  0  0  0  0  0  0  0  0
    9.4588  -18.7570   28.0876 C   0  0  0  0  0  0  0  0  0  0  0  0
    9.4485  -19.7670   27.1271 C   0  0  0  0  0  0  0  0  0  0  0  0
    9.9829  -19.5088   25.8765 C   0  0  0  0  0  0  0  0  0  0  0  0
   10.5265  -18.2802   25.5506 C   0  0  0  0  0  0  0  0  0  0  0  0
   11.0920  -18.0210   24.2359 C   0  0  0  0  0  0  0  0  0  0  0  0
   11.2581  -16.6031   23.8364 C   0  0  2  0  0  0  0  0  0  0  0  0
   10.2155  -16.2864   22.8471 N   0  0  0  0  0  0  0  0  0  0  0  0
   12.5958  -16.3510   23.3004 C   0  0  0  0  0  0  0  0  0  0  0  0
   12.8099  -16.2891   22.0657 O   0  0  0  0  0  0  0  0  0  0  0  0
   10.5378  -17.2809   26.4984 C   0  0  0  0  0  0  0  0  0  0  0  0
   10.0015  -17.5311   27.7619 C   0  0  0  0  0  0  0  0  0  0  0  0
   13.6620  -16.1747   24.1823 O   0  0  0  0  0  0  0  0  0  0  0  0
  2  4  1  0
  2  1  1  1
  3  2  1  0
  4  5  2  0
  7  9  1  0
  7  6  1  6
  8  7  1  0
  9 10  1  1
 10  4  1  0
 11  9  1  0
 12 11  2  0
 13 14  1  0
 14 15  2  0
 15 16  1  0
 17 16  2  0
 17 18  1  0
 19 18  1  6
 19 21  1  0
 19 20  1  0
 20 11  1  0
 21 25  1  0
 22 21  2  0
 23 17  1  0
 24 14  1  0
 24 23  2  0
M  END
$$$$
