AVY.pdb
     RDKit          3D

 25 25  0  0  1  0  0  0  0  0999 V2000
    7.2325  -19.3677   19.8738 C   0  0  0  0  0  0  0  0  0  0  0  0
    7.3186  -18.1223   19.0513 C   0  0  2  0  0  0  0  0  0  0  0  0
    7.7655  -18.4376   17.7338 N   0  0  0  0  0  0  0  0  0  0  0  0
    8.1692  -17.0757   19.6582 C   0  0  0  0  0  0  0  0  0  0  0  0
    9.4013  -17.0688   19.4370 O   0  0  0  0  0  0  0  0  0  0  0  0
    7.2660  -13.2743   19.7101 C   0  0  0  0  0  0  0  0  0  0  0  0
    7.7478  -13.6802   21.0843 C   0  0  1  0  0  0  0  0  0  0  0  0
    6.5950  -13.6612   22.0310 C   0  0  0  0  0  0  0  0  0  0  0  0
    8.4643  -15.0099   21.0526 C   0  0  2  0  0  0  0  0  0  0  0  0
    7.6413  -16.0591   20.4964 N   0  0  0  0  0  0  0  0  0  0  0  0
    8.9321  -15.3313   22.4226 C   0  0  0  0  0  0  0  0  0  0  0  0
    8.2522  -16.0845   23.1939 O   0  0  0  0  0  0  0  0  0  0  0  0
   10.6226  -15.4118   30.6877 O   0  0  0  0  0  0  0  0  0  0  0  0
   10.3471  -15.3279   29.3416 C   0  0  0  0  0  0  0  0  0  0  0  0
   10.4933  -14.0924   28.7130 C   0  0  0  0  0  0  0  0  0  0  0  0
   10.2201  -13.9917   27.3597 C   0  0  0  0  0  0  0  0  0  0  0  0
    9.8068  -15.0786   26.6121 C   0  0  0  0  0  0  0  0  0  0  0  0
    9.5154  -14.9611   25.1919 C   0  0  0  0  0  0  0  0  0  0  0  0
   10.6559  -15.0842   24.2530 C   0  0  2  0  0  0  0  0  0  0  0  0
   10.1596  -14.7967   22.8977 N   0  0  0  0  0  0  0  0  0  0  0  0
   11.2688  -16.4107   24.3260 C   0  0  0  0  0  0  0  0  0  0  0  0
   12.4302  -16.5762   24.7710 O   0  0  0  0  0  0  0  0  0  0  0  0
    9.6615  -16.3003   27.2313 C   0  0  0  0  0  0  0  0  0  0  0  0
    9.9345  -16.4122   28.5950 C   0  0  0  0  0  0  0  0  0  0  0  0
   10.5457  -17.5212   23.8906 O   0  0  0  0  0  0  0  0  0  0  0  0
  2  4  1  0
  2  1  1  1
  3  2  1  0
  4  5  2  0
  7  9  1  0
  7  6  1  6
  8  7  1  0
  9 10  1  1
 10  4  1  0
 11  9  1  0
 12 11  2  0
 13 14  1  0
 14 15  2  0
 15 16  1  0
 17 16  2  0
 17 18  1  0
 19 18  1  1
 19 21  1  0
 19 20  1  0
 20 11  1  0
 21 25  1  0
 22 21  2  0
 23 17  1  0
 24 14  1  0
 24 23  2  0
M  END
$$$$
