AVY.pdb
     RDKit          3D

 25 25  0  0  1  0  0  0  0  0999 V2000
    4.8395  -18.1728   22.3346 C   0  0  0  0  0  0  0  0  0  0  0  0
    5.4340  -17.8994   20.9904 C   0  0  2  0  0  0  0  0  0  0  0  0
    5.6669  -19.1262   20.3010 N   0  0  0  0  0  0  0  0  0  0  0  0
    6.6684  -17.0869   21.0489 C   0  0  0  0  0  0  0  0  0  0  0  0
    7.7772  -17.6488   21.1969 O   0  0  0  0  0  0  0  0  0  0  0  0
    8.9622  -12.7055   20.4770 C   0  0  0  0  0  0  0  0  0  0  0  0
    7.6851  -13.5116   20.4096 C   0  0  1  0  0  0  0  0  0  0  0  0
    7.2232  -13.5768   18.9927 C   0  0  0  0  0  0  0  0  0  0  0  0
    7.8535  -14.8746   21.0394 C   0  0  2  0  0  0  0  0  0  0  0  0
    6.6523  -15.6716   20.9426 N   0  0  0  0  0  0  0  0  0  0  0  0
    8.2978  -14.6987   22.4432 C   0  0  0  0  0  0  0  0  0  0  0  0
    7.6893  -13.9068   23.2351 O   0  0  0  0  0  0  0  0  0  0  0  0
    5.4145  -11.6921   27.2400 O   0  0  0  0  0  0  0  0  0  0  0  0
    6.2699  -12.6581   26.7603 C   0  0  0  0  0  0  0  0  0  0  0  0
    5.7671  -13.5997   25.8640 C   0  0  0  0  0  0  0  0  0  0  0  0
    6.6147  -14.5776   25.3725 C   0  0  0  0  0  0  0  0  0  0  0  0
    7.9446  -14.6492   25.7430 C   0  0  0  0  0  0  0  0  0  0  0  0
    8.8256  -15.6848   25.2263 C   0  0  0  0  0  0  0  0  0  0  0  0
    9.9081  -15.2584   24.3077 C   0  0  2  0  0  0  0  0  0  0  0  0
    9.4213  -15.4201   22.9283 N   0  0  0  0  0  0  0  0  0  0  0  0
   11.1343  -16.0238   24.5335 C   0  0  0  0  0  0  0  0  0  0  0  0
   11.4432  -17.0015   23.8104 O   0  0  0  0  0  0  0  0  0  0  0  0
    8.4434  -13.7198   26.6286 C   0  0  0  0  0  0  0  0  0  0  0  0
    7.5972  -12.7302   27.1297 C   0  0  0  0  0  0  0  0  0  0  0  0
   11.9834  -15.6593   25.5785 O   0  0  0  0  0  0  0  0  0  0  0  0
  2  4  1  0
  2  1  1  1
  3  2  1  0
  4  5  2  0
  7  9  1  0
  7  6  1  6
  8  7  1  0
  9 10  1  1
 10  4  1  0
 11  9  1  0
 12 11  2  0
 13 14  1  0
 14 15  2  0
 15 16  1  0
 17 16  2  0
 17 18  1  0
 19 18  1  1
 19 21  1  0
 19 20  1  0
 20 11  1  0
 21 25  1  0
 22 21  2  0
 23 17  1  0
 24 14  1  0
 24 23  2  0
M  END
$$$$
