RRG.pdb
     RDKit          3D

 27 26  0  0  1  0  0  0  0  0999 V2000
   11.6271  -22.8999   15.1109 N   0  0  0  0  0  0  0  0  0  0  0  0
   10.8058  -21.8567   14.6255 C   0  0  0  0  0  0  0  0  0  0  0  0
   11.0724  -21.3849   13.4445 N   0  0  0  0  0  0  0  0  0  0  0  0
    9.7295  -21.3005   15.3296 N   0  0  0  0  0  0  0  0  0  0  0  0
    9.8392  -20.7212   16.6760 C   0  0  0  0  0  0  0  0  0  0  0  0
   10.6928  -19.4837   16.5467 C   0  0  0  0  0  0  0  0  0  0  0  0
   10.9679  -18.8309   17.8707 C   0  0  0  0  0  0  0  0  0  0  0  0
    9.8077  -17.9733   18.2993 C   0  0  2  0  0  0  0  0  0  0  0  0
    9.4865  -17.0342   17.2463 N   0  0  0  0  0  0  0  0  0  0  0  0
   10.2515  -17.2141   19.5162 C   0  0  0  0  0  0  0  0  0  0  0  0
   11.0991  -16.2772   19.3716 O   0  0  0  0  0  0  0  0  0  0  0  0
   10.6240  -20.5301   13.0489 N   0  0  0  0  0  0  0  0  0  0  0  0
    7.5873  -11.9684   21.2432 C   0  0  0  0  0  0  0  0  0  0  0  0
    7.3377  -12.7704   20.0738 N   0  0  0  0  0  0  0  0  0  0  0  0
    6.9125  -12.1335   19.0289 N   0  0  0  0  0  0  0  0  0  0  0  0
    7.5585  -14.1591   20.1000 C   0  0  0  0  0  0  0  0  0  0  0  0
    7.2805  -14.9059   21.2957 C   0  0  0  0  0  0  0  0  0  0  0  0
    8.4093  -14.9727   22.2498 C   0  0  0  0  0  0  0  0  0  0  0  0
    8.9397  -16.2793   22.6542 C   0  0  2  0  0  0  0  0  0  0  0  0
   10.1101  -16.8612   21.9873 N   0  0  0  0  0  0  0  0  0  0  0  0
    9.7166  -17.5653   20.7646 C   0  0  0  0  0  0  0  0  0  0  0  0
   11.0785  -17.6533   22.7608 O   0  0  0  0  0  0  0  0  0  0  0  0
   10.7175  -18.6275   23.4672 N   0  0  0  0  0  0  0  0  0  0  0  0
    6.7375  -12.5302   18.1014 C   0  0  0  0  0  0  0  0  0  0  0  0
   12.4743  -17.3473   22.7591 C   0  0  0  0  0  0  0  0  0  0  0  0
   13.1661  -16.9129   23.9233 O   0  0  0  0  0  0  0  0  0  0  0  0
   14.6009  -16.6279   23.8191 O   0  0  0  0  0  0  0  0  0  0  0  0
  2  1  1  0
  3  2  2  0
  4  2  1  0
  5  4  1  0
  6  5  1  0
  7  8  1  0
  7  6  1  0
  8 10  1  0
  8  9  1  6
 10 11  2  0
 13 12  1  0
 13 14  2  0
 15 16  1  0
 15 13  1  0
 17 16  1  0
 18 17  1  0
 19 18  1  6
 19 21  1  0
 20 10  1  0
 20 19  1  0
 21 22  2  0
 23 24  1  0
 23 21  1  0
 25 26  1  0
 25 24  1  0
 27 25  2  0
M  END
$$$$
