RRG.pdb
     RDKit          3D

 27 26  0  0  1  0  0  0  0  0999 V2000
   15.6877  -22.2998   18.8225 N   0  0  0  0  0  0  0  0  0  0  0  0
   14.8164  -22.3672   17.7113 C   0  0  0  0  0  0  0  0  0  0  0  0
   15.3067  -22.8090   16.5920 N   0  0  0  0  0  0  0  0  0  0  0  0
   13.4668  -21.9913   17.7365 N   0  0  0  0  0  0  0  0  0  0  0  0
   12.7814  -21.4673   18.9265 C   0  0  0  0  0  0  0  0  0  0  0  0
   13.5852  -20.2824   19.4025 C   0  0  0  0  0  0  0  0  0  0  0  0
   13.0329  -19.6779   20.6612 C   0  0  0  0  0  0  0  0  0  0  0  0
   12.6962  -18.2251   20.4578 C   0  0  2  0  0  0  0  0  0  0  0  0
   13.8910  -17.5008   20.0815 N   0  0  0  0  0  0  0  0  0  0  0  0
   12.1996  -17.7031   21.7750 C   0  0  0  0  0  0  0  0  0  0  0  0
   13.0227  -17.6080   22.7397 O   0  0  0  0  0  0  0  0  0  0  0  0
   14.7565  -22.8813   15.7086 N   0  0  0  0  0  0  0  0  0  0  0  0
    7.6251  -12.3907   21.2080 C   0  0  0  0  0  0  0  0  0  0  0  0
    8.1348  -12.9810   19.9977 N   0  0  0  0  0  0  0  0  0  0  0  0
    8.7047  -12.1678   19.1658 N   0  0  0  0  0  0  0  0  0  0  0  0
    8.0077  -14.3629   19.7688 C   0  0  0  0  0  0  0  0  0  0  0  0
    7.9155  -15.2675   20.8815 C   0  0  0  0  0  0  0  0  0  0  0  0
    9.0190  -15.1463   21.8596 C   0  0  0  0  0  0  0  0  0  0  0  0
    9.0980  -16.0867   22.9827 C   0  0  2  0  0  0  0  0  0  0  0  0
   10.2797  -16.9340   23.1796 N   0  0  0  0  0  0  0  0  0  0  0  0
   10.8496  -17.3406   21.8930 C   0  0  0  0  0  0  0  0  0  0  0  0
   10.2218  -18.0710   24.1111 O   0  0  0  0  0  0  0  0  0  0  0  0
    9.3331  -18.9542   24.0176 N   0  0  0  0  0  0  0  0  0  0  0  0
    9.1327  -12.4131   18.2686 C   0  0  0  0  0  0  0  0  0  0  0  0
   11.1629  -18.2213   25.1757 C   0  0  0  0  0  0  0  0  0  0  0  0
   10.7685  -18.4696   26.5194 O   0  0  0  0  0  0  0  0  0  0  0  0
   11.8118  -18.7035   27.5231 O   0  0  0  0  0  0  0  0  0  0  0  0
  2  1  1  0
  3  2  2  0
  4  2  1  0
  5  4  1  0
  6  5  1  0
  7  8  1  0
  7  6  1  0
  8 10  1  0
  8  9  1  1
 10 11  2  0
 13 12  1  0
 13 14  2  0
 15 16  1  0
 15 13  1  0
 17 16  1  0
 18 17  1  0
 19 18  1  1
 19 21  1  0
 20 10  1  0
 20 19  1  0
 21 22  2  0
 23 24  1  0
 23 21  1  0
 25 26  1  0
 25 24  1  0
 27 25  2  0
M  END
$$$$
