RRG.pdb
     RDKit          3D

 27 26  0  0  1  0  0  0  0  0999 V2000
    9.5272  -19.2336   19.7367 N   0  0  0  0  0  0  0  0  0  0  0  0
   10.6472  -18.6347   19.1161 C   0  0  0  0  0  0  0  0  0  0  0  0
   11.2228  -19.2935   18.1553 N   0  0  0  0  0  0  0  0  0  0  0  0
   11.1752  -17.3849   19.4663 N   0  0  0  0  0  0  0  0  0  0  0  0
   10.6282  -16.5299   20.5295 C   0  0  0  0  0  0  0  0  0  0  0  0
    9.3471  -15.9394   19.9941 C   0  0  0  0  0  0  0  0  0  0  0  0
    8.6853  -15.0123   20.9724 C   0  0  0  0  0  0  0  0  0  0  0  0
    7.3974  -15.5998   21.4840 C   0  0  2  0  0  0  0  0  0  0  0  0
    6.2857  -15.0461   20.7414 N   0  0  0  0  0  0  0  0  0  0  0  0
    7.2752  -15.1965   22.9250 C   0  0  0  0  0  0  0  0  0  0  0  0
    6.9362  -14.0009   23.1943 O   0  0  0  0  0  0  0  0  0  0  0  0
   12.1143  -18.9951   17.7031 N   0  0  0  0  0  0  0  0  0  0  0  0
    7.9696  -21.7407   25.1713 C   0  0  0  0  0  0  0  0  0  0  0  0
    7.2473  -21.3113   26.3405 N   0  0  0  0  0  0  0  0  0  0  0  0
    7.2042  -22.1550   27.3226 N   0  0  0  0  0  0  0  0  0  0  0  0
    6.6417  -20.0425   26.3797 C   0  0  0  0  0  0  0  0  0  0  0  0
    6.5584  -19.2516   25.1829 C   0  0  0  0  0  0  0  0  0  0  0  0
    5.9735  -17.9069   25.3795 C   0  0  0  0  0  0  0  0  0  0  0  0
    6.7466  -16.8762   26.0808 C   0  0  2  0  0  0  0  0  0  0  0  0
    7.4413  -15.8160   25.3415 N   0  0  0  0  0  0  0  0  0  0  0  0
    7.5390  -16.1508   23.9189 C   0  0  0  0  0  0  0  0  0  0  0  0
    8.7171  -15.2840   25.8445 O   0  0  0  0  0  0  0  0  0  0  0  0
    9.6429  -14.9466   25.0650 N   0  0  0  0  0  0  0  0  0  0  0  0
    6.7569  -22.0106   28.2323 C   0  0  0  0  0  0  0  0  0  0  0  0
    8.9731  -15.1369   27.2425 C   0  0  0  0  0  0  0  0  0  0  0  0
   10.1489  -14.5152   27.7463 O   0  0  0  0  0  0  0  0  0  0  0  0
   10.3540  -14.4784   29.1979 O   0  0  0  0  0  0  0  0  0  0  0  0
  2  1  1  0
  3  2  2  0
  4  2  1  0
  5  4  1  0
  6  5  1  0
  7  8  1  0
  7  6  1  0
  8 10  1  0
  8  9  1  6
 10 11  2  0
 13 12  1  0
 13 14  2  0
 15 16  1  0
 15 13  1  0
 17 16  1  0
 18 17  1  0
 19 18  1  6
 19 21  1  0
 20 10  1  0
 20 19  1  0
 21 22  2  0
 23 24  1  0
 23 21  1  0
 25 26  1  0
 25 24  1  0
 27 25  2  0
M  END
$$$$
