RRG.pdb
     RDKit          3D

 27 26  0  0  1  0  0  0  0  0999 V2000
   14.5202  -20.3977   14.5071 N   0  0  0  0  0  0  0  0  0  0  0  0
   14.8528  -21.6827   14.9935 C   0  0  0  0  0  0  0  0  0  0  0  0
   14.8556  -22.6633   14.1410 N   0  0  0  0  0  0  0  0  0  0  0  0
   15.1778  -21.9676   16.3264 N   0  0  0  0  0  0  0  0  0  0  0  0
   15.2693  -20.9524   17.3854 C   0  0  0  0  0  0  0  0  0  0  0  0
   13.8538  -20.6032   17.7739 C   0  0  0  0  0  0  0  0  0  0  0  0
   13.7916  -19.6224   18.9091 C   0  0  0  0  0  0  0  0  0  0  0  0
   13.2180  -18.3075   18.4535 C   0  0  2  0  0  0  0  0  0  0  0  0
   14.2733  -17.4861   17.9007 N   0  0  0  0  0  0  0  0  0  0  0  0
   12.6552  -17.6312   19.6701 C   0  0  0  0  0  0  0  0  0  0  0  0
   13.4069  -16.8471   20.3312 O   0  0  0  0  0  0  0  0  0  0  0  0
   15.0843  -23.6491   14.3947 N   0  0  0  0  0  0  0  0  0  0  0  0
    7.6951  -11.9097   20.4444 C   0  0  0  0  0  0  0  0  0  0  0  0
    7.4763  -12.4167   21.7741 N   0  0  0  0  0  0  0  0  0  0  0  0
    7.2066  -11.5324   22.6815 N   0  0  0  0  0  0  0  0  0  0  0  0
    7.5540  -13.7968   22.0338 C   0  0  0  0  0  0  0  0  0  0  0  0
    8.4401  -14.6222   21.2602 C   0  0  0  0  0  0  0  0  0  0  0  0
    8.4467  -16.0480   21.6553 C   0  0  0  0  0  0  0  0  0  0  0  0
    9.2452  -17.0090   20.8867 C   0  0  2  0  0  0  0  0  0  0  0  0
   10.6824  -17.1699   21.1350 N   0  0  0  0  0  0  0  0  0  0  0  0
   11.3245  -17.8886   20.0320 C   0  0  0  0  0  0  0  0  0  0  0  0
   11.1517  -17.6747   22.4344 O   0  0  0  0  0  0  0  0  0  0  0  0
   11.0847  -18.8940   22.7304 N   0  0  0  0  0  0  0  0  0  0  0  0
    7.0329  -11.7103   23.6748 C   0  0  0  0  0  0  0  0  0  0  0  0
   11.6939  -16.8043   23.4295 C   0  0  0  0  0  0  0  0  0  0  0  0
   12.0904  -17.2624   24.7162 O   0  0  0  0  0  0  0  0  0  0  0  0
   11.0761  -17.8638   25.5881 O   0  0  0  0  0  0  0  0  0  0  0  0
  2  1  1  0
  3  2  2  0
  4  2  1  0
  5  4  1  0
  6  5  1  0
  7  8  1  0
  7  6  1  0
  8 10  1  0
  8  9  1  1
 10 11  2  0
 13 12  1  0
 13 14  2  0
 15 16  1  0
 15 13  1  0
 17 16  1  0
 18 17  1  0
 19 18  1  6
 19 21  1  0
 20 10  1  0
 20 19  1  0
 21 22  2  0
 23 24  1  0
 23 21  1  0
 25 26  1  0
 25 24  1  0
 27 25  2  0
M  END
$$$$
