FDG.pdb
     RDKit          3D

 24 24  0  0  1  0  0  0  0  0999 V2000
   17.2404  -17.8841    3.9288 N   0  0  0  0  0  0  0  0  0  0  0  0
   18.3407  -18.3464    4.7514 C   0  0  1  0  0  0  0  0  0  0  0  0
   19.1156  -17.1093    5.1617 C   0  0  0  0  0  0  0  0  0  0  0  0
   19.7246  -16.5298    3.9220 C   0  0  0  0  0  0  0  0  0  0  0  0
   20.8274  -17.1113    3.3382 C   0  0  0  0  0  0  0  0  0  0  0  0
   21.4017  -16.5941    2.2013 C   0  0  0  0  0  0  0  0  0  0  0  0
   20.8624  -15.4625    1.6267 C   0  0  0  0  0  0  0  0  0  0  0  0
   19.7719  -14.8605    2.1770 C   0  0  0  0  0  0  0  0  0  0  0  0
   19.2090  -15.3937    3.3173 C   0  0  0  0  0  0  0  0  0  0  0  0
   17.7991  -19.0608    5.9323 C   0  0  0  0  0  0  0  0  0  0  0  0
   16.5897  -19.3631    5.9417 O   0  0  0  0  0  0  0  0  0  0  0  0
   18.6548  -19.3782    7.0058 N   0  0  0  0  0  0  0  0  0  0  0  0
   18.3236  -20.0707    8.2237 C   0  0  1  0  0  0  0  0  0  0  0  0
   17.4260  -21.2422    7.9651 C   0  0  0  0  0  0  0  0  0  0  0  0
   16.9105  -21.8721    9.1807 C   0  0  0  0  0  0  0  0  0  0  0  0
   16.3333  -21.1902   10.0561 O   0  0  0  0  0  0  0  0  0  0  0  0
   19.4029  -20.2738    9.1805 C   0  0  0  0  0  0  0  0  0  0  0  0
   20.2777  -21.1457    9.0183 O   0  0  0  0  0  0  0  0  0  0  0  0
   17.0526  -23.2323    9.3879 O   0  0  0  0  0  0  0  0  0  0  0  0
   19.4925  -19.4667   10.3531 N   0  0  0  0  0  0  0  0  0  0  0  0
   20.5005  -19.6768   11.3669 C   0  0  0  0  0  0  0  0  0  0  0  0
   21.8474  -19.8931   10.7681 C   0  0  0  0  0  0  0  0  0  0  0  0
   22.2392  -19.0784    9.8996 O   0  0  0  0  0  0  0  0  0  0  0  0
   22.6557  -20.9342   11.1296 O   0  0  0  0  0  0  0  0  0  0  0  0
  2  1  1  6
  2 10  1  0
  3  2  1  0
  4  3  1  0
  5  4  2  0
  6  5  1  0
  7  6  2  0
  7  8  1  0
  8  9  2  0
  9  4  1  0
 10 11  2  0
 10 12  1  0
 12 13  1  0
 13 17  1  0
 14 15  1  0
 13 14  1  6
 15 16  2  0
 17 18  2  0
 17 20  1  0
 19 15  1  0
 20 21  1  0
 21 22  1  0
 22 24  1  0
 23 22  2  0
M  END
$$$$
