FDG.pdb
     RDKit          3D

 24 24  0  0  1  0  0  0  0  0999 V2000
   20.4123   -7.5567  -11.8048 N   0  0  0  0  0  0  0  0  0  0  0  0
   20.5622   -6.9246  -13.1006 C   0  0  1  0  0  0  0  0  0  0  0  0
   20.3319   -8.0103  -14.1339 C   0  0  0  0  0  0  0  0  0  0  0  0
   21.5740   -8.8455  -14.1914 C   0  0  0  0  0  0  0  0  0  0  0  0
   22.6233   -8.4958  -15.0109 C   0  0  0  0  0  0  0  0  0  0  0  0
   23.7709   -9.2496  -15.0790 C   0  0  0  0  0  0  0  0  0  0  0  0
   23.8784  -10.3876  -14.3076 C   0  0  0  0  0  0  0  0  0  0  0  0
   22.8601  -10.7641  -13.4855 C   0  0  0  0  0  0  0  0  0  0  0  0
   21.7167   -9.9954  -13.4301 C   0  0  0  0  0  0  0  0  0  0  0  0
   19.5641   -5.8358  -13.2296 C   0  0  0  0  0  0  0  0  0  0  0  0
   18.5739   -5.8437  -12.4723 O   0  0  0  0  0  0  0  0  0  0  0  0
   19.7556   -4.8278  -14.1952 N   0  0  0  0  0  0  0  0  0  0  0  0
   18.8714   -3.7399  -14.5230 C   0  0  1  0  0  0  0  0  0  0  0  0
   19.6049   -2.6142  -15.1862 C   0  0  0  0  0  0  0  0  0  0  0  0
   18.7975   -1.4078  -15.3678 C   0  0  0  0  0  0  0  0  0  0  0  0
   18.0513   -0.9967  -14.4520 O   0  0  0  0  0  0  0  0  0  0  0  0
   17.5728   -4.0915  -15.0810 C   0  0  0  0  0  0  0  0  0  0  0  0
   17.4585   -4.7872  -16.1080 O   0  0  0  0  0  0  0  0  0  0  0  0
   18.8407   -0.6992  -16.5549 O   0  0  0  0  0  0  0  0  0  0  0  0
   16.3711   -3.6420  -14.4578 N   0  0  0  0  0  0  0  0  0  0  0  0
   15.0601   -4.0267  -14.9279 C   0  0  0  0  0  0  0  0  0  0  0  0
   14.9168   -3.8143  -16.3955 C   0  0  0  0  0  0  0  0  0  0  0  0
   15.0632   -2.6495  -16.8351 O   0  0  0  0  0  0  0  0  0  0  0  0
   14.6352   -4.8321  -17.2630 O   0  0  0  0  0  0  0  0  0  0  0  0
  2  1  1  1
  2 10  1  0
  3  2  1  0
  4  3  1  0
  5  4  2  0
  6  5  1  0
  7  6  2  0
  7  8  1  0
  8  9  2  0
  9  4  1  0
 10 11  2  0
 10 12  1  0
 12 13  1  0
 13 17  1  0
 14 15  1  0
 13 14  1  6
 15 16  2  0
 17 18  2  0
 17 20  1  0
 19 15  1  0
 20 21  1  0
 21 22  1  0
 22 24  1  0
 23 22  2  0
M  END
$$$$
