FDG.pdb
     RDKit          3D

 24 24  0  0  1  0  0  0  0  0999 V2000
   27.5734  -21.1073  -10.3498 N   0  0  0  0  0  0  0  0  0  0  0  0
   26.1781  -20.7216  -10.2777 C   0  0  1  0  0  0  0  0  0  0  0  0
   26.1327  -19.4323   -9.4808 C   0  0  0  0  0  0  0  0  0  0  0  0
   26.7277  -19.7151   -8.1356 C   0  0  0  0  0  0  0  0  0  0  0  0
   27.7750  -18.9628   -7.6539 C   0  0  0  0  0  0  0  0  0  0  0  0
   28.3357  -19.2073   -6.4228 C   0  0  0  0  0  0  0  0  0  0  0  0
   27.8391  -20.2327   -5.6460 C   0  0  0  0  0  0  0  0  0  0  0  0
   26.8039  -20.9976   -6.0905 C   0  0  0  0  0  0  0  0  0  0  0  0
   26.2539  -20.7375   -7.3279 C   0  0  0  0  0  0  0  0  0  0  0  0
   25.6551  -20.5263  -11.6512 C   0  0  0  0  0  0  0  0  0  0  0  0
   26.1853  -19.6581  -12.3718 O   0  0  0  0  0  0  0  0  0  0  0  0
   24.5821  -21.3181  -12.1059 N   0  0  0  0  0  0  0  0  0  0  0  0
   23.8354  -21.1752  -13.3284 C   0  0  1  0  0  0  0  0  0  0  0  0
   24.2028  -22.2315  -14.3254 C   0  0  0  0  0  0  0  0  0  0  0  0
   25.6121  -22.2104  -14.7176 C   0  0  0  0  0  0  0  0  0  0  0  0
   26.4201  -23.0344  -14.2352 O   0  0  0  0  0  0  0  0  0  0  0  0
   22.4189  -20.8607  -13.2024 C   0  0  0  0  0  0  0  0  0  0  0  0
   21.7092  -20.5898  -14.1897 O   0  0  0  0  0  0  0  0  0  0  0  0
   26.0800  -21.2787  -15.6266 O   0  0  0  0  0  0  0  0  0  0  0  0
   21.7899  -20.8527  -11.9222 N   0  0  0  0  0  0  0  0  0  0  0  0
   20.3931  -20.5291  -11.7438 C   0  0  0  0  0  0  0  0  0  0  0  0
   19.5135  -21.6869  -12.0684 C   0  0  0  0  0  0  0  0  0  0  0  0
   20.0609  -22.7507  -12.4426 O   0  0  0  0  0  0  0  0  0  0  0  0
   18.1514  -21.6267  -11.9730 O   0  0  0  0  0  0  0  0  0  0  0  0
  2  1  1  6
  2 10  1  0
  3  2  1  0
  4  3  1  0
  5  4  2  0
  6  5  1  0
  7  6  2  0
  7  8  1  0
  8  9  2  0
  9  4  1  0
 10 11  2  0
 10 12  1  0
 12 13  1  0
 13 17  1  0
 14 15  1  0
 13 14  1  1
 15 16  2  0
 17 18  2  0
 17 20  1  0
 19 15  1  0
 20 21  1  0
 21 22  1  0
 22 24  1  0
 23 22  2  0
M  END
$$$$
