FDG.pdb
     RDKit          3D

 24 24  0  0  1  0  0  0  0  0999 V2000
   25.0086  -31.8316   -6.5632 N   0  0  0  0  0  0  0  0  0  0  0  0
   25.4105  -33.1880   -6.2476 C   0  0  1  0  0  0  0  0  0  0  0  0
   26.6389  -33.4755   -7.0890 C   0  0  0  0  0  0  0  0  0  0  0  0
   26.1758  -33.7062   -8.4947 C   0  0  0  0  0  0  0  0  0  0  0  0
   26.5302  -32.8424   -9.5062 C   0  0  0  0  0  0  0  0  0  0  0  0
   26.1144  -33.0359  -10.8021 C   0  0  0  0  0  0  0  0  0  0  0  0
   25.3207  -34.1230  -11.1017 C   0  0  0  0  0  0  0  0  0  0  0  0
   24.9504  -34.9982  -10.1265 C   0  0  0  0  0  0  0  0  0  0  0  0
   25.3772  -34.7882   -8.8322 C   0  0  0  0  0  0  0  0  0  0  0  0
   25.7140  -33.2815   -4.7994 C   0  0  0  0  0  0  0  0  0  0  0  0
   26.3639  -32.3605   -4.2671 O   0  0  0  0  0  0  0  0  0  0  0  0
   25.2656  -34.3976   -4.0656 N   0  0  0  0  0  0  0  0  0  0  0  0
   25.4750  -34.6781   -2.6692 C   0  0  1  0  0  0  0  0  0  0  0  0
   24.1958  -35.0512   -1.9841 C   0  0  0  0  0  0  0  0  0  0  0  0
   24.3268  -35.2180   -0.5366 C   0  0  0  0  0  0  0  0  0  0  0  0
   25.4011  -34.9427    0.0418 O   0  0  0  0  0  0  0  0  0  0  0  0
   26.6532  -35.4617   -2.3240 C   0  0  0  0  0  0  0  0  0  0  0  0
   26.7259  -36.6846   -2.5498 O   0  0  0  0  0  0  0  0  0  0  0  0
   23.2679  -35.6851    0.2209 O   0  0  0  0  0  0  0  0  0  0  0  0
   27.7794  -34.8421   -1.7057 N   0  0  0  0  0  0  0  0  0  0  0  0
   29.0144  -35.5482   -1.4532 C   0  0  0  0  0  0  0  0  0  0  0  0
   28.7906  -36.7762   -0.6399 C   0  0  0  0  0  0  0  0  0  0  0  0
   28.1575  -36.6583    0.4355 O   0  0  0  0  0  0  0  0  0  0  0  0
   29.2464  -38.0065   -1.0229 O   0  0  0  0  0  0  0  0  0  0  0  0
  2  1  1  1
  2 10  1  0
  3  2  1  0
  4  3  1  0
  5  4  2  0
  6  5  1  0
  7  6  2  0
  7  8  1  0
  8  9  2  0
  9  4  1  0
 10 11  2  0
 10 12  1  0
 12 13  1  0
 13 17  1  0
 14 15  1  0
 13 14  1  6
 15 16  2  0
 17 18  2  0
 17 20  1  0
 19 15  1  0
 20 21  1  0
 21 22  1  0
 22 24  1  0
 23 22  2  0
M  END
$$$$
