FDG.pdb
     RDKit          3D

 24 24  0  0  1  0  0  0  0  0999 V2000
   26.6344  -22.0573  -13.7468 N   0  0  0  0  0  0  0  0  0  0  0  0
   25.7626  -21.4011  -12.7927 C   0  0  1  0  0  0  0  0  0  0  0  0
   26.3774  -20.0424  -12.5176 C   0  0  0  0  0  0  0  0  0  0  0  0
   27.6264  -20.2679  -11.7222 C   0  0  0  0  0  0  0  0  0  0  0  0
   28.8676  -20.1170  -12.2978 C   0  0  0  0  0  0  0  0  0  0  0  0
   30.0255  -20.3206  -11.5853 C   0  0  0  0  0  0  0  0  0  0  0  0
   29.9465  -20.6862  -10.2580 C   0  0  0  0  0  0  0  0  0  0  0  0
   28.7356  -20.8449   -9.6557 C   0  0  0  0  0  0  0  0  0  0  0  0
   27.5848  -20.6361  -10.3861 C   0  0  0  0  0  0  0  0  0  0  0  0
   24.4074  -21.2718  -13.3799 C   0  0  0  0  0  0  0  0  0  0  0  0
   24.2967  -21.2495  -14.6214 O   0  0  0  0  0  0  0  0  0  0  0  0
   23.2874  -21.1778  -12.5303 N   0  0  0  0  0  0  0  0  0  0  0  0
   21.9187  -20.9257  -12.8985 C   0  0  1  0  0  0  0  0  0  0  0  0
   20.9644  -21.4740  -11.8819 C   0  0  0  0  0  0  0  0  0  0  0  0
   19.5608  -21.4000  -12.2876 C   0  0  0  0  0  0  0  0  0  0  0  0
   18.9239  -20.3283  -12.1862 O   0  0  0  0  0  0  0  0  0  0  0  0
   21.6133  -19.6070  -13.4362 C   0  0  0  0  0  0  0  0  0  0  0  0
   21.6475  -18.5796  -12.7325 O   0  0  0  0  0  0  0  0  0  0  0  0
   18.9092  -22.5125  -12.7887 O   0  0  0  0  0  0  0  0  0  0  0  0
   21.2591  -19.4488  -14.8088 N   0  0  0  0  0  0  0  0  0  0  0  0
   21.0135  -18.1556  -15.4048 C   0  0  0  0  0  0  0  0  0  0  0  0
   20.6430  -18.2732  -16.8430 C   0  0  0  0  0  0  0  0  0  0  0  0
   21.0153  -19.2982  -17.4611 O   0  0  0  0  0  0  0  0  0  0  0  0
   19.9224  -17.3147  -17.4987 O   0  0  0  0  0  0  0  0  0  0  0  0
  2  1  1  6
  2 10  1  0
  3  2  1  0
  4  3  1  0
  5  4  2  0
  6  5  1  0
  7  6  2  0
  7  8  1  0
  8  9  2  0
  9  4  1  0
 10 11  2  0
 10 12  1  0
 12 13  1  0
 13 17  1  0
 14 15  1  0
 13 14  1  1
 15 16  2  0
 17 18  2  0
 17 20  1  0
 19 15  1  0
 20 21  1  0
 21 22  1  0
 22 24  1  0
 23 22  2  0
M  END
$$$$
