FDG.pdb
     RDKit          3D

 24 24  0  0  1  0  0  0  0  0999 V2000
   17.9827  -11.9890    5.0943 N   0  0  0  0  0  0  0  0  0  0  0  0
   17.6267  -13.2815    4.5432 C   0  0  1  0  0  0  0  0  0  0  0  0
   18.4660  -13.4577    3.2927 C   0  0  0  0  0  0  0  0  0  0  0  0
   18.0877  -14.7711    2.6799 C   0  0  0  0  0  0  0  0  0  0  0  0
   19.0511  -15.6838    2.3139 C   0  0  0  0  0  0  0  0  0  0  0  0
   18.7244  -16.8937    1.7489 C   0  0  0  0  0  0  0  0  0  0  0  0
   17.3975  -17.2059    1.5411 C   0  0  0  0  0  0  0  0  0  0  0  0
   16.4177  -16.3272    1.8905 C   0  0  0  0  0  0  0  0  0  0  0  0
   16.7642  -15.1185    2.4563 C   0  0  0  0  0  0  0  0  0  0  0  0
   17.9207  -14.3353    5.5438 C   0  0  0  0  0  0  0  0  0  0  0  0
   18.9704  -14.2465    6.2105 O   0  0  0  0  0  0  0  0  0  0  0  0
   17.0165  -15.4020    5.7166 N   0  0  0  0  0  0  0  0  0  0  0  0
   17.0740  -16.4589    6.6924 C   0  0  1  0  0  0  0  0  0  0  0  0
   16.1102  -16.2253    7.8155 C   0  0  0  0  0  0  0  0  0  0  0  0
   16.2390  -17.1824    8.9143 C   0  0  0  0  0  0  0  0  0  0  0  0
   15.3066  -17.9710    9.1851 O   0  0  0  0  0  0  0  0  0  0  0  0
   17.1667  -17.8206    6.1840 C   0  0  0  0  0  0  0  0  0  0  0  0
   17.3258  -18.8002    6.9368 O   0  0  0  0  0  0  0  0  0  0  0  0
   17.3919  -17.2336    9.6770 O   0  0  0  0  0  0  0  0  0  0  0  0
   17.0768  -18.0787    4.7840 N   0  0  0  0  0  0  0  0  0  0  0  0
   17.2020  -19.4065    4.2282 C   0  0  0  0  0  0  0  0  0  0  0  0
   15.8997  -20.1300    4.2309 C   0  0  0  0  0  0  0  0  0  0  0  0
   14.9182  -19.5658    4.7690 O   0  0  0  0  0  0  0  0  0  0  0  0
   15.7441  -21.3688    3.6748 O   0  0  0  0  0  0  0  0  0  0  0  0
  2  1  1  1
  2 10  1  0
  3  2  1  0
  4  3  1  0
  5  4  2  0
  6  5  1  0
  7  6  2  0
  7  8  1  0
  8  9  2  0
  9  4  1  0
 10 11  2  0
 10 12  1  0
 12 13  1  0
 13 17  1  0
 14 15  1  0
 13 14  1  6
 15 16  2  0
 17 18  2  0
 17 20  1  0
 19 15  1  0
 20 21  1  0
 21 22  1  0
 22 24  1  0
 23 22  2  0
M  END
$$$$
