FDG.pdb
     RDKit          3D

 24 24  0  0  1  0  0  0  0  0999 V2000
   22.4903   -9.1414  -17.3646 N   0  0  0  0  0  0  0  0  0  0  0  0
   21.1621   -8.5757  -17.2345 C   0  0  1  0  0  0  0  0  0  0  0  0
   20.2437   -9.7241  -16.8644 C   0  0  0  0  0  0  0  0  0  0  0  0
   20.1772  -10.6436  -18.0450 C   0  0  0  0  0  0  0  0  0  0  0  0
   20.9213  -11.8012  -18.0818 C   0  0  0  0  0  0  0  0  0  0  0  0
   20.8753  -12.6573  -19.1565 C   0  0  0  0  0  0  0  0  0  0  0  0
   20.0634  -12.3525  -20.2287 C   0  0  0  0  0  0  0  0  0  0  0  0
   19.3135  -11.2159  -20.2267 C   0  0  0  0  0  0  0  0  0  0  0  0
   19.3723  -10.3692  -19.1400 C   0  0  0  0  0  0  0  0  0  0  0  0
   21.1774   -7.5347  -16.1789 C   0  0  0  0  0  0  0  0  0  0  0  0
   21.8004   -7.7661  -15.1241 O   0  0  0  0  0  0  0  0  0  0  0  0
   20.4946   -6.3204  -16.3897 N   0  0  0  0  0  0  0  0  0  0  0  0
   20.4478   -5.1719  -15.5229 C   0  0  1  0  0  0  0  0  0  0  0  0
   21.7952   -4.8620  -14.9454 C   0  0  0  0  0  0  0  0  0  0  0  0
   21.9537   -5.2846  -13.5538 C   0  0  0  0  0  0  0  0  0  0  0  0
   22.9857   -4.9889  -12.9118 O   0  0  0  0  0  0  0  0  0  0  0  0
   19.6546   -4.0371  -15.9750 C   0  0  0  0  0  0  0  0  0  0  0  0
   19.5323   -3.0004  -15.2953 O   0  0  0  0  0  0  0  0  0  0  0  0
   20.9685   -6.0209  -12.9210 O   0  0  0  0  0  0  0  0  0  0  0  0
   18.9813   -4.0790  -17.2318 N   0  0  0  0  0  0  0  0  0  0  0  0
   18.1348   -3.0043  -17.6970 C   0  0  0  0  0  0  0  0  0  0  0  0
   17.0311   -2.7179  -16.7383 C   0  0  0  0  0  0  0  0  0  0  0  0
   16.2593   -1.7660  -17.0022 O   0  0  0  0  0  0  0  0  0  0  0  0
   16.8368   -3.4478  -15.5993 O   0  0  0  0  0  0  0  0  0  0  0  0
  2  1  1  1
  2 10  1  0
  3  2  1  0
  4  3  1  0
  5  4  2  0
  6  5  1  0
  7  6  2  0
  7  8  1  0
  8  9  2  0
  9  4  1  0
 10 11  2  0
 10 12  1  0
 12 13  1  0
 13 17  1  0
 14 15  1  0
 13 14  1  6
 15 16  2  0
 17 18  2  0
 17 20  1  0
 19 15  1  0
 20 21  1  0
 21 22  1  0
 22 24  1  0
 23 22  2  0
M  END
$$$$
