EIL.pdb
     RDKit          3D

 26 25  0  0  1  0  0  0  0  0999 V2000
   22.9380  -10.9137  -20.2162 N   0  0  0  0  0  0  0  0  0  0  0  0
   23.2625   -9.6666  -19.5878 C   0  0  1  0  0  0  0  0  0  0  0  0
   23.2048   -8.5334  -20.5427 C   0  0  0  0  0  0  0  0  0  0  0  0
   24.2079   -8.5262  -21.6274 C   0  0  0  0  0  0  0  0  0  0  0  0
   24.5851   -7.2634  -22.2402 C   0  0  0  0  0  0  0  0  0  0  0  0
   24.4915   -6.1116  -21.8060 O   0  0  0  0  0  0  0  0  0  0  0  0
   22.3415   -9.3948  -18.4332 C   0  0  0  0  0  0  0  0  0  0  0  0
   21.1324   -9.7580  -18.5858 O   0  0  0  0  0  0  0  0  0  0  0  0
   25.1515   -7.3506  -23.5416 O   0  0  0  0  0  0  0  0  0  0  0  0
   23.4357  -10.7753  -13.5603 C   0  0  0  0  0  0  0  0  0  0  0  0
   22.7675  -10.4256  -14.9030 C   0  0  0  0  0  0  0  0  0  0  0  0
   22.3879   -8.9871  -14.9471 C   0  0  2  0  0  0  0  0  0  0  0  0
   21.6055   -8.5464  -13.7236 C   0  0  0  0  0  0  0  0  0  0  0  0
   21.8043   -8.4779  -16.2115 C   0  0  2  0  0  0  0  0  0  0  0  0
   22.8034   -8.7733  -17.2541 N   0  0  0  0  0  0  0  0  0  0  0  0
   21.4173   -7.0617  -16.2403 C   0  0  0  0  0  0  0  0  0  0  0  0
   22.3601   -6.2138  -16.1042 O   0  0  0  0  0  0  0  0  0  0  0  0
   18.9372   -2.9738  -19.5220 C   0  0  0  0  0  0  0  0  0  0  0  0
   19.2515   -3.3275  -18.1211 C   0  0  1  0  0  0  0  0  0  0  0  0
   18.1970   -2.6703  -17.2205 C   0  0  0  0  0  0  0  0  0  0  0  0
   19.5131   -4.7125  -17.7947 C   0  0  0  0  0  0  0  0  0  0  0  0
   19.8578   -5.1221  -16.4283 C   0  0  2  0  0  0  0  0  0  0  0  0
   20.1333   -6.5725  -16.4040 N   0  0  0  0  0  0  0  0  0  0  0  0
   18.8431   -4.8968  -15.4158 C   0  0  0  0  0  0  0  0  0  0  0  0
   17.9233   -5.7000  -15.1754 O   0  0  0  0  0  0  0  0  0  0  0  0
   18.8547   -3.7393  -14.6454 O   0  0  0  0  0  0  0  0  0  0  0  0
  2  1  1  6
  3  2  1  0
  4  3  1  0
  5  4  1  0
  6  5  2  0
  7  2  1  0
  7  8  2  0
  9  5  1  0
 11 10  1  0
 12 13  1  1
 12 14  1  0
 12 11  1  0
 14 15  1  6
 15  7  1  0
 16 14  1  0
 17 16  2  0
 19 18  1  6
 19 21  1  0
 20 19  1  0
 22 21  1  6
 22 24  1  0
 22 23  1  0
 23 16  1  0
 24 26  1  0
 25 24  2  0
M  END
$$$$
