EIL.pdb
     RDKit          3D

 26 25  0  0  1  0  0  0  0  0999 V2000
   16.3276  -13.7245  -16.4972 N   0  0  0  0  0  0  0  0  0  0  0  0
   16.1169  -12.3294  -16.2426 C   0  0  1  0  0  0  0  0  0  0  0  0
   15.8612  -12.0607  -14.8067 C   0  0  0  0  0  0  0  0  0  0  0  0
   14.5962  -12.5806  -14.2479 C   0  0  0  0  0  0  0  0  0  0  0  0
   13.3417  -12.2633  -14.9096 C   0  0  0  0  0  0  0  0  0  0  0  0
   12.8266  -11.1676  -15.1503 O   0  0  0  0  0  0  0  0  0  0  0  0
   17.2951  -11.5189  -16.7008 C   0  0  0  0  0  0  0  0  0  0  0  0
   18.4214  -12.1090  -16.6788 O   0  0  0  0  0  0  0  0  0  0  0  0
   12.5770  -13.3763  -15.3552 O   0  0  0  0  0  0  0  0  0  0  0  0
   16.2196   -9.2937  -20.5783 C   0  0  0  0  0  0  0  0  0  0  0  0
   17.6468   -9.5532  -20.0611 C   0  0  0  0  0  0  0  0  0  0  0  0
   17.9189   -8.7555  -18.8342 C   0  0  2  0  0  0  0  0  0  0  0  0
   18.7711   -7.5295  -19.1055 C   0  0  0  0  0  0  0  0  0  0  0  0
   18.3535   -9.4967  -17.6257 C   0  0  2  0  0  0  0  0  0  0  0  0
   17.1475  -10.1830  -17.1289 N   0  0  0  0  0  0  0  0  0  0  0  0
   18.9889   -8.7122  -16.5595 C   0  0  0  0  0  0  0  0  0  0  0  0
   18.2101   -8.0192  -15.8250 O   0  0  0  0  0  0  0  0  0  0  0  0
   23.3901  -10.1601  -13.4196 C   0  0  0  0  0  0  0  0  0  0  0  0
   22.1087   -9.5136  -13.7757 C   0  0  1  0  0  0  0  0  0  0  0  0
   21.3429   -9.2359  -12.4753 C   0  0  0  0  0  0  0  0  0  0  0  0
   22.1250   -8.3937  -14.6914 C   0  0  0  0  0  0  0  0  0  0  0  0
   20.8802   -7.8094  -15.2040 C   0  0  2  0  0  0  0  0  0  0  0  0
   20.3438   -8.6628  -16.2830 N   0  0  0  0  0  0  0  0  0  0  0  0
   20.9822   -6.4769  -15.7695 C   0  0  0  0  0  0  0  0  0  0  0  0
   21.0139   -5.4402  -15.0817 O   0  0  0  0  0  0  0  0  0  0  0  0
   21.0522   -6.2943  -17.1461 O   0  0  0  0  0  0  0  0  0  0  0  0
  2  1  1  1
  3  2  1  0
  4  3  1  0
  5  4  1  0
  6  5  2  0
  7  2  1  0
  7  8  2  0
  9  5  1  0
 11 10  1  0
 12 13  1  6
 12 14  1  0
 12 11  1  0
 14 15  1  1
 15  7  1  0
 16 14  1  0
 17 16  2  0
 19 18  1  1
 19 21  1  0
 20 19  1  0
 22 21  1  6
 22 24  1  0
 22 23  1  0
 23 16  1  0
 24 26  1  0
 25 24  2  0
M  END
$$$$
