EIL.pdb
     RDKit          3D

 26 25  0  0  1  0  0  0  0  0999 V2000
   26.5410  -19.8772  -17.6529 N   0  0  0  0  0  0  0  0  0  0  0  0
   26.0232  -19.1078  -16.5596 C   0  0  1  0  0  0  0  0  0  0  0  0
   24.9494  -18.1814  -16.9935 C   0  0  0  0  0  0  0  0  0  0  0  0
   25.3325  -17.1190  -17.9461 C   0  0  0  0  0  0  0  0  0  0  0  0
   25.1068  -17.3217  -19.3675 C   0  0  0  0  0  0  0  0  0  0  0  0
   24.2149  -17.9476  -19.9479 O   0  0  0  0  0  0  0  0  0  0  0  0
   25.5010  -20.0054  -15.4749 C   0  0  0  0  0  0  0  0  0  0  0  0
   24.8948  -21.0543  -15.8615 O   0  0  0  0  0  0  0  0  0  0  0  0
   26.0504  -16.7108  -20.2384 O   0  0  0  0  0  0  0  0  0  0  0  0
   28.5440  -20.9942  -11.3432 C   0  0  0  0  0  0  0  0  0  0  0  0
   27.5323  -21.1780  -12.4897 C   0  0  0  0  0  0  0  0  0  0  0  0
   26.1700  -20.7523  -12.0673 C   0  0  2  0  0  0  0  0  0  0  0  0
   25.6745  -21.4953  -10.8403 C   0  0  0  0  0  0  0  0  0  0  0  0
   25.1356  -20.6421  -13.1241 C   0  0  2  0  0  0  0  0  0  0  0  0
   25.6798  -19.6924  -14.1111 N   0  0  0  0  0  0  0  0  0  0  0  0
   23.7897  -20.2413  -12.6954 C   0  0  0  0  0  0  0  0  0  0  0  0
   23.6199  -19.0021  -12.4464 O   0  0  0  0  0  0  0  0  0  0  0  0
   19.3275  -18.0632  -13.4370 C   0  0  0  0  0  0  0  0  0  0  0  0
   19.6662  -19.3821  -14.0135 C   0  0  1  0  0  0  0  0  0  0  0  0
   19.2705  -19.3648  -15.4960 C   0  0  0  0  0  0  0  0  0  0  0  0
   20.9822  -19.9312  -13.7694 C   0  0  0  0  0  0  0  0  0  0  0  0
   21.3225  -20.5543  -12.4849 C   0  0  2  0  0  0  0  0  0  0  0  0
   22.7005  -21.0811  -12.5432 N   0  0  0  0  0  0  0  0  0  0  0  0
   20.4912  -21.6701  -12.0730 C   0  0  0  0  0  0  0  0  0  0  0  0
   20.6679  -22.8384  -12.4638 O   0  0  0  0  0  0  0  0  0  0  0  0
   19.4292  -21.4775  -11.1963 O   0  0  0  0  0  0  0  0  0  0  0  0
  2  1  1  6
  3  2  1  0
  4  3  1  0
  5  4  1  0
  6  5  2  0
  7  2  1  0
  7  8  2  0
  9  5  1  0
 11 10  1  0
 12 13  1  1
 12 14  1  0
 12 11  1  0
 14 15  1  6
 15  7  1  0
 16 14  1  0
 17 16  2  0
 19 18  1  6
 19 21  1  0
 20 19  1  0
 22 21  1  6
 22 24  1  0
 22 23  1  0
 23 16  1  0
 24 26  1  0
 25 24  2  0
M  END
$$$$
