EIL.pdb
     RDKit          3D

 26 25  0  0  1  0  0  0  0  0999 V2000
   22.6020  -20.0909  -14.5950 N   0  0  0  0  0  0  0  0  0  0  0  0
   21.8502  -19.6391  -13.4609 C   0  0  1  0  0  0  0  0  0  0  0  0
   20.4117  -19.4722  -13.7806 C   0  0  0  0  0  0  0  0  0  0  0  0
   20.0755  -18.5102  -14.8504 C   0  0  0  0  0  0  0  0  0  0  0  0
   18.9141  -18.7552  -15.6892 C   0  0  0  0  0  0  0  0  0  0  0  0
   17.7334  -18.4359  -15.5224 O   0  0  0  0  0  0  0  0  0  0  0  0
   21.9990  -20.5900  -12.3082 C   0  0  0  0  0  0  0  0  0  0  0  0
   22.1407  -21.8170  -12.6111 O   0  0  0  0  0  0  0  0  0  0  0  0
   19.1587  -19.4724  -16.8925 O   0  0  0  0  0  0  0  0  0  0  0  0
   25.5749  -19.9702   -8.5961 C   0  0  0  0  0  0  0  0  0  0  0  0
   24.5744  -20.5251   -9.6269 C   0  0  0  0  0  0  0  0  0  0  0  0
   23.2147  -20.6461   -9.0335 C   0  0  2  0  0  0  0  0  0  0  0  0
   23.2231  -21.3203   -7.6739 C   0  0  0  0  0  0  0  0  0  0  0  0
   22.1328  -21.1497   -9.9136 C   0  0  2  0  0  0  0  0  0  0  0  0
   21.9820  -20.1359  -10.9728 N   0  0  0  0  0  0  0  0  0  0  0  0
   20.8420  -21.4413   -9.2773 C   0  0  0  0  0  0  0  0  0  0  0  0
   20.0508  -20.4532   -9.1219 O   0  0  0  0  0  0  0  0  0  0  0  0
   16.5252  -24.9771   -8.1364 C   0  0  0  0  0  0  0  0  0  0  0  0
   16.8574  -23.9235   -9.1193 C   0  0  1  0  0  0  0  0  0  0  0  0
   15.9788  -22.7023   -8.8171 C   0  0  0  0  0  0  0  0  0  0  0  0
   18.2484  -23.5971   -9.3465 C   0  0  0  0  0  0  0  0  0  0  0  0
   19.0408  -22.8890   -8.3343 C   0  0  2  0  0  0  0  0  0  0  0  0
   20.4126  -22.6818   -8.8397 N   0  0  0  0  0  0  0  0  0  0  0  0
   19.1891  -23.5556   -7.0540 C   0  0  0  0  0  0  0  0  0  0  0  0
   20.1887  -24.2283   -6.7423 O   0  0  0  0  0  0  0  0  0  0  0  0
   18.1913  -23.4687   -6.0894 O   0  0  0  0  0  0  0  0  0  0  0  0
  2  1  1  6
  3  2  1  0
  4  3  1  0
  5  4  1  0
  6  5  2  0
  7  2  1  0
  7  8  2  0
  9  5  1  0
 11 10  1  0
 12 13  1  1
 12 14  1  0
 12 11  1  0
 14 15  1  6
 15  7  1  0
 16 14  1  0
 17 16  2  0
 19 18  1  1
 19 21  1  0
 20 19  1  0
 22 21  1  6
 22 24  1  0
 22 23  1  0
 23 16  1  0
 24 26  1  0
 25 24  2  0
M  END
$$$$
