EIL.pdb
     RDKit          3D

 26 25  0  0  1  0  0  0  0  0999 V2000
   13.2784  -22.7004   -0.0714 N   0  0  0  0  0  0  0  0  0  0  0  0
   13.3067  -21.9890    1.1730 C   0  0  1  0  0  0  0  0  0  0  0  0
   12.3896  -22.5864    2.1737 C   0  0  0  0  0  0  0  0  0  0  0  0
   10.9422  -22.4756    1.8989 C   0  0  0  0  0  0  0  0  0  0  0  0
   10.4212  -21.2550    1.3063 C   0  0  0  0  0  0  0  0  0  0  0  0
    9.8142  -21.0847    0.2450 O   0  0  0  0  0  0  0  0  0  0  0  0
   14.6994  -21.9478    1.7330 C   0  0  0  0  0  0  0  0  0  0  0  0
   15.4399  -22.9457    1.4627 O   0  0  0  0  0  0  0  0  0  0  0  0
   10.6354  -20.0634    2.0521 O   0  0  0  0  0  0  0  0  0  0  0  0
   17.5738  -17.3938    1.6603 C   0  0  0  0  0  0  0  0  0  0  0  0
   17.1394  -18.8674    1.5530 C   0  0  0  0  0  0  0  0  0  0  0  0
   17.0165  -19.4831    2.9026 C   0  0  2  0  0  0  0  0  0  0  0  0
   18.2300  -19.2304    3.7782 C   0  0  0  0  0  0  0  0  0  0  0  0
   16.5491  -20.8888    2.9670 C   0  0  2  0  0  0  0  0  0  0  0  0
   15.1478  -20.8598    2.5109 N   0  0  0  0  0  0  0  0  0  0  0  0
   16.6660  -21.5679    4.2636 C   0  0  0  0  0  0  0  0  0  0  0  0
   15.7328  -21.3481    5.1045 O   0  0  0  0  0  0  0  0  0  0  0  0
   17.6454  -25.5373    7.9908 C   0  0  0  0  0  0  0  0  0  0  0  0
   18.7681  -24.9628    7.2187 C   0  0  1  0  0  0  0  0  0  0  0  0
   19.8342  -26.0540    7.0532 C   0  0  0  0  0  0  0  0  0  0  0  0
   18.4771  -24.2443    5.9972 C   0  0  0  0  0  0  0  0  0  0  0  0
   17.7665  -22.9604    6.0184 C   0  0  2  0  0  0  0  0  0  0  0  0
   17.6875  -22.4189    4.6470 N   0  0  0  0  0  0  0  0  0  0  0  0
   18.3629  -21.9103    6.8228 C   0  0  0  0  0  0  0  0  0  0  0  0
   18.0003  -21.6452    7.9835 O   0  0  0  0  0  0  0  0  0  0  0  0
   19.3979  -21.1311    6.3175 O   0  0  0  0  0  0  0  0  0  0  0  0
  2  1  1  6
  3  2  1  0
  4  3  1  0
  5  4  1  0
  6  5  2  0
  7  2  1  0
  7  8  2  0
  9  5  1  0
 11 10  1  0
 12 13  1  6
 12 14  1  0
 12 11  1  0
 14 15  1  1
 15  7  1  0
 16 14  1  0
 17 16  2  0
 19 18  1  6
 19 21  1  0
 20 19  1  0
 22 21  1  6
 22 24  1  0
 22 23  1  0
 23 16  1  0
 24 26  1  0
 25 24  2  0
M  END
$$$$
