EIL.pdb
     RDKit          3D

 26 25  0  0  1  0  0  0  0  0999 V2000
   14.9784  -24.2133    1.5184 N   0  0  0  0  0  0  0  0  0  0  0  0
   15.8914  -23.1084    1.5523 C   0  0  1  0  0  0  0  0  0  0  0  0
   15.2400  -21.8388    1.1484 C   0  0  0  0  0  0  0  0  0  0  0  0
   14.8176  -21.7277   -0.2630 C   0  0  0  0  0  0  0  0  0  0  0  0
   13.4714  -22.1277   -0.6371 C   0  0  0  0  0  0  0  0  0  0  0  0
   12.5569  -22.5817    0.0569 O   0  0  0  0  0  0  0  0  0  0  0  0
   16.4884  -22.9507    2.9211 C   0  0  0  0  0  0  0  0  0  0  0  0
   16.0298  -23.7215    3.8226 O   0  0  0  0  0  0  0  0  0  0  0  0
   13.1400  -21.9792   -2.0119 O   0  0  0  0  0  0  0  0  0  0  0  0
   20.0652  -25.1037    5.8456 C   0  0  0  0  0  0  0  0  0  0  0  0
   19.5347  -23.6580    5.8574 C   0  0  0  0  0  0  0  0  0  0  0  0
   18.7844  -23.3588    4.6071 C   0  0  2  0  0  0  0  0  0  0  0  0
   19.5592  -23.7222    3.3538 C   0  0  0  0  0  0  0  0  0  0  0  0
   18.1309  -22.0314    4.5093 C   0  0  2  0  0  0  0  0  0  0  0  0
   17.4985  -22.0002    3.1783 N   0  0  0  0  0  0  0  0  0  0  0  0
   18.9855  -20.8548    4.7130 C   0  0  0  0  0  0  0  0  0  0  0  0
   19.8922  -20.6549    3.8388 O   0  0  0  0  0  0  0  0  0  0  0  0
   17.0229  -16.0372    5.9441 C   0  0  0  0  0  0  0  0  0  0  0  0
   17.8237  -17.1820    5.4596 C   0  0  1  0  0  0  0  0  0  0  0  0
   18.1178  -16.9556    3.9707 C   0  0  0  0  0  0  0  0  0  0  0  0
   18.9801  -17.5957    6.2243 C   0  0  0  0  0  0  0  0  0  0  0  0
   19.7714  -18.7690    5.8360 C   0  0  2  0  0  0  0  0  0  0  0  0
   18.8914  -19.9520    5.7574 N   0  0  0  0  0  0  0  0  0  0  0  0
   20.8509  -19.1399    6.7319 C   0  0  0  0  0  0  0  0  0  0  0  0
   20.7996  -20.1174    7.5005 O   0  0  0  0  0  0  0  0  0  0  0  0
   22.0261  -18.3977    6.7717 O   0  0  0  0  0  0  0  0  0  0  0  0
  2  1  1  1
  3  2  1  0
  4  3  1  0
  5  4  1  0
  6  5  2  0
  7  2  1  0
  7  8  2  0
  9  5  1  0
 11 10  1  0
 12 13  1  6
 12 14  1  0
 12 11  1  0
 14 15  1  6
 15  7  1  0
 16 14  1  0
 17 16  2  0
 19 18  1  1
 19 21  1  0
 20 19  1  0
 22 21  1  1
 22 24  1  0
 22 23  1  0
 23 16  1  0
 24 26  1  0
 25 24  2  0
M  END
$$$$
