EIL.pdb
     RDKit          3D

 26 25  0  0  1  0  0  0  0  0999 V2000
   19.4675  -13.0061  -16.1465 N   0  0  0  0  0  0  0  0  0  0  0  0
   19.9179  -11.8250  -16.8230 C   0  0  1  0  0  0  0  0  0  0  0  0
   18.7860  -10.9960  -17.3035 C   0  0  0  0  0  0  0  0  0  0  0  0
   17.9168  -11.5930  -18.3384 C   0  0  0  0  0  0  0  0  0  0  0  0
   16.9060  -10.7698  -18.9810 C   0  0  0  0  0  0  0  0  0  0  0  0
   16.1020  -11.0532  -19.8739 O   0  0  0  0  0  0  0  0  0  0  0  0
   20.7976  -10.9998  -15.9285 C   0  0  0  0  0  0  0  0  0  0  0  0
   20.3962  -10.8539  -14.7307 O   0  0  0  0  0  0  0  0  0  0  0  0
   16.8159   -9.4271  -18.5214 O   0  0  0  0  0  0  0  0  0  0  0  0
   25.9541  -11.6648  -15.5627 C   0  0  0  0  0  0  0  0  0  0  0  0
   24.4817  -11.3525  -15.2368 C   0  0  0  0  0  0  0  0  0  0  0  0
   24.1500   -9.9433  -15.5825 C   0  0  2  0  0  0  0  0  0  0  0  0
   25.0909   -8.9416  -14.9389 C   0  0  0  0  0  0  0  0  0  0  0  0
   22.7276   -9.5367  -15.4814 C   0  0  2  0  0  0  0  0  0  0  0  0
   21.9967  -10.4266  -16.4014 N   0  0  0  0  0  0  0  0  0  0  0  0
   22.4194   -8.1278  -15.7569 C   0  0  0  0  0  0  0  0  0  0  0  0
   22.5036   -7.7569  -16.9742 O   0  0  0  0  0  0  0  0  0  0  0  0
   20.3249   -3.7412  -17.2111 C   0  0  0  0  0  0  0  0  0  0  0  0
   19.8194   -4.3502  -15.9621 C   0  0  1  0  0  0  0  0  0  0  0  0
   18.2860   -4.3143  -16.0066 C   0  0  0  0  0  0  0  0  0  0  0  0
   20.3591   -5.6248  -15.5412 C   0  0  0  0  0  0  0  0  0  0  0  0
   21.7800   -5.7786  -15.2075 C   0  0  2  0  0  0  0  0  0  0  0  0
   22.0461   -7.1788  -14.8216 N   0  0  0  0  0  0  0  0  0  0  0  0
   22.2727   -4.9671  -14.1100 C   0  0  0  0  0  0  0  0  0  0  0  0
   22.2937   -5.3528  -12.9270 O   0  0  0  0  0  0  0  0  0  0  0  0
   22.7588   -3.6846  -14.3390 O   0  0  0  0  0  0  0  0  0  0  0  0
  2  1  1  1
  3  2  1  0
  4  3  1  0
  5  4  1  0
  6  5  2  0
  7  2  1  0
  7  8  2  0
  9  5  1  0
 11 10  1  0
 12 13  1  1
 12 14  1  0
 12 11  1  0
 14 15  1  6
 15  7  1  0
 16 14  1  0
 17 16  2  0
 19 18  1  6
 19 21  1  0
 20 19  1  0
 22 21  1  1
 22 24  1  0
 22 23  1  0
 23 16  1  0
 24 26  1  0
 25 24  2  0
M  END
$$$$
