EIL.pdb
     RDKit          3D

 26 25  0  0  1  0  0  0  0  0999 V2000
   20.2384  -11.7424  -19.5110 N   0  0  0  0  0  0  0  0  0  0  0  0
   21.0293  -10.5485  -19.4433 C   0  0  1  0  0  0  0  0  0  0  0  0
   20.4142   -9.4326  -20.2020 C   0  0  0  0  0  0  0  0  0  0  0  0
   20.3203   -9.5969  -21.6673 C   0  0  0  0  0  0  0  0  0  0  0  0
   19.8338   -8.4930  -22.4780 C   0  0  0  0  0  0  0  0  0  0  0  0
   19.4176   -8.4853  -23.6401 O   0  0  0  0  0  0  0  0  0  0  0  0
   21.2398  -10.1274  -18.0173 C   0  0  0  0  0  0  0  0  0  0  0  0
   20.2802  -10.3653  -17.2173 O   0  0  0  0  0  0  0  0  0  0  0  0
   19.8299   -7.2173  -21.8499 O   0  0  0  0  0  0  0  0  0  0  0  0
   25.1857  -11.7017  -15.1866 C   0  0  0  0  0  0  0  0  0  0  0  0
   23.8194  -11.2036  -15.6933 C   0  0  0  0  0  0  0  0  0  0  0  0
   23.7529   -9.7170  -15.6625 C   0  0  2  0  0  0  0  0  0  0  0  0
   24.1808   -9.1355  -14.3276 C   0  0  0  0  0  0  0  0  0  0  0  0
   22.5227   -9.0818  -16.1936 C   0  0  2  0  0  0  0  0  0  0  0  0
   22.4364   -9.5063  -17.6024 N   0  0  0  0  0  0  0  0  0  0  0  0
   22.4276   -7.6211  -16.0778 C   0  0  0  0  0  0  0  0  0  0  0  0
   23.2071   -6.9416  -16.8241 O   0  0  0  0  0  0  0  0  0  0  0  0
   20.7780   -2.6238  -16.4580 C   0  0  0  0  0  0  0  0  0  0  0  0
   20.0176   -3.4972  -15.5386 C   0  0  1  0  0  0  0  0  0  0  0  0
   18.5298   -3.1484  -15.6787 C   0  0  0  0  0  0  0  0  0  0  0  0
   20.2849   -4.9190  -15.5488 C   0  0  0  0  0  0  0  0  0  0  0  0
   21.5979   -5.4510  -15.1659 C   0  0  2  0  0  0  0  0  0  0  0  0
   21.5726   -6.9254  -15.2413 N   0  0  0  0  0  0  0  0  0  0  0  0
   22.0528   -5.1329  -13.8251 C   0  0  0  0  0  0  0  0  0  0  0  0
   21.8629   -5.8726  -12.8425 O   0  0  0  0  0  0  0  0  0  0  0  0
   22.7426   -3.9524  -13.5718 O   0  0  0  0  0  0  0  0  0  0  0  0
  2  1  1  1
  3  2  1  0
  4  3  1  0
  5  4  1  0
  6  5  2  0
  7  2  1  0
  7  8  2  0
  9  5  1  0
 11 10  1  0
 12 13  1  1
 12 14  1  0
 12 11  1  0
 14 15  1  6
 15  7  1  0
 16 14  1  0
 17 16  2  0
 19 18  1  6
 19 21  1  0
 20 19  1  0
 22 21  1  1
 22 24  1  0
 22 23  1  0
 23 16  1  0
 24 26  1  0
 25 24  2  0
M  END
$$$$
