TFS.pdb
     RDKit          3D

 25 25  0  0  1  0  0  0  0  0999 V2000
   21.5625   -7.4176  -21.6930 C   0  0  0  0  0  0  0  0  0  0  0  0
   21.0651   -7.0746  -20.3272 C   0  0  1  0  0  0  0  0  0  0  0  0
   19.7089   -7.3754  -20.2731 O   0  0  0  0  0  0  0  0  0  0  0  0
   21.8112   -7.7451  -19.2123 C   0  0  2  0  0  0  0  0  0  0  0  0
   21.6738   -9.1689  -19.2573 N   0  0  0  0  0  0  0  0  0  0  0  0
   21.4272   -7.1741  -17.9046 C   0  0  0  0  0  0  0  0  0  0  0  0
   20.5797   -7.7991  -17.2039 O   0  0  0  0  0  0  0  0  0  0  0  0
   21.9572   -5.9605  -17.3887 N   0  0  0  0  0  0  0  0  0  0  0  0
   21.6677   -5.4666  -16.0541 C   0  0  1  0  0  0  0  0  0  0  0  0
   22.9386   -5.4947  -15.2489 C   0  0  0  0  0  0  0  0  0  0  0  0
   23.4617   -6.8414  -15.0050 C   0  0  0  0  0  0  0  0  0  0  0  0
   24.4979   -7.3836  -15.7367 C   0  0  0  0  0  0  0  0  0  0  0  0
   24.9789   -8.6580  -15.4922 C   0  0  0  0  0  0  0  0  0  0  0  0
   24.4382   -9.4432  -14.5006 C   0  0  0  0  0  0  0  0  0  0  0  0
   23.4023   -8.9174  -13.7600 C   0  0  0  0  0  0  0  0  0  0  0  0
   22.9262   -7.6344  -14.0142 C   0  0  0  0  0  0  0  0  0  0  0  0
   21.0250   -4.1556  -16.1468 C   0  0  0  0  0  0  0  0  0  0  0  0
   21.5331   -3.2344  -16.8751 O   0  0  0  0  0  0  0  0  0  0  0  0
   17.2066   -3.5712  -15.9796 O   0  0  0  0  0  0  0  0  0  0  0  0
   17.7855   -2.6342  -15.1175 C   0  0  0  0  0  0  0  0  0  0  0  0
   19.2334   -2.4567  -15.6033 C   0  0  2  0  0  0  0  0  0  0  0  0
   19.8311   -3.7937  -15.4708 N   0  0  0  0  0  0  0  0  0  0  0  0
   19.9356   -1.4610  -14.7978 C   0  0  0  0  0  0  0  0  0  0  0  0
   19.4997   -0.1518  -14.7838 O   0  0  0  0  0  0  0  0  0  0  0  0
   20.9345   -1.7622  -14.1099 O   0  0  0  0  0  0  0  0  0  0  0  0
  2  1  1  6
  3  2  1  0
  4  5  1  1
  4  2  1  0
  4  6  1  0
  6  7  2  0
  8  6  1  0
  8  9  1  0
  9 17  1  0
 10 11  1  0
  9 10  1  1
 11 12  2  0
 11 16  1  0
 12 13  1  0
 13 14  2  0
 15 14  1  0
 16 15  2  0
 17 18  2  0
 19 20  1  0
 21 20  1  1
 21 23  1  0
 22 17  1  0
 22 21  1  0
 23 25  2  0
 23 24  1  0
M  END
$$$$
