TFS.pdb
     RDKit          3D

 25 25  0  0  1  0  0  0  0  0999 V2000
   28.6704  -17.8975  -14.9691 C   0  0  0  0  0  0  0  0  0  0  0  0
   27.5896  -18.7970  -14.4661 C   0  0  1  0  0  0  0  0  0  0  0  0
   26.7380  -19.0844  -15.5267 O   0  0  0  0  0  0  0  0  0  0  0  0
   28.0858  -20.0546  -13.8168 C   0  0  2  0  0  0  0  0  0  0  0  0
   28.7623  -20.9058  -14.7473 N   0  0  0  0  0  0  0  0  0  0  0  0
   26.9920  -20.7439  -13.1013 C   0  0  0  0  0  0  0  0  0  0  0  0
   26.5926  -21.8578  -13.5482 O   0  0  0  0  0  0  0  0  0  0  0  0
   26.3622  -20.2253  -11.9375 N   0  0  0  0  0  0  0  0  0  0  0  0
   25.2630  -20.8908  -11.2610 C   0  0  1  0  0  0  0  0  0  0  0  0
   25.1925  -20.3787   -9.8478 C   0  0  0  0  0  0  0  0  0  0  0  0
   26.4294  -20.5606   -9.0839 C   0  0  0  0  0  0  0  0  0  0  0  0
   26.7439  -19.7965   -7.9792 C   0  0  0  0  0  0  0  0  0  0  0  0
   27.9176  -19.9824   -7.2699 C   0  0  0  0  0  0  0  0  0  0  0  0
   28.8269  -20.9455   -7.6411 C   0  0  0  0  0  0  0  0  0  0  0  0
   28.5289  -21.7180   -8.7424 C   0  0  0  0  0  0  0  0  0  0  0  0
   27.3454  -21.5226   -9.4486 C   0  0  0  0  0  0  0  0  0  0  0  0
   24.0361  -20.7228  -12.0400 C   0  0  0  0  0  0  0  0  0  0  0  0
   23.5871  -19.5528  -12.2984 O   0  0  0  0  0  0  0  0  0  0  0  0
   22.1750  -23.8971  -13.5124 O   0  0  0  0  0  0  0  0  0  0  0  0
   22.0423  -22.7823  -14.3466 C   0  0  0  0  0  0  0  0  0  0  0  0
   22.0881  -21.5572  -13.4186 C   0  0  2  0  0  0  0  0  0  0  0  0
   23.2601  -21.7902  -12.5615 N   0  0  0  0  0  0  0  0  0  0  0  0
   20.8561  -21.4444  -12.6424 C   0  0  0  0  0  0  0  0  0  0  0  0
   19.6584  -21.1934  -13.2802 O   0  0  0  0  0  0  0  0  0  0  0  0
   20.8524  -21.5700  -11.3990 O   0  0  0  0  0  0  0  0  0  0  0  0
  2  1  1  6
  3  2  1  0
  4  5  1  6
  4  2  1  0
  4  6  1  0
  6  7  2  0
  8  6  1  0
  8  9  1  0
  9 17  1  0
 10 11  1  0
  9 10  1  1
 11 12  2  0
 11 16  1  0
 12 13  1  0
 13 14  2  0
 15 14  1  0
 16 15  2  0
 17 18  2  0
 19 20  1  0
 21 20  1  6
 21 23  1  0
 22 17  1  0
 22 21  1  0
 23 25  2  0
 23 24  1  0
M  END
$$$$
