TFS.pdb
     RDKit          3D

 25 25  0  0  1  0  0  0  0  0999 V2000
   17.0729  -10.1555  -19.2584 C   0  0  0  0  0  0  0  0  0  0  0  0
   16.6927  -11.4151  -18.5520 C   0  0  1  0  0  0  0  0  0  0  0  0
   16.3758  -12.3700  -19.5114 O   0  0  0  0  0  0  0  0  0  0  0  0
   17.7343  -11.9290  -17.6031 C   0  0  2  0  0  0  0  0  0  0  0  0
   17.3708  -13.1956  -17.0449 N   0  0  0  0  0  0  0  0  0  0  0  0
   18.0507  -10.9188  -16.5721 C   0  0  0  0  0  0  0  0  0  0  0  0
   17.2944  -10.8374  -15.5615 O   0  0  0  0  0  0  0  0  0  0  0  0
   19.1586  -10.0322  -16.6519 N   0  0  0  0  0  0  0  0  0  0  0  0
   19.3989   -8.9669  -15.6945 C   0  0  1  0  0  0  0  0  0  0  0  0
   20.8637   -8.9564  -15.3503 C   0  0  0  0  0  0  0  0  0  0  0  0
   21.2772   -7.8131  -14.5326 C   0  0  0  0  0  0  0  0  0  0  0  0
   21.8043   -6.6593  -15.0748 C   0  0  0  0  0  0  0  0  0  0  0  0
   22.1899   -5.5892  -14.2864 C   0  0  0  0  0  0  0  0  0  0  0  0
   22.0621   -5.6330  -12.9175 C   0  0  0  0  0  0  0  0  0  0  0  0
   21.5374   -6.7779  -12.3590 C   0  0  0  0  0  0  0  0  0  0  0  0
   21.1527   -7.8485  -13.1612 C   0  0  0  0  0  0  0  0  0  0  0  0
   18.8809   -7.7061  -16.2261 C   0  0  0  0  0  0  0  0  0  0  0  0
   19.1397   -7.3543  -17.4288 O   0  0  0  0  0  0  0  0  0  0  0  0
   15.8211   -4.0657  -16.0968 O   0  0  0  0  0  0  0  0  0  0  0  0
   16.2150   -5.3205  -15.6208 C   0  0  0  0  0  0  0  0  0  0  0  0
   17.6837   -5.4868  -16.0446 C   0  0  2  0  0  0  0  0  0  0  0  0
   18.0781   -6.7925  -15.4951 N   0  0  0  0  0  0  0  0  0  0  0  0
   18.5050   -4.4003  -15.5171 C   0  0  0  0  0  0  0  0  0  0  0  0
   18.8498   -3.3387  -16.3284 O   0  0  0  0  0  0  0  0  0  0  0  0
   18.9118   -4.4020  -14.3355 O   0  0  0  0  0  0  0  0  0  0  0  0
  2  1  1  6
  3  2  1  0
  4  5  1  1
  4  2  1  0
  4  6  1  0
  6  7  2  0
  8  6  1  0
  8  9  1  0
  9 17  1  0
 10 11  1  0
  9 10  1  6
 11 12  2  0
 11 16  1  0
 12 13  1  0
 13 14  2  0
 15 14  1  0
 16 15  2  0
 17 18  2  0
 19 20  1  0
 21 20  1  1
 21 23  1  0
 22 17  1  0
 22 21  1  0
 23 25  2  0
 23 24  1  0
M  END
$$$$
