TFS.pdb
     RDKit          3D

 25 25  0  0  1  0  0  0  0  0999 V2000
   25.1999   -6.0026  -18.3395 C   0  0  0  0  0  0  0  0  0  0  0  0
   25.2005   -7.4286  -18.7832 C   0  0  1  0  0  0  0  0  0  0  0  0
   26.3911   -7.6703  -19.4592 O   0  0  0  0  0  0  0  0  0  0  0  0
   24.9983   -8.4195  -17.6758 C   0  0  2  0  0  0  0  0  0  0  0  0
   25.1543   -9.7678  -18.1296 N   0  0  0  0  0  0  0  0  0  0  0  0
   23.7070   -8.1908  -16.9947 C   0  0  0  0  0  0  0  0  0  0  0  0
   22.6593   -8.6628  -17.5232 O   0  0  0  0  0  0  0  0  0  0  0  0
   23.5756   -7.4691  -15.7773 N   0  0  0  0  0  0  0  0  0  0  0  0
   22.2987   -7.2164  -15.1332 C   0  0  1  0  0  0  0  0  0  0  0  0
   22.2810   -7.9348  -13.8111 C   0  0  0  0  0  0  0  0  0  0  0  0
   22.1666   -9.3911  -13.9239 C   0  0  0  0  0  0  0  0  0  0  0  0
   23.2388  -10.2404  -13.7443 C   0  0  0  0  0  0  0  0  0  0  0  0
   23.1118  -11.6140  -13.8551 C   0  0  0  0  0  0  0  0  0  0  0  0
   21.9002  -12.1938  -14.1517 C   0  0  0  0  0  0  0  0  0  0  0  0
   20.8184  -11.3603  -14.3344 C   0  0  0  0  0  0  0  0  0  0  0  0
   20.9572   -9.9800  -14.2206 C   0  0  0  0  0  0  0  0  0  0  0  0
   22.0680   -5.7739  -15.0546 C   0  0  0  0  0  0  0  0  0  0  0  0
   22.8631   -5.0253  -14.3878 O   0  0  0  0  0  0  0  0  0  0  0  0
   21.3978   -3.4271  -17.8872 O   0  0  0  0  0  0  0  0  0  0  0  0
   20.3251   -3.2388  -17.0097 C   0  0  0  0  0  0  0  0  0  0  0  0
   20.8480   -3.6326  -15.6185 C   0  0  2  0  0  0  0  0  0  0  0  0
   20.9909   -5.0948  -15.6809 N   0  0  0  0  0  0  0  0  0  0  0  0
   19.9151   -3.2179  -14.5740 C   0  0  0  0  0  0  0  0  0  0  0  0
   20.0286   -1.9666  -14.0035 O   0  0  0  0  0  0  0  0  0  0  0  0
   19.0028   -3.9728  -14.1742 O   0  0  0  0  0  0  0  0  0  0  0  0
  2  1  1  1
  3  2  1  0
  4  5  1  6
  4  2  1  0
  4  6  1  0
  6  7  2  0
  8  6  1  0
  8  9  1  0
  9 17  1  0
 10 11  1  0
  9 10  1  1
 11 12  2  0
 11 16  1  0
 12 13  1  0
 13 14  2  0
 15 14  1  0
 16 15  2  0
 17 18  2  0
 19 20  1  0
 21 20  1  6
 21 23  1  0
 22 17  1  0
 22 21  1  0
 23 25  2  0
 23 24  1  0
M  END
$$$$
