TFS.pdb
     RDKit          3D

 25 25  0  0  1  0  0  0  0  0999 V2000
   25.1916  -17.4696  -14.2134 C   0  0  0  0  0  0  0  0  0  0  0  0
   26.2576  -18.0722  -15.0682 C   0  0  1  0  0  0  0  0  0  0  0  0
   26.3902  -17.2896  -16.2096 O   0  0  0  0  0  0  0  0  0  0  0  0
   27.5774  -18.2466  -14.3776 C   0  0  2  0  0  0  0  0  0  0  0  0
   28.5823  -18.7495  -15.2637 N   0  0  0  0  0  0  0  0  0  0  0  0
   27.4282  -19.0665  -13.1573 C   0  0  0  0  0  0  0  0  0  0  0  0
   27.6034  -20.3157  -13.2501 O   0  0  0  0  0  0  0  0  0  0  0  0
   27.0983  -18.5299  -11.8832 N   0  0  0  0  0  0  0  0  0  0  0  0
   26.9198  -19.3460  -10.6953 C   0  0  1  0  0  0  0  0  0  0  0  0
   27.2601  -18.5134   -9.4890 C   0  0  0  0  0  0  0  0  0  0  0  0
   27.2228  -19.2513   -8.2238 C   0  0  0  0  0  0  0  0  0  0  0  0
   26.2937  -18.9947   -7.2370 C   0  0  0  0  0  0  0  0  0  0  0  0
   26.2740  -19.7020   -6.0475 C   0  0  0  0  0  0  0  0  0  0  0  0
   27.1886  -20.6988   -5.7987 C   0  0  0  0  0  0  0  0  0  0  0  0
   28.1240  -20.9685   -6.7736 C   0  0  0  0  0  0  0  0  0  0  0  0
   28.1349  -20.2510   -7.9664 C   0  0  0  0  0  0  0  0  0  0  0  0
   25.5723  -19.9157  -10.6917 C   0  0  0  0  0  0  0  0  0  0  0  0
   24.5498  -19.1633  -10.8518 O   0  0  0  0  0  0  0  0  0  0  0  0
   22.7318  -23.7719  -11.0231 O   0  0  0  0  0  0  0  0  0  0  0  0
   24.0356  -23.2685  -10.9706 C   0  0  0  0  0  0  0  0  0  0  0  0
   23.9016  -21.8052  -10.5181 C   0  0  2  0  0  0  0  0  0  0  0  0
   25.2802  -21.2935  -10.5189 N   0  0  0  0  0  0  0  0  0  0  0  0
   23.2878  -21.7223   -9.1954 C   0  0  0  0  0  0  0  0  0  0  0  0
   24.0731  -21.7994   -8.0634 O   0  0  0  0  0  0  0  0  0  0  0  0
   22.0540  -21.5815   -9.0543 O   0  0  0  0  0  0  0  0  0  0  0  0
  2  1  1  1
  3  2  1  0
  4  5  1  6
  4  2  1  0
  4  6  1  0
  6  7  2  0
  8  6  1  0
  8  9  1  0
  9 17  1  0
 10 11  1  0
  9 10  1  1
 11 12  2  0
 11 16  1  0
 12 13  1  0
 13 14  2  0
 15 14  1  0
 16 15  2  0
 17 18  2  0
 19 20  1  0
 21 20  1  1
 21 23  1  0
 22 17  1  0
 22 21  1  0
 23 25  2  0
 23 24  1  0
M  END
$$$$
