TFS.pdb
     RDKit          3D

 25 25  0  0  1  0  0  0  0  0999 V2000
   21.1608  -23.3345   -7.1140 C   0  0  0  0  0  0  0  0  0  0  0  0
   22.0871  -22.4608   -7.8943 C   0  0  1  0  0  0  0  0  0  0  0  0
   21.4373  -22.0753   -9.0614 O   0  0  0  0  0  0  0  0  0  0  0  0
   22.5926  -21.2676   -7.1393 C   0  0  2  0  0  0  0  0  0  0  0  0
   21.5482  -20.3300   -6.8596 N   0  0  0  0  0  0  0  0  0  0  0  0
   23.7421  -20.6530   -7.8355 C   0  0  0  0  0  0  0  0  0  0  0  0
   23.5404  -19.6049   -8.5143 O   0  0  0  0  0  0  0  0  0  0  0  0
   25.0635  -21.1738   -7.7854 N   0  0  0  0  0  0  0  0  0  0  0  0
   26.1799  -20.5888   -8.5069 C   0  0  1  0  0  0  0  0  0  0  0  0
   27.4568  -21.0033   -7.8274 C   0  0  0  0  0  0  0  0  0  0  0  0
   27.7548  -20.2517   -6.6056 C   0  0  0  0  0  0  0  0  0  0  0  0
   27.6075  -18.8830   -6.5163 C   0  0  0  0  0  0  0  0  0  0  0  0
   27.8943  -18.1896   -5.3535 C   0  0  0  0  0  0  0  0  0  0  0  0
   28.3421  -18.8431   -4.2289 C   0  0  0  0  0  0  0  0  0  0  0  0
   28.4950  -20.2104   -4.3003 C   0  0  0  0  0  0  0  0  0  0  0  0
   28.2036  -20.8981   -5.4750 C   0  0  0  0  0  0  0  0  0  0  0  0
   26.0893  -20.9481   -9.9222 C   0  0  0  0  0  0  0  0  0  0  0  0
   25.7801  -22.1400  -10.2701 O   0  0  0  0  0  0  0  0  0  0  0  0
   25.5292  -19.6099  -14.4709 O   0  0  0  0  0  0  0  0  0  0  0  0
   25.6016  -19.2581  -13.1192 C   0  0  0  0  0  0  0  0  0  0  0  0
   26.2125  -20.4734  -12.4023 C   0  0  2  0  0  0  0  0  0  0  0  0
   26.3238  -20.0526  -10.9977 N   0  0  0  0  0  0  0  0  0  0  0  0
   27.5112  -20.8182  -12.9749 C   0  0  0  0  0  0  0  0  0  0  0  0
   27.5786  -21.5305  -14.1548 O   0  0  0  0  0  0  0  0  0  0  0  0
   28.5802  -20.4831  -12.4211 O   0  0  0  0  0  0  0  0  0  0  0  0
  2  1  1  1
  3  2  1  0
  4  5  1  6
  4  2  1  0
  4  6  1  0
  6  7  2  0
  8  6  1  0
  8  9  1  0
  9 17  1  0
 10 11  1  0
  9 10  1  1
 11 12  2  0
 11 16  1  0
 12 13  1  0
 13 14  2  0
 15 14  1  0
 16 15  2  0
 17 18  2  0
 19 20  1  0
 21 20  1  6
 21 23  1  0
 22 17  1  0
 22 21  1  0
 23 25  2  0
 23 24  1  0
M  END
$$$$
