MNN.pdb
     RDKit          3D

 25 24  0  0  1  0  0  0  0  0999 V2000
    7.1916  -10.9515   25.2220 C   0  0  0  0  0  0  0  0  0  0  0  0
    6.2651  -11.8496   26.4843 S   0  0  0  0  0  0  0  0  0  0  0  0
    6.6080  -13.5788   26.5395 C   0  0  0  0  0  0  0  0  0  0  0  0
    6.7665  -14.3442   25.2961 C   0  0  0  0  0  0  0  0  0  0  0  0
    7.0631  -15.7888   25.3316 C   0  0  2  0  0  0  0  0  0  0  0  0
    7.9671  -16.1538   26.4265 N   0  0  0  0  0  0  0  0  0  0  0  0
    7.7787  -16.1413   24.0241 C   0  0  0  0  0  0  0  0  0  0  0  0
    7.3995  -15.6127   22.9713 O   0  0  0  0  0  0  0  0  0  0  0  0
   13.1243  -15.2602   23.7779 N   0  0  0  0  0  0  0  0  0  0  0  0
   12.1194  -15.7108   22.9105 C   0  0  0  0  0  0  0  0  0  0  0  0
   12.4316  -16.2518   21.8232 O   0  0  0  0  0  0  0  0  0  0  0  0
   10.6917  -15.5581   23.2591 C   0  0  0  0  0  0  0  0  0  0  0  0
   10.2502  -16.7969   24.0245 C   0  0  2  0  0  0  0  0  0  0  0  0
    8.8542  -17.0555   24.0284 N   0  0  0  0  0  0  0  0  0  0  0  0
   10.9729  -17.0098   25.2790 C   0  0  0  0  0  0  0  0  0  0  0  0
   12.0923  -17.6094   25.2129 O   0  0  0  0  0  0  0  0  0  0  0  0
   11.6485  -14.3069   27.4400 N   0  0  0  0  0  0  0  0  0  0  0  0
   10.8512  -14.6519   28.5852 C   0  0  0  0  0  0  0  0  0  0  0  0
   10.3476  -13.7593   29.2944 O   0  0  0  0  0  0  0  0  0  0  0  0
   10.6590  -16.0796   28.8766 C   0  0  0  0  0  0  0  0  0  0  0  0
   11.2267  -16.9817   27.7888 C   0  0  2  0  0  0  0  0  0  0  0  0
   10.5640  -16.6204   26.5698 N   0  0  0  0  0  0  0  0  0  0  0  0
   11.0228  -18.3750   28.2017 C   0  0  0  0  0  0  0  0  0  0  0  0
    9.9867  -19.1168   27.6437 O   0  0  0  0  0  0  0  0  0  0  0  0
   11.7340  -18.9593   29.0451 O   0  0  0  0  0  0  0  0  0  0  0  0
  1  2  1  0
  2  3  1  0
  3  4  1  0
  5  4  1  0
  5  7  1  0
  5  6  1  1
  7  8  2  0
  9 10  1  0
 10 11  2  0
 12 10  1  0
 13 12  1  1
 14 13  1  0
 14  7  1  0
 15 13  1  0
 15 16  2  0
 17 18  1  0
 18 20  1  0
 19 18  2  0
 21 20  1  1
 21 22  1  0
 21 23  1  0
 22 15  1  0
 23 24  1  0
 25 23  2  0
M  END
$$$$
