MNN.pdb
     RDKit          3D

 25 24  0  0  1  0  0  0  0  0999 V2000
    8.8344  -11.5495   19.6163 C   0  0  0  0  0  0  0  0  0  0  0  0
    7.2640  -12.2195   20.2020 S   0  0  0  0  0  0  0  0  0  0  0  0
    7.0367  -13.9346   19.8585 C   0  0  0  0  0  0  0  0  0  0  0  0
    8.0725  -14.9088   20.2256 C   0  0  0  0  0  0  0  0  0  0  0  0
    7.8810  -16.3482   19.9658 C   0  0  2  0  0  0  0  0  0  0  0  0
    6.7333  -16.9055   20.6879 N   0  0  0  0  0  0  0  0  0  0  0  0
    9.1278  -17.0755   20.4777 C   0  0  0  0  0  0  0  0  0  0  0  0
    9.0375  -17.7805   21.4909 O   0  0  0  0  0  0  0  0  0  0  0  0
   12.1948  -16.4316   17.0228 N   0  0  0  0  0  0  0  0  0  0  0  0
   11.9103  -17.5660   17.7959 C   0  0  0  0  0  0  0  0  0  0  0  0
   11.0698  -18.4025   17.3885 O   0  0  0  0  0  0  0  0  0  0  0  0
   12.5889  -17.7926   19.0887 C   0  0  0  0  0  0  0  0  0  0  0  0
   11.6558  -17.3458   20.2044 C   0  0  2  0  0  0  0  0  0  0  0  0
   10.3575  -16.9396   19.7981 N   0  0  0  0  0  0  0  0  0  0  0  0
   12.3101  -16.5507   21.2442 C   0  0  0  0  0  0  0  0  0  0  0  0
   13.4603  -16.0778   20.9798 O   0  0  0  0  0  0  0  0  0  0  0  0
   13.7635  -16.2517   26.1810 N   0  0  0  0  0  0  0  0  0  0  0  0
   12.4731  -16.8804   26.1057 C   0  0  0  0  0  0  0  0  0  0  0  0
   11.9933  -17.4555   27.1019 O   0  0  0  0  0  0  0  0  0  0  0  0
   11.7570  -16.8150   24.8240 C   0  0  0  0  0  0  0  0  0  0  0  0
   12.5845  -16.1663   23.7223 C   0  0  2  0  0  0  0  0  0  0  0  0
   11.8032  -16.2450   22.5227 N   0  0  0  0  0  0  0  0  0  0  0  0
   13.8750  -16.8616   23.6540 C   0  0  0  0  0  0  0  0  0  0  0  0
   15.0428  -16.1868   23.9943 O   0  0  0  0  0  0  0  0  0  0  0  0
   14.0031  -18.0519   23.2997 O   0  0  0  0  0  0  0  0  0  0  0  0
  1  2  1  0
  2  3  1  0
  3  4  1  0
  5  4  1  0
  5  7  1  0
  5  6  1  1
  7  8  2  0
  9 10  1  0
 10 11  2  0
 12 10  1  0
 13 12  1  6
 14 13  1  0
 14  7  1  0
 15 13  1  0
 15 16  2  0
 17 18  1  0
 18 20  1  0
 19 18  2  0
 21 20  1  1
 21 22  1  0
 21 23  1  0
 22 15  1  0
 23 24  1  0
 25 23  2  0
M  END
$$$$
