MNN.pdb
     RDKit          3D

 25 24  0  0  1  0  0  0  0  0999 V2000
    7.4382  -11.3062   27.5630 C   0  0  0  0  0  0  0  0  0  0  0  0
    6.5649  -12.2834   26.3218 S   0  0  0  0  0  0  0  0  0  0  0  0
    7.5474  -12.7210   24.9238 C   0  0  0  0  0  0  0  0  0  0  0  0
    6.9369  -13.3895   23.7674 C   0  0  0  0  0  0  0  0  0  0  0  0
    6.8142  -14.8589   23.7229 C   0  0  2  0  0  0  0  0  0  0  0  0
    6.8876  -15.4730   25.0521 N   0  0  0  0  0  0  0  0  0  0  0  0
    8.0019  -15.3931   22.9170 C   0  0  0  0  0  0  0  0  0  0  0  0
    8.2968  -14.8442   21.8476 O   0  0  0  0  0  0  0  0  0  0  0  0
   12.0792  -17.9870   21.5082 N   0  0  0  0  0  0  0  0  0  0  0  0
   11.3047  -16.8495   21.2407 C   0  0  0  0  0  0  0  0  0  0  0  0
   10.9298  -16.6130   20.0678 O   0  0  0  0  0  0  0  0  0  0  0  0
   10.9211  -15.9210   22.3242 C   0  0  0  0  0  0  0  0  0  0  0  0
   10.1487  -16.7043   23.3754 C   0  0  2  0  0  0  0  0  0  0  0  0
    8.7446  -16.4946   23.3939 N   0  0  0  0  0  0  0  0  0  0  0  0
   10.8281  -16.7943   24.6684 C   0  0  0  0  0  0  0  0  0  0  0  0
   12.0456  -17.1609   24.6633 O   0  0  0  0  0  0  0  0  0  0  0  0
    7.1660  -19.5004   27.9723 N   0  0  0  0  0  0  0  0  0  0  0  0
    8.5526  -19.3080   27.6457 C   0  0  0  0  0  0  0  0  0  0  0  0
    9.4335  -19.9795   28.2169 O   0  0  0  0  0  0  0  0  0  0  0  0
    8.8789  -18.3020   26.6252 C   0  0  0  0  0  0  0  0  0  0  0  0
   10.1060  -17.4759   26.9874 C   0  0  2  0  0  0  0  0  0  0  0  0
   10.2791  -16.5168   25.9358 N   0  0  0  0  0  0  0  0  0  0  0  0
   11.2365  -18.3948   27.1642 C   0  0  0  0  0  0  0  0  0  0  0  0
   11.7395  -19.0904   26.0697 O   0  0  0  0  0  0  0  0  0  0  0  0
   11.7947  -18.6040   28.2611 O   0  0  0  0  0  0  0  0  0  0  0  0
  1  2  1  0
  2  3  1  0
  3  4  1  0
  5  4  1  0
  5  7  1  0
  5  6  1  1
  7  8  2  0
  9 10  1  0
 10 11  2  0
 12 10  1  0
 13 12  1  6
 14 13  1  0
 14  7  1  0
 15 13  1  0
 15 16  2  0
 17 18  1  0
 18 20  1  0
 19 18  2  0
 21 20  1  6
 21 22  1  0
 21 23  1  0
 22 15  1  0
 23 24  1  0
 25 23  2  0
M  END
$$$$
