MNN.pdb
     RDKit          3D

 25 24  0  0  1  0  0  0  0  0999 V2000
    7.5837  -11.8548   19.1024 C   0  0  0  0  0  0  0  0  0  0  0  0
    7.2931  -12.5808   20.7293 S   0  0  0  0  0  0  0  0  0  0  0  0
    8.1140  -14.1198   20.9912 C   0  0  0  0  0  0  0  0  0  0  0  0
    8.2867  -15.0671   19.8823 C   0  0  0  0  0  0  0  0  0  0  0  0
    8.9127  -16.3841   20.1051 C   0  0  2  0  0  0  0  0  0  0  0  0
    8.9568  -16.7568   21.5223 N   0  0  0  0  0  0  0  0  0  0  0  0
   10.3630  -16.2891   19.6221 C   0  0  0  0  0  0  0  0  0  0  0  0
   10.5850  -16.1646   18.4109 O   0  0  0  0  0  0  0  0  0  0  0  0
   12.0576  -14.2015   17.3022 N   0  0  0  0  0  0  0  0  0  0  0  0
   12.8720  -14.7057   18.3259 C   0  0  0  0  0  0  0  0  0  0  0  0
   13.8103  -15.4892   18.0463 O   0  0  0  0  0  0  0  0  0  0  0  0
   12.6415  -14.3263   19.7351 C   0  0  0  0  0  0  0  0  0  0  0  0
   12.6308  -15.5938   20.5770 C   0  0  2  0  0  0  0  0  0  0  0  0
   11.4248  -16.3424   20.5507 N   0  0  0  0  0  0  0  0  0  0  0  0
   13.3034  -15.4551   21.8692 C   0  0  0  0  0  0  0  0  0  0  0  0
   14.4278  -14.8615   21.8809 O   0  0  0  0  0  0  0  0  0  0  0  0
   10.4062  -18.0848   24.6115 N   0  0  0  0  0  0  0  0  0  0  0  0
   11.5179  -17.3288   25.1202 C   0  0  0  0  0  0  0  0  0  0  0  0
   11.3291  -16.3895   25.9172 O   0  0  0  0  0  0  0  0  0  0  0  0
   12.8637  -17.7072   24.6668 C   0  0  0  0  0  0  0  0  0  0  0  0
   13.6553  -16.5232   24.1274 C   0  0  2  0  0  0  0  0  0  0  0  0
   12.8402  -15.9106   23.1194 N   0  0  0  0  0  0  0  0  0  0  0  0
   14.9474  -17.0230   23.6435 C   0  0  0  0  0  0  0  0  0  0  0  0
   14.9899  -17.8929   22.5589 O   0  0  0  0  0  0  0  0  0  0  0  0
   16.0447  -16.7146   24.1528 O   0  0  0  0  0  0  0  0  0  0  0  0
  1  2  1  0
  2  3  1  0
  3  4  1  0
  5  4  1  0
  5  7  1  0
  5  6  1  1
  7  8  2  0
  9 10  1  0
 10 11  2  0
 12 10  1  0
 13 12  1  1
 14 13  1  0
 14  7  1  0
 15 13  1  0
 15 16  2  0
 17 18  1  0
 18 20  1  0
 19 18  2  0
 21 20  1  6
 21 22  1  0
 21 23  1  0
 22 15  1  0
 23 24  1  0
 25 23  2  0
M  END
$$$$
