MNN.pdb
     RDKit          3D

 25 24  0  0  1  0  0  0  0  0999 V2000
    8.3532  -12.0409   20.1462 C   0  0  0  0  0  0  0  0  0  0  0  0
    7.3870  -13.4952   19.6882 S   0  0  0  0  0  0  0  0  0  0  0  0
    6.1241  -13.9178   20.8448 C   0  0  0  0  0  0  0  0  0  0  0  0
    6.3252  -15.0207   21.7934 C   0  0  0  0  0  0  0  0  0  0  0  0
    7.6777  -15.5395   22.0722 C   0  0  2  0  0  0  0  0  0  0  0  0
    8.0610  -16.6317   21.1725 N   0  0  0  0  0  0  0  0  0  0  0  0
    7.6642  -16.1133   23.4921 C   0  0  0  0  0  0  0  0  0  0  0  0
    7.4305  -15.3563   24.4429 O   0  0  0  0  0  0  0  0  0  0  0  0
    6.4570  -19.7621   27.4511 N   0  0  0  0  0  0  0  0  0  0  0  0
    7.2364  -20.0625   26.3252 C   0  0  0  0  0  0  0  0  0  0  0  0
    8.1490  -20.9182   26.4097 O   0  0  0  0  0  0  0  0  0  0  0  0
    6.9978  -19.3840   25.0345 C   0  0  0  0  0  0  0  0  0  0  0  0
    7.9599  -18.2104   24.9250 C   0  0  2  0  0  0  0  0  0  0  0  0
    7.9144  -17.4862   23.7047 N   0  0  0  0  0  0  0  0  0  0  0  0
    9.2806  -18.4684   25.5002 C   0  0  0  0  0  0  0  0  0  0  0  0
    9.3505  -18.6057   26.7623 O   0  0  0  0  0  0  0  0  0  0  0  0
   11.1755  -15.5503   22.6463 N   0  0  0  0  0  0  0  0  0  0  0  0
   12.0844  -16.3201   23.4511 C   0  0  0  0  0  0  0  0  0  0  0  0
   13.1386  -16.7668   22.9587 O   0  0  0  0  0  0  0  0  0  0  0  0
   11.7214  -16.5519   24.8563 C   0  0  0  0  0  0  0  0  0  0  0  0
   11.7501  -18.0271   25.2337 C   0  0  2  0  0  0  0  0  0  0  0  0
   10.5004  -18.5839   24.8047 N   0  0  0  0  0  0  0  0  0  0  0  0
   11.9942  -18.1221   26.6776 C   0  0  0  0  0  0  0  0  0  0  0  0
   11.6067  -17.0805   27.5142 O   0  0  0  0  0  0  0  0  0  0  0  0
   12.5432  -19.1007   27.2249 O   0  0  0  0  0  0  0  0  0  0  0  0
  1  2  1  0
  2  3  1  0
  3  4  1  0
  5  4  1  0
  5  7  1  0
  5  6  1  6
  7  8  2  0
  9 10  1  0
 10 11  2  0
 12 10  1  0
 13 12  1  6
 14 13  1  0
 14  7  1  0
 15 13  1  0
 15 16  2  0
 17 18  1  0
 18 20  1  0
 19 18  2  0
 21 20  1  1
 21 22  1  0
 21 23  1  0
 22 15  1  0
 23 24  1  0
 25 23  2  0
M  END
$$$$
