MNN.pdb
     RDKit          3D

 25 24  0  0  1  0  0  0  0  0999 V2000
    6.3757  -10.5871   27.3153 C   0  0  0  0  0  0  0  0  0  0  0  0
    7.0881  -12.1464   26.7500 S   0  0  0  0  0  0  0  0  0  0  0  0
    6.0011  -13.1210   25.7602 C   0  0  0  0  0  0  0  0  0  0  0  0
    6.3477  -14.5075   25.4220 C   0  0  0  0  0  0  0  0  0  0  0  0
    7.7444  -14.8889   25.1392 C   0  0  2  0  0  0  0  0  0  0  0  0
    8.2957  -14.1926   23.9729 N   0  0  0  0  0  0  0  0  0  0  0  0
    7.7530  -16.3852   24.8124 C   0  0  0  0  0  0  0  0  0  0  0  0
    7.1648  -17.1680   25.5693 O   0  0  0  0  0  0  0  0  0  0  0  0
    7.7480  -20.5600   21.3623 N   0  0  0  0  0  0  0  0  0  0  0  0
    8.9639  -19.9121   21.6216 C   0  0  0  0  0  0  0  0  0  0  0  0
   10.0262  -20.5766   21.6675 O   0  0  0  0  0  0  0  0  0  0  0  0
    9.0135  -18.4519   21.8420 C   0  0  0  0  0  0  0  0  0  0  0  0
    8.7968  -18.1833   23.3239 C   0  0  2  0  0  0  0  0  0  0  0  0
    8.4232  -16.8562   23.6628 N   0  0  0  0  0  0  0  0  0  0  0  0
    9.7647  -18.8488   24.1967 C   0  0  0  0  0  0  0  0  0  0  0  0
    9.9528  -20.0934   24.0173 O   0  0  0  0  0  0  0  0  0  0  0  0
   13.3226  -16.8602   23.8735 N   0  0  0  0  0  0  0  0  0  0  0  0
   13.2736  -18.1445   24.5172 C   0  0  0  0  0  0  0  0  0  0  0  0
   13.6295  -19.1702   23.9051 O   0  0  0  0  0  0  0  0  0  0  0  0
   12.7940  -18.1929   25.9056 C   0  0  0  0  0  0  0  0  0  0  0  0
   11.4782  -18.9469   26.0456 C   0  0  2  0  0  0  0  0  0  0  0  0
   10.5228  -18.2589   25.2274 N   0  0  0  0  0  0  0  0  0  0  0  0
   11.1331  -18.9978   27.4710 C   0  0  0  0  0  0  0  0  0  0  0  0
   11.9836  -19.6388   28.3658 O   0  0  0  0  0  0  0  0  0  0  0  0
   10.0978  -18.4924   27.9520 O   0  0  0  0  0  0  0  0  0  0  0  0
  1  2  1  0
  2  3  1  0
  3  4  1  0
  5  4  1  0
  5  7  1  0
  5  6  1  6
  7  8  2  0
  9 10  1  0
 10 11  2  0
 12 10  1  0
 13 12  1  6
 14 13  1  0
 14  7  1  0
 15 13  1  0
 15 16  2  0
 17 18  1  0
 18 20  1  0
 19 18  2  0
 21 20  1  1
 21 22  1  0
 21 23  1  0
 22 15  1  0
 23 24  1  0
 25 23  2  0
M  END
$$$$
