CKF.pdb
     RDKit          3D

 27 27  0  0  1  0  0  0  0  0999 V2000
    7.6107  -14.6894   17.9007 N   0  0  0  0  0  0  0  0  0  0  0  0
    8.3978  -14.3769   19.0650 C   0  0  1  0  0  0  0  0  0  0  0  0
    8.2094  -12.9443   19.5175 C   0  0  0  0  0  0  0  0  0  0  0  0
    9.1427  -11.7862   18.4982 S   0  0  0  0  0  0  0  0  0  0  0  0
    7.9516  -15.2611   20.1839 C   0  0  0  0  0  0  0  0  0  0  0  0
    6.7157  -15.5083   20.3697 O   0  0  0  0  0  0  0  0  0  0  0  0
    8.9125  -15.8292   21.0453 N   0  0  0  0  0  0  0  0  0  0  0  0
    8.5745  -16.7032   22.1733 C   0  0  1  0  0  0  0  0  0  0  0  0
    8.7908  -18.0903   21.6610 C   0  0  0  0  0  0  0  0  0  0  0  0
    9.9254  -18.2916   20.7285 C   0  0  0  0  0  0  0  0  0  0  0  0
    9.8839  -19.7581   20.2848 C   0  0  0  0  0  0  0  0  0  0  0  0
   11.0551  -20.0625   19.3700 C   0  0  0  0  0  0  0  0  0  0  0  0
   11.0039  -21.4831   19.0460 N   0  0  0  0  0  0  0  0  0  0  0  0
    9.4202  -16.2956   23.2953 C   0  0  0  0  0  0  0  0  0  0  0  0
   10.6860  -16.1414   23.1635 O   0  0  0  0  0  0  0  0  0  0  0  0
    8.9370  -16.0344   24.6060 N   0  0  0  0  0  0  0  0  0  0  0  0
    9.8634  -15.6752   25.7003 C   0  0  1  0  0  0  0  0  0  0  0  0
    9.9662  -14.1864   25.6782 C   0  0  0  0  0  0  0  0  0  0  0  0
    8.6458  -13.5954   25.9759 C   0  0  0  0  0  0  0  0  0  0  0  0
    7.6552  -13.5180   25.0164 C   0  0  0  0  0  0  0  0  0  0  0  0
    6.4230  -12.9671   25.3012 C   0  0  0  0  0  0  0  0  0  0  0  0
    6.1570  -12.4790   26.5627 C   0  0  0  0  0  0  0  0  0  0  0  0
    7.1376  -12.5524   27.5225 C   0  0  0  0  0  0  0  0  0  0  0  0
    8.3674  -13.0979   27.2527 C   0  0  0  0  0  0  0  0  0  0  0  0
    9.4146  -16.2492   26.9685 C   0  0  0  0  0  0  0  0  0  0  0  0
   10.1064  -16.0358   28.0128 O   0  0  0  0  0  0  0  0  0  0  0  0
    8.2850  -17.0165   27.1397 O   0  0  0  0  0  0  0  0  0  0  0  0
  2  3  1  0
  2  5  1  0
  2  1  1  6
  4  3  1  0
  5  6  2  0
  7  8  1  0
  7  5  1  0
  8 14  1  0
  9 10  1  0
  8  9  1  6
 10 11  1  0
 12 11  1  0
 12 13  1  0
 14 15  2  0
 16 14  1  0
 16 17  1  0
 17 25  1  0
 17 18  1  1
 19 18  1  0
 20 19  2  0
 21 20  1  0
 22 21  2  0
 22 23  1  0
 23 24  2  0
 24 19  1  0
 25 26  2  0
 25 27  1  0
M  END
$$$$
