CKF.pdb
     RDKit          3D

 27 27  0  0  1  0  0  0  0  0999 V2000
    7.0255  -20.2888   22.6122 N   0  0  0  0  0  0  0  0  0  0  0  0
    6.3778  -19.0532   22.9680 C   0  0  1  0  0  0  0  0  0  0  0  0
    6.1581  -18.9297   24.4610 C   0  0  0  0  0  0  0  0  0  0  0  0
    7.4215  -19.8047   25.4040 S   0  0  0  0  0  0  0  0  0  0  0  0
    7.2623  -17.9232   22.5517 C   0  0  0  0  0  0  0  0  0  0  0  0
    8.4673  -18.1324   22.1946 O   0  0  0  0  0  0  0  0  0  0  0  0
    6.7555  -16.6074   22.5543 N   0  0  0  0  0  0  0  0  0  0  0  0
    7.5537  -15.4301   22.1979 C   0  0  1  0  0  0  0  0  0  0  0  0
    6.5625  -14.4367   21.6842 C   0  0  0  0  0  0  0  0  0  0  0  0
    7.1060  -13.1876   21.0997 C   0  0  0  0  0  0  0  0  0  0  0  0
    7.6153  -13.5357   19.6967 C   0  0  0  0  0  0  0  0  0  0  0  0
    8.0974  -12.2840   18.9882 C   0  0  0  0  0  0  0  0  0  0  0  0
    8.5003  -12.6675   17.6406 N   0  0  0  0  0  0  0  0  0  0  0  0
    8.2912  -15.0369   23.3986 C   0  0  0  0  0  0  0  0  0  0  0  0
    8.2876  -13.8282   23.8256 O   0  0  0  0  0  0  0  0  0  0  0  0
    9.0613  -15.9303   24.1912 N   0  0  0  0  0  0  0  0  0  0  0  0
    9.2195  -15.7137   25.6448 C   0  0  1  0  0  0  0  0  0  0  0  0
    7.8391  -15.5452   26.1867 C   0  0  0  0  0  0  0  0  0  0  0  0
    7.5262  -14.1065   26.3038 C   0  0  0  0  0  0  0  0  0  0  0  0
    8.4798  -13.1890   26.6993 C   0  0  0  0  0  0  0  0  0  0  0  0
    8.1822  -11.8461   26.8044 C   0  0  0  0  0  0  0  0  0  0  0  0
    6.9134  -11.3926   26.5130 C   0  0  0  0  0  0  0  0  0  0  0  0
    5.9593  -12.2996   26.1189 C   0  0  0  0  0  0  0  0  0  0  0  0
    6.2418  -13.6379   26.0102 C   0  0  0  0  0  0  0  0  0  0  0  0
    9.9971  -16.7956   26.2482 C   0  0  0  0  0  0  0  0  0  0  0  0
   10.1126  -17.8904   25.6135 O   0  0  0  0  0  0  0  0  0  0  0  0
   10.6311  -16.7359   27.4683 O   0  0  0  0  0  0  0  0  0  0  0  0
  2  3  1  0
  2  5  1  0
  2  1  1  1
  4  3  1  0
  5  6  2  0
  7  8  1  0
  7  5  1  0
  8 14  1  0
  9 10  1  0
  8  9  1  1
 10 11  1  0
 12 11  1  0
 12 13  1  0
 14 15  2  0
 16 14  1  0
 16 17  1  0
 17 25  1  0
 17 18  1  1
 19 18  1  0
 20 19  2  0
 21 20  1  0
 22 21  2  0
 22 23  1  0
 23 24  2  0
 24 19  1  0
 25 26  2  0
 25 27  1  0
M  END
$$$$
