CKF.pdb
     RDKit          3D

 27 27  0  0  1  0  0  0  0  0999 V2000
    8.8556  -14.9951   18.4898 N   0  0  0  0  0  0  0  0  0  0  0  0
    8.6791  -13.9132   19.4231 C   0  0  1  0  0  0  0  0  0  0  0  0
    7.6428  -12.9139   18.9540 C   0  0  0  0  0  0  0  0  0  0  0  0
    7.6085  -12.7702   17.1570 S   0  0  0  0  0  0  0  0  0  0  0  0
    8.1957  -14.4840   20.7167 C   0  0  0  0  0  0  0  0  0  0  0  0
    7.8936  -13.7253   21.6946 O   0  0  0  0  0  0  0  0  0  0  0  0
    8.0727  -15.8817   20.8560 N   0  0  0  0  0  0  0  0  0  0  0  0
    7.5730  -16.5348   22.0702 C   0  0  1  0  0  0  0  0  0  0  0  0
    7.2002  -17.9154   21.6364 C   0  0  0  0  0  0  0  0  0  0  0  0
    8.2987  -18.7872   21.1563 C   0  0  0  0  0  0  0  0  0  0  0  0
    7.6627  -20.1173   20.7374 C   0  0  0  0  0  0  0  0  0  0  0  0
    8.7250  -21.0643   20.2124 C   0  0  0  0  0  0  0  0  0  0  0  0
    8.0496  -22.2680   19.7429 N   0  0  0  0  0  0  0  0  0  0  0  0
    8.6363  -16.4429   23.0707 C   0  0  0  0  0  0  0  0  0  0  0  0
    9.8709  -16.5864   22.7567 O   0  0  0  0  0  0  0  0  0  0  0  0
    8.4141  -16.1899   24.4513 N   0  0  0  0  0  0  0  0  0  0  0  0
    9.5473  -16.0210   25.3853 C   0  0  1  0  0  0  0  0  0  0  0  0
    9.8514  -14.5599   25.4007 C   0  0  0  0  0  0  0  0  0  0  0  0
    8.6797  -13.8163   25.9062 C   0  0  0  0  0  0  0  0  0  0  0  0
    8.5496  -13.4940   27.2430 C   0  0  0  0  0  0  0  0  0  0  0  0
    7.4540  -12.7971   27.7088 C   0  0  0  0  0  0  0  0  0  0  0  0
    6.4595  -12.4065   26.8377 C   0  0  0  0  0  0  0  0  0  0  0  0
    6.5820  -12.7237   25.5063 C   0  0  0  0  0  0  0  0  0  0  0  0
    7.6663  -13.4163   25.0297 C   0  0  0  0  0  0  0  0  0  0  0  0
    9.2353  -16.6053   26.6893 C   0  0  0  0  0  0  0  0  0  0  0  0
    8.0661  -17.0611   26.8889 O   0  0  0  0  0  0  0  0  0  0  0  0
   10.1120  -16.7106   27.7449 O   0  0  0  0  0  0  0  0  0  0  0  0
  2  3  1  0
  2  5  1  0
  2  1  1  6
  4  3  1  0
  5  6  2  0
  7  8  1  0
  7  5  1  0
  8 14  1  0
  9 10  1  0
  8  9  1  6
 10 11  1  0
 12 11  1  0
 12 13  1  0
 14 15  2  0
 16 14  1  0
 16 17  1  0
 17 25  1  0
 17 18  1  1
 19 18  1  0
 20 19  2  0
 21 20  1  0
 22 21  2  0
 22 23  1  0
 23 24  2  0
 24 19  1  0
 25 26  2  0
 25 27  1  0
M  END
$$$$
