CKF.pdb
     RDKit          3D

 27 27  0  0  1  0  0  0  0  0999 V2000
    7.2741  -19.3428   20.2108 N   0  0  0  0  0  0  0  0  0  0  0  0
    6.8322  -18.2273   21.0064 C   0  0  1  0  0  0  0  0  0  0  0  0
    6.2341  -18.6652   22.3267 C   0  0  0  0  0  0  0  0  0  0  0  0
    7.4127  -19.5935   23.3269 S   0  0  0  0  0  0  0  0  0  0  0  0
    8.0182  -17.3723   21.3150 C   0  0  0  0  0  0  0  0  0  0  0  0
    9.2000  -17.8434   21.2472 O   0  0  0  0  0  0  0  0  0  0  0  0
    7.8256  -16.0258   21.6863 N   0  0  0  0  0  0  0  0  0  0  0  0
    8.9163  -15.1307   22.0859 C   0  0  1  0  0  0  0  0  0  0  0  0
    8.5439  -13.7980   21.5219 C   0  0  0  0  0  0  0  0  0  0  0  0
    7.6071  -13.7938   20.3731 C   0  0  0  0  0  0  0  0  0  0  0  0
    8.4431  -13.5287   19.1161 C   0  0  0  0  0  0  0  0  0  0  0  0
    7.5386  -13.3682   17.9089 C   0  0  0  0  0  0  0  0  0  0  0  0
    8.3882  -13.1100   16.7527 N   0  0  0  0  0  0  0  0  0  0  0  0
    9.0145  -15.2046   23.5437 C   0  0  0  0  0  0  0  0  0  0  0  0
    9.9578  -14.6203   24.1856 O   0  0  0  0  0  0  0  0  0  0  0  0
    8.0989  -15.9090   24.3712 N   0  0  0  0  0  0  0  0  0  0  0  0
    8.3547  -16.0765   25.8174 C   0  0  1  0  0  0  0  0  0  0  0  0
    7.0690  -15.7504   26.5015 C   0  0  0  0  0  0  0  0  0  0  0  0
    6.9628  -14.2886   26.6834 C   0  0  0  0  0  0  0  0  0  0  0  0
    5.8241  -13.5957   26.3213 C   0  0  0  0  0  0  0  0  0  0  0  0
    5.7299  -12.2306   26.4960 C   0  0  0  0  0  0  0  0  0  0  0  0
    6.7828  -11.5273   27.0411 C   0  0  0  0  0  0  0  0  0  0  0  0
    7.9190  -12.2099   27.4038 C   0  0  0  0  0  0  0  0  0  0  0  0
    8.0260  -13.5675   27.2356 C   0  0  0  0  0  0  0  0  0  0  0  0
    8.8885  -17.4090   26.0981 C   0  0  0  0  0  0  0  0  0  0  0  0
    8.8743  -18.2788   25.1718 O   0  0  0  0  0  0  0  0  0  0  0  0
    9.4181  -17.8174   27.3009 O   0  0  0  0  0  0  0  0  0  0  0  0
  2  3  1  0
  2  5  1  0
  2  1  1  6
  4  3  1  0
  5  6  2  0
  7  8  1  0
  7  5  1  0
  8 14  1  0
  9 10  1  0
  8  9  1  1
 10 11  1  0
 12 11  1  0
 12 13  1  0
 14 15  2  0
 16 14  1  0
 16 17  1  0
 17 25  1  0
 17 18  1  1
 19 18  1  0
 20 19  2  0
 21 20  1  0
 22 21  2  0
 22 23  1  0
 23 24  2  0
 24 19  1  0
 25 26  2  0
 25 27  1  0
M  END
$$$$
