CKF.pdb
     RDKit          3D

 27 27  0  0  1  0  0  0  0  0999 V2000
    6.3554  -19.7976   21.5806 N   0  0  0  0  0  0  0  0  0  0  0  0
    6.0760  -18.4394   21.9678 C   0  0  1  0  0  0  0  0  0  0  0  0
    5.4263  -18.3539   23.3328 C   0  0  0  0  0  0  0  0  0  0  0  0
    6.3954  -19.2002   24.5960 S   0  0  0  0  0  0  0  0  0  0  0  0
    7.3708  -17.6971   22.0422 C   0  0  0  0  0  0  0  0  0  0  0  0
    8.4836  -18.3158   21.9949 O   0  0  0  0  0  0  0  0  0  0  0  0
    7.3598  -16.2927   22.1664 N   0  0  0  0  0  0  0  0  0  0  0  0
    8.5681  -15.4638   22.1073 C   0  0  1  0  0  0  0  0  0  0  0  0
    8.1204  -14.1778   21.4916 C   0  0  0  0  0  0  0  0  0  0  0  0
    8.3824  -14.0005   20.0434 C   0  0  0  0  0  0  0  0  0  0  0  0
    7.8804  -12.6022   19.6667 C   0  0  0  0  0  0  0  0  0  0  0  0
    8.0131  -12.3826   18.1716 C   0  0  0  0  0  0  0  0  0  0  0  0
    8.0954  -13.6934   17.5389 N   0  0  0  0  0  0  0  0  0  0  0  0
    9.0891  -15.3737   23.4713 C   0  0  0  0  0  0  0  0  0  0  0  0
   10.2015  -14.7916   23.7304 O   0  0  0  0  0  0  0  0  0  0  0  0
    8.4320  -15.9047   24.6140 N   0  0  0  0  0  0  0  0  0  0  0  0
    9.0332  -15.7886   25.9593 C   0  0  1  0  0  0  0  0  0  0  0  0
    7.9157  -15.4198   26.8772 C   0  0  0  0  0  0  0  0  0  0  0  0
    7.5210  -14.0170   26.6368 C   0  0  0  0  0  0  0  0  0  0  0  0
    6.2247  -13.6778   26.3016 C   0  0  0  0  0  0  0  0  0  0  0  0
    5.8616  -12.3655   26.0807 C   0  0  0  0  0  0  0  0  0  0  0  0
    6.7973  -11.3593   26.1920 C   0  0  0  0  0  0  0  0  0  0  0  0
    8.0890  -11.6891   26.5251 C   0  0  0  0  0  0  0  0  0  0  0  0
    8.4637  -12.9902   26.7475 C   0  0  0  0  0  0  0  0  0  0  0  0
    9.7511  -17.0127   26.3134 C   0  0  0  0  0  0  0  0  0  0  0  0
   10.2715  -17.1013   27.4693 O   0  0  0  0  0  0  0  0  0  0  0  0
    9.9182  -18.1038   25.4915 O   0  0  0  0  0  0  0  0  0  0  0  0
  2  3  1  0
  2  5  1  0
  2  1  1  1
  4  3  1  0
  5  6  2  0
  7  8  1  0
  7  5  1  0
  8 14  1  0
  9 10  1  0
  8  9  1  1
 10 11  1  0
 12 11  1  0
 12 13  1  0
 14 15  2  0
 16 14  1  0
 16 17  1  0
 17 25  1  0
 17 18  1  1
 19 18  1  0
 20 19  2  0
 21 20  1  0
 22 21  2  0
 22 23  1  0
 23 24  2  0
 24 19  1  0
 25 26  2  0
 25 27  1  0
M  END
$$$$
