CKF.pdb
     RDKit          3D

 27 27  0  0  1  0  0  0  0  0999 V2000
    6.5179  -14.5194   18.8116 N   0  0  0  0  0  0  0  0  0  0  0  0
    7.6516  -14.2829   19.6669 C   0  0  1  0  0  0  0  0  0  0  0  0
    7.9128  -12.8065   19.8785 C   0  0  0  0  0  0  0  0  0  0  0  0
    8.6786  -12.0430   18.4356 S   0  0  0  0  0  0  0  0  0  0  0  0
    7.3623  -14.8816   21.0051 C   0  0  0  0  0  0  0  0  0  0  0  0
    6.4331  -14.4172   21.7429 O   0  0  0  0  0  0  0  0  0  0  0  0
    8.1288  -15.9754   21.4567 N   0  0  0  0  0  0  0  0  0  0  0  0
    7.9125  -16.6402   22.7458 C   0  0  1  0  0  0  0  0  0  0  0  0
    7.1270  -17.8680   22.4163 C   0  0  0  0  0  0  0  0  0  0  0  0
    5.7609  -17.6658   21.8777 C   0  0  0  0  0  0  0  0  0  0  0  0
    5.1525  -19.0571   21.6692 C   0  0  0  0  0  0  0  0  0  0  0  0
    3.7189  -18.9360   21.1885 C   0  0  0  0  0  0  0  0  0  0  0  0
    3.2286  -20.2825   20.9202 N   0  0  0  0  0  0  0  0  0  0  0  0
    9.2324  -16.8634   23.3359 C   0  0  0  0  0  0  0  0  0  0  0  0
    9.7070  -18.0432   23.4981 O   0  0  0  0  0  0  0  0  0  0  0  0
   10.0976  -15.8245   23.7737 N   0  0  0  0  0  0  0  0  0  0  0  0
   10.4390  -15.6714   25.2037 C   0  0  1  0  0  0  0  0  0  0  0  0
    9.2036  -15.1608   25.8676 C   0  0  0  0  0  0  0  0  0  0  0  0
    9.4685  -14.9431   27.3041 C   0  0  0  0  0  0  0  0  0  0  0  0
    9.7920  -15.9889   28.1465 C   0  0  0  0  0  0  0  0  0  0  0  0
   10.0407  -15.7787   29.4870 C   0  0  0  0  0  0  0  0  0  0  0  0
    9.9697  -14.5070   30.0140 C   0  0  0  0  0  0  0  0  0  0  0  0
    9.6484  -13.4615   29.1821 C   0  0  0  0  0  0  0  0  0  0  0  0
    9.3986  -13.6563   27.8471 C   0  0  0  0  0  0  0  0  0  0  0  0
   10.9658  -16.9228   25.7474 C   0  0  0  0  0  0  0  0  0  0  0  0
   12.1006  -16.9089   26.3191 O   0  0  0  0  0  0  0  0  0  0  0  0
   10.3308  -18.1427   25.6969 O   0  0  0  0  0  0  0  0  0  0  0  0
  2  3  1  0
  2  5  1  0
  2  1  1  6
  4  3  1  0
  5  6  2  0
  7  8  1  0
  7  5  1  0
  8 14  1  0
  9 10  1  0
  8  9  1  6
 10 11  1  0
 12 11  1  0
 12 13  1  0
 14 15  2  0
 16 14  1  0
 16 17  1  0
 17 25  1  0
 17 18  1  1
 19 18  1  0
 20 19  2  0
 21 20  1  0
 22 21  2  0
 22 23  1  0
 23 24  2  0
 24 19  1  0
 25 26  2  0
 25 27  1  0
M  END
$$$$
