CKF.pdb
     RDKit          3D

 27 27  0  0  1  0  0  0  0  0999 V2000
    7.3024  -13.4641   19.1280 N   0  0  0  0  0  0  0  0  0  0  0  0
    8.5247  -13.9079   19.7460 C   0  0  1  0  0  0  0  0  0  0  0  0
    9.1507  -12.8368   20.6140 C   0  0  0  0  0  0  0  0  0  0  0  0
    8.0286  -12.2763   21.9093 S   0  0  0  0  0  0  0  0  0  0  0  0
    8.2080  -15.0704   20.6298 C   0  0  0  0  0  0  0  0  0  0  0  0
    7.0045  -15.3429   20.9468 O   0  0  0  0  0  0  0  0  0  0  0  0
    9.2564  -15.8764   21.1191 N   0  0  0  0  0  0  0  0  0  0  0  0
    9.0428  -17.1340   21.8425 C   0  0  1  0  0  0  0  0  0  0  0  0
    9.8641  -18.1428   21.1071 C   0  0  0  0  0  0  0  0  0  0  0  0
    9.6273  -18.2663   19.6490 C   0  0  0  0  0  0  0  0  0  0  0  0
    8.7231  -19.4869   19.4452 C   0  0  0  0  0  0  0  0  0  0  0  0
    8.5190  -19.7470   17.9647 C   0  0  0  0  0  0  0  0  0  0  0  0
    7.6796  -20.9322   17.8369 N   0  0  0  0  0  0  0  0  0  0  0  0
    9.4203  -16.8929   23.2351 C   0  0  0  0  0  0  0  0  0  0  0  0
    9.6206  -17.8576   24.0554 O   0  0  0  0  0  0  0  0  0  0  0  0
    9.6006  -15.6023   23.8019 N   0  0  0  0  0  0  0  0  0  0  0  0
    9.9635  -15.4410   25.2257 C   0  0  1  0  0  0  0  0  0  0  0  0
    9.8761  -13.9780   25.5077 C   0  0  0  0  0  0  0  0  0  0  0  0
    8.4707  -13.6087   25.7718 C   0  0  0  0  0  0  0  0  0  0  0  0
    7.5807  -13.3680   24.7432 C   0  0  0  0  0  0  0  0  0  0  0  0
    6.2685  -13.0259   24.9962 C   0  0  0  0  0  0  0  0  0  0  0  0
    5.8187  -12.9171   26.2947 C   0  0  0  0  0  0  0  0  0  0  0  0
    6.6983  -13.1550   27.3233 C   0  0  0  0  0  0  0  0  0  0  0  0
    8.0060  -13.4961   27.0858 C   0  0  0  0  0  0  0  0  0  0  0  0
    9.1259  -16.2892   26.0731 C   0  0  0  0  0  0  0  0  0  0  0  0
    8.0378  -16.7410   25.5971 O   0  0  0  0  0  0  0  0  0  0  0  0
    9.4145  -16.6527   27.3687 O   0  0  0  0  0  0  0  0  0  0  0  0
  2  3  1  0
  2  5  1  0
  2  1  1  1
  4  3  1  0
  5  6  2  0
  7  8  1  0
  7  5  1  0
  8 14  1  0
  9 10  1  0
  8  9  1  6
 10 11  1  0
 12 11  1  0
 12 13  1  0
 14 15  2  0
 16 14  1  0
 16 17  1  0
 17 25  1  0
 17 18  1  1
 19 18  1  0
 20 19  2  0
 21 20  1  0
 22 21  2  0
 22 23  1  0
 23 24  2  0
 24 19  1  0
 25 26  2  0
 25 27  1  0
M  END
$$$$
