ALR.pdb
     RDKit          3D

 25 24  0  0  1  0  0  0  0  0999 V2000
   15.6558   -9.5458  -15.8424 C   0  0  0  0  0  0  0  0  0  0  0  0
   17.1133   -9.7956  -15.5946 C   0  0  2  0  0  0  0  0  0  0  0  0
   17.4946  -11.1781  -15.7907 N   0  0  0  0  0  0  0  0  0  0  0  0
   17.4815   -9.4264  -14.1986 C   0  0  0  0  0  0  0  0  0  0  0  0
   16.9800  -10.0960  -13.2431 O   0  0  0  0  0  0  0  0  0  0  0  0
   22.5593   -7.4059  -12.9359 C   0  0  0  0  0  0  0  0  0  0  0  0
   21.2351   -8.0571  -13.0488 C   0  0  1  0  0  0  0  0  0  0  0  0
   21.3854   -9.4456  -12.3989 C   0  0  0  0  0  0  0  0  0  0  0  0
   20.0800   -7.4177  -12.3967 C   0  0  0  0  0  0  0  0  0  0  0  0
   18.7419   -8.0190  -12.5302 C   0  0  2  0  0  0  0  0  0  0  0  0
   18.3646   -8.3640  -13.8753 N   0  0  0  0  0  0  0  0  0  0  0  0
   17.7167   -7.2352  -11.8274 C   0  0  0  0  0  0  0  0  0  0  0  0
   17.1670   -6.2864  -12.4585 O   0  0  0  0  0  0  0  0  0  0  0  0
   10.5681   -8.1959   -8.0884 N   0  0  0  0  0  0  0  0  0  0  0  0
   11.6050   -9.1587   -8.0528 C   0  0  0  0  0  0  0  0  0  0  0  0
   11.3885  -10.4195   -8.0807 N   0  0  0  0  0  0  0  0  0  0  0  0
   12.9778   -8.6895   -7.9838 N   0  0  0  0  0  0  0  0  0  0  0  0
   13.1837   -7.2807   -8.0015 C   0  0  0  0  0  0  0  0  0  0  0  0
   14.5464   -6.7413   -7.9728 C   0  0  0  0  0  0  0  0  0  0  0  0
   15.6343   -7.4210   -8.7152 C   0  0  0  0  0  0  0  0  0  0  0  0
   16.1425   -6.7224   -9.8982 C   0  0  2  0  0  0  0  0  0  0  0  0
   17.2924   -7.4466  -10.5064 N   0  0  0  0  0  0  0  0  0  0  0  0
   16.6807   -5.3988   -9.5496 C   0  0  0  0  0  0  0  0  0  0  0  0
   17.9130   -5.2905   -9.1821 O   0  0  0  0  0  0  0  0  0  0  0  0
   15.9966   -4.2171   -9.5696 O   0  0  0  0  0  0  0  0  0  0  0  0
  2  1  1  1
  2  4  1  0
  2  3  1  0
  4  5  2  0
  7  6  1  1
  7  8  1  0
  9  7  1  0
 10  9  1  6
 10 12  1  0
 11 10  1  0
 11  4  1  0
 12 13  2  0
 14 15  1  0
 15 16  2  0
 17 18  1  0
 17 15  1  0
 19 20  1  0
 19 18  1  0
 21 20  1  1
 21 23  1  0
 22 21  1  0
 22 12  1  0
 23 24  2  0
 23 25  1  0
M  END
$$$$
