ALR.pdb
     RDKit          3D

 25 24  0  0  1  0  0  0  0  0999 V2000
   30.4509  -20.5754  -11.4011 C   0  0  0  0  0  0  0  0  0  0  0  0
   30.6544  -21.1704  -10.0400 C   0  0  2  0  0  0  0  0  0  0  0  0
   31.2772  -22.4765  -10.0778 N   0  0  0  0  0  0  0  0  0  0  0  0
   29.3530  -21.3186   -9.3295 C   0  0  0  0  0  0  0  0  0  0  0  0
   28.6249  -22.3225   -9.6030 O   0  0  0  0  0  0  0  0  0  0  0  0
   28.5776  -19.1543   -4.1730 C   0  0  0  0  0  0  0  0  0  0  0  0
   28.6701  -19.9002   -5.4481 C   0  0  1  0  0  0  0  0  0  0  0  0
   28.8273  -21.3838   -5.0643 C   0  0  0  0  0  0  0  0  0  0  0  0
   27.5360  -19.8329   -6.3850 C   0  0  0  0  0  0  0  0  0  0  0  0
   27.6179  -20.5294   -7.6804 C   0  0  2  0  0  0  0  0  0  0  0  0
   28.8791  -20.3970   -8.3604 N   0  0  0  0  0  0  0  0  0  0  0  0
   26.4654  -20.2247   -8.5397 C   0  0  0  0  0  0  0  0  0  0  0  0
   26.1786  -19.0070   -8.7283 O   0  0  0  0  0  0  0  0  0  0  0  0
   26.1269  -22.5579  -14.8517 N   0  0  0  0  0  0  0  0  0  0  0  0
   24.8533  -23.1286  -15.0879 C   0  0  0  0  0  0  0  0  0  0  0  0
   24.6873  -24.2285  -15.7202 N   0  0  0  0  0  0  0  0  0  0  0  0
   23.6828  -22.4311  -14.5853 N   0  0  0  0  0  0  0  0  0  0  0  0
   23.9045  -21.3865  -13.6434 C   0  0  0  0  0  0  0  0  0  0  0  0
   23.4549  -21.5455  -12.2573 C   0  0  0  0  0  0  0  0  0  0  0  0
   24.4338  -21.8377  -11.1835 C   0  0  0  0  0  0  0  0  0  0  0  0
   24.5907  -20.8063  -10.1552 C   0  0  2  0  0  0  0  0  0  0  0  0
   25.6471  -21.1732   -9.1723 N   0  0  0  0  0  0  0  0  0  0  0  0
   23.3688  -20.6621   -9.3493 C   0  0  0  0  0  0  0  0  0  0  0  0
   23.2791  -21.2728   -8.2162 O   0  0  0  0  0  0  0  0  0  0  0  0
   22.2674  -19.9239   -9.6762 O   0  0  0  0  0  0  0  0  0  0  0  0
  2  1  1  6
  2  4  1  0
  2  3  1  0
  4  5  2  0
  7  6  1  1
  7  8  1  0
  9  7  1  0
 10  9  1  1
 10 12  1  0
 11 10  1  0
 11  4  1  0
 12 13  2  0
 14 15  1  0
 15 16  2  0
 17 18  1  0
 17 15  1  0
 19 20  1  0
 19 18  1  0
 21 20  1  6
 21 23  1  0
 22 21  1  0
 22 12  1  0
 23 24  2  0
 23 25  1  0
M  END
$$$$
