ALR.pdb
     RDKit          3D

 25 24  0  0  1  0  0  0  0  0999 V2000
   21.7756  -22.4552   -9.4098 C   0  0  0  0  0  0  0  0  0  0  0  0
   22.1917  -21.2696   -8.5918 C   0  0  2  0  0  0  0  0  0  0  0  0
   21.1745  -20.2421   -8.5216 N   0  0  0  0  0  0  0  0  0  0  0  0
   23.4189  -20.6426   -9.1586 C   0  0  0  0  0  0  0  0  0  0  0  0
   23.2853  -19.6627   -9.9554 O   0  0  0  0  0  0  0  0  0  0  0  0
   28.3619  -20.4562   -6.4061 C   0  0  0  0  0  0  0  0  0  0  0  0
   27.1623  -20.1834   -7.2289 C   0  0  1  0  0  0  0  0  0  0  0  0
   27.0312  -18.6500   -7.2974 C   0  0  0  0  0  0  0  0  0  0  0  0
   27.1414  -20.6632   -8.6209 C   0  0  0  0  0  0  0  0  0  0  0  0
   25.9208  -20.5021   -9.4297 C   0  0  2  0  0  0  0  0  0  0  0  0
   24.7343  -21.0807   -8.8571 N   0  0  0  0  0  0  0  0  0  0  0  0
   26.1356  -20.8949  -10.8294 C   0  0  0  0  0  0  0  0  0  0  0  0
   26.1597  -22.1315  -11.0957 O   0  0  0  0  0  0  0  0  0  0  0  0
   24.6517  -20.5407  -17.8798 N   0  0  0  0  0  0  0  0  0  0  0  0
   23.6303  -19.5656  -17.7830 C   0  0  0  0  0  0  0  0  0  0  0  0
   22.4944  -19.6844  -18.3599 N   0  0  0  0  0  0  0  0  0  0  0  0
   23.8867  -18.3770  -16.9887 N   0  0  0  0  0  0  0  0  0  0  0  0
   25.0601  -18.3761  -16.1821 C   0  0  0  0  0  0  0  0  0  0  0  0
   25.2450  -19.4111  -15.1607 C   0  0  0  0  0  0  0  0  0  0  0  0
   26.4187  -19.3669  -14.2567 C   0  0  0  0  0  0  0  0  0  0  0  0
   26.5407  -20.4723  -13.3033 C   0  0  2  0  0  0  0  0  0  0  0  0
   26.3203  -20.0121  -11.9046 N   0  0  0  0  0  0  0  0  0  0  0  0
   27.9017  -21.0299  -13.2997 C   0  0  0  0  0  0  0  0  0  0  0  0
   28.2660  -21.8231  -14.2502 O   0  0  0  0  0  0  0  0  0  0  0  0
   28.8686  -20.7960  -12.3642 O   0  0  0  0  0  0  0  0  0  0  0  0
  2  1  1  6
  2  4  1  0
  2  3  1  0
  4  5  2  0
  7  6  1  6
  7  8  1  0
  9  7  1  0
 10  9  1  1
 10 12  1  0
 11 10  1  0
 11  4  1  0
 12 13  2  0
 14 15  1  0
 15 16  2  0
 17 18  1  0
 17 15  1  0
 19 20  1  0
 19 18  1  0
 21 20  1  6
 21 23  1  0
 22 21  1  0
 22 12  1  0
 23 24  2  0
 23 25  1  0
M  END
$$$$
