ALR.pdb
     RDKit          3D

 25 24  0  0  1  0  0  0  0  0999 V2000
   24.3084  -19.9582  -21.9917 C   0  0  0  0  0  0  0  0  0  0  0  0
   25.6044  -19.4594  -21.4263 C   0  0  2  0  0  0  0  0  0  0  0  0
   26.7173  -20.3479  -21.6855 N   0  0  0  0  0  0  0  0  0  0  0  0
   25.5048  -19.2904  -19.9492 C   0  0  0  0  0  0  0  0  0  0  0  0
   25.5360  -20.3281  -19.2177 O   0  0  0  0  0  0  0  0  0  0  0  0
   27.0408  -15.3505  -15.4447 C   0  0  0  0  0  0  0  0  0  0  0  0
   26.1742  -16.4474  -15.9310 C   0  0  1  0  0  0  0  0  0  0  0  0
   24.7392  -16.0754  -15.5121 C   0  0  0  0  0  0  0  0  0  0  0  0
   26.1265  -16.7159  -17.3780 C   0  0  0  0  0  0  0  0  0  0  0  0
   25.3425  -17.8563  -17.8828 C   0  0  2  0  0  0  0  0  0  0  0  0
   25.3765  -18.0297  -19.3108 N   0  0  0  0  0  0  0  0  0  0  0  0
   23.9798  -17.8699  -17.3330 C   0  0  0  0  0  0  0  0  0  0  0  0
   23.2077  -16.9199  -17.6523 O   0  0  0  0  0  0  0  0  0  0  0  0
   19.4687  -20.6080  -11.2635 N   0  0  0  0  0  0  0  0  0  0  0  0
   18.3522  -20.9268  -12.0731 C   0  0  0  0  0  0  0  0  0  0  0  0
   17.1434  -20.8313  -11.6647 N   0  0  0  0  0  0  0  0  0  0  0  0
   18.5944  -21.3810  -13.4312 N   0  0  0  0  0  0  0  0  0  0  0  0
   19.9309  -21.2968  -13.9151 C   0  0  0  0  0  0  0  0  0  0  0  0
   20.3781  -20.0914  -14.6192 C   0  0  0  0  0  0  0  0  0  0  0  0
   21.7322  -20.0363  -15.2194 C   0  0  0  0  0  0  0  0  0  0  0  0
   22.0583  -18.8184  -15.9651 C   0  0  2  0  0  0  0  0  0  0  0  0
   23.4563  -18.8505  -16.4763 N   0  0  0  0  0  0  0  0  0  0  0  0
   22.0072  -17.6299  -15.1002 C   0  0  0  0  0  0  0  0  0  0  0  0
   21.0193  -16.8068  -15.2089 O   0  0  0  0  0  0  0  0  0  0  0  0
   22.9263  -17.2795  -14.1529 O   0  0  0  0  0  0  0  0  0  0  0  0
  2  1  1  1
  2  4  1  0
  2  3  1  0
  4  5  2  0
  7  6  1  6
  7  8  1  0
  9  7  1  0
 10  9  1  6
 10 12  1  0
 11 10  1  0
 11  4  1  0
 12 13  2  0
 14 15  1  0
 15 16  2  0
 17 18  1  0
 17 15  1  0
 19 20  1  0
 19 18  1  0
 21 20  1  1
 21 23  1  0
 22 21  1  0
 22 12  1  0
 23 24  2  0
 23 25  1  0
M  END
$$$$
