ALR.pdb
     RDKit          3D

 25 24  0  0  1  0  0  0  0  0999 V2000
   31.2995  -23.1018   -9.5977 C   0  0  0  0  0  0  0  0  0  0  0  0
   30.7277  -21.7160   -9.6193 C   0  0  2  0  0  0  0  0  0  0  0  0
   31.6230  -20.7228   -9.0652 N   0  0  0  0  0  0  0  0  0  0  0  0
   29.4598  -21.6568   -8.8386 C   0  0  0  0  0  0  0  0  0  0  0  0
   28.6720  -22.6518   -8.8872 O   0  0  0  0  0  0  0  0  0  0  0  0
   29.0892  -18.7346   -4.1159 C   0  0  0  0  0  0  0  0  0  0  0  0
   28.9515  -19.7494   -5.1844 C   0  0  1  0  0  0  0  0  0  0  0  0
   28.7508  -21.0986   -4.4684 C   0  0  0  0  0  0  0  0  0  0  0  0
   27.8380  -19.6177   -6.1389 C   0  0  0  0  0  0  0  0  0  0  0  0
   27.8192  -20.4466   -7.3565 C   0  0  2  0  0  0  0  0  0  0  0  0
   29.0812  -20.5465   -8.0405 N   0  0  0  0  0  0  0  0  0  0  0  0
   26.7079  -20.0854   -8.2476 C   0  0  0  0  0  0  0  0  0  0  0  0
   26.5939  -18.8707   -8.5824 O   0  0  0  0  0  0  0  0  0  0  0  0
   24.9864  -24.7909  -14.9062 N   0  0  0  0  0  0  0  0  0  0  0  0
   24.2002  -23.7094  -15.3707 C   0  0  0  0  0  0  0  0  0  0  0  0
   23.4164  -23.7979  -16.3782 N   0  0  0  0  0  0  0  0  0  0  0  0
   24.2886  -22.4422  -14.6666 N   0  0  0  0  0  0  0  0  0  0  0  0
   25.1170  -22.3992  -13.5094 C   0  0  0  0  0  0  0  0  0  0  0  0
   24.7749  -21.5054  -12.3990 C   0  0  0  0  0  0  0  0  0  0  0  0
   25.4601  -21.6421  -11.0919 C   0  0  0  0  0  0  0  0  0  0  0  0
   25.0176  -20.7317  -10.0331 C   0  0  2  0  0  0  0  0  0  0  0  0
   25.7530  -20.9762   -8.7619 N   0  0  0  0  0  0  0  0  0  0  0  0
   23.6041  -20.9526   -9.6918 C   0  0  0  0  0  0  0  0  0  0  0  0
   23.3038  -21.6265   -8.6331 O   0  0  0  0  0  0  0  0  0  0  0  0
   22.5230  -20.5079  -10.3978 O   0  0  0  0  0  0  0  0  0  0  0  0
  2  1  1  1
  2  4  1  0
  2  3  1  0
  4  5  2  0
  7  6  1  1
  7  8  1  0
  9  7  1  0
 10  9  1  1
 10 12  1  0
 11 10  1  0
 11  4  1  0
 12 13  2  0
 14 15  1  0
 15 16  2  0
 17 18  1  0
 17 15  1  0
 19 20  1  0
 19 18  1  0
 21 20  1  6
 21 23  1  0
 22 21  1  0
 22 12  1  0
 23 24  2  0
 23 25  1  0
M  END
$$$$
