ALR.pdb
     RDKit          3D

 25 24  0  0  1  0  0  0  0  0999 V2000
   24.7844  -20.4869  -15.5149 C   0  0  0  0  0  0  0  0  0  0  0  0
   25.9986  -20.8155  -14.6989 C   0  0  2  0  0  0  0  0  0  0  0  0
   26.7733  -21.9085  -15.2471 N   0  0  0  0  0  0  0  0  0  0  0  0
   25.6135  -21.1958  -13.3105 C   0  0  0  0  0  0  0  0  0  0  0  0
   25.3661  -22.4168  -13.0639 O   0  0  0  0  0  0  0  0  0  0  0  0
   26.2912  -21.2644   -7.8454 C   0  0  0  0  0  0  0  0  0  0  0  0
   25.5720  -20.1112   -8.4316 C   0  0  1  0  0  0  0  0  0  0  0  0
   26.0281  -18.8740   -7.6351 C   0  0  0  0  0  0  0  0  0  0  0  0
   25.7937  -19.7937   -9.8523 C   0  0  0  0  0  0  0  0  0  0  0  0
   25.1765  -20.6345  -10.8925 C   0  0  2  0  0  0  0  0  0  0  0  0
   25.5071  -20.2664  -12.2437 N   0  0  0  0  0  0  0  0  0  0  0  0
   23.7322  -20.7996  -10.6774 C   0  0  0  0  0  0  0  0  0  0  0  0
   22.9516  -20.0376  -11.3181 O   0  0  0  0  0  0  0  0  0  0  0  0
   18.4599  -26.1663   -7.1017 N   0  0  0  0  0  0  0  0  0  0  0  0
   17.5016  -25.1390   -6.9292 C   0  0  0  0  0  0  0  0  0  0  0  0
   16.2503  -25.3673   -6.7905 N   0  0  0  0  0  0  0  0  0  0  0  0
   17.9648  -23.7626   -6.9069 N   0  0  0  0  0  0  0  0  0  0  0  0
   19.3596  -23.5442   -7.0923 C   0  0  0  0  0  0  0  0  0  0  0  0
   19.8390  -22.8732   -8.3042 C   0  0  0  0  0  0  0  0  0  0  0  0
   21.2825  -22.5844   -8.4766 C   0  0  0  0  0  0  0  0  0  0  0  0
   21.6664  -21.9449   -9.7373 C   0  0  2  0  0  0  0  0  0  0  0  0
   23.1382  -21.7341   -9.8150 N   0  0  0  0  0  0  0  0  0  0  0  0
   21.0923  -20.5955   -9.8510 C   0  0  0  0  0  0  0  0  0  0  0  0
   20.1473  -20.3766  -10.7020 O   0  0  0  0  0  0  0  0  0  0  0  0
   21.4605  -19.4969   -9.1282 O   0  0  0  0  0  0  0  0  0  0  0  0
  2  1  1  6
  2  4  1  0
  2  3  1  0
  4  5  2  0
  7  6  1  1
  7  8  1  0
  9  7  1  0
 10  9  1  1
 10 12  1  0
 11 10  1  0
 11  4  1  0
 12 13  2  0
 14 15  1  0
 15 16  2  0
 17 18  1  0
 17 15  1  0
 19 20  1  0
 19 18  1  0
 21 20  1  1
 21 23  1  0
 22 21  1  0
 22 12  1  0
 23 24  2  0
 23 25  1  0
M  END
$$$$
