ALR.pdb
     RDKit          3D

 25 24  0  0  1  0  0  0  0  0999 V2000
   20.8981  -20.5242  -16.1443 C   0  0  0  0  0  0  0  0  0  0  0  0
   21.2013  -19.5576  -17.2496 C   0  0  2  0  0  0  0  0  0  0  0  0
   22.1991  -20.0483  -18.1763 N   0  0  0  0  0  0  0  0  0  0  0  0
   21.7025  -18.2670  -16.6985 C   0  0  0  0  0  0  0  0  0  0  0  0
   20.9749  -17.6404  -15.8674 O   0  0  0  0  0  0  0  0  0  0  0  0
   25.3437  -14.6540  -14.6111 C   0  0  0  0  0  0  0  0  0  0  0  0
   25.5220  -15.0714  -16.0198 C   0  0  1  0  0  0  0  0  0  0  0  0
   27.0399  -15.2318  -16.2286 C   0  0  0  0  0  0  0  0  0  0  0  0
   24.9077  -16.3349  -16.4612 C   0  0  0  0  0  0  0  0  0  0  0  0
   23.4405  -16.4500  -16.5227 C   0  0  2  0  0  0  0  0  0  0  0  0
   22.9526  -17.6961  -17.0515 N   0  0  0  0  0  0  0  0  0  0  0  0
   22.8251  -15.2752  -17.1557 C   0  0  0  0  0  0  0  0  0  0  0  0
   23.0324  -15.0970  -18.3909 O   0  0  0  0  0  0  0  0  0  0  0  0
   16.9579   -9.3541  -15.5348 N   0  0  0  0  0  0  0  0  0  0  0  0
   17.2131   -8.9549  -16.8686 C   0  0  0  0  0  0  0  0  0  0  0  0
   16.8277   -7.8327  -17.3475 N   0  0  0  0  0  0  0  0  0  0  0  0
   17.9492   -9.8634  -17.7300 N   0  0  0  0  0  0  0  0  0  0  0  0
   18.4555  -11.0541  -17.1356 C   0  0  0  0  0  0  0  0  0  0  0  0
   19.8958  -11.2003  -16.9055 C   0  0  0  0  0  0  0  0  0  0  0  0
   20.4416  -12.4706  -16.3714 C   0  0  0  0  0  0  0  0  0  0  0  0
   21.4564  -13.1332  -17.1941 C   0  0  2  0  0  0  0  0  0  0  0  0
   22.0236  -14.3247  -16.5047 N   0  0  0  0  0  0  0  0  0  0  0  0
   22.6132  -12.2557  -17.4292 C   0  0  0  0  0  0  0  0  0  0  0  0
   23.6118  -12.2882  -16.6126 O   0  0  0  0  0  0  0  0  0  0  0  0
   22.7595  -11.3694  -18.4577 O   0  0  0  0  0  0  0  0  0  0  0  0
  2  1  1  1
  2  4  1  0
  2  3  1  0
  4  5  2  0
  7  6  1  1
  7  8  1  0
  9  7  1  0
 10  9  1  6
 10 12  1  0
 11 10  1  0
 11  4  1  0
 12 13  2  0
 14 15  1  0
 15 16  2  0
 17 18  1  0
 17 15  1  0
 19 20  1  0
 19 18  1  0
 21 20  1  1
 21 23  1  0
 22 21  1  0
 22 12  1  0
 23 24  2  0
 23 25  1  0
M  END
$$$$
