ALR.pdb
     RDKit          3D

 25 24  0  0  1  0  0  0  0  0999 V2000
   19.9093  -11.4002  -19.7882 C   0  0  0  0  0  0  0  0  0  0  0  0
   20.7664  -11.9605  -18.6929 C   0  0  2  0  0  0  0  0  0  0  0  0
   20.1733  -13.1062  -18.0365 N   0  0  0  0  0  0  0  0  0  0  0  0
   21.0232  -10.9317  -17.6460 C   0  0  0  0  0  0  0  0  0  0  0  0
   20.0811  -10.6301  -16.8496 O   0  0  0  0  0  0  0  0  0  0  0  0
   25.8852  -10.2481  -14.9113 C   0  0  0  0  0  0  0  0  0  0  0  0
   24.4538  -10.2943  -15.2850 C   0  0  1  0  0  0  0  0  0  0  0  0
   23.6706  -10.4009  -13.9628 C   0  0  0  0  0  0  0  0  0  0  0  0
   23.8810   -9.1505  -16.0144 C   0  0  0  0  0  0  0  0  0  0  0  0
   22.5002   -9.2265  -16.5218 C   0  0  2  0  0  0  0  0  0  0  0  0
   22.2667  -10.2668  -17.4881 N   0  0  0  0  0  0  0  0  0  0  0  0
   22.0038   -7.9137  -16.9572 C   0  0  0  0  0  0  0  0  0  0  0  0
   22.3804   -7.4883  -18.0876 O   0  0  0  0  0  0  0  0  0  0  0  0
   14.3550   -4.4359  -17.9151 N   0  0  0  0  0  0  0  0  0  0  0  0
   15.0682   -3.2409  -18.1741 C   0  0  0  0  0  0  0  0  0  0  0  0
   14.5069   -2.1686  -18.5893 N   0  0  0  0  0  0  0  0  0  0  0  0
   16.5038   -3.2352  -17.9547 N   0  0  0  0  0  0  0  0  0  0  0  0
   17.0918   -4.4398  -17.4746 C   0  0  0  0  0  0  0  0  0  0  0  0
   18.5444   -4.5230  -17.2961 C   0  0  0  0  0  0  0  0  0  0  0  0
   19.1700   -5.7885  -16.8445 C   0  0  0  0  0  0  0  0  0  0  0  0
   20.6312   -5.7848  -16.7411 C   0  0  2  0  0  0  0  0  0  0  0  0
   21.1438   -7.0828  -16.2225 N   0  0  0  0  0  0  0  0  0  0  0  0
   21.0975   -4.7864  -15.7669 C   0  0  0  0  0  0  0  0  0  0  0  0
   21.3542   -5.1515  -14.5562 O   0  0  0  0  0  0  0  0  0  0  0  0
   21.2988   -3.4570  -16.0054 O   0  0  0  0  0  0  0  0  0  0  0  0
  2  1  1  6
  2  4  1  0
  2  3  1  0
  4  5  2  0
  7  6  1  1
  7  8  1  0
  9  7  1  0
 10  9  1  6
 10 12  1  0
 11 10  1  0
 11  4  1  0
 12 13  2  0
 14 15  1  0
 15 16  2  0
 17 18  1  0
 17 15  1  0
 19 20  1  0
 19 18  1  0
 21 20  1  1
 21 23  1  0
 22 21  1  0
 22 12  1  0
 23 24  2  0
 23 25  1  0
M  END
$$$$
