ALR.pdb
     RDKit          3D

 25 24  0  0  1  0  0  0  0  0999 V2000
   27.2871  -18.4014  -16.3363 C   0  0  0  0  0  0  0  0  0  0  0  0
   27.8780  -19.6222  -15.6971 C   0  0  2  0  0  0  0  0  0  0  0  0
   28.2413  -20.6457  -16.6541 N   0  0  0  0  0  0  0  0  0  0  0  0
   26.9158  -20.2326  -14.7369 C   0  0  0  0  0  0  0  0  0  0  0  0
   26.0621  -21.0618  -15.1801 O   0  0  0  0  0  0  0  0  0  0  0  0
   25.0941  -22.1426   -9.7522 C   0  0  0  0  0  0  0  0  0  0  0  0
   25.2818  -20.6917   -9.9766 C   0  0  1  0  0  0  0  0  0  0  0  0
   25.7899  -20.1155   -8.6414 C   0  0  0  0  0  0  0  0  0  0  0  0
   26.2414  -20.2586  -11.0062 C   0  0  0  0  0  0  0  0  0  0  0  0
   25.9284  -20.4702  -12.4300 C   0  0  2  0  0  0  0  0  0  0  0  0
   26.8994  -19.9381  -13.3490 N   0  0  0  0  0  0  0  0  0  0  0  0
   24.5511  -20.0722  -12.7528 C   0  0  0  0  0  0  0  0  0  0  0  0
   24.3080  -18.8359  -12.8670 O   0  0  0  0  0  0  0  0  0  0  0  0
   20.7041  -20.6471  -19.1674 N   0  0  0  0  0  0  0  0  0  0  0  0
   19.5553  -19.9690  -18.6942 C   0  0  0  0  0  0  0  0  0  0  0  0
   18.8595  -19.1809  -19.4237 N   0  0  0  0  0  0  0  0  0  0  0  0
   19.1492  -20.1823  -17.3162 N   0  0  0  0  0  0  0  0  0  0  0  0
   19.9809  -21.0163  -16.5162 C   0  0  0  0  0  0  0  0  0  0  0  0
   20.4414  -20.5472  -15.2060 C   0  0  0  0  0  0  0  0  0  0  0  0
   21.7879  -20.9191  -14.7106 C   0  0  0  0  0  0  0  0  0  0  0  0
   22.1153  -20.4907  -13.3486 C   0  0  2  0  0  0  0  0  0  0  0  0
   23.4728  -20.9498  -12.9447 N   0  0  0  0  0  0  0  0  0  0  0  0
   21.2096  -21.0993  -12.3625 C   0  0  0  0  0  0  0  0  0  0  0  0
   21.5727  -22.1714  -11.7429 O   0  0  0  0  0  0  0  0  0  0  0  0
   19.9721  -20.6413  -12.0109 O   0  0  0  0  0  0  0  0  0  0  0  0
  2  1  1  6
  2  4  1  0
  2  3  1  0
  4  5  2  0
  7  6  1  1
  7  8  1  0
  9  7  1  0
 10  9  1  1
 10 12  1  0
 11 10  1  0
 11  4  1  0
 12 13  2  0
 14 15  1  0
 15 16  2  0
 17 18  1  0
 17 15  1  0
 19 20  1  0
 19 18  1  0
 21 20  1  6
 21 23  1  0
 22 21  1  0
 22 12  1  0
 23 24  2  0
 23 25  1  0
M  END
$$$$
