LYS.pdb
     RDKit          3D

 27 27  0  0  1  0  0  0  0  0999 V2000
   23.4009  -14.5781  -15.8954 C   0  0  0  0  0  0  0  0  0  0  0  0
   24.5956  -13.7414  -16.2886 C   0  0  2  0  0  0  0  0  0  0  0  0
   25.8127  -14.3768  -15.5977 C   0  0  0  0  0  0  0  0  0  0  0  0
   24.5492  -12.3328  -15.8236 C   0  0  0  0  0  0  0  0  0  0  0  0
   23.4465  -11.4836  -16.3649 C   0  0  2  0  0  0  0  0  0  0  0  0
   23.2880  -11.5024  -17.7837 N   0  0  0  0  0  0  0  0  0  0  0  0
   23.4647  -10.1017  -15.8526 C   0  0  0  0  0  0  0  0  0  0  0  0
   23.5708   -9.9081  -14.6248 O   0  0  0  0  0  0  0  0  0  0  0  0
   24.8470   -1.3699  -17.3641 O   0  0  0  0  0  0  0  0  0  0  0  0
   24.7628   -2.7681  -17.3222 C   0  0  0  0  0  0  0  0  0  0  0  0
   25.3623   -3.4982  -16.3358 C   0  0  0  0  0  0  0  0  0  0  0  0
   25.2645   -4.8745  -16.3170 C   0  0  0  0  0  0  0  0  0  0  0  0
   24.5706   -5.5798  -17.2721 C   0  0  0  0  0  0  0  0  0  0  0  0
   24.4715   -7.0327  -17.2425 C   0  0  0  0  0  0  0  0  0  0  0  0
   23.4537   -7.6200  -16.3027 C   0  0  2  0  0  0  0  0  0  0  0  0
   23.3624   -9.0359  -16.7486 N   0  0  0  0  0  0  0  0  0  0  0  0
   22.0870   -7.0973  -16.4511 C   0  0  0  0  0  0  0  0  0  0  0  0
   21.3965   -7.2826  -17.5171 O   0  0  0  0  0  0  0  0  0  0  0  0
   23.9637   -4.8352  -18.2713 C   0  0  0  0  0  0  0  0  0  0  0  0
   24.0579   -3.4490  -18.2968 C   0  0  0  0  0  0  0  0  0  0  0  0
   19.0857   -6.5399  -13.6781 O   0  0  0  0  0  0  0  0  0  0  0  0
   18.9610   -6.4522  -15.0434 C   0  0  0  0  0  0  0  0  0  0  0  0
   20.1154   -5.7234  -15.7029 C   0  0  2  0  0  0  0  0  0  0  0  0
   21.3748   -6.3445  -15.4557 N   0  0  0  0  0  0  0  0  0  0  0  0
   20.0182   -4.2992  -15.3581 C   0  0  0  0  0  0  0  0  0  0  0  0
   18.8598   -3.5869  -15.6927 O   0  0  0  0  0  0  0  0  0  0  0  0
   20.9785   -3.7496  -14.7692 O   0  0  0  0  0  0  0  0  0  0  0  0
  2  1  1  1
  3  2  1  0
  4  2  1  0
  4  5  1  0
  5  6  1  6
  7  5  1  0
  7  8  2  0
  9 10  1  0
 10 11  2  0
 11 12  1  0
 13 14  1  0
 13 12  2  0
 15 14  1  6
 15 16  1  0
 16  7  1  0
 17 15  1  0
 18 17  2  0
 19 13  1  0
 20 19  2  0
 20 10  1  0
 21 22  1  0
 23 22  1  1
 23 25  1  0
 23 24  1  0
 24 17  1  0
 25 26  1  0
 27 25  2  0
M  END
$$$$
