LYS.pdb
     RDKit          3D

 27 27  0  0  1  0  0  0  0  0999 V2000
   24.6069  -23.8569  -16.2590 C   0  0  0  0  0  0  0  0  0  0  0  0
   25.2142  -22.5484  -15.8108 C   0  0  2  0  0  0  0  0  0  0  0  0
   26.6021  -22.8889  -15.2449 C   0  0  0  0  0  0  0  0  0  0  0  0
   24.4815  -21.8647  -14.7162 C   0  0  0  0  0  0  0  0  0  0  0  0
   23.1034  -21.3826  -15.0301 C   0  0  2  0  0  0  0  0  0  0  0  0
   23.0109  -20.3907  -16.0528 N   0  0  0  0  0  0  0  0  0  0  0  0
   22.3346  -20.9857  -13.8368 C   0  0  0  0  0  0  0  0  0  0  0  0
   22.8037  -20.1214  -13.0692 O   0  0  0  0  0  0  0  0  0  0  0  0
   16.5238  -19.5545  -17.6454 O   0  0  0  0  0  0  0  0  0  0  0  0
   17.3179  -19.6020  -16.4918 C   0  0  0  0  0  0  0  0  0  0  0  0
   16.8111  -19.9811  -15.2815 C   0  0  0  0  0  0  0  0  0  0  0  0
   17.6143  -20.0196  -14.1601 C   0  0  0  0  0  0  0  0  0  0  0  0
   18.9478  -19.6851  -14.1935 C   0  0  0  0  0  0  0  0  0  0  0  0
   19.7878  -19.7308  -13.0046 C   0  0  0  0  0  0  0  0  0  0  0  0
   20.1894  -21.0957  -12.5149 C   0  0  2  0  0  0  0  0  0  0  0  0
   21.0979  -21.5833  -13.5868 N   0  0  0  0  0  0  0  0  0  0  0  0
   19.1064  -22.0897  -12.4684 C   0  0  0  0  0  0  0  0  0  0  0  0
   18.7129  -22.7211  -13.5144 O   0  0  0  0  0  0  0  0  0  0  0  0
   19.4582  -19.3009  -15.4236 C   0  0  0  0  0  0  0  0  0  0  0  0
   18.6555  -19.2597  -16.5572 C   0  0  0  0  0  0  0  0  0  0  0  0
   18.0573  -24.0999   -9.0552 O   0  0  0  0  0  0  0  0  0  0  0  0
   16.9798  -23.9135   -9.8869 C   0  0  0  0  0  0  0  0  0  0  0  0
   17.3729  -23.4790  -11.2853 C   0  0  2  0  0  0  0  0  0  0  0  0
   18.3808  -22.4704  -11.2879 N   0  0  0  0  0  0  0  0  0  0  0  0
   16.1475  -23.1703  -12.0333 C   0  0  0  0  0  0  0  0  0  0  0  0
   15.2634  -24.2046  -12.3644 O   0  0  0  0  0  0  0  0  0  0  0  0
   15.9183  -21.9822  -12.3606 O   0  0  0  0  0  0  0  0  0  0  0  0
  2  1  1  1
  3  2  1  0
  4  2  1  0
  4  5  1  0
  5  6  1  6
  7  5  1  0
  7  8  2  0
  9 10  1  0
 10 11  2  0
 11 12  1  0
 13 14  1  0
 13 12  2  0
 15 14  1  6
 15 16  1  0
 16  7  1  0
 17 15  1  0
 18 17  2  0
 19 13  1  0
 20 19  2  0
 20 10  1  0
 21 22  1  0
 23 22  1  1
 23 25  1  0
 23 24  1  0
 24 17  1  0
 25 26  1  0
 27 25  2  0
M  END
$$$$
