LYS.pdb
     RDKit          3D

 27 27  0  0  1  0  0  0  0  0999 V2000
   29.9125  -17.2296  -17.6976 C   0  0  0  0  0  0  0  0  0  0  0  0
   28.6228  -17.4769  -18.4443 C   0  0  2  0  0  0  0  0  0  0  0  0
   27.9560  -16.1031  -18.6193 C   0  0  0  0  0  0  0  0  0  0  0  0
   27.6383  -18.3216  -17.7233 C   0  0  0  0  0  0  0  0  0  0  0  0
   28.0939  -19.6843  -17.3166 C   0  0  2  0  0  0  0  0  0  0  0  0
   28.5243  -20.5371  -18.3777 N   0  0  0  0  0  0  0  0  0  0  0  0
   27.1440  -20.3804  -16.4303 C   0  0  0  0  0  0  0  0  0  0  0  0
   26.2963  -21.1482  -16.9282 O   0  0  0  0  0  0  0  0  0  0  0  0
   23.6460  -21.2191   -8.1780 O   0  0  0  0  0  0  0  0  0  0  0  0
   24.4649  -21.0736   -9.3057 C   0  0  0  0  0  0  0  0  0  0  0  0
   25.6992  -20.4934   -9.2317 C   0  0  0  0  0  0  0  0  0  0  0  0
   26.4866  -20.3618  -10.3572 C   0  0  0  0  0  0  0  0  0  0  0  0
   26.0833  -20.7988  -11.5972 C   0  0  0  0  0  0  0  0  0  0  0  0
   26.9226  -20.6570  -12.7791 C   0  0  0  0  0  0  0  0  0  0  0  0
   26.2373  -20.7880  -14.1122 C   0  0  2  0  0  0  0  0  0  0  0  0
   27.2092  -20.1681  -15.0519 N   0  0  0  0  0  0  0  0  0  0  0  0
   25.0118  -19.9902  -14.2691 C   0  0  0  0  0  0  0  0  0  0  0  0
   25.0215  -18.7073  -14.2282 O   0  0  0  0  0  0  0  0  0  0  0  0
   24.8302  -21.3869  -11.6681 C   0  0  0  0  0  0  0  0  0  0  0  0
   24.0317  -21.5228  -10.5390 C   0  0  0  0  0  0  0  0  0  0  0  0
   21.6406  -20.6863  -16.6365 O   0  0  0  0  0  0  0  0  0  0  0  0
   22.1059  -19.5285  -16.0619 C   0  0  0  0  0  0  0  0  0  0  0  0
   22.5353  -19.7085  -14.6190 C   0  0  2  0  0  0  0  0  0  0  0  0
   23.6960  -20.5258  -14.4855 N   0  0  0  0  0  0  0  0  0  0  0  0
   21.3620  -20.1194  -13.8372 C   0  0  0  0  0  0  0  0  0  0  0  0
   20.2577  -19.2626  -13.7501 O   0  0  0  0  0  0  0  0  0  0  0  0
   21.3745  -21.2331  -13.2622 O   0  0  0  0  0  0  0  0  0  0  0  0
  2  1  1  1
  3  2  1  0
  4  2  1  0
  4  5  1  0
  5  6  1  6
  7  5  1  0
  7  8  2  0
  9 10  1  0
 10 11  2  0
 11 12  1  0
 13 14  1  0
 13 12  2  0
 15 14  1  1
 15 16  1  0
 16  7  1  0
 17 15  1  0
 18 17  2  0
 19 13  1  0
 20 19  2  0
 20 10  1  0
 21 22  1  0
 23 22  1  6
 23 25  1  0
 23 24  1  0
 24 17  1  0
 25 26  1  0
 27 25  2  0
M  END
$$$$
