LYS.pdb
     RDKit          3D

 27 27  0  0  1  0  0  0  0  0999 V2000
   12.4040  -11.8216  -10.1708 C   0  0  0  0  0  0  0  0  0  0  0  0
   13.5847  -11.8954  -11.1102 C   0  0  2  0  0  0  0  0  0  0  0  0
   14.2666  -13.2461  -10.8399 C   0  0  0  0  0  0  0  0  0  0  0  0
   14.6237  -10.8596  -10.8866 C   0  0  0  0  0  0  0  0  0  0  0  0
   14.1827   -9.4358  -10.9798 C   0  0  2  0  0  0  0  0  0  0  0  0
   13.6195   -9.0413  -12.2310 N   0  0  0  0  0  0  0  0  0  0  0  0
   15.2065   -8.4741  -10.5334 C   0  0  0  0  0  0  0  0  0  0  0  0
   15.7940   -8.6682   -9.4502 O   0  0  0  0  0  0  0  0  0  0  0  0
   21.4969   -9.4302  -13.6353 O   0  0  0  0  0  0  0  0  0  0  0  0
   20.4288   -8.5912  -13.2900 C   0  0  0  0  0  0  0  0  0  0  0  0
   19.2315   -8.6397  -13.9453 C   0  0  0  0  0  0  0  0  0  0  0  0
   18.1951   -7.8026  -13.5860 C   0  0  0  0  0  0  0  0  0  0  0  0
   18.3037   -6.8868  -12.5658 C   0  0  0  0  0  0  0  0  0  0  0  0
   17.2032   -6.0087  -12.1927 C   0  0  0  0  0  0  0  0  0  0  0  0
   16.4865   -6.3337  -10.9102 C   0  0  2  0  0  0  0  0  0  0  0  0
   15.4998   -7.3648  -11.3288 N   0  0  0  0  0  0  0  0  0  0  0  0
   15.6690   -5.2445  -10.3546 C   0  0  0  0  0  0  0  0  0  0  0  0
   14.7466   -4.6668  -11.0350 O   0  0  0  0  0  0  0  0  0  0  0  0
   19.5203   -6.8407  -11.9033 C   0  0  0  0  0  0  0  0  0  0  0  0
   20.5686   -7.6806  -12.2596 C   0  0  0  0  0  0  0  0  0  0  0  0
   14.2059   -2.4543   -6.6092 O   0  0  0  0  0  0  0  0  0  0  0  0
   14.9842   -3.4940   -7.0573 C   0  0  0  0  0  0  0  0  0  0  0  0
   15.0511   -3.5813   -8.5695 C   0  0  2  0  0  0  0  0  0  0  0  0
   15.7911   -4.7115   -9.0257 N   0  0  0  0  0  0  0  0  0  0  0  0
   15.4798   -2.2758   -9.0877 C   0  0  0  0  0  0  0  0  0  0  0  0
   14.5155   -1.3182   -9.4253 O   0  0  0  0  0  0  0  0  0  0  0  0
   16.7052   -2.0460   -9.2172 O   0  0  0  0  0  0  0  0  0  0  0  0
  2  1  1  1
  3  2  1  0
  4  2  1  0
  4  5  1  0
  5  6  1  6
  7  5  1  0
  7  8  2  0
  9 10  1  0
 10 11  2  0
 11 12  1  0
 13 14  1  0
 13 12  2  0
 15 14  1  6
 15 16  1  0
 16  7  1  0
 17 15  1  0
 18 17  2  0
 19 13  1  0
 20 19  2  0
 20 10  1  0
 21 22  1  0
 23 22  1  1
 23 25  1  0
 23 24  1  0
 24 17  1  0
 25 26  1  0
 27 25  2  0
M  END
$$$$
