LYS.pdb
     RDKit          3D

 27 27  0  0  1  0  0  0  0  0999 V2000
   29.2114  -22.5931  -19.7712 C   0  0  0  0  0  0  0  0  0  0  0  0
   29.8611  -22.4183  -18.4187 C   0  0  2  0  0  0  0  0  0  0  0  0
   31.0510  -23.3906  -18.3835 C   0  0  0  0  0  0  0  0  0  0  0  0
   29.0018  -22.7798  -17.2640 C   0  0  0  0  0  0  0  0  0  0  0  0
   27.7067  -22.0473  -17.1361 C   0  0  2  0  0  0  0  0  0  0  0  0
   27.7733  -20.6328  -17.3178 N   0  0  0  0  0  0  0  0  0  0  0  0
   26.9575  -22.3893  -15.9137 C   0  0  0  0  0  0  0  0  0  0  0  0
   26.9096  -23.5787  -15.5409 O   0  0  0  0  0  0  0  0  0  0  0  0
   23.4606  -20.6705   -7.9096 O   0  0  0  0  0  0  0  0  0  0  0  0
   24.1015  -20.6778   -9.1558 C   0  0  0  0  0  0  0  0  0  0  0  0
   25.3747  -21.1475   -9.3102 C   0  0  0  0  0  0  0  0  0  0  0  0
   25.9837  -21.1437  -10.5484 C   0  0  0  0  0  0  0  0  0  0  0  0
   25.3570  -20.6757  -11.6795 C   0  0  0  0  0  0  0  0  0  0  0  0
   26.0078  -20.6777  -12.9825 C   0  0  0  0  0  0  0  0  0  0  0  0
   25.4921  -21.6671  -13.9921 C   0  0  2  0  0  0  0  0  0  0  0  0
   26.3154  -21.3780  -15.1965 N   0  0  0  0  0  0  0  0  0  0  0  0
   24.1055  -21.4502  -14.4320 C   0  0  0  0  0  0  0  0  0  0  0  0
   23.7677  -20.4467  -15.1575 O   0  0  0  0  0  0  0  0  0  0  0  0
   24.0652  -20.1999  -11.5186 C   0  0  0  0  0  0  0  0  0  0  0  0
   23.4454  -20.2005  -10.2748 C   0  0  0  0  0  0  0  0  0  0  0  0
   20.9361  -24.3238  -14.1747 O   0  0  0  0  0  0  0  0  0  0  0  0
   20.9868  -23.3131  -15.1038 C   0  0  0  0  0  0  0  0  0  0  0  0
   21.6689  -22.0612  -14.5877 C   0  0  2  0  0  0  0  0  0  0  0  0
   22.9938  -22.3060  -14.1212 N   0  0  0  0  0  0  0  0  0  0  0  0
   20.7621  -21.3995  -13.6409 C   0  0  0  0  0  0  0  0  0  0  0  0
   19.5007  -20.9753  -14.0769 O   0  0  0  0  0  0  0  0  0  0  0  0
   21.1385  -21.2280  -12.4577 O   0  0  0  0  0  0  0  0  0  0  0  0
  2  1  1  6
  3  2  1  0
  4  2  1  0
  4  5  1  0
  5  6  1  1
  7  5  1  0
  7  8  2  0
  9 10  1  0
 10 11  2  0
 11 12  1  0
 13 14  1  0
 13 12  2  0
 15 14  1  1
 15 16  1  0
 16  7  1  0
 17 15  1  0
 18 17  2  0
 19 13  1  0
 20 19  2  0
 20 10  1  0
 21 22  1  0
 23 22  1  1
 23 25  1  0
 23 24  1  0
 24 17  1  0
 25 26  1  0
 27 25  2  0
M  END
$$$$
