LYS.pdb
     RDKit          3D

 27 27  0  0  1  0  0  0  0  0999 V2000
   22.1049  -29.1259   -9.5705 C   0  0  0  0  0  0  0  0  0  0  0  0
   22.1493  -30.4444  -10.3064 C   0  0  2  0  0  0  0  0  0  0  0  0
   20.8442  -30.5314  -11.1137 C   0  0  0  0  0  0  0  0  0  0  0  0
   22.1719  -31.6442   -9.4332 C   0  0  0  0  0  0  0  0  0  0  0  0
   23.2430  -31.6974   -8.3938 C   0  0  2  0  0  0  0  0  0  0  0  0
   24.5840  -31.6881   -8.8836 N   0  0  0  0  0  0  0  0  0  0  0  0
   23.0480  -32.7729   -7.4050 C   0  0  0  0  0  0  0  0  0  0  0  0
   21.9275  -32.9193   -6.8767 O   0  0  0  0  0  0  0  0  0  0  0  0
   20.6392  -39.2809   -9.4841 O   0  0  0  0  0  0  0  0  0  0  0  0
   21.5839  -38.4551   -8.8604 C   0  0  0  0  0  0  0  0  0  0  0  0
   21.6933  -38.3818   -7.5009 C   0  0  0  0  0  0  0  0  0  0  0  0
   22.6322  -37.5605   -6.9110 C   0  0  0  0  0  0  0  0  0  0  0  0
   23.4976  -36.7815   -7.6427 C   0  0  0  0  0  0  0  0  0  0  0  0
   24.4866  -35.9191   -7.0106 C   0  0  0  0  0  0  0  0  0  0  0  0
   23.9568  -34.7817   -6.1801 C   0  0  2  0  0  0  0  0  0  0  0  0
   24.1189  -33.6067   -7.0774 N   0  0  0  0  0  0  0  0  0  0  0  0
   24.7537  -34.4496   -4.9894 C   0  0  0  0  0  0  0  0  0  0  0  0
   25.9212  -33.9230   -5.0734 O   0  0  0  0  0  0  0  0  0  0  0  0
   23.3834  -36.8587   -9.0219 C   0  0  0  0  0  0  0  0  0  0  0  0
   22.4403  -37.6835   -9.6231 C   0  0  0  0  0  0  0  0  0  0  0  0
   23.5233  -35.0743   -0.8917 O   0  0  0  0  0  0  0  0  0  0  0  0
   24.3179  -34.0173   -1.2643 C   0  0  0  0  0  0  0  0  0  0  0  0
   25.1401  -34.2974   -2.5070 C   0  0  2  0  0  0  0  0  0  0  0  0
   24.3393  -34.6600   -3.6296 N   0  0  0  0  0  0  0  0  0  0  0  0
   26.2125  -35.2344   -2.1482 C   0  0  0  0  0  0  0  0  0  0  0  0
   27.1588  -34.8624   -1.1854 O   0  0  0  0  0  0  0  0  0  0  0  0
   26.2576  -36.3519   -2.7142 O   0  0  0  0  0  0  0  0  0  0  0  0
  2  1  1  1
  3  2  1  0
  4  2  1  0
  4  5  1  0
  5  6  1  6
  7  5  1  0
  7  8  2  0
  9 10  1  0
 10 11  2  0
 11 12  1  0
 13 14  1  0
 13 12  2  0
 15 14  1  6
 15 16  1  0
 16  7  1  0
 17 15  1  0
 18 17  2  0
 19 13  1  0
 20 19  2  0
 20 10  1  0
 21 22  1  0
 23 22  1  1
 23 25  1  0
 23 24  1  0
 24 17  1  0
 25 26  1  0
 27 25  2  0
M  END
$$$$
