KPQ.pdb
     RDKit          3D

 26 26  0  0  1  0  0  0  0  0999 V2000
   -8.2422  -27.9170   26.8813 N   0  0  0  0  0  0  0  0  0  0  0  0
   -8.9954  -26.7110   26.3840 C   0  0  1  0  0  0  0  0  0  0  0  0
   -9.7991  -26.2818   27.5431 C   0  0  0  0  0  0  0  0  0  0  0  0
  -10.3365  -27.2440   28.5115 C   0  0  0  0  0  0  0  0  0  0  0  0
  -11.0866  -26.7580   29.6933 C   0  0  0  0  0  0  0  0  0  0  0  0
  -11.5431  -27.8905   30.6037 C   0  0  0  0  0  0  0  0  0  0  0  0
  -10.6299  -28.1304   31.6726 N   0  0  0  0  0  0  0  0  0  0  0  0
   -7.9890  -25.8470   25.8249 C   0  0  0  0  0  0  0  0  0  0  0  0
   -6.7659  -26.0211   26.1149 O   0  0  0  0  0  0  0  0  0  0  0  0
   -8.2339  -24.7409   24.9132 N   0  0  0  0  0  0  0  0  0  0  0  0
   -9.5399  -24.3648   24.4316 C   0  0  0  0  0  0  0  0  0  0  0  0
   -9.2982  -23.4452   23.2577 C   0  0  0  0  0  0  0  0  0  0  0  0
   -7.8123  -23.5502   22.9711 C   0  0  0  0  0  0  0  0  0  0  0  0
   -7.2762  -23.8648   24.3386 C   0  0  1  0  0  0  0  0  0  0  0  0
   -6.8858  -22.7055   25.1398 C   0  0  0  0  0  0  0  0  0  0  0  0
   -7.6615  -22.2996   26.0392 O   0  0  0  0  0  0  0  0  0  0  0  0
   -3.9652  -21.9247   30.7255 N   0  0  0  0  0  0  0  0  0  0  0  0
   -3.7056  -22.4193   29.3910 C   0  0  0  0  0  0  0  0  0  0  0  0
   -3.3112  -23.6115   29.3482 O   0  0  0  0  0  0  0  0  0  0  0  0
   -3.9091  -21.5386   28.2240 C   0  0  0  0  0  0  0  0  0  0  0  0
   -4.7209  -22.1794   27.1545 C   0  0  0  0  0  0  0  0  0  0  0  0
   -4.9170  -21.3139   25.9666 C   0  0  2  0  0  0  0  0  0  0  0  0
   -5.6635  -22.0391   24.9275 N   0  0  0  0  0  0  0  0  0  0  0  0
   -3.6480  -20.8105   25.4480 C   0  0  0  0  0  0  0  0  0  0  0  0
   -2.8316  -21.5706   24.5815 O   0  0  0  0  0  0  0  0  0  0  0  0
   -3.1655  -19.6714   25.7154 O   0  0  0  0  0  0  0  0  0  0  0  0
  2  1  1  1
  3  2  1  0
  4  3  1  0
  4  5  1  0
  6  5  1  0
  6  7  1  0
  8  2  1  0
  9  8  2  0
 10  8  1  0
 11 10  1  0
 11 12  1  0
 13 12  1  0
 14 10  1  0
 14 13  1  0
 14 15  1  1
 16 15  2  0
 17 18  1  0
 18 19  2  0
 20 18  1  0
 20 21  1  0
 22 21  1  1
 22 23  1  0
 23 15  1  0
 24 22  1  0
 24 25  1  0
 26 24  2  0
M  END
$$$$
