KPQ.pdb
     RDKit          3D

 26 26  0  0  1  0  0  0  0  0999 V2000
    6.3575  -18.5808   19.3603 N   0  0  0  0  0  0  0  0  0  0  0  0
    5.9463  -17.2284   19.8808 C   0  0  1  0  0  0  0  0  0  0  0  0
    4.7932  -17.5113   20.7548 C   0  0  0  0  0  0  0  0  0  0  0  0
    3.7697  -18.4975   20.3912 C   0  0  0  0  0  0  0  0  0  0  0  0
    2.6497  -18.7730   21.3213 C   0  0  0  0  0  0  0  0  0  0  0  0
    1.6311  -19.7448   20.7399 C   0  0  0  0  0  0  0  0  0  0  0  0
    0.5497  -19.9987   21.6345 N   0  0  0  0  0  0  0  0  0  0  0  0
    7.1520  -16.6521   20.4156 C   0  0  0  0  0  0  0  0  0  0  0  0
    8.1157  -17.3998   20.7661 O   0  0  0  0  0  0  0  0  0  0  0  0
    7.4005  -15.2318   20.6042 N   0  0  0  0  0  0  0  0  0  0  0  0
    6.4651  -14.1938   20.2487 C   0  0  0  0  0  0  0  0  0  0  0  0
    7.2536  -12.9052   20.2607 C   0  0  0  0  0  0  0  0  0  0  0  0
    8.7047  -13.3295   20.3850 C   0  0  0  0  0  0  0  0  0  0  0  0
    8.5642  -14.6204   21.1401 C   0  0  1  0  0  0  0  0  0  0  0  0
    8.6310  -14.5043   22.5963 C   0  0  0  0  0  0  0  0  0  0  0  0
    7.6422  -14.0404   23.2148 O   0  0  0  0  0  0  0  0  0  0  0  0
    7.3581  -19.0527   24.6333 N   0  0  0  0  0  0  0  0  0  0  0  0
    8.0243  -18.6848   25.8637 C   0  0  0  0  0  0  0  0  0  0  0  0
    7.8323  -19.4827   26.8151 O   0  0  0  0  0  0  0  0  0  0  0  0
    8.8446  -17.4591   25.9218 C   0  0  0  0  0  0  0  0  0  0  0  0
    8.8371  -16.7008   24.6418 C   0  0  0  0  0  0  0  0  0  0  0  0
    9.7449  -15.5285   24.6473 C   0  0  2  0  0  0  0  0  0  0  0  0
    9.7736  -14.9020   23.3170 N   0  0  0  0  0  0  0  0  0  0  0  0
   11.0900  -15.8871   25.0889 C   0  0  0  0  0  0  0  0  0  0  0  0
   11.4403  -15.9660   26.4549 O   0  0  0  0  0  0  0  0  0  0  0  0
   12.0516  -16.1572   24.3116 O   0  0  0  0  0  0  0  0  0  0  0  0
  2  1  1  1
  3  2  1  0
  4  3  1  0
  4  5  1  0
  6  5  1  0
  6  7  1  0
  8  2  1  0
  9  8  2  0
 10  8  1  0
 11 10  1  0
 11 12  1  0
 13 12  1  0
 14 10  1  0
 14 13  1  0
 14 15  1  1
 16 15  2  0
 17 18  1  0
 18 19  2  0
 20 18  1  0
 20 21  1  0
 22 21  1  6
 22 23  1  0
 23 15  1  0
 24 22  1  0
 24 25  1  0
 26 24  2  0
M  END
$$$$
