KPQ.pdb
     RDKit          3D

 26 26  0  0  1  0  0  0  0  0999 V2000
    7.9113  -14.4753   21.1073 N   0  0  0  0  0  0  0  0  0  0  0  0
    7.0077  -14.4155   22.3111 C   0  0  1  0  0  0  0  0  0  0  0  0
    6.2345  -15.6692   22.2469 C   0  0  0  0  0  0  0  0  0  0  0  0
    6.8710  -16.9807   22.4124 C   0  0  0  0  0  0  0  0  0  0  0  0
    6.0342  -18.2017   22.4795 C   0  0  0  0  0  0  0  0  0  0  0  0
    6.8605  -19.4689   22.6565 C   0  0  0  0  0  0  0  0  0  0  0  0
    6.5386  -20.1642   23.8595 N   0  0  0  0  0  0  0  0  0  0  0  0
    7.8829  -14.1459   23.4215 C   0  0  0  0  0  0  0  0  0  0  0  0
    9.1404  -14.2446   23.2815 O   0  0  0  0  0  0  0  0  0  0  0  0
    7.4611  -13.7479   24.7551 N   0  0  0  0  0  0  0  0  0  0  0  0
    6.0848  -13.5802   25.1506 C   0  0  0  0  0  0  0  0  0  0  0  0
    6.1198  -12.8207   26.4561 C   0  0  0  0  0  0  0  0  0  0  0  0
    7.5582  -12.3647   26.6110 C   0  0  0  0  0  0  0  0  0  0  0  0
    8.2864  -13.4503   25.8710 C   0  0  1  0  0  0  0  0  0  0  0  0
    8.7169  -14.5843   26.6877 C   0  0  0  0  0  0  0  0  0  0  0  0
    7.8642  -15.4318   27.0482 O   0  0  0  0  0  0  0  0  0  0  0  0
   13.8106  -16.6940   23.8771 N   0  0  0  0  0  0  0  0  0  0  0  0
   13.4218  -16.0705   25.1234 C   0  0  0  0  0  0  0  0  0  0  0  0
   14.3347  -15.4094   25.6785 O   0  0  0  0  0  0  0  0  0  0  0  0
   12.0491  -16.2415   25.6384 C   0  0  0  0  0  0  0  0  0  0  0  0
   11.9854  -16.2179   27.1246 C   0  0  0  0  0  0  0  0  0  0  0  0
   10.6199  -15.9796   27.6511 C   0  0  2  0  0  0  0  0  0  0  0  0
   10.0611  -14.7474   27.0746 N   0  0  0  0  0  0  0  0  0  0  0  0
   10.6028  -15.9321   29.1107 C   0  0  0  0  0  0  0  0  0  0  0  0
   10.9233  -17.0542   29.9063 O   0  0  0  0  0  0  0  0  0  0  0  0
   10.3076  -14.9068   29.7912 O   0  0  0  0  0  0  0  0  0  0  0  0
  2  1  1  6
  3  2  1  0
  4  3  1  0
  4  5  1  0
  6  5  1  0
  6  7  1  0
  8  2  1  0
  9  8  2  0
 10  8  1  0
 11 10  1  0
 11 12  1  0
 13 12  1  0
 14 10  1  0
 14 13  1  0
 14 15  1  1
 16 15  2  0
 17 18  1  0
 18 19  2  0
 20 18  1  0
 20 21  1  0
 22 21  1  6
 22 23  1  0
 23 15  1  0
 24 22  1  0
 24 25  1  0
 26 24  2  0
M  END
$$$$
