KPQ.pdb
     RDKit          3D

 26 26  0  0  1  0  0  0  0  0999 V2000
    8.4771  -15.1248   14.1399 N   0  0  0  0  0  0  0  0  0  0  0  0
    7.8753  -15.3048   15.5091 C   0  0  1  0  0  0  0  0  0  0  0  0
    7.6618  -16.7591   15.6231 C   0  0  0  0  0  0  0  0  0  0  0  0
    8.7434  -17.6726   16.0080 C   0  0  0  0  0  0  0  0  0  0  0  0
    8.4608  -19.1170   16.1794 C   0  0  0  0  0  0  0  0  0  0  0  0
    9.6893  -19.9068   16.6117 C   0  0  0  0  0  0  0  0  0  0  0  0
    9.3841  -21.2683   16.9071 N   0  0  0  0  0  0  0  0  0  0  0  0
    8.7711  -14.6195   16.4034 C   0  0  0  0  0  0  0  0  0  0  0  0
    9.9805  -14.4261   16.0708 O   0  0  0  0  0  0  0  0  0  0  0  0
    8.4218  -14.0936   17.7133 N   0  0  0  0  0  0  0  0  0  0  0  0
    7.0825  -14.0790   18.2471 C   0  0  0  0  0  0  0  0  0  0  0  0
    7.1179  -13.1348   19.4260 C   0  0  0  0  0  0  0  0  0  0  0  0
    8.4678  -12.4478   19.3432 C   0  0  0  0  0  0  0  0  0  0  0  0
    9.2912  -13.5094   18.6713 C   0  0  1  0  0  0  0  0  0  0  0  0
    9.9838  -14.4286   19.5733 C   0  0  0  0  0  0  0  0  0  0  0  0
    9.4573  -15.5384   19.8316 O   0  0  0  0  0  0  0  0  0  0  0  0
   16.1913  -13.7002   20.3336 N   0  0  0  0  0  0  0  0  0  0  0  0
   15.9626  -14.9813   20.9657 C   0  0  0  0  0  0  0  0  0  0  0  0
   17.0058  -15.5524   21.3709 O   0  0  0  0  0  0  0  0  0  0  0  0
   14.5900  -15.5102   21.0882 C   0  0  0  0  0  0  0  0  0  0  0  0
   13.5578  -14.5430   20.6271 C   0  0  0  0  0  0  0  0  0  0  0  0
   12.1768  -15.0783   20.6981 C   0  0  2  0  0  0  0  0  0  0  0  0
   11.2239  -14.0992   20.1537 N   0  0  0  0  0  0  0  0  0  0  0  0
   11.8147  -15.4638   22.0594 C   0  0  0  0  0  0  0  0  0  0  0  0
   12.2444  -16.6775   22.6400 O   0  0  0  0  0  0  0  0  0  0  0  0
   11.0987  -14.7663   22.8357 O   0  0  0  0  0  0  0  0  0  0  0  0
  2  1  1  6
  3  2  1  0
  4  3  1  0
  4  5  1  0
  6  5  1  0
  6  7  1  0
  8  2  1  0
  9  8  2  0
 10  8  1  0
 11 10  1  0
 11 12  1  0
 13 12  1  0
 14 10  1  0
 14 13  1  0
 14 15  1  1
 16 15  2  0
 17 18  1  0
 18 19  2  0
 20 18  1  0
 20 21  1  0
 22 21  1  1
 22 23  1  0
 23 15  1  0
 24 22  1  0
 24 25  1  0
 26 24  2  0
M  END
$$$$
