YFM.pdb
     RDKit          3D

 32 33  0  0  1  0  0  0  0  0999 V2000
   27.6802  -16.6289  -17.5885 O   0  0  0  0  0  0  0  0  0  0  0  0
   27.2043  -17.3057  -16.4775 C   0  0  0  0  0  0  0  0  0  0  0  0
   27.4766  -16.8138  -15.2217 C   0  0  0  0  0  0  0  0  0  0  0  0
   26.9979  -17.4955  -14.1210 C   0  0  0  0  0  0  0  0  0  0  0  0
   26.2542  -18.6559  -14.2358 C   0  0  0  0  0  0  0  0  0  0  0  0
   25.7490  -19.3734  -13.0366 C   0  0  0  0  0  0  0  0  0  0  0  0
   26.7896  -20.3665  -12.5933 C   0  0  2  0  0  0  0  0  0  0  0  0
   26.8993  -21.4804  -13.5036 N   0  0  0  0  0  0  0  0  0  0  0  0
   26.6407  -20.7868  -11.1923 C   0  0  0  0  0  0  0  0  0  0  0  0
   25.8352  -21.6818  -10.8347 O   0  0  0  0  0  0  0  0  0  0  0  0
   26.0043  -19.1145  -15.5139 C   0  0  0  0  0  0  0  0  0  0  0  0
   26.4677  -18.4577  -16.6366 C   0  0  0  0  0  0  0  0  0  0  0  0
   27.4275  -20.1753  -10.1658 N   0  0  0  0  0  0  0  0  0  0  0  0
   27.2453  -20.4276   -8.7746 C   0  0  1  0  0  0  0  0  0  0  0  0
   28.3056  -19.8171   -7.9030 C   0  0  0  0  0  0  0  0  0  0  0  0
   28.0894  -20.0356   -6.4618 C   0  0  0  0  0  0  0  0  0  0  0  0
   28.2914  -21.2720   -5.9263 C   0  0  0  0  0  0  0  0  0  0  0  0
   28.0842  -21.4619   -4.5771 C   0  0  0  0  0  0  0  0  0  0  0  0
   27.6785  -20.4310   -3.7610 C   0  0  0  0  0  0  0  0  0  0  0  0
   27.4838  -19.1951   -4.3344 C   0  0  0  0  0  0  0  0  0  0  0  0
   27.6881  -18.9977   -5.6782 C   0  0  0  0  0  0  0  0  0  0  0  0
   25.8749  -20.1062   -8.3752 C   0  0  0  0  0  0  0  0  0  0  0  0
   25.3945  -18.9842   -8.6445 O   0  0  0  0  0  0  0  0  0  0  0  0
   21.4351  -20.2537  -11.4282 C   0  0  0  0  0  0  0  0  0  0  0  0
   20.5073  -20.4735   -9.9452 S   0  0  0  0  0  0  0  0  0  0  0  0
   21.3660  -20.5909   -8.4026 C   0  0  0  0  0  0  0  0  0  0  0  0
   22.8475  -20.6601   -8.5817 C   0  0  0  0  0  0  0  0  0  0  0  0
   23.6610  -20.8192   -7.3562 C   0  0  2  0  0  0  0  0  0  0  0  0
   25.0793  -21.0490   -7.6859 N   0  0  0  0  0  0  0  0  0  0  0  0
   23.1977  -21.9649   -6.5030 C   0  0  0  0  0  0  0  0  0  0  0  0
   24.0125  -22.9751   -6.0624 O   0  0  0  0  0  0  0  0  0  0  0  0
   21.9785  -22.0394   -6.1443 O   0  0  0  0  0  0  0  0  0  0  0  0
  2  1  1  0
  2  3  2  0
  4  3  1  0
  5  4  2  0
  6  7  1  0
  6  5  1  0
  7  8  1  6
  9 13  1  0
  9  7  1  0
 10  9  2  0
 11 12  2  0
 11  5  1  0
 12  2  1  0
 14 13  1  0
 14 15  1  1
 16 21  1  0
 16 15  1  0
 17 16  2  0
 18 19  2  0
 18 17  1  0
 19 20  1  0
 20 21  2  0
 22 23  2  0
 22 14  1  0
 24 25  1  0
 26 25  1  0
 27 26  1  0
 28 27  1  6
 28 29  1  0
 29 22  1  0
 30 28  1  0
 31 30  1  0
 32 30  2  0
M  END
$$$$
