YFM.pdb
     RDKit          3D

 32 33  0  0  1  0  0  0  0  0999 V2000
   23.3866  -18.2423  -17.4452 O   0  0  0  0  0  0  0  0  0  0  0  0
   23.5495  -18.7422  -16.1637 C   0  0  0  0  0  0  0  0  0  0  0  0
   24.2379  -17.9981  -15.2332 C   0  0  0  0  0  0  0  0  0  0  0  0
   24.3947  -18.5050  -13.9589 C   0  0  0  0  0  0  0  0  0  0  0  0
   23.8843  -19.7346  -13.5841 C   0  0  0  0  0  0  0  0  0  0  0  0
   24.0653  -20.2605  -12.2062 C   0  0  0  0  0  0  0  0  0  0  0  0
   25.4859  -20.7338  -12.0520 C   0  0  2  0  0  0  0  0  0  0  0  0
   25.8016  -21.8083  -12.9614 N   0  0  0  0  0  0  0  0  0  0  0  0
   25.8566  -21.0352  -10.6616 C   0  0  0  0  0  0  0  0  0  0  0  0
   25.5332  -22.1062  -10.0905 O   0  0  0  0  0  0  0  0  0  0  0  0
   23.2007  -20.4480  -14.5485 C   0  0  0  0  0  0  0  0  0  0  0  0
   23.0252  -19.9712  -15.8324 C   0  0  0  0  0  0  0  0  0  0  0  0
   26.6160  -20.0958   -9.8952 N   0  0  0  0  0  0  0  0  0  0  0  0
   26.9845  -20.3012   -8.5334 C   0  0  1  0  0  0  0  0  0  0  0  0
   28.1483  -19.4632   -8.0864 C   0  0  0  0  0  0  0  0  0  0  0  0
   28.4555  -19.5893   -6.6508 C   0  0  0  0  0  0  0  0  0  0  0  0
   28.0959  -18.5953   -5.7912 C   0  0  0  0  0  0  0  0  0  0  0  0
   28.3907  -18.7263   -4.4513 C   0  0  0  0  0  0  0  0  0  0  0  0
   29.0394  -19.8379   -3.9643 C   0  0  0  0  0  0  0  0  0  0  0  0
   29.3883  -20.8230   -4.8599 C   0  0  0  0  0  0  0  0  0  0  0  0
   29.0981  -20.6999   -6.1967 C   0  0  0  0  0  0  0  0  0  0  0  0
   25.8071  -20.2113   -7.6694 C   0  0  0  0  0  0  0  0  0  0  0  0
   24.8913  -19.4071   -7.9462 O   0  0  0  0  0  0  0  0  0  0  0  0
   19.3590  -23.2083   -6.4360 C   0  0  0  0  0  0  0  0  0  0  0  0
   21.1131  -23.2775   -6.5996 S   0  0  0  0  0  0  0  0  0  0  0  0
   22.0918  -21.9630   -5.9326 C   0  0  0  0  0  0  0  0  0  0  0  0
   23.5499  -22.1496   -6.1991 C   0  0  0  0  0  0  0  0  0  0  0  0
   24.4591  -21.0918   -5.7058 C   0  0  2  0  0  0  0  0  0  0  0  0
   25.6863  -21.0239   -6.5196 N   0  0  0  0  0  0  0  0  0  0  0  0
   24.8683  -21.3054   -4.2769 C   0  0  0  0  0  0  0  0  0  0  0  0
   24.4284  -20.5410   -3.2278 O   0  0  0  0  0  0  0  0  0  0  0  0
   25.6732  -22.2457   -3.9788 O   0  0  0  0  0  0  0  0  0  0  0  0
  2  1  1  0
  2  3  2  0
  4  3  1  0
  5  4  2  0
  6  7  1  0
  6  5  1  0
  7  8  1  6
  9 13  1  0
  9  7  1  0
 10  9  2  0
 11 12  2  0
 11  5  1  0
 12  2  1  0
 14 13  1  0
 14 15  1  1
 16 21  1  0
 16 15  1  0
 17 16  2  0
 18 19  2  0
 18 17  1  0
 19 20  1  0
 20 21  2  0
 22 23  2  0
 22 14  1  0
 24 25  1  0
 26 25  1  0
 27 26  1  0
 28 27  1  6
 28 29  1  0
 29 22  1  0
 30 28  1  0
 31 30  1  0
 32 30  2  0
M  END
$$$$
