YFM.pdb
     RDKit          3D

 32 33  0  0  1  0  0  0  0  0999 V2000
   22.4581  -18.5867  -17.0653 O   0  0  0  0  0  0  0  0  0  0  0  0
   22.8226  -19.1070  -15.8344 C   0  0  0  0  0  0  0  0  0  0  0  0
   22.3686  -20.3535  -15.4691 C   0  0  0  0  0  0  0  0  0  0  0  0
   22.7375  -20.8631  -14.2404 C   0  0  0  0  0  0  0  0  0  0  0  0
   23.5476  -20.1650  -13.3634 C   0  0  0  0  0  0  0  0  0  0  0  0
   23.9321  -20.7335  -12.0454 C   0  0  0  0  0  0  0  0  0  0  0  0
   25.4309  -20.8635  -11.9936 C   0  0  2  0  0  0  0  0  0  0  0  0
   25.9336  -21.7553  -13.0101 N   0  0  0  0  0  0  0  0  0  0  0  0
   25.9469  -21.1771  -10.6531 C   0  0  0  0  0  0  0  0  0  0  0  0
   25.8120  -22.3073  -10.1218 O   0  0  0  0  0  0  0  0  0  0  0  0
   23.9806  -18.9185  -13.7695 C   0  0  0  0  0  0  0  0  0  0  0  0
   23.6309  -18.3785  -14.9912 C   0  0  0  0  0  0  0  0  0  0  0  0
   26.6361  -20.1812   -9.8918 N   0  0  0  0  0  0  0  0  0  0  0  0
   27.0318  -20.3582   -8.5336 C   0  0  1  0  0  0  0  0  0  0  0  0
   28.1454  -19.4470   -8.1021 C   0  0  0  0  0  0  0  0  0  0  0  0
   28.4599  -19.5313   -6.6650 C   0  0  0  0  0  0  0  0  0  0  0  0
   27.9881  -18.5800   -5.8113 C   0  0  0  0  0  0  0  0  0  0  0  0
   28.2911  -18.6710   -4.4699 C   0  0  0  0  0  0  0  0  0  0  0  0
   29.0588  -19.7005   -3.9756 C   0  0  0  0  0  0  0  0  0  0  0  0
   29.5191  -20.6442   -4.8654 C   0  0  0  0  0  0  0  0  0  0  0  0
   29.2215  -20.5606   -6.2036 C   0  0  0  0  0  0  0  0  0  0  0  0
   25.8607  -20.3396   -7.6567 C   0  0  0  0  0  0  0  0  0  0  0  0
   24.9921  -19.4518   -7.7962 O   0  0  0  0  0  0  0  0  0  0  0  0
   19.7126  -24.0762   -5.1429 C   0  0  0  0  0  0  0  0  0  0  0  0
   21.2596  -23.8006   -5.9423 S   0  0  0  0  0  0  0  0  0  0  0  0
   22.3380  -22.5437   -5.3193 C   0  0  0  0  0  0  0  0  0  0  0  0
   23.6115  -22.4530   -6.0952 C   0  0  0  0  0  0  0  0  0  0  0  0
   24.5297  -21.3475   -5.7434 C   0  0  2  0  0  0  0  0  0  0  0  0
   25.6932  -21.3150   -6.6480 N   0  0  0  0  0  0  0  0  0  0  0  0
   25.0457  -21.4539   -4.3372 C   0  0  0  0  0  0  0  0  0  0  0  0
   24.5793  -20.7061   -3.2876 O   0  0  0  0  0  0  0  0  0  0  0  0
   25.9749  -22.2791   -4.0605 O   0  0  0  0  0  0  0  0  0  0  0  0
  2  1  1  0
  2  3  2  0
  4  3  1  0
  5  4  2  0
  6  7  1  0
  6  5  1  0
  7  8  1  6
  9 13  1  0
  9  7  1  0
 10  9  2  0
 11 12  2  0
 11  5  1  0
 12  2  1  0
 14 13  1  0
 14 15  1  1
 16 21  1  0
 16 15  1  0
 17 16  2  0
 18 19  2  0
 18 17  1  0
 19 20  1  0
 20 21  2  0
 22 23  2  0
 22 14  1  0
 24 25  1  0
 26 25  1  0
 27 26  1  0
 28 27  1  6
 28 29  1  0
 29 22  1  0
 30 28  1  0
 31 30  1  0
 32 30  2  0
M  END
$$$$
