YFM.pdb
     RDKit          3D

 32 33  0  0  1  0  0  0  0  0999 V2000
   36.3626  -39.4930   -7.5340 O   0  0  0  0  0  0  0  0  0  0  0  0
   35.6144  -38.4483   -7.0166 C   0  0  0  0  0  0  0  0  0  0  0  0
   34.8768  -37.6610   -7.8706 C   0  0  0  0  0  0  0  0  0  0  0  0
   34.1345  -36.6225   -7.3453 C   0  0  0  0  0  0  0  0  0  0  0  0
   34.1060  -36.3453   -5.9907 C   0  0  0  0  0  0  0  0  0  0  0  0
   33.2994  -35.2217   -5.4473 C   0  0  0  0  0  0  0  0  0  0  0  0
   31.8854  -35.6959   -5.2432 C   0  0  2  0  0  0  0  0  0  0  0  0
   31.2377  -36.0235   -6.4899 N   0  0  0  0  0  0  0  0  0  0  0  0
   31.0813  -34.7988   -4.4006 C   0  0  0  0  0  0  0  0  0  0  0  0
   31.4479  -34.4338   -3.2560 O   0  0  0  0  0  0  0  0  0  0  0  0
   34.8602  -37.1597   -5.1698 C   0  0  0  0  0  0  0  0  0  0  0  0
   35.6140  -38.2069   -5.6614 C   0  0  0  0  0  0  0  0  0  0  0  0
   29.8245  -34.3002   -4.8682 N   0  0  0  0  0  0  0  0  0  0  0  0
   28.9451  -33.5061   -4.0754 C   0  0  1  0  0  0  0  0  0  0  0  0
   28.6641  -32.1490   -4.6549 C   0  0  0  0  0  0  0  0  0  0  0  0
   27.8290  -32.1817   -5.8686 C   0  0  0  0  0  0  0  0  0  0  0  0
   26.4713  -32.2026   -5.7563 C   0  0  0  0  0  0  0  0  0  0  0  0
   25.7030  -32.2343   -6.8999 C   0  0  0  0  0  0  0  0  0  0  0  0
   26.2770  -32.2453   -8.1505 C   0  0  0  0  0  0  0  0  0  0  0  0
   27.6510  -32.2235   -8.2277 C   0  0  0  0  0  0  0  0  0  0  0  0
   28.4238  -32.1919   -7.0927 C   0  0  0  0  0  0  0  0  0  0  0  0
   27.7497  -34.2718   -3.7210 C   0  0  0  0  0  0  0  0  0  0  0  0
   27.3782  -35.2185   -4.4475 O   0  0  0  0  0  0  0  0  0  0  0  0
   23.0636  -36.2626    2.4148 C   0  0  0  0  0  0  0  0  0  0  0  0
   24.3139  -35.3358    1.5867 S   0  0  0  0  0  0  0  0  0  0  0  0
   24.3868  -35.3768   -0.1808 C   0  0  0  0  0  0  0  0  0  0  0  0
   25.5542  -34.6152   -0.7183 C   0  0  0  0  0  0  0  0  0  0  0  0
   25.7704  -34.6703   -2.1809 C   0  0  2  0  0  0  0  0  0  0  0  0
   27.0030  -33.9577   -2.5631 N   0  0  0  0  0  0  0  0  0  0  0  0
   24.6336  -34.0657   -2.9536 C   0  0  0  0  0  0  0  0  0  0  0  0
   24.3032  -32.7359   -2.9228 O   0  0  0  0  0  0  0  0  0  0  0  0
   23.9063  -34.8007   -3.6964 O   0  0  0  0  0  0  0  0  0  0  0  0
  2  1  1  0
  2  3  2  0
  4  3  1  0
  5  4  2  0
  6  7  1  0
  6  5  1  0
  7  8  1  6
  9 13  1  0
  9  7  1  0
 10  9  2  0
 11 12  2  0
 11  5  1  0
 12  2  1  0
 14 13  1  0
 14 15  1  6
 16 21  1  0
 16 15  1  0
 17 16  2  0
 18 19  2  0
 18 17  1  0
 19 20  1  0
 20 21  2  0
 22 23  2  0
 22 14  1  0
 24 25  1  0
 26 25  1  0
 27 26  1  0
 28 27  1  1
 28 29  1  0
 29 22  1  0
 30 28  1  0
 31 30  1  0
 32 30  2  0
M  END
$$$$
