YFM.pdb
     RDKit          3D

 32 33  0  0  1  0  0  0  0  0999 V2000
   23.0223  -14.2861  -22.3033 O   0  0  0  0  0  0  0  0  0  0  0  0
   22.8992  -15.2959  -21.3631 C   0  0  0  0  0  0  0  0  0  0  0  0
   23.0101  -14.9886  -20.0265 C   0  0  0  0  0  0  0  0  0  0  0  0
   22.8860  -16.0019  -19.0975 C   0  0  0  0  0  0  0  0  0  0  0  0
   22.6541  -17.3155  -19.4626 C   0  0  0  0  0  0  0  0  0  0  0  0
   22.5238  -18.3904  -18.4449 C   0  0  0  0  0  0  0  0  0  0  0  0
   23.9013  -18.8119  -18.0078 C   0  0  2  0  0  0  0  0  0  0  0  0
   24.6619  -19.3869  -19.0904 N   0  0  0  0  0  0  0  0  0  0  0  0
   23.9029  -19.6507  -16.8004 C   0  0  0  0  0  0  0  0  0  0  0  0
   23.6224  -20.8749  -16.8247 O   0  0  0  0  0  0  0  0  0  0  0  0
   22.5496  -17.5798  -20.8137 C   0  0  0  0  0  0  0  0  0  0  0  0
   22.6686  -16.5907  -21.7697 C   0  0  0  0  0  0  0  0  0  0  0  0
   24.2320  -19.0865  -15.5276 N   0  0  0  0  0  0  0  0  0  0  0  0
   24.2113  -19.8234  -14.3074 C   0  0  1  0  0  0  0  0  0  0  0  0
   25.2146  -19.3492  -13.2948 C   0  0  0  0  0  0  0  0  0  0  0  0
   25.1025  -20.0196  -11.9874 C   0  0  0  0  0  0  0  0  0  0  0  0
   24.3377  -19.4655  -11.0053 C   0  0  0  0  0  0  0  0  0  0  0  0
   24.2431  -20.1030   -9.7871 C   0  0  0  0  0  0  0  0  0  0  0  0
   24.9034  -21.2852   -9.5423 C   0  0  0  0  0  0  0  0  0  0  0  0
   25.6670  -21.8173  -10.5561 C   0  0  0  0  0  0  0  0  0  0  0  0
   25.7665  -21.1881  -11.7729 C   0  0  0  0  0  0  0  0  0  0  0  0
   22.8428  -19.9276  -13.8001 C   0  0  0  0  0  0  0  0  0  0  0  0
   22.1412  -18.8998  -13.6848 O   0  0  0  0  0  0  0  0  0  0  0  0
   18.6081  -25.7760  -11.2734 C   0  0  0  0  0  0  0  0  0  0  0  0
   18.7173  -24.7968  -12.7355 S   0  0  0  0  0  0  0  0  0  0  0  0
   19.0976  -23.0748  -12.5912 C   0  0  0  0  0  0  0  0  0  0  0  0
   20.4771  -22.7564  -13.0682 C   0  0  0  0  0  0  0  0  0  0  0  0
   20.9115  -21.3463  -12.9602 C   0  0  2  0  0  0  0  0  0  0  0  0
   22.2966  -21.1791  -13.4361 N   0  0  0  0  0  0  0  0  0  0  0  0
   20.8460  -20.8306  -11.5514 C   0  0  0  0  0  0  0  0  0  0  0  0
   21.7455  -21.1561  -10.5699 O   0  0  0  0  0  0  0  0  0  0  0  0
   19.9111  -20.0383  -11.2061 O   0  0  0  0  0  0  0  0  0  0  0  0
  2  1  1  0
  2  3  2  0
  4  3  1  0
  5  4  2  0
  6  7  1  0
  6  5  1  0
  7  8  1  6
  9 13  1  0
  9  7  1  0
 10  9  2  0
 11 12  2  0
 11  5  1  0
 12  2  1  0
 14 13  1  0
 14 15  1  1
 16 21  1  0
 16 15  1  0
 17 16  2  0
 18 19  2  0
 18 17  1  0
 19 20  1  0
 20 21  2  0
 22 23  2  0
 22 14  1  0
 24 25  1  0
 26 25  1  0
 27 26  1  0
 28 27  1  1
 28 29  1  0
 29 22  1  0
 30 28  1  0
 31 30  1  0
 32 30  2  0
M  END
$$$$
