YFM.pdb
     RDKit          3D

 32 33  0  0  1  0  0  0  0  0999 V2000
   20.5788  -22.4452  -24.1251 O   0  0  0  0  0  0  0  0  0  0  0  0
   20.2822  -21.4920  -23.1647 C   0  0  0  0  0  0  0  0  0  0  0  0
   20.2733  -21.8537  -21.8372 C   0  0  0  0  0  0  0  0  0  0  0  0
   19.9767  -20.8966  -20.8879 C   0  0  0  0  0  0  0  0  0  0  0  0
   19.6879  -19.5864  -21.2240 C   0  0  0  0  0  0  0  0  0  0  0  0
   19.3712  -18.5725  -20.1848 C   0  0  0  0  0  0  0  0  0  0  0  0
   20.5729  -17.6868  -19.9914 C   0  0  2  0  0  0  0  0  0  0  0  0
   21.7139  -18.4200  -19.4997 N   0  0  0  0  0  0  0  0  0  0  0  0
   20.2900  -16.4770  -19.2055 C   0  0  0  0  0  0  0  0  0  0  0  0
   20.6062  -16.3652  -17.9950 O   0  0  0  0  0  0  0  0  0  0  0  0
   19.7078  -19.2665  -22.5669 C   0  0  0  0  0  0  0  0  0  0  0  0
   20.0004  -20.1986  -23.5426 C   0  0  0  0  0  0  0  0  0  0  0  0
   19.6292  -15.3605  -19.8084 N   0  0  0  0  0  0  0  0  0  0  0  0
   19.3988  -14.1229  -19.1391 C   0  0  1  0  0  0  0  0  0  0  0  0
   20.2975  -13.0092  -19.5960 C   0  0  0  0  0  0  0  0  0  0  0  0
   21.6482  -13.4548  -19.9811 C   0  0  0  0  0  0  0  0  0  0  0  0
   22.6444  -13.4783  -19.0519 C   0  0  0  0  0  0  0  0  0  0  0  0
   23.9031  -13.8963  -19.4267 C   0  0  0  0  0  0  0  0  0  0  0  0
   24.1743  -14.2897  -20.7171 C   0  0  0  0  0  0  0  0  0  0  0  0
   23.1452  -14.2538  -21.6303 C   0  0  0  0  0  0  0  0  0  0  0  0
   21.8881  -13.8385  -21.2647 C   0  0  0  0  0  0  0  0  0  0  0  0
   17.9730  -13.7948  -19.1547 C   0  0  0  0  0  0  0  0  0  0  0  0
   17.3851  -13.6232  -20.2442 O   0  0  0  0  0  0  0  0  0  0  0  0
   16.5735  -18.3952  -16.2172 C   0  0  0  0  0  0  0  0  0  0  0  0
   16.2649  -16.6663  -16.0628 S   0  0  0  0  0  0  0  0  0  0  0  0
   15.3162  -15.8468  -17.3115 C   0  0  0  0  0  0  0  0  0  0  0  0
   15.1171  -14.3966  -17.0126 C   0  0  0  0  0  0  0  0  0  0  0  0
   15.7892  -13.4319  -17.9107 C   0  0  2  0  0  0  0  0  0  0  0  0
   17.2438  -13.6680  -17.9509 N   0  0  0  0  0  0  0  0  0  0  0  0
   15.5679  -12.0067  -17.4928 C   0  0  0  0  0  0  0  0  0  0  0  0
   14.3371  -11.4079  -17.4207 O   0  0  0  0  0  0  0  0  0  0  0  0
   16.5603  -11.2741  -17.1772 O   0  0  0  0  0  0  0  0  0  0  0  0
  2  1  1  0
  2  3  2  0
  4  3  1  0
  5  4  2  0
  6  7  1  0
  6  5  1  0
  7  8  1  1
  9 13  1  0
  9  7  1  0
 10  9  2  0
 11 12  2  0
 11  5  1  0
 12  2  1  0
 14 13  1  0
 14 15  1  6
 16 21  1  0
 16 15  1  0
 17 16  2  0
 18 19  2  0
 18 17  1  0
 19 20  1  0
 20 21  2  0
 22 23  2  0
 22 14  1  0
 24 25  1  0
 26 25  1  0
 27 26  1  0
 28 27  1  1
 28 29  1  0
 29 22  1  0
 30 28  1  0
 31 30  1  0
 32 30  2  0
M  END
$$$$
