FEV.pdb
     RDKit          3D

 28 28  0  0  1  0  0  0  0  0999 V2000
   25.0361  -19.9367   -7.4425 N   0  0  0  0  0  0  0  0  0  0  0  0
   26.2084  -19.9396   -8.2910 C   0  0  1  0  0  0  0  0  0  0  0  0
   27.1861  -20.9245   -7.6828 C   0  0  0  0  0  0  0  0  0  0  0  0
   27.7852  -20.3824   -6.4365 C   0  0  0  0  0  0  0  0  0  0  0  0
   27.7879  -21.1367   -5.2793 C   0  0  0  0  0  0  0  0  0  0  0  0
   28.3280  -20.6859   -4.0978 C   0  0  0  0  0  0  0  0  0  0  0  0
   28.8905  -19.4419   -4.0466 C   0  0  0  0  0  0  0  0  0  0  0  0
   28.9120  -18.6463   -5.1827 C   0  0  0  0  0  0  0  0  0  0  0  0
   28.3574  -19.1284   -6.3665 C   0  0  0  0  0  0  0  0  0  0  0  0
   25.8101  -20.3144   -9.6555 C   0  0  0  0  0  0  0  0  0  0  0  0
   24.6262  -20.6829   -9.8571 O   0  0  0  0  0  0  0  0  0  0  0  0
   26.7134  -20.2775  -10.7649 N   0  0  0  0  0  0  0  0  0  0  0  0
   26.2104  -20.0251  -12.0726 C   0  0  1  0  0  0  0  0  0  0  0  0
   27.3327  -19.7319  -13.0710 C   0  0  0  0  0  0  0  0  0  0  0  0
   26.7891  -19.3791  -14.4194 C   0  0  0  0  0  0  0  0  0  0  0  0
   27.9213  -19.0489  -15.3193 C   0  0  0  0  0  0  0  0  0  0  0  0
   28.7517  -19.9268  -15.6663 O   0  0  0  0  0  0  0  0  0  0  0  0
   25.3298  -21.1225  -12.5704 C   0  0  0  0  0  0  0  0  0  0  0  0
   25.6170  -22.3267  -12.4375 O   0  0  0  0  0  0  0  0  0  0  0  0
   28.1286  -17.7662  -15.8257 O   0  0  0  0  0  0  0  0  0  0  0  0
   21.8150  -21.2245  -11.7178 C   0  0  0  0  0  0  0  0  0  0  0  0
   21.7808  -21.4048  -13.2115 C   0  0  1  0  0  0  0  0  0  0  0  0
   21.3344  -20.0471  -13.7791 C   0  0  0  0  0  0  0  0  0  0  0  0
   23.1525  -21.6486  -13.7416 C   0  0  2  0  0  0  0  0  0  0  0  0
   24.1318  -20.7409  -13.2120 N   0  0  0  0  0  0  0  0  0  0  0  0
   23.2442  -21.8681  -15.2083 C   0  0  0  0  0  0  0  0  0  0  0  0
   23.9019  -21.1816  -16.0157 O   0  0  0  0  0  0  0  0  0  0  0  0
   22.5438  -22.9314  -15.7667 O   0  0  0  0  0  0  0  0  0  0  0  0
  2  1  1  1
  3  2  1  0
  4  3  1  0
  4  9  2  0
  5  4  1  0
  6  5  2  0
  6  7  1  0
  7  8  2  0
  8  9  1  0
 10  2  1  0
 11 10  2  0
 12 10  1  0
 13 18  1  0
 13 12  1  0
 13 14  1  6
 15 14  1  0
 16 15  1  0
 17 16  2  0
 18 19  2  0
 20 16  1  0
 22 21  1  1
 22 24  1  0
 23 22  1  0
 24 25  1  6
 25 18  1  0
 26 28  1  0
 26 24  1  0
 27 26  2  0
M  END
$$$$
