FEV.pdb
     RDKit          3D

 28 28  0  0  1  0  0  0  0  0999 V2000
   26.4382  -18.4065   -7.9094 N   0  0  0  0  0  0  0  0  0  0  0  0
   27.1554  -19.5246   -8.4835 C   0  0  1  0  0  0  0  0  0  0  0  0
   27.0735  -20.6579   -7.4811 C   0  0  0  0  0  0  0  0  0  0  0  0
   27.8999  -20.3705   -6.2808 C   0  0  0  0  0  0  0  0  0  0  0  0
   27.3005  -20.1858   -5.0501 C   0  0  0  0  0  0  0  0  0  0  0  0
   28.0153  -19.9176   -3.9065 C   0  0  0  0  0  0  0  0  0  0  0  0
   29.3770  -19.8260   -3.9701 C   0  0  0  0  0  0  0  0  0  0  0  0
   30.0252  -20.0037   -5.1834 C   0  0  0  0  0  0  0  0  0  0  0  0
   29.2760  -20.2745   -6.3265 C   0  0  0  0  0  0  0  0  0  0  0  0
   26.5446  -19.8722   -9.7746 C   0  0  0  0  0  0  0  0  0  0  0  0
   25.3155  -19.6669   -9.9337 O   0  0  0  0  0  0  0  0  0  0  0  0
   27.2902  -20.4349  -10.8589 N   0  0  0  0  0  0  0  0  0  0  0  0
   26.8390  -20.2440  -12.1957 C   0  0  1  0  0  0  0  0  0  0  0  0
   27.9665  -20.4341  -13.2130 C   0  0  0  0  0  0  0  0  0  0  0  0
   27.5094  -20.1224  -14.6030 C   0  0  0  0  0  0  0  0  0  0  0  0
   27.4821  -21.3797  -15.3900 C   0  0  0  0  0  0  0  0  0  0  0  0
   26.4782  -21.6920  -16.0793 O   0  0  0  0  0  0  0  0  0  0  0  0
   25.6673  -21.1043  -12.5342 C   0  0  0  0  0  0  0  0  0  0  0  0
   25.6204  -22.3163  -12.2529 O   0  0  0  0  0  0  0  0  0  0  0  0
   28.5508  -22.2753  -15.4116 O   0  0  0  0  0  0  0  0  0  0  0  0
   23.4385  -21.3916  -11.0680 C   0  0  0  0  0  0  0  0  0  0  0  0
   22.6191  -21.6225  -12.3090 C   0  0  1  0  0  0  0  0  0  0  0  0
   21.3708  -20.7390  -12.1475 C   0  0  0  0  0  0  0  0  0  0  0  0
   23.3370  -21.1154  -13.5130 C   0  0  2  0  0  0  0  0  0  0  0  0
   24.5883  -20.4835  -13.1996 N   0  0  0  0  0  0  0  0  0  0  0  0
   22.5014  -20.3764  -14.4946 C   0  0  0  0  0  0  0  0  0  0  0  0
   21.5453  -20.8427  -15.1460 O   0  0  0  0  0  0  0  0  0  0  0  0
   22.7837  -19.0360  -14.7327 O   0  0  0  0  0  0  0  0  0  0  0  0
  2  1  1  1
  3  2  1  0
  4  3  1  0
  4  9  2  0
  5  4  1  0
  6  5  2  0
  6  7  1  0
  7  8  2  0
  8  9  1  0
 10  2  1  0
 11 10  2  0
 12 10  1  0
 13 18  1  0
 13 12  1  0
 13 14  1  6
 15 14  1  0
 16 15  1  0
 17 16  2  0
 18 19  2  0
 20 16  1  0
 22 21  1  1
 22 24  1  0
 23 22  1  0
 24 25  1  1
 25 18  1  0
 26 28  1  0
 26 24  1  0
 27 26  2  0
M  END
$$$$
