FEV.pdb
     RDKit          3D

 28 28  0  0  1  0  0  0  0  0999 V2000
   27.0882  -18.2400   -7.9406 N   0  0  0  0  0  0  0  0  0  0  0  0
   27.1932  -19.6517   -8.2413 C   0  0  1  0  0  0  0  0  0  0  0  0
   26.7143  -20.3975   -7.0124 C   0  0  0  0  0  0  0  0  0  0  0  0
   27.6472  -20.2046   -5.8728 C   0  0  0  0  0  0  0  0  0  0  0  0
   27.1623  -20.1182   -4.5823 C   0  0  0  0  0  0  0  0  0  0  0  0
   27.9789  -19.9400   -3.4904 C   0  0  0  0  0  0  0  0  0  0  0  0
   29.3298  -19.8420   -3.6693 C   0  0  0  0  0  0  0  0  0  0  0  0
   29.8650  -19.9227   -4.9465 C   0  0  0  0  0  0  0  0  0  0  0  0
   29.0141  -20.1035   -6.0350 C   0  0  0  0  0  0  0  0  0  0  0  0
   26.3811  -19.9489   -9.4300 C   0  0  0  0  0  0  0  0  0  0  0  0
   25.2557  -19.4021   -9.5422 O   0  0  0  0  0  0  0  0  0  0  0  0
   26.8174  -20.8350  -10.4657 N   0  0  0  0  0  0  0  0  0  0  0  0
   26.1838  -20.7925  -11.7400 C   0  0  1  0  0  0  0  0  0  0  0  0
   27.1029  -21.3003  -12.8534 C   0  0  0  0  0  0  0  0  0  0  0  0
   26.4686  -21.1491  -14.1999 C   0  0  0  0  0  0  0  0  0  0  0  0
   27.4337  -21.5938  -15.2351 C   0  0  0  0  0  0  0  0  0  0  0  0
   28.5524  -22.0710  -14.9169 O   0  0  0  0  0  0  0  0  0  0  0  0
   24.8789  -21.5168  -11.7564 C   0  0  0  0  0  0  0  0  0  0  0  0
   24.7292  -22.6426  -11.2461 O   0  0  0  0  0  0  0  0  0  0  0  0
   27.1618  -21.5103  -16.6004 O   0  0  0  0  0  0  0  0  0  0  0  0
   20.0543  -20.9304  -12.0133 C   0  0  0  0  0  0  0  0  0  0  0  0
   21.4425  -20.3509  -11.9722 C   0  0  1  0  0  0  0  0  0  0  0  0
   21.7328  -20.0849  -10.4856 C   0  0  0  0  0  0  0  0  0  0  0  0
   22.4450  -21.3592  -12.4198 C   0  0  2  0  0  0  0  0  0  0  0  0
   23.7943  -20.8676  -12.3845 N   0  0  0  0  0  0  0  0  0  0  0  0
   22.0939  -22.1098  -13.6531 C   0  0  0  0  0  0  0  0  0  0  0  0
   21.3650  -23.1199  -13.7176 O   0  0  0  0  0  0  0  0  0  0  0  0
   22.6084  -21.6711  -14.8679 O   0  0  0  0  0  0  0  0  0  0  0  0
  2  1  1  1
  3  2  1  0
  4  3  1  0
  4  9  2  0
  5  4  1  0
  6  5  2  0
  6  7  1  0
  7  8  2  0
  8  9  1  0
 10  2  1  0
 11 10  2  0
 12 10  1  0
 13 18  1  0
 13 12  1  0
 13 14  1  6
 15 14  1  0
 16 15  1  0
 17 16  2  0
 18 19  2  0
 20 16  1  0
 22 21  1  1
 22 24  1  0
 23 22  1  0
 24 25  1  6
 25 18  1  0
 26 28  1  0
 26 24  1  0
 27 26  2  0
M  END
$$$$
