FEV.pdb
     RDKit          3D

 28 28  0  0  1  0  0  0  0  0999 V2000
   28.5135  -20.9765   -9.1972 N   0  0  0  0  0  0  0  0  0  0  0  0
   27.1223  -20.7020   -8.9076 C   0  0  1  0  0  0  0  0  0  0  0  0
   27.0866  -19.4080   -8.1202 C   0  0  0  0  0  0  0  0  0  0  0  0
   27.7139  -19.5775   -6.7846 C   0  0  0  0  0  0  0  0  0  0  0  0
   28.8334  -18.8443   -6.4424 C   0  0  0  0  0  0  0  0  0  0  0  0
   29.4550  -18.9604   -5.2213 C   0  0  0  0  0  0  0  0  0  0  0  0
   28.9590  -19.8326   -4.2941 C   0  0  0  0  0  0  0  0  0  0  0  0
   27.8364  -20.5914   -4.5907 C   0  0  0  0  0  0  0  0  0  0  0  0
   27.2266  -20.4536   -5.8359 C   0  0  0  0  0  0  0  0  0  0  0  0
   26.3799  -20.6096  -10.1729 C   0  0  0  0  0  0  0  0  0  0  0  0
   26.7752  -19.7960  -11.0447 O   0  0  0  0  0  0  0  0  0  0  0  0
   25.2254  -21.4070  -10.4547 N   0  0  0  0  0  0  0  0  0  0  0  0
   24.5572  -21.2595  -11.7033 C   0  0  1  0  0  0  0  0  0  0  0  0
   24.7982  -22.4562  -12.6263 C   0  0  0  0  0  0  0  0  0  0  0  0
   25.4876  -22.0451  -13.8889 C   0  0  0  0  0  0  0  0  0  0  0  0
   25.6915  -23.2467  -14.7347 C   0  0  0  0  0  0  0  0  0  0  0  0
   25.3060  -24.3811  -14.3541 O   0  0  0  0  0  0  0  0  0  0  0  0
   23.0967  -20.9964  -11.5449 C   0  0  0  0  0  0  0  0  0  0  0  0
   22.4525  -21.3644  -10.5450 O   0  0  0  0  0  0  0  0  0  0  0  0
   26.3128  -23.1902  -15.9820 O   0  0  0  0  0  0  0  0  0  0  0  0
   21.7776  -17.6436  -13.2418 C   0  0  0  0  0  0  0  0  0  0  0  0
   20.7924  -18.7531  -13.4929 C   0  0  1  0  0  0  0  0  0  0  0  0
   21.0728  -19.2350  -14.9261 C   0  0  0  0  0  0  0  0  0  0  0  0
   21.0710  -19.9137  -12.5999 C   0  0  2  0  0  0  0  0  0  0  0  0
   22.4545  -20.2997  -12.5911 N   0  0  0  0  0  0  0  0  0  0  0  0
   20.1150  -21.0465  -12.7026 C   0  0  0  0  0  0  0  0  0  0  0  0
   20.2966  -22.1082  -13.3314 O   0  0  0  0  0  0  0  0  0  0  0  0
   18.8931  -20.9472  -12.0467 O   0  0  0  0  0  0  0  0  0  0  0  0
  2  1  1  6
  3  2  1  0
  4  3  1  0
  4  9  2  0
  5  4  1  0
  6  5  2  0
  6  7  1  0
  7  8  2  0
  8  9  1  0
 10  2  1  0
 11 10  2  0
 12 10  1  0
 13 18  1  0
 13 12  1  0
 13 14  1  6
 15 14  1  0
 16 15  1  0
 17 16  2  0
 18 19  2  0
 20 16  1  0
 22 21  1  1
 22 24  1  0
 23 22  1  0
 24 25  1  6
 25 18  1  0
 26 28  1  0
 26 24  1  0
 27 26  2  0
M  END
$$$$
