FEV.pdb
     RDKit          3D

 28 28  0  0  1  0  0  0  0  0999 V2000
   27.2078  -22.2285  -11.6564 N   0  0  0  0  0  0  0  0  0  0  0  0
   26.1948  -21.3613  -11.0941 C   0  0  1  0  0  0  0  0  0  0  0  0
   26.8887  -20.0706  -10.7090 C   0  0  0  0  0  0  0  0  0  0  0  0
   27.4351  -20.1483   -9.3301 C   0  0  0  0  0  0  0  0  0  0  0  0
   26.6327  -19.8542   -8.2449 C   0  0  0  0  0  0  0  0  0  0  0  0
   27.0850  -19.9095   -6.9475 C   0  0  0  0  0  0  0  0  0  0  0  0
   28.3799  -20.2686   -6.7012 C   0  0  0  0  0  0  0  0  0  0  0  0
   29.2251  -20.5734   -7.7581 C   0  0  0  0  0  0  0  0  0  0  0  0
   28.7403  -20.5091   -9.0627 C   0  0  0  0  0  0  0  0  0  0  0  0
   25.1361  -21.1530  -12.0923 C   0  0  0  0  0  0  0  0  0  0  0  0
   25.4503  -21.1368  -13.3086 O   0  0  0  0  0  0  0  0  0  0  0  0
   23.7619  -20.9677  -11.7383 N   0  0  0  0  0  0  0  0  0  0  0  0
   22.7699  -20.9456  -12.7594 C   0  0  1  0  0  0  0  0  0  0  0  0
   21.3920  -21.3464  -12.2276 C   0  0  0  0  0  0  0  0  0  0  0  0
   20.4046  -21.5200  -13.3381 C   0  0  0  0  0  0  0  0  0  0  0  0
   19.0913  -21.8902  -12.7560 C   0  0  0  0  0  0  0  0  0  0  0  0
   18.9405  -22.0003  -11.5127 O   0  0  0  0  0  0  0  0  0  0  0  0
   22.7050  -19.6336  -13.4680 C   0  0  0  0  0  0  0  0  0  0  0  0
   22.6651  -18.5454  -12.8643 O   0  0  0  0  0  0  0  0  0  0  0  0
   17.9642  -22.1341  -13.5403 O   0  0  0  0  0  0  0  0  0  0  0  0
   24.9583  -18.8162  -16.1439 C   0  0  0  0  0  0  0  0  0  0  0  0
   23.6399  -18.4030  -16.7404 C   0  0  1  0  0  0  0  0  0  0  0  0
   23.3365  -19.4462  -17.8289 C   0  0  0  0  0  0  0  0  0  0  0  0
   22.5482  -18.5214  -15.7324 C   0  0  2  0  0  0  0  0  0  0  0  0
   22.6900  -19.6682  -14.8790 N   0  0  0  0  0  0  0  0  0  0  0  0
   21.1720  -18.3024  -16.2479 C   0  0  0  0  0  0  0  0  0  0  0  0
   20.3537  -19.1898  -16.5620 O   0  0  0  0  0  0  0  0  0  0  0  0
   20.7210  -16.9968  -16.4064 O   0  0  0  0  0  0  0  0  0  0  0  0
  2  1  1  6
  3  2  1  0
  4  3  1  0
  4  9  2  0
  5  4  1  0
  6  5  2  0
  6  7  1  0
  7  8  2  0
  8  9  1  0
 10  2  1  0
 11 10  2  0
 12 10  1  0
 13 18  1  0
 13 12  1  0
 13 14  1  1
 15 14  1  0
 16 15  1  0
 17 16  2  0
 18 19  2  0
 20 16  1  0
 22 21  1  1
 22 24  1  0
 23 22  1  0
 24 25  1  6
 25 18  1  0
 26 28  1  0
 26 24  1  0
 27 26  2  0
M  END
$$$$
