FEV.pdb
     RDKit          3D

 28 28  0  0  1  0  0  0  0  0999 V2000
   28.3120  -20.9952   -9.5028 N   0  0  0  0  0  0  0  0  0  0  0  0
   26.9049  -20.7429   -9.2771 C   0  0  1  0  0  0  0  0  0  0  0  0
   26.8136  -19.4596   -8.4767 C   0  0  0  0  0  0  0  0  0  0  0  0
   27.3307  -19.6520   -7.0976 C   0  0  0  0  0  0  0  0  0  0  0  0
   28.4280  -18.9369   -6.6588 C   0  0  0  0  0  0  0  0  0  0  0  0
   28.9491  -19.0745   -5.3937 C   0  0  0  0  0  0  0  0  0  0  0  0
   28.3707  -19.9506   -4.5194 C   0  0  0  0  0  0  0  0  0  0  0  0
   27.2664  -20.6918   -4.9134 C   0  0  0  0  0  0  0  0  0  0  0  0
   26.7592  -20.5324   -6.2013 C   0  0  0  0  0  0  0  0  0  0  0  0
   26.2227  -20.6441  -10.5754 C   0  0  0  0  0  0  0  0  0  0  0  0
   26.6699  -19.8399  -11.4307 O   0  0  0  0  0  0  0  0  0  0  0  0
   25.0702  -21.4249  -10.9073 N   0  0  0  0  0  0  0  0  0  0  0  0
   24.3787  -21.1741  -12.1263 C   0  0  1  0  0  0  0  0  0  0  0  0
   24.2406  -22.4389  -12.9768 C   0  0  0  0  0  0  0  0  0  0  0  0
   25.5677  -23.0869  -13.2156 C   0  0  0  0  0  0  0  0  0  0  0  0
   25.3757  -24.2517  -14.1142 C   0  0  0  0  0  0  0  0  0  0  0  0
   24.2293  -24.5850  -14.5082 O   0  0  0  0  0  0  0  0  0  0  0  0
   23.0491  -20.5315  -11.9100 C   0  0  0  0  0  0  0  0  0  0  0  0
   22.4545  -20.5698  -10.8167 O   0  0  0  0  0  0  0  0  0  0  0  0
   26.4379  -25.0331  -14.5679 O   0  0  0  0  0  0  0  0  0  0  0  0
   21.1489  -18.5038  -15.3636 C   0  0  0  0  0  0  0  0  0  0  0  0
   21.1762  -18.0135  -13.9411 C   0  0  1  0  0  0  0  0  0  0  0  0
   19.8204  -17.3226  -13.7186 C   0  0  0  0  0  0  0  0  0  0  0  0
   21.2207  -19.1617  -12.9915 C   0  0  2  0  0  0  0  0  0  0  0  0
   22.4743  -19.8628  -13.0122 N   0  0  0  0  0  0  0  0  0  0  0  0
   20.0224  -20.0402  -12.9900 C   0  0  0  0  0  0  0  0  0  0  0  0
   19.9370  -21.1696  -13.5124 O   0  0  0  0  0  0  0  0  0  0  0  0
   18.8702  -19.5923  -12.3538 O   0  0  0  0  0  0  0  0  0  0  0  0
  2  1  1  6
  3  2  1  0
  4  3  1  0
  4  9  2  0
  5  4  1  0
  6  5  2  0
  6  7  1  0
  7  8  2  0
  8  9  1  0
 10  2  1  0
 11 10  2  0
 12 10  1  0
 13 18  1  0
 13 12  1  0
 13 14  1  1
 15 14  1  0
 16 15  1  0
 17 16  2  0
 18 19  2  0
 20 16  1  0
 22 21  1  6
 22 24  1  0
 23 22  1  0
 24 25  1  6
 25 18  1  0
 26 28  1  0
 26 24  1  0
 27 26  2  0
M  END
$$$$
