FEV.pdb
     RDKit          3D

 28 28  0  0  1  0  0  0  0  0999 V2000
   24.6590   -8.0134  -21.4550 N   0  0  0  0  0  0  0  0  0  0  0  0
   23.6243   -7.0779  -21.0696 C   0  0  1  0  0  0  0  0  0  0  0  0
   22.5129   -7.2098  -22.0910 C   0  0  0  0  0  0  0  0  0  0  0  0
   22.8685   -6.5235  -23.3594 C   0  0  0  0  0  0  0  0  0  0  0  0
   23.3561   -5.2313  -23.3396 C   0  0  0  0  0  0  0  0  0  0  0  0
   23.7011   -4.5480  -24.4819 C   0  0  0  0  0  0  0  0  0  0  0  0
   23.5628   -5.1562  -25.6974 C   0  0  0  0  0  0  0  0  0  0  0  0
   23.0772   -6.4536  -25.7692 C   0  0  0  0  0  0  0  0  0  0  0  0
   22.7354   -7.1224  -24.5957 C   0  0  0  0  0  0  0  0  0  0  0  0
   23.1748   -7.3970  -19.7069 C   0  0  0  0  0  0  0  0  0  0  0  0
   22.9869   -8.6010  -19.4015 O   0  0  0  0  0  0  0  0  0  0  0  0
   22.9418   -6.3946  -18.7124 N   0  0  0  0  0  0  0  0  0  0  0  0
   22.4064   -6.7704  -17.4478 C   0  0  1  0  0  0  0  0  0  0  0  0
   22.8393   -5.8126  -16.3354 C   0  0  0  0  0  0  0  0  0  0  0  0
   22.3572   -6.2735  -14.9962 C   0  0  0  0  0  0  0  0  0  0  0  0
   22.9558   -5.4091  -13.9497 C   0  0  0  0  0  0  0  0  0  0  0  0
   23.7814   -4.5085  -14.2461 O   0  0  0  0  0  0  0  0  0  0  0  0
   20.9213   -6.9174  -17.4742 C   0  0  0  0  0  0  0  0  0  0  0  0
   20.1771   -6.1123  -18.0644 O   0  0  0  0  0  0  0  0  0  0  0  0
   22.6434   -5.5418  -12.5971 O   0  0  0  0  0  0  0  0  0  0  0  0
   19.3591  -10.6162  -15.7868 C   0  0  0  0  0  0  0  0  0  0  0  0
   18.7865   -9.8734  -16.9637 C   0  0  1  0  0  0  0  0  0  0  0  0
   17.2680  -10.1074  -16.8978 C   0  0  0  0  0  0  0  0  0  0  0  0
   18.9901   -8.4051  -16.8064 C   0  0  2  0  0  0  0  0  0  0  0  0
   20.3755   -8.0259  -16.7918 N   0  0  0  0  0  0  0  0  0  0  0  0
   18.1601   -7.7501  -15.7626 C   0  0  0  0  0  0  0  0  0  0  0  0
   18.5070   -7.5121  -14.5883 O   0  0  0  0  0  0  0  0  0  0  0  0
   16.8697   -7.3509  -16.0923 O   0  0  0  0  0  0  0  0  0  0  0  0
  2  1  1  6
  3  2  1  0
  4  3  1  0
  4  9  2  0
  5  4  1  0
  6  5  2  0
  6  7  1  0
  7  8  2  0
  8  9  1  0
 10  2  1  0
 11 10  2  0
 12 10  1  0
 13 18  1  0
 13 12  1  0
 13 14  1  1
 15 14  1  0
 16 15  1  0
 17 16  2  0
 18 19  2  0
 20 16  1  0
 22 21  1  1
 22 24  1  0
 23 22  1  0
 24 25  1  1
 25 18  1  0
 26 28  1  0
 26 24  1  0
 27 26  2  0
M  END
$$$$
