FEV.pdb
     RDKit          3D

 28 28  0  0  1  0  0  0  0  0999 V2000
   28.4129  -21.4835   -9.3346 N   0  0  0  0  0  0  0  0  0  0  0  0
   27.0576  -20.9760   -9.3258 C   0  0  1  0  0  0  0  0  0  0  0  0
   27.1186  -19.5762   -8.7489 C   0  0  0  0  0  0  0  0  0  0  0  0
   27.5550  -19.6017   -7.3294 C   0  0  0  0  0  0  0  0  0  0  0  0
   26.6874  -20.0243   -6.3412 C   0  0  0  0  0  0  0  0  0  0  0  0
   27.0372  -20.0685   -5.0121 C   0  0  0  0  0  0  0  0  0  0  0  0
   28.2917  -19.6819   -4.6333 C   0  0  0  0  0  0  0  0  0  0  0  0
   29.1992  -19.2495   -5.5891 C   0  0  0  0  0  0  0  0  0  0  0  0
   28.8179  -19.2149   -6.9288 C   0  0  0  0  0  0  0  0  0  0  0  0
   26.5311  -20.9949  -10.6981 C   0  0  0  0  0  0  0  0  0  0  0  0
   27.3402  -20.9014  -11.6545 O   0  0  0  0  0  0  0  0  0  0  0  0
   25.1356  -21.1153  -10.9918 N   0  0  0  0  0  0  0  0  0  0  0  0
   24.7002  -21.1149  -12.3473 C   0  0  1  0  0  0  0  0  0  0  0  0
   23.2625  -21.6206  -12.4869 C   0  0  0  0  0  0  0  0  0  0  0  0
   22.3035  -20.7658  -11.7201 C   0  0  0  0  0  0  0  0  0  0  0  0
   20.9295  -21.2853  -11.9275 C   0  0  0  0  0  0  0  0  0  0  0  0
   20.7196  -22.2964  -12.6445 O   0  0  0  0  0  0  0  0  0  0  0  0
   24.8608  -19.7828  -13.0011 C   0  0  0  0  0  0  0  0  0  0  0  0
   24.4889  -18.7224  -12.4651 O   0  0  0  0  0  0  0  0  0  0  0  0
   19.8075  -20.6927  -11.3489 O   0  0  0  0  0  0  0  0  0  0  0  0
   27.5820  -18.5685  -16.6792 C   0  0  0  0  0  0  0  0  0  0  0  0
   27.1991  -18.3422  -15.2415 C   0  0  1  0  0  0  0  0  0  0  0  0
   27.4283  -16.8431  -14.9863 C   0  0  0  0  0  0  0  0  0  0  0  0
   25.7412  -18.5816  -15.0434 C   0  0  2  0  0  0  0  0  0  0  0  0
   25.4625  -19.7647  -14.2778 N   0  0  0  0  0  0  0  0  0  0  0  0
   24.8932  -18.4149  -16.2520 C   0  0  0  0  0  0  0  0  0  0  0  0
   24.4883  -19.3282  -16.9988 O   0  0  0  0  0  0  0  0  0  0  0  0
   24.4943  -17.1328  -16.6130 O   0  0  0  0  0  0  0  0  0  0  0  0
  2  1  1  6
  3  2  1  0
  4  3  1  0
  4  9  2  0
  5  4  1  0
  6  5  2  0
  6  7  1  0
  7  8  2  0
  8  9  1  0
 10  2  1  0
 11 10  2  0
 12 10  1  0
 13 18  1  0
 13 12  1  0
 13 14  1  1
 15 14  1  0
 16 15  1  0
 17 16  2  0
 18 19  2  0
 20 16  1  0
 22 21  1  6
 22 24  1  0
 23 22  1  0
 24 25  1  6
 25 18  1  0
 26 28  1  0
 26 24  1  0
 27 26  2  0
M  END
$$$$
