VQM.pdb
     RDKit          3D

 25 24  0  0  1  0  0  0  0  0999 V2000
    8.5813  -13.1370   18.1124 C   0  0  0  0  0  0  0  0  0  0  0  0
    7.8994  -13.8192   19.2658 C   0  0  2  0  0  0  0  0  0  0  0  0
    6.9025  -12.8660   19.8628 C   0  0  0  0  0  0  0  0  0  0  0  0
    8.8926  -14.2679   20.3305 C   0  0  2  0  0  0  0  0  0  0  0  0
    9.8933  -15.1349   19.7614 N   0  0  0  0  0  0  0  0  0  0  0  0
    8.1560  -15.0014   21.4091 C   0  0  0  0  0  0  0  0  0  0  0  0
    7.1740  -14.4180   21.9333 O   0  0  0  0  0  0  0  0  0  0  0  0
    5.1531  -18.8521   23.4915 N   0  0  0  0  0  0  0  0  0  0  0  0
    5.3129  -18.9317   22.0898 C   0  0  0  0  0  0  0  0  0  0  0  0
    4.3079  -19.0294   21.3653 O   0  0  0  0  0  0  0  0  0  0  0  0
    6.6559  -18.8919   21.5173 C   0  0  0  0  0  0  0  0  0  0  0  0
    7.7702  -18.4305   22.3528 C   0  0  0  0  0  0  0  0  0  0  0  0
    7.8733  -17.0569   22.8509 C   0  0  2  0  0  0  0  0  0  0  0  0
    8.5858  -16.2944   21.7868 N   0  0  0  0  0  0  0  0  0  0  0  0
    8.5533  -16.7744   24.1030 C   0  0  0  0  0  0  0  0  0  0  0  0
    8.5135  -17.6206   25.0705 O   0  0  0  0  0  0  0  0  0  0  0  0
    6.3931  -11.1788   26.5345 C   0  0  0  0  0  0  0  0  0  0  0  0
    6.5105  -12.6320   27.5764 S   0  0  0  0  0  0  0  0  0  0  0  0
    7.9349  -13.6517   27.2659 C   0  0  0  0  0  0  0  0  0  0  0  0
    8.0664  -14.2176   25.8999 C   0  0  0  0  0  0  0  0  0  0  0  0
    9.3398  -15.0723   25.7652 C   0  0  2  0  0  0  0  0  0  0  0  0
    9.3196  -15.6061   24.4104 N   0  0  0  0  0  0  0  0  0  0  0  0
    9.3919  -16.1018   26.8073 C   0  0  0  0  0  0  0  0  0  0  0  0
    8.7388  -17.1487   26.7304 O   0  0  0  0  0  0  0  0  0  0  0  0
   10.2018  -15.8802   27.9011 O   0  0  0  0  0  0  0  0  0  0  0  0
  2  1  1  6
  2  3  1  0
  4  6  1  0
  4  2  1  0
  4  5  1  6
  6  7  2  0
  6 14  1  0
  9  8  1  0
 10  9  2  0
 11  9  1  0
 12 11  1  0
 13 12  1  6
 14 13  1  0
 15 16  2  0
 15 13  1  0
 18 17  1  0
 19 18  1  0
 19 20  1  0
 21 20  1  1
 21 23  1  0
 21 22  1  0
 22 15  1  0
 23 25  1  0
 24 23  2  0
M  END
$$$$
