VQM.pdb
     RDKit          3D

 25 24  0  0  1  0  0  0  0  0999 V2000
    7.3111  -12.3804   18.9340 C   0  0  0  0  0  0  0  0  0  0  0  0
    7.5505  -13.3744   20.0365 C   0  0  2  0  0  0  0  0  0  0  0  0
    8.6345  -12.8429   20.9317 C   0  0  0  0  0  0  0  0  0  0  0  0
    7.9468  -14.7420   19.4947 C   0  0  2  0  0  0  0  0  0  0  0  0
    6.9653  -15.2223   18.5550 N   0  0  0  0  0  0  0  0  0  0  0  0
    8.0560  -15.7075   20.6349 C   0  0  0  0  0  0  0  0  0  0  0  0
    6.9834  -16.1187   21.1445 O   0  0  0  0  0  0  0  0  0  0  0  0
   11.7673  -21.0643   21.3008 N   0  0  0  0  0  0  0  0  0  0  0  0
   11.3061  -20.0434   20.4397 C   0  0  0  0  0  0  0  0  0  0  0  0
   11.8369  -19.8985   19.3253 O   0  0  0  0  0  0  0  0  0  0  0  0
   10.2101  -19.1805   20.8723 C   0  0  0  0  0  0  0  0  0  0  0  0
   10.5068  -18.0417   21.7485 C   0  0  0  0  0  0  0  0  0  0  0  0
    9.4825  -17.0938   22.1930 C   0  0  2  0  0  0  0  0  0  0  0  0
    9.3353  -16.1096   21.0834 N   0  0  0  0  0  0  0  0  0  0  0  0
    9.6629  -16.3308   23.4158 C   0  0  0  0  0  0  0  0  0  0  0  0
   10.1669  -15.1484   23.3768 O   0  0  0  0  0  0  0  0  0  0  0  0
    6.4812  -11.1553   26.7515 C   0  0  0  0  0  0  0  0  0  0  0  0
    7.6859  -12.2615   26.0193 S   0  0  0  0  0  0  0  0  0  0  0  0
    7.3852  -13.9885   26.3234 C   0  0  0  0  0  0  0  0  0  0  0  0
    7.8532  -14.9409   25.2855 C   0  0  0  0  0  0  0  0  0  0  0  0
    9.0550  -15.7663   25.7802 C   0  0  2  0  0  0  0  0  0  0  0  0
    9.3177  -16.7503   24.7393 N   0  0  0  0  0  0  0  0  0  0  0  0
    8.7813  -16.3532   27.0952 C   0  0  0  0  0  0  0  0  0  0  0  0
    8.3712  -17.5122   27.2253 O   0  0  0  0  0  0  0  0  0  0  0  0
    8.9949  -15.5742   28.2127 O   0  0  0  0  0  0  0  0  0  0  0  0
  2  1  1  6
  2  3  1  0
  4  6  1  0
  4  2  1  0
  4  5  1  6
  6  7  2  0
  6 14  1  0
  9  8  1  0
 10  9  2  0
 11  9  1  0
 12 11  1  0
 13 12  1  6
 14 13  1  0
 15 16  2  0
 15 13  1  0
 18 17  1  0
 19 18  1  0
 19 20  1  0
 21 20  1  6
 21 23  1  0
 21 22  1  0
 22 15  1  0
 23 25  1  0
 24 23  2  0
M  END
$$$$
