VQM.pdb
     RDKit          3D

 25 24  0  0  1  0  0  0  0  0999 V2000
    8.3568  -12.9509   17.6681 C   0  0  0  0  0  0  0  0  0  0  0  0
    7.9331  -13.7588   18.8634 C   0  0  2  0  0  0  0  0  0  0  0  0
    6.9487  -12.9507   19.6615 C   0  0  0  0  0  0  0  0  0  0  0  0
    9.1185  -14.1468   19.7383 C   0  0  2  0  0  0  0  0  0  0  0  0
   10.0365  -14.9860   19.0104 N   0  0  0  0  0  0  0  0  0  0  0  0
    8.6179  -14.8860   20.9413 C   0  0  0  0  0  0  0  0  0  0  0  0
    7.7547  -14.3110   21.6509 O   0  0  0  0  0  0  0  0  0  0  0  0
   10.3762  -19.9345   19.7514 N   0  0  0  0  0  0  0  0  0  0  0  0
   10.6576  -19.9560   21.1360 C   0  0  0  0  0  0  0  0  0  0  0  0
   11.1174  -20.9900   21.6497 O   0  0  0  0  0  0  0  0  0  0  0  0
   10.4087  -18.7606   21.9374 C   0  0  0  0  0  0  0  0  0  0  0  0
    9.0234  -18.3330   22.1626 C   0  0  0  0  0  0  0  0  0  0  0  0
    8.6540  -16.9382   22.4147 C   0  0  2  0  0  0  0  0  0  0  0  0
    9.1259  -16.1747   21.2248 N   0  0  0  0  0  0  0  0  0  0  0  0
    9.1511  -16.2432   23.5894 C   0  0  0  0  0  0  0  0  0  0  0  0
   10.3678  -15.8294   23.6344 O   0  0  0  0  0  0  0  0  0  0  0  0
    6.4771  -11.2770   27.3030 C   0  0  0  0  0  0  0  0  0  0  0  0
    6.0525  -12.3813   25.9571 S   0  0  0  0  0  0  0  0  0  0  0  0
    7.3713  -13.4571   25.4388 C   0  0  0  0  0  0  0  0  0  0  0  0
    7.9813  -14.3174   26.4834 C   0  0  0  0  0  0  0  0  0  0  0  0
    9.0499  -15.2525   25.8887 C   0  0  2  0  0  0  0  0  0  0  0  0
    8.4081  -15.9309   24.7713 N   0  0  0  0  0  0  0  0  0  0  0  0
    9.5772  -16.1618   26.9104 C   0  0  0  0  0  0  0  0  0  0  0  0
    9.3412  -17.3752   26.8953 O   0  0  0  0  0  0  0  0  0  0  0  0
   10.3610  -15.6302   27.9126 O   0  0  0  0  0  0  0  0  0  0  0  0
  2  1  1  6
  2  3  1  0
  4  6  1  0
  4  2  1  0
  4  5  1  6
  6  7  2  0
  6 14  1  0
  9  8  1  0
 10  9  2  0
 11  9  1  0
 12 11  1  0
 13 12  1  6
 14 13  1  0
 15 16  2  0
 15 13  1  0
 18 17  1  0
 19 18  1  0
 19 20  1  0
 21 20  1  1
 21 23  1  0
 21 22  1  0
 22 15  1  0
 23 25  1  0
 24 23  2  0
M  END
$$$$
