VQM.pdb
     RDKit          3D

 25 24  0  0  1  0  0  0  0  0999 V2000
    7.7839  -12.4763   18.5509 C   0  0  0  0  0  0  0  0  0  0  0  0
    7.7958  -13.3839   19.7497 C   0  0  2  0  0  0  0  0  0  0  0  0
    8.6298  -12.7449   20.8243 C   0  0  0  0  0  0  0  0  0  0  0  0
    8.3474  -14.7639   19.4142 C   0  0  2  0  0  0  0  0  0  0  0  0
    7.5695  -15.3846   18.3718 N   0  0  0  0  0  0  0  0  0  0  0  0
    8.3040  -15.6204   20.6425 C   0  0  0  0  0  0  0  0  0  0  0  0
    7.1701  -15.9307   21.0869 O   0  0  0  0  0  0  0  0  0  0  0  0
   12.5718  -19.8487   21.6812 N   0  0  0  0  0  0  0  0  0  0  0  0
   11.9903  -19.8395   22.9689 C   0  0  0  0  0  0  0  0  0  0  0  0
   12.3770  -20.6590   23.8194 O   0  0  0  0  0  0  0  0  0  0  0  0
   10.9493  -18.8631   23.2792 C   0  0  0  0  0  0  0  0  0  0  0  0
   10.5600  -17.8903   22.2523 C   0  0  0  0  0  0  0  0  0  0  0  0
    9.5110  -16.8900   22.4632 C   0  0  2  0  0  0  0  0  0  0  0  0
    9.5154  -16.0372   21.2409 N   0  0  0  0  0  0  0  0  0  0  0  0
    9.5634  -15.9944   23.6056 C   0  0  0  0  0  0  0  0  0  0  0  0
   10.4722  -15.0878   23.6807 O   0  0  0  0  0  0  0  0  0  0  0  0
    6.5731  -10.8539   26.7636 C   0  0  0  0  0  0  0  0  0  0  0  0
    6.2434  -12.0747   25.4939 S   0  0  0  0  0  0  0  0  0  0  0  0
    7.5714  -13.2241   25.2101 C   0  0  0  0  0  0  0  0  0  0  0  0
    7.6976  -14.3493   26.1700 C   0  0  0  0  0  0  0  0  0  0  0  0
    8.9646  -15.1808   25.8987 C   0  0  2  0  0  0  0  0  0  0  0  0
    8.6683  -15.9854   24.7216 N   0  0  0  0  0  0  0  0  0  0  0  0
    9.3359  -15.9691   27.0774 C   0  0  0  0  0  0  0  0  0  0  0  0
    9.1521  -17.1902   27.1361 O   0  0  0  0  0  0  0  0  0  0  0  0
    9.9089  -15.3119   28.1457 O   0  0  0  0  0  0  0  0  0  0  0  0
  2  1  1  6
  2  3  1  0
  4  6  1  0
  4  2  1  0
  4  5  1  6
  6  7  2  0
  6 14  1  0
  9  8  1  0
 10  9  2  0
 11  9  1  0
 12 11  1  0
 13 12  1  6
 14 13  1  0
 15 16  2  0
 15 13  1  0
 18 17  1  0
 19 18  1  0
 19 20  1  0
 21 20  1  1
 21 23  1  0
 21 22  1  0
 22 15  1  0
 23 25  1  0
 24 23  2  0
M  END
$$$$
