VQM.pdb
     RDKit          3D

 25 24  0  0  1  0  0  0  0  0999 V2000
    7.3486  -14.6133   17.9675 C   0  0  0  0  0  0  0  0  0  0  0  0
    7.7470  -13.4204   18.7916 C   0  0  2  0  0  0  0  0  0  0  0  0
    8.0267  -12.2712   17.8644 C   0  0  0  0  0  0  0  0  0  0  0  0
    8.9719  -13.7053   19.6516 C   0  0  2  0  0  0  0  0  0  0  0  0
   10.0372  -14.2592   18.8544 N   0  0  0  0  0  0  0  0  0  0  0  0
    8.5993  -14.6792   20.7272 C   0  0  0  0  0  0  0  0  0  0  0  0
    7.6394  -14.3684   21.4764 O   0  0  0  0  0  0  0  0  0  0  0  0
    8.4479  -20.9664   20.9760 N   0  0  0  0  0  0  0  0  0  0  0  0
    9.4512  -20.2476   20.2881 C   0  0  0  0  0  0  0  0  0  0  0  0
   10.3314  -20.8688   19.6686 O   0  0  0  0  0  0  0  0  0  0  0  0
    9.4323  -18.7874   20.3125 C   0  0  0  0  0  0  0  0  0  0  0  0
    9.6954  -18.0954   21.5791 C   0  0  0  0  0  0  0  0  0  0  0  0
    9.0302  -16.8455   21.9542 C   0  0  2  0  0  0  0  0  0  0  0  0
    9.3272  -15.8847   20.8541 N   0  0  0  0  0  0  0  0  0  0  0  0
    9.3607  -16.1781   23.2012 C   0  0  0  0  0  0  0  0  0  0  0  0
   10.5814  -15.8831   23.4778 O   0  0  0  0  0  0  0  0  0  0  0  0
    6.5805  -11.1917   26.7682 C   0  0  0  0  0  0  0  0  0  0  0  0
    7.1080  -12.4385   27.9423 S   0  0  0  0  0  0  0  0  0  0  0  0
    8.2229  -13.6555   27.2781 C   0  0  0  0  0  0  0  0  0  0  0  0
    7.8931  -14.2030   25.9383 C   0  0  0  0  0  0  0  0  0  0  0  0
    8.9279  -15.2503   25.4883 C   0  0  2  0  0  0  0  0  0  0  0  0
    8.4409  -15.7711   24.2185 N   0  0  0  0  0  0  0  0  0  0  0  0
    9.1151  -16.2771   26.5175 C   0  0  0  0  0  0  0  0  0  0  0  0
    8.5676  -17.3834   26.4496 O   0  0  0  0  0  0  0  0  0  0  0  0
    9.9328  -15.9836   27.5883 O   0  0  0  0  0  0  0  0  0  0  0  0
  2  1  1  6
  2  3  1  0
  4  6  1  0
  4  2  1  0
  4  5  1  6
  6  7  2  0
  6 14  1  0
  9  8  1  0
 10  9  2  0
 11  9  1  0
 12 11  1  0
 13 12  1  6
 14 13  1  0
 15 16  2  0
 15 13  1  0
 18 17  1  0
 19 18  1  0
 19 20  1  0
 21 20  1  1
 21 23  1  0
 21 22  1  0
 22 15  1  0
 23 25  1  0
 24 23  2  0
M  END
$$$$
