VQM.pdb
     RDKit          3D

 25 24  0  0  1  0  0  0  0  0999 V2000
    7.7207  -12.6768   18.9481 C   0  0  0  0  0  0  0  0  0  0  0  0
    7.7484  -13.4645   20.2286 C   0  0  2  0  0  0  0  0  0  0  0  0
    8.6311  -12.7476   21.2114 C   0  0  0  0  0  0  0  0  0  0  0  0
    8.2556  -14.8848   20.0131 C   0  0  2  0  0  0  0  0  0  0  0  0
    7.4010  -15.5982   19.0978 N   0  0  0  0  0  0  0  0  0  0  0  0
    8.2807  -15.6006   21.3288 C   0  0  0  0  0  0  0  0  0  0  0  0
    7.1769  -15.9683   21.8041 O   0  0  0  0  0  0  0  0  0  0  0  0
   12.1649  -19.9653   22.1665 N   0  0  0  0  0  0  0  0  0  0  0  0
   11.8306  -19.8051   23.5300 C   0  0  0  0  0  0  0  0  0  0  0  0
   12.3192  -20.5762   24.3732 O   0  0  0  0  0  0  0  0  0  0  0  0
   10.9212  -18.7325   23.9246 C   0  0  0  0  0  0  0  0  0  0  0  0
   10.5415  -17.7224   22.9305 C   0  0  0  0  0  0  0  0  0  0  0  0
    9.5963  -16.6411   23.2184 C   0  0  2  0  0  0  0  0  0  0  0  0
    9.5197  -15.8297   21.9705 N   0  0  0  0  0  0  0  0  0  0  0  0
    9.8422  -15.7165   24.3114 C   0  0  0  0  0  0  0  0  0  0  0  0
   10.7858  -14.8468   24.2282 O   0  0  0  0  0  0  0  0  0  0  0  0
    5.1674  -12.4833   26.3356 C   0  0  0  0  0  0  0  0  0  0  0  0
    6.7297  -12.0512   27.0995 S   0  0  0  0  0  0  0  0  0  0  0  0
    8.1218  -12.9972   26.5229 C   0  0  0  0  0  0  0  0  0  0  0  0
    8.5090  -14.1784   27.3344 C   0  0  0  0  0  0  0  0  0  0  0  0
    9.6782  -14.9449   26.6897 C   0  0  2  0  0  0  0  0  0  0  0  0
    9.1139  -15.6385   25.5402 N   0  0  0  0  0  0  0  0  0  0  0  0
   10.3206  -15.8342   27.6618 C   0  0  0  0  0  0  0  0  0  0  0  0
   10.2293  -17.0648   27.5876 O   0  0  0  0  0  0  0  0  0  0  0  0
   11.0476  -15.2631   28.6850 O   0  0  0  0  0  0  0  0  0  0  0  0
  2  1  1  6
  2  3  1  0
  4  6  1  0
  4  2  1  0
  4  5  1  6
  6  7  2  0
  6 14  1  0
  9  8  1  0
 10  9  2  0
 11  9  1  0
 12 11  1  0
 13 12  1  6
 14 13  1  0
 15 16  2  0
 15 13  1  0
 18 17  1  0
 19 18  1  0
 19 20  1  0
 21 20  1  1
 21 23  1  0
 21 22  1  0
 22 15  1  0
 23 25  1  0
 24 23  2  0
M  END
$$$$
