VQM.pdb
     RDKit          3D

 25 24  0  0  1  0  0  0  0  0999 V2000
    7.2501  -12.9601   20.3729 C   0  0  0  0  0  0  0  0  0  0  0  0
    8.5674  -13.2389   19.7037 C   0  0  2  0  0  0  0  0  0  0  0  0
    8.7167  -12.3053   18.5354 C   0  0  0  0  0  0  0  0  0  0  0  0
    8.6726  -14.6837   19.2321 C   0  0  2  0  0  0  0  0  0  0  0  0
    7.7040  -14.9551   18.2000 N   0  0  0  0  0  0  0  0  0  0  0  0
    8.4284  -15.5971   20.3942 C   0  0  0  0  0  0  0  0  0  0  0  0
    7.2756  -16.0837   20.5102 O   0  0  0  0  0  0  0  0  0  0  0  0
   12.3390  -19.7875   22.1779 N   0  0  0  0  0  0  0  0  0  0  0  0
   12.2053  -18.9400   21.0553 C   0  0  0  0  0  0  0  0  0  0  0  0
   13.0404  -19.0061   20.1373 O   0  0  0  0  0  0  0  0  0  0  0  0
   11.0846  -18.0055   20.9911 C   0  0  0  0  0  0  0  0  0  0  0  0
   10.0978  -18.0052   22.0768 C   0  0  0  0  0  0  0  0  0  0  0  0
    9.2977  -16.8279   22.4223 C   0  0  2  0  0  0  0  0  0  0  0  0
    9.4830  -15.8698   21.2957 N   0  0  0  0  0  0  0  0  0  0  0  0
    9.5543  -16.0946   23.6496 C   0  0  0  0  0  0  0  0  0  0  0  0
   10.5744  -15.3172   23.7420 O   0  0  0  0  0  0  0  0  0  0  0  0
    6.1635  -11.7060   27.3727 C   0  0  0  0  0  0  0  0  0  0  0  0
    5.9146  -12.9100   26.0689 S   0  0  0  0  0  0  0  0  0  0  0  0
    7.3818  -13.7938   25.5882 C   0  0  0  0  0  0  0  0  0  0  0  0
    7.9735  -14.7060   26.5989 C   0  0  0  0  0  0  0  0  0  0  0  0
    9.2094  -15.4363   26.0426 C   0  0  2  0  0  0  0  0  0  0  0  0
    8.7590  -16.1205   24.8384 N   0  0  0  0  0  0  0  0  0  0  0  0
    9.7876  -16.3294   27.0507 C   0  0  0  0  0  0  0  0  0  0  0  0
   10.2860  -15.9028   28.0986 O   0  0  0  0  0  0  0  0  0  0  0  0
    9.7654  -17.6865   26.8073 O   0  0  0  0  0  0  0  0  0  0  0  0
  2  1  1  6
  2  3  1  0
  4  6  1  0
  4  2  1  0
  4  5  1  6
  6  7  2  0
  6 14  1  0
  9  8  1  0
 10  9  2  0
 11  9  1  0
 12 11  1  0
 13 12  1  6
 14 13  1  0
 15 16  2  0
 15 13  1  0
 18 17  1  0
 19 18  1  0
 19 20  1  0
 21 20  1  1
 21 23  1  0
 21 22  1  0
 22 15  1  0
 23 25  1  0
 24 23  2  0
M  END
$$$$
