IKN.pdb
     RDKit          3D

 26 25  0  0  1  0  0  0  0  0999 V2000
   26.7308  -19.3316   -7.5646 C   0  0  0  0  0  0  0  0  0  0  0  0
   26.9683  -20.5305   -8.4503 C   0  0  0  0  0  0  0  0  0  0  0  0
   26.2816  -20.2726   -9.7852 C   0  0  2  0  0  0  0  0  0  0  0  0
   24.8026  -20.2855   -9.5624 C   0  0  0  0  0  0  0  0  0  0  0  0
   26.6749  -21.4067  -10.7021 C   0  0  2  0  0  0  0  0  0  0  0  0
   28.1136  -21.3824  -10.8252 N   0  0  0  0  0  0  0  0  0  0  0  0
   25.9943  -21.2991  -12.0156 C   0  0  0  0  0  0  0  0  0  0  0  0
   26.4512  -20.4321  -12.8138 O   0  0  0  0  0  0  0  0  0  0  0  0
   24.9030  -22.0870  -12.4036 N   0  0  0  0  0  0  0  0  0  0  0  0
   24.4264  -22.0645  -13.7928 C   0  0  1  0  0  0  0  0  0  0  0  0
   23.9235  -23.4543  -14.0470 C   0  0  0  0  0  0  0  0  0  0  0  0
   23.2409  -23.7007  -15.3384 C   0  0  0  0  0  0  0  0  0  0  0  0
   22.8541  -25.1921  -15.3354 C   0  0  0  0  0  0  0  0  0  0  0  0
   22.1495  -25.5539  -16.6197 C   0  0  0  0  0  0  0  0  0  0  0  0
   21.8917  -26.9806  -16.5741 N   0  0  0  0  0  0  0  0  0  0  0  0
   23.3885  -21.0175  -13.8630 C   0  0  0  0  0  0  0  0  0  0  0  0
   22.6820  -20.7255  -12.8489 O   0  0  0  0  0  0  0  0  0  0  0  0
   20.1768  -17.3195  -15.3037 N   0  0  0  0  0  0  0  0  0  0  0  0
   21.2945  -17.2442  -16.1885 C   0  0  0  0  0  0  0  0  0  0  0  0
   21.3598  -16.2841  -16.9877 O   0  0  0  0  0  0  0  0  0  0  0  0
   22.3290  -18.2803  -16.1423 C   0  0  0  0  0  0  0  0  0  0  0  0
   22.0663  -19.2748  -15.0476 C   0  0  2  0  0  0  0  0  0  0  0  0
   23.1130  -20.2770  -15.0354 N   0  0  0  0  0  0  0  0  0  0  0  0
   20.7385  -19.8936  -15.3298 C   0  0  0  0  0  0  0  0  0  0  0  0
   19.6372  -19.5839  -14.5710 O   0  0  0  0  0  0  0  0  0  0  0  0
   20.6537  -20.7082  -16.2827 O   0  0  0  0  0  0  0  0  0  0  0  0
  1  2  1  0
  3  5  1  0
  3  2  1  0
  3  4  1  1
  5  6  1  6
  7  9  1  0
  7  5  1  0
  8  7  2  0
 10  9  1  0
 11 12  1  0
 10 11  1  1
 12 13  1  0
 13 14  1  0
 14 15  1  0
 16 23  1  0
 16 10  1  0
 17 16  2  0
 18 19  1  0
 19 20  2  0
 19 21  1  0
 22 21  1  6
 22 23  1  0
 22 24  1  0
 24 25  1  0
 26 24  2  0
M  END
$$$$
