IKN.pdb
     RDKit          3D

 26 25  0  0  1  0  0  0  0  0999 V2000
   24.2163  -18.5649  -16.0021 C   0  0  0  0  0  0  0  0  0  0  0  0
   23.5490  -17.3796  -16.6563 C   0  0  0  0  0  0  0  0  0  0  0  0
   24.1243  -16.1135  -16.0348 C   0  0  2  0  0  0  0  0  0  0  0  0
   23.9025  -16.1736  -14.5569 C   0  0  0  0  0  0  0  0  0  0  0  0
   23.3580  -14.9533  -16.6248 C   0  0  2  0  0  0  0  0  0  0  0  0
   23.5156  -15.0170  -18.0588 N   0  0  0  0  0  0  0  0  0  0  0  0
   23.8202  -13.6605  -16.0632 C   0  0  0  0  0  0  0  0  0  0  0  0
   23.6655  -13.5031  -14.8187 O   0  0  0  0  0  0  0  0  0  0  0  0
   24.4022  -12.6362  -16.8211 N   0  0  0  0  0  0  0  0  0  0  0  0
   24.7200  -11.3424  -16.2026 C   0  0  1  0  0  0  0  0  0  0  0  0
   25.9334  -10.8553  -16.9371 C   0  0  0  0  0  0  0  0  0  0  0  0
   27.2255  -11.5028  -16.6125 C   0  0  0  0  0  0  0  0  0  0  0  0
   28.2838  -10.7957  -17.4808 C   0  0  0  0  0  0  0  0  0  0  0  0
   29.6365  -11.4343  -17.2832 C   0  0  0  0  0  0  0  0  0  0  0  0
   30.5668  -10.7318  -18.1464 N   0  0  0  0  0  0  0  0  0  0  0  0
   23.5242  -10.4933  -16.3688 C   0  0  0  0  0  0  0  0  0  0  0  0
   22.7638  -10.6218  -17.3778 O   0  0  0  0  0  0  0  0  0  0  0  0
   19.4689   -7.5511  -15.8047 N   0  0  0  0  0  0  0  0  0  0  0  0
   19.4687   -8.9663  -15.6169 C   0  0  0  0  0  0  0  0  0  0  0  0
   18.3697   -9.5544  -15.5108 O   0  0  0  0  0  0  0  0  0  0  0  0
   20.7401   -9.6910  -15.5531 C   0  0  0  0  0  0  0  0  0  0  0  0
   21.9133   -8.7549  -15.6129 C   0  0  2  0  0  0  0  0  0  0  0  0
   23.1436   -9.5002  -15.4372 N   0  0  0  0  0  0  0  0  0  0  0  0
   21.7324   -7.7581  -14.5177 C   0  0  0  0  0  0  0  0  0  0  0  0
   21.0263   -6.5992  -14.7243 O   0  0  0  0  0  0  0  0  0  0  0  0
   22.2446   -8.0074  -13.3977 O   0  0  0  0  0  0  0  0  0  0  0  0
  1  2  1  0
  3  5  1  0
  3  2  1  0
  3  4  1  1
  5  6  1  6
  7  9  1  0
  7  5  1  0
  8  7  2  0
 10  9  1  0
 11 12  1  0
 10 11  1  6
 12 13  1  0
 13 14  1  0
 14 15  1  0
 16 23  1  0
 16 10  1  0
 17 16  2  0
 18 19  1  0
 19 20  2  0
 19 21  1  0
 22 21  1  1
 22 23  1  0
 22 24  1  0
 24 25  1  0
 26 24  2  0
M  END
$$$$
