IKN.pdb
     RDKit          3D

 26 25  0  0  1  0  0  0  0  0999 V2000
   20.7111  -13.7763  -17.6083 C   0  0  0  0  0  0  0  0  0  0  0  0
   19.5561  -13.7171  -16.6383 C   0  0  0  0  0  0  0  0  0  0  0  0
   19.1132  -12.2644  -16.5222 C   0  0  2  0  0  0  0  0  0  0  0  0
   20.2474  -11.4720  -15.9538 C   0  0  0  0  0  0  0  0  0  0  0  0
   17.9407  -12.2427  -15.5702 C   0  0  2  0  0  0  0  0  0  0  0  0
   17.0155  -13.2638  -16.0024 N   0  0  0  0  0  0  0  0  0  0  0  0
   17.3140  -10.8993  -15.5172 C   0  0  0  0  0  0  0  0  0  0  0  0
   16.8520  -10.4534  -16.6059 O   0  0  0  0  0  0  0  0  0  0  0  0
   17.2119  -10.1237  -14.3552 N   0  0  0  0  0  0  0  0  0  0  0  0
   16.6190   -8.7808  -14.4074 C   0  0  1  0  0  0  0  0  0  0  0  0
   15.3651   -8.8844  -13.5914 C   0  0  0  0  0  0  0  0  0  0  0  0
   14.1327   -9.3073  -14.2961 C   0  0  0  0  0  0  0  0  0  0  0  0
   13.0373   -9.3986  -13.2165 C   0  0  0  0  0  0  0  0  0  0  0  0
   11.7568   -9.9301  -13.8119 C   0  0  0  0  0  0  0  0  0  0  0  0
   10.8126  -10.0799  -12.7211 N   0  0  0  0  0  0  0  0  0  0  0  0
   17.6293   -7.8550  -13.8591 C   0  0  0  0  0  0  0  0  0  0  0  0
   18.1689   -8.0675  -12.7292 O   0  0  0  0  0  0  0  0  0  0  0  0
   22.6865   -5.7392  -13.7079 N   0  0  0  0  0  0  0  0  0  0  0  0
   21.3820   -5.7744  -13.1293 C   0  0  0  0  0  0  0  0  0  0  0  0
   21.1632   -5.0866  -12.1076 O   0  0  0  0  0  0  0  0  0  0  0  0
   20.3397   -6.6051  -13.7370 C   0  0  0  0  0  0  0  0  0  0  0  0
   19.0713   -5.8300  -13.9527 C   0  0  2  0  0  0  0  0  0  0  0  0
   18.0638   -6.6926  -14.5366 N   0  0  0  0  0  0  0  0  0  0  0  0
   19.4012   -4.6994  -14.8685 C   0  0  0  0  0  0  0  0  0  0  0  0
   20.1070   -3.6097  -14.4226 O   0  0  0  0  0  0  0  0  0  0  0  0
   19.0154   -4.7703  -16.0621 O   0  0  0  0  0  0  0  0  0  0  0  0
  1  2  1  0
  3  5  1  0
  3  2  1  0
  3  4  1  1
  5  6  1  6
  7  9  1  0
  7  5  1  0
  8  7  2  0
 10  9  1  0
 11 12  1  0
 10 11  1  1
 12 13  1  0
 13 14  1  0
 14 15  1  0
 16 23  1  0
 16 10  1  0
 17 16  2  0
 18 19  1  0
 19 20  2  0
 19 21  1  0
 22 21  1  6
 22 23  1  0
 22 24  1  0
 24 25  1  0
 26 24  2  0
M  END
$$$$
