IKN.pdb
     RDKit          3D

 26 25  0  0  1  0  0  0  0  0999 V2000
   28.3877  -19.1243   -6.4759 C   0  0  0  0  0  0  0  0  0  0  0  0
   27.3789  -20.0904   -7.0478 C   0  0  0  0  0  0  0  0  0  0  0  0
   26.9312  -19.5562   -8.4022 C   0  0  2  0  0  0  0  0  0  0  0  0
   26.1420  -18.3060   -8.1760 C   0  0  0  0  0  0  0  0  0  0  0  0
   26.0507  -20.6177   -9.0181 C   0  0  2  0  0  0  0  0  0  0  0  0
   26.8212  -21.8378   -9.0744 N   0  0  0  0  0  0  0  0  0  0  0  0
   25.5564  -20.2005  -10.3529 C   0  0  0  0  0  0  0  0  0  0  0  0
   24.7251  -19.2485  -10.3700 O   0  0  0  0  0  0  0  0  0  0  0  0
   25.9534  -20.7914  -11.5594 N   0  0  0  0  0  0  0  0  0  0  0  0
   25.4131  -20.3084  -12.8370 C   0  0  1  0  0  0  0  0  0  0  0  0
   26.4570  -20.6652  -13.8529 C   0  0  0  0  0  0  0  0  0  0  0  0
   26.1481  -20.3716  -15.2716 C   0  0  0  0  0  0  0  0  0  0  0  0
   27.3738  -20.8415  -16.0782 C   0  0  0  0  0  0  0  0  0  0  0  0
   27.4081  -22.3483  -16.1504 C   0  0  0  0  0  0  0  0  0  0  0  0
   28.5374  -22.7067  -16.9873 N   0  0  0  0  0  0  0  0  0  0  0  0
   24.1175  -20.9890  -13.0284 C   0  0  0  0  0  0  0  0  0  0  0  0
   23.7475  -21.9247  -12.2535 O   0  0  0  0  0  0  0  0  0  0  0  0
   19.2807  -21.4938  -11.4333 N   0  0  0  0  0  0  0  0  0  0  0  0
   19.7759  -21.0221  -12.6863 C   0  0  0  0  0  0  0  0  0  0  0  0
   19.0036  -21.0182  -13.6704 O   0  0  0  0  0  0  0  0  0  0  0  0
   21.1613  -20.5582  -12.7920 C   0  0  0  0  0  0  0  0  0  0  0  0
   21.8370  -21.1100  -14.0148 C   0  0  2  0  0  0  0  0  0  0  0  0
   23.2120  -20.6550  -14.0616 N   0  0  0  0  0  0  0  0  0  0  0  0
   21.0714  -20.6166  -15.1964 C   0  0  0  0  0  0  0  0  0  0  0  0
   20.4426  -21.4905  -16.0482 O   0  0  0  0  0  0  0  0  0  0  0  0
   21.0166  -19.3767  -15.3927 O   0  0  0  0  0  0  0  0  0  0  0  0
  1  2  1  0
  3  5  1  0
  3  2  1  0
  3  4  1  1
  5  6  1  6
  7  9  1  0
  7  5  1  0
  8  7  2  0
 10  9  1  0
 11 12  1  0
 10 11  1  6
 12 13  1  0
 13 14  1  0
 14 15  1  0
 16 23  1  0
 16 10  1  0
 17 16  2  0
 18 19  1  0
 19 20  2  0
 19 21  1  0
 22 21  1  1
 22 23  1  0
 22 24  1  0
 24 25  1  0
 26 24  2  0
M  END
$$$$
