RIV.pdb
     RDKit          3D

 27 26  0  0  1  0  0  0  0  0999 V2000
    7.5940  -18.2561   17.7628 N   0  0  0  0  0  0  0  0  0  0  0  0
    7.2066  -19.6125   17.9403 C   0  0  0  0  0  0  0  0  0  0  0  0
    6.6524  -20.2136   16.9268 N   0  0  0  0  0  0  0  0  0  0  0  0
    7.4226  -20.2667   19.1754 N   0  0  0  0  0  0  0  0  0  0  0  0
    7.9187  -19.5671   20.3140 C   0  0  0  0  0  0  0  0  0  0  0  0
    7.8820  -18.0648   20.1424 C   0  0  0  0  0  0  0  0  0  0  0  0
    8.3821  -17.3397   21.3617 C   0  0  0  0  0  0  0  0  0  0  0  0
    8.2460  -15.8429   21.2446 C   0  0  2  0  0  0  0  0  0  0  0  0
    9.0489  -15.2863   20.1775 N   0  0  0  0  0  0  0  0  0  0  0  0
    8.6401  -15.2133   22.5128 C   0  0  0  0  0  0  0  0  0  0  0  0
    9.8570  -15.0646   22.7877 O   0  0  0  0  0  0  0  0  0  0  0  0
    6.4270  -21.2148   16.9243 C   0  0  0  0  0  0  0  0  0  0  0  0
    6.7002  -11.5130   27.0646 C   0  0  0  0  0  0  0  0  0  0  0  0
    7.6880  -12.4165   26.4134 C   0  0  2  0  0  0  0  0  0  0  0  0
    7.1333  -13.1851   25.2460 C   0  0  0  0  0  0  0  0  0  0  0  0
    5.8256  -13.8442   25.5390 C   0  0  2  0  0  0  0  0  0  0  0  0
    8.1675  -14.1216   24.6996 N   0  0  0  0  0  0  0  0  0  0  0  0
    7.7157  -14.7436   23.4854 C   0  0  0  0  0  0  0  0  0  0  0  0
    8.6099  -15.1113   25.7114 O   0  0  0  0  0  0  0  0  0  0  0  0
    7.8023  -16.0228   26.0179 C   0  0  0  0  0  0  0  0  0  0  0  0
   12.4016  -15.0210   27.8014 C   0  0  1  0  0  0  0  0  0  0  0  0
   11.8528  -16.2898   27.1897 C   0  0  0  0  0  0  0  0  0  0  0  0
   12.4101  -16.4850   25.8125 C   0  0  1  0  0  0  0  0  0  0  0  0
   10.3452  -16.1859   27.2002 N   0  0  0  0  0  0  0  0  0  0  0  0
    9.8673  -15.1078   26.3555 C   0  0  0  0  0  0  0  0  0  0  0  0
    9.7973  -15.9878   28.5570 O   0  0  0  0  0  0  0  0  0  0  0  0
    9.6412  -17.0394   29.4473 O   0  0  0  0  0  0  0  0  0  0  0  0
  2  1  1  0
  3  2  2  0
  4  2  1  0
  5  4  1  0
  5  6  1  0
  7  6  1  0
  7  8  1  0
  8 10  1  0
  8  9  1  6
 10 11  2  0
 12 13  1  0
 14 15  1  6
 14 16  1  0
 14 13  1  0
 16 17  1  1
 17 10  1  0
 18 24  1  0
 18 16  1  0
 19 18  2  0
 21 22  1  6
 21 20  1  0
 23 21  1  0
 23 24  1  6
 25 26  1  0
 25 23  1  0
 27 25  2  0
M  END
$$$$
