RIV.pdb
     RDKit          3D

 27 26  0  0  1  0  0  0  0  0999 V2000
    9.6177  -14.3331   16.3701 N   0  0  0  0  0  0  0  0  0  0  0  0
    8.3828  -13.7729   15.9428 C   0  0  0  0  0  0  0  0  0  0  0  0
    8.0580  -13.9260   14.6911 N   0  0  0  0  0  0  0  0  0  0  0  0
    7.5529  -13.0805   16.8550 N   0  0  0  0  0  0  0  0  0  0  0  0
    7.9213  -12.9154   18.2221 C   0  0  0  0  0  0  0  0  0  0  0  0
    7.6011  -14.1280   19.0675 C   0  0  0  0  0  0  0  0  0  0  0  0
    7.9333  -13.9144   20.5189 C   0  0  0  0  0  0  0  0  0  0  0  0
    7.7323  -15.1559   21.3500 C   0  0  2  0  0  0  0  0  0  0  0  0
    6.3364  -15.4654   21.5714 N   0  0  0  0  0  0  0  0  0  0  0  0
    8.3932  -14.9878   22.6519 C   0  0  0  0  0  0  0  0  0  0  0  0
    9.6434  -14.8790   22.7111 O   0  0  0  0  0  0  0  0  0  0  0  0
    7.1609  -13.6132   14.3030 C   0  0  0  0  0  0  0  0  0  0  0  0
    6.1607  -11.8329   26.0786 C   0  0  0  0  0  0  0  0  0  0  0  0
    7.1779  -12.6236   25.3330 C   0  0  2  0  0  0  0  0  0  0  0  0
    7.6438  -13.8556   26.0587 C   0  0  0  0  0  0  0  0  0  0  0  0
    8.3697  -13.5551   27.3288 C   0  0  2  0  0  0  0  0  0  0  0  0
    8.4059  -14.7509   25.1300 N   0  0  0  0  0  0  0  0  0  0  0  0
    7.7000  -14.9372   23.8921 C   0  0  0  0  0  0  0  0  0  0  0  0
    8.7695  -16.0369   25.7727 O   0  0  0  0  0  0  0  0  0  0  0  0
    7.8486  -16.8711   25.9548 C   0  0  0  0  0  0  0  0  0  0  0  0
   11.2700  -18.5531   24.6224 C   0  0  1  0  0  0  0  0  0  0  0  0
   11.6296  -18.2882   26.0666 C   0  0  0  0  0  0  0  0  0  0  0  0
   12.0970  -19.5506   26.7248 C   0  0  2  0  0  0  0  0  0  0  0  0
   10.4125  -17.6956   26.7382 N   0  0  0  0  0  0  0  0  0  0  0  0
   10.0693  -16.3951   26.1949 C   0  0  0  0  0  0  0  0  0  0  0  0
   10.5785  -17.5572   28.1989 O   0  0  0  0  0  0  0  0  0  0  0  0
   10.3508  -18.6137   29.0676 O   0  0  0  0  0  0  0  0  0  0  0  0
  2  1  1  0
  3  2  2  0
  4  2  1  0
  5  4  1  0
  5  6  1  0
  7  6  1  0
  7  8  1  0
  8 10  1  0
  8  9  1  1
 10 11  2  0
 12 13  1  0
 14 15  1  6
 14 16  1  0
 14 13  1  0
 16 17  1  6
 17 10  1  0
 18 24  1  0
 18 16  1  0
 19 18  2  0
 21 22  1  6
 21 20  1  0
 23 21  1  0
 23 24  1  1
 25 26  1  0
 25 23  1  0
 27 25  2  0
M  END
$$$$
