RIV.pdb
     RDKit          3D

 27 26  0  0  1  0  0  0  0  0999 V2000
    7.9570  -18.6112   16.9366 N   0  0  0  0  0  0  0  0  0  0  0  0
    6.7193  -19.0913   17.4456 C   0  0  0  0  0  0  0  0  0  0  0  0
    5.7302  -19.2023   16.6060 N   0  0  0  0  0  0  0  0  0  0  0  0
    6.5863  -19.4299   18.8123 N   0  0  0  0  0  0  0  0  0  0  0  0
    7.4600  -18.8935   19.8027 C   0  0  0  0  0  0  0  0  0  0  0  0
    7.2709  -17.4073   20.0102 C   0  0  0  0  0  0  0  0  0  0  0  0
    8.1359  -16.8723   21.1183 C   0  0  0  0  0  0  0  0  0  0  0  0
    7.8502  -15.4257   21.4320 C   0  0  2  0  0  0  0  0  0  0  0  0
    8.3750  -14.5190   20.4341 N   0  0  0  0  0  0  0  0  0  0  0  0
    8.4312  -15.0822   22.7375 C   0  0  0  0  0  0  0  0  0  0  0  0
    9.6725  -14.9240   22.8495 O   0  0  0  0  0  0  0  0  0  0  0  0
    4.7914  -19.5097   16.8841 C   0  0  0  0  0  0  0  0  0  0  0  0
    5.9737  -11.7202   26.0404 C   0  0  0  0  0  0  0  0  0  0  0  0
    6.9610  -12.5496   25.2967 C   0  0  2  0  0  0  0  0  0  0  0  0
    7.4200  -13.7694   26.0470 C   0  0  0  0  0  0  0  0  0  0  0  0
    8.0168  -13.4547   27.3793 C   0  0  2  0  0  0  0  0  0  0  0  0
    8.3024  -14.6139   25.1792 N   0  0  0  0  0  0  0  0  0  0  0  0
    7.6675  -14.9095   23.9242 C   0  0  0  0  0  0  0  0  0  0  0  0
    8.7652  -15.8358   25.8805 O   0  0  0  0  0  0  0  0  0  0  0  0
    7.8902  -16.6653   26.2318 C   0  0  0  0  0  0  0  0  0  0  0  0
   11.6847  -18.1230   24.7686 C   0  0  1  0  0  0  0  0  0  0  0  0
   11.8709  -17.8514   26.2440 C   0  0  0  0  0  0  0  0  0  0  0  0
   12.3821  -19.0778   26.9368 C   0  0  2  0  0  0  0  0  0  0  0  0
   10.5433  -17.3817   26.7921 N   0  0  0  0  0  0  0  0  0  0  0  0
   10.1117  -16.1378   26.1832 C   0  0  0  0  0  0  0  0  0  0  0  0
   10.5653  -17.1961   28.2569 O   0  0  0  0  0  0  0  0  0  0  0  0
   10.3560  -18.2493   29.1342 O   0  0  0  0  0  0  0  0  0  0  0  0
  2  1  1  0
  3  2  2  0
  4  2  1  0
  5  4  1  0
  5  6  1  0
  7  6  1  0
  7  8  1  0
  8 10  1  0
  8  9  1  6
 10 11  2  0
 12 13  1  0
 14 15  1  6
 14 16  1  0
 14 13  1  0
 16 17  1  6
 17 10  1  0
 18 24  1  0
 18 16  1  0
 19 18  2  0
 21 22  1  6
 21 20  1  0
 23 21  1  0
 23 24  1  6
 25 26  1  0
 25 23  1  0
 27 25  2  0
M  END
$$$$
