RIV.pdb
     RDKit          3D

 27 26  0  0  1  0  0  0  0  0999 V2000
    6.2434  -19.6787   17.9893 N   0  0  0  0  0  0  0  0  0  0  0  0
    7.0385  -18.8215   17.1803 C   0  0  0  0  0  0  0  0  0  0  0  0
    7.4908  -19.3069   16.0598 N   0  0  0  0  0  0  0  0  0  0  0  0
    7.3165  -17.4974   17.5921 N   0  0  0  0  0  0  0  0  0  0  0  0
    6.5744  -16.8684   18.6340 C   0  0  0  0  0  0  0  0  0  0  0  0
    6.7995  -17.5094   19.9853 C   0  0  0  0  0  0  0  0  0  0  0  0
    7.8765  -16.8150   20.7729 C   0  0  0  0  0  0  0  0  0  0  0  0
    7.4627  -15.4422   21.2385 C   0  0  2  0  0  0  0  0  0  0  0  0
    7.7787  -14.4041   20.2816 N   0  0  0  0  0  0  0  0  0  0  0  0
    8.1299  -15.1334   22.5111 C   0  0  0  0  0  0  0  0  0  0  0  0
    9.3845  -15.1298   22.5768 O   0  0  0  0  0  0  0  0  0  0  0  0
    8.0459  -18.7566   15.3948 C   0  0  0  0  0  0  0  0  0  0  0  0
    5.9299  -11.5145   25.7053 C   0  0  0  0  0  0  0  0  0  0  0  0
    6.9078  -12.3795   24.9902 C   0  0  2  0  0  0  0  0  0  0  0  0
    7.3611  -13.5728   25.7854 C   0  0  0  0  0  0  0  0  0  0  0  0
    8.0518  -13.2080   27.0582 C   0  0  2  0  0  0  0  0  0  0  0  0
    8.1520  -14.5059   24.9201 N   0  0  0  0  0  0  0  0  0  0  0  0
    7.4382  -14.8278   23.7150 C   0  0  0  0  0  0  0  0  0  0  0  0
    8.5864  -15.7153   25.6603 O   0  0  0  0  0  0  0  0  0  0  0  0
    7.6981  -16.5395   25.9900 C   0  0  0  0  0  0  0  0  0  0  0  0
   11.3359  -18.0956   24.5664 C   0  0  1  0  0  0  0  0  0  0  0  0
   11.6130  -17.7906   26.0209 C   0  0  0  0  0  0  0  0  0  0  0  0
   12.1231  -19.0142   26.7195 C   0  0  2  0  0  0  0  0  0  0  0  0
   10.3338  -17.2623   26.6276 N   0  0  0  0  0  0  0  0  0  0  0  0
    9.9196  -16.0109   26.0222 C   0  0  0  0  0  0  0  0  0  0  0  0
   10.4370  -17.0583   28.0865 O   0  0  0  0  0  0  0  0  0  0  0  0
   10.1623  -18.0722   28.9915 O   0  0  0  0  0  0  0  0  0  0  0  0
  2  1  1  0
  3  2  2  0
  4  2  1  0
  5  4  1  0
  5  6  1  0
  7  6  1  0
  7  8  1  0
  8 10  1  0
  8  9  1  6
 10 11  2  0
 12 13  1  0
 14 15  1  1
 14 16  1  0
 14 13  1  0
 16 17  1  6
 17 10  1  0
 18 24  1  0
 18 16  1  0
 19 18  2  0
 21 22  1  6
 21 20  1  0
 23 21  1  0
 23 24  1  1
 25 26  1  0
 25 23  1  0
 27 25  2  0
M  END
$$$$
