RIV.pdb
     RDKit          3D

 27 26  0  0  1  0  0  0  0  0999 V2000
    7.7034  -18.8615   16.8626 N   0  0  0  0  0  0  0  0  0  0  0  0
    6.3748  -18.5420   17.2555 C   0  0  0  0  0  0  0  0  0  0  0  0
    5.5272  -18.2457   16.3124 N   0  0  0  0  0  0  0  0  0  0  0  0
    6.0066  -18.5510   18.6210 N   0  0  0  0  0  0  0  0  0  0  0  0
    6.9379  -18.8972   19.6430 C   0  0  0  0  0  0  0  0  0  0  0  0
    7.8475  -17.7498   20.0222 C   0  0  0  0  0  0  0  0  0  0  0  0
    7.4511  -17.1159   21.3274 C   0  0  0  0  0  0  0  0  0  0  0  0
    7.7235  -15.6336   21.3601 C   0  0  2  0  0  0  0  0  0  0  0  0
    8.5896  -15.1965   20.2868 N   0  0  0  0  0  0  0  0  0  0  0  0
    8.3420  -15.2761   22.6445 C   0  0  0  0  0  0  0  0  0  0  0  0
    9.5888  -15.3480   22.7816 O   0  0  0  0  0  0  0  0  0  0  0  0
    4.5610  -17.9545   16.4990 C   0  0  0  0  0  0  0  0  0  0  0  0
    5.9880  -11.6190   25.8421 C   0  0  0  0  0  0  0  0  0  0  0  0
    6.9606  -12.4743   25.1084 C   0  0  2  0  0  0  0  0  0  0  0  0
    7.4385  -13.6646   25.8936 C   0  0  0  0  0  0  0  0  0  0  0  0
    8.0981  -13.2974   27.1821 C   0  0  2  0  0  0  0  0  0  0  0  0
    8.2711  -14.5601   25.0277 N   0  0  0  0  0  0  0  0  0  0  0  0
    7.6102  -14.8400   23.7826 C   0  0  0  0  0  0  0  0  0  0  0  0
    8.6827  -15.7942   25.7394 O   0  0  0  0  0  0  0  0  0  0  0  0
    7.7726  -16.5733   26.1162 C   0  0  0  0  0  0  0  0  0  0  0  0
   11.6563  -18.0278   24.5403 C   0  0  1  0  0  0  0  0  0  0  0  0
   11.7568  -17.8944   26.0428 C   0  0  0  0  0  0  0  0  0  0  0  0
   12.2124  -19.1867   26.6491 C   0  0  2  0  0  0  0  0  0  0  0  0
   10.4040  -17.4550   26.5529 N   0  0  0  0  0  0  0  0  0  0  0  0
   10.0169  -16.1602   26.0256 C   0  0  0  0  0  0  0  0  0  0  0  0
   10.3445  -17.3903   28.0270 O   0  0  0  0  0  0  0  0  0  0  0  0
   10.1204  -18.5170   28.8034 O   0  0  0  0  0  0  0  0  0  0  0  0
  2  1  1  0
  3  2  2  0
  4  2  1  0
  5  4  1  0
  5  6  1  0
  7  6  1  0
  7  8  1  0
  8 10  1  0
  8  9  1  6
 10 11  2  0
 12 13  1  0
 14 15  1  1
 14 16  1  0
 14 13  1  0
 16 17  1  6
 17 10  1  0
 18 24  1  0
 18 16  1  0
 19 18  2  0
 21 22  1  6
 21 20  1  0
 23 21  1  0
 23 24  1  6
 25 26  1  0
 25 23  1  0
 27 25  2  0
M  END
$$$$
