RIV.pdb
     RDKit          3D

 27 26  0  0  1  0  0  0  0  0999 V2000
    7.6808  -19.4164   17.7418 N   0  0  0  0  0  0  0  0  0  0  0  0
    6.7430  -18.6162   17.0334 C   0  0  0  0  0  0  0  0  0  0  0  0
    5.9383  -19.2253   16.2106 N   0  0  0  0  0  0  0  0  0  0  0  0
    6.7003  -17.2160   17.2276 N   0  0  0  0  0  0  0  0  0  0  0  0
    7.4222  -16.5864   18.2833 C   0  0  0  0  0  0  0  0  0  0  0  0
    6.8260  -16.8582   19.6464 C   0  0  0  0  0  0  0  0  0  0  0  0
    7.6925  -16.3392   20.7610 C   0  0  0  0  0  0  0  0  0  0  0  0
    7.3563  -14.9211   21.1466 C   0  0  2  0  0  0  0  0  0  0  0  0
    7.7638  -13.9550   20.1497 N   0  0  0  0  0  0  0  0  0  0  0  0
    8.0084  -14.5911   22.4216 C   0  0  0  0  0  0  0  0  0  0  0  0
    9.2319  -14.3064   22.4451 O   0  0  0  0  0  0  0  0  0  0  0  0
    5.2348  -18.7333   15.6481 C   0  0  0  0  0  0  0  0  0  0  0  0
    5.9380  -11.4574   26.1183 C   0  0  0  0  0  0  0  0  0  0  0  0
    6.8732  -12.2534   25.2771 C   0  0  2  0  0  0  0  0  0  0  0  0
    7.2617  -13.5746   25.8812 C   0  0  0  0  0  0  0  0  0  0  0  0
    7.9136  -13.4449   27.2186 C   0  0  2  0  0  0  0  0  0  0  0  0
    8.0581  -14.3817   24.9018 N   0  0  0  0  0  0  0  0  0  0  0  0
    7.3354  -14.5690   23.6737 C   0  0  0  0  0  0  0  0  0  0  0  0
    8.5221  -15.6632   25.4860 O   0  0  0  0  0  0  0  0  0  0  0  0
    7.6431  -16.4718   25.8741 C   0  0  0  0  0  0  0  0  0  0  0  0
   11.5834  -17.7576   24.0946 C   0  0  1  0  0  0  0  0  0  0  0  0
   11.6631  -17.7268   25.6039 C   0  0  0  0  0  0  0  0  0  0  0  0
   12.1311  -19.0512   26.1258 C   0  0  2  0  0  0  0  0  0  0  0  0
   10.2974  -17.3434   26.1248 N   0  0  0  0  0  0  0  0  0  0  0  0
    9.8741  -16.0436   25.6392 C   0  0  0  0  0  0  0  0  0  0  0  0
   10.2338  -17.3289   27.6000 O   0  0  0  0  0  0  0  0  0  0  0  0
    9.8855  -18.4542   28.3315 O   0  0  0  0  0  0  0  0  0  0  0  0
  2  1  1  0
  3  2  2  0
  4  2  1  0
  5  4  1  0
  5  6  1  0
  7  6  1  0
  7  8  1  0
  8 10  1  0
  8  9  1  6
 10 11  2  0
 12 13  1  0
 14 15  1  6
 14 16  1  0
 14 13  1  0
 16 17  1  6
 17 10  1  0
 18 24  1  0
 18 16  1  0
 19 18  2  0
 21 22  1  6
 21 20  1  0
 23 21  1  0
 23 24  1  6
 25 26  1  0
 25 23  1  0
 27 25  2  0
M  END
$$$$
