RIV.pdb
     RDKit          3D

 27 26  0  0  1  0  0  0  0  0999 V2000
    8.9650  -13.0881   17.4074 N   0  0  0  0  0  0  0  0  0  0  0  0
    8.1137  -13.6446   16.4139 C   0  0  0  0  0  0  0  0  0  0  0  0
    8.0818  -13.0532   15.2542 N   0  0  0  0  0  0  0  0  0  0  0  0
    7.3398  -14.7952   16.6920 N   0  0  0  0  0  0  0  0  0  0  0  0
    7.7031  -15.7074   17.7254 C   0  0  0  0  0  0  0  0  0  0  0  0
    7.3647  -15.1945   19.1074 C   0  0  0  0  0  0  0  0  0  0  0  0
    8.4871  -15.4094   20.0855 C   0  0  0  0  0  0  0  0  0  0  0  0
    8.0715  -16.2378   21.2745 C   0  0  2  0  0  0  0  0  0  0  0  0
    6.6360  -16.3763   21.3901 N   0  0  0  0  0  0  0  0  0  0  0  0
    8.5897  -15.6246   22.5055 C   0  0  0  0  0  0  0  0  0  0  0  0
    9.8064  -15.3236   22.5921 O   0  0  0  0  0  0  0  0  0  0  0  0
    7.4870  -13.3700   14.4802 C   0  0  0  0  0  0  0  0  0  0  0  0
    7.4267  -11.7571   27.0031 C   0  0  0  0  0  0  0  0  0  0  0  0
    8.1828  -12.9276   26.4795 C   0  0  2  0  0  0  0  0  0  0  0  0
    7.4919  -13.6443   25.3523 C   0  0  0  0  0  0  0  0  0  0  0  0
    6.1080  -14.0895   25.6942 C   0  0  2  0  0  0  0  0  0  0  0  0
    8.3616  -14.7434   24.8226 N   0  0  0  0  0  0  0  0  0  0  0  0
    7.7899  -15.3366   23.6450 C   0  0  0  0  0  0  0  0  0  0  0  0
    8.6811  -15.7493   25.8643 O   0  0  0  0  0  0  0  0  0  0  0  0
    7.7204  -16.3796   26.3711 C   0  0  0  0  0  0  0  0  0  0  0  0
   11.3099  -18.2633   25.0205 C   0  0  1  0  0  0  0  0  0  0  0  0
   11.5784  -17.9129   26.4663 C   0  0  0  0  0  0  0  0  0  0  0  0
   11.9965  -19.1343   27.2271 C   0  0  2  0  0  0  0  0  0  0  0  0
   10.3243  -17.2795   27.0224 N   0  0  0  0  0  0  0  0  0  0  0  0
    9.9802  -16.0524   26.3294 C   0  0  0  0  0  0  0  0  0  0  0  0
   10.4276  -16.9823   28.4651 O   0  0  0  0  0  0  0  0  0  0  0  0
   10.0482  -17.8995   29.4333 O   0  0  0  0  0  0  0  0  0  0  0  0
  2  1  1  0
  3  2  2  0
  4  2  1  0
  5  4  1  0
  5  6  1  0
  7  6  1  0
  7  8  1  0
  8 10  1  0
  8  9  1  1
 10 11  2  0
 12 13  1  0
 14 15  1  6
 14 16  1  0
 14 13  1  0
 16 17  1  1
 17 10  1  0
 18 24  1  0
 18 16  1  0
 19 18  2  0
 21 22  1  6
 21 20  1  0
 23 21  1  0
 23 24  1  1
 25 26  1  0
 25 23  1  0
 27 25  2  0
M  END
$$$$
