KGI.pdb
     RDKit          3D

 22 21  0  0  1  0  0  0  0  0999 V2000
   26.5382  -20.2053  -17.7524 N   0  0  0  0  0  0  0  0  0  0  0  0
   26.3789  -18.8410  -17.4005 C   0  0  1  0  0  0  0  0  0  0  0  0
   25.1971  -18.2452  -18.1368 C   0  0  0  0  0  0  0  0  0  0  0  0
   24.1241  -19.2907  -18.2557 C   0  0  0  0  0  0  0  0  0  0  0  0
   24.4008  -20.2554  -19.4167 C   0  0  0  0  0  0  0  0  0  0  0  0
   23.1301  -21.0373  -19.7193 C   0  0  0  0  0  0  0  0  0  0  0  0
   23.3528  -22.1116  -20.6628 N   0  0  0  0  0  0  0  0  0  0  0  0
   26.3605  -18.5295  -15.9661 C   0  0  0  0  0  0  0  0  0  0  0  0
   25.4496  -17.7514  -15.5596 O   0  0  0  0  0  0  0  0  0  0  0  0
   27.2697  -19.0122  -14.9820 N   0  0  0  0  0  0  0  0  0  0  0  0
   27.1139  -18.6556  -13.5788 C   0  0  0  0  0  0  0  0  0  0  0  0
   26.4718  -19.7319  -12.7793 C   0  0  0  0  0  0  0  0  0  0  0  0
   26.0503  -20.7666  -13.3409 O   0  0  0  0  0  0  0  0  0  0  0  0
   27.2612  -20.2052   -7.0243 C   0  0  0  0  0  0  0  0  0  0  0  0
   26.5732  -19.7687   -8.3110 C   0  0  0  0  0  0  0  0  0  0  0  0
   26.5838  -20.9231   -9.2568 C   0  0  2  0  0  0  0  0  0  0  0  0
   28.0482  -21.3402   -9.4591 C   0  0  0  0  0  0  0  0  0  0  0  0
   25.8660  -20.7675  -10.5379 C   0  0  2  0  0  0  0  0  0  0  0  0
   26.2932  -19.6570  -11.3672 N   0  0  0  0  0  0  0  0  0  0  0  0
   24.3970  -20.6424  -10.2536 C   0  0  0  0  0  0  0  0  0  0  0  0
   23.7344  -21.7261   -9.7213 O   0  0  0  0  0  0  0  0  0  0  0  0
   23.8072  -19.5923  -10.4938 O   0  0  0  0  0  0  0  0  0  0  0  0
  2  1  1  1
  2  3  1  0
  4  3  1  0
  5  4  1  0
  6  5  1  0
  7  6  1  0
  8  9  2  0
  8  2  1  0
 10  8  1  0
 11 12  1  0
 11 10  1  0
 12 19  1  0
 13 12  2  0
 15 14  1  0
 16 15  1  0
 16 17  1  6
 18 16  1  0
 18 20  1  0
 18 19  1  1
 20 22  2  0
 20 21  1  0
M  END
$$$$
