KGI.pdb
     RDKit          3D

 22 21  0  0  1  0  0  0  0  0999 V2000
   18.5584  -13.3410  -17.8646 N   0  0  0  0  0  0  0  0  0  0  0  0
   19.8756  -12.8317  -17.9924 C   0  0  1  0  0  0  0  0  0  0  0  0
   20.5819  -13.4940  -19.1570 C   0  0  0  0  0  0  0  0  0  0  0  0
   20.4943  -14.9851  -18.9916 C   0  0  0  0  0  0  0  0  0  0  0  0
   21.0839  -15.7237  -20.2007 C   0  0  0  0  0  0  0  0  0  0  0  0
   20.9391  -17.2229  -19.9792 C   0  0  0  0  0  0  0  0  0  0  0  0
   21.5821  -18.0003  -21.0164 N   0  0  0  0  0  0  0  0  0  0  0  0
   20.0172  -11.3707  -18.0084 C   0  0  0  0  0  0  0  0  0  0  0  0
   19.9607  -10.8011  -19.1366 O   0  0  0  0  0  0  0  0  0  0  0  0
   20.2171  -10.5259  -16.8794 N   0  0  0  0  0  0  0  0  0  0  0  0
   20.3167   -9.0813  -17.0328 C   0  0  0  0  0  0  0  0  0  0  0  0
   20.5288   -8.3785  -15.7401 C   0  0  0  0  0  0  0  0  0  0  0  0
   20.5052   -9.0174  -14.6655 O   0  0  0  0  0  0  0  0  0  0  0  0
   22.8996   -5.1003  -16.6738 C   0  0  0  0  0  0  0  0  0  0  0  0
   23.1184   -5.0998  -15.1666 C   0  0  0  0  0  0  0  0  0  0  0  0
   21.7829   -5.0256  -14.5046 C   0  0  2  0  0  0  0  0  0  0  0  0
   21.9805   -4.3434  -13.1425 C   0  0  0  0  0  0  0  0  0  0  0  0
   21.0007   -6.2734  -14.3952 C   0  0  2  0  0  0  0  0  0  0  0  0
   20.7591   -6.9754  -15.6411 N   0  0  0  0  0  0  0  0  0  0  0  0
   19.6887   -5.9618  -13.7349 C   0  0  0  0  0  0  0  0  0  0  0  0
   19.5046   -6.3409  -12.4237 O   0  0  0  0  0  0  0  0  0  0  0  0
   18.8044   -5.3810  -14.3585 O   0  0  0  0  0  0  0  0  0  0  0  0
  2  1  1  6
  2  3  1  0
  4  3  1  0
  5  4  1  0
  6  5  1  0
  7  6  1  0
  8  9  2  0
  8  2  1  0
 10  8  1  0
 11 12  1  0
 11 10  1  0
 12 19  1  0
 13 12  2  0
 15 14  1  0
 16 15  1  0
 16 17  1  1
 18 16  1  0
 18 20  1  0
 18 19  1  6
 20 22  2  0
 20 21  1  0
M  END
$$$$
