KGI.pdb
     RDKit          3D

 22 21  0  0  1  0  0  0  0  0999 V2000
   28.8131  -22.1621  -17.9169 N   0  0  0  0  0  0  0  0  0  0  0  0
   27.8840  -22.6677  -16.9726 C   0  0  1  0  0  0  0  0  0  0  0  0
   28.4999  -23.8108  -16.1930 C   0  0  0  0  0  0  0  0  0  0  0  0
   28.5811  -25.0170  -17.0856 C   0  0  0  0  0  0  0  0  0  0  0  0
   29.0863  -26.2503  -16.3249 C   0  0  0  0  0  0  0  0  0  0  0  0
   29.0853  -27.4446  -17.2691 C   0  0  0  0  0  0  0  0  0  0  0  0
   29.5008  -28.6669  -16.6158 N   0  0  0  0  0  0  0  0  0  0  0  0
   27.2299  -21.6835  -16.1017 C   0  0  0  0  0  0  0  0  0  0  0  0
   27.9675  -20.7959  -15.5837 O   0  0  0  0  0  0  0  0  0  0  0  0
   25.8447  -21.6284  -15.7754 N   0  0  0  0  0  0  0  0  0  0  0  0
   25.3350  -20.6394  -14.8360 C   0  0  0  0  0  0  0  0  0  0  0  0
   23.8795  -20.7910  -14.5740 C   0  0  0  0  0  0  0  0  0  0  0  0
   23.1877  -21.5502  -15.2872 O   0  0  0  0  0  0  0  0  0  0  0  0
   22.9457  -19.8717   -9.9324 C   0  0  0  0  0  0  0  0  0  0  0  0
   22.1748  -20.8622  -10.7950 C   0  0  0  0  0  0  0  0  0  0  0  0
   21.4081  -20.0890  -11.8157 C   0  0  2  0  0  0  0  0  0  0  0  0
   19.9156  -20.3622  -11.5760 C   0  0  0  0  0  0  0  0  0  0  0  0
   21.7859  -20.2602  -13.2330 C   0  0  2  0  0  0  0  0  0  0  0  0
   23.1960  -20.0996  -13.5316 N   0  0  0  0  0  0  0  0  0  0  0  0
   20.9868  -19.2976  -14.0631 C   0  0  0  0  0  0  0  0  0  0  0  0
   19.8033  -19.7312  -14.6181 O   0  0  0  0  0  0  0  0  0  0  0  0
   21.3876  -18.1500  -14.2379 O   0  0  0  0  0  0  0  0  0  0  0  0
  2  1  1  1
  2  3  1  0
  4  3  1  0
  5  4  1  0
  6  5  1  0
  7  6  1  0
  8  9  2  0
  8  2  1  0
 10  8  1  0
 11 12  1  0
 11 10  1  0
 12 19  1  0
 13 12  2  0
 15 14  1  0
 16 15  1  0
 16 17  1  6
 18 16  1  0
 18 20  1  0
 18 19  1  1
 20 22  2  0
 20 21  1  0
M  END
$$$$
