KGI.pdb
     RDKit          3D

 22 21  0  0  1  0  0  0  0  0999 V2000
   19.3335  -13.0960  -17.6204 N   0  0  0  0  0  0  0  0  0  0  0  0
   18.7748  -11.7956  -17.5339 C   0  0  1  0  0  0  0  0  0  0  0  0
   17.2887  -11.8444  -17.8219 C   0  0  0  0  0  0  0  0  0  0  0  0
   17.0825  -12.3748  -19.2128 C   0  0  0  0  0  0  0  0  0  0  0  0
   15.6133  -12.2734  -19.6445 C   0  0  0  0  0  0  0  0  0  0  0  0
   15.4813  -12.8017  -21.0662 C   0  0  0  0  0  0  0  0  0  0  0  0
   14.1230  -12.7297  -21.5594 N   0  0  0  0  0  0  0  0  0  0  0  0
   19.0862  -11.0251  -16.3238 C   0  0  0  0  0  0  0  0  0  0  0  0
   18.8240  -11.5707  -15.2130 O   0  0  0  0  0  0  0  0  0  0  0  0
   19.6516   -9.7190  -16.2725 N   0  0  0  0  0  0  0  0  0  0  0  0
   19.9360   -9.0752  -14.9977 C   0  0  0  0  0  0  0  0  0  0  0  0
   20.5742   -7.7420  -15.1561 C   0  0  0  0  0  0  0  0  0  0  0  0
   21.1425   -7.4399  -16.2281 O   0  0  0  0  0  0  0  0  0  0  0  0
   18.1881   -3.1898  -15.0047 C   0  0  0  0  0  0  0  0  0  0  0  0
   19.1236   -4.3584  -15.2851 C   0  0  0  0  0  0  0  0  0  0  0  0
   20.2403   -4.3056  -14.2964 C   0  0  2  0  0  0  0  0  0  0  0  0
   20.9559   -2.9588  -14.4803 C   0  0  0  0  0  0  0  0  0  0  0  0
   21.1854   -5.4399  -14.2670 C   0  0  2  0  0  0  0  0  0  0  0  0
   20.5867   -6.7537  -14.1290 N   0  0  0  0  0  0  0  0  0  0  0  0
   22.1671   -5.2188  -13.1527 C   0  0  0  0  0  0  0  0  0  0  0  0
   22.0234   -5.9488  -11.9937 O   0  0  0  0  0  0  0  0  0  0  0  0
   23.0757   -4.4026  -13.2810 O   0  0  0  0  0  0  0  0  0  0  0  0
  2  1  1  1
  2  3  1  0
  4  3  1  0
  5  4  1  0
  6  5  1  0
  7  6  1  0
  8  9  2  0
  8  2  1  0
 10  8  1  0
 11 12  1  0
 11 10  1  0
 12 19  1  0
 13 12  2  0
 15 14  1  0
 16 15  1  0
 16 17  1  6
 18 16  1  0
 18 20  1  0
 18 19  1  1
 20 22  2  0
 20 21  1  0
M  END
$$$$
