KGI.pdb
     RDKit          3D

 22 21  0  0  1  0  0  0  0  0999 V2000
   24.3896  -21.8706  -11.0560 N   0  0  0  0  0  0  0  0  0  0  0  0
   25.0750  -20.6346  -10.9409 C   0  0  1  0  0  0  0  0  0  0  0  0
   25.3405  -20.3174   -9.4840 C   0  0  0  0  0  0  0  0  0  0  0  0
   24.0272  -20.0784   -8.7936 C   0  0  0  0  0  0  0  0  0  0  0  0
   23.6792  -21.2205   -7.8295 C   0  0  0  0  0  0  0  0  0  0  0  0
   22.3822  -20.8780   -7.1097 C   0  0  0  0  0  0  0  0  0  0  0  0
   21.9077  -21.9628   -6.2781 N   0  0  0  0  0  0  0  0  0  0  0  0
   26.2686  -20.4640  -11.7783 C   0  0  0  0  0  0  0  0  0  0  0  0
   26.6978  -19.2839  -11.9316 O   0  0  0  0  0  0  0  0  0  0  0  0
   26.9930  -21.4949  -12.4420 N   0  0  0  0  0  0  0  0  0  0  0  0
   28.0925  -21.1777  -13.3424 C   0  0  0  0  0  0  0  0  0  0  0  0
   27.6457  -20.9671  -14.7445 C   0  0  0  0  0  0  0  0  0  0  0  0
   28.4818  -20.7196  -15.6407 O   0  0  0  0  0  0  0  0  0  0  0  0
   24.8351  -24.4557  -17.6821 C   0  0  0  0  0  0  0  0  0  0  0  0
   25.8337  -23.3452  -17.3835 C   0  0  0  0  0  0  0  0  0  0  0  0
   25.0668  -22.1205  -17.0101 C   0  0  2  0  0  0  0  0  0  0  0  0
   24.1576  -21.7660  -18.1964 C   0  0  0  0  0  0  0  0  0  0  0  0
   25.8307  -20.9537  -16.5246 C   0  0  2  0  0  0  0  0  0  0  0  0
   26.2797  -21.0248  -15.1474 N   0  0  0  0  0  0  0  0  0  0  0  0
   24.9962  -19.7200  -16.7148 C   0  0  0  0  0  0  0  0  0  0  0  0
   24.2987  -19.2238  -15.6359 O   0  0  0  0  0  0  0  0  0  0  0  0
   24.9429  -19.1718  -17.8124 O   0  0  0  0  0  0  0  0  0  0  0  0
  2  1  1  1
  2  3  1  0
  4  3  1  0
  5  4  1  0
  6  5  1  0
  7  6  1  0
  8  9  2  0
  8  2  1  0
 10  8  1  0
 11 12  1  0
 11 10  1  0
 12 19  1  0
 13 12  2  0
 15 14  1  0
 16 15  1  0
 16 17  1  6
 18 16  1  0
 18 20  1  0
 18 19  1  1
 20 22  2  0
 20 21  1  0
M  END
$$$$
