KGI.pdb
     RDKit          3D

 22 21  0  0  1  0  0  0  0  0999 V2000
   22.8994  -20.7856  -10.1047 N   0  0  0  0  0  0  0  0  0  0  0  0
   23.9958  -20.2049   -9.4182 C   0  0  1  0  0  0  0  0  0  0  0  0
   24.3781  -21.0578   -8.2265 C   0  0  0  0  0  0  0  0  0  0  0  0
   23.2845  -20.9721   -7.1993 C   0  0  0  0  0  0  0  0  0  0  0  0
   22.3250  -22.1661   -7.2940 C   0  0  0  0  0  0  0  0  0  0  0  0
   21.2848  -22.0495   -6.1886 C   0  0  0  0  0  0  0  0  0  0  0  0
   20.3189  -23.1263   -6.2217 N   0  0  0  0  0  0  0  0  0  0  0  0
   25.1571  -19.8279  -10.2332 C   0  0  0  0  0  0  0  0  0  0  0  0
   26.2189  -19.5274   -9.6146 O   0  0  0  0  0  0  0  0  0  0  0  0
   25.2095  -19.7614  -11.6548 N   0  0  0  0  0  0  0  0  0  0  0  0
   26.4667  -19.5171  -12.3477 C   0  0  0  0  0  0  0  0  0  0  0  0
   26.2914  -19.3424  -13.8135 C   0  0  0  0  0  0  0  0  0  0  0  0
   25.5570  -20.1235  -14.4569 O   0  0  0  0  0  0  0  0  0  0  0  0
   24.6902  -15.1923  -15.0857 C   0  0  0  0  0  0  0  0  0  0  0  0
   25.5663  -15.3692  -16.3188 C   0  0  0  0  0  0  0  0  0  0  0  0
   26.6928  -16.2801  -15.9600 C   0  0  2  0  0  0  0  0  0  0  0  0
   27.8062  -16.0673  -16.9967 C   0  0  0  0  0  0  0  0  0  0  0  0
   26.3824  -17.7100  -15.7605 C   0  0  2  0  0  0  0  0  0  0  0  0
   26.9322  -18.3113  -14.5607 N   0  0  0  0  0  0  0  0  0  0  0  0
   26.8519  -18.4762  -16.9633 C   0  0  0  0  0  0  0  0  0  0  0  0
   26.0168  -18.5654  -18.0548 O   0  0  0  0  0  0  0  0  0  0  0  0
   27.9587  -19.0085  -16.9649 O   0  0  0  0  0  0  0  0  0  0  0  0
  2  1  1  6
  2  3  1  0
  4  3  1  0
  5  4  1  0
  6  5  1  0
  7  6  1  0
  8  9  2  0
  8  2  1  0
 10  8  1  0
 11 12  1  0
 11 10  1  0
 12 19  1  0
 13 12  2  0
 15 14  1  0
 16 15  1  0
 16 17  1  6
 18 16  1  0
 18 20  1  0
 18 19  1  1
 20 22  2  0
 20 21  1  0
M  END
$$$$
