KGI.pdb
     RDKit          3D

 22 21  0  0  1  0  0  0  0  0999 V2000
   30.3249  -23.3606  -18.1635 N   0  0  0  0  0  0  0  0  0  0  0  0
   29.3874  -23.8569  -17.2225 C   0  0  1  0  0  0  0  0  0  0  0  0
   29.9964  -24.9921  -16.4261 C   0  0  0  0  0  0  0  0  0  0  0  0
   29.7769  -26.2784  -17.1714 C   0  0  0  0  0  0  0  0  0  0  0  0
   28.3163  -26.7410  -17.0830 C   0  0  0  0  0  0  0  0  0  0  0  0
   28.2853  -28.2618  -17.0216 C   0  0  0  0  0  0  0  0  0  0  0  0
   26.9376  -28.7885  -17.0257 N   0  0  0  0  0  0  0  0  0  0  0  0
   28.7255  -22.8642  -16.3674 C   0  0  0  0  0  0  0  0  0  0  0  0
   28.8638  -23.0005  -15.1173 O   0  0  0  0  0  0  0  0  0  0  0  0
   27.9366  -21.7615  -16.8029 N   0  0  0  0  0  0  0  0  0  0  0  0
   27.5261  -20.7198  -15.8719 C   0  0  0  0  0  0  0  0  0  0  0  0
   26.6636  -19.6884  -16.5060 C   0  0  0  0  0  0  0  0  0  0  0  0
   26.9887  -19.1844  -17.6032 O   0  0  0  0  0  0  0  0  0  0  0  0
   21.5941  -19.9715  -18.0293 C   0  0  0  0  0  0  0  0  0  0  0  0
   21.7610  -18.9225  -16.9378 C   0  0  0  0  0  0  0  0  0  0  0  0
   22.9849  -19.2606  -16.1536 C   0  0  2  0  0  0  0  0  0  0  0  0
   22.7500  -18.7953  -14.7086 C   0  0  0  0  0  0  0  0  0  0  0  0
   24.2864  -18.8045  -16.6818 C   0  0  2  0  0  0  0  0  0  0  0  0
   25.4519  -19.2155  -15.9229 N   0  0  0  0  0  0  0  0  0  0  0  0
   24.2631  -17.3071  -16.7897 C   0  0  0  0  0  0  0  0  0  0  0  0
   25.0744  -16.5737  -15.9526 O   0  0  0  0  0  0  0  0  0  0  0  0
   23.5333  -16.7568  -17.6098 O   0  0  0  0  0  0  0  0  0  0  0  0
  2  1  1  1
  2  3  1  0
  4  3  1  0
  5  4  1  0
  6  5  1  0
  7  6  1  0
  8  9  2  0
  8  2  1  0
 10  8  1  0
 11 12  1  0
 11 10  1  0
 12 19  1  0
 13 12  2  0
 15 14  1  0
 16 15  1  0
 16 17  1  1
 18 16  1  0
 18 20  1  0
 18 19  1  1
 20 22  2  0
 20 21  1  0
M  END
$$$$
