KGI.pdb
     RDKit          3D

 22 21  0  0  1  0  0  0  0  0999 V2000
   26.8669  -18.6525  -15.9494 N   0  0  0  0  0  0  0  0  0  0  0  0
   25.7443  -19.4199  -15.5476 C   0  0  1  0  0  0  0  0  0  0  0  0
   25.1444  -20.1340  -16.7409 C   0  0  0  0  0  0  0  0  0  0  0  0
   24.3837  -19.1371  -17.5692 C   0  0  0  0  0  0  0  0  0  0  0  0
   23.0376  -18.7776  -16.9258 C   0  0  0  0  0  0  0  0  0  0  0  0
   21.9159  -19.1986  -17.8651 C   0  0  0  0  0  0  0  0  0  0  0  0
   20.6057  -18.8807  -17.3401 N   0  0  0  0  0  0  0  0  0  0  0  0
   25.9353  -20.3127  -14.3981 C   0  0  0  0  0  0  0  0  0  0  0  0
   24.9060  -20.8910  -13.9435 O   0  0  0  0  0  0  0  0  0  0  0  0
   27.1653  -20.5922  -13.7369 N   0  0  0  0  0  0  0  0  0  0  0  0
   27.1939  -21.3633  -12.5021 C   0  0  0  0  0  0  0  0  0  0  0  0
   26.9124  -20.5354  -11.2999 C   0  0  0  0  0  0  0  0  0  0  0  0
   26.6707  -19.3144  -11.4194 O   0  0  0  0  0  0  0  0  0  0  0  0
   23.1186  -21.5043   -7.6580 C   0  0  0  0  0  0  0  0  0  0  0  0
   24.0715  -20.7698   -8.5919 C   0  0  0  0  0  0  0  0  0  0  0  0
   25.4373  -20.8183   -7.9921 C   0  0  2  0  0  0  0  0  0  0  0  0
   25.3557  -20.1622   -6.6055 C   0  0  0  0  0  0  0  0  0  0  0  0
   26.5584  -20.2891   -8.7944 C   0  0  2  0  0  0  0  0  0  0  0  0
   26.9057  -21.0583   -9.9739 N   0  0  0  0  0  0  0  0  0  0  0  0
   27.7643  -20.1607   -7.9091 C   0  0  0  0  0  0  0  0  0  0  0  0
   27.8888  -19.0356   -7.1247 O   0  0  0  0  0  0  0  0  0  0  0  0
   28.6162  -21.0451   -7.8913 O   0  0  0  0  0  0  0  0  0  0  0  0
  2  1  1  6
  2  3  1  0
  4  3  1  0
  5  4  1  0
  6  5  1  0
  7  6  1  0
  8  9  2  0
  8  2  1  0
 10  8  1  0
 11 12  1  0
 11 10  1  0
 12 19  1  0
 13 12  2  0
 15 14  1  0
 16 15  1  0
 16 17  1  1
 18 16  1  0
 18 20  1  0
 18 19  1  6
 20 22  2  0
 20 21  1  0
M  END
$$$$
