KGI.pdb
     RDKit          3D

 22 21  0  0  1  0  0  0  0  0999 V2000
   20.0584  -15.1368  -18.3336 N   0  0  0  0  0  0  0  0  0  0  0  0
   18.9865  -15.1724  -17.4061 C   0  0  1  0  0  0  0  0  0  0  0  0
   19.2246  -16.2534  -16.3724 C   0  0  0  0  0  0  0  0  0  0  0  0
   18.7809  -17.5721  -16.9404 C   0  0  0  0  0  0  0  0  0  0  0  0
   18.9701  -18.7141  -15.9328 C   0  0  0  0  0  0  0  0  0  0  0  0
   18.4944  -20.0134  -16.5676 C   0  0  0  0  0  0  0  0  0  0  0  0
   18.7221  -21.1611  -15.7164 N   0  0  0  0  0  0  0  0  0  0  0  0
   18.5986  -13.8929  -16.7998 C   0  0  0  0  0  0  0  0  0  0  0  0
   17.5074  -13.8686  -16.1602 O   0  0  0  0  0  0  0  0  0  0  0  0
   19.3260  -12.6702  -16.8621 N   0  0  0  0  0  0  0  0  0  0  0  0
   18.8420  -11.4751  -16.1853 C   0  0  0  0  0  0  0  0  0  0  0  0
   19.7871  -10.3324  -16.2892 C   0  0  0  0  0  0  0  0  0  0  0  0
   21.0210  -10.5348  -16.2929 O   0  0  0  0  0  0  0  0  0  0  0  0
   21.0746   -5.4154  -18.6067 C   0  0  0  0  0  0  0  0  0  0  0  0
   20.5704   -5.4148  -17.1696 C   0  0  0  0  0  0  0  0  0  0  0  0
   19.6700   -6.5921  -16.9939 C   0  0  2  0  0  0  0  0  0  0  0  0
   18.4738   -6.1353  -16.1453 C   0  0  0  0  0  0  0  0  0  0  0  0
   20.2678   -7.8438  -16.4872 C   0  0  2  0  0  0  0  0  0  0  0  0
   19.3651   -8.9740  -16.3818 N   0  0  0  0  0  0  0  0  0  0  0  0
   20.8869   -7.5724  -15.1465 C   0  0  0  0  0  0  0  0  0  0  0  0
   20.2768   -8.0849  -14.0232 O   0  0  0  0  0  0  0  0  0  0  0  0
   21.9156   -6.9067  -15.0630 O   0  0  0  0  0  0  0  0  0  0  0  0
  2  1  1  1
  2  3  1  0
  4  3  1  0
  5  4  1  0
  6  5  1  0
  7  6  1  0
  8  9  2  0
  8  2  1  0
 10  8  1  0
 11 12  1  0
 11 10  1  0
 12 19  1  0
 13 12  2  0
 15 14  1  0
 16 15  1  0
 16 17  1  1
 18 16  1  0
 18 20  1  0
 18 19  1  1
 20 22  2  0
 20 21  1  0
M  END
$$$$
