KGI.pdb
     RDKit          3D

 22 21  0  0  1  0  0  0  0  0999 V2000
   24.7973  -22.4075  -13.1083 N   0  0  0  0  0  0  0  0  0  0  0  0
   24.9289  -21.0082  -13.2962 C   0  0  1  0  0  0  0  0  0  0  0  0
   23.5986  -20.4071  -13.6994 C   0  0  0  0  0  0  0  0  0  0  0  0
   22.6893  -21.5105  -14.1621 C   0  0  0  0  0  0  0  0  0  0  0  0
   21.8798  -21.0952  -15.3980 C   0  0  0  0  0  0  0  0  0  0  0  0
   20.9512  -22.2382  -15.7840 C   0  0  0  0  0  0  0  0  0  0  0  0
   20.0826  -21.8963  -16.8896 N   0  0  0  0  0  0  0  0  0  0  0  0
   25.5783  -20.2576  -12.2146 C   0  0  0  0  0  0  0  0  0  0  0  0
   25.7116  -19.0107  -12.3813 O   0  0  0  0  0  0  0  0  0  0  0  0
   26.0798  -20.7926  -10.9938 N   0  0  0  0  0  0  0  0  0  0  0  0
   26.6759  -19.9276   -9.9855 C   0  0  0  0  0  0  0  0  0  0  0  0
   27.0323  -20.6564   -8.7398 C   0  0  0  0  0  0  0  0  0  0  0  0
   27.3348  -21.8688   -8.7849 O   0  0  0  0  0  0  0  0  0  0  0  0
   29.4073  -18.2803   -4.0342 C   0  0  0  0  0  0  0  0  0  0  0  0
   28.1994  -18.7242   -4.8486 C   0  0  0  0  0  0  0  0  0  0  0  0
   28.5111  -20.0526   -5.4533 C   0  0  2  0  0  0  0  0  0  0  0  0
   29.8107  -19.8997   -6.2577 C   0  0  0  0  0  0  0  0  0  0  0  0
   27.4479  -20.7185   -6.2325 C   0  0  2  0  0  0  0  0  0  0  0  0
   27.0465  -20.0447   -7.4524 N   0  0  0  0  0  0  0  0  0  0  0  0
   26.2494  -20.9058   -5.3478 C   0  0  0  0  0  0  0  0  0  0  0  0
   26.3357  -21.7974   -4.3015 O   0  0  0  0  0  0  0  0  0  0  0  0
   25.2183  -20.2732   -5.5600 O   0  0  0  0  0  0  0  0  0  0  0  0
  2  1  1  1
  2  3  1  0
  4  3  1  0
  5  4  1  0
  6  5  1  0
  7  6  1  0
  8  9  2  0
  8  2  1  0
 10  8  1  0
 11 12  1  0
 11 10  1  0
 12 19  1  0
 13 12  2  0
 15 14  1  0
 16 15  1  0
 16 17  1  6
 18 16  1  0
 18 20  1  0
 18 19  1  6
 20 22  2  0
 20 21  1  0
M  END
$$$$
