KGI.pdb
     RDKit          3D

 22 21  0  0  1  0  0  0  0  0999 V2000
   25.1872  -21.8762  -14.7906 N   0  0  0  0  0  0  0  0  0  0  0  0
   25.9958  -20.7158  -14.8918 C   0  0  1  0  0  0  0  0  0  0  0  0
   25.4382  -19.7796  -15.9435 C   0  0  0  0  0  0  0  0  0  0  0  0
   25.4115  -20.4963  -17.2642 C   0  0  0  0  0  0  0  0  0  0  0  0
   24.7889  -19.6283  -18.3660 C   0  0  0  0  0  0  0  0  0  0  0  0
   24.7067  -20.4456  -19.6478 C   0  0  0  0  0  0  0  0  0  0  0  0
   24.0529  -19.7280  -20.7208 N   0  0  0  0  0  0  0  0  0  0  0  0
   26.3128  -20.0236  -13.6366 C   0  0  0  0  0  0  0  0  0  0  0  0
   26.6594  -18.8100  -13.7225 O   0  0  0  0  0  0  0  0  0  0  0  0
   26.2742  -20.5823  -12.3272 N   0  0  0  0  0  0  0  0  0  0  0  0
   26.5171  -19.7565  -11.1528 C   0  0  0  0  0  0  0  0  0  0  0  0
   26.4773  -20.5324   -9.8854 C   0  0  0  0  0  0  0  0  0  0  0  0
   26.1791  -21.7466   -9.9002 O   0  0  0  0  0  0  0  0  0  0  0  0
   28.8745  -18.5211   -5.1000 C   0  0  0  0  0  0  0  0  0  0  0  0
   28.6082  -19.3734   -6.3338 C   0  0  0  0  0  0  0  0  0  0  0  0
   27.2615  -19.9988   -6.1832 C   0  0  2  0  0  0  0  0  0  0  0  0
   27.3097  -20.9047   -4.9436 C   0  0  0  0  0  0  0  0  0  0  0  0
   26.6902  -20.6893   -7.3569 C   0  0  2  0  0  0  0  0  0  0  0  0
   26.7605  -19.9625   -8.6099 N   0  0  0  0  0  0  0  0  0  0  0  0
   25.2599  -21.0370   -7.0608 C   0  0  0  0  0  0  0  0  0  0  0  0
   24.2645  -20.3078   -7.6725 O   0  0  0  0  0  0  0  0  0  0  0  0
   24.9928  -21.9537   -6.2884 O   0  0  0  0  0  0  0  0  0  0  0  0
  2  1  1  1
  2  3  1  0
  4  3  1  0
  5  4  1  0
  6  5  1  0
  7  6  1  0
  8  9  2  0
  8  2  1  0
 10  8  1  0
 11 12  1  0
 11 10  1  0
 12 19  1  0
 13 12  2  0
 15 14  1  0
 16 15  1  0
 16 17  1  1
 18 16  1  0
 18 20  1  0
 18 19  1  6
 20 22  2  0
 20 21  1  0
M  END
$$$$
