RIS.pdb
     RDKit          3D

 26 25  0  0  1  0  0  0  0  0999 V2000
    8.6966  -15.5621   17.0368 N   0  0  0  0  0  0  0  0  0  0  0  0
    8.2383  -14.4325   16.3409 C   0  0  0  0  0  0  0  0  0  0  0  0
    7.9608  -14.4767   15.0662 N   0  0  0  0  0  0  0  0  0  0  0  0
    8.0569  -13.1848   17.0033 N   0  0  0  0  0  0  0  0  0  0  0  0
    8.4706  -13.0738   18.3855 C   0  0  0  0  0  0  0  0  0  0  0  0
    7.3713  -13.5460   19.3145 C   0  0  0  0  0  0  0  0  0  0  0  0
    7.8055  -13.4037   20.7509 C   0  0  0  0  0  0  0  0  0  0  0  0
    7.9820  -14.7266   21.4224 C   0  0  2  0  0  0  0  0  0  0  0  0
    6.7019  -15.3967   21.5451 N   0  0  0  0  0  0  0  0  0  0  0  0
    8.6114  -14.6050   22.7589 C   0  0  0  0  0  0  0  0  0  0  0  0
    9.7961  -14.2166   22.9206 O   0  0  0  0  0  0  0  0  0  0  0  0
    7.5912  -13.6283   14.5784 C   0  0  0  0  0  0  0  0  0  0  0  0
    5.9369  -11.9846   26.1727 C   0  0  0  0  0  0  0  0  0  0  0  0
    7.0665  -12.6518   25.4212 C   0  0  2  0  0  0  0  0  0  0  0  0
    7.4612  -13.9660   26.0230 C   0  0  0  0  0  0  0  0  0  0  0  0
    7.7536  -13.8661   27.5009 C   0  0  2  0  0  0  0  0  0  0  0  0
    8.4519  -14.7753   25.2756 N   0  0  0  0  0  0  0  0  0  0  0  0
    7.8786  -14.9310   23.9232 C   0  0  0  0  0  0  0  0  0  0  0  0
    8.8246  -16.0726   25.7572 O   0  0  0  0  0  0  0  0  0  0  0  0
    7.8807  -16.8775   26.0791 O   0  0  0  0  0  0  0  0  0  0  0  0
   12.6018  -17.8194   25.7454 C   0  0  0  0  0  0  0  0  0  0  0  0
   11.4915  -18.6249   25.7098 C   0  0  1  0  0  0  0  0  0  0  0  0
   10.3276  -17.9461   26.4331 N   0  0  0  0  0  0  0  0  0  0  0  0
   10.1144  -16.6071   25.9322 C   0  0  0  0  0  0  0  0  0  0  0  0
   10.6200  -17.9310   27.8798 O   0  0  0  0  0  0  0  0  0  0  0  0
   10.7936  -19.1272   28.5430 O   0  0  0  0  0  0  0  0  0  0  0  0
  2  3  2  0
  2  1  1  0
  4  2  1  0
  5  6  1  0
  5  4  1  0
  6  7  1  0
  7  8  1  0
  8  9  1  1
 10 11  2  0
 10  8  1  0
 13 14  1  0
 13 12  1  0
 14 16  1  0
 14 15  1  6
 16 17  1  6
 17 10  1  0
 18 16  1  0
 19 18  2  0
 21 20  1  0
 22 21  1  6
 22 23  1  0
 23 18  1  0
 24 22  1  0
 25 24  1  0
 26 24  2  0
M  END
$$$$
