RIS.pdb
     RDKit          3D

 26 25  0  0  1  0  0  0  0  0999 V2000
    9.3652  -18.0403   17.1895 N   0  0  0  0  0  0  0  0  0  0  0  0
    8.3932  -17.3811   16.4206 C   0  0  0  0  0  0  0  0  0  0  0  0
    8.4495  -17.3558   15.1168 N   0  0  0  0  0  0  0  0  0  0  0  0
    7.2995  -16.7092   17.0376 N   0  0  0  0  0  0  0  0  0  0  0  0
    7.2079  -16.7273   18.4817 C   0  0  0  0  0  0  0  0  0  0  0  0
    7.3608  -15.3302   19.0468 C   0  0  0  0  0  0  0  0  0  0  0  0
    7.2403  -15.3592   20.5491 C   0  0  0  0  0  0  0  0  0  0  0  0
    7.3157  -13.9932   21.1493 C   0  0  2  0  0  0  0  0  0  0  0  0
    7.9360  -13.0734   20.2156 N   0  0  0  0  0  0  0  0  0  0  0  0
    8.0579  -13.9773   22.4323 C   0  0  0  0  0  0  0  0  0  0  0  0
    9.2896  -13.7353   22.5033 O   0  0  0  0  0  0  0  0  0  0  0  0
    7.8139  -16.7261   14.5748 C   0  0  0  0  0  0  0  0  0  0  0  0
    5.8005  -11.4046   26.3025 C   0  0  0  0  0  0  0  0  0  0  0  0
    6.8534  -12.0387   25.4221 C   0  0  2  0  0  0  0  0  0  0  0  0
    7.1922  -13.4357   25.8448 C   0  0  0  0  0  0  0  0  0  0  0  0
    7.5736  -13.5273   27.3029 C   0  0  2  0  0  0  0  0  0  0  0  0
    8.0826  -14.2101   24.9490 N   0  0  0  0  0  0  0  0  0  0  0  0
    7.3849  -14.2411   23.6474 C   0  0  0  0  0  0  0  0  0  0  0  0
    8.4513  -15.5516   25.2927 O   0  0  0  0  0  0  0  0  0  0  0  0
    7.5181  -16.4290   25.3346 O   0  0  0  0  0  0  0  0  0  0  0  0
   12.1399  -17.2122   24.9877 C   0  0  0  0  0  0  0  0  0  0  0  0
   11.0420  -18.0352   24.9749 C   0  0  1  0  0  0  0  0  0  0  0  0
    9.9466  -17.4623   25.8752 N   0  0  0  0  0  0  0  0  0  0  0  0
    9.7269  -16.0606   25.5988 C   0  0  0  0  0  0  0  0  0  0  0  0
   10.3406  -17.6701   27.2825 O   0  0  0  0  0  0  0  0  0  0  0  0
   10.6240  -18.9465   27.7198 O   0  0  0  0  0  0  0  0  0  0  0  0
  2  3  2  0
  2  1  1  0
  4  2  1  0
  5  6  1  0
  5  4  1  0
  6  7  1  0
  7  8  1  0
  8  9  1  6
 10 11  2  0
 10  8  1  0
 13 14  1  0
 13 12  1  0
 14 16  1  0
 14 15  1  6
 16 17  1  6
 17 10  1  0
 18 16  1  0
 19 18  2  0
 21 20  1  0
 22 21  1  6
 22 23  1  0
 23 18  1  0
 24 22  1  0
 25 24  1  0
 26 24  2  0
M  END
$$$$
