RIS.pdb
     RDKit          3D

 26 25  0  0  1  0  0  0  0  0999 V2000
    6.1016  -14.1178   16.9016 N   0  0  0  0  0  0  0  0  0  0  0  0
    7.4923  -14.1909   16.7250 C   0  0  0  0  0  0  0  0  0  0  0  0
    8.1068  -13.4883   15.8125 N   0  0  0  0  0  0  0  0  0  0  0  0
    8.2930  -15.0407   17.5405 N   0  0  0  0  0  0  0  0  0  0  0  0
    7.6341  -15.8572   18.5371 C   0  0  0  0  0  0  0  0  0  0  0  0
    7.0076  -14.9920   19.6112 C   0  0  0  0  0  0  0  0  0  0  0  0
    7.5817  -15.3391   20.9610 C   0  0  0  0  0  0  0  0  0  0  0  0
    8.4259  -14.2388   21.5167 C   0  0  2  0  0  0  0  0  0  0  0  0
    9.6271  -14.0826   20.7196 N   0  0  0  0  0  0  0  0  0  0  0  0
    8.7944  -14.4670   22.9343 C   0  0  0  0  0  0  0  0  0  0  0  0
    9.9402  -14.8455   23.2873 O   0  0  0  0  0  0  0  0  0  0  0  0
    9.1468  -13.5467   15.7152 C   0  0  0  0  0  0  0  0  0  0  0  0
    6.0971  -11.3112   26.3518 C   0  0  0  0  0  0  0  0  0  0  0  0
    7.2387  -12.0769   25.7223 C   0  0  2  0  0  0  0  0  0  0  0  0
    7.2420  -13.5251   26.1071 C   0  0  0  0  0  0  0  0  0  0  0  0
    7.2407  -13.7309   27.6029 C   0  0  2  0  0  0  0  0  0  0  0  0
    8.1895  -14.4080   25.3876 N   0  0  0  0  0  0  0  0  0  0  0  0
    7.8429  -14.2603   23.9593 C   0  0  0  0  0  0  0  0  0  0  0  0
    8.2377  -15.8067   25.6954 O   0  0  0  0  0  0  0  0  0  0  0  0
    7.1248  -16.4403   25.7438 O   0  0  0  0  0  0  0  0  0  0  0  0
   11.2381  -18.4838   25.1680 C   0  0  0  0  0  0  0  0  0  0  0  0
    9.9533  -18.9183   25.3768 C   0  0  1  0  0  0  0  0  0  0  0  0
    9.2403  -17.9921   26.3628 N   0  0  0  0  0  0  0  0  0  0  0  0
    9.3629  -16.6096   25.9590 C   0  0  0  0  0  0  0  0  0  0  0  0
    9.8150  -18.2055   27.7055 O   0  0  0  0  0  0  0  0  0  0  0  0
   10.3993  -17.1439   28.3632 O   0  0  0  0  0  0  0  0  0  0  0  0
  2  3  2  0
  2  1  1  0
  4  2  1  0
  5  6  1  0
  5  4  1  0
  6  7  1  0
  7  8  1  0
  8  9  1  6
 10 11  2  0
 10  8  1  0
 13 14  1  0
 13 12  1  0
 14 16  1  0
 14 15  1  6
 16 17  1  1
 17 10  1  0
 18 16  1  0
 19 18  2  0
 21 20  1  0
 22 21  1  6
 22 23  1  0
 23 18  1  0
 24 22  1  0
 25 24  1  0
 26 24  2  0
M  END
$$$$
