RIS.pdb
     RDKit          3D

 26 25  0  0  1  0  0  0  0  0999 V2000
    9.3298  -14.6459   18.1932 N   0  0  0  0  0  0  0  0  0  0  0  0
    8.4854  -13.7556   17.5114 C   0  0  0  0  0  0  0  0  0  0  0  0
    8.3452  -13.7987   16.2144 N   0  0  0  0  0  0  0  0  0  0  0  0
    7.7432  -12.7634   18.2134 N   0  0  0  0  0  0  0  0  0  0  0  0
    7.8180  -12.7430   19.6584 C   0  0  0  0  0  0  0  0  0  0  0  0
    7.2469  -14.0182   20.2435 C   0  0  0  0  0  0  0  0  0  0  0  0
    8.3602  -14.9347   20.6826 C   0  0  0  0  0  0  0  0  0  0  0  0
    7.9417  -15.8409   21.7943 C   0  0  2  0  0  0  0  0  0  0  0  0
    6.5049  -15.7725   21.9775 N   0  0  0  0  0  0  0  0  0  0  0  0
    8.6229  -15.5234   23.0720 C   0  0  0  0  0  0  0  0  0  0  0  0
    9.8729  -15.4344   23.1732 O   0  0  0  0  0  0  0  0  0  0  0  0
    7.7594  -13.0838   15.7245 C   0  0  0  0  0  0  0  0  0  0  0  0
    6.0514  -12.0218   26.0029 C   0  0  0  0  0  0  0  0  0  0  0  0
    7.1567  -12.8190   25.3482 C   0  0  2  0  0  0  0  0  0  0  0  0
    7.5864  -13.9931   26.1739 C   0  0  0  0  0  0  0  0  0  0  0  0
    7.9981  -13.6025   27.5731 C   0  0  2  0  0  0  0  0  0  0  0  0
    8.5059  -14.9626   25.5337 N   0  0  0  0  0  0  0  0  0  0  0  0
    7.8671  -15.3054   24.2468 C   0  0  0  0  0  0  0  0  0  0  0  0
    8.8410  -16.1822   26.2074 O   0  0  0  0  0  0  0  0  0  0  0  0
    7.8782  -16.8683   26.7021 O   0  0  0  0  0  0  0  0  0  0  0  0
   12.4541  -18.2114   26.1655 C   0  0  0  0  0  0  0  0  0  0  0  0
   11.2944  -18.9021   26.4128 C   0  0  1  0  0  0  0  0  0  0  0  0
   10.2868  -17.9977   27.1238 N   0  0  0  0  0  0  0  0  0  0  0  0
   10.1110  -16.7532   26.4097 C   0  0  0  0  0  0  0  0  0  0  0  0
   10.7632  -17.7569   28.5000 O   0  0  0  0  0  0  0  0  0  0  0  0
   11.0107  -16.4638   28.9091 O   0  0  0  0  0  0  0  0  0  0  0  0
  2  3  2  0
  2  1  1  0
  4  2  1  0
  5  6  1  0
  5  4  1  0
  6  7  1  0
  7  8  1  0
  8  9  1  1
 10 11  2  0
 10  8  1  0
 13 14  1  0
 13 12  1  0
 14 16  1  0
 14 15  1  6
 16 17  1  6
 17 10  1  0
 18 16  1  0
 19 18  2  0
 21 20  1  0
 22 21  1  6
 22 23  1  0
 23 18  1  0
 24 22  1  0
 25 24  1  0
 26 24  2  0
M  END
$$$$
