RIS.pdb
     RDKit          3D

 26 25  0  0  1  0  0  0  0  0999 V2000
    9.6894  -14.9377   15.1195 N   0  0  0  0  0  0  0  0  0  0  0  0
    8.7348  -13.9681   15.4648 C   0  0  0  0  0  0  0  0  0  0  0  0
    8.0728  -13.3024   14.5580 N   0  0  0  0  0  0  0  0  0  0  0  0
    8.4493  -13.6708   16.8280 N   0  0  0  0  0  0  0  0  0  0  0  0
    9.2744  -14.2762   17.8511 C   0  0  0  0  0  0  0  0  0  0  0  0
    8.4221  -15.0270   18.8534 C   0  0  0  0  0  0  0  0  0  0  0  0
    8.4226  -14.3098   20.1791 C   0  0  0  0  0  0  0  0  0  0  0  0
    7.6684  -15.0597   21.2284 C   0  0  2  0  0  0  0  0  0  0  0  0
    6.2630  -15.1275   20.8778 N   0  0  0  0  0  0  0  0  0  0  0  0
    7.8180  -14.4572   22.5745 C   0  0  0  0  0  0  0  0  0  0  0  0
    7.8341  -13.2148   22.7661 O   0  0  0  0  0  0  0  0  0  0  0  0
    7.3074  -12.6475   14.8402 C   0  0  0  0  0  0  0  0  0  0  0  0
    7.0921  -11.8355   26.9993 C   0  0  0  0  0  0  0  0  0  0  0  0
    8.0613  -12.9405   26.6452 C   0  0  2  0  0  0  0  0  0  0  0  0
    7.6594  -13.6840   25.4079 C   0  0  0  0  0  0  0  0  0  0  0  0
    6.1928  -14.0428   25.3938 C   0  0  2  0  0  0  0  0  0  0  0  0
    8.5448  -14.7892   24.9724 N   0  0  0  0  0  0  0  0  0  0  0  0
    7.9506  -15.2838   23.7137 C   0  0  0  0  0  0  0  0  0  0  0  0
    8.7652  -15.9113   25.8360 O   0  0  0  0  0  0  0  0  0  0  0  0
    7.8238  -16.7753   25.9350 O   0  0  0  0  0  0  0  0  0  0  0  0
   12.2223  -17.5822   26.5851 C   0  0  0  0  0  0  0  0  0  0  0  0
   11.1093  -18.3289   26.8797 C   0  0  1  0  0  0  0  0  0  0  0  0
    9.9917  -17.4224   27.3975 N   0  0  0  0  0  0  0  0  0  0  0  0
    9.8990  -16.2118   26.6133 C   0  0  0  0  0  0  0  0  0  0  0  0
   10.2568  -17.1161   28.8169 O   0  0  0  0  0  0  0  0  0  0  0  0
   10.4106  -18.1540   29.7113 O   0  0  0  0  0  0  0  0  0  0  0  0
  2  3  2  0
  2  1  1  0
  4  2  1  0
  5  6  1  0
  5  4  1  0
  6  7  1  0
  7  8  1  0
  8  9  1  6
 10 11  2  0
 10  8  1  0
 13 14  1  0
 13 12  1  0
 14 16  1  0
 14 15  1  6
 16 17  1  1
 17 10  1  0
 18 16  1  0
 19 18  2  0
 21 20  1  0
 22 21  1  6
 22 23  1  0
 23 18  1  0
 24 22  1  0
 25 24  1  0
 26 24  2  0
M  END
$$$$
