RIS.pdb
     RDKit          3D

 26 25  0  0  1  0  0  0  0  0999 V2000
    7.4837  -14.9673   16.2319 N   0  0  0  0  0  0  0  0  0  0  0  0
    7.8707  -13.6261   16.3796 C   0  0  0  0  0  0  0  0  0  0  0  0
    8.2112  -12.8925   15.3550 N   0  0  0  0  0  0  0  0  0  0  0  0
    7.9074  -13.0088   17.6625 N   0  0  0  0  0  0  0  0  0  0  0  0
    7.4220  -13.7593   18.8006 C   0  0  0  0  0  0  0  0  0  0  0  0
    8.4405  -14.7925   19.2362 C   0  0  0  0  0  0  0  0  0  0  0  0
    8.9427  -14.4775   20.6221 C   0  0  0  0  0  0  0  0  0  0  0  0
    8.8762  -15.6616   21.5307 C   0  0  2  0  0  0  0  0  0  0  0  0
    7.5742  -16.2922   21.4312 N   0  0  0  0  0  0  0  0  0  0  0  0
    9.1527  -15.3089   22.9437 C   0  0  0  0  0  0  0  0  0  0  0  0
   10.2221  -14.7595   23.3113 O   0  0  0  0  0  0  0  0  0  0  0  0
    8.4990  -11.8963   15.4935 C   0  0  0  0  0  0  0  0  0  0  0  0
    6.1676  -12.1761   25.3020 C   0  0  0  0  0  0  0  0  0  0  0  0
    7.3939  -13.0078   25.0014 C   0  0  2  0  0  0  0  0  0  0  0  0
    7.4067  -14.3058   25.7497 C   0  0  0  0  0  0  0  0  0  0  0  0
    7.2637  -14.1203   27.2414 C   0  0  2  0  0  0  0  0  0  0  0  0
    8.4496  -15.2878   25.3713 N   0  0  0  0  0  0  0  0  0  0  0  0
    8.1965  -15.5871   23.9471 C   0  0  0  0  0  0  0  0  0  0  0  0
    8.5531  -16.5294   26.0793 O   0  0  0  0  0  0  0  0  0  0  0  0
    7.8903  -17.5271   25.6234 O   0  0  0  0  0  0  0  0  0  0  0  0
    7.2532  -18.4552   28.5231 C   0  0  0  0  0  0  0  0  0  0  0  0
    8.1643  -18.9599   27.6296 C   0  0  2  0  0  0  0  0  0  0  0  0
    9.4733  -18.1738   27.7149 N   0  0  0  0  0  0  0  0  0  0  0  0
    9.2995  -16.8212   27.2359 C   0  0  0  0  0  0  0  0  0  0  0  0
   10.4999  -18.8869   26.9300 O   0  0  0  0  0  0  0  0  0  0  0  0
   10.8299  -20.1808   27.2729 O   0  0  0  0  0  0  0  0  0  0  0  0
  2  3  2  0
  2  1  1  0
  4  2  1  0
  5  6  1  0
  5  4  1  0
  6  7  1  0
  7  8  1  0
  8  9  1  1
 10 11  2  0
 10  8  1  0
 13 14  1  0
 13 12  1  0
 14 16  1  0
 14 15  1  6
 16 17  1  1
 17 10  1  0
 18 16  1  0
 19 18  2  0
 21 20  1  0
 22 21  1  1
 22 23  1  0
 23 18  1  0
 24 22  1  0
 25 24  1  0
 26 24  2  0
M  END
$$$$
