RIS.pdb
     RDKit          3D

 26 25  0  0  1  0  0  0  0  0999 V2000
    6.6345  -19.2709   19.2969 N   0  0  0  0  0  0  0  0  0  0  0  0
    6.1841  -18.6438   18.1246 C   0  0  0  0  0  0  0  0  0  0  0  0
    5.1757  -19.1105   17.4398 N   0  0  0  0  0  0  0  0  0  0  0  0
    6.8145  -17.4651   17.6331 N   0  0  0  0  0  0  0  0  0  0  0  0
    8.0695  -17.0579   18.2272 C   0  0  0  0  0  0  0  0  0  0  0  0
    7.9588  -15.6660   18.8147 C   0  0  0  0  0  0  0  0  0  0  0  0
    7.4409  -15.7364   20.2285 C   0  0  0  0  0  0  0  0  0  0  0  0
    7.2396  -14.3817   20.8255 C   0  0  2  0  0  0  0  0  0  0  0  0
    7.6498  -13.3576   19.8843 N   0  0  0  0  0  0  0  0  0  0  0  0
    7.9739  -14.2091   22.1015 C   0  0  0  0  0  0  0  0  0  0  0  0
    9.1829  -13.8675   22.1503 O   0  0  0  0  0  0  0  0  0  0  0  0
    4.9022  -18.6630   16.5346 C   0  0  0  0  0  0  0  0  0  0  0  0
    5.4808  -11.6596   25.8537 C   0  0  0  0  0  0  0  0  0  0  0  0
    6.5568  -12.2502   24.9709 C   0  0  2  0  0  0  0  0  0  0  0  0
    7.0866  -13.5484   25.4993 C   0  0  0  0  0  0  0  0  0  0  0  0
    7.5457  -13.4498   26.9344 C   0  0  2  0  0  0  0  0  0  0  0  0
    8.0226  -14.2954   24.6270 N   0  0  0  0  0  0  0  0  0  0  0  0
    7.3193  -14.4295   23.3351 C   0  0  0  0  0  0  0  0  0  0  0  0
    8.4871  -15.5924   25.0219 O   0  0  0  0  0  0  0  0  0  0  0  0
    7.8392  -16.6097   24.5887 O   0  0  0  0  0  0  0  0  0  0  0  0
   12.1018  -17.8030   23.9908 C   0  0  0  0  0  0  0  0  0  0  0  0
   11.2102  -16.7851   24.2188 C   0  0  1  0  0  0  0  0  0  0  0  0
   10.4653  -17.0248   25.5326 N   0  0  0  0  0  0  0  0  0  0  0  0
    9.5841  -15.9208   25.8395 C   0  0  0  0  0  0  0  0  0  0  0  0
   11.4595  -17.2240   26.6052 O   0  0  0  0  0  0  0  0  0  0  0  0
   11.4883  -16.3449   27.6669 O   0  0  0  0  0  0  0  0  0  0  0  0
  2  3  2  0
  2  1  1  0
  4  2  1  0
  5  6  1  0
  5  4  1  0
  6  7  1  0
  7  8  1  0
  8  9  1  6
 10 11  2  0
 10  8  1  0
 13 14  1  0
 13 12  1  0
 14 16  1  0
 14 15  1  6
 16 17  1  6
 17 10  1  0
 18 16  1  0
 19 18  2  0
 21 20  1  0
 22 21  1  6
 22 23  1  0
 23 18  1  0
 24 22  1  0
 25 24  1  0
 26 24  2  0
M  END
$$$$
