RIS.pdb
     RDKit          3D

 26 25  0  0  1  0  0  0  0  0999 V2000
    7.7595  -14.7719   16.4090 N   0  0  0  0  0  0  0  0  0  0  0  0
    9.0487  -14.6222   16.9437 C   0  0  0  0  0  0  0  0  0  0  0  0
   10.0670  -15.2947   16.4803 N   0  0  0  0  0  0  0  0  0  0  0  0
    9.2979  -13.7241   18.0205 N   0  0  0  0  0  0  0  0  0  0  0  0
    8.1686  -13.0696   18.6452 C   0  0  0  0  0  0  0  0  0  0  0  0
    7.3415  -14.0632   19.4346 C   0  0  0  0  0  0  0  0  0  0  0  0
    7.3916  -13.7324   20.9043 C   0  0  0  0  0  0  0  0  0  0  0  0
    8.0956  -14.7847   21.6974 C   0  0  2  0  0  0  0  0  0  0  0  0
    7.1958  -15.8892   21.9675 N   0  0  0  0  0  0  0  0  0  0  0  0
    8.6420  -14.2633   22.9730 C   0  0  0  0  0  0  0  0  0  0  0  0
    9.5813  -13.4290   23.0206 O   0  0  0  0  0  0  0  0  0  0  0  0
   11.0116  -15.1860   16.9164 C   0  0  0  0  0  0  0  0  0  0  0  0
    5.6139  -11.9770   26.1247 C   0  0  0  0  0  0  0  0  0  0  0  0
    6.8629  -12.4689   25.4292 C   0  0  2  0  0  0  0  0  0  0  0  0
    7.5489  -13.5656   26.1855 C   0  0  0  0  0  0  0  0  0  0  0  0
    7.8579  -13.1842   27.6134 C   0  0  2  0  0  0  0  0  0  0  0  0
    8.6671  -14.2549   25.5003 N   0  0  0  0  0  0  0  0  0  0  0  0
    8.1089  -14.7003   24.2073 C   0  0  0  0  0  0  0  0  0  0  0  0
    9.3051  -15.3764   26.1239 O   0  0  0  0  0  0  0  0  0  0  0  0
    8.7232  -16.5144   26.0317 O   0  0  0  0  0  0  0  0  0  0  0  0
   10.3536  -18.2324   29.1494 C   0  0  0  0  0  0  0  0  0  0  0  0
    9.9140  -17.0915   28.5263 C   0  0  1  0  0  0  0  0  0  0  0  0
   10.9643  -16.6009   27.5289 N   0  0  0  0  0  0  0  0  0  0  0  0
   10.5140  -15.4107   26.8432 C   0  0  0  0  0  0  0  0  0  0  0  0
   11.2468  -17.6892   26.5727 O   0  0  0  0  0  0  0  0  0  0  0  0
   11.8381  -18.8481   27.0287 O   0  0  0  0  0  0  0  0  0  0  0  0
  2  3  2  0
  2  1  1  0
  4  2  1  0
  5  6  1  0
  5  4  1  0
  6  7  1  0
  7  8  1  0
  8  9  1  1
 10 11  2  0
 10  8  1  0
 13 14  1  0
 13 12  1  0
 14 16  1  0
 14 15  1  6
 16 17  1  6
 17 10  1  0
 18 16  1  0
 19 18  2  0
 21 20  1  0
 22 21  1  1
 22 23  1  0
 23 18  1  0
 24 22  1  0
 25 24  1  0
 26 24  2  0
M  END
$$$$
