LDL.pdb
     RDKit          3D

 25 24  0  0  1  0  0  0  0  0999 V2000
   29.0624  -22.0726  -13.5861 C   0  0  0  0  0  0  0  0  0  0  0  0
   29.1896  -20.6012  -13.8015 C   0  0  2  0  0  0  0  0  0  0  0  0
   29.6810  -19.9759  -12.5066 C   0  0  0  0  0  0  0  0  0  0  0  0
   27.8568  -19.9667  -14.1209 C   0  0  0  0  0  0  0  0  0  0  0  0
   27.2369  -20.4960  -15.3897 C   0  0  2  0  0  0  0  0  0  0  0  0
   27.9337  -20.0215  -16.5564 N   0  0  0  0  0  0  0  0  0  0  0  0
   25.8098  -20.1945  -15.5112 C   0  0  0  0  0  0  0  0  0  0  0  0
   25.4081  -19.0011  -15.6653 O   0  0  0  0  0  0  0  0  0  0  0  0
   24.7774  -21.1811  -15.4690 N   0  0  0  0  0  0  0  0  0  0  0  0
   23.3889  -20.8980  -15.4995 C   0  0  1  0  0  0  0  0  0  0  0  0
   22.7696  -21.4616  -16.7385 C   0  0  0  0  0  0  0  0  0  0  0  0
   21.3734  -21.0198  -16.9502 C   0  0  0  0  0  0  0  0  0  0  0  0
   20.3518  -21.6999  -16.6866 O   0  0  0  0  0  0  0  0  0  0  0  0
   22.6650  -21.2656  -14.2636 C   0  0  0  0  0  0  0  0  0  0  0  0
   22.6791  -22.4587  -13.8455 O   0  0  0  0  0  0  0  0  0  0  0  0
   21.1412  -19.7381  -17.4894 O   0  0  0  0  0  0  0  0  0  0  0  0
   23.8551  -19.8944   -9.5457 C   0  0  0  0  0  0  0  0  0  0  0  0
   23.1786  -20.5921  -10.6897 C   0  0  1  0  0  0  0  0  0  0  0  0
   22.9677  -22.0393  -10.2512 C   0  0  0  0  0  0  0  0  0  0  0  0
   21.8404  -20.0414  -11.0474 C   0  0  0  0  0  0  0  0  0  0  0  0
   21.2209  -20.6641  -12.2709 C   0  0  2  0  0  0  0  0  0  0  0  0
   21.9275  -20.3346  -13.4856 N   0  0  0  0  0  0  0  0  0  0  0  0
   19.7699  -20.4925  -12.3630 C   0  0  0  0  0  0  0  0  0  0  0  0
   19.0320  -20.8826  -11.4389 O   0  0  0  0  0  0  0  0  0  0  0  0
   19.1835  -19.9025  -13.4596 O   0  0  0  0  0  0  0  0  0  0  0  0
  2  1  1  1
  2  3  1  0
  4  5  1  0
  4  2  1  0
  5  6  1  6
  7  5  1  0
  7  8  2  0
  9  7  1  0
 10  9  1  0
 10 11  1  6
 12 11  1  0
 13 12  2  0
 14 10  1  0
 15 14  2  0
 16 12  1  0
 18 19  1  1
 18 17  1  0
 20 18  1  0
 21 20  1  1
 21 22  1  0
 22 14  1  0
 23 21  1  0
 24 23  2  0
 25 23  1  0
M  END
$$$$
