LDL.pdb
     RDKit          3D

 25 24  0  0  1  0  0  0  0  0999 V2000
   25.0549  -26.3493  -15.7497 C   0  0  0  0  0  0  0  0  0  0  0  0
   24.4369  -25.2345  -16.5261 C   0  0  2  0  0  0  0  0  0  0  0  0
   25.5505  -24.3148  -16.9985 C   0  0  0  0  0  0  0  0  0  0  0  0
   23.5111  -24.4039  -15.6693 C   0  0  0  0  0  0  0  0  0  0  0  0
   22.4018  -25.2098  -15.0413 C   0  0  2  0  0  0  0  0  0  0  0  0
   21.5852  -25.8515  -16.0379 N   0  0  0  0  0  0  0  0  0  0  0  0
   21.5548  -24.4304  -14.1372 C   0  0  0  0  0  0  0  0  0  0  0  0
   22.0616  -23.7648  -13.1834 O   0  0  0  0  0  0  0  0  0  0  0  0
   20.1323  -24.3514  -14.2429 N   0  0  0  0  0  0  0  0  0  0  0  0
   19.2964  -23.6250  -13.3583 C   0  0  1  0  0  0  0  0  0  0  0  0
   18.3730  -22.7348  -14.1272 C   0  0  0  0  0  0  0  0  0  0  0  0
   17.5129  -21.8952  -13.2642 C   0  0  0  0  0  0  0  0  0  0  0  0
   17.6400  -21.7675  -12.0220 O   0  0  0  0  0  0  0  0  0  0  0  0
   18.6035  -24.4587  -12.3525 C   0  0  0  0  0  0  0  0  0  0  0  0
   17.9938  -25.5092  -12.7037 O   0  0  0  0  0  0  0  0  0  0  0  0
   16.4591  -21.1697  -13.8562 O   0  0  0  0  0  0  0  0  0  0  0  0
   18.4207  -26.9828   -7.4846 C   0  0  0  0  0  0  0  0  0  0  0  0
   17.8745  -25.5854   -7.5256 C   0  0  1  0  0  0  0  0  0  0  0  0
   18.2057  -24.9508   -6.1770 C   0  0  0  0  0  0  0  0  0  0  0  0
   18.4725  -24.7168   -8.5792 C   0  0  0  0  0  0  0  0  0  0  0  0
   17.9261  -24.9547   -9.9623 C   0  0  2  0  0  0  0  0  0  0  0  0
   18.5756  -24.1478  -10.9674 N   0  0  0  0  0  0  0  0  0  0  0  0
   16.4642  -24.9387  -10.0416 C   0  0  0  0  0  0  0  0  0  0  0  0
   15.8302  -26.0046  -10.1527 O   0  0  0  0  0  0  0  0  0  0  0  0
   15.7543  -23.7604   -9.9966 O   0  0  0  0  0  0  0  0  0  0  0  0
  2  1  1  1
  2  3  1  0
  4  5  1  0
  4  2  1  0
  5  6  1  6
  7  5  1  0
  7  8  2  0
  9  7  1  0
 10  9  1  0
 10 11  1  6
 12 11  1  0
 13 12  2  0
 14 10  1  0
 15 14  2  0
 16 12  1  0
 18 19  1  1
 18 17  1  0
 20 18  1  0
 21 20  1  1
 21 22  1  0
 22 14  1  0
 23 21  1  0
 24 23  2  0
 25 23  1  0
M  END
$$$$
