LDL.pdb
     RDKit          3D

 25 24  0  0  1  0  0  0  0  0999 V2000
   20.9645  -12.2467  -20.8204 C   0  0  0  0  0  0  0  0  0  0  0  0
   19.7039  -12.5715  -20.0903 C   0  0  2  0  0  0  0  0  0  0  0  0
   18.8258  -13.4017  -21.0117 C   0  0  0  0  0  0  0  0  0  0  0  0
   18.9247  -11.3258  -19.7408 C   0  0  0  0  0  0  0  0  0  0  0  0
   19.6945  -10.3716  -18.8627 C   0  0  2  0  0  0  0  0  0  0  0  0
   20.0550  -10.9804  -17.6093 N   0  0  0  0  0  0  0  0  0  0  0  0
   18.9920   -9.1117  -18.6148 C   0  0  0  0  0  0  0  0  0  0  0  0
   18.5148   -8.4333  -19.5747 O   0  0  0  0  0  0  0  0  0  0  0  0
   18.7874   -8.5521  -17.3163 N   0  0  0  0  0  0  0  0  0  0  0  0
   18.1464   -7.3135  -17.0633 C   0  0  1  0  0  0  0  0  0  0  0  0
   17.6038   -7.2829  -15.6700 C   0  0  0  0  0  0  0  0  0  0  0  0
   16.4707   -8.2111  -15.4607 C   0  0  0  0  0  0  0  0  0  0  0  0
   15.5258   -8.3922  -16.2669 O   0  0  0  0  0  0  0  0  0  0  0  0
   18.9605   -6.1261  -17.4009 C   0  0  0  0  0  0  0  0  0  0  0  0
   20.1819   -6.0759  -17.0782 O   0  0  0  0  0  0  0  0  0  0  0  0
   16.4216   -8.9651  -14.2706 O   0  0  0  0  0  0  0  0  0  0  0  0
   21.6166   -2.6366  -20.1745 C   0  0  0  0  0  0  0  0  0  0  0  0
   20.1447   -2.3436  -20.2019 C   0  0  1  0  0  0  0  0  0  0  0  0
   19.8092   -1.9429  -21.6365 C   0  0  0  0  0  0  0  0  0  0  0  0
   19.2752   -3.5035  -19.8545 C   0  0  0  0  0  0  0  0  0  0  0  0
   19.2003   -3.8020  -18.3802 C   0  0  2  0  0  0  0  0  0  0  0  0
   18.4441   -4.9963  -18.0886 N   0  0  0  0  0  0  0  0  0  0  0  0
   18.8352   -2.6512  -17.5520 C   0  0  0  0  0  0  0  0  0  0  0  0
   17.6938   -2.5681  -17.0613 O   0  0  0  0  0  0  0  0  0  0  0  0
   19.7304   -1.6382  -17.2934 O   0  0  0  0  0  0  0  0  0  0  0  0
  2  1  1  6
  2  3  1  0
  4  5  1  0
  4  2  1  0
  5  6  1  1
  7  5  1  0
  7  8  2  0
  9  7  1  0
 10  9  1  0
 10 11  1  1
 12 11  1  0
 13 12  2  0
 14 10  1  0
 15 14  2  0
 16 12  1  0
 18 19  1  6
 18 17  1  0
 20 18  1  0
 21 20  1  6
 21 22  1  0
 22 14  1  0
 23 21  1  0
 24 23  2  0
 25 23  1  0
M  END
$$$$
