LDL.pdb
     RDKit          3D

 25 24  0  0  1  0  0  0  0  0999 V2000
   31.1231  -22.3268  -12.6062 C   0  0  0  0  0  0  0  0  0  0  0  0
   30.7985  -20.9460  -12.1416 C   0  0  2  0  0  0  0  0  0  0  0  0
   30.9466  -20.9102  -10.6297 C   0  0  0  0  0  0  0  0  0  0  0  0
   29.3687  -20.5736  -12.4548 C   0  0  0  0  0  0  0  0  0  0  0  0
   29.0799  -20.5211  -13.9340 C   0  0  2  0  0  0  0  0  0  0  0  0
   29.8687  -19.5122  -14.5910 N   0  0  0  0  0  0  0  0  0  0  0  0
   27.6639  -20.3196  -14.2448 C   0  0  0  0  0  0  0  0  0  0  0  0
   27.1532  -19.1584  -14.2282 O   0  0  0  0  0  0  0  0  0  0  0  0
   26.7613  -21.3741  -14.5829 N   0  0  0  0  0  0  0  0  0  0  0  0
   25.3726  -21.2055  -14.8115 C   0  0  1  0  0  0  0  0  0  0  0  0
   24.9729  -21.8598  -16.0954 C   0  0  0  0  0  0  0  0  0  0  0  0
   23.5713  -21.5858  -16.4825 C   0  0  0  0  0  0  0  0  0  0  0  0
   22.8006  -20.7898  -15.8926 O   0  0  0  0  0  0  0  0  0  0  0  0
   24.5163  -21.5876  -13.6680 C   0  0  0  0  0  0  0  0  0  0  0  0
   24.8120  -22.5886  -12.9546 O   0  0  0  0  0  0  0  0  0  0  0  0
   23.0314  -22.2572  -17.5983 O   0  0  0  0  0  0  0  0  0  0  0  0
   22.9345  -21.7708   -8.9449 C   0  0  0  0  0  0  0  0  0  0  0  0
   23.3578  -20.4556   -9.5315 C   0  0  1  0  0  0  0  0  0  0  0  0
   24.5018  -19.9409   -8.6611 C   0  0  0  0  0  0  0  0  0  0  0  0
   23.8704  -20.5364  -10.9289 C   0  0  0  0  0  0  0  0  0  0  0  0
   22.8106  -20.8127  -11.9627 C   0  0  2  0  0  0  0  0  0  0  0  0
   23.3405  -20.8800  -13.3036 N   0  0  0  0  0  0  0  0  0  0  0  0
   21.6165  -19.9748  -11.8376 C   0  0  0  0  0  0  0  0  0  0  0  0
   20.8820  -20.0746  -10.8370 O   0  0  0  0  0  0  0  0  0  0  0  0
   21.2727  -19.0627  -12.8094 O   0  0  0  0  0  0  0  0  0  0  0  0
  2  1  1  1
  2  3  1  0
  4  5  1  0
  4  2  1  0
  5  6  1  1
  7  5  1  0
  7  8  2  0
  9  7  1  0
 10  9  1  0
 10 11  1  6
 12 11  1  0
 13 12  2  0
 14 10  1  0
 15 14  2  0
 16 12  1  0
 18 19  1  1
 18 17  1  0
 20 18  1  0
 21 20  1  1
 21 22  1  0
 22 14  1  0
 23 21  1  0
 24 23  2  0
 25 23  1  0
M  END
$$$$
