LDL.pdb
     RDKit          3D

 25 24  0  0  1  0  0  0  0  0999 V2000
   29.5270  -18.7141  -16.6729 C   0  0  0  0  0  0  0  0  0  0  0  0
   28.1729  -18.0898  -16.6094 C   0  0  2  0  0  0  0  0  0  0  0  0
   28.2703  -16.6913  -17.1959 C   0  0  0  0  0  0  0  0  0  0  0  0
   27.6940  -17.9394  -15.1849 C   0  0  0  0  0  0  0  0  0  0  0  0
   27.7247  -19.2324  -14.4093 C   0  0  2  0  0  0  0  0  0  0  0  0
   27.3289  -20.3488  -15.2270 N   0  0  0  0  0  0  0  0  0  0  0  0
   26.9134  -19.2012  -13.1915 C   0  0  0  0  0  0  0  0  0  0  0  0
   26.9819  -18.2207  -12.3894 O   0  0  0  0  0  0  0  0  0  0  0  0
   26.0039  -20.2346  -12.8096 N   0  0  0  0  0  0  0  0  0  0  0  0
   25.1324  -20.1707  -11.6937 C   0  0  1  0  0  0  0  0  0  0  0  0
   23.8132  -20.7913  -12.0269 C   0  0  0  0  0  0  0  0  0  0  0  0
   22.8129  -20.6612  -10.9443 C   0  0  0  0  0  0  0  0  0  0  0  0
   22.3517  -19.5766  -10.5124 O   0  0  0  0  0  0  0  0  0  0  0  0
   25.7172  -20.6790  -10.4341 C   0  0  0  0  0  0  0  0  0  0  0  0
   26.1827  -21.8529  -10.3737 O   0  0  0  0  0  0  0  0  0  0  0  0
   22.3208  -21.8309  -10.3305 O   0  0  0  0  0  0  0  0  0  0  0  0
   28.9129  -19.0000   -5.5782 C   0  0  0  0  0  0  0  0  0  0  0  0
   28.0469  -20.0052   -6.2801 C   0  0  1  0  0  0  0  0  0  0  0  0
   27.3260  -20.7932   -5.1889 C   0  0  0  0  0  0  0  0  0  0  0  0
   26.9994  -19.4137   -7.1604 C   0  0  0  0  0  0  0  0  0  0  0  0
   26.2238  -20.4232   -7.9651 C   0  0  2  0  0  0  0  0  0  0  0  0
   25.7941  -19.9091   -9.2436 N   0  0  0  0  0  0  0  0  0  0  0  0
   25.1686  -21.1067   -7.2150 C   0  0  0  0  0  0  0  0  0  0  0  0
   23.9764  -20.7843   -7.3738 O   0  0  0  0  0  0  0  0  0  0  0  0
   25.4574  -22.1137   -6.3223 O   0  0  0  0  0  0  0  0  0  0  0  0
  2  1  1  1
  2  3  1  0
  4  5  1  0
  4  2  1  0
  5  6  1  6
  7  5  1  0
  7  8  2  0
  9  7  1  0
 10  9  1  0
 10 11  1  6
 12 11  1  0
 13 12  2  0
 14 10  1  0
 15 14  2  0
 16 12  1  0
 18 19  1  1
 18 17  1  0
 20 18  1  0
 21 20  1  1
 21 22  1  0
 22 14  1  0
 23 21  1  0
 24 23  2  0
 25 23  1  0
M  END
$$$$
