LDL.pdb
     RDKit          3D

 25 24  0  0  1  0  0  0  0  0999 V2000
   18.3771  -20.6131    1.9652 C   0  0  0  0  0  0  0  0  0  0  0  0
   17.9599  -19.3018    1.3873 C   0  0  2  0  0  0  0  0  0  0  0  0
   19.1128  -18.7647    0.5557 C   0  0  0  0  0  0  0  0  0  0  0  0
   17.6788  -18.2813    2.4646 C   0  0  0  0  0  0  0  0  0  0  0  0
   16.5462  -18.6793    3.3775 C   0  0  2  0  0  0  0  0  0  0  0  0
   15.3291  -18.9040    2.6428 N   0  0  0  0  0  0  0  0  0  0  0  0
   16.3014  -17.7197    4.4552 C   0  0  0  0  0  0  0  0  0  0  0  0
   15.5047  -16.7463    4.2908 O   0  0  0  0  0  0  0  0  0  0  0  0
   16.9152  -17.7899    5.7434 N   0  0  0  0  0  0  0  0  0  0  0  0
   16.7024  -16.8586    6.7905 C   0  0  1  0  0  0  0  0  0  0  0  0
   16.0784  -17.5343    7.9697 C   0  0  0  0  0  0  0  0  0  0  0  0
   15.6991  -16.5975    9.0504 C   0  0  0  0  0  0  0  0  0  0  0  0
   15.4576  -15.3754    8.8963 O   0  0  0  0  0  0  0  0  0  0  0  0
   17.8917  -16.0521    7.1394 C   0  0  0  0  0  0  0  0  0  0  0  0
   19.0194  -16.6054    7.2833 O   0  0  0  0  0  0  0  0  0  0  0  0
   15.5926  -17.0879   10.3677 O   0  0  0  0  0  0  0  0  0  0  0  0
   18.8257  -11.1703    4.9806 C   0  0  0  0  0  0  0  0  0  0  0  0
   19.1228  -12.4853    5.6405 C   0  0  1  0  0  0  0  0  0  0  0  0
   20.5796  -12.8115    5.3205 C   0  0  0  0  0  0  0  0  0  0  0  0
   18.9897  -12.4778    7.1252 C   0  0  0  0  0  0  0  0  0  0  0  0
   18.9768  -13.8466    7.7532 C   0  0  2  0  0  0  0  0  0  0  0  0
   17.8515  -14.6457    7.3308 N   0  0  0  0  0  0  0  0  0  0  0  0
   19.1940  -13.8454    9.2010 C   0  0  0  0  0  0  0  0  0  0  0  0
   18.3307  -14.3155    9.9654 O   0  0  0  0  0  0  0  0  0  0  0  0
   20.3441  -13.3314    9.7554 O   0  0  0  0  0  0  0  0  0  0  0  0
  2  1  1  1
  2  3  1  0
  4  5  1  0
  4  2  1  0
  5  6  1  6
  7  5  1  0
  7  8  2  0
  9  7  1  0
 10  9  1  0
 10 11  1  1
 12 11  1  0
 13 12  2  0
 14 10  1  0
 15 14  2  0
 16 12  1  0
 18 19  1  1
 18 17  1  0
 20 18  1  0
 21 20  1  1
 21 22  1  0
 22 14  1  0
 23 21  1  0
 24 23  2  0
 25 23  1  0
M  END
$$$$
