LDL.pdb
     RDKit          3D

 25 24  0  0  1  0  0  0  0  0999 V2000
   18.0661  -13.7689    2.5645 C   0  0  0  0  0  0  0  0  0  0  0  0
   17.9883  -12.9621    3.8178 C   0  0  2  0  0  0  0  0  0  0  0  0
   19.1906  -12.0337    3.8564 C   0  0  0  0  0  0  0  0  0  0  0  0
   18.0635  -13.8344    5.0485 C   0  0  0  0  0  0  0  0  0  0  0  0
   16.9355  -14.8313    5.1386 C   0  0  2  0  0  0  0  0  0  0  0  0
   15.6717  -14.1806    5.3647 N   0  0  0  0  0  0  0  0  0  0  0  0
   17.1483  -15.8620    6.1558 C   0  0  0  0  0  0  0  0  0  0  0  0
   17.0509  -15.5871    7.3905 O   0  0  0  0  0  0  0  0  0  0  0  0
   17.4731  -17.2217    5.8612 N   0  0  0  0  0  0  0  0  0  0  0  0
   17.8155  -18.1977    6.8302 C   0  0  1  0  0  0  0  0  0  0  0  0
   17.3241  -19.5456    6.4080 C   0  0  0  0  0  0  0  0  0  0  0  0
   15.8833  -19.7546    6.6725 C   0  0  0  0  0  0  0  0  0  0  0  0
   15.1648  -19.0151    7.3884 O   0  0  0  0  0  0  0  0  0  0  0  0
   19.2408  -18.1911    7.2242 C   0  0  0  0  0  0  0  0  0  0  0  0
   20.1469  -18.1412    6.3440 O   0  0  0  0  0  0  0  0  0  0  0  0
   15.2396  -20.8639    6.0875 O   0  0  0  0  0  0  0  0  0  0  0  0
   23.9561  -16.8181    9.0195 C   0  0  0  0  0  0  0  0  0  0  0  0
   22.9256  -16.9987   10.0958 C   0  0  1  0  0  0  0  0  0  0  0  0
   23.0879  -15.8205   11.0533 C   0  0  0  0  0  0  0  0  0  0  0  0
   21.5155  -16.9820    9.6129 C   0  0  0  0  0  0  0  0  0  0  0  0
   21.0601  -18.2731    8.9854 C   0  0  2  0  0  0  0  0  0  0  0  0
   19.6768  -18.2387    8.5747 N   0  0  0  0  0  0  0  0  0  0  0  0
   21.4245  -19.4711    9.7440 C   0  0  0  0  0  0  0  0  0  0  0  0
   22.3581  -20.1988    9.3574 O   0  0  0  0  0  0  0  0  0  0  0  0
   20.7552  -19.8261   10.8931 O   0  0  0  0  0  0  0  0  0  0  0  0
  2  1  1  6
  2  3  1  0
  4  5  1  0
  4  2  1  0
  5  6  1  1
  7  5  1  0
  7  8  2  0
  9  7  1  0
 10  9  1  0
 10 11  1  6
 12 11  1  0
 13 12  2  0
 14 10  1  0
 15 14  2  0
 16 12  1  0
 18 19  1  1
 18 17  1  0
 20 18  1  0
 21 20  1  1
 21 22  1  0
 22 14  1  0
 23 21  1  0
 24 23  2  0
 25 23  1  0
M  END
$$$$
