LDL.pdb
     RDKit          3D

 25 24  0  0  1  0  0  0  0  0999 V2000
   28.4513  -11.3924  -15.7617 C   0  0  0  0  0  0  0  0  0  0  0  0
   27.2179  -12.0779  -16.2477 C   0  0  2  0  0  0  0  0  0  0  0  0
   27.5802  -12.8766  -17.4888 C   0  0  0  0  0  0  0  0  0  0  0  0
   26.1526  -11.0876  -16.6547 C   0  0  0  0  0  0  0  0  0  0  0  0
   24.7543  -11.6415  -16.5429 C   0  0  2  0  0  0  0  0  0  0  0  0
   24.5288  -12.7025  -17.4890 N   0  0  0  0  0  0  0  0  0  0  0  0
   23.7113  -10.6244  -16.6849 C   0  0  0  0  0  0  0  0  0  0  0  0
   23.3627  -10.2060  -17.8307 O   0  0  0  0  0  0  0  0  0  0  0  0
   23.0166  -10.0323  -15.5860 N   0  0  0  0  0  0  0  0  0  0  0  0
   22.0226   -9.0290  -15.7059 C   0  0  1  0  0  0  0  0  0  0  0  0
   20.8205   -9.3867  -14.8914 C   0  0  0  0  0  0  0  0  0  0  0  0
   20.1825  -10.6539  -15.3117 C   0  0  0  0  0  0  0  0  0  0  0  0
   20.1201  -11.6974  -14.6167 O   0  0  0  0  0  0  0  0  0  0  0  0
   22.5107   -7.6554  -15.4575 C   0  0  0  0  0  0  0  0  0  0  0  0
   23.3203   -7.4257  -14.5140 O   0  0  0  0  0  0  0  0  0  0  0  0
   19.5896  -10.7247  -16.5886 O   0  0  0  0  0  0  0  0  0  0  0  0
   24.0361   -2.5793  -17.0806 C   0  0  0  0  0  0  0  0  0  0  0  0
   22.5706   -2.8189  -16.8622 C   0  0  1  0  0  0  0  0  0  0  0  0
   21.8334   -1.9557  -17.8833 C   0  0  0  0  0  0  0  0  0  0  0  0
   22.1336   -4.2274  -17.0797 C   0  0  0  0  0  0  0  0  0  0  0  0
   22.5325   -5.1766  -15.9806 C   0  0  2  0  0  0  0  0  0  0  0  0
   22.1167   -6.5351  -16.2358 N   0  0  0  0  0  0  0  0  0  0  0  0
   22.2153   -4.7021  -14.6324 C   0  0  0  0  0  0  0  0  0  0  0  0
   21.0784   -4.8789  -14.1562 O   0  0  0  0  0  0  0  0  0  0  0  0
   23.1515   -4.0539  -13.8592 O   0  0  0  0  0  0  0  0  0  0  0  0
  2  1  1  6
  2  3  1  0
  4  5  1  0
  4  2  1  0
  5  6  1  6
  7  5  1  0
  7  8  2  0
  9  7  1  0
 10  9  1  0
 10 11  1  1
 12 11  1  0
 13 12  2  0
 14 10  1  0
 15 14  2  0
 16 12  1  0
 18 19  1  6
 18 17  1  0
 20 18  1  0
 21 20  1  6
 21 22  1  0
 22 14  1  0
 23 21  1  0
 24 23  2  0
 25 23  1  0
M  END
$$$$
