LDL.pdb
     RDKit          3D

 25 24  0  0  1  0  0  0  0  0999 V2000
   28.8415  -16.8741  -17.7757 C   0  0  0  0  0  0  0  0  0  0  0  0
   27.7816  -15.8762  -18.1050 C   0  0  2  0  0  0  0  0  0  0  0  0
   28.3543  -14.4872  -17.8768 C   0  0  0  0  0  0  0  0  0  0  0  0
   26.5830  -16.0149  -17.1966 C   0  0  0  0  0  0  0  0  0  0  0  0
   25.9319  -17.3729  -17.2772 C   0  0  2  0  0  0  0  0  0  0  0  0
   25.6666  -17.7519  -18.6401 N   0  0  0  0  0  0  0  0  0  0  0  0
   24.7036  -17.4782  -16.4882 C   0  0  0  0  0  0  0  0  0  0  0  0
   24.3904  -16.5795  -15.6493 O   0  0  0  0  0  0  0  0  0  0  0  0
   23.7794  -18.5631  -16.5879 N   0  0  0  0  0  0  0  0  0  0  0  0
   22.5810  -18.6736  -15.8393 C   0  0  1  0  0  0  0  0  0  0  0  0
   21.3950  -18.6635  -16.7503 C   0  0  0  0  0  0  0  0  0  0  0  0
   20.1041  -18.7680  -16.0347 C   0  0  0  0  0  0  0  0  0  0  0  0
   19.7667  -18.0716  -15.0463 O   0  0  0  0  0  0  0  0  0  0  0  0
   22.5675  -19.7929  -14.8729 C   0  0  0  0  0  0  0  0  0  0  0  0
   23.0220  -20.9261  -15.2011 O   0  0  0  0  0  0  0  0  0  0  0  0
   19.1584  -19.7160  -16.4753 O   0  0  0  0  0  0  0  0  0  0  0  0
   25.3638  -20.7792  -10.6847 C   0  0  0  0  0  0  0  0  0  0  0  0
   24.3697  -21.0218  -11.7829 C   0  0  1  0  0  0  0  0  0  0  0  0
   24.3348  -22.5312  -12.0103 C   0  0  0  0  0  0  0  0  0  0  0  0
   22.9780  -20.5926  -11.4651 C   0  0  0  0  0  0  0  0  0  0  0  0
   22.0031  -20.7606  -12.6007 C   0  0  2  0  0  0  0  0  0  0  0  0
   22.0597  -19.6766  -13.5521 N   0  0  0  0  0  0  0  0  0  0  0  0
   20.6453  -21.1110  -12.1799 C   0  0  0  0  0  0  0  0  0  0  0  0
   19.7252  -20.2771  -12.2715 O   0  0  0  0  0  0  0  0  0  0  0  0
   20.3472  -22.3568  -11.6764 O   0  0  0  0  0  0  0  0  0  0  0  0
  2  1  1  1
  2  3  1  0
  4  5  1  0
  4  2  1  0
  5  6  1  6
  7  5  1  0
  7  8  2  0
  9  7  1  0
 10  9  1  0
 10 11  1  6
 12 11  1  0
 13 12  2  0
 14 10  1  0
 15 14  2  0
 16 12  1  0
 18 19  1  1
 18 17  1  0
 20 18  1  0
 21 20  1  1
 21 22  1  0
 22 14  1  0
 23 21  1  0
 24 23  2  0
 25 23  1  0
M  END
$$$$
