LDL.pdb
     RDKit          3D

 25 24  0  0  1  0  0  0  0  0999 V2000
   29.0073  -17.6393  -17.6395 C   0  0  0  0  0  0  0  0  0  0  0  0
   27.7033  -17.2445  -18.2489 C   0  0  2  0  0  0  0  0  0  0  0  0
   27.8294  -15.8144  -18.7471 C   0  0  0  0  0  0  0  0  0  0  0  0
   26.5849  -17.2620  -17.2339 C   0  0  0  0  0  0  0  0  0  0  0  0
   26.4980  -18.5592  -16.4697 C   0  0  2  0  0  0  0  0  0  0  0  0
   27.1020  -19.6436  -17.1984 N   0  0  0  0  0  0  0  0  0  0  0  0
   25.1318  -18.9214  -16.0894 C   0  0  0  0  0  0  0  0  0  0  0  0
   24.4032  -18.1146  -15.4354 O   0  0  0  0  0  0  0  0  0  0  0  0
   24.5173  -20.1710  -16.4087 N   0  0  0  0  0  0  0  0  0  0  0  0
   23.2146  -20.5562  -16.0044 C   0  0  1  0  0  0  0  0  0  0  0  0
   22.5857  -21.4330  -17.0399 C   0  0  0  0  0  0  0  0  0  0  0  0
   22.5880  -20.8366  -18.3941 C   0  0  0  0  0  0  0  0  0  0  0  0
   21.8709  -19.8741  -18.7616 O   0  0  0  0  0  0  0  0  0  0  0  0
   23.1421  -21.1185  -14.6386 C   0  0  0  0  0  0  0  0  0  0  0  0
   24.1754  -21.5964  -14.0886 O   0  0  0  0  0  0  0  0  0  0  0  0
   23.4538  -21.3709  -19.3698 O   0  0  0  0  0  0  0  0  0  0  0  0
   24.9336  -20.3017  -10.2828 C   0  0  0  0  0  0  0  0  0  0  0  0
   23.9501  -20.9945  -11.1804 C   0  0  1  0  0  0  0  0  0  0  0  0
   23.0128  -21.7835  -10.2693 C   0  0  0  0  0  0  0  0  0  0  0  0
   23.1028  -20.0783  -11.9957 C   0  0  0  0  0  0  0  0  0  0  0  0
   21.8325  -20.7027  -12.5102 C   0  0  2  0  0  0  0  0  0  0  0  0
   21.9460  -21.1596  -13.8746 N   0  0  0  0  0  0  0  0  0  0  0  0
   20.6265  -19.9158  -12.2460 C   0  0  0  0  0  0  0  0  0  0  0  0
   20.1675  -19.1580  -13.1210 O   0  0  0  0  0  0  0  0  0  0  0  0
   19.9708  -19.9879  -11.0380 O   0  0  0  0  0  0  0  0  0  0  0  0
  2  1  1  1
  2  3  1  0
  4  5  1  0
  4  2  1  0
  5  6  1  6
  7  5  1  0
  7  8  2  0
  9  7  1  0
 10  9  1  0
 10 11  1  6
 12 11  1  0
 13 12  2  0
 14 10  1  0
 15 14  2  0
 16 12  1  0
 18 19  1  1
 18 17  1  0
 20 18  1  0
 21 20  1  6
 21 22  1  0
 22 14  1  0
 23 21  1  0
 24 23  2  0
 25 23  1  0
M  END
$$$$
