TYQ.pdb
     RDKit          3D

 29 29  0  0  1  0  0  0  0  0999 V2000
    8.5279  -19.4443   19.1818 C   0  0  0  0  0  0  0  0  0  0  0  0
    9.5720  -18.7255   20.0154 C   0  0  1  0  0  0  0  0  0  0  0  0
   10.8242  -19.3088   19.8773 O   0  0  0  0  0  0  0  0  0  0  0  0
    9.5888  -17.2501   19.7538 C   0  0  2  0  0  0  0  0  0  0  0  0
   10.7426  -16.9823   18.8870 N   0  0  0  0  0  0  0  0  0  0  0  0
    9.6727  -16.4293   20.9818 C   0  0  0  0  0  0  0  0  0  0  0  0
   10.7693  -16.2764   21.6196 O   0  0  0  0  0  0  0  0  0  0  0  0
    6.4847  -11.9048   27.9920 O   0  0  0  0  0  0  0  0  0  0  0  0
    6.6816  -12.5097   26.7625 C   0  0  0  0  0  0  0  0  0  0  0  0
    6.0157  -13.6606   26.4112 C   0  0  0  0  0  0  0  0  0  0  0  0
    6.2300  -14.2559   25.1620 C   0  0  0  0  0  0  0  0  0  0  0  0
    7.1082  -13.7092   24.2553 C   0  0  0  0  0  0  0  0  0  0  0  0
    7.3294  -14.3342   22.9575 C   0  0  0  0  0  0  0  0  0  0  0  0
    8.6145  -15.1292   22.8484 C   0  0  2  0  0  0  0  0  0  0  0  0
    8.5569  -15.7667   21.5249 N   0  0  0  0  0  0  0  0  0  0  0  0
    8.7937  -16.1218   23.9134 C   0  0  0  0  0  0  0  0  0  0  0  0
    7.9962  -17.0911   23.9948 O   0  0  0  0  0  0  0  0  0  0  0  0
    7.7670  -12.5591   24.6193 C   0  0  0  0  0  0  0  0  0  0  0  0
    7.5594  -11.9604   25.8606 C   0  0  0  0  0  0  0  0  0  0  0  0
   13.4807  -19.1353   25.3358 N   0  0  0  0  0  0  0  0  0  0  0  0
   12.5701  -19.2034   24.2543 C   0  0  0  0  0  0  0  0  0  0  0  0
   12.8311  -19.8128   23.2044 O   0  0  0  0  0  0  0  0  0  0  0  0
   11.2526  -18.4984   24.4268 C   0  0  0  0  0  0  0  0  0  0  0  0
   11.1853  -17.8191   25.7653 C   0  0  0  0  0  0  0  0  0  0  0  0
    9.9281  -17.0439   25.9209 C   0  0  2  0  0  0  0  0  0  0  0  0
    9.8313  -16.0263   24.8504 N   0  0  0  0  0  0  0  0  0  0  0  0
    9.8781  -16.3147   27.1999 C   0  0  0  0  0  0  0  0  0  0  0  0
    9.8666  -16.9635   28.3037 O   0  0  0  0  0  0  0  0  0  0  0  0
    9.8436  -14.9415   27.3449 O   0  0  0  0  0  0  0  0  0  0  0  0
  2  1  1  6
  2  4  1  0
  2  3  1  0
  4  6  1  0
  4  5  1  6
  6  7  2  0
  9  8  1  0
  9 19  2  0
 10  9  1  0
 11 10  2  0
 11 12  1  0
 12 18  2  0
 13 12  1  0
 14 13  1  1
 14 16  1  0
 15 14  1  0
 15  6  1  0
 16 17  2  0
 18 19  1  0
 20 21  1  0
 21 22  2  0
 23 21  1  0
 23 24  1  0
 25 24  1  6
 25 27  1  0
 26 16  1  0
 26 25  1  0
 27 28  2  0
 27 29  1  0
M  END
$$$$
