TYQ.pdb
     RDKit          3D

 29 29  0  0  1  0  0  0  0  0999 V2000
    8.1526  -18.7024   18.2865 C   0  0  0  0  0  0  0  0  0  0  0  0
    8.4331  -18.0790   19.6410 C   0  0  1  0  0  0  0  0  0  0  0  0
    9.3279  -18.8428   20.3780 O   0  0  0  0  0  0  0  0  0  0  0  0
    8.8519  -16.6446   19.5290 C   0  0  2  0  0  0  0  0  0  0  0  0
   10.0893  -16.6204   18.7400 N   0  0  0  0  0  0  0  0  0  0  0  0
    9.0675  -15.9842   20.8352 C   0  0  0  0  0  0  0  0  0  0  0  0
   10.2145  -15.9562   21.3977 O   0  0  0  0  0  0  0  0  0  0  0  0
    6.8468  -11.6583   28.3298 O   0  0  0  0  0  0  0  0  0  0  0  0
    6.9010  -12.2071   27.0601 C   0  0  0  0  0  0  0  0  0  0  0  0
    7.6930  -11.6658   26.0747 C   0  0  0  0  0  0  0  0  0  0  0  0
    7.7327  -12.2373   24.7970 C   0  0  0  0  0  0  0  0  0  0  0  0
    6.9845  -13.3508   24.4927 C   0  0  0  0  0  0  0  0  0  0  0  0
    7.0278  -13.9401   23.1605 C   0  0  0  0  0  0  0  0  0  0  0  0
    8.2414  -14.8058   22.8901 C   0  0  2  0  0  0  0  0  0  0  0  0
    8.0299  -15.3473   21.5398 N   0  0  0  0  0  0  0  0  0  0  0  0
    8.4396  -15.8776   23.8717 C   0  0  0  0  0  0  0  0  0  0  0  0
    7.6556  -16.8612   23.8790 O   0  0  0  0  0  0  0  0  0  0  0  0
    6.1976  -13.8814   25.4867 C   0  0  0  0  0  0  0  0  0  0  0  0
    6.1523  -13.3188   26.7610 C   0  0  0  0  0  0  0  0  0  0  0  0
   12.3965  -19.3466   23.3172 N   0  0  0  0  0  0  0  0  0  0  0  0
   12.3841  -19.6931   24.6896 C   0  0  0  0  0  0  0  0  0  0  0  0
   12.8185  -20.7800   25.1036 O   0  0  0  0  0  0  0  0  0  0  0  0
   11.8155  -18.6787   25.6437 C   0  0  0  0  0  0  0  0  0  0  0  0
   11.2420  -17.5089   24.8952 C   0  0  0  0  0  0  0  0  0  0  0  0
    9.9205  -17.1069   25.4411 C   0  0  2  0  0  0  0  0  0  0  0  0
    9.4809  -15.8429   24.8089 N   0  0  0  0  0  0  0  0  0  0  0  0
    9.9701  -16.8564   26.8918 C   0  0  0  0  0  0  0  0  0  0  0  0
   10.2339  -15.6815   27.3273 O   0  0  0  0  0  0  0  0  0  0  0  0
    9.7494  -17.7951   27.8808 O   0  0  0  0  0  0  0  0  0  0  0  0
  2  1  1  6
  2  4  1  0
  2  3  1  0
  4  6  1  0
  4  5  1  6
  6  7  2  0
  9  8  1  0
  9 19  2  0
 10  9  1  0
 11 10  2  0
 11 12  1  0
 12 18  2  0
 13 12  1  0
 14 13  1  1
 14 16  1  0
 15 14  1  0
 15  6  1  0
 16 17  2  0
 18 19  1  0
 20 21  1  0
 21 22  2  0
 23 21  1  0
 23 24  1  0
 25 24  1  6
 25 27  1  0
 26 16  1  0
 26 25  1  0
 27 28  2  0
 27 29  1  0
M  END
$$$$
