TYQ.pdb
     RDKit          3D

 29 29  0  0  1  0  0  0  0  0999 V2000
    6.7093  -14.9701   17.2446 C   0  0  0  0  0  0  0  0  0  0  0  0
    7.3700  -14.9652   18.6104 C   0  0  1  0  0  0  0  0  0  0  0  0
    8.7046  -15.3393   18.5321 O   0  0  0  0  0  0  0  0  0  0  0  0
    7.1746  -13.6654   19.3299 C   0  0  2  0  0  0  0  0  0  0  0  0
    7.7166  -12.6113   18.4642 N   0  0  0  0  0  0  0  0  0  0  0  0
    7.8238  -13.6176   20.6584 C   0  0  0  0  0  0  0  0  0  0  0  0
    9.0736  -13.3878   20.7926 O   0  0  0  0  0  0  0  0  0  0  0  0
    8.5399  -14.0985   29.5371 O   0  0  0  0  0  0  0  0  0  0  0  0
    8.1078  -13.9833   28.2270 C   0  0  0  0  0  0  0  0  0  0  0  0
    8.3686  -12.8594   27.4787 C   0  0  0  0  0  0  0  0  0  0  0  0
    7.9220  -12.7640   26.1550 C   0  0  0  0  0  0  0  0  0  0  0  0
    7.2132  -13.7867   25.5685 C   0  0  0  0  0  0  0  0  0  0  0  0
    6.7485  -13.6812   24.1912 C   0  0  0  0  0  0  0  0  0  0  0  0
    7.8051  -13.9647   23.1431 C   0  0  2  0  0  0  0  0  0  0  0  0
    7.1119  -13.8207   21.8547 N   0  0  0  0  0  0  0  0  0  0  0  0
    8.4310  -15.2853   23.2695 C   0  0  0  0  0  0  0  0  0  0  0  0
    7.7875  -16.3094   22.9239 O   0  0  0  0  0  0  0  0  0  0  0  0
    6.9595  -14.9040   26.3276 C   0  0  0  0  0  0  0  0  0  0  0  0
    7.4005  -15.0069   27.6457 C   0  0  0  0  0  0  0  0  0  0  0  0
   12.8835  -17.5633   20.8959 N   0  0  0  0  0  0  0  0  0  0  0  0
   12.9669  -18.5114   21.9435 C   0  0  0  0  0  0  0  0  0  0  0  0
   13.5493  -19.5997   21.8088 O   0  0  0  0  0  0  0  0  0  0  0  0
   12.3131  -18.1456   23.2479 C   0  0  0  0  0  0  0  0  0  0  0  0
   11.6450  -16.8035   23.1487 C   0  0  0  0  0  0  0  0  0  0  0  0
   10.3182  -16.8041   23.8164 C   0  0  2  0  0  0  0  0  0  0  0  0
    9.7316  -15.4461   23.7659 N   0  0  0  0  0  0  0  0  0  0  0  0
   10.4115  -17.1691   25.2404 C   0  0  0  0  0  0  0  0  0  0  0  0
   10.9106  -18.2990   25.5776 O   0  0  0  0  0  0  0  0  0  0  0  0
   10.0023  -16.3865   26.3025 O   0  0  0  0  0  0  0  0  0  0  0  0
  2  1  1  6
  2  4  1  0
  2  3  1  0
  4  6  1  0
  4  5  1  6
  6  7  2  0
  9  8  1  0
  9 19  2  0
 10  9  1  0
 11 10  2  0
 11 12  1  0
 12 18  2  0
 13 12  1  0
 14 13  1  1
 14 16  1  0
 15 14  1  0
 15  6  1  0
 16 17  2  0
 18 19  1  0
 20 21  1  0
 21 22  2  0
 23 21  1  0
 23 24  1  0
 25 24  1  1
 25 27  1  0
 26 16  1  0
 26 25  1  0
 27 28  2  0
 27 29  1  0
M  END
$$$$
