TYQ.pdb
     RDKit          3D

 29 29  0  0  1  0  0  0  0  0999 V2000
    9.0033  -18.8244   18.0819 C   0  0  0  0  0  0  0  0  0  0  0  0
    9.2080  -18.1684   19.4345 C   0  0  1  0  0  0  0  0  0  0  0  0
   10.3257  -18.6758   20.0830 O   0  0  0  0  0  0  0  0  0  0  0  0
    9.2213  -16.6727   19.3429 C   0  0  2  0  0  0  0  0  0  0  0  0
   10.3189  -16.3092   18.4388 N   0  0  0  0  0  0  0  0  0  0  0  0
    9.3922  -15.9983   20.6485 C   0  0  0  0  0  0  0  0  0  0  0  0
   10.5283  -15.9257   21.2287 O   0  0  0  0  0  0  0  0  0  0  0  0
    6.8079  -12.0499   28.2307 O   0  0  0  0  0  0  0  0  0  0  0  0
    6.8917  -12.5682   26.9498 C   0  0  0  0  0  0  0  0  0  0  0  0
    6.0893  -13.6069   26.5392 C   0  0  0  0  0  0  0  0  0  0  0  0
    6.1908  -14.1159   25.2387 C   0  0  0  0  0  0  0  0  0  0  0  0
    7.0914  -13.5940   24.3393 C   0  0  0  0  0  0  0  0  0  0  0  0
    7.1946  -14.1292   22.9877 C   0  0  0  0  0  0  0  0  0  0  0  0
    8.4818  -14.8739   22.6982 C   0  0  2  0  0  0  0  0  0  0  0  0
    8.3211  -15.3961   21.3333 N   0  0  0  0  0  0  0  0  0  0  0  0
    8.7757  -15.9493   23.6515 C   0  0  0  0  0  0  0  0  0  0  0  0
    8.0877  -17.0020   23.6265 O   0  0  0  0  0  0  0  0  0  0  0  0
    7.8870  -12.5564   24.7627 C   0  0  0  0  0  0  0  0  0  0  0  0
    7.7924  -12.0441   26.0554 C   0  0  0  0  0  0  0  0  0  0  0  0
   13.9216  -18.4156   25.1851 N   0  0  0  0  0  0  0  0  0  0  0  0
   13.1762  -18.4191   23.9819 C   0  0  0  0  0  0  0  0  0  0  0  0
   13.6617  -18.7915   22.9016 O   0  0  0  0  0  0  0  0  0  0  0  0
   11.7502  -17.9469   24.0619 C   0  0  0  0  0  0  0  0  0  0  0  0
   11.4400  -17.4258   25.4366 C   0  0  0  0  0  0  0  0  0  0  0  0
   10.0330  -16.9612   25.5390 C   0  0  2  0  0  0  0  0  0  0  0  0
    9.8050  -15.8429   24.5965 N   0  0  0  0  0  0  0  0  0  0  0  0
    9.7115  -16.4507   26.8828 C   0  0  0  0  0  0  0  0  0  0  0  0
    9.4702  -15.2044   27.0506 O   0  0  0  0  0  0  0  0  0  0  0  0
    9.6355  -17.2068   28.0363 O   0  0  0  0  0  0  0  0  0  0  0  0
  2  1  1  6
  2  4  1  0
  2  3  1  0
  4  6  1  0
  4  5  1  6
  6  7  2  0
  9  8  1  0
  9 19  2  0
 10  9  1  0
 11 10  2  0
 11 12  1  0
 12 18  2  0
 13 12  1  0
 14 13  1  1
 14 16  1  0
 15 14  1  0
 15  6  1  0
 16 17  2  0
 18 19  1  0
 20 21  1  0
 21 22  2  0
 23 21  1  0
 23 24  1  0
 25 24  1  1
 25 27  1  0
 26 16  1  0
 26 25  1  0
 27 28  2  0
 27 29  1  0
M  END
$$$$
