TYQ.pdb
     RDKit          3D

 29 29  0  0  1  0  0  0  0  0999 V2000
    7.0130  -17.9953   19.2065 C   0  0  0  0  0  0  0  0  0  0  0  0
    8.0097  -16.8998   18.8773 C   0  0  1  0  0  0  0  0  0  0  0  0
    8.2532  -16.8258   17.5125 O   0  0  0  0  0  0  0  0  0  0  0  0
    7.6166  -15.5797   19.4675 C   0  0  2  0  0  0  0  0  0  0  0  0
    8.0144  -14.5453   18.5052 N   0  0  0  0  0  0  0  0  0  0  0  0
    8.2303  -15.3116   20.7866 C   0  0  0  0  0  0  0  0  0  0  0  0
    9.4480  -14.9427   20.9036 O   0  0  0  0  0  0  0  0  0  0  0  0
    7.0351  -10.3318   27.2808 O   0  0  0  0  0  0  0  0  0  0  0  0
    7.0227  -11.5099   26.5540 C   0  0  0  0  0  0  0  0  0  0  0  0
    5.9825  -12.4044   26.6500 C   0  0  0  0  0  0  0  0  0  0  0  0
    5.9903  -13.5903   25.9054 C   0  0  0  0  0  0  0  0  0  0  0  0
    7.0333  -13.8927   25.0610 C   0  0  0  0  0  0  0  0  0  0  0  0
    7.0375  -15.1296   24.2903 C   0  0  0  0  0  0  0  0  0  0  0  0
    8.1725  -15.2509   23.2940 C   0  0  2  0  0  0  0  0  0  0  0  0
    7.5175  -15.4443   21.9922 N   0  0  0  0  0  0  0  0  0  0  0  0
    9.1103  -16.3397   23.5884 C   0  0  0  0  0  0  0  0  0  0  0  0
    8.7533  -17.5307   23.3982 O   0  0  0  0  0  0  0  0  0  0  0  0
    8.0662  -12.9901   24.9747 C   0  0  0  0  0  0  0  0  0  0  0  0
    8.0661  -11.8075   25.7123 C   0  0  0  0  0  0  0  0  0  0  0  0
   16.0509  -18.3155   23.3835 N   0  0  0  0  0  0  0  0  0  0  0  0
   14.7366  -17.9182   23.0395 C   0  0  0  0  0  0  0  0  0  0  0  0
   14.4169  -17.6173   21.8781 O   0  0  0  0  0  0  0  0  0  0  0  0
   13.7247  -17.8735   24.1515 C   0  0  0  0  0  0  0  0  0  0  0  0
   12.7221  -16.7802   23.9132 C   0  0  0  0  0  0  0  0  0  0  0  0
   11.3406  -17.2306   24.2207 C   0  0  2  0  0  0  0  0  0  0  0  0
   10.4005  -16.0961   24.0782 N   0  0  0  0  0  0  0  0  0  0  0  0
   11.2079  -17.7151   25.6054 C   0  0  0  0  0  0  0  0  0  0  0  0
   11.8845  -18.7307   25.9931 O   0  0  0  0  0  0  0  0  0  0  0  0
   10.3965  -17.1650   26.5785 O   0  0  0  0  0  0  0  0  0  0  0  0
  2  1  1  6
  2  4  1  0
  2  3  1  0
  4  6  1  0
  4  5  1  6
  6  7  2  0
  9  8  1  0
  9 19  2  0
 10  9  1  0
 11 10  2  0
 11 12  1  0
 12 18  2  0
 13 12  1  0
 14 13  1  1
 14 16  1  0
 15 14  1  0
 15  6  1  0
 16 17  2  0
 18 19  1  0
 20 21  1  0
 21 22  2  0
 23 21  1  0
 23 24  1  0
 25 24  1  1
 25 27  1  0
 26 16  1  0
 26 25  1  0
 27 28  2  0
 27 29  1  0
M  END
$$$$
