TYQ.pdb
     RDKit          3D

 29 29  0  0  1  0  0  0  0  0999 V2000
    9.9074  -19.2263   18.6595 C   0  0  0  0  0  0  0  0  0  0  0  0
    9.9249  -18.4744   19.9771 C   0  0  1  0  0  0  0  0  0  0  0  0
   10.9771  -18.8850   20.7843 O   0  0  0  0  0  0  0  0  0  0  0  0
    9.8903  -16.9890   19.7825 C   0  0  2  0  0  0  0  0  0  0  0  0
   11.0772  -16.6327   18.9960 N   0  0  0  0  0  0  0  0  0  0  0  0
    9.8694  -16.2236   21.0485 C   0  0  0  0  0  0  0  0  0  0  0  0
   10.9376  -15.9647   21.7000 O   0  0  0  0  0  0  0  0  0  0  0  0
    6.3764  -11.5524   27.8080 O   0  0  0  0  0  0  0  0  0  0  0  0
    6.6179  -12.2303   26.6254 C   0  0  0  0  0  0  0  0  0  0  0  0
    7.4223  -11.7014   25.6433 C   0  0  0  0  0  0  0  0  0  0  0  0
    7.6531  -12.4045   24.4546 C   0  0  0  0  0  0  0  0  0  0  0  0
    7.0848  -13.6381   24.2365 C   0  0  0  0  0  0  0  0  0  0  0  0
    7.3264  -14.3645   22.9964 C   0  0  0  0  0  0  0  0  0  0  0  0
    8.6748  -15.0507   22.9170 C   0  0  2  0  0  0  0  0  0  0  0  0
    8.6787  -15.7333   21.6149 N   0  0  0  0  0  0  0  0  0  0  0  0
    8.9314  -15.9896   24.0144 C   0  0  0  0  0  0  0  0  0  0  0  0
    8.2962  -17.0743   24.0604 O   0  0  0  0  0  0  0  0  0  0  0  0
    6.2831  -14.1548   25.2261 C   0  0  0  0  0  0  0  0  0  0  0  0
    6.0483  -13.4615   26.4121 C   0  0  0  0  0  0  0  0  0  0  0  0
   14.2930  -17.5480   25.7754 N   0  0  0  0  0  0  0  0  0  0  0  0
   13.5745  -17.8273   24.5883 C   0  0  0  0  0  0  0  0  0  0  0  0
   14.1298  -18.2442   23.5591 O   0  0  0  0  0  0  0  0  0  0  0  0
   12.0885  -17.5964   24.6204 C   0  0  0  0  0  0  0  0  0  0  0  0
   11.6645  -17.0522   25.9552 C   0  0  0  0  0  0  0  0  0  0  0  0
   10.2050  -16.7797   25.9945 C   0  0  2  0  0  0  0  0  0  0  0  0
    9.8675  -15.7171   25.0210 N   0  0  0  0  0  0  0  0  0  0  0  0
    9.7641  -16.2963   27.3142 C   0  0  0  0  0  0  0  0  0  0  0  0
    9.9234  -17.0334   28.3491 O   0  0  0  0  0  0  0  0  0  0  0  0
    9.1717  -15.0749   27.5695 O   0  0  0  0  0  0  0  0  0  0  0  0
  2  1  1  6
  2  4  1  0
  2  3  1  0
  4  6  1  0
  4  5  1  1
  6  7  2  0
  9  8  1  0
  9 19  2  0
 10  9  1  0
 11 10  2  0
 11 12  1  0
 12 18  2  0
 13 12  1  0
 14 13  1  1
 14 16  1  0
 15 14  1  0
 15  6  1  0
 16 17  2  0
 18 19  1  0
 20 21  1  0
 21 22  2  0
 23 21  1  0
 23 24  1  0
 25 24  1  1
 25 27  1  0
 26 16  1  0
 26 25  1  0
 27 28  2  0
 27 29  1  0
M  END
$$$$
