TYQ.pdb
     RDKit          3D

 29 29  0  0  1  0  0  0  0  0999 V2000
    9.8399  -20.3117   19.9398 C   0  0  0  0  0  0  0  0  0  0  0  0
    9.7547  -19.1569   20.9202 C   0  0  1  0  0  0  0  0  0  0  0  0
   11.0090  -18.7982   21.3950 O   0  0  0  0  0  0  0  0  0  0  0  0
    8.9931  -17.9938   20.3612 C   0  0  2  0  0  0  0  0  0  0  0  0
    9.5386  -17.7274   19.0249 N   0  0  0  0  0  0  0  0  0  0  0  0
    9.0718  -16.7749   21.1959 C   0  0  0  0  0  0  0  0  0  0  0  0
    9.9378  -15.8609   20.9783 O   0  0  0  0  0  0  0  0  0  0  0  0
    6.5218  -10.8910   27.4070 O   0  0  0  0  0  0  0  0  0  0  0  0
    6.6195  -11.9264   26.4935 C   0  0  0  0  0  0  0  0  0  0  0  0
    6.3535  -11.7359   25.1577 C   0  0  0  0  0  0  0  0  0  0  0  0
    6.4587  -12.7976   24.2507 C   0  0  0  0  0  0  0  0  0  0  0  0
    6.8291  -14.0549   24.6680 C   0  0  0  0  0  0  0  0  0  0  0  0
    6.9346  -15.1570   23.7202 C   0  0  0  0  0  0  0  0  0  0  0  0
    8.3034  -15.3234   23.0924 C   0  0  2  0  0  0  0  0  0  0  0  0
    8.2033  -16.5432   22.2780 N   0  0  0  0  0  0  0  0  0  0  0  0
    9.3977  -15.4173   24.0647 C   0  0  0  0  0  0  0  0  0  0  0  0
    9.7293  -14.3972   24.7218 O   0  0  0  0  0  0  0  0  0  0  0  0
    7.0919  -14.2314   26.0054 C   0  0  0  0  0  0  0  0  0  0  0  0
    6.9896  -13.1800   26.9146 C   0  0  0  0  0  0  0  0  0  0  0  0
   10.5113  -19.6798   28.0389 N   0  0  0  0  0  0  0  0  0  0  0  0
   10.4537  -20.0857   26.6841 C   0  0  0  0  0  0  0  0  0  0  0  0
   10.2141  -21.2578   26.3522 O   0  0  0  0  0  0  0  0  0  0  0  0
   10.6975  -19.0266   25.6441 C   0  0  0  0  0  0  0  0  0  0  0  0
   10.9346  -17.6916   26.2914 C   0  0  0  0  0  0  0  0  0  0  0  0
   11.1892  -16.6331   25.2811 C   0  0  2  0  0  0  0  0  0  0  0  0
   10.0917  -16.6140   24.2882 N   0  0  0  0  0  0  0  0  0  0  0  0
   12.4332  -16.8694   24.5283 C   0  0  0  0  0  0  0  0  0  0  0  0
   12.3770  -17.2270   23.3001 O   0  0  0  0  0  0  0  0  0  0  0  0
   13.7149  -16.7380   25.0262 O   0  0  0  0  0  0  0  0  0  0  0  0
  2  1  1  6
  2  4  1  0
  2  3  1  0
  4  6  1  0
  4  5  1  6
  6  7  2  0
  9  8  1  0
  9 19  2  0
 10  9  1  0
 11 10  2  0
 11 12  1  0
 12 18  2  0
 13 12  1  0
 14 13  1  1
 14 16  1  0
 15 14  1  0
 15  6  1  0
 16 17  2  0
 18 19  1  0
 20 21  1  0
 21 22  2  0
 23 21  1  0
 23 24  1  0
 25 24  1  1
 25 27  1  0
 26 16  1  0
 26 25  1  0
 27 28  2  0
 27 29  1  0
M  END
$$$$
