TYQ.pdb
     RDKit          3D

 29 29  0  0  1  0  0  0  0  0999 V2000
    7.6407  -18.6792   19.0914 C   0  0  0  0  0  0  0  0  0  0  0  0
    8.4388  -18.3284   20.3331 C   0  0  1  0  0  0  0  0  0  0  0  0
    9.5695  -19.1249   20.4539 O   0  0  0  0  0  0  0  0  0  0  0  0
    8.7509  -16.8648   20.4116 C   0  0  2  0  0  0  0  0  0  0  0  0
    9.5371  -16.5303   19.2182 N   0  0  0  0  0  0  0  0  0  0  0  0
    9.4903  -16.4791   21.6335 C   0  0  0  0  0  0  0  0  0  0  0  0
   10.7674  -16.4655   21.6753 O   0  0  0  0  0  0  0  0  0  0  0  0
   10.4328  -14.5126   30.2970 O   0  0  0  0  0  0  0  0  0  0  0  0
    9.9790  -14.6839   29.0005 C   0  0  0  0  0  0  0  0  0  0  0  0
    9.1738  -15.7434   28.6533 C   0  0  0  0  0  0  0  0  0  0  0  0
    8.7260  -15.8974   27.3355 C   0  0  0  0  0  0  0  0  0  0  0  0
    9.0768  -14.9978   26.3558 C   0  0  0  0  0  0  0  0  0  0  0  0
    8.6099  -15.1643   24.9853 C   0  0  0  0  0  0  0  0  0  0  0  0
    9.5923  -15.8546   24.0612 C   0  0  2  0  0  0  0  0  0  0  0  0
    8.8399  -16.1039   22.8231 N   0  0  0  0  0  0  0  0  0  0  0  0
   10.1523  -17.0958   24.6065 C   0  0  0  0  0  0  0  0  0  0  0  0
    9.4123  -18.1055   24.7297 O   0  0  0  0  0  0  0  0  0  0  0  0
    9.8818  -13.9438   26.7164 C   0  0  0  0  0  0  0  0  0  0  0  0
   10.3318  -13.7832   28.0257 C   0  0  0  0  0  0  0  0  0  0  0  0
   15.9778  -18.9654   24.3367 N   0  0  0  0  0  0  0  0  0  0  0  0
   15.0458  -18.9975   23.2720 C   0  0  0  0  0  0  0  0  0  0  0  0
   15.3930  -19.1580   22.0908 O   0  0  0  0  0  0  0  0  0  0  0  0
   13.5949  -18.8272   23.6305 C   0  0  0  0  0  0  0  0  0  0  0  0
   13.4317  -18.6509   25.1137 C   0  0  0  0  0  0  0  0  0  0  0  0
   12.0036  -18.4953   25.4906 C   0  0  2  0  0  0  0  0  0  0  0  0
   11.4942  -17.1959   24.9977 N   0  0  0  0  0  0  0  0  0  0  0  0
   11.8097  -18.4964   26.9508 C   0  0  0  0  0  0  0  0  0  0  0  0
   11.3411  -19.5372   27.5310 O   0  0  0  0  0  0  0  0  0  0  0  0
   12.0947  -17.4476   27.8034 O   0  0  0  0  0  0  0  0  0  0  0  0
  2  1  1  6
  2  4  1  0
  2  3  1  0
  4  6  1  0
  4  5  1  6
  6  7  2  0
  9  8  1  0
  9 19  2  0
 10  9  1  0
 11 10  2  0
 11 12  1  0
 12 18  2  0
 13 12  1  0
 14 13  1  1
 14 16  1  0
 15 14  1  0
 15  6  1  0
 16 17  2  0
 18 19  1  0
 20 21  1  0
 21 22  2  0
 23 21  1  0
 23 24  1  0
 25 24  1  1
 25 27  1  0
 26 16  1  0
 26 25  1  0
 27 28  2  0
 27 29  1  0
M  END
$$$$
