TYQ.pdb
     RDKit          3D

 29 29  0  0  1  0  0  0  0  0999 V2000
    7.3691  -18.1448   17.6712 C   0  0  0  0  0  0  0  0  0  0  0  0
    7.8649  -17.5631   18.9817 C   0  0  1  0  0  0  0  0  0  0  0  0
    9.0826  -18.1151   19.3558 O   0  0  0  0  0  0  0  0  0  0  0  0
    7.8898  -16.0649   18.9635 C   0  0  2  0  0  0  0  0  0  0  0  0
    8.7997  -15.6651   17.8834 N   0  0  0  0  0  0  0  0  0  0  0  0
    8.3221  -15.4616   20.2433 C   0  0  0  0  0  0  0  0  0  0  0  0
    9.5543  -15.2568   20.5124 O   0  0  0  0  0  0  0  0  0  0  0  0
    7.4458  -12.1674   28.4960 O   0  0  0  0  0  0  0  0  0  0  0  0
    7.2462  -12.6228   27.2041 C   0  0  0  0  0  0  0  0  0  0  0  0
    6.7560  -13.8828   26.9522 C   0  0  0  0  0  0  0  0  0  0  0  0
    6.5617  -14.3231   25.6373 C   0  0  0  0  0  0  0  0  0  0  0  0
    6.8541  -13.5119   24.5654 C   0  0  0  0  0  0  0  0  0  0  0  0
    6.6523  -13.9762   23.1988 C   0  0  0  0  0  0  0  0  0  0  0  0
    7.8688  -14.6157   22.5613 C   0  0  2  0  0  0  0  0  0  0  0  0
    7.4101  -15.0760   21.2425 N   0  0  0  0  0  0  0  0  0  0  0  0
    8.4420  -15.7167   23.3429 C   0  0  0  0  0  0  0  0  0  0  0  0
    7.9072  -16.8541   23.2921 O   0  0  0  0  0  0  0  0  0  0  0  0
    7.3432  -12.2554   24.8314 C   0  0  0  0  0  0  0  0  0  0  0  0
    7.5395  -11.8094   26.1372 C   0  0  0  0  0  0  0  0  0  0  0  0
   14.2438  -19.3456   23.8875 N   0  0  0  0  0  0  0  0  0  0  0  0
   13.7853  -18.0412   24.1904 C   0  0  0  0  0  0  0  0  0  0  0  0
   14.4650  -17.0284   23.9585 O   0  0  0  0  0  0  0  0  0  0  0  0
   12.4214  -17.9255   24.8141 C   0  0  0  0  0  0  0  0  0  0  0  0
   11.6736  -16.7547   24.2419 C   0  0  0  0  0  0  0  0  0  0  0  0
   10.2588  -16.7378   24.6935 C   0  0  2  0  0  0  0  0  0  0  0  0
    9.5740  -15.5431   24.1505 N   0  0  0  0  0  0  0  0  0  0  0  0
   10.1431  -16.6585   26.1599 C   0  0  0  0  0  0  0  0  0  0  0  0
    9.7147  -15.5838   26.7085 O   0  0  0  0  0  0  0  0  0  0  0  0
   10.4589  -17.6666   27.0498 O   0  0  0  0  0  0  0  0  0  0  0  0
  2  1  1  6
  2  4  1  0
  2  3  1  0
  4  6  1  0
  4  5  1  6
  6  7  2  0
  9  8  1  0
  9 19  2  0
 10  9  1  0
 11 10  2  0
 11 12  1  0
 12 18  2  0
 13 12  1  0
 14 13  1  1
 14 16  1  0
 15 14  1  0
 15  6  1  0
 16 17  2  0
 18 19  1  0
 20 21  1  0
 21 22  2  0
 23 21  1  0
 23 24  1  0
 25 24  1  1
 25 27  1  0
 26 16  1  0
 26 25  1  0
 27 28  2  0
 27 29  1  0
M  END
$$$$
