TRF.pdb
     RDKit          3D

 30 30  0  0  1  0  0  0  0  0999 V2000
    6.5453  -18.9555   25.7369 C   0  0  0  0  0  0  0  0  0  0  0  0
    6.9067  -20.1623   24.8984 C   0  0  1  0  0  0  0  0  0  0  0  0
    6.1112  -21.2123   25.3550 O   0  0  0  0  0  0  0  0  0  0  0  0
    6.6840  -19.9167   23.4383 C   0  0  2  0  0  0  0  0  0  0  0  0
    6.8052  -21.1827   22.7571 N   0  0  0  0  0  0  0  0  0  0  0  0
    7.6290  -18.8997   22.8868 C   0  0  0  0  0  0  0  0  0  0  0  0
    8.8152  -19.2504   22.6794 O   0  0  0  0  0  0  0  0  0  0  0  0
    8.7917  -12.9608   17.1401 N   0  0  0  0  0  0  0  0  0  0  0  0
    8.0987  -13.4105   18.2965 C   0  0  0  0  0  0  0  0  0  0  0  0
    7.4448  -14.5311   18.2663 N   0  0  0  0  0  0  0  0  0  0  0  0
    8.1512  -12.6000   19.4608 N   0  0  0  0  0  0  0  0  0  0  0  0
    7.4542  -13.0052   20.6530 C   0  0  0  0  0  0  0  0  0  0  0  0
    8.2324  -14.1825   21.2400 C   0  0  0  0  0  0  0  0  0  0  0  0
    7.2989  -15.2648   21.6799 C   0  0  0  0  0  0  0  0  0  0  0  0
    8.0301  -16.4296   22.3770 C   0  0  2  0  0  0  0  0  0  0  0  0
    7.2368  -17.5766   22.5958 N   0  0  0  0  0  0  0  0  0  0  0  0
    8.8232  -15.9060   23.4627 C   0  0  0  0  0  0  0  0  0  0  0  0
    9.8018  -15.1501   23.1338 O   0  0  0  0  0  0  0  0  0  0  0  0
    6.8323  -14.8424   19.0417 N   0  0  0  0  0  0  0  0  0  0  0  0
    8.6416  -16.1330   24.8349 C   0  0  1  0  0  0  0  0  0  0  0  0
    9.5890  -15.6456   25.8240 C   0  0  0  0  0  0  0  0  0  0  0  0
    8.7804  -15.1056   26.9622 C   0  0  0  0  0  0  0  0  0  0  0  0
    7.8868  -13.9866   26.6128 C   0  0  0  0  0  0  0  0  0  0  0  0
    6.5366  -14.0959   26.4590 C   0  0  0  0  0  0  0  0  0  0  0  0
    5.8092  -12.9727   26.1369 C   0  0  0  0  0  0  0  0  0  0  0  0
    6.3652  -11.7237   25.9566 C   0  0  0  0  0  0  0  0  0  0  0  0
    7.7316  -11.6250   26.1147 C   0  0  0  0  0  0  0  0  0  0  0  0
    8.4692  -12.7419   26.4369 C   0  0  0  0  0  0  0  0  0  0  0  0
   10.5148  -16.6939   26.2536 O   0  0  0  0  0  0  0  0  0  0  0  0
   11.4276  -16.4368   27.1031 O   0  0  0  0  0  0  0  0  0  0  0  0
  2  1  1  1
  2  3  1  0
  4  2  1  0
  4  5  1  6
  6  7  2  0
  6  4  1  0
  9  8  1  0
 10  9  2  0
 11  9  1  0
 12 11  1  0
 13 12  1  0
 13 14  1  0
 15 14  1  1
 15 16  1  0
 16  6  1  0
 17 19  1  0
 17 15  1  0
 18 17  2  0
 20 19  1  0
 20 28  1  0
 21 22  1  0
 20 21  1  6
 22 23  2  0
 23 24  1  0
 25 24  2  0
 26 25  1  0
 27 22  1  0
 27 26  2  0
 28 30  1  0
 29 28  2  0
M  END
$$$$
