TRF.pdb
     RDKit          3D

 30 30  0  0  1  0  0  0  0  0999 V2000
    5.7377  -21.1393   26.7967 C   0  0  0  0  0  0  0  0  0  0  0  0
    6.5157  -20.0418   26.1038 C   0  0  1  0  0  0  0  0  0  0  0  0
    7.8055  -20.0790   26.6321 O   0  0  0  0  0  0  0  0  0  0  0  0
    6.5395  -20.2245   24.6179 C   0  0  2  0  0  0  0  0  0  0  0  0
    7.0388  -21.5507   24.3470 N   0  0  0  0  0  0  0  0  0  0  0  0
    7.3550  -19.1765   23.9338 C   0  0  0  0  0  0  0  0  0  0  0  0
    8.5866  -19.3780   23.8089 O   0  0  0  0  0  0  0  0  0  0  0  0
    8.1638  -13.7542   17.5255 N   0  0  0  0  0  0  0  0  0  0  0  0
    8.3299  -13.0587   18.7536 C   0  0  0  0  0  0  0  0  0  0  0  0
    8.3370  -11.7610   18.7686 N   0  0  0  0  0  0  0  0  0  0  0  0
    8.4839  -13.8266   19.9377 N   0  0  0  0  0  0  0  0  0  0  0  0
    7.4590  -14.7569   20.3317 C   0  0  0  0  0  0  0  0  0  0  0  0
    7.2580  -14.5801   21.8364 C   0  0  0  0  0  0  0  0  0  0  0  0
    6.5006  -15.7367   22.4068 C   0  0  0  0  0  0  0  0  0  0  0  0
    7.4209  -16.7658   23.0935 C   0  0  2  0  0  0  0  0  0  0  0  0
    6.7935  -17.9846   23.4307 N   0  0  0  0  0  0  0  0  0  0  0  0
    8.2255  -16.0919   24.0836 C   0  0  0  0  0  0  0  0  0  0  0  0
    8.2627  -14.8151   24.0074 O   0  0  0  0  0  0  0  0  0  0  0  0
    8.4384  -11.2122   19.6415 N   0  0  0  0  0  0  0  0  0  0  0  0
    8.9698  -16.6789   25.1175 C   0  0  1  0  0  0  0  0  0  0  0  0
    9.3411  -15.9367   26.3111 C   0  0  0  0  0  0  0  0  0  0  0  0
    8.0638  -15.5377   26.9820 C   0  0  0  0  0  0  0  0  0  0  0  0
    7.5842  -14.1842   26.6490 C   0  0  0  0  0  0  0  0  0  0  0  0
    8.2661  -13.2920   25.8758 C   0  0  0  0  0  0  0  0  0  0  0  0
    7.7076  -12.0579   25.6318 C   0  0  0  0  0  0  0  0  0  0  0  0
    6.4838  -11.6579   26.1258 C   0  0  0  0  0  0  0  0  0  0  0  0
    5.8032  -12.5683   26.9065 C   0  0  0  0  0  0  0  0  0  0  0  0
    6.3522  -13.8057   27.1572 C   0  0  0  0  0  0  0  0  0  0  0  0
   10.2056  -16.7212   27.1929 O   0  0  0  0  0  0  0  0  0  0  0  0
   10.6388  -16.2205   28.2803 O   0  0  0  0  0  0  0  0  0  0  0  0
  2  1  1  1
  2  3  1  0
  4  2  1  0
  4  5  1  1
  6  7  2  0
  6  4  1  0
  9  8  1  0
 10  9  2  0
 11  9  1  0
 12 11  1  0
 13 12  1  0
 13 14  1  0
 15 14  1  1
 15 16  1  0
 16  6  1  0
 17 19  1  0
 17 15  1  0
 18 17  2  0
 20 19  1  0
 20 28  1  0
 21 22  1  0
 20 21  1  1
 22 23  2  0
 23 24  1  0
 25 24  2  0
 26 25  1  0
 27 22  1  0
 27 26  2  0
 28 30  1  0
 29 28  2  0
M  END
$$$$
