TRF.pdb
     RDKit          3D

 30 30  0  0  1  0  0  0  0  0999 V2000
    9.5361  -14.0518   16.6620 C   0  0  0  0  0  0  0  0  0  0  0  0
    9.2150  -14.4499   18.0862 C   0  0  1  0  0  0  0  0  0  0  0  0
   10.2233  -13.9097   18.8835 O   0  0  0  0  0  0  0  0  0  0  0  0
    7.8688  -13.9553   18.5161 C   0  0  2  0  0  0  0  0  0  0  0  0
    7.8257  -12.5338   18.2731 N   0  0  0  0  0  0  0  0  0  0  0  0
    7.5780  -14.2809   19.9447 C   0  0  0  0  0  0  0  0  0  0  0  0
    7.8683  -13.4246   20.8140 O   0  0  0  0  0  0  0  0  0  0  0  0
    1.9094  -19.9543   21.3341 N   0  0  0  0  0  0  0  0  0  0  0  0
    3.1470  -20.3036   21.9391 C   0  0  0  0  0  0  0  0  0  0  0  0
    3.1990  -21.2780   22.7947 N   0  0  0  0  0  0  0  0  0  0  0  0
    4.2992  -19.5580   21.5756 N   0  0  0  0  0  0  0  0  0  0  0  0
    4.2085  -18.5394   20.5630 C   0  0  0  0  0  0  0  0  0  0  0  0
    4.7100  -17.2421   21.1966 C   0  0  0  0  0  0  0  0  0  0  0  0
    6.1145  -17.4020   21.6847 C   0  0  0  0  0  0  0  0  0  0  0  0
    6.9149  -16.0856   21.6256 C   0  0  2  0  0  0  0  0  0  0  0  0
    6.9959  -15.5023   20.3426 N   0  0  0  0  0  0  0  0  0  0  0  0
    8.1178  -16.2296   22.4094 C   0  0  0  0  0  0  0  0  0  0  0  0
    9.2167  -15.9591   21.8124 O   0  0  0  0  0  0  0  0  0  0  0  0
    4.0789  -21.5706   23.2565 N   0  0  0  0  0  0  0  0  0  0  0  0
    8.2164  -16.6324   23.7494 C   0  0  2  0  0  0  0  0  0  0  0  0
    8.4371  -15.6767   24.8224 C   0  0  0  0  0  0  0  0  0  0  0  0
    7.3231  -14.6799   24.7441 C   0  0  0  0  0  0  0  0  0  0  0  0
    7.3417  -13.6446   25.7933 C   0  0  0  0  0  0  0  0  0  0  0  0
    7.8019  -13.8391   27.0618 C   0  0  0  0  0  0  0  0  0  0  0  0
    7.7718  -12.7884   27.9504 C   0  0  0  0  0  0  0  0  0  0  0  0
    7.2991  -11.5314   27.6370 C   0  0  0  0  0  0  0  0  0  0  0  0
    6.8362  -11.3462   26.3512 C   0  0  0  0  0  0  0  0  0  0  0  0
    6.8616  -12.3901   25.4540 C   0  0  0  0  0  0  0  0  0  0  0  0
    8.5010  -16.3310   26.1294 O   0  0  0  0  0  0  0  0  0  0  0  0
    7.5679  -17.1122   26.5035 O   0  0  0  0  0  0  0  0  0  0  0  0
  2  1  1  6
  2  3  1  0
  4  2  1  0
  4  5  1  1
  6  7  2  0
  6  4  1  0
  9  8  1  0
 10  9  2  0
 11  9  1  0
 12 11  1  0
 13 12  1  0
 13 14  1  0
 15 14  1  6
 15 16  1  0
 16  6  1  0
 17 19  1  0
 17 15  1  0
 18 17  2  0
 20 19  1  0
 20 28  1  0
 21 22  1  0
 20 21  1  6
 22 23  2  0
 23 24  1  0
 25 24  2  0
 26 25  1  0
 27 22  1  0
 27 26  2  0
 28 30  1  0
 29 28  2  0
M  END
$$$$
