TRF.pdb
     RDKit          3D

 30 30  0  0  1  0  0  0  0  0999 V2000
   10.4598  -21.2889   20.9506 C   0  0  0  0  0  0  0  0  0  0  0  0
   10.3126  -19.9806   21.6968 C   0  0  1  0  0  0  0  0  0  0  0  0
   10.9820  -20.1407   22.9093 O   0  0  0  0  0  0  0  0  0  0  0  0
   10.8735  -18.8282   20.9227 C   0  0  2  0  0  0  0  0  0  0  0  0
   12.2498  -19.1341   20.6163 N   0  0  0  0  0  0  0  0  0  0  0  0
   10.7459  -17.5366   21.6622 C   0  0  0  0  0  0  0  0  0  0  0  0
   11.7424  -17.1244   22.3026 O   0  0  0  0  0  0  0  0  0  0  0  0
    8.4328  -11.8849   18.7477 N   0  0  0  0  0  0  0  0  0  0  0  0
    7.9814  -12.9383   17.9075 C   0  0  0  0  0  0  0  0  0  0  0  0
    8.4024  -13.0171   16.6823 N   0  0  0  0  0  0  0  0  0  0  0  0
    7.0705  -13.8808   18.4531 N   0  0  0  0  0  0  0  0  0  0  0  0
    6.8858  -13.9629   19.8780 C   0  0  0  0  0  0  0  0  0  0  0  0
    8.1954  -14.4914   20.4625 C   0  0  0  0  0  0  0  0  0  0  0  0
    8.0283  -14.8301   21.9095 C   0  0  0  0  0  0  0  0  0  0  0  0
    9.2004  -15.6668   22.4605 C   0  0  2  0  0  0  0  0  0  0  0  0
    9.5583  -16.7760   21.6640 N   0  0  0  0  0  0  0  0  0  0  0  0
    9.0225  -15.8494   23.8807 C   0  0  0  0  0  0  0  0  0  0  0  0
    8.1151  -16.6794   24.2340 O   0  0  0  0  0  0  0  0  0  0  0  0
    8.1148  -13.7772   16.0398 N   0  0  0  0  0  0  0  0  0  0  0  0
    9.7315  -15.2199   24.9144 C   0  0  2  0  0  0  0  0  0  0  0  0
    9.4999  -15.5467   26.3119 C   0  0  0  0  0  0  0  0  0  0  0  0
    8.0267  -15.4173   26.5436 C   0  0  0  0  0  0  0  0  0  0  0  0
    7.4959  -14.0482   26.4144 C   0  0  0  0  0  0  0  0  0  0  0  0
    6.2067  -13.7476   26.0883 C   0  0  0  0  0  0  0  0  0  0  0  0
    5.8310  -12.4261   26.0046 C   0  0  0  0  0  0  0  0  0  0  0  0
    6.6866  -11.3689   26.2327 C   0  0  0  0  0  0  0  0  0  0  0  0
    7.9880  -11.6848   26.5618 C   0  0  0  0  0  0  0  0  0  0  0  0
    8.3749  -13.0032   26.6484 C   0  0  0  0  0  0  0  0  0  0  0  0
    9.9959  -16.8814   26.6481 O   0  0  0  0  0  0  0  0  0  0  0  0
   10.5582  -17.6007   25.7608 O   0  0  0  0  0  0  0  0  0  0  0  0
  2  1  1  6
  2  3  1  0
  4  2  1  0
  4  5  1  1
  6  7  2  0
  6  4  1  0
  9  8  1  0
 10  9  2  0
 11  9  1  0
 12 11  1  0
 13 12  1  0
 13 14  1  0
 15 14  1  6
 15 16  1  0
 16  6  1  0
 17 19  1  0
 17 15  1  0
 18 17  2  0
 20 19  1  0
 20 28  1  0
 21 22  1  0
 20 21  1  6
 22 23  2  0
 23 24  1  0
 25 24  2  0
 26 25  1  0
 27 22  1  0
 27 26  2  0
 28 30  1  0
 29 28  2  0
M  END
$$$$
