TRF.pdb
     RDKit          3D

 30 30  0  0  1  0  0  0  0  0999 V2000
    9.1772  -12.3736   19.8200 C   0  0  0  0  0  0  0  0  0  0  0  0
    8.2952  -12.9452   18.7312 C   0  0  1  0  0  0  0  0  0  0  0  0
    8.5524  -12.1979   17.5826 O   0  0  0  0  0  0  0  0  0  0  0  0
    8.5659  -14.3990   18.4969 C   0  0  2  0  0  0  0  0  0  0  0  0
    7.8436  -14.7942   17.3121 N   0  0  0  0  0  0  0  0  0  0  0  0
    8.1959  -15.2388   19.6756 C   0  0  0  0  0  0  0  0  0  0  0  0
    6.9937  -15.5709   19.8070 O   0  0  0  0  0  0  0  0  0  0  0  0
   12.2262  -19.7382   24.0305 N   0  0  0  0  0  0  0  0  0  0  0  0
   13.0531  -19.7754   22.8753 C   0  0  0  0  0  0  0  0  0  0  0  0
   14.3418  -19.6799   22.9962 N   0  0  0  0  0  0  0  0  0  0  0  0
   12.4238  -19.9186   21.6108 N   0  0  0  0  0  0  0  0  0  0  0  0
   11.0022  -19.7307   21.4880 C   0  0  0  0  0  0  0  0  0  0  0  0
   10.7263  -18.2548   21.7735 C   0  0  0  0  0  0  0  0  0  0  0  0
    9.2719  -17.9487   21.6082 C   0  0  0  0  0  0  0  0  0  0  0  0
    8.9582  -16.4501   21.7907 C   0  0  2  0  0  0  0  0  0  0  0  0
    9.1408  -15.6645   20.6321 N   0  0  0  0  0  0  0  0  0  0  0  0
    9.5202  -15.9996   23.0410 C   0  0  0  0  0  0  0  0  0  0  0  0
   10.1299  -14.8751   23.0136 O   0  0  0  0  0  0  0  0  0  0  0  0
   14.9843  -19.7197   22.1845 N   0  0  0  0  0  0  0  0  0  0  0  0
    9.4728  -16.6557   24.2799 C   0  0  1  0  0  0  0  0  0  0  0  0
    8.9859  -15.9938   25.4792 C   0  0  0  0  0  0  0  0  0  0  0  0
    7.6181  -15.4771   25.1581 C   0  0  0  0  0  0  0  0  0  0  0  0
    7.3003  -14.1597   25.7380 C   0  0  0  0  0  0  0  0  0  0  0  0
    6.0877  -13.5445   25.6382 C   0  0  0  0  0  0  0  0  0  0  0  0
    5.9137  -12.3140   26.2300 C   0  0  0  0  0  0  0  0  0  0  0  0
    6.9011  -11.6517   26.9286 C   0  0  0  0  0  0  0  0  0  0  0  0
    8.1233  -12.2834   27.0231 C   0  0  0  0  0  0  0  0  0  0  0  0
    8.3087  -13.5143   26.4352 C   0  0  0  0  0  0  0  0  0  0  0  0
    8.9787  -16.8937   26.6327 O   0  0  0  0  0  0  0  0  0  0  0  0
    8.5640  -18.0912   26.5113 O   0  0  0  0  0  0  0  0  0  0  0  0
  2  1  1  1
  2  3  1  0
  4  2  1  0
  4  5  1  6
  6  7  2  0
  6  4  1  0
  9  8  1  0
 10  9  2  0
 11  9  1  0
 12 11  1  0
 13 12  1  0
 13 14  1  0
 15 14  1  6
 15 16  1  0
 16  6  1  0
 17 19  1  0
 17 15  1  0
 18 17  2  0
 20 19  1  0
 20 28  1  0
 21 22  1  0
 20 21  1  1
 22 23  2  0
 23 24  1  0
 25 24  2  0
 26 25  1  0
 27 22  1  0
 27 26  2  0
 28 30  1  0
 29 28  2  0
M  END
$$$$
