TRF.pdb
     RDKit          3D

 30 30  0  0  1  0  0  0  0  0999 V2000
    7.2366  -12.5064   19.7507 C   0  0  0  0  0  0  0  0  0  0  0  0
    8.0399  -13.5043   20.5562 C   0  0  1  0  0  0  0  0  0  0  0  0
    7.8279  -13.1899   21.8979 O   0  0  0  0  0  0  0  0  0  0  0  0
    7.6331  -14.9157   20.2655 C   0  0  2  0  0  0  0  0  0  0  0  0
    6.1937  -14.9469   20.1727 N   0  0  0  0  0  0  0  0  0  0  0  0
    8.1415  -15.8723   21.2940 C   0  0  0  0  0  0  0  0  0  0  0  0
    7.3068  -16.4122   22.0588 O   0  0  0  0  0  0  0  0  0  0  0  0
   11.7683  -18.0181   17.6668 N   0  0  0  0  0  0  0  0  0  0  0  0
   11.6894  -19.4333   17.7696 C   0  0  0  0  0  0  0  0  0  0  0  0
   11.3050  -20.1376   16.7496 N   0  0  0  0  0  0  0  0  0  0  0  0
   12.0414  -20.0311   19.0082 N   0  0  0  0  0  0  0  0  0  0  0  0
   12.4161  -19.2058   20.1261 C   0  0  0  0  0  0  0  0  0  0  0  0
   11.1220  -18.6371   20.7074 C   0  0  0  0  0  0  0  0  0  0  0  0
   11.4158  -17.7254   21.8558 C   0  0  0  0  0  0  0  0  0  0  0  0
   10.1553  -17.0078   22.3790 C   0  0  2  0  0  0  0  0  0  0  0  0
    9.5100  -16.1842   21.4314 N   0  0  0  0  0  0  0  0  0  0  0  0
   10.4230  -16.4859   23.6974 C   0  0  0  0  0  0  0  0  0  0  0  0
   11.4460  -16.9657   24.2977 O   0  0  0  0  0  0  0  0  0  0  0  0
   11.3034  -21.1736   16.7538 N   0  0  0  0  0  0  0  0  0  0  0  0
    9.6883  -15.5140   24.3924 C   0  0  2  0  0  0  0  0  0  0  0  0
    9.3303  -15.6796   25.7917 C   0  0  0  0  0  0  0  0  0  0  0  0
    7.8976  -15.2650   25.9193 C   0  0  0  0  0  0  0  0  0  0  0  0
    7.6775  -13.8098   26.0011 C   0  0  0  0  0  0  0  0  0  0  0  0
    8.6278  -12.8690   25.7356 C   0  0  0  0  0  0  0  0  0  0  0  0
    8.2960  -11.5375   25.8420 C   0  0  0  0  0  0  0  0  0  0  0  0
    7.0451  -11.0849   26.2055 C   0  0  0  0  0  0  0  0  0  0  0  0
    6.0918  -12.0452   26.4716 C   0  0  0  0  0  0  0  0  0  0  0  0
    6.4126  -13.3800   26.3683 C   0  0  0  0  0  0  0  0  0  0  0  0
    9.5507  -17.0510   26.2511 O   0  0  0  0  0  0  0  0  0  0  0  0
    9.3509  -18.0323   25.4650 O   0  0  0  0  0  0  0  0  0  0  0  0
  2  1  1  6
  2  3  1  0
  4  2  1  0
  4  5  1  1
  6  7  2  0
  6  4  1  0
  9  8  1  0
 10  9  2  0
 11  9  1  0
 12 11  1  0
 13 12  1  0
 13 14  1  0
 15 14  1  6
 15 16  1  0
 16  6  1  0
 17 19  1  0
 17 15  1  0
 18 17  2  0
 20 19  1  0
 20 28  1  0
 21 22  1  0
 20 21  1  6
 22 23  2  0
 23 24  1  0
 25 24  2  0
 26 25  1  0
 27 22  1  0
 27 26  2  0
 28 30  1  0
 29 28  2  0
M  END
$$$$
