SKY.pdb
     RDKit          3D

 28 28  0  0  1  0  0  0  0  0999 V2000
   10.4990  -13.0945   19.2001 O   0  0  0  0  0  0  0  0  0  0  0  0
    9.8049  -13.8816   18.2586 C   0  0  0  0  0  0  0  0  0  0  0  0
    8.3292  -13.7104   18.5022 C   0  0  2  0  0  0  0  0  0  0  0  0
    7.9499  -12.3120   18.5672 N   0  0  0  0  0  0  0  0  0  0  0  0
    7.9537  -14.3525   19.7790 C   0  0  0  0  0  0  0  0  0  0  0  0
    7.7895  -13.6347   20.7894 O   0  0  0  0  0  0  0  0  0  0  0  0
    7.7773  -15.7515   19.8817 N   0  0  0  0  0  0  0  0  0  0  0  0
    7.2794  -16.3881   21.0599 C   0  0  1  0  0  0  0  0  0  0  0  0
    7.0511  -17.8706   20.8744 C   0  0  0  0  0  0  0  0  0  0  0  0
    6.3750  -18.4416   22.1226 C   0  0  0  0  0  0  0  0  0  0  0  0
    5.9815  -19.8807   21.9093 C   0  0  0  0  0  0  0  0  0  0  0  0
    5.1169  -20.3367   23.0407 C   0  0  0  0  0  0  0  0  0  0  0  0
    4.7222  -21.7105   22.7777 N   0  0  0  0  0  0  0  0  0  0  0  0
    8.1979  -16.2307   22.2157 C   0  0  0  0  0  0  0  0  0  0  0  0
    9.4241  -16.4248   22.0334 O   0  0  0  0  0  0  0  0  0  0  0  0
   10.9937  -14.1094   30.4602 O   0  0  0  0  0  0  0  0  0  0  0  0
   10.2330  -14.3473   29.3124 C   0  0  0  0  0  0  0  0  0  0  0  0
    9.9493  -13.3374   28.4173 C   0  0  0  0  0  0  0  0  0  0  0  0
    9.1982  -13.5761   27.2855 C   0  0  0  0  0  0  0  0  0  0  0  0
    8.6939  -14.8317   26.9910 C   0  0  0  0  0  0  0  0  0  0  0  0
    7.8836  -15.0721   25.7706 C   0  0  0  0  0  0  0  0  0  0  0  0
    8.6873  -15.6322   24.6225 C   0  0  2  0  0  0  0  0  0  0  0  0
    7.7639  -15.8730   23.5138 N   0  0  0  0  0  0  0  0  0  0  0  0
    9.3216  -16.9375   24.9331 C   0  0  0  0  0  0  0  0  0  0  0  0
   10.6740  -17.0606   25.2281 O   0  0  0  0  0  0  0  0  0  0  0  0
    8.9814  -15.8381   27.8911 C   0  0  0  0  0  0  0  0  0  0  0  0
    9.7349  -15.6014   29.0275 C   0  0  0  0  0  0  0  0  0  0  0  0
    8.6667  -18.0349   24.9495 O   0  0  0  0  0  0  0  0  0  0  0  0
  1  2  1  0
  2  3  1  0
  3  4  1  1
  5  3  1  0
  5  6  2  0
  7  5  1  0
  8  7  1  0
  8  9  1  6
 10  9  1  0
 11 10  1  0
 12 11  1  0
 12 13  1  0
 14  8  1  0
 15 14  2  0
 16 17  1  0
 17 18  2  0
 17 27  1  0
 18 19  1  0
 19 20  2  0
 20 21  1  0
 22 21  1  1
 22 24  1  0
 22 23  1  0
 23 14  1  0
 24 25  1  0
 26 20  1  0
 27 26  2  0
 28 24  2  0
M  END
$$$$
