SKY.pdb
     RDKit          3D

 28 28  0  0  1  0  0  0  0  0999 V2000
   14.0945  -17.6902   18.3884 O   0  0  0  0  0  0  0  0  0  0  0  0
   13.1508  -17.0120   19.1867 C   0  0  0  0  0  0  0  0  0  0  0  0
   11.8080  -17.1153   18.5141 C   0  0  2  0  0  0  0  0  0  0  0  0
   11.6192  -16.0762   17.5199 N   0  0  0  0  0  0  0  0  0  0  0  0
   10.7324  -16.9952   19.5201 C   0  0  0  0  0  0  0  0  0  0  0  0
   10.3694  -15.8546   19.8814 O   0  0  0  0  0  0  0  0  0  0  0  0
   10.1094  -18.1346   20.0791 N   0  0  0  0  0  0  0  0  0  0  0  0
    9.1018  -18.0532   21.0889 C   0  0  1  0  0  0  0  0  0  0  0  0
    8.3387  -19.3463   21.2623 C   0  0  0  0  0  0  0  0  0  0  0  0
    7.3309  -19.1934   22.4035 C   0  0  0  0  0  0  0  0  0  0  0  0
    6.5953  -20.4860   22.6468 C   0  0  0  0  0  0  0  0  0  0  0  0
    5.6096  -20.3005   23.7558 C   0  0  0  0  0  0  0  0  0  0  0  0
    4.8847  -21.5488   23.9246 N   0  0  0  0  0  0  0  0  0  0  0  0
    9.6629  -17.6977   22.4166 C   0  0  0  0  0  0  0  0  0  0  0  0
   10.6987  -18.2905   22.8042 O   0  0  0  0  0  0  0  0  0  0  0  0
   10.0950  -13.9834   30.5553 O   0  0  0  0  0  0  0  0  0  0  0  0
    9.8234  -14.2696   29.2148 C   0  0  0  0  0  0  0  0  0  0  0  0
   10.8039  -14.7441   28.3693 C   0  0  0  0  0  0  0  0  0  0  0  0
   10.5321  -15.0255   27.0469 C   0  0  0  0  0  0  0  0  0  0  0  0
    9.2709  -14.8478   26.5033 C   0  0  0  0  0  0  0  0  0  0  0  0
    8.9947  -15.1514   25.0766 C   0  0  0  0  0  0  0  0  0  0  0  0
    9.5862  -16.4632   24.6212 C   0  0  2  0  0  0  0  0  0  0  0  0
    9.0914  -16.7246   23.2698 N   0  0  0  0  0  0  0  0  0  0  0  0
    9.1644  -17.6167   25.4544 C   0  0  0  0  0  0  0  0  0  0  0  0
   10.0063  -18.2156   26.3838 O   0  0  0  0  0  0  0  0  0  0  0  0
    8.2940  -14.3725   27.3549 C   0  0  0  0  0  0  0  0  0  0  0  0
    8.5641  -14.0894   28.6824 C   0  0  0  0  0  0  0  0  0  0  0  0
    7.9996  -18.1362   25.3723 O   0  0  0  0  0  0  0  0  0  0  0  0
  1  2  1  0
  2  3  1  0
  3  4  1  6
  5  3  1  0
  5  6  2  0
  7  5  1  0
  8  7  1  0
  8  9  1  1
 10  9  1  0
 11 10  1  0
 12 11  1  0
 12 13  1  0
 14  8  1  0
 15 14  2  0
 16 17  1  0
 17 18  2  0
 17 27  1  0
 18 19  1  0
 19 20  2  0
 20 21  1  0
 22 21  1  1
 22 24  1  0
 22 23  1  0
 23 14  1  0
 24 25  1  0
 26 20  1  0
 27 26  2  0
 28 24  2  0
M  END
$$$$
