SKY.pdb
     RDKit          3D

 28 28  0  0  1  0  0  0  0  0999 V2000
    5.9744  -18.7017   24.8361 O   0  0  0  0  0  0  0  0  0  0  0  0
    4.9203  -18.2093   24.0398 C   0  0  0  0  0  0  0  0  0  0  0  0
    5.2866  -18.4208   22.5951 C   0  0  2  0  0  0  0  0  0  0  0  0
    5.4813  -19.8244   22.2858 N   0  0  0  0  0  0  0  0  0  0  0  0
    6.5382  -17.6996   22.2841 C   0  0  0  0  0  0  0  0  0  0  0  0
    7.6167  -18.3320   22.2933 O   0  0  0  0  0  0  0  0  0  0  0  0
    6.5423  -16.3191   21.9786 N   0  0  0  0  0  0  0  0  0  0  0  0
    7.7430  -15.5674   21.7924 C   0  0  1  0  0  0  0  0  0  0  0  0
    7.5125  -14.2643   21.0623 C   0  0  0  0  0  0  0  0  0  0  0  0
    8.0707  -14.3711   19.6417 C   0  0  0  0  0  0  0  0  0  0  0  0
    7.7578  -13.1294   18.8471 C   0  0  0  0  0  0  0  0  0  0  0  0
    8.2216  -13.3067   17.4368 C   0  0  0  0  0  0  0  0  0  0  0  0
    7.7769  -12.1548   16.6704 N   0  0  0  0  0  0  0  0  0  0  0  0
    8.4037  -15.2342   23.0794 C   0  0  0  0  0  0  0  0  0  0  0  0
    7.8897  -14.3454   23.8008 O   0  0  0  0  0  0  0  0  0  0  0  0
    5.8335  -11.3190   26.9865 O   0  0  0  0  0  0  0  0  0  0  0  0
    6.6597  -12.4143   26.7214 C   0  0  0  0  0  0  0  0  0  0  0  0
    6.1804  -13.5360   26.0783 C   0  0  0  0  0  0  0  0  0  0  0  0
    6.9990  -14.6150   25.8183 C   0  0  0  0  0  0  0  0  0  0  0  0
    8.3339  -14.6286   26.1863 C   0  0  0  0  0  0  0  0  0  0  0  0
    9.2015  -15.7994   25.9030 C   0  0  0  0  0  0  0  0  0  0  0  0
   10.2155  -15.5404   24.8155 C   0  0  2  0  0  0  0  0  0  0  0  0
    9.5839  -15.8660   23.5370 N   0  0  0  0  0  0  0  0  0  0  0  0
   11.4203  -16.4006   24.9209 C   0  0  0  0  0  0  0  0  0  0  0  0
   12.4095  -16.1888   25.8738 O   0  0  0  0  0  0  0  0  0  0  0  0
    8.8074  -13.5029   26.8297 C   0  0  0  0  0  0  0  0  0  0  0  0
    7.9882  -12.4187   27.0918 C   0  0  0  0  0  0  0  0  0  0  0  0
   11.6286  -17.3926   24.1425 O   0  0  0  0  0  0  0  0  0  0  0  0
  1  2  1  0
  2  3  1  0
  3  4  1  1
  5  3  1  0
  5  6  2  0
  7  5  1  0
  8  7  1  0
  8  9  1  1
 10  9  1  0
 11 10  1  0
 12 11  1  0
 12 13  1  0
 14  8  1  0
 15 14  2  0
 16 17  1  0
 17 18  2  0
 17 27  1  0
 18 19  1  0
 19 20  2  0
 20 21  1  0
 22 21  1  1
 22 24  1  0
 22 23  1  0
 23 14  1  0
 24 25  1  0
 26 20  1  0
 27 26  2  0
 28 24  2  0
M  END
$$$$
