SKY.pdb
     RDKit          3D

 28 28  0  0  1  0  0  0  0  0999 V2000
   10.1836  -13.4008   19.9974 O   0  0  0  0  0  0  0  0  0  0  0  0
    9.4809  -13.9889   18.9260 C   0  0  0  0  0  0  0  0  0  0  0  0
    8.0074  -13.8189   19.1829 C   0  0  2  0  0  0  0  0  0  0  0  0
    7.6410  -12.4233   19.3298 N   0  0  0  0  0  0  0  0  0  0  0  0
    7.6286  -14.5306   20.4212 C   0  0  0  0  0  0  0  0  0  0  0  0
    7.3196  -13.8610   21.4309 O   0  0  0  0  0  0  0  0  0  0  0  0
    7.6084  -15.9427   20.4883 N   0  0  0  0  0  0  0  0  0  0  0  0
    7.1838  -16.6600   21.6487 C   0  0  1  0  0  0  0  0  0  0  0  0
    7.0626  -18.1472   21.4078 C   0  0  0  0  0  0  0  0  0  0  0  0
    6.4515  -18.8146   22.6417 C   0  0  0  0  0  0  0  0  0  0  0  0
    6.3452  -20.3054   22.4484 C   0  0  0  0  0  0  0  0  0  0  0  0
    5.7501  -20.9279   23.6707 C   0  0  0  0  0  0  0  0  0  0  0  0
    5.6440  -22.3587   23.4386 N   0  0  0  0  0  0  0  0  0  0  0  0
    8.1117  -16.4789   22.7933 C   0  0  0  0  0  0  0  0  0  0  0  0
    9.3458  -16.4839   22.5668 O   0  0  0  0  0  0  0  0  0  0  0  0
    6.2233  -10.0930   26.1505 O   0  0  0  0  0  0  0  0  0  0  0  0
    6.6043  -11.4360   26.2135 C   0  0  0  0  0  0  0  0  0  0  0  0
    5.6919  -12.4280   26.5050 C   0  0  0  0  0  0  0  0  0  0  0  0
    6.0717  -13.7523   26.5662 C   0  0  0  0  0  0  0  0  0  0  0  0
    7.3781  -14.1521   26.3401 C   0  0  0  0  0  0  0  0  0  0  0  0
    7.7724  -15.5814   26.4135 C   0  0  0  0  0  0  0  0  0  0  0  0
    8.5980  -16.0332   25.2336 C   0  0  2  0  0  0  0  0  0  0  0  0
    7.6783  -16.3007   24.1282 N   0  0  0  0  0  0  0  0  0  0  0  0
    9.3347  -17.2971   25.4836 C   0  0  0  0  0  0  0  0  0  0  0  0
    8.9356  -18.5145   24.9452 O   0  0  0  0  0  0  0  0  0  0  0  0
    8.2864  -13.1542   26.0491 C   0  0  0  0  0  0  0  0  0  0  0  0
    7.9080  -11.8245   25.9870 C   0  0  0  0  0  0  0  0  0  0  0  0
   10.3843  -17.3502   26.2109 O   0  0  0  0  0  0  0  0  0  0  0  0
  1  2  1  0
  2  3  1  0
  3  4  1  1
  5  3  1  0
  5  6  2  0
  7  5  1  0
  8  7  1  0
  8  9  1  6
 10  9  1  0
 11 10  1  0
 12 11  1  0
 12 13  1  0
 14  8  1  0
 15 14  2  0
 16 17  1  0
 17 18  2  0
 17 27  1  0
 18 19  1  0
 19 20  2  0
 20 21  1  0
 22 21  1  1
 22 24  1  0
 22 23  1  0
 23 14  1  0
 24 25  1  0
 26 20  1  0
 27 26  2  0
 28 24  2  0
M  END
$$$$
