SKY.pdb
     RDKit          3D

 28 28  0  0  1  0  0  0  0  0999 V2000
   10.6840  -13.6818   19.1107 O   0  0  0  0  0  0  0  0  0  0  0  0
    9.9061  -14.3224   18.1247 C   0  0  0  0  0  0  0  0  0  0  0  0
    8.4592  -14.0003   18.3874 C   0  0  2  0  0  0  0  0  0  0  0  0
    8.1971  -12.5764   18.3000 N   0  0  0  0  0  0  0  0  0  0  0  0
    8.0805  -14.4592   19.7399 C   0  0  0  0  0  0  0  0  0  0  0  0
    7.8896  -13.6068   20.6344 O   0  0  0  0  0  0  0  0  0  0  0  0
    7.9306  -15.8322   20.0422 N   0  0  0  0  0  0  0  0  0  0  0  0
    7.6170  -16.3105   21.3515 C   0  0  1  0  0  0  0  0  0  0  0  0
    7.1041  -17.7323   21.3498 C   0  0  0  0  0  0  0  0  0  0  0  0
    5.6989  -17.7658   20.7452 C   0  0  0  0  0  0  0  0  0  0  0  0
    5.1628  -19.1738   20.7106 C   0  0  0  0  0  0  0  0  0  0  0  0
    3.8409  -19.1896   20.0120 C   0  0  0  0  0  0  0  0  0  0  0  0
    3.3772  -20.5661   19.9613 N   0  0  0  0  0  0  0  0  0  0  0  0
    8.7899  -16.2722   22.2607 C   0  0  0  0  0  0  0  0  0  0  0  0
    9.5966  -17.2329   22.2340 O   0  0  0  0  0  0  0  0  0  0  0  0
    5.6910  -10.6886   26.8041 O   0  0  0  0  0  0  0  0  0  0  0  0
    6.3114  -11.8902   26.4521 C   0  0  0  0  0  0  0  0  0  0  0  0
    5.8306  -13.1036   26.8972 C   0  0  0  0  0  0  0  0  0  0  0  0
    6.4455  -14.2874   26.5476 C   0  0  0  0  0  0  0  0  0  0  0  0
    7.5688  -14.3196   25.7383 C   0  0  0  0  0  0  0  0  0  0  0  0
    8.2221  -15.6018   25.3740 C   0  0  0  0  0  0  0  0  0  0  0  0
    9.4683  -15.4205   24.5421 C   0  0  2  0  0  0  0  0  0  0  0  0
    9.0474  -15.2086   23.1574 N   0  0  0  0  0  0  0  0  0  0  0  0
   10.3480  -16.6157   24.5365 C   0  0  0  0  0  0  0  0  0  0  0  0
   11.3312  -16.8254   25.4959 O   0  0  0  0  0  0  0  0  0  0  0  0
    8.0451  -13.1017   25.2963 C   0  0  0  0  0  0  0  0  0  0  0  0
    7.4298  -11.9122   25.6455 C   0  0  0  0  0  0  0  0  0  0  0  0
   10.2604  -17.5312   23.6490 O   0  0  0  0  0  0  0  0  0  0  0  0
  1  2  1  0
  2  3  1  0
  3  4  1  1
  5  3  1  0
  5  6  2  0
  7  5  1  0
  8  7  1  0
  8  9  1  6
 10  9  1  0
 11 10  1  0
 12 11  1  0
 12 13  1  0
 14  8  1  0
 15 14  2  0
 16 17  1  0
 17 18  2  0
 17 27  1  0
 18 19  1  0
 19 20  2  0
 20 21  1  0
 22 21  1  1
 22 24  1  0
 22 23  1  0
 23 14  1  0
 24 25  1  0
 26 20  1  0
 27 26  2  0
 28 24  2  0
M  END
$$$$
