SKY.pdb
     RDKit          3D

 28 28  0  0  1  0  0  0  0  0999 V2000
   10.5589  -13.1254   18.3946 O   0  0  0  0  0  0  0  0  0  0  0  0
   10.4443  -14.3218   17.6575 C   0  0  0  0  0  0  0  0  0  0  0  0
    9.0016  -14.4923   17.2629 C   0  0  2  0  0  0  0  0  0  0  0  0
    8.3807  -13.2269   16.9209 N   0  0  0  0  0  0  0  0  0  0  0  0
    8.2437  -15.0937   18.3797 C   0  0  0  0  0  0  0  0  0  0  0  0
    7.2780  -14.4627   18.8618 O   0  0  0  0  0  0  0  0  0  0  0  0
    8.5850  -16.3586   18.9113 N   0  0  0  0  0  0  0  0  0  0  0  0
    7.9197  -16.9342   20.0371 C   0  0  1  0  0  0  0  0  0  0  0  0
    8.2080  -18.4091   20.1983 C   0  0  0  0  0  0  0  0  0  0  0  0
    7.2336  -19.2153   19.3370 C   0  0  0  0  0  0  0  0  0  0  0  0
    7.5695  -20.6838   19.3778 C   0  0  0  0  0  0  0  0  0  0  0  0
    6.5314  -21.4563   18.6285 C   0  0  0  0  0  0  0  0  0  0  0  0
    6.8201  -22.8712   18.7928 N   0  0  0  0  0  0  0  0  0  0  0  0
    8.2984  -16.2750   21.3123 C   0  0  0  0  0  0  0  0  0  0  0  0
    9.5167  -16.1878   21.5995 O   0  0  0  0  0  0  0  0  0  0  0  0
    7.4612  -11.5930   28.8967 O   0  0  0  0  0  0  0  0  0  0  0  0
    7.2495  -12.2280   27.6701 C   0  0  0  0  0  0  0  0  0  0  0  0
    6.2939  -13.2117   27.5267 C   0  0  0  0  0  0  0  0  0  0  0  0
    6.0878  -13.8362   26.3144 C   0  0  0  0  0  0  0  0  0  0  0  0
    6.8234  -13.5109   25.1872 C   0  0  0  0  0  0  0  0  0  0  0  0
    6.5926  -14.1949   23.8901 C   0  0  0  0  0  0  0  0  0  0  0  0
    7.7447  -15.0729   23.4661 C   0  0  2  0  0  0  0  0  0  0  0  0
    7.3575  -15.7389   22.2226 N   0  0  0  0  0  0  0  0  0  0  0  0
    8.0516  -16.1485   24.4417 C   0  0  0  0  0  0  0  0  0  0  0  0
    7.3019  -17.3154   24.5290 O   0  0  0  0  0  0  0  0  0  0  0  0
    7.7784  -12.5256   25.3376 C   0  0  0  0  0  0  0  0  0  0  0  0
    7.9873  -11.8973   26.5529 C   0  0  0  0  0  0  0  0  0  0  0  0
    9.0249  -16.0730   25.2664 O   0  0  0  0  0  0  0  0  0  0  0  0
  1  2  1  0
  2  3  1  0
  3  4  1  1
  5  3  1  0
  5  6  2  0
  7  5  1  0
  8  7  1  0
  8  9  1  1
 10  9  1  0
 11 10  1  0
 12 11  1  0
 12 13  1  0
 14  8  1  0
 15 14  2  0
 16 17  1  0
 17 18  2  0
 17 27  1  0
 18 19  1  0
 19 20  2  0
 20 21  1  0
 22 21  1  1
 22 24  1  0
 22 23  1  0
 23 14  1  0
 24 25  1  0
 26 20  1  0
 27 26  2  0
 28 24  2  0
M  END
$$$$
