QDE.pdb
     RDKit          3D

 27 26  0  0  1  0  0  0  0  0999 V2000
   19.9908  -16.4103  -14.5736 N   0  0  0  0  0  0  0  0  0  0  0  0
   18.5762  -16.5442  -14.5512 C   0  0  0  0  0  0  0  0  0  0  0  0
   18.0596  -17.2942  -13.6935 O   0  0  0  0  0  0  0  0  0  0  0  0
   17.7092  -15.8318  -15.5000 C   0  0  0  0  0  0  0  0  0  0  0  0
   18.5279  -14.9352  -16.3967 C   0  0  0  0  0  0  0  0  0  0  0  0
   17.9307  -13.5561  -16.5155 C   0  0  2  0  0  0  0  0  0  0  0  0
   16.9986  -13.4531  -17.6013 N   0  0  0  0  0  0  0  0  0  0  0  0
   18.9689  -12.5080  -16.6728 C   0  0  0  0  0  0  0  0  0  0  0  0
   20.0565  -12.8302  -17.2043 O   0  0  0  0  0  0  0  0  0  0  0  0
   18.7820  -11.1698  -16.2501 N   0  0  0  0  0  0  0  0  0  0  0  0
   19.7515  -10.1241  -16.5378 C   0  0  1  0  0  0  0  0  0  0  0  0
   19.9314   -9.8705  -18.0118 C   0  0  0  0  0  0  0  0  0  0  0  0
   20.9089   -8.8198  -18.3039 C   0  0  0  0  0  0  0  0  0  0  0  0
   20.5794   -7.8032  -18.9629 O   0  0  0  0  0  0  0  0  0  0  0  0
   19.3014   -8.8611  -15.8855 C   0  0  0  0  0  0  0  0  0  0  0  0
   18.3155   -8.1919  -16.3207 O   0  0  0  0  0  0  0  0  0  0  0  0
   22.2141   -8.9513  -17.8462 O   0  0  0  0  0  0  0  0  0  0  0  0
   19.9459   -8.3274  -14.7379 N   0  0  0  0  0  0  0  0  0  0  0  0
   19.8833   -6.9645  -14.3016 C   0  0  1  0  0  0  0  0  0  0  0  0
   21.2066   -6.3017  -14.4159 C   0  0  0  0  0  0  0  0  0  0  0  0
   21.3023   -4.8731  -14.0553 C   0  0  0  0  0  0  0  0  0  0  0  0
   22.6226   -4.3037  -14.3724 C   0  0  0  0  0  0  0  0  0  0  0  0
   23.5972   -5.0163  -14.7176 O   0  0  0  0  0  0  0  0  0  0  0  0
   18.7305   -6.2189  -14.8167 C   0  0  0  0  0  0  0  0  0  0  0  0
   18.5106   -6.1542  -16.0553 O   0  0  0  0  0  0  0  0  0  0  0  0
   22.8821   -2.9260  -14.3105 O   0  0  0  0  0  0  0  0  0  0  0  0
   17.8037   -5.5362  -14.0265 O   0  0  0  0  0  0  0  0  0  0  0  0
  2  1  1  0
  3  2  2  0
  4  2  1  0
  5  4  1  0
  6  5  1  0
  6  8  1  0
  6  7  1  6
  8  9  2  0
 10 11  1  0
 10  8  1  0
 11 15  1  0
 12 13  1  0
 11 12  1  6
 13 17  1  0
 14 13  2  0
 15 16  2  0
 18 19  1  0
 18 15  1  0
 19 24  1  0
 19 20  1  6
 21 20  1  0
 22 21  1  0
 23 22  2  0
 24 25  2  0
 24 27  1  0
 26 22  1  0
M  END
$$$$
