QDE.pdb
     RDKit          3D

 27 26  0  0  1  0  0  0  0  0999 V2000
   11.2053  -15.3885  -12.3456 N   0  0  0  0  0  0  0  0  0  0  0  0
   11.8424  -14.2541  -11.7738 C   0  0  0  0  0  0  0  0  0  0  0  0
   12.1576  -14.2914  -10.5638 O   0  0  0  0  0  0  0  0  0  0  0  0
   12.1394  -13.0474  -12.5580 C   0  0  0  0  0  0  0  0  0  0  0  0
   12.9029  -12.0473  -11.7242 C   0  0  0  0  0  0  0  0  0  0  0  0
   13.2625  -10.8123  -12.5105 C   0  0  2  0  0  0  0  0  0  0  0  0
   13.4209  -11.0799  -13.9111 N   0  0  0  0  0  0  0  0  0  0  0  0
   14.4972  -10.1651  -12.0027 C   0  0  0  0  0  0  0  0  0  0  0  0
   14.5728   -9.9191  -10.7767 O   0  0  0  0  0  0  0  0  0  0  0  0
   15.5842   -9.8170  -12.8402 N   0  0  0  0  0  0  0  0  0  0  0  0
   16.7265   -9.0598  -12.3524 C   0  0  1  0  0  0  0  0  0  0  0  0
   17.7532   -8.7808  -13.4188 C   0  0  0  0  0  0  0  0  0  0  0  0
   18.9164   -8.0411  -12.9241 C   0  0  0  0  0  0  0  0  0  0  0  0
   19.1782   -8.0050  -11.6968 O   0  0  0  0  0  0  0  0  0  0  0  0
   16.2411   -7.7615  -11.8029 C   0  0  0  0  0  0  0  0  0  0  0  0
   15.4337   -7.0194  -12.4405 O   0  0  0  0  0  0  0  0  0  0  0  0
   19.7374   -7.3731  -13.8241 O   0  0  0  0  0  0  0  0  0  0  0  0
   16.6506   -7.2733  -10.5335 N   0  0  0  0  0  0  0  0  0  0  0  0
   16.1605   -6.0883   -9.8954 C   0  0  1  0  0  0  0  0  0  0  0  0
   14.6766   -6.0488   -9.9005 C   0  0  0  0  0  0  0  0  0  0  0  0
   14.0094   -4.8945   -9.2659 C   0  0  0  0  0  0  0  0  0  0  0  0
   12.5423   -4.9750   -9.3612 C   0  0  0  0  0  0  0  0  0  0  0  0
   11.8506   -5.6357   -8.5476 O   0  0  0  0  0  0  0  0  0  0  0  0
   16.8200   -5.7711   -8.6247 C   0  0  0  0  0  0  0  0  0  0  0  0
   17.6412   -6.5759   -8.1105 O   0  0  0  0  0  0  0  0  0  0  0  0
   11.8168   -4.3190  -10.3675 O   0  0  0  0  0  0  0  0  0  0  0  0
   16.6148   -4.6024   -7.8889 O   0  0  0  0  0  0  0  0  0  0  0  0
  2  1  1  0
  3  2  2  0
  4  2  1  0
  5  4  1  0
  6  5  1  0
  6  8  1  0
  6  7  1  6
  8  9  2  0
 10 11  1  0
 10  8  1  0
 11 15  1  0
 12 13  1  0
 11 12  1  6
 13 17  1  0
 14 13  2  0
 15 16  2  0
 18 19  1  0
 18 15  1  0
 19 24  1  0
 19 20  1  1
 21 20  1  0
 22 21  1  0
 23 22  2  0
 24 25  2  0
 24 27  1  0
 26 22  1  0
M  END
$$$$
