QDE.pdb
     RDKit          3D

 27 26  0  0  1  0  0  0  0  0999 V2000
   14.7697   -6.0863   -7.8879 N   0  0  0  0  0  0  0  0  0  0  0  0
   13.7322   -6.8651   -8.4682 C   0  0  0  0  0  0  0  0  0  0  0  0
   12.5587   -6.6889   -8.0721 O   0  0  0  0  0  0  0  0  0  0  0  0
   13.9967   -7.8642   -9.5128 C   0  0  0  0  0  0  0  0  0  0  0  0
   15.4746   -7.9430   -9.8096 C   0  0  0  0  0  0  0  0  0  0  0  0
   15.7969   -9.0415  -10.7905 C   0  0  2  0  0  0  0  0  0  0  0  0
   15.5627  -10.3487  -10.2474 N   0  0  0  0  0  0  0  0  0  0  0  0
   17.1973   -8.9666  -11.2747 C   0  0  0  0  0  0  0  0  0  0  0  0
   18.1177   -9.1900  -10.4548 O   0  0  0  0  0  0  0  0  0  0  0  0
   17.5330   -8.6555  -12.6144 N   0  0  0  0  0  0  0  0  0  0  0  0
   18.9127   -8.5710  -13.0676 C   0  0  1  0  0  0  0  0  0  0  0  0
   19.2576   -9.5979  -14.1145 C   0  0  0  0  0  0  0  0  0  0  0  0
   20.6697   -9.5783  -14.5024 C   0  0  0  0  0  0  0  0  0  0  0  0
   21.4897   -8.8429  -13.8998 O   0  0  0  0  0  0  0  0  0  0  0  0
   19.1487   -7.2118  -13.6333 C   0  0  0  0  0  0  0  0  0  0  0  0
   18.2417   -6.5694  -14.2448 O   0  0  0  0  0  0  0  0  0  0  0  0
   21.1045  -10.3826  -15.5485 O   0  0  0  0  0  0  0  0  0  0  0  0
   20.4009   -6.5506  -13.5243 N   0  0  0  0  0  0  0  0  0  0  0  0
   20.6792   -5.2112  -13.9489 C   0  0  1  0  0  0  0  0  0  0  0  0
   19.6243   -4.2719  -13.4924 C   0  0  0  0  0  0  0  0  0  0  0  0
   19.8467   -2.8259  -13.6925 C   0  0  0  0  0  0  0  0  0  0  0  0
   19.1307   -2.3079  -14.8702 C   0  0  0  0  0  0  0  0  0  0  0  0
   18.0656   -2.8234  -15.2904 O   0  0  0  0  0  0  0  0  0  0  0  0
   22.0678   -4.7887  -13.7398 C   0  0  0  0  0  0  0  0  0  0  0  0
   22.8116   -5.4081  -12.9338 O   0  0  0  0  0  0  0  0  0  0  0  0
   19.5895   -1.2029  -15.6035 O   0  0  0  0  0  0  0  0  0  0  0  0
   22.6784   -3.7086  -14.3801 O   0  0  0  0  0  0  0  0  0  0  0  0
  2  1  1  0
  3  2  2  0
  4  2  1  0
  5  4  1  0
  6  5  1  0
  6  8  1  0
  6  7  1  1
  8  9  2  0
 10 11  1  0
 10  8  1  0
 11 15  1  0
 12 13  1  0
 11 12  1  6
 13 17  1  0
 14 13  2  0
 15 16  2  0
 18 19  1  0
 18 15  1  0
 19 24  1  0
 19 20  1  1
 21 20  1  0
 22 21  1  0
 23 22  2  0
 24 25  2  0
 24 27  1  0
 26 22  1  0
M  END
$$$$
