QDE.pdb
     RDKit          3D

 27 26  0  0  1  0  0  0  0  0999 V2000
   16.5676  -16.2220  -16.6041 N   0  0  0  0  0  0  0  0  0  0  0  0
   16.2047  -15.8029  -15.2956 C   0  0  0  0  0  0  0  0  0  0  0  0
   15.3803  -16.4910  -14.6540 O   0  0  0  0  0  0  0  0  0  0  0  0
   16.7663  -14.5929  -14.6793 C   0  0  0  0  0  0  0  0  0  0  0  0
   17.7879  -13.9581  -15.5913 C   0  0  0  0  0  0  0  0  0  0  0  0
   17.7094  -12.4528  -15.5678 C   0  0  2  0  0  0  0  0  0  0  0  0
   16.4030  -11.9657  -15.9058 N   0  0  0  0  0  0  0  0  0  0  0  0
   18.7044  -11.8261  -16.4726 C   0  0  0  0  0  0  0  0  0  0  0  0
   19.0908  -12.4807  -17.4683 O   0  0  0  0  0  0  0  0  0  0  0  0
   19.2305  -10.5294  -16.2582 N   0  0  0  0  0  0  0  0  0  0  0  0
   20.0600   -9.8570  -17.2460 C   0  0  1  0  0  0  0  0  0  0  0  0
   19.3810   -9.6960  -18.5811 C   0  0  0  0  0  0  0  0  0  0  0  0
   19.7800  -10.7095  -19.5602 C   0  0  0  0  0  0  0  0  0  0  0  0
   19.6598  -10.4937  -20.7911 O   0  0  0  0  0  0  0  0  0  0  0  0
   20.4236   -8.5072  -16.7273 C   0  0  0  0  0  0  0  0  0  0  0  0
   19.8345   -7.9865  -15.7318 O   0  0  0  0  0  0  0  0  0  0  0  0
   20.2966  -11.9218  -19.1201 O   0  0  0  0  0  0  0  0  0  0  0  0
   21.4501   -7.7195  -17.3130 N   0  0  0  0  0  0  0  0  0  0  0  0
   21.9437   -6.4755  -16.8028 C   0  0  1  0  0  0  0  0  0  0  0  0
   22.2065   -6.5584  -15.3441 C   0  0  0  0  0  0  0  0  0  0  0  0
   22.7803   -5.3753  -14.6724 C   0  0  0  0  0  0  0  0  0  0  0  0
   22.3343   -5.2549  -13.2744 C   0  0  0  0  0  0  0  0  0  0  0  0
   21.8699   -6.2278  -12.6304 O   0  0  0  0  0  0  0  0  0  0  0  0
   22.9921   -5.8607  -17.6234 C   0  0  0  0  0  0  0  0  0  0  0  0
   23.6314   -6.5459  -18.4650 O   0  0  0  0  0  0  0  0  0  0  0  0
   22.3975   -4.0451  -12.5662 O   0  0  0  0  0  0  0  0  0  0  0  0
   23.3722   -4.5188  -17.5588 O   0  0  0  0  0  0  0  0  0  0  0  0
  2  1  1  0
  3  2  2  0
  4  2  1  0
  5  4  1  0
  6  5  1  0
  6  8  1  0
  6  7  1  6
  8  9  2  0
 10 11  1  0
 10  8  1  0
 11 15  1  0
 12 13  1  0
 11 12  1  6
 13 17  1  0
 14 13  2  0
 15 16  2  0
 18 19  1  0
 18 15  1  0
 19 24  1  0
 19 20  1  1
 21 20  1  0
 22 21  1  0
 23 22  2  0
 24 25  2  0
 24 27  1  0
 26 22  1  0
M  END
$$$$
