QDE.pdb
     RDKit          3D

 27 26  0  0  1  0  0  0  0  0999 V2000
   21.0219  -12.8959  -17.5754 N   0  0  0  0  0  0  0  0  0  0  0  0
   20.0382  -12.5956  -18.5560 C   0  0  0  0  0  0  0  0  0  0  0  0
   19.9143  -13.3649  -19.5347 O   0  0  0  0  0  0  0  0  0  0  0  0
   19.1685  -11.4155  -18.4538 C   0  0  0  0  0  0  0  0  0  0  0  0
   19.4845  -10.6301  -17.2042 C   0  0  0  0  0  0  0  0  0  0  0  0
   20.5428   -9.5840  -17.4458 C   0  0  2  0  0  0  0  0  0  0  0  0
   21.8625  -10.0575  -17.1411 N   0  0  0  0  0  0  0  0  0  0  0  0
   20.2886   -8.3419  -16.6753 C   0  0  0  0  0  0  0  0  0  0  0  0
   19.2679   -7.6722  -16.9561 O   0  0  0  0  0  0  0  0  0  0  0  0
   21.1454   -7.8865  -15.6444 N   0  0  0  0  0  0  0  0  0  0  0  0
   20.8852   -6.6604  -14.9060 C   0  0  1  0  0  0  0  0  0  0  0  0
   21.3959   -6.7008  -13.4894 C   0  0  0  0  0  0  0  0  0  0  0  0
   20.6534   -7.6272  -12.6318 C   0  0  0  0  0  0  0  0  0  0  0  0
   21.2438   -8.5602  -12.0343 O   0  0  0  0  0  0  0  0  0  0  0  0
   21.5375   -5.5247  -15.6186 C   0  0  0  0  0  0  0  0  0  0  0  0
   22.3294   -5.7058  -16.5929 O   0  0  0  0  0  0  0  0  0  0  0  0
   19.2814   -7.4701  -12.4793 O   0  0  0  0  0  0  0  0  0  0  0  0
   21.3148   -4.1704  -15.2533 N   0  0  0  0  0  0  0  0  0  0  0  0
   21.6730   -3.0239  -16.0336 C   0  0  1  0  0  0  0  0  0  0  0  0
   21.3043   -3.2072  -17.4598 C   0  0  0  0  0  0  0  0  0  0  0  0
   21.5557   -2.0903  -18.3923 C   0  0  0  0  0  0  0  0  0  0  0  0
   21.0335   -2.3605  -19.7421 C   0  0  0  0  0  0  0  0  0  0  0  0
   20.3961   -3.4062  -20.0199 O   0  0  0  0  0  0  0  0  0  0  0  0
   21.3096   -1.7413  -15.4226 C   0  0  0  0  0  0  0  0  0  0  0  0
   20.2614   -1.6344  -14.7325 O   0  0  0  0  0  0  0  0  0  0  0  0
   21.2124   -1.4684  -20.8104 O   0  0  0  0  0  0  0  0  0  0  0  0
   22.0508   -0.5637  -15.5382 O   0  0  0  0  0  0  0  0  0  0  0  0
  2  1  1  0
  3  2  2  0
  4  2  1  0
  5  4  1  0
  6  5  1  0
  6  8  1  0
  6  7  1  1
  8  9  2  0
 10 11  1  0
 10  8  1  0
 11 15  1  0
 12 13  1  0
 11 12  1  1
 13 17  1  0
 14 13  2  0
 15 16  2  0
 18 19  1  0
 18 15  1  0
 19 24  1  0
 19 20  1  6
 21 20  1  0
 22 21  1  0
 23 22  2  0
 24 25  2  0
 24 27  1  0
 26 22  1  0
M  END
$$$$
