QDE.pdb
     RDKit          3D

 27 26  0  0  1  0  0  0  0  0999 V2000
   18.1054   -9.2695  -20.2695 N   0  0  0  0  0  0  0  0  0  0  0  0
   16.9278  -10.0110  -19.9816 C   0  0  0  0  0  0  0  0  0  0  0  0
   16.1944  -10.3622  -20.9322 O   0  0  0  0  0  0  0  0  0  0  0  0
   16.5499  -10.3743  -18.6088 C   0  0  0  0  0  0  0  0  0  0  0  0
   17.5426   -9.8143  -17.6193 C   0  0  0  0  0  0  0  0  0  0  0  0
   18.6007  -10.8219  -17.2475 C   0  0  2  0  0  0  0  0  0  0  0  0
   18.0540  -11.9770  -16.5956 N   0  0  0  0  0  0  0  0  0  0  0  0
   19.6531  -10.2351  -16.3819 C   0  0  0  0  0  0  0  0  0  0  0  0
   19.4230  -10.1426  -15.1540 O   0  0  0  0  0  0  0  0  0  0  0  0
   20.8962   -9.7791  -16.8829 N   0  0  0  0  0  0  0  0  0  0  0  0
   21.9068   -9.1838  -16.0224 C   0  0  1  0  0  0  0  0  0  0  0  0
   23.3118   -9.5785  -16.3957 C   0  0  0  0  0  0  0  0  0  0  0  0
   23.5565  -11.0187  -16.2907 C   0  0  0  0  0  0  0  0  0  0  0  0
   23.3933  -11.6185  -15.1999 O   0  0  0  0  0  0  0  0  0  0  0  0
   21.7889   -7.6995  -16.1012 C   0  0  0  0  0  0  0  0  0  0  0  0
   21.4202   -7.1079  -17.1611 O   0  0  0  0  0  0  0  0  0  0  0  0
   23.9734  -11.7266  -17.4111 O   0  0  0  0  0  0  0  0  0  0  0  0
   22.0811   -6.8546  -14.9976 N   0  0  0  0  0  0  0  0  0  0  0  0
   21.7594   -5.4621  -14.9022 C   0  0  1  0  0  0  0  0  0  0  0  0
   20.3512   -5.2069  -15.2964 C   0  0  0  0  0  0  0  0  0  0  0  0
   19.8391   -3.8260  -15.1918 C   0  0  0  0  0  0  0  0  0  0  0  0
   18.4301   -3.7194  -15.6056 C   0  0  0  0  0  0  0  0  0  0  0  0
   18.0635   -2.9966  -16.5648 O   0  0  0  0  0  0  0  0  0  0  0  0
   22.2205   -4.8201  -13.6670 C   0  0  0  0  0  0  0  0  0  0  0  0
   22.3971   -5.4976  -12.6200 O   0  0  0  0  0  0  0  0  0  0  0  0
   17.4006   -4.4180  -14.9565 O   0  0  0  0  0  0  0  0  0  0  0  0
   22.4967   -3.4583  -13.5304 O   0  0  0  0  0  0  0  0  0  0  0  0
  2  1  1  0
  3  2  2  0
  4  2  1  0
  5  4  1  0
  6  5  1  0
  6  8  1  0
  6  7  1  1
  8  9  2  0
 10 11  1  0
 10  8  1  0
 11 15  1  0
 12 13  1  0
 11 12  1  6
 13 17  1  0
 14 13  2  0
 15 16  2  0
 18 19  1  0
 18 15  1  0
 19 24  1  0
 19 20  1  1
 21 20  1  0
 22 21  1  0
 23 22  2  0
 24 25  2  0
 24 27  1  0
 26 22  1  0
M  END
$$$$
