QDE.pdb
     RDKit          3D

 27 26  0  0  1  0  0  0  0  0999 V2000
   19.0543  -13.6710  -20.8622 N   0  0  0  0  0  0  0  0  0  0  0  0
   20.1375  -13.6303  -19.9432 C   0  0  0  0  0  0  0  0  0  0  0  0
   20.4678  -14.6867  -19.3603 O   0  0  0  0  0  0  0  0  0  0  0  0
   20.8753  -12.3913  -19.6602 C   0  0  0  0  0  0  0  0  0  0  0  0
   20.0489  -11.4663  -18.8001 C   0  0  0  0  0  0  0  0  0  0  0  0
   20.0681  -11.8751  -17.3491 C   0  0  2  0  0  0  0  0  0  0  0  0
   19.2341  -13.0130  -17.0882 N   0  0  0  0  0  0  0  0  0  0  0  0
   19.6631  -10.7668  -16.4497 C   0  0  0  0  0  0  0  0  0  0  0  0
   18.4759  -10.7342  -16.0513 O   0  0  0  0  0  0  0  0  0  0  0  0
   20.5563   -9.7529  -16.0271 N   0  0  0  0  0  0  0  0  0  0  0  0
   20.1536   -8.6996  -15.1082 C   0  0  1  0  0  0  0  0  0  0  0  0
   19.7416   -9.2177  -13.7550 C   0  0  0  0  0  0  0  0  0  0  0  0
   19.2574   -8.1682  -12.8554 C   0  0  0  0  0  0  0  0  0  0  0  0
   20.0619   -7.4897  -12.1708 O   0  0  0  0  0  0  0  0  0  0  0  0
   21.2939   -7.7550  -14.9330 C   0  0  0  0  0  0  0  0  0  0  0  0
   22.4984   -8.1129  -15.1065 O   0  0  0  0  0  0  0  0  0  0  0  0
   17.8933   -7.9226  -12.7602 O   0  0  0  0  0  0  0  0  0  0  0  0
   21.1053   -6.3972  -14.5615 N   0  0  0  0  0  0  0  0  0  0  0  0
   21.9990   -5.3175  -14.8567 C   0  0  1  0  0  0  0  0  0  0  0  0
   22.4544   -5.3667  -16.2687 C   0  0  0  0  0  0  0  0  0  0  0  0
   21.5604   -4.8171  -17.3074 C   0  0  0  0  0  0  0  0  0  0  0  0
   22.1170   -4.9696  -18.6620 C   0  0  0  0  0  0  0  0  0  0  0  0
   21.7706   -5.9001  -19.4307 O   0  0  0  0  0  0  0  0  0  0  0  0
   21.5539   -4.0126  -14.3571 C   0  0  0  0  0  0  0  0  0  0  0  0
   20.3590   -3.8371  -13.9992 O   0  0  0  0  0  0  0  0  0  0  0  0
   23.0725   -4.0858  -19.1864 O   0  0  0  0  0  0  0  0  0  0  0  0
   22.3681   -2.8852  -14.2337 O   0  0  0  0  0  0  0  0  0  0  0  0
  2  1  1  0
  3  2  2  0
  4  2  1  0
  5  4  1  0
  6  5  1  0
  6  8  1  0
  6  7  1  6
  8  9  2  0
 10 11  1  0
 10  8  1  0
 11 15  1  0
 12 13  1  0
 11 12  1  1
 13 17  1  0
 14 13  2  0
 15 16  2  0
 18 19  1  0
 18 15  1  0
 19 24  1  0
 19 20  1  6
 21 20  1  0
 22 21  1  0
 23 22  2  0
 24 25  2  0
 24 27  1  0
 26 22  1  0
M  END
$$$$
