QDE.pdb
     RDKit          3D

 27 26  0  0  1  0  0  0  0  0999 V2000
   18.5616  -15.5602  -14.8745 N   0  0  0  0  0  0  0  0  0  0  0  0
   17.1809  -15.2263  -14.9148 C   0  0  0  0  0  0  0  0  0  0  0  0
   16.3730  -15.9437  -14.2843 O   0  0  0  0  0  0  0  0  0  0  0  0
   16.6787  -14.0705  -15.6708 C   0  0  0  0  0  0  0  0  0  0  0  0
   17.8210  -13.3137  -16.3039 C   0  0  0  0  0  0  0  0  0  0  0  0
   17.3639  -12.0229  -16.9346 C   0  0  2  0  0  0  0  0  0  0  0  0
   16.3498  -12.2265  -17.9290 N   0  0  0  0  0  0  0  0  0  0  0  0
   18.4873  -11.2680  -17.5422 C   0  0  0  0  0  0  0  0  0  0  0  0
   19.2673  -11.8835  -18.3050 O   0  0  0  0  0  0  0  0  0  0  0  0
   18.7120   -9.8919  -17.2968 N   0  0  0  0  0  0  0  0  0  0  0  0
   19.7521   -9.1423  -17.9840 C   0  0  1  0  0  0  0  0  0  0  0  0
   19.5539   -9.0830  -19.4761 C   0  0  0  0  0  0  0  0  0  0  0  0
   20.5922   -8.3167  -20.1687 C   0  0  0  0  0  0  0  0  0  0  0  0
   21.7676   -8.2868  -19.7284 O   0  0  0  0  0  0  0  0  0  0  0  0
   19.7737   -7.7512  -17.4476 C   0  0  0  0  0  0  0  0  0  0  0  0
   18.7909   -6.9609  -17.5839 O   0  0  0  0  0  0  0  0  0  0  0  0
   20.2712   -7.6164  -21.3249 O   0  0  0  0  0  0  0  0  0  0  0  0
   20.8932   -7.2229  -16.7514 N   0  0  0  0  0  0  0  0  0  0  0  0
   20.8800   -6.0744  -15.8956 C   0  0  1  0  0  0  0  0  0  0  0  0
   21.4803   -6.3817  -14.5732 C   0  0  0  0  0  0  0  0  0  0  0  0
   21.5870   -5.2882  -13.5868 C   0  0  0  0  0  0  0  0  0  0  0  0
   22.2172   -5.7278  -12.3308 C   0  0  0  0  0  0  0  0  0  0  0  0
   23.3118   -5.2621  -11.9285 O   0  0  0  0  0  0  0  0  0  0  0  0
   21.3213   -4.8349  -16.5432 C   0  0  0  0  0  0  0  0  0  0  0  0
   22.2517   -4.8516  -17.3922 O   0  0  0  0  0  0  0  0  0  0  0  0
   21.6379   -6.6970  -11.4975 O   0  0  0  0  0  0  0  0  0  0  0  0
   20.7832   -3.5704  -16.2969 O   0  0  0  0  0  0  0  0  0  0  0  0
  2  1  1  0
  3  2  2  0
  4  2  1  0
  5  4  1  0
  6  5  1  0
  6  8  1  0
  6  7  1  6
  8  9  2  0
 10 11  1  0
 10  8  1  0
 11 15  1  0
 12 13  1  0
 11 12  1  6
 13 17  1  0
 14 13  2  0
 15 16  2  0
 18 19  1  0
 18 15  1  0
 19 24  1  0
 19 20  1  1
 21 20  1  0
 22 21  1  0
 23 22  2  0
 24 25  2  0
 24 27  1  0
 26 22  1  0
M  END
$$$$
