QDE.pdb
     RDKit          3D

 27 26  0  0  1  0  0  0  0  0999 V2000
   13.0681   -7.7691  -15.5312 N   0  0  0  0  0  0  0  0  0  0  0  0
   12.9993   -8.9247  -16.3554 C   0  0  0  0  0  0  0  0  0  0  0  0
   11.9339   -9.1611  -16.9669 O   0  0  0  0  0  0  0  0  0  0  0  0
   14.1360   -9.8434  -16.5087 C   0  0  0  0  0  0  0  0  0  0  0  0
   15.3123   -9.3736  -15.6878 C   0  0  0  0  0  0  0  0  0  0  0  0
   16.5013  -10.2899  -15.8269 C   0  0  2  0  0  0  0  0  0  0  0  0
   16.2359  -11.6121  -15.3373 N   0  0  0  0  0  0  0  0  0  0  0  0
   17.7031   -9.7559  -15.1401 C   0  0  0  0  0  0  0  0  0  0  0  0
   18.2213  -10.4486  -14.2341 O   0  0  0  0  0  0  0  0  0  0  0  0
   18.2832   -8.5057  -15.4641 N   0  0  0  0  0  0  0  0  0  0  0  0
   19.4963   -8.0248  -14.8214 C   0  0  1  0  0  0  0  0  0  0  0  0
   20.6189   -9.0291  -14.8450 C   0  0  0  0  0  0  0  0  0  0  0  0
   21.8758   -8.5061  -14.3051 C   0  0  0  0  0  0  0  0  0  0  0  0
   22.9772   -8.8422  -14.8054 O   0  0  0  0  0  0  0  0  0  0  0  0
   19.9474   -6.7852  -15.5163 C   0  0  0  0  0  0  0  0  0  0  0  0
   20.3070   -6.7872  -16.7328 O   0  0  0  0  0  0  0  0  0  0  0  0
   21.8470   -7.6291  -13.2280 O   0  0  0  0  0  0  0  0  0  0  0  0
   20.0035   -5.5255  -14.8626 N   0  0  0  0  0  0  0  0  0  0  0  0
   20.2022   -4.2594  -15.5023 C   0  0  1  0  0  0  0  0  0  0  0  0
   19.1994   -3.2637  -15.0479 C   0  0  0  0  0  0  0  0  0  0  0  0
   19.2695   -1.9000  -15.6097 C   0  0  0  0  0  0  0  0  0  0  0  0
   18.1768   -1.0395  -15.1266 C   0  0  0  0  0  0  0  0  0  0  0  0
   16.9738   -1.3982  -15.1582 O   0  0  0  0  0  0  0  0  0  0  0  0
   21.5989   -3.8139  -15.5364 C   0  0  0  0  0  0  0  0  0  0  0  0
   22.4099   -4.1789  -14.6445 O   0  0  0  0  0  0  0  0  0  0  0  0
   18.4049    0.2402  -14.5978 O   0  0  0  0  0  0  0  0  0  0  0  0
   22.1468   -2.9792  -16.5123 O   0  0  0  0  0  0  0  0  0  0  0  0
  2  1  1  0
  3  2  2  0
  4  2  1  0
  5  4  1  0
  6  5  1  0
  6  8  1  0
  6  7  1  1
  8  9  2  0
 10 11  1  0
 10  8  1  0
 11 15  1  0
 12 13  1  0
 11 12  1  6
 13 17  1  0
 14 13  2  0
 15 16  2  0
 18 19  1  0
 18 15  1  0
 19 24  1  0
 19 20  1  1
 21 20  1  0
 22 21  1  0
 23 22  2  0
 24 25  2  0
 24 27  1  0
 26 22  1  0
M  END
$$$$
