QDE.pdb
     RDKit          3D

 27 26  0  0  1  0  0  0  0  0999 V2000
   27.0574  -21.9234  -10.2980 N   0  0  0  0  0  0  0  0  0  0  0  0
   26.7100  -21.0540  -11.3671 C   0  0  0  0  0  0  0  0  0  0  0  0
   25.5100  -20.7310  -11.5100 O   0  0  0  0  0  0  0  0  0  0  0  0
   27.7133  -20.5274  -12.3029 C   0  0  0  0  0  0  0  0  0  0  0  0
   27.0465  -19.7660  -13.4226 C   0  0  0  0  0  0  0  0  0  0  0  0
   26.4557  -20.6870  -14.4598 C   0  0  2  0  0  0  0  0  0  0  0  0
   27.4554  -21.2796  -15.3011 N   0  0  0  0  0  0  0  0  0  0  0  0
   25.4552  -20.0004  -15.3134 C   0  0  0  0  0  0  0  0  0  0  0  0
   25.8493  -19.4822  -16.3836 O   0  0  0  0  0  0  0  0  0  0  0  0
   24.0847  -19.9078  -14.9706 N   0  0  0  0  0  0  0  0  0  0  0  0
   23.0986  -19.3293  -15.8700 C   0  0  1  0  0  0  0  0  0  0  0  0
   23.0850  -19.9752  -17.2309 C   0  0  0  0  0  0  0  0  0  0  0  0
   22.0883  -19.3988  -18.1360 C   0  0  0  0  0  0  0  0  0  0  0  0
   22.1518  -18.1913  -18.4739 O   0  0  0  0  0  0  0  0  0  0  0  0
   21.7473  -19.4748  -15.2568 C   0  0  0  0  0  0  0  0  0  0  0  0
   21.3171  -20.5893  -14.8305 O   0  0  0  0  0  0  0  0  0  0  0  0
   21.0626  -20.1984  -18.6248 O   0  0  0  0  0  0  0  0  0  0  0  0
   20.8572  -18.3776  -15.1109 N   0  0  0  0  0  0  0  0  0  0  0  0
   19.6493  -18.3773  -14.3412 C   0  0  1  0  0  0  0  0  0  0  0  0
   19.0753  -17.0120  -14.2413 C   0  0  0  0  0  0  0  0  0  0  0  0
   17.8413  -16.8325  -13.4505 C   0  0  0  0  0  0  0  0  0  0  0  0
   17.3419  -15.4483  -13.5002 C   0  0  0  0  0  0  0  0  0  0  0  0
   17.0996  -14.8590  -14.5823 O   0  0  0  0  0  0  0  0  0  0  0  0
   18.7170  -19.4566  -14.6820 C   0  0  0  0  0  0  0  0  0  0  0  0
   18.1030  -20.0824  -13.7776 O   0  0  0  0  0  0  0  0  0  0  0  0
   17.1026  -14.6930  -12.3420 O   0  0  0  0  0  0  0  0  0  0  0  0
   18.4287  -19.8820  -15.9802 O   0  0  0  0  0  0  0  0  0  0  0  0
  2  1  1  0
  3  2  2  0
  4  2  1  0
  5  4  1  0
  6  5  1  0
  6  8  1  0
  6  7  1  6
  8  9  2  0
 10 11  1  0
 10  8  1  0
 11 15  1  0
 12 13  1  0
 11 12  1  6
 13 17  1  0
 14 13  2  0
 15 16  2  0
 18 19  1  0
 18 15  1  0
 19 24  1  0
 19 20  1  6
 21 20  1  0
 22 21  1  0
 23 22  2  0
 24 25  2  0
 24 27  1  0
 26 22  1  0
M  END
$$$$
