QHH.pdb
     RDKit          3D

 30 31  0  0  1  0  0  0  0  0999 V2000
   17.9435  -17.3169  -15.5700 N   0  0  0  0  0  0  0  0  0  0  0  0
   17.8372  -17.5944  -16.9591 C   0  0  0  0  0  0  0  0  0  0  0  0
   17.0464  -18.5269  -17.2969 O   0  0  0  0  0  0  0  0  0  0  0  0
   18.6255  -16.8188  -17.9803 C   0  0  0  0  0  0  0  0  0  0  0  0
   19.4238  -15.7992  -17.2449 C   0  0  0  0  0  0  0  0  0  0  0  0
   20.2847  -14.9248  -18.0855 C   0  0  2  0  0  0  0  0  0  0  0  0
   21.1108  -15.8086  -18.9170 N   0  0  0  0  0  0  0  0  0  0  0  0
   21.0772  -13.9266  -17.3777 C   0  0  0  0  0  0  0  0  0  0  0  0
   20.5305  -13.2319  -16.4832 O   0  0  0  0  0  0  0  0  0  0  0  0
   22.4544  -13.6591  -17.6144 N   0  0  0  0  0  0  0  0  0  0  0  0
   23.2074  -12.6201  -16.9599 C   0  0  1  0  0  0  0  0  0  0  0  0
   24.6790  -12.6943  -17.2687 C   0  0  0  0  0  0  0  0  0  0  0  0
   25.4807  -11.7468  -16.4779 C   0  0  0  0  0  0  0  0  0  0  0  0
   24.9671  -10.9275  -15.5030 C   0  0  0  0  0  0  0  0  0  0  0  0
   25.9981  -10.2160  -15.0122 N   0  0  0  0  0  0  0  0  0  0  0  0
   27.1265  -10.5594  -15.6410 C   0  0  0  0  0  0  0  0  0  0  0  0
   26.7933  -11.4960  -16.5337 N   0  0  0  0  0  0  0  0  0  0  0  0
   22.6892  -11.2680  -17.2235 C   0  0  0  0  0  0  0  0  0  0  0  0
   22.5386  -10.7661  -18.3671 O   0  0  0  0  0  0  0  0  0  0  0  0
   22.3315  -10.4689  -16.1022 N   0  0  0  0  0  0  0  0  0  0  0  0
   21.8196   -9.1067  -16.3386 C   0  0  1  0  0  0  0  0  0  0  0  0
   20.5593   -8.9951  -15.4942 C   0  0  0  0  0  0  0  0  0  0  0  0
   19.8953   -7.7052  -15.5807 C   0  0  0  0  0  0  0  0  0  0  0  0
   20.2678   -6.6384  -16.3543 C   0  0  0  0  0  0  0  0  0  0  0  0
   19.3804   -5.6414  -16.1373 N   0  0  0  0  0  0  0  0  0  0  0  0
   18.4761   -6.0739  -15.2504 C   0  0  0  0  0  0  0  0  0  0  0  0
   18.7972   -7.3399  -14.9130 N   0  0  0  0  0  0  0  0  0  0  0  0
   22.8174   -8.1743  -15.7527 C   0  0  0  0  0  0  0  0  0  0  0  0
   23.2255   -7.0095  -16.3777 O   0  0  0  0  0  0  0  0  0  0  0  0
   23.2950   -8.4967  -14.6237 O   0  0  0  0  0  0  0  0  0  0  0  0
  2  1  1  0
  2  3  2  0
  4  5  1  0
  4  2  1  0
  6  7  1  1
  6  5  1  0
  8  6  1  0
  9  8  2  0
 10  8  1  0
 11 10  1  0
 11 12  1  6
 12 13  1  0
 13 14  2  0
 14 15  1  0
 16 15  1  0
 17 13  1  0
 17 16  2  0
 18 20  1  0
 18 11  1  0
 19 18  2  0
 21 28  1  0
 21 20  1  0
 21 22  1  1
 23 22  1  0
 23 24  2  0
 25 24  1  0
 26 25  1  0
 27 26  2  0
 27 23  1  0
 28 29  1  0
 30 28  2  0
M  END
$$$$
