QHH.pdb
     RDKit          3D

 30 31  0  0  1  0  0  0  0  0999 V2000
   24.2360  -13.2539  -20.2903 N   0  0  0  0  0  0  0  0  0  0  0  0
   23.6224  -14.4864  -20.6398 C   0  0  0  0  0  0  0  0  0  0  0  0
   24.3784  -15.3865  -21.1167 O   0  0  0  0  0  0  0  0  0  0  0  0
   22.1460  -14.7126  -20.4529 C   0  0  0  0  0  0  0  0  0  0  0  0
   21.5712  -13.4576  -19.8942 C   0  0  0  0  0  0  0  0  0  0  0  0
   21.0272  -13.5561  -18.5134 C   0  0  2  0  0  0  0  0  0  0  0  0
   20.1721  -14.7487  -18.4737 N   0  0  0  0  0  0  0  0  0  0  0  0
   20.3519  -12.3706  -17.9995 C   0  0  0  0  0  0  0  0  0  0  0  0
   19.6898  -11.6513  -18.7907 O   0  0  0  0  0  0  0  0  0  0  0  0
   20.3750  -11.9406  -16.6434 N   0  0  0  0  0  0  0  0  0  0  0  0
   19.7464  -10.7387  -16.1584 C   0  0  1  0  0  0  0  0  0  0  0  0
   18.6834  -11.0199  -15.1300 C   0  0  0  0  0  0  0  0  0  0  0  0
   17.5190  -11.7275  -15.6859 C   0  0  0  0  0  0  0  0  0  0  0  0
   16.4585  -11.1063  -16.2982 C   0  0  0  0  0  0  0  0  0  0  0  0
   15.6030  -12.0760  -16.6692 N   0  0  0  0  0  0  0  0  0  0  0  0
   16.0880  -13.2696  -16.3132 C   0  0  0  0  0  0  0  0  0  0  0  0
   17.2595  -13.0394  -15.7134 N   0  0  0  0  0  0  0  0  0  0  0  0
   20.7038   -9.7403  -15.6558 C   0  0  0  0  0  0  0  0  0  0  0  0
   21.6616   -9.9898  -14.8793 O   0  0  0  0  0  0  0  0  0  0  0  0
   20.5344   -8.3928  -16.0793 N   0  0  0  0  0  0  0  0  0  0  0  0
   21.5824   -7.4100  -15.7487 C   0  0  1  0  0  0  0  0  0  0  0  0
   21.8501   -6.6529  -17.0406 C   0  0  0  0  0  0  0  0  0  0  0  0
   22.6457   -7.3882  -18.0093 C   0  0  0  0  0  0  0  0  0  0  0  0
   23.6012   -8.3321  -17.7425 C   0  0  0  0  0  0  0  0  0  0  0  0
   24.0951   -8.7652  -18.9245 N   0  0  0  0  0  0  0  0  0  0  0  0
   23.4643   -8.1086  -19.9055 C   0  0  0  0  0  0  0  0  0  0  0  0
   22.5769   -7.2659  -19.3380 N   0  0  0  0  0  0  0  0  0  0  0  0
   20.9701   -6.4444  -14.7997 C   0  0  0  0  0  0  0  0  0  0  0  0
   21.6769   -5.4157  -14.2028 O   0  0  0  0  0  0  0  0  0  0  0  0
   19.7376   -6.6039  -14.5502 O   0  0  0  0  0  0  0  0  0  0  0  0
  2  1  1  0
  2  3  2  0
  4  5  1  0
  4  2  1  0
  6  7  1  6
  6  5  1  0
  8  6  1  0
  9  8  2  0
 10  8  1  0
 11 10  1  0
 11 12  1  1
 12 13  1  0
 13 14  2  0
 14 15  1  0
 16 15  1  0
 17 13  1  0
 17 16  2  0
 18 20  1  0
 18 11  1  0
 19 18  2  0
 21 28  1  0
 21 20  1  0
 21 22  1  6
 23 22  1  0
 23 24  2  0
 25 24  1  0
 26 25  1  0
 27 26  2  0
 27 23  1  0
 28 29  1  0
 30 28  2  0
M  END
$$$$
