QHH.pdb
     RDKit          3D

 30 31  0  0  1  0  0  0  0  0999 V2000
   15.3352  -21.7192    5.8294 N   0  0  0  0  0  0  0  0  0  0  0  0
   14.4651  -21.4857    4.7311 C   0  0  0  0  0  0  0  0  0  0  0  0
   13.5009  -22.2965    4.5831 O   0  0  0  0  0  0  0  0  0  0  0  0
   14.6780  -20.3315    3.7886 C   0  0  0  0  0  0  0  0  0  0  0  0
   15.9274  -19.6388    4.2091 C   0  0  0  0  0  0  0  0  0  0  0  0
   16.3488  -18.4949    3.3569 C   0  0  2  0  0  0  0  0  0  0  0  0
   16.8141  -19.0576    2.0835 N   0  0  0  0  0  0  0  0  0  0  0  0
   17.3151  -17.5743    3.9439 C   0  0  0  0  0  0  0  0  0  0  0  0
   18.5417  -17.8393    3.8621 O   0  0  0  0  0  0  0  0  0  0  0  0
   16.9860  -16.3672    4.6214 N   0  0  0  0  0  0  0  0  0  0  0  0
   17.9469  -15.4956    5.2474 C   0  0  1  0  0  0  0  0  0  0  0  0
   17.4586  -14.0747    5.3427 C   0  0  0  0  0  0  0  0  0  0  0  0
   18.4802  -13.1493    5.8582 C   0  0  0  0  0  0  0  0  0  0  0  0
   19.5145  -12.6461    5.1082 C   0  0  0  0  0  0  0  0  0  0  0  0
   20.2280  -11.8452    5.9204 N   0  0  0  0  0  0  0  0  0  0  0  0
   19.6803  -11.8313    7.1395 C   0  0  0  0  0  0  0  0  0  0  0  0
   18.6131  -12.6333    7.0851 N   0  0  0  0  0  0  0  0  0  0  0  0
   18.4038  -15.9767    6.5611 C   0  0  0  0  0  0  0  0  0  0  0  0
   17.6699  -16.5335    7.4179 O   0  0  0  0  0  0  0  0  0  0  0  0
   19.7772  -15.7998    6.8869 N   0  0  0  0  0  0  0  0  0  0  0  0
   20.2530  -16.2409    8.2107 C   0  0  1  0  0  0  0  0  0  0  0  0
   21.5695  -16.9571    7.9503 C   0  0  0  0  0  0  0  0  0  0  0  0
   22.2013  -17.4967    9.1426 C   0  0  0  0  0  0  0  0  0  0  0  0
   21.5737  -17.9674   10.2650 C   0  0  0  0  0  0  0  0  0  0  0  0
   22.5284  -18.3755   11.1313 N   0  0  0  0  0  0  0  0  0  0  0  0
   23.7227  -18.1652   10.5649 C   0  0  0  0  0  0  0  0  0  0  0  0
   23.5155  -17.6263    9.3458 N   0  0  0  0  0  0  0  0  0  0  0  0
   20.5746  -15.0078    8.9751 C   0  0  0  0  0  0  0  0  0  0  0  0
   20.5825  -14.9529   10.3575 O   0  0  0  0  0  0  0  0  0  0  0  0
   20.8500  -13.9767    8.2914 O   0  0  0  0  0  0  0  0  0  0  0  0
  2  1  1  0
  2  3  2  0
  4  5  1  0
  4  2  1  0
  6  7  1  6
  6  5  1  0
  8  6  1  0
  9  8  2  0
 10  8  1  0
 11 10  1  0
 11 12  1  1
 12 13  1  0
 13 14  2  0
 14 15  1  0
 16 15  1  0
 17 13  1  0
 17 16  2  0
 18 20  1  0
 18 11  1  0
 19 18  2  0
 21 28  1  0
 21 20  1  0
 21 22  1  6
 23 22  1  0
 23 24  2  0
 25 24  1  0
 26 25  1  0
 27 26  2  0
 27 23  1  0
 28 29  1  0
 30 28  2  0
M  END
$$$$
