QHH.pdb
     RDKit          3D

 30 31  0  0  1  0  0  0  0  0999 V2000
   21.2641  -14.1210  -17.9009 N   0  0  0  0  0  0  0  0  0  0  0  0
   22.2986  -13.3973  -18.5520 C   0  0  0  0  0  0  0  0  0  0  0  0
   22.0799  -12.1692  -18.7820 O   0  0  0  0  0  0  0  0  0  0  0  0
   23.5918  -14.0570  -18.9498 C   0  0  0  0  0  0  0  0  0  0  0  0
   23.5114  -15.4831  -18.5282 C   0  0  0  0  0  0  0  0  0  0  0  0
   23.8703  -15.7579  -17.1112 C   0  0  2  0  0  0  0  0  0  0  0  0
   25.2562  -15.3110  -16.9256 N   0  0  0  0  0  0  0  0  0  0  0  0
   23.6594  -17.1232  -16.6451 C   0  0  0  0  0  0  0  0  0  0  0  0
   22.6372  -17.7494  -17.0254 O   0  0  0  0  0  0  0  0  0  0  0  0
   24.5314  -17.8325  -15.7728 N   0  0  0  0  0  0  0  0  0  0  0  0
   24.2695  -19.1497  -15.2521 C   0  0  1  0  0  0  0  0  0  0  0  0
   25.4275  -19.6963  -14.4604 C   0  0  0  0  0  0  0  0  0  0  0  0
   25.1866  -21.0573  -13.9550 C   0  0  0  0  0  0  0  0  0  0  0  0
   23.9907  -21.7224  -14.0689 C   0  0  0  0  0  0  0  0  0  0  0  0
   24.1609  -22.9266  -13.4937 N   0  0  0  0  0  0  0  0  0  0  0  0
   25.4095  -23.0352  -13.0292 C   0  0  0  0  0  0  0  0  0  0  0  0
   26.0235  -21.8845  -13.3190 N   0  0  0  0  0  0  0  0  0  0  0  0
   23.0230  -19.2336  -14.4742 C   0  0  0  0  0  0  0  0  0  0  0  0
   22.8094  -18.6299  -13.3913 O   0  0  0  0  0  0  0  0  0  0  0  0
   21.9818  -20.0581  -14.9840 N   0  0  0  0  0  0  0  0  0  0  0  0
   20.7199  -20.1532  -14.2277 C   0  0  1  0  0  0  0  0  0  0  0  0
   19.6864  -19.4210  -15.0701 C   0  0  0  0  0  0  0  0  0  0  0  0
   19.4698  -18.0379  -14.6799 C   0  0  0  0  0  0  0  0  0  0  0  0
   20.1356  -17.3443  -13.7048 C   0  0  0  0  0  0  0  0  0  0  0  0
   19.6263  -16.0922  -13.6681 N   0  0  0  0  0  0  0  0  0  0  0  0
   18.6662  -16.0052  -14.5966 C   0  0  0  0  0  0  0  0  0  0  0  0
   18.5751  -17.2014  -15.2136 N   0  0  0  0  0  0  0  0  0  0  0  0
   20.3377  -21.5892  -14.2249 C   0  0  0  0  0  0  0  0  0  0  0  0
   19.6057  -22.1771  -13.2088 O   0  0  0  0  0  0  0  0  0  0  0  0
   20.7196  -22.2759  -15.2194 O   0  0  0  0  0  0  0  0  0  0  0  0
  2  1  1  0
  2  3  2  0
  4  5  1  0
  4  2  1  0
  6  7  1  6
  6  5  1  0
  8  6  1  0
  9  8  2  0
 10  8  1  0
 11 10  1  0
 11 12  1  1
 12 13  1  0
 13 14  2  0
 14 15  1  0
 16 15  1  0
 17 13  1  0
 17 16  2  0
 18 20  1  0
 18 11  1  0
 19 18  2  0
 21 28  1  0
 21 20  1  0
 21 22  1  6
 23 22  1  0
 23 24  2  0
 25 24  1  0
 26 25  1  0
 27 26  2  0
 27 23  1  0
 28 29  1  0
 30 28  2  0
M  END
$$$$
