QHH.pdb
     RDKit          3D

 30 31  0  0  1  0  0  0  0  0999 V2000
   20.3395  -10.2687    6.7177 N   0  0  0  0  0  0  0  0  0  0  0  0
   21.1032  -11.4052    6.3394 C   0  0  0  0  0  0  0  0  0  0  0  0
   22.3533  -11.2357    6.2070 O   0  0  0  0  0  0  0  0  0  0  0  0
   20.4591  -12.7457    6.1069 C   0  0  0  0  0  0  0  0  0  0  0  0
   18.9917  -12.5719    6.2921 C   0  0  0  0  0  0  0  0  0  0  0  0
   18.1763  -13.8108    6.1805 C   0  0  2  0  0  0  0  0  0  0  0  0
   16.7828  -13.3909    5.9887 N   0  0  0  0  0  0  0  0  0  0  0  0
   18.3214  -14.7786    7.2612 C   0  0  0  0  0  0  0  0  0  0  0  0
   17.9656  -14.4569    8.4237 O   0  0  0  0  0  0  0  0  0  0  0  0
   18.8452  -16.0935    7.1153 N   0  0  0  0  0  0  0  0  0  0  0  0
   18.9902  -17.0376    8.1935 C   0  0  1  0  0  0  0  0  0  0  0  0
   18.4456  -18.3971    7.8451 C   0  0  0  0  0  0  0  0  0  0  0  0
   16.9756  -18.4281    7.7805 C   0  0  0  0  0  0  0  0  0  0  0  0
   16.1503  -17.8033    8.6826 C   0  0  0  0  0  0  0  0  0  0  0  0
   14.8878  -18.0579    8.2934 N   0  0  0  0  0  0  0  0  0  0  0  0
   14.8965  -18.8126    7.1903 C   0  0  0  0  0  0  0  0  0  0  0  0
   16.1800  -19.0302    6.8897 N   0  0  0  0  0  0  0  0  0  0  0  0
   20.3695  -17.1439    8.6959 C   0  0  0  0  0  0  0  0  0  0  0  0
   21.3882  -17.2946    7.9732 O   0  0  0  0  0  0  0  0  0  0  0  0
   20.5663  -17.0707   10.1028 N   0  0  0  0  0  0  0  0  0  0  0  0
   21.9397  -17.1616   10.6310 C   0  0  1  0  0  0  0  0  0  0  0  0
   22.0317  -16.0909   11.7075 C   0  0  0  0  0  0  0  0  0  0  0  0
   22.3420  -14.7635   11.2040 C   0  0  0  0  0  0  0  0  0  0  0  0
   22.6030  -14.4164    9.9053 C   0  0  0  0  0  0  0  0  0  0  0  0
   22.8403  -13.0856    9.8734 N   0  0  0  0  0  0  0  0  0  0  0  0
   22.7304  -12.6125   11.1206 C   0  0  0  0  0  0  0  0  0  0  0  0
   22.4247  -13.6461   11.9318 N   0  0  0  0  0  0  0  0  0  0  0  0
   22.0408  -18.4757   11.3173 C   0  0  0  0  0  0  0  0  0  0  0  0
   20.9827  -19.3610   11.4203 O   0  0  0  0  0  0  0  0  0  0  0  0
   23.1681  -18.7635   11.8203 O   0  0  0  0  0  0  0  0  0  0  0  0
  2  1  1  0
  2  3  2  0
  4  5  1  0
  4  2  1  0
  6  7  1  1
  6  5  1  0
  8  6  1  0
  9  8  2  0
 10  8  1  0
 11 10  1  0
 11 12  1  6
 12 13  1  0
 13 14  2  0
 14 15  1  0
 16 15  1  0
 17 13  1  0
 17 16  2  0
 18 20  1  0
 18 11  1  0
 19 18  2  0
 21 28  1  0
 21 20  1  0
 21 22  1  1
 23 22  1  0
 23 24  2  0
 25 24  1  0
 26 25  1  0
 27 26  2  0
 27 23  1  0
 28 29  1  0
 30 28  2  0
M  END
$$$$
