HEH.pdb
     RDKit          3D

 30 31  0  0  1  0  0  0  0  0999 V2000
    7.5391  -16.5723   20.2953 N   0  0  0  0  0  0  0  0  0  0  0  0
    7.8532  -15.5245   21.2174 C   0  0  1  0  0  0  0  0  0  0  0  0
    7.0876  -14.2893   20.8628 C   0  0  0  0  0  0  0  0  0  0  0  0
    7.5012  -13.8975   19.4789 C   0  0  0  0  0  0  0  0  0  0  0  0
    7.0561  -12.8266   18.7281 C   0  0  0  0  0  0  0  0  0  0  0  0
    7.6847  -12.8349   17.5373 N   0  0  0  0  0  0  0  0  0  0  0  0
    8.5121  -13.8769   17.5135 C   0  0  0  0  0  0  0  0  0  0  0  0
    8.4104  -14.5255   18.6788 N   0  0  0  0  0  0  0  0  0  0  0  0
    7.7060  -15.9202   22.6291 C   0  0  0  0  0  0  0  0  0  0  0  0
    6.8329  -15.3877   23.3579 O   0  0  0  0  0  0  0  0  0  0  0  0
    8.5326  -16.9236   23.2633 N   0  0  0  0  0  0  0  0  0  0  0  0
    8.4027  -17.3067   24.6223 C   0  0  1  0  0  0  0  0  0  0  0  0
    8.5126  -18.7333   24.9864 C   0  0  0  0  0  0  0  0  0  0  0  0
    9.7750  -19.4367   24.6137 C   0  0  0  0  0  0  0  0  0  0  0  0
    9.8827  -20.8479   24.9427 C   0  0  0  0  0  0  0  0  0  0  0  0
   10.3499  -21.3403   25.9915 O   0  0  0  0  0  0  0  0  0  0  0  0
    9.3408  -16.5253   25.5133 C   0  0  0  0  0  0  0  0  0  0  0  0
   10.4733  -16.2457   25.0427 O   0  0  0  0  0  0  0  0  0  0  0  0
    9.4112  -21.7738   23.9783 O   0  0  0  0  0  0  0  0  0  0  0  0
    9.0262  -16.1007   26.8095 N   0  0  0  0  0  0  0  0  0  0  0  0
    9.9565  -15.3188   27.6426 C   0  0  1  0  0  0  0  0  0  0  0  0
    9.1939  -14.1938   28.3050 C   0  0  0  0  0  0  0  0  0  0  0  0
    8.5037  -13.2946   27.3429 C   0  0  0  0  0  0  0  0  0  0  0  0
    9.0079  -12.7609   26.1763 C   0  0  0  0  0  0  0  0  0  0  0  0
    8.0586  -11.9895   25.6202 N   0  0  0  0  0  0  0  0  0  0  0  0
    6.9958  -12.0442   26.4212 C   0  0  0  0  0  0  0  0  0  0  0  0
    7.2516  -12.8286   27.4645 N   0  0  0  0  0  0  0  0  0  0  0  0
   10.4567  -16.2217   28.6984 C   0  0  0  0  0  0  0  0  0  0  0  0
   10.0489  -17.4142   28.7218 O   0  0  0  0  0  0  0  0  0  0  0  0
   11.3622  -15.8183   29.6723 O   0  0  0  0  0  0  0  0  0  0  0  0
  2  1  1  6
  2  3  1  0
  3  4  1  0
  4  8  1  0
  5  4  2  0
  5  6  1  0
  6  7  1  0
  8  7  2  0
  9 11  1  0
  9  2  1  0
 10  9  2  0
 12 11  1  0
 13 14  1  0
 12 13  1  6
 14 15  1  0
 15 16  2  0
 15 19  1  0
 17 12  1  0
 17 20  1  0
 18 17  2  0
 21 20  1  0
 21 28  1  0
 21 22  1  1
 23 22  1  0
 23 24  2  0
 25 24  1  0
 26 25  1  0
 27 26  2  0
 27 23  1  0
 28 29  2  0
 28 30  1  0
M  END
$$$$
