HEH.pdb
     RDKit          3D

 30 31  0  0  1  0  0  0  0  0999 V2000
   10.0315  -15.3281   17.4359 N   0  0  0  0  0  0  0  0  0  0  0  0
   10.7587  -14.5552   18.3954 C   0  0  1  0  0  0  0  0  0  0  0  0
    9.8825  -14.2456   19.5675 C   0  0  0  0  0  0  0  0  0  0  0  0
    8.6652  -13.5556   19.0366 C   0  0  0  0  0  0  0  0  0  0  0  0
    8.4505  -12.1985   18.8919 C   0  0  0  0  0  0  0  0  0  0  0  0
    7.2230  -12.0017   18.3746 N   0  0  0  0  0  0  0  0  0  0  0  0
    6.6569  -13.1916   18.1885 C   0  0  0  0  0  0  0  0  0  0  0  0
    7.5169  -14.1366   18.5841 N   0  0  0  0  0  0  0  0  0  0  0  0
   12.0522  -15.1519   18.7720 C   0  0  0  0  0  0  0  0  0  0  0  0
   12.1034  -16.2782   19.3249 O   0  0  0  0  0  0  0  0  0  0  0  0
   13.3241  -14.5035   18.5395 N   0  0  0  0  0  0  0  0  0  0  0  0
   14.5701  -15.0457   18.9444 C   0  0  1  0  0  0  0  0  0  0  0  0
   15.7847  -14.7300   18.1667 C   0  0  0  0  0  0  0  0  0  0  0  0
   15.7227  -14.9406   16.6905 C   0  0  0  0  0  0  0  0  0  0  0  0
   16.9036  -14.6077   15.9120 C   0  0  0  0  0  0  0  0  0  0  0  0
   17.1735  -13.5039   15.3928 O   0  0  0  0  0  0  0  0  0  0  0  0
   14.8590  -14.7520   20.3987 C   0  0  0  0  0  0  0  0  0  0  0  0
   15.1258  -13.5595   20.6972 O   0  0  0  0  0  0  0  0  0  0  0  0
   17.8578  -15.6372   15.7135 O   0  0  0  0  0  0  0  0  0  0  0  0
   14.8455  -15.7143   21.4152 N   0  0  0  0  0  0  0  0  0  0  0  0
   15.1265  -15.3919   22.8251 C   0  0  1  0  0  0  0  0  0  0  0  0
   13.8402  -15.4834   23.6144 C   0  0  0  0  0  0  0  0  0  0  0  0
   12.9969  -16.6511   23.2458 C   0  0  0  0  0  0  0  0  0  0  0  0
   13.2128  -17.9777   23.5516 C   0  0  0  0  0  0  0  0  0  0  0  0
   12.2191  -18.7026   23.0107 N   0  0  0  0  0  0  0  0  0  0  0  0
   11.4104  -17.8477   22.3869 C   0  0  0  0  0  0  0  0  0  0  0  0
   11.8688  -16.6063   22.5213 N   0  0  0  0  0  0  0  0  0  0  0  0
   16.0525  -16.4252   23.3300 C   0  0  0  0  0  0  0  0  0  0  0  0
   16.4423  -16.3594   24.5269 O   0  0  0  0  0  0  0  0  0  0  0  0
   16.5163  -17.4740   22.5453 O   0  0  0  0  0  0  0  0  0  0  0  0
  2  1  1  6
  2  3  1  0
  3  4  1  0
  4  8  1  0
  5  4  2  0
  5  6  1  0
  6  7  1  0
  8  7  2  0
  9 11  1  0
  9  2  1  0
 10  9  2  0
 12 11  1  0
 13 14  1  0
 12 13  1  6
 14 15  1  0
 15 16  2  0
 15 19  1  0
 17 12  1  0
 17 20  1  0
 18 17  2  0
 21 20  1  0
 21 28  1  0
 21 22  1  1
 23 22  1  0
 23 24  2  0
 25 24  1  0
 26 25  1  0
 27 26  2  0
 27 23  1  0
 28 29  2  0
 28 30  1  0
M  END
$$$$
