HEH.pdb
     RDKit          3D

 30 31  0  0  1  0  0  0  0  0999 V2000
    7.1504  -17.1677   20.3853 N   0  0  0  0  0  0  0  0  0  0  0  0
    8.2289  -16.3575   20.8622 C   0  0  1  0  0  0  0  0  0  0  0  0
    7.7050  -15.0345   21.3235 C   0  0  0  0  0  0  0  0  0  0  0  0
    7.8130  -14.0911   20.1667 C   0  0  0  0  0  0  0  0  0  0  0  0
    8.2556  -14.3611   18.8861 C   0  0  0  0  0  0  0  0  0  0  0  0
    8.1910  -13.2332   18.1533 N   0  0  0  0  0  0  0  0  0  0  0  0
    7.7218  -12.2608   18.9313 C   0  0  0  0  0  0  0  0  0  0  0  0
    7.4901  -12.7659   20.1479 N   0  0  0  0  0  0  0  0  0  0  0  0
    9.0745  -17.0338   21.8615 C   0  0  0  0  0  0  0  0  0  0  0  0
    8.5843  -17.8757   22.6538 O   0  0  0  0  0  0  0  0  0  0  0  0
   10.4928  -16.7858   22.0007 N   0  0  0  0  0  0  0  0  0  0  0  0
   11.2893  -17.3311   23.0392 C   0  0  1  0  0  0  0  0  0  0  0  0
   12.7573  -17.1863   22.9784 C   0  0  0  0  0  0  0  0  0  0  0  0
   13.5579  -17.9222   24.0006 C   0  0  0  0  0  0  0  0  0  0  0  0
   15.0053  -17.8170   23.9270 C   0  0  0  0  0  0  0  0  0  0  0  0
   15.7404  -17.0822   24.6199 O   0  0  0  0  0  0  0  0  0  0  0  0
   10.8308  -16.8581   24.3996 C   0  0  0  0  0  0  0  0  0  0  0  0
   10.4672  -15.6574   24.4928 O   0  0  0  0  0  0  0  0  0  0  0  0
   15.6641  -18.6296   22.9703 O   0  0  0  0  0  0  0  0  0  0  0  0
   10.7869  -17.6661   25.5418 N   0  0  0  0  0  0  0  0  0  0  0  0
    9.9349  -17.3612   26.7045 C   0  0  1  0  0  0  0  0  0  0  0  0
    8.4933  -17.2996   26.2530 C   0  0  0  0  0  0  0  0  0  0  0  0
    8.0039  -15.9170   26.0095 C   0  0  0  0  0  0  0  0  0  0  0  0
    8.6895  -14.7350   26.1915 C   0  0  0  0  0  0  0  0  0  0  0  0
    7.8713  -13.7187   25.8702 N   0  0  0  0  0  0  0  0  0  0  0  0
    6.7108  -14.2572   25.4997 C   0  0  0  0  0  0  0  0  0  0  0  0
    6.7778  -15.5833   25.5794 N   0  0  0  0  0  0  0  0  0  0  0  0
   10.0745  -18.4857   27.6512 C   0  0  0  0  0  0  0  0  0  0  0  0
    9.4786  -18.4240   28.7602 O   0  0  0  0  0  0  0  0  0  0  0  0
   10.8342  -19.6163   27.3761 O   0  0  0  0  0  0  0  0  0  0  0  0
  2  1  1  1
  2  3  1  0
  3  4  1  0
  4  8  1  0
  5  4  2  0
  5  6  1  0
  6  7  1  0
  8  7  2  0
  9 11  1  0
  9  2  1  0
 10  9  2  0
 12 11  1  0
 13 14  1  0
 12 13  1  6
 14 15  1  0
 15 16  2  0
 15 19  1  0
 17 12  1  0
 17 20  1  0
 18 17  2  0
 21 20  1  0
 21 28  1  0
 21 22  1  6
 23 22  1  0
 23 24  2  0
 25 24  1  0
 26 25  1  0
 27 26  2  0
 27 23  1  0
 28 29  2  0
 28 30  1  0
M  END
$$$$
