HEH.pdb
     RDKit          3D

 30 31  0  0  1  0  0  0  0  0999 V2000
   10.1467  -15.5959   20.7181 N   0  0  0  0  0  0  0  0  0  0  0  0
    8.9847  -15.3882   21.5266 C   0  0  1  0  0  0  0  0  0  0  0  0
    7.7516  -15.5622   20.6980 C   0  0  0  0  0  0  0  0  0  0  0  0
    7.7832  -14.5085   19.6356 C   0  0  0  0  0  0  0  0  0  0  0  0
    8.7729  -13.5764   19.3899 C   0  0  0  0  0  0  0  0  0  0  0  0
    8.4081  -12.8164   18.3399 N   0  0  0  0  0  0  0  0  0  0  0  0
    7.2198  -13.2397   17.9158 C   0  0  0  0  0  0  0  0  0  0  0  0
    6.8326  -14.2598   18.6894 N   0  0  0  0  0  0  0  0  0  0  0  0
    8.9781  -16.1899   22.7628 C   0  0  0  0  0  0  0  0  0  0  0  0
    7.9218  -16.3406   23.4251 O   0  0  0  0  0  0  0  0  0  0  0  0
   10.1544  -16.8450   23.2914 N   0  0  0  0  0  0  0  0  0  0  0  0
   10.1644  -17.5950   24.4946 C   0  0  1  0  0  0  0  0  0  0  0  0
   10.9855  -18.8192   24.5785 C   0  0  0  0  0  0  0  0  0  0  0  0
   11.9498  -19.0705   23.4676 C   0  0  0  0  0  0  0  0  0  0  0  0
   12.7824  -20.2583   23.5536 C   0  0  0  0  0  0  0  0  0  0  0  0
   13.9026  -20.3515   24.0987 O   0  0  0  0  0  0  0  0  0  0  0  0
   10.4968  -16.7289   25.6879 C   0  0  0  0  0  0  0  0  0  0  0  0
   11.5313  -16.0179   25.6057 O   0  0  0  0  0  0  0  0  0  0  0  0
   12.2808  -21.4433   22.9587 O   0  0  0  0  0  0  0  0  0  0  0  0
    9.7315  -16.6723   26.8587 N   0  0  0  0  0  0  0  0  0  0  0  0
   10.1211  -15.8685   28.0304 C   0  0  1  0  0  0  0  0  0  0  0  0
    8.9224  -15.0771   28.5022 C   0  0  0  0  0  0  0  0  0  0  0  0
    8.4482  -14.0698   27.5169 C   0  0  0  0  0  0  0  0  0  0  0  0
    9.0568  -13.6893   26.3400 C   0  0  0  0  0  0  0  0  0  0  0  0
    8.3022  -12.7392   25.7626 N   0  0  0  0  0  0  0  0  0  0  0  0
    7.2551  -12.5372   26.5607 C   0  0  0  0  0  0  0  0  0  0  0  0
    7.3315  -13.3340   27.6229 N   0  0  0  0  0  0  0  0  0  0  0  0
   10.4993  -16.8147   29.0990 C   0  0  0  0  0  0  0  0  0  0  0  0
   10.3542  -18.0503   28.8961 O   0  0  0  0  0  0  0  0  0  0  0  0
   11.0122  -16.4064   30.3243 O   0  0  0  0  0  0  0  0  0  0  0  0
  2  1  1  6
  2  3  1  0
  3  4  1  0
  4  8  1  0
  5  4  2  0
  5  6  1  0
  6  7  1  0
  8  7  2  0
  9 11  1  0
  9  2  1  0
 10  9  2  0
 12 11  1  0
 13 14  1  0
 12 13  1  6
 14 15  1  0
 15 16  2  0
 15 19  1  0
 17 12  1  0
 17 20  1  0
 18 17  2  0
 21 20  1  0
 21 28  1  0
 21 22  1  1
 23 22  1  0
 23 24  2  0
 25 24  1  0
 26 25  1  0
 27 26  2  0
 27 23  1  0
 28 29  2  0
 28 30  1  0
M  END
$$$$
