HEH.pdb
     RDKit          3D

 30 31  0  0  1  0  0  0  0  0999 V2000
    9.4684  -15.3211   19.7648 N   0  0  0  0  0  0  0  0  0  0  0  0
    8.4324  -14.8182   20.6138 C   0  0  1  0  0  0  0  0  0  0  0  0
    7.1576  -14.6944   19.8410 C   0  0  0  0  0  0  0  0  0  0  0  0
    7.5127  -14.1586   18.4895 C   0  0  0  0  0  0  0  0  0  0  0  0
    7.9782  -12.8980   18.1686 C   0  0  0  0  0  0  0  0  0  0  0  0
    8.1760  -12.8294   16.8384 N   0  0  0  0  0  0  0  0  0  0  0  0
    7.8499  -14.0067   16.3105 C   0  0  0  0  0  0  0  0  0  0  0  0
    7.4484  -14.8166   17.2963 N   0  0  0  0  0  0  0  0  0  0  0  0
    8.2849  -15.5724   21.8709 C   0  0  0  0  0  0  0  0  0  0  0  0
    7.3221  -15.3482   22.6454 O   0  0  0  0  0  0  0  0  0  0  0  0
    9.2117  -16.5987   22.2952 N   0  0  0  0  0  0  0  0  0  0  0  0
    9.0453  -17.3724   23.4717 C   0  0  1  0  0  0  0  0  0  0  0  0
    9.5192  -18.7705   23.4924 C   0  0  0  0  0  0  0  0  0  0  0  0
   10.8493  -19.0486   22.8752 C   0  0  0  0  0  0  0  0  0  0  0  0
   11.3098  -20.4266   22.8587 C   0  0  0  0  0  0  0  0  0  0  0  0
   10.7723  -21.4042   23.4209 O   0  0  0  0  0  0  0  0  0  0  0  0
    9.6121  -16.6706   24.6845 C   0  0  0  0  0  0  0  0  0  0  0  0
   10.7620  -16.1736   24.5698 O   0  0  0  0  0  0  0  0  0  0  0  0
   12.4944  -20.7031   22.1307 O   0  0  0  0  0  0  0  0  0  0  0  0
    8.9417  -16.5429   25.9066 N   0  0  0  0  0  0  0  0  0  0  0  0
    9.4912  -15.7855   27.0447 C   0  0  1  0  0  0  0  0  0  0  0  0
    8.3732  -15.0074   27.7010 C   0  0  0  0  0  0  0  0  0  0  0  0
    7.8557  -13.8904   26.8675 C   0  0  0  0  0  0  0  0  0  0  0  0
    8.5278  -13.1822   25.8943 C   0  0  0  0  0  0  0  0  0  0  0  0
    7.6964  -12.2485   25.4018 N   0  0  0  0  0  0  0  0  0  0  0  0
    6.5414  -12.3753   26.0527 C   0  0  0  0  0  0  0  0  0  0  0  0
    6.6245  -13.3627   26.9400 N   0  0  0  0  0  0  0  0  0  0  0  0
    9.9996  -16.7728   28.0178 C   0  0  0  0  0  0  0  0  0  0  0  0
    9.7974  -17.9982   27.8023 O   0  0  0  0  0  0  0  0  0  0  0  0
   10.6960  -16.4143   29.1656 O   0  0  0  0  0  0  0  0  0  0  0  0
  2  1  1  6
  2  3  1  0
  3  4  1  0
  4  8  1  0
  5  4  2  0
  5  6  1  0
  6  7  1  0
  8  7  2  0
  9 11  1  0
  9  2  1  0
 10  9  2  0
 12 11  1  0
 13 14  1  0
 12 13  1  6
 14 15  1  0
 15 16  2  0
 15 19  1  0
 17 12  1  0
 17 20  1  0
 18 17  2  0
 21 20  1  0
 21 28  1  0
 21 22  1  1
 23 22  1  0
 23 24  2  0
 25 24  1  0
 26 25  1  0
 27 26  2  0
 27 23  1  0
 28 29  2  0
 28 30  1  0
M  END
$$$$
