CFS.pdb
     RDKit          3D

 24 24  0  0  1  0  0  0  0  0999 V2000
   10.5659  -16.4614   19.1325 N   0  0  0  0  0  0  0  0  0  0  0  0
    9.6396  -16.9145   20.1188 C   0  0  1  0  0  0  0  0  0  0  0  0
    9.8487  -18.3741   20.4789 C   0  0  0  0  0  0  0  0  0  0  0  0
    9.5633  -19.3760   18.9963 S   0  0  0  0  0  0  0  0  0  0  0  0
    9.6755  -16.1193   21.3698 C   0  0  0  0  0  0  0  0  0  0  0  0
   10.7985  -15.7368   21.7832 O   0  0  0  0  0  0  0  0  0  0  0  0
    8.4928  -15.7972   22.0807 N   0  0  0  0  0  0  0  0  0  0  0  0
    8.5016  -15.0468   23.3279 C   0  0  1  0  0  0  0  0  0  0  0  0
    7.2084  -14.3467   23.5654 C   0  0  0  0  0  0  0  0  0  0  0  0
    7.2171  -13.6251   24.8543 C   0  0  0  0  0  0  0  0  0  0  0  0
    6.4758  -14.1013   25.9386 C   0  0  0  0  0  0  0  0  0  0  0  0
    6.5022  -13.4462   27.1366 C   0  0  0  0  0  0  0  0  0  0  0  0
    7.2386  -12.3093   27.3465 C   0  0  0  0  0  0  0  0  0  0  0  0
    7.9717  -11.8337   26.2843 C   0  0  0  0  0  0  0  0  0  0  0  0
    7.9551  -12.4758   25.0852 C   0  0  0  0  0  0  0  0  0  0  0  0
    8.7692  -15.9984   24.4304 C   0  0  0  0  0  0  0  0  0  0  0  0
    8.1031  -17.0449   24.6501 O   0  0  0  0  0  0  0  0  0  0  0  0
   12.4205  -16.2463   25.6892 O   0  0  0  0  0  0  0  0  0  0  0  0
   11.6056  -17.2972   26.0619 C   0  0  0  0  0  0  0  0  0  0  0  0
   10.2131  -16.7732   26.3480 C   0  0  2  0  0  0  0  0  0  0  0  0
    9.8487  -15.7819   25.3583 N   0  0  0  0  0  0  0  0  0  0  0  0
   10.1408  -16.1957   27.7068 C   0  0  0  0  0  0  0  0  0  0  0  0
    9.7422  -15.0241   27.8806 O   0  0  0  0  0  0  0  0  0  0  0  0
   10.5175  -16.9619   28.7852 O   0  0  0  0  0  0  0  0  0  0  0  0
  2  5  1  0
  2  1  1  6
  3  2  1  0
  4  3  1  0
  5  6  2  0
  7  8  1  0
  7  5  1  0
  9 10  1  0
  8  9  1  1
 10 11  2  0
 11 12  1  0
 13 12  2  0
 14 13  1  0
 15 14  2  0
 15 10  1  0
 16  8  1  0
 16 17  2  0
 18 19  1  0
 20 19  1  6
 20 22  1  0
 21 20  1  0
 21 16  1  0
 22 23  2  0
 22 24  1  0
M  END
$$$$
