CFS.pdb
     RDKit          3D

 24 24  0  0  1  0  0  0  0  0999 V2000
    9.0227  -17.3341   19.2876 N   0  0  0  0  0  0  0  0  0  0  0  0
    8.8758  -17.8425   20.6127 C   0  0  1  0  0  0  0  0  0  0  0  0
    9.8322  -18.9852   20.9012 C   0  0  0  0  0  0  0  0  0  0  0  0
    8.9460  -20.5476   20.6629 S   0  0  0  0  0  0  0  0  0  0  0  0
    9.0567  -16.8111   21.6625 C   0  0  0  0  0  0  0  0  0  0  0  0
   10.1031  -16.1172   21.6213 O   0  0  0  0  0  0  0  0  0  0  0  0
    8.0911  -16.6073   22.6793 N   0  0  0  0  0  0  0  0  0  0  0  0
    8.2525  -15.6167   23.7336 C   0  0  1  0  0  0  0  0  0  0  0  0
    6.9470  -15.0400   24.1600 C   0  0  0  0  0  0  0  0  0  0  0  0
    7.1296  -14.0129   25.2060 C   0  0  0  0  0  0  0  0  0  0  0  0
    7.4018  -12.6874   24.8583 C   0  0  0  0  0  0  0  0  0  0  0  0
    7.5481  -11.7341   25.8251 C   0  0  0  0  0  0  0  0  0  0  0  0
    7.4399  -12.0094   27.1635 C   0  0  0  0  0  0  0  0  0  0  0  0
    7.1718  -13.3120   27.5147 C   0  0  0  0  0  0  0  0  0  0  0  0
    7.0234  -14.2721   26.5626 C   0  0  0  0  0  0  0  0  0  0  0  0
    8.9106  -16.2781   24.8834 C   0  0  0  0  0  0  0  0  0  0  0  0
    8.5125  -17.3470   25.4182 O   0  0  0  0  0  0  0  0  0  0  0  0
   12.5428  -15.4672   25.1525 O   0  0  0  0  0  0  0  0  0  0  0  0
   12.3246  -16.4290   26.1192 C   0  0  0  0  0  0  0  0  0  0  0  0
   10.8539  -16.4482   26.4825 C   0  0  2  0  0  0  0  0  0  0  0  0
   10.0931  -15.7220   25.4882 N   0  0  0  0  0  0  0  0  0  0  0  0
   10.6390  -15.8645   27.8236 C   0  0  0  0  0  0  0  0  0  0  0  0
    9.8741  -14.8885   27.9784 O   0  0  0  0  0  0  0  0  0  0  0  0
   11.2910  -16.4068   28.9065 O   0  0  0  0  0  0  0  0  0  0  0  0
  2  5  1  0
  2  1  1  6
  3  2  1  0
  4  3  1  0
  5  6  2  0
  7  8  1  0
  7  5  1  0
  9 10  1  0
  8  9  1  1
 10 11  2  0
 11 12  1  0
 13 12  2  0
 14 13  1  0
 15 14  2  0
 15 10  1  0
 16  8  1  0
 16 17  2  0
 18 19  1  0
 20 19  1  6
 20 22  1  0
 21 20  1  0
 21 16  1  0
 22 23  2  0
 22 24  1  0
M  END
$$$$
