CFS.pdb
     RDKit          3D

 24 24  0  0  1  0  0  0  0  0999 V2000
    7.6052  -13.3591   19.8723 N   0  0  0  0  0  0  0  0  0  0  0  0
    7.4574  -14.5628   20.6242 C   0  0  1  0  0  0  0  0  0  0  0  0
    7.9143  -15.7859   19.8501 C   0  0  0  0  0  0  0  0  0  0  0  0
    6.4786  -16.4969   19.0034 S   0  0  0  0  0  0  0  0  0  0  0  0
    8.1772  -14.5397   21.9203 C   0  0  0  0  0  0  0  0  0  0  0  0
    9.3076  -13.9922   21.9476 O   0  0  0  0  0  0  0  0  0  0  0  0
    7.6197  -15.1111   23.0910 N   0  0  0  0  0  0  0  0  0  0  0  0
    8.3239  -15.1454   24.3644 C   0  0  1  0  0  0  0  0  0  0  0  0
    7.3845  -15.1339   25.5205 C   0  0  0  0  0  0  0  0  0  0  0  0
    7.0577  -13.7536   25.9331 C   0  0  0  0  0  0  0  0  0  0  0  0
    8.0559  -12.9019   26.4130 C   0  0  0  0  0  0  0  0  0  0  0  0
    7.7572  -11.6189   26.7729 C   0  0  0  0  0  0  0  0  0  0  0  0
    6.4920  -11.0982   26.6887 C   0  0  0  0  0  0  0  0  0  0  0  0
    5.5032  -11.9299   26.2171 C   0  0  0  0  0  0  0  0  0  0  0  0
    5.7860  -13.2102   25.8546 C   0  0  0  0  0  0  0  0  0  0  0  0
    9.1473  -16.3758   24.3968 C   0  0  0  0  0  0  0  0  0  0  0  0
    8.6864  -17.5470   24.3432 O   0  0  0  0  0  0  0  0  0  0  0  0
   13.2626  -16.0738   24.3541 O   0  0  0  0  0  0  0  0  0  0  0  0
   12.7297  -17.2602   23.8896 C   0  0  0  0  0  0  0  0  0  0  0  0
   11.3956  -17.5070   24.5637 C   0  0  2  0  0  0  0  0  0  0  0  0
   10.5823  -16.3117   24.4952 N   0  0  0  0  0  0  0  0  0  0  0  0
   11.5888  -17.9191   25.9701 C   0  0  0  0  0  0  0  0  0  0  0  0
   11.0019  -17.3192   26.8961 O   0  0  0  0  0  0  0  0  0  0  0  0
   12.4243  -18.9742   26.2541 O   0  0  0  0  0  0  0  0  0  0  0  0
  2  5  1  0
  2  1  1  6
  3  2  1  0
  4  3  1  0
  5  6  2  0
  7  8  1  0
  7  5  1  0
  9 10  1  0
  8  9  1  1
 10 11  2  0
 11 12  1  0
 13 12  2  0
 14 13  1  0
 15 14  2  0
 15 10  1  0
 16  8  1  0
 16 17  2  0
 18 19  1  0
 20 19  1  1
 20 22  1  0
 21 20  1  0
 21 16  1  0
 22 23  2  0
 22 24  1  0
M  END
$$$$
