CFS.pdb
     RDKit          3D

 24 24  0  0  1  0  0  0  0  0999 V2000
   10.3506  -16.5838   19.5919 N   0  0  0  0  0  0  0  0  0  0  0  0
    9.9219  -17.1870   20.8120 C   0  0  1  0  0  0  0  0  0  0  0  0
   10.8029  -18.3542   21.2188 C   0  0  0  0  0  0  0  0  0  0  0  0
   10.2496  -19.8286   20.3225 S   0  0  0  0  0  0  0  0  0  0  0  0
    9.8588  -16.2366   21.9484 C   0  0  0  0  0  0  0  0  0  0  0  0
   10.9164  -15.6361   22.2633 O   0  0  0  0  0  0  0  0  0  0  0  0
    8.6550  -16.0067   22.6597 N   0  0  0  0  0  0  0  0  0  0  0  0
    8.5684  -15.0924   23.7890 C   0  0  1  0  0  0  0  0  0  0  0  0
    7.1967  -14.5339   23.9491 C   0  0  0  0  0  0  0  0  0  0  0  0
    7.1080  -13.6593   25.1362 C   0  0  0  0  0  0  0  0  0  0  0  0
    7.8060  -12.4498   25.1795 C   0  0  0  0  0  0  0  0  0  0  0  0
    7.7057  -11.6311   26.2678 C   0  0  0  0  0  0  0  0  0  0  0  0
    6.9339  -11.9355   27.3590 C   0  0  0  0  0  0  0  0  0  0  0  0
    6.2432  -13.1245   27.3246 C   0  0  0  0  0  0  0  0  0  0  0  0
    6.3334  -13.9499   26.2472 C   0  0  0  0  0  0  0  0  0  0  0  0
    8.9544  -15.8375   25.0091 C   0  0  0  0  0  0  0  0  0  0  0  0
    8.4187  -16.9117   25.3913 O   0  0  0  0  0  0  0  0  0  0  0  0
   12.3054  -16.7514   25.6314 O   0  0  0  0  0  0  0  0  0  0  0  0
   11.9765  -16.3293   26.9045 C   0  0  0  0  0  0  0  0  0  0  0  0
   10.4758  -16.1432   26.9976 C   0  0  2  0  0  0  0  0  0  0  0  0
   10.0068  -15.3652   25.8709 N   0  0  0  0  0  0  0  0  0  0  0  0
   10.1087  -15.4832   28.2684 C   0  0  0  0  0  0  0  0  0  0  0  0
    9.4816  -14.4022   28.2667 O   0  0  0  0  0  0  0  0  0  0  0  0
   10.4644  -16.0709   29.4599 O   0  0  0  0  0  0  0  0  0  0  0  0
  2  5  1  0
  2  1  1  6
  3  2  1  0
  4  3  1  0
  5  6  2  0
  7  8  1  0
  7  5  1  0
  9 10  1  0
  8  9  1  1
 10 11  2  0
 11 12  1  0
 13 12  2  0
 14 13  1  0
 15 14  2  0
 15 10  1  0
 16  8  1  0
 16 17  2  0
 18 19  1  0
 20 19  1  6
 20 22  1  0
 21 20  1  0
 21 16  1  0
 22 23  2  0
 22 24  1  0
M  END
$$$$
