CFS.pdb
     RDKit          3D

 24 24  0  0  1  0  0  0  0  0999 V2000
    8.2656  -13.0437   19.9131 N   0  0  0  0  0  0  0  0  0  0  0  0
    7.5474  -13.9199   20.7806 C   0  0  1  0  0  0  0  0  0  0  0  0
    7.0596  -15.1668   20.0658 C   0  0  0  0  0  0  0  0  0  0  0  0
    7.8329  -16.6106   20.8409 S   0  0  0  0  0  0  0  0  0  0  0  0
    8.3279  -14.3425   21.9684 C   0  0  0  0  0  0  0  0  0  0  0  0
    9.5614  -14.1041   21.9683 O   0  0  0  0  0  0  0  0  0  0  0  0
    7.7150  -14.9922   23.0685 N   0  0  0  0  0  0  0  0  0  0  0  0
    8.3102  -15.0259   24.3964 C   0  0  1  0  0  0  0  0  0  0  0  0
    7.2781  -14.9917   25.4700 C   0  0  0  0  0  0  0  0  0  0  0  0
    7.0538  -13.6148   25.9557 C   0  0  0  0  0  0  0  0  0  0  0  0
    7.9259  -12.5847   25.5947 C   0  0  0  0  0  0  0  0  0  0  0  0
    7.7052  -11.3078   26.0256 C   0  0  0  0  0  0  0  0  0  0  0  0
    6.6417  -10.9639   26.8191 C   0  0  0  0  0  0  0  0  0  0  0  0
    5.7780  -11.9721   27.1791 C   0  0  0  0  0  0  0  0  0  0  0  0
    5.9851  -13.2486   26.7573 C   0  0  0  0  0  0  0  0  0  0  0  0
    9.1101  -16.2673   24.5059 C   0  0  0  0  0  0  0  0  0  0  0  0
    9.5494  -16.7426   25.5866 O   0  0  0  0  0  0  0  0  0  0  0  0
   10.7580  -18.0460   21.1256 O   0  0  0  0  0  0  0  0  0  0  0  0
   10.3061  -18.9306   22.0850 C   0  0  0  0  0  0  0  0  0  0  0  0
   10.2669  -18.2333   23.4294 C   0  0  2  0  0  0  0  0  0  0  0  0
    9.4507  -17.0413   23.3405 N   0  0  0  0  0  0  0  0  0  0  0  0
   11.6323  -17.8906   23.8806 C   0  0  0  0  0  0  0  0  0  0  0  0
   12.4885  -18.7840   24.0550 O   0  0  0  0  0  0  0  0  0  0  0  0
   11.9555  -16.5733   24.1085 O   0  0  0  0  0  0  0  0  0  0  0  0
  2  5  1  0
  2  1  1  6
  3  2  1  0
  4  3  1  0
  5  6  2  0
  7  8  1  0
  7  5  1  0
  9 10  1  0
  8  9  1  1
 10 11  2  0
 11 12  1  0
 13 12  2  0
 14 13  1  0
 15 14  2  0
 15 10  1  0
 16  8  1  0
 16 17  2  0
 18 19  1  0
 20 19  1  6
 20 22  1  0
 21 20  1  0
 21 16  1  0
 22 23  2  0
 22 24  1  0
M  END
$$$$
