CFS.pdb
     RDKit          3D

 24 24  0  0  1  0  0  0  0  0999 V2000
   10.2828  -16.6701   19.2067 N   0  0  0  0  0  0  0  0  0  0  0  0
    9.2874  -17.0231   20.1663 C   0  0  1  0  0  0  0  0  0  0  0  0
    9.3098  -18.5031   20.5025 C   0  0  0  0  0  0  0  0  0  0  0  0
    7.7787  -19.2528   19.8886 S   0  0  0  0  0  0  0  0  0  0  0  0
    9.3932  -16.2590   21.4326 C   0  0  0  0  0  0  0  0  0  0  0  0
   10.5453  -16.0235   21.8748 O   0  0  0  0  0  0  0  0  0  0  0  0
    8.2436  -15.8065   22.1265 N   0  0  0  0  0  0  0  0  0  0  0  0
    8.3182  -15.0513   23.3686 C   0  0  1  0  0  0  0  0  0  0  0  0
    7.1161  -14.1955   23.5728 C   0  0  0  0  0  0  0  0  0  0  0  0
    7.1707  -13.4938   24.8716 C   0  0  0  0  0  0  0  0  0  0  0  0
    8.0619  -12.4360   25.0691 C   0  0  0  0  0  0  0  0  0  0  0  0
    8.0960  -11.7730   26.2624 C   0  0  0  0  0  0  0  0  0  0  0  0
    7.2795  -12.0945   27.3155 C   0  0  0  0  0  0  0  0  0  0  0  0
    6.3989  -13.1347   27.1295 C   0  0  0  0  0  0  0  0  0  0  0  0
    6.3536  -13.8040   25.9462 C   0  0  0  0  0  0  0  0  0  0  0  0
    8.4432  -16.0183   24.4830 C   0  0  0  0  0  0  0  0  0  0  0  0
    7.6340  -16.9566   24.7107 O   0  0  0  0  0  0  0  0  0  0  0  0
   11.9821  -17.1825   25.6267 O   0  0  0  0  0  0  0  0  0  0  0  0
   10.8540  -17.9146   25.9407 C   0  0  0  0  0  0  0  0  0  0  0  0
    9.7620  -16.9746   26.4089 C   0  0  2  0  0  0  0  0  0  0  0  0
    9.5391  -15.9470   25.4143 N   0  0  0  0  0  0  0  0  0  0  0  0
   10.1178  -16.3659   27.7082 C   0  0  0  0  0  0  0  0  0  0  0  0
   10.1727  -15.1240   27.8361 O   0  0  0  0  0  0  0  0  0  0  0  0
   10.3896  -17.1813   28.7820 O   0  0  0  0  0  0  0  0  0  0  0  0
  2  5  1  0
  2  1  1  6
  3  2  1  0
  4  3  1  0
  5  6  2  0
  7  8  1  0
  7  5  1  0
  9 10  1  0
  8  9  1  1
 10 11  2  0
 11 12  1  0
 13 12  2  0
 14 13  1  0
 15 14  2  0
 15 10  1  0
 16  8  1  0
 16 17  2  0
 18 19  1  0
 20 19  1  6
 20 22  1  0
 21 20  1  0
 21 16  1  0
 22 23  2  0
 22 24  1  0
M  END
$$$$
