CFS.pdb
     RDKit          3D

 24 24  0  0  1  0  0  0  0  0999 V2000
    7.6108  -13.2680   19.8666 N   0  0  0  0  0  0  0  0  0  0  0  0
    7.3766  -14.4731   20.5939 C   0  0  1  0  0  0  0  0  0  0  0  0
    7.6978  -15.7113   19.7769 C   0  0  0  0  0  0  0  0  0  0  0  0
    7.2644  -17.1724   20.7570 S   0  0  0  0  0  0  0  0  0  0  0  0
    8.1332  -14.5492   21.8668 C   0  0  0  0  0  0  0  0  0  0  0  0
    9.3325  -14.1754   21.8532 O   0  0  0  0  0  0  0  0  0  0  0  0
    7.5352  -15.0244   23.0603 N   0  0  0  0  0  0  0  0  0  0  0  0
    8.2589  -15.1258   24.3192 C   0  0  1  0  0  0  0  0  0  0  0  0
    7.3433  -15.0747   25.4931 C   0  0  0  0  0  0  0  0  0  0  0  0
    7.1293  -13.6854   25.9472 C   0  0  0  0  0  0  0  0  0  0  0  0
    5.8699  -13.2689   26.3858 C   0  0  0  0  0  0  0  0  0  0  0  0
    5.6781  -11.9908   26.8268 C   0  0  0  0  0  0  0  0  0  0  0  0
    6.6826  -11.0590   26.8664 C   0  0  0  0  0  0  0  0  0  0  0  0
    7.9259  -11.4608   26.4366 C   0  0  0  0  0  0  0  0  0  0  0  0
    8.1318  -12.7307   25.9948 C   0  0  0  0  0  0  0  0  0  0  0  0
    9.0024  -16.4064   24.3156 C   0  0  0  0  0  0  0  0  0  0  0  0
    8.4709  -17.5422   24.1949 O   0  0  0  0  0  0  0  0  0  0  0  0
   13.1585  -16.4402   24.2574 O   0  0  0  0  0  0  0  0  0  0  0  0
   12.4831  -17.5455   23.7784 C   0  0  0  0  0  0  0  0  0  0  0  0
   11.1670  -17.6857   24.5156 C   0  0  2  0  0  0  0  0  0  0  0  0
   10.4351  -16.4385   24.4550 N   0  0  0  0  0  0  0  0  0  0  0  0
   11.3949  -18.0817   25.9215 C   0  0  0  0  0  0  0  0  0  0  0  0
   10.9757  -17.3705   26.8596 O   0  0  0  0  0  0  0  0  0  0  0  0
   12.0758  -19.2459   26.1913 O   0  0  0  0  0  0  0  0  0  0  0  0
  2  5  1  0
  2  1  1  6
  3  2  1  0
  4  3  1  0
  5  6  2  0
  7  8  1  0
  7  5  1  0
  9 10  1  0
  8  9  1  1
 10 11  2  0
 11 12  1  0
 13 12  2  0
 14 13  1  0
 15 14  2  0
 15 10  1  0
 16  8  1  0
 16 17  2  0
 18 19  1  0
 20 19  1  1
 20 22  1  0
 21 20  1  0
 21 16  1  0
 22 23  2  0
 22 24  1  0
M  END
$$$$
