RFG.pdb
     RDKit          3D

 27 27  0  0  1  0  0  0  0  0999 V2000
    7.5497  -13.0941   17.5889 N   0  0  0  0  0  0  0  0  0  0  0  0
    8.0284  -13.9204   16.5462 C   0  0  0  0  0  0  0  0  0  0  0  0
    7.9845  -13.5568   15.3239 N   0  0  0  0  0  0  0  0  0  0  0  0
    8.5754  -15.2033   16.8851 N   0  0  0  0  0  0  0  0  0  0  0  0
    8.1270  -15.9437   18.0173 C   0  0  0  0  0  0  0  0  0  0  0  0
    8.6822  -15.4332   19.3261 C   0  0  0  0  0  0  0  0  0  0  0  0
    9.9490  -16.2293   19.6046 C   0  0  0  0  0  0  0  0  0  0  0  0
    9.8151  -16.9245   20.9200 C   0  0  2  0  0  0  0  0  0  0  0  0
    8.7747  -17.9093   20.8995 N   0  0  0  0  0  0  0  0  0  0  0  0
    9.6096  -15.9081   22.0040 C   0  0  0  0  0  0  0  0  0  0  0  0
   10.4306  -14.9615   22.0975 O   0  0  0  0  0  0  0  0  0  0  0  0
    8.3235  -14.1000   14.5232 N   0  0  0  0  0  0  0  0  0  0  0  0
    8.5370  -15.9634   22.9270 C   0  0  1  0  0  0  0  0  0  0  0  0
    8.4488  -14.9326   23.9430 C   0  0  0  0  0  0  0  0  0  0  0  0
    7.0558  -14.7444   24.4520 C   0  0  0  0  0  0  0  0  0  0  0  0
    6.8742  -13.6325   25.3819 C   0  0  0  0  0  0  0  0  0  0  0  0
    7.1503  -12.3536   24.9710 C   0  0  0  0  0  0  0  0  0  0  0  0
    7.0037  -11.2552   25.7947 C   0  0  0  0  0  0  0  0  0  0  0  0
    6.5674  -11.4452   27.0674 C   0  0  0  0  0  0  0  0  0  0  0  0
    6.2799  -12.7195   27.5149 C   0  0  0  0  0  0  0  0  0  0  0  0
    6.4342  -13.8273   26.6641 C   0  0  0  0  0  0  0  0  0  0  0  0
    9.2634  -15.3860   25.1227 O   0  0  0  0  0  0  0  0  0  0  0  0
    9.5505  -14.5468   26.0072 N   0  0  0  0  0  0  0  0  0  0  0  0
    9.7121  -16.7256   25.2643 C   0  0  0  0  0  0  0  0  0  0  0  0
   10.5314  -17.0540   26.4077 C   0  0  0  0  0  0  0  0  0  0  0  0
    9.7308  -17.8113   27.3856 O   0  0  0  0  0  0  0  0  0  0  0  0
    8.5464  -18.1111   27.1393 O   0  0  0  0  0  0  0  0  0  0  0  0
  2  1  1  0
  3  2  2  0
  4  2  1  0
  5  4  1  0
  6  5  1  0
  7  6  1  0
  8  7  1  0
  8  9  1  6
 10  8  1  0
 10 11  2  0
 12 10  1  0
 13 12  1  0
 13 14  1  1
 15 14  1  0
 15 16  2  0
 16 17  1  0
 18 17  2  0
 19 18  1  0
 20 19  2  0
 20 15  1  0
 21 13  1  0
 22 21  2  0
 23 21  1  0
 24 25  1  0
 24 23  1  0
 25 27  1  0
 26 25  2  0
M  END
$$$$
