RFG.pdb
     RDKit          3D

 27 27  0  0  1  0  0  0  0  0999 V2000
    8.6866  -12.9869   17.4111 N   0  0  0  0  0  0  0  0  0  0  0  0
    8.0978  -13.9464   16.5556 C   0  0  0  0  0  0  0  0  0  0  0  0
    7.8746  -13.7036   15.3231 N   0  0  0  0  0  0  0  0  0  0  0  0
    7.7441  -15.2256   17.1018 N   0  0  0  0  0  0  0  0  0  0  0  0
    6.8420  -15.3593   18.1970 C   0  0  0  0  0  0  0  0  0  0  0  0
    7.3792  -16.2220   19.3147 C   0  0  0  0  0  0  0  0  0  0  0  0
    7.8647  -15.2758   20.4033 C   0  0  0  0  0  0  0  0  0  0  0  0
    7.0834  -15.5196   21.6529 C   0  0  2  0  0  0  0  0  0  0  0  0
    5.7574  -14.9839   21.5661 N   0  0  0  0  0  0  0  0  0  0  0  0
    7.8376  -14.9729   22.8288 C   0  0  0  0  0  0  0  0  0  0  0  0
    7.9897  -13.7285   22.9135 O   0  0  0  0  0  0  0  0  0  0  0  0
    7.5198  -14.3743   14.6335 N   0  0  0  0  0  0  0  0  0  0  0  0
    8.3871  -15.7896   23.8467 C   0  0  1  0  0  0  0  0  0  0  0  0
    9.2175  -15.1649   24.8580 C   0  0  0  0  0  0  0  0  0  0  0  0
    8.5262  -15.0485   26.1784 C   0  0  0  0  0  0  0  0  0  0  0  0
    7.7719  -13.8143   26.3832 C   0  0  0  0  0  0  0  0  0  0  0  0
    6.4066  -13.8663   26.5004 C   0  0  0  0  0  0  0  0  0  0  0  0
    5.6291  -12.7417   26.6935 C   0  0  0  0  0  0  0  0  0  0  0  0
    6.2389  -11.5299   26.7714 C   0  0  0  0  0  0  0  0  0  0  0  0
    7.6121  -11.4404   26.6576 C   0  0  0  0  0  0  0  0  0  0  0  0
    8.3896  -12.5946   26.4614 C   0  0  0  0  0  0  0  0  0  0  0  0
   10.4038  -16.0597   25.0886 O   0  0  0  0  0  0  0  0  0  0  0  0
   10.4128  -16.7873   26.1081 N   0  0  0  0  0  0  0  0  0  0  0  0
   11.5041  -16.1057   24.1925 C   0  0  0  0  0  0  0  0  0  0  0  0
   12.8218  -16.3295   24.7402 C   0  0  0  0  0  0  0  0  0  0  0  0
   13.2174  -17.7307   24.5141 O   0  0  0  0  0  0  0  0  0  0  0  0
   12.3594  -18.6340   24.4787 O   0  0  0  0  0  0  0  0  0  0  0  0
  2  1  1  0
  3  2  2  0
  4  2  1  0
  5  4  1  0
  6  5  1  0
  7  6  1  0
  8  7  1  0
  8  9  1  6
 10  8  1  0
 10 11  2  0
 12 10  1  0
 13 12  1  0
 13 14  1  6
 15 14  1  0
 15 16  2  0
 16 17  1  0
 18 17  2  0
 19 18  1  0
 20 19  2  0
 20 15  1  0
 21 13  1  0
 22 21  2  0
 23 21  1  0
 24 25  1  0
 24 23  1  0
 25 27  1  0
 26 25  2  0
M  END
$$$$
