RFG.pdb
     RDKit          3D

 27 27  0  0  1  0  0  0  0  0999 V2000
    8.0872  -13.6421   17.4638 N   0  0  0  0  0  0  0  0  0  0  0  0
    7.6705  -13.0162   18.6612 C   0  0  0  0  0  0  0  0  0  0  0  0
    7.6643  -11.7469   18.7914 N   0  0  0  0  0  0  0  0  0  0  0  0
    7.2463  -13.8433   19.7548 N   0  0  0  0  0  0  0  0  0  0  0  0
    7.4803  -15.2490   19.7775 C   0  0  0  0  0  0  0  0  0  0  0  0
    8.9210  -15.6129   20.0494 C   0  0  0  0  0  0  0  0  0  0  0  0
    9.2192  -15.1820   21.4783 C   0  0  0  0  0  0  0  0  0  0  0  0
    9.3442  -16.3938   22.3427 C   0  0  2  0  0  0  0  0  0  0  0  0
    8.1391  -17.1688   22.3525 N   0  0  0  0  0  0  0  0  0  0  0  0
    9.7622  -15.9821   23.7234 C   0  0  0  0  0  0  0  0  0  0  0  0
   10.7881  -15.2675   23.8477 O   0  0  0  0  0  0  0  0  0  0  0  0
    7.3945  -11.2311   19.6355 N   0  0  0  0  0  0  0  0  0  0  0  0
    9.0584  -16.3598   24.8927 C   0  0  1  0  0  0  0  0  0  0  0  0
    9.5535  -15.8966   26.1745 C   0  0  0  0  0  0  0  0  0  0  0  0
    8.4646  -15.3809   27.0595 C   0  0  0  0  0  0  0  0  0  0  0  0
    7.8226  -14.1486   26.6084 C   0  0  0  0  0  0  0  0  0  0  0  0
    8.4401  -12.9437   26.8267 C   0  0  0  0  0  0  0  0  0  0  0  0
    7.8925  -11.7399   26.4301 C   0  0  0  0  0  0  0  0  0  0  0  0
    6.6907  -11.7448   25.7959 C   0  0  0  0  0  0  0  0  0  0  0  0
    6.0407  -12.9398   25.5596 C   0  0  0  0  0  0  0  0  0  0  0  0
    6.6113  -14.1570   25.9695 C   0  0  0  0  0  0  0  0  0  0  0  0
   10.1425  -17.0811   26.8893 O   0  0  0  0  0  0  0  0  0  0  0  0
   10.1420  -17.0826   28.1419 N   0  0  0  0  0  0  0  0  0  0  0  0
   10.6932  -18.1895   26.1936 C   0  0  0  0  0  0  0  0  0  0  0  0
   11.2126  -19.2925   26.9683 C   0  0  0  0  0  0  0  0  0  0  0  0
   12.5560  -19.6482   26.4791 O   0  0  0  0  0  0  0  0  0  0  0  0
   13.0677  -19.0302   25.5254 O   0  0  0  0  0  0  0  0  0  0  0  0
  2  1  1  0
  3  2  2  0
  4  2  1  0
  5  4  1  0
  6  5  1  0
  7  6  1  0
  8  7  1  0
  8  9  1  1
 10  8  1  0
 10 11  2  0
 12 10  1  0
 13 12  1  0
 13 14  1  1
 15 14  1  0
 15 16  2  0
 16 17  1  0
 18 17  2  0
 19 18  1  0
 20 19  2  0
 20 15  1  0
 21 13  1  0
 22 21  2  0
 23 21  1  0
 24 25  1  0
 24 23  1  0
 25 27  1  0
 26 25  2  0
M  END
$$$$
