RFG.pdb
     RDKit          3D

 27 27  0  0  1  0  0  0  0  0999 V2000
    9.2847  -14.9556   17.2127 N   0  0  0  0  0  0  0  0  0  0  0  0
    8.3297  -13.9812   16.8417 C   0  0  0  0  0  0  0  0  0  0  0  0
    7.8524  -13.9209   15.6599 N   0  0  0  0  0  0  0  0  0  0  0  0
    7.8938  -13.0376   17.8314 N   0  0  0  0  0  0  0  0  0  0  0  0
    8.3786  -13.0657   19.1713 C   0  0  0  0  0  0  0  0  0  0  0  0
    8.0994  -14.3687   19.8829 C   0  0  0  0  0  0  0  0  0  0  0  0
    8.6921  -14.2410   21.2788 C   0  0  0  0  0  0  0  0  0  0  0  0
    8.4979  -15.5254   22.0163 C   0  0  2  0  0  0  0  0  0  0  0  0
    7.1696  -16.0376   21.8551 N   0  0  0  0  0  0  0  0  0  0  0  0
    8.8575  -15.3323   23.4598 C   0  0  0  0  0  0  0  0  0  0  0  0
    9.6355  -14.3925   23.7601 O   0  0  0  0  0  0  0  0  0  0  0  0
    7.2408  -13.1827   15.2961 N   0  0  0  0  0  0  0  0  0  0  0  0
    8.3644  -16.1572   24.4999 C   0  0  1  0  0  0  0  0  0  0  0  0
    8.8714  -15.9500   25.8425 C   0  0  0  0  0  0  0  0  0  0  0  0
    7.8230  -15.4469   26.7819 C   0  0  0  0  0  0  0  0  0  0  0  0
    7.4208  -14.0564   26.5842 C   0  0  0  0  0  0  0  0  0  0  0  0
    6.1447  -13.7726   26.1699 C   0  0  0  0  0  0  0  0  0  0  0  0
    5.6953  -12.4839   25.9610 C   0  0  0  0  0  0  0  0  0  0  0  0
    6.5508  -11.4499   26.1739 C   0  0  0  0  0  0  0  0  0  0  0  0
    7.8432  -11.6989   26.5915 C   0  0  0  0  0  0  0  0  0  0  0  0
    8.2854  -13.0166   26.7998 C   0  0  0  0  0  0  0  0  0  0  0  0
    9.3004  -17.2879   26.3781 O   0  0  0  0  0  0  0  0  0  0  0  0
    9.3553  -17.4436   27.6198 N   0  0  0  0  0  0  0  0  0  0  0  0
    9.6406  -18.3718   25.5264 C   0  0  0  0  0  0  0  0  0  0  0  0
   10.8496  -18.2708   24.7424 C   0  0  0  0  0  0  0  0  0  0  0  0
   11.9885  -18.7795   25.5264 O   0  0  0  0  0  0  0  0  0  0  0  0
   11.8420  -19.1031   26.7210 O   0  0  0  0  0  0  0  0  0  0  0  0
  2  1  1  0
  3  2  2  0
  4  2  1  0
  5  4  1  0
  6  5  1  0
  7  6  1  0
  8  7  1  0
  8  9  1  1
 10  8  1  0
 10 11  2  0
 12 10  1  0
 13 12  1  0
 13 14  1  6
 15 14  1  0
 15 16  2  0
 16 17  1  0
 18 17  2  0
 19 18  1  0
 20 19  2  0
 20 15  1  0
 21 13  1  0
 22 21  2  0
 23 21  1  0
 24 25  1  0
 24 23  1  0
 25 27  1  0
 26 25  2  0
M  END
$$$$
