TTN.pdb
     RDKit          3D

 23 22  0  0  1  0  0  0  0  0999 V2000
    9.0989  -19.2220   18.2965 C   0  0  0  0  0  0  0  0  0  0  0  0
    9.3175  -18.4841   16.9926 C   0  0  1  0  0  0  0  0  0  0  0  0
    8.9057  -19.2825   15.9243 O   0  0  0  0  0  0  0  0  0  0  0  0
    8.5088  -17.2220   16.9964 C   0  0  2  0  0  0  0  0  0  0  0  0
    8.5162  -16.6150   15.6993 N   0  0  0  0  0  0  0  0  0  0  0  0
    9.0291  -16.2942   18.0317 C   0  0  0  0  0  0  0  0  0  0  0  0
   10.1554  -15.7311   17.8638 O   0  0  0  0  0  0  0  0  0  0  0  0
    7.4116  -13.1323   19.6612 C   0  0  0  0  0  0  0  0  0  0  0  0
    7.7797  -14.1491   20.7002 C   0  0  1  0  0  0  0  0  0  0  0  0
    6.6662  -14.9703   20.9753 O   0  0  0  0  0  0  0  0  0  0  0  0
    8.9044  -15.0823   20.2396 C   0  0  2  0  0  0  0  0  0  0  0  0
    8.3194  -15.9983   19.2234 N   0  0  0  0  0  0  0  0  0  0  0  0
    9.3430  -15.9543   21.3535 C   0  0  0  0  0  0  0  0  0  0  0  0
    8.8354  -17.1206   21.4769 O   0  0  0  0  0  0  0  0  0  0  0  0
   13.2430  -18.0418   21.9355 N   0  0  0  0  0  0  0  0  0  0  0  0
   13.0434  -16.7304   22.3949 C   0  0  0  0  0  0  0  0  0  0  0  0
   13.6022  -15.7836   21.7695 O   0  0  0  0  0  0  0  0  0  0  0  0
   12.2219  -16.3948   23.5558 C   0  0  0  0  0  0  0  0  0  0  0  0
   10.7413  -16.5289   23.3051 C   0  0  2  0  0  0  0  0  0  0  0  0
   10.3106  -15.5543   22.2939 N   0  0  0  0  0  0  0  0  0  0  0  0
    9.9197  -16.3533   24.5133 C   0  0  0  0  0  0  0  0  0  0  0  0
    9.8794  -17.2557   25.5460 O   0  0  0  0  0  0  0  0  0  0  0  0
    9.1943  -15.3244   24.6462 O   0  0  0  0  0  0  0  0  0  0  0  0
  2  1  1  1
  2  3  1  0
  4  6  1  0
  4  2  1  0
  4  5  1  6
  6  7  2  0
  6 12  1  0
  9  8  1  6
  9 11  1  0
 10  9  1  0
 11 13  1  0
 11 12  1  6
 13 20  1  0
 13 14  2  0
 15 16  1  0
 16 17  2  0
 19 18  1  1
 18 16  1  0
 19 21  1  0
 20 19  1  0
 21 22  1  0
 23 21  2  0
M  END
$$$$
