TTN.pdb
     RDKit          3D

 23 22  0  0  1  0  0  0  0  0999 V2000
    8.2711  -18.0072   14.2374 C   0  0  0  0  0  0  0  0  0  0  0  0
    9.0261  -17.1845   15.2597 C   0  0  1  0  0  0  0  0  0  0  0  0
   10.3992  -17.2996   15.0366 O   0  0  0  0  0  0  0  0  0  0  0  0
    8.6309  -15.7447   15.1263 C   0  0  2  0  0  0  0  0  0  0  0  0
    8.9561  -15.2517   13.8217 N   0  0  0  0  0  0  0  0  0  0  0  0
    9.2881  -14.9421   16.1881 C   0  0  0  0  0  0  0  0  0  0  0  0
   10.2851  -14.2103   15.8980 O   0  0  0  0  0  0  0  0  0  0  0  0
    7.4649  -12.6547   18.9462 C   0  0  0  0  0  0  0  0  0  0  0  0
    8.4248  -13.6436   19.5377 C   0  0  1  0  0  0  0  0  0  0  0  0
    7.7308  -14.8143   19.9086 O   0  0  0  0  0  0  0  0  0  0  0  0
    9.5098  -14.0775   18.5465 C   0  0  2  0  0  0  0  0  0  0  0  0
    8.8517  -14.9508   17.5376 N   0  0  0  0  0  0  0  0  0  0  0  0
   10.5129  -14.9350   19.2190 C   0  0  0  0  0  0  0  0  0  0  0  0
   10.4090  -16.2062   19.1387 O   0  0  0  0  0  0  0  0  0  0  0  0
   14.5488  -15.9932   18.3669 N   0  0  0  0  0  0  0  0  0  0  0  0
   14.4511  -14.8445   19.1678 C   0  0  0  0  0  0  0  0  0  0  0  0
   14.8392  -13.7415   18.6857 O   0  0  0  0  0  0  0  0  0  0  0  0
   13.9220  -14.8492   20.5300 C   0  0  0  0  0  0  0  0  0  0  0  0
   12.5015  -15.3458   20.6228 C   0  0  2  0  0  0  0  0  0  0  0  0
   11.5940  -14.4073   19.9494 N   0  0  0  0  0  0  0  0  0  0  0  0
   12.0358  -15.5476   22.0040 C   0  0  0  0  0  0  0  0  0  0  0  0
   12.5181  -16.5258   22.8364 O   0  0  0  0  0  0  0  0  0  0  0  0
   11.1400  -14.7968   22.4902 O   0  0  0  0  0  0  0  0  0  0  0  0
  2  1  1  6
  2  3  1  0
  4  6  1  0
  4  2  1  0
  4  5  1  6
  6  7  2  0
  6 12  1  0
  9  8  1  6
  9 11  1  0
 10  9  1  0
 11 13  1  0
 11 12  1  6
 13 20  1  0
 13 14  2  0
 15 16  1  0
 16 17  2  0
 19 18  1  1
 18 16  1  0
 19 21  1  0
 20 19  1  0
 21 22  1  0
 23 21  2  0
M  END
$$$$
