TTN.pdb
     RDKit          3D

 23 22  0  0  1  0  0  0  0  0999 V2000
    8.7260  -17.9690   16.8378 C   0  0  0  0  0  0  0  0  0  0  0  0
    9.1924  -16.9322   15.8381 C   0  0  1  0  0  0  0  0  0  0  0  0
    8.8416  -17.3306   14.5472 O   0  0  0  0  0  0  0  0  0  0  0  0
    8.5307  -15.6212   16.1390 C   0  0  2  0  0  0  0  0  0  0  0  0
    8.7235  -14.6999   15.0597 N   0  0  0  0  0  0  0  0  0  0  0  0
    9.0530  -15.0757   17.4168 C   0  0  0  0  0  0  0  0  0  0  0  0
   10.1902  -14.5100   17.4419 O   0  0  0  0  0  0  0  0  0  0  0  0
    6.9715  -12.8815   20.0378 C   0  0  0  0  0  0  0  0  0  0  0  0
    7.6752  -14.0359   20.6870 C   0  0  1  0  0  0  0  0  0  0  0  0
    6.7907  -15.1293   20.7967 O   0  0  0  0  0  0  0  0  0  0  0  0
    8.8757  -14.5284   19.8720 C   0  0  2  0  0  0  0  0  0  0  0  0
    8.3335  -15.1555   18.6365 N   0  0  0  0  0  0  0  0  0  0  0  0
    9.5799  -15.6147   20.5917 C   0  0  0  0  0  0  0  0  0  0  0  0
    9.5387  -16.8054   20.1294 O   0  0  0  0  0  0  0  0  0  0  0  0
   13.2997  -18.9099   22.1904 N   0  0  0  0  0  0  0  0  0  0  0  0
   13.2810  -17.5526   22.5481 C   0  0  0  0  0  0  0  0  0  0  0  0
   14.0246  -17.1716   23.4977 O   0  0  0  0  0  0  0  0  0  0  0  0
   12.4516  -16.5506   21.8822 C   0  0  0  0  0  0  0  0  0  0  0  0
   11.0262  -16.5261   22.3725 C   0  0  2  0  0  0  0  0  0  0  0  0
   10.3069  -15.3927   21.7760 N   0  0  0  0  0  0  0  0  0  0  0  0
   10.9070  -16.4458   23.8371 C   0  0  0  0  0  0  0  0  0  0  0  0
   11.2301  -17.4739   24.6861 O   0  0  0  0  0  0  0  0  0  0  0  0
   10.4863  -15.3848   24.3845 O   0  0  0  0  0  0  0  0  0  0  0  0
  2  1  1  1
  2  3  1  0
  4  6  1  0
  4  2  1  0
  4  5  1  6
  6  7  2  0
  6 12  1  0
  9  8  1  6
  9 11  1  0
 10  9  1  0
 11 13  1  0
 11 12  1  6
 13 20  1  0
 13 14  2  0
 15 16  1  0
 16 17  2  0
 19 18  1  1
 18 16  1  0
 19 21  1  0
 20 19  1  0
 21 22  1  0
 23 21  2  0
M  END
$$$$
