TTN.pdb
     RDKit          3D

 23 22  0  0  1  0  0  0  0  0999 V2000
    7.4749  -14.9203   17.0391 C   0  0  0  0  0  0  0  0  0  0  0  0
    8.1124  -15.0140   18.4091 C   0  0  1  0  0  0  0  0  0  0  0  0
    9.4904  -15.1926   18.2767 O   0  0  0  0  0  0  0  0  0  0  0  0
    7.8571  -13.7432   19.1621 C   0  0  2  0  0  0  0  0  0  0  0  0
    8.3217  -12.6130   18.4153 N   0  0  0  0  0  0  0  0  0  0  0  0
    8.5010  -13.8118   20.4977 C   0  0  0  0  0  0  0  0  0  0  0  0
    9.6292  -13.2577   20.6821 O   0  0  0  0  0  0  0  0  0  0  0  0
    6.8592  -12.9405   23.9943 C   0  0  0  0  0  0  0  0  0  0  0  0
    7.4632  -14.3132   23.9815 C   0  0  1  0  0  0  0  0  0  0  0  0
    6.4739  -15.2634   23.6525 O   0  0  0  0  0  0  0  0  0  0  0  0
    8.5717  -14.4599   22.9338 C   0  0  2  0  0  0  0  0  0  0  0  0
    7.9098  -14.4783   21.6013 N   0  0  0  0  0  0  0  0  0  0  0  0
    9.2369  -15.7768   23.0641 C   0  0  0  0  0  0  0  0  0  0  0  0
    9.2953  -16.5551   22.0522 O   0  0  0  0  0  0  0  0  0  0  0  0
   12.7787  -19.4429   23.0192 N   0  0  0  0  0  0  0  0  0  0  0  0
   12.9488  -18.1144   23.4399 C   0  0  0  0  0  0  0  0  0  0  0  0
   14.0690  -17.7751   23.9191 O   0  0  0  0  0  0  0  0  0  0  0  0
   11.9036  -17.0969   23.3526 C   0  0  0  0  0  0  0  0  0  0  0  0
   10.7069  -17.3863   24.2228 C   0  0  2  0  0  0  0  0  0  0  0  0
    9.8205  -16.2158   24.2671 N   0  0  0  0  0  0  0  0  0  0  0  0
   11.0572  -17.7686   25.6000 C   0  0  0  0  0  0  0  0  0  0  0  0
   11.1895  -19.0678   26.0207 O   0  0  0  0  0  0  0  0  0  0  0  0
   11.2559  -16.8778   26.4772 O   0  0  0  0  0  0  0  0  0  0  0  0
  2  1  1  6
  2  3  1  0
  4  6  1  0
  4  2  1  0
  4  5  1  6
  6  7  2  0
  6 12  1  0
  9  8  1  6
  9 11  1  0
 10  9  1  0
 11 13  1  0
 11 12  1  6
 13 20  1  0
 13 14  2  0
 15 16  1  0
 16 17  2  0
 19 18  1  6
 18 16  1  0
 19 21  1  0
 20 19  1  0
 21 22  1  0
 23 21  2  0
M  END
$$$$
