TTN.pdb
     RDKit          3D

 23 22  0  0  1  0  0  0  0  0999 V2000
   10.1895  -14.1666   19.6885 C   0  0  0  0  0  0  0  0  0  0  0  0
   11.5360  -14.7287   19.2847 C   0  0  1  0  0  0  0  0  0  0  0  0
   12.1634  -13.8561   18.3941 O   0  0  0  0  0  0  0  0  0  0  0  0
   12.3952  -14.8800   20.5037 C   0  0  2  0  0  0  0  0  0  0  0  0
   13.7808  -14.7633   20.1612 N   0  0  0  0  0  0  0  0  0  0  0  0
   12.1078  -16.1781   21.1637 C   0  0  0  0  0  0  0  0  0  0  0  0
   10.9335  -16.4266   21.5798 O   0  0  0  0  0  0  0  0  0  0  0  0
   12.7942  -19.7131   19.6970 C   0  0  0  0  0  0  0  0  0  0  0  0
   13.4261  -19.5606   21.0485 C   0  0  1  0  0  0  0  0  0  0  0  0
   14.7623  -19.1333   20.9015 O   0  0  0  0  0  0  0  0  0  0  0  0
   12.7252  -18.5060   21.9114 C   0  0  2  0  0  0  0  0  0  0  0  0
   13.0971  -17.1757   21.3582 N   0  0  0  0  0  0  0  0  0  0  0  0
   13.2624  -18.5255   23.2915 C   0  0  0  0  0  0  0  0  0  0  0  0
   13.9205  -17.5193   23.7248 O   0  0  0  0  0  0  0  0  0  0  0  0
   11.7888  -17.9656   27.1405 N   0  0  0  0  0  0  0  0  0  0  0  0
   11.7548  -19.3670   27.2150 C   0  0  0  0  0  0  0  0  0  0  0  0
   10.8798  -19.9081   27.9508 O   0  0  0  0  0  0  0  0  0  0  0  0
   12.6730  -20.2397   26.4864 C   0  0  0  0  0  0  0  0  0  0  0  0
   13.5812  -19.5002   25.5371 C   0  0  2  0  0  0  0  0  0  0  0  0
   13.0753  -19.6148   24.1627 N   0  0  0  0  0  0  0  0  0  0  0  0
   14.9760  -19.9680   25.5696 C   0  0  0  0  0  0  0  0  0  0  0  0
   15.9368  -19.4449   26.3977 O   0  0  0  0  0  0  0  0  0  0  0  0
   15.3516  -20.9048   24.8055 O   0  0  0  0  0  0  0  0  0  0  0  0
  2  1  1  1
  2  3  1  0
  4  6  1  0
  4  2  1  0
  4  5  1  6
  6  7  2  0
  6 12  1  0
  9  8  1  6
  9 11  1  0
 10  9  1  0
 11 13  1  0
 11 12  1  6
 13 20  1  0
 13 14  2  0
 15 16  1  0
 16 17  2  0
 19 18  1  1
 18 16  1  0
 19 21  1  0
 20 19  1  0
 21 22  1  0
 23 21  2  0
M  END
$$$$
