TTN.pdb
     RDKit          3D

 23 22  0  0  1  0  0  0  0  0999 V2000
    7.4688  -19.8141   16.9654 C   0  0  0  0  0  0  0  0  0  0  0  0
    8.1930  -18.9239   17.9530 C   0  0  1  0  0  0  0  0  0  0  0  0
    9.5255  -19.3252   18.0603 O   0  0  0  0  0  0  0  0  0  0  0  0
    8.1497  -17.5067   17.4665 C   0  0  2  0  0  0  0  0  0  0  0  0
    8.7936  -17.3914   16.1925 N   0  0  0  0  0  0  0  0  0  0  0  0
    8.7735  -16.6105   18.4719 C   0  0  0  0  0  0  0  0  0  0  0  0
    9.9249  -16.1212   18.2510 O   0  0  0  0  0  0  0  0  0  0  0  0
    7.0682  -13.5144   20.3730 C   0  0  0  0  0  0  0  0  0  0  0  0
    7.6842  -14.5121   21.3080 C   0  0  1  0  0  0  0  0  0  0  0  0
    6.7040  -15.4345   21.7301 O   0  0  0  0  0  0  0  0  0  0  0  0
    8.7962  -15.3325   20.6457 C   0  0  2  0  0  0  0  0  0  0  0  0
    8.1376  -16.2654   19.6918 N   0  0  0  0  0  0  0  0  0  0  0  0
    9.4681  -16.1957   21.6443 C   0  0  0  0  0  0  0  0  0  0  0  0
    9.0553  -17.3922   21.8209 O   0  0  0  0  0  0  0  0  0  0  0  0
   13.5018  -17.4075   21.4230 N   0  0  0  0  0  0  0  0  0  0  0  0
   13.4269  -16.3250   22.3137 C   0  0  0  0  0  0  0  0  0  0  0  0
   14.0726  -15.2734   22.0363 O   0  0  0  0  0  0  0  0  0  0  0  0
   12.6405  -16.3421   23.5452 C   0  0  0  0  0  0  0  0  0  0  0  0
   11.1946  -16.7117   23.3316 C   0  0  2  0  0  0  0  0  0  0  0  0
   10.5592  -15.7547   22.4160 N   0  0  0  0  0  0  0  0  0  0  0  0
   10.4104  -16.7705   24.5754 C   0  0  0  0  0  0  0  0  0  0  0  0
    9.3749  -15.9184   24.8653 O   0  0  0  0  0  0  0  0  0  0  0  0
   10.6744  -17.6427   25.4541 O   0  0  0  0  0  0  0  0  0  0  0  0
  2  1  1  6
  2  3  1  0
  4  6  1  0
  4  2  1  0
  4  5  1  6
  6  7  2  0
  6 12  1  0
  9  8  1  6
  9 11  1  0
 10  9  1  0
 11 13  1  0
 11 12  1  6
 13 20  1  0
 13 14  2  0
 15 16  1  0
 16 17  2  0
 19 18  1  1
 18 16  1  0
 19 21  1  0
 20 19  1  0
 21 22  1  0
 23 21  2  0
M  END
$$$$
