TTN.pdb
     RDKit          3D

 23 22  0  0  1  0  0  0  0  0999 V2000
    7.2920  -19.6177   17.5612 C   0  0  0  0  0  0  0  0  0  0  0  0
    8.0277  -18.8641   18.6489 C   0  0  1  0  0  0  0  0  0  0  0  0
    9.2624  -19.4692   18.8893 O   0  0  0  0  0  0  0  0  0  0  0  0
    8.2572  -17.4511   18.2040 C   0  0  2  0  0  0  0  0  0  0  0  0
    9.0313  -17.4215   16.9995 N   0  0  0  0  0  0  0  0  0  0  0  0
    8.9152  -16.6824   19.2900 C   0  0  0  0  0  0  0  0  0  0  0  0
   10.1643  -16.4575   19.2345 O   0  0  0  0  0  0  0  0  0  0  0  0
    7.6226  -13.3172   21.1760 C   0  0  0  0  0  0  0  0  0  0  0  0
    7.9370  -14.4556   22.1004 C   0  0  1  0  0  0  0  0  0  0  0  0
    6.7591  -15.1808   22.3770 O   0  0  0  0  0  0  0  0  0  0  0  0
    8.9283  -15.4530   21.4916 C   0  0  2  0  0  0  0  0  0  0  0  0
    8.2070  -16.1761   20.4097 N   0  0  0  0  0  0  0  0  0  0  0  0
    9.2961  -16.4891   22.4840 C   0  0  0  0  0  0  0  0  0  0  0  0
    8.5688  -17.5332   22.6024 O   0  0  0  0  0  0  0  0  0  0  0  0
   14.3751  -17.6021   24.7218 N   0  0  0  0  0  0  0  0  0  0  0  0
   13.1740  -17.2175   24.1053 C   0  0  0  0  0  0  0  0  0  0  0  0
   13.0732  -16.0329   23.6735 O   0  0  0  0  0  0  0  0  0  0  0  0
   12.0310  -18.1108   23.9301 C   0  0  0  0  0  0  0  0  0  0  0  0
   10.7076  -17.4671   24.2575 C   0  0  2  0  0  0  0  0  0  0  0  0
   10.4287  -16.3780   23.3120 N   0  0  0  0  0  0  0  0  0  0  0  0
   10.6324  -16.9363   25.6280 C   0  0  0  0  0  0  0  0  0  0  0  0
   10.3701  -15.6225   25.9238 O   0  0  0  0  0  0  0  0  0  0  0  0
   10.8142  -17.7030   26.6188 O   0  0  0  0  0  0  0  0  0  0  0  0
  2  1  1  6
  2  3  1  0
  4  6  1  0
  4  2  1  0
  4  5  1  6
  6  7  2  0
  6 12  1  0
  9  8  1  6
  9 11  1  0
 10  9  1  0
 11 13  1  0
 11 12  1  6
 13 20  1  0
 13 14  2  0
 15 16  1  0
 16 17  2  0
 19 18  1  6
 18 16  1  0
 19 21  1  0
 20 19  1  0
 21 22  1  0
 23 21  2  0
M  END
$$$$
