TTN.pdb
     RDKit          3D

 23 22  0  0  1  0  0  0  0  0999 V2000
   11.5590  -14.8432   18.7305 C   0  0  0  0  0  0  0  0  0  0  0  0
   10.8605  -13.6094   18.1993 C   0  0  1  0  0  0  0  0  0  0  0  0
   11.2502  -13.3787   16.8791 O   0  0  0  0  0  0  0  0  0  0  0  0
    9.3775  -13.8248   18.2380 C   0  0  2  0  0  0  0  0  0  0  0  0
    8.6951  -12.7506   17.5812 N   0  0  0  0  0  0  0  0  0  0  0  0
    8.9273  -13.9730   19.6446 C   0  0  0  0  0  0  0  0  0  0  0  0
    8.7135  -12.9381   20.3497 O   0  0  0  0  0  0  0  0  0  0  0  0
    5.8316  -15.5405   21.1173 C   0  0  0  0  0  0  0  0  0  0  0  0
    7.0361  -16.2139   21.7046 C   0  0  1  0  0  0  0  0  0  0  0  0
    7.3492  -17.3656   20.9527 O   0  0  0  0  0  0  0  0  0  0  0  0
    8.2827  -15.3233   21.6745 C   0  0  2  0  0  0  0  0  0  0  0  0
    8.7197  -15.2364   20.2548 N   0  0  0  0  0  0  0  0  0  0  0  0
    9.4017  -15.9739   22.3945 C   0  0  0  0  0  0  0  0  0  0  0  0
   10.3409  -16.5282   21.7282 O   0  0  0  0  0  0  0  0  0  0  0  0
   11.8340  -17.3858   27.7008 N   0  0  0  0  0  0  0  0  0  0  0  0
   12.0345  -16.7999   26.4410 C   0  0  0  0  0  0  0  0  0  0  0  0
   13.1747  -16.9060   25.9041 O   0  0  0  0  0  0  0  0  0  0  0  0
   10.9972  -16.0748   25.7104 C   0  0  0  0  0  0  0  0  0  0  0  0
   10.6009  -16.7342   24.4138 C   0  0  2  0  0  0  0  0  0  0  0  0
    9.4826  -16.0067   23.7991 N   0  0  0  0  0  0  0  0  0  0  0  0
   10.2223  -18.1485   24.5624 C   0  0  0  0  0  0  0  0  0  0  0  0
   11.1223  -19.1840   24.5536 O   0  0  0  0  0  0  0  0  0  0  0  0
    9.0068  -18.4703   24.7091 O   0  0  0  0  0  0  0  0  0  0  0  0
  2  1  1  6
  2  3  1  0
  4  6  1  0
  4  2  1  0
  4  5  1  1
  6  7  2  0
  6 12  1  0
  9  8  1  6
  9 11  1  0
 10  9  1  0
 11 13  1  0
 11 12  1  6
 13 20  1  0
 13 14  2  0
 15 16  1  0
 16 17  2  0
 19 18  1  1
 18 16  1  0
 19 21  1  0
 20 19  1  0
 21 22  1  0
 23 21  2  0
M  END
$$$$
