TTN.pdb
     RDKit          3D

 23 22  0  0  1  0  0  0  0  0999 V2000
    7.9138  -15.8089   18.5757 C   0  0  0  0  0  0  0  0  0  0  0  0
    8.3523  -15.1689   19.8758 C   0  0  1  0  0  0  0  0  0  0  0  0
    7.5075  -14.1015   20.1843 O   0  0  0  0  0  0  0  0  0  0  0  0
    8.2765  -16.1829   20.9772 C   0  0  2  0  0  0  0  0  0  0  0  0
    6.9359  -16.6633   21.1285 N   0  0  0  0  0  0  0  0  0  0  0  0
    8.7863  -15.5928   22.2402 C   0  0  0  0  0  0  0  0  0  0  0  0
    9.9674  -15.1272   22.2859 O   0  0  0  0  0  0  0  0  0  0  0  0
    6.9720  -13.0134   24.8552 C   0  0  0  0  0  0  0  0  0  0  0  0
    7.4230  -14.3154   25.4472 C   0  0  1  0  0  0  0  0  0  0  0  0
    6.3633  -15.2455   25.4100 O   0  0  0  0  0  0  0  0  0  0  0  0
    8.5825  -14.9466   24.6692 C   0  0  2  0  0  0  0  0  0  0  0  0
    8.0071  -15.5210   23.4231 N   0  0  0  0  0  0  0  0  0  0  0  0
    9.1410  -16.0978   25.4151 C   0  0  0  0  0  0  0  0  0  0  0  0
    8.5993  -17.2489   25.2936 O   0  0  0  0  0  0  0  0  0  0  0  0
   11.5743  -18.2116   24.5539 N   0  0  0  0  0  0  0  0  0  0  0  0
   12.5087  -17.8937   25.5521 C   0  0  0  0  0  0  0  0  0  0  0  0
   13.7382  -18.0327   25.2897 O   0  0  0  0  0  0  0  0  0  0  0  0
   12.1417  -17.4066   26.8800 C   0  0  0  0  0  0  0  0  0  0  0  0
   10.6636  -17.1583   27.0433 C   0  0  2  0  0  0  0  0  0  0  0  0
   10.2601  -15.9825   26.2607 N   0  0  0  0  0  0  0  0  0  0  0  0
   10.2489  -16.9626   28.4416 C   0  0  0  0  0  0  0  0  0  0  0  0
   10.2405  -17.9618   29.3817 O   0  0  0  0  0  0  0  0  0  0  0  0
    9.8712  -15.8220   28.8402 O   0  0  0  0  0  0  0  0  0  0  0  0
  2  1  1  6
  2  3  1  0
  4  6  1  0
  4  2  1  0
  4  5  1  1
  6  7  2  0
  6 12  1  0
  9  8  1  6
  9 11  1  0
 10  9  1  0
 11 13  1  0
 11 12  1  6
 13 20  1  0
 13 14  2  0
 15 16  1  0
 16 17  2  0
 19 18  1  1
 18 16  1  0
 19 21  1  0
 20 19  1  0
 21 22  1  0
 23 21  2  0
M  END
$$$$
