EIK.pdb
     RDKit          3D

 27 26  0  0  1  0  0  0  0  0999 V2000
   28.3072  -21.6766  -15.5008 N   0  0  0  0  0  0  0  0  0  0  0  0
   27.3214  -20.7211  -15.0590 C   0  0  1  0  0  0  0  0  0  0  0  0
   26.8132  -19.8755  -16.1975 C   0  0  0  0  0  0  0  0  0  0  0  0
   27.9315  -19.1196  -16.8519 C   0  0  0  0  0  0  0  0  0  0  0  0
   27.9157  -19.4141  -18.3087 C   0  0  0  0  0  0  0  0  0  0  0  0
   27.0160  -20.1292  -18.8289 O   0  0  0  0  0  0  0  0  0  0  0  0
   26.2193  -21.3176  -14.2942 C   0  0  0  0  0  0  0  0  0  0  0  0
   25.7435  -22.4646  -14.5300 O   0  0  0  0  0  0  0  0  0  0  0  0
   28.9108  -18.9044  -19.1662 O   0  0  0  0  0  0  0  0  0  0  0  0
   26.4281  -20.5292   -9.0614 C   0  0  0  0  0  0  0  0  0  0  0  0
   26.2177  -21.2739  -10.3899 C   0  0  0  0  0  0  0  0  0  0  0  0
   24.9757  -20.7266  -10.9871 C   0  0  2  0  0  0  0  0  0  0  0  0
   23.8183  -20.9794  -10.0273 C   0  0  0  0  0  0  0  0  0  0  0  0
   24.6183  -21.1834  -12.3640 C   0  0  2  0  0  0  0  0  0  0  0  0
   25.6534  -20.5805  -13.2348 N   0  0  0  0  0  0  0  0  0  0  0  0
   23.3092  -20.7336  -12.8689 C   0  0  0  0  0  0  0  0  0  0  0  0
   23.0595  -19.4778  -12.9391 O   0  0  0  0  0  0  0  0  0  0  0  0
   22.2636  -21.5825  -13.3000 N   0  0  0  0  0  0  0  0  0  0  0  0
   20.9672  -21.0344  -13.7292 C   0  0  1  0  0  0  0  0  0  0  0  0
   20.2144  -22.1158  -14.4450 C   0  0  0  0  0  0  0  0  0  0  0  0
   18.8385  -21.7207  -14.8563 C   0  0  0  0  0  0  0  0  0  0  0  0
   18.0423  -22.8364  -15.4977 C   0  0  0  0  0  0  0  0  0  0  0  0
   16.6393  -22.3428  -15.8723 C   0  0  0  0  0  0  0  0  0  0  0  0
   15.9085  -23.4930  -16.3683 N   0  0  0  0  0  0  0  0  0  0  0  0
   20.2591  -20.5601  -12.5426 C   0  0  0  0  0  0  0  0  0  0  0  0
   20.3676  -21.1403  -11.4029 O   0  0  0  0  0  0  0  0  0  0  0  0
   19.4371  -19.4616  -12.5787 O   0  0  0  0  0  0  0  0  0  0  0  0
  2  1  1  6
  3  2  1  0
  4  3  1  0
  5  4  1  0
  5  6  2  0
  7  2  1  0
  7  8  2  0
  9  5  1  0
 10 11  1  0
 12 11  1  0
 12 14  1  0
 12 13  1  1
 14 15  1  6
 15  7  1  0
 16 14  1  0
 17 16  2  0
 18 16  1  0
 19 25  1  0
 19 18  1  0
 19 20  1  1
 21 20  1  0
 22 21  1  0
 23 24  1  0
 23 22  1  0
 25 27  1  0
 26 25  2  0
M  END
$$$$
