EIK.pdb
     RDKit          3D

 27 26  0  0  1  0  0  0  0  0999 V2000
   29.0552  -20.7234  -14.9453 N   0  0  0  0  0  0  0  0  0  0  0  0
   28.1039  -19.9793  -14.1570 C   0  0  1  0  0  0  0  0  0  0  0  0
   27.5042  -18.8377  -14.9359 C   0  0  0  0  0  0  0  0  0  0  0  0
   27.3101  -19.2079  -16.3766 C   0  0  0  0  0  0  0  0  0  0  0  0
   26.8004  -18.0187  -17.1083 C   0  0  0  0  0  0  0  0  0  0  0  0
   25.6075  -17.9527  -17.5131 O   0  0  0  0  0  0  0  0  0  0  0  0
   27.0679  -20.8136  -13.5357 C   0  0  0  0  0  0  0  0  0  0  0  0
   26.6096  -21.8680  -14.0609 O   0  0  0  0  0  0  0  0  0  0  0  0
   27.6356  -16.9167  -17.3796 O   0  0  0  0  0  0  0  0  0  0  0  0
   26.6279  -20.1947   -8.1138 C   0  0  0  0  0  0  0  0  0  0  0  0
   26.7525  -21.0369   -9.3939 C   0  0  0  0  0  0  0  0  0  0  0  0
   25.5304  -20.7738  -10.1916 C   0  0  2  0  0  0  0  0  0  0  0  0
   24.3253  -21.3246   -9.4371 C   0  0  0  0  0  0  0  0  0  0  0  0
   25.5200  -21.2512  -11.6072 C   0  0  2  0  0  0  0  0  0  0  0  0
   26.5491  -20.4285  -12.2834 N   0  0  0  0  0  0  0  0  0  0  0  0
   24.2567  -21.0563  -12.3401 C   0  0  0  0  0  0  0  0  0  0  0  0
   23.8616  -19.8662  -12.6077 O   0  0  0  0  0  0  0  0  0  0  0  0
   23.4069  -22.0914  -12.7942 N   0  0  0  0  0  0  0  0  0  0  0  0
   22.1966  -21.7935  -13.5763 C   0  0  1  0  0  0  0  0  0  0  0  0
   21.8646  -22.9987  -14.4044 C   0  0  0  0  0  0  0  0  0  0  0  0
   20.6350  -22.8417  -15.2303 C   0  0  0  0  0  0  0  0  0  0  0  0
   20.2636  -24.0754  -16.0240 C   0  0  0  0  0  0  0  0  0  0  0  0
   19.0341  -23.7970  -16.8976 C   0  0  0  0  0  0  0  0  0  0  0  0
   19.4865  -22.9882  -18.0130 N   0  0  0  0  0  0  0  0  0  0  0  0
   21.1255  -21.4512  -12.6434 C   0  0  0  0  0  0  0  0  0  0  0  0
   21.1262  -21.8508  -11.4238 O   0  0  0  0  0  0  0  0  0  0  0  0
   20.0556  -20.6780  -13.0190 O   0  0  0  0  0  0  0  0  0  0  0  0
  2  1  1  6
  3  2  1  0
  4  3  1  0
  5  4  1  0
  5  6  2  0
  7  2  1  0
  7  8  2  0
  9  5  1  0
 10 11  1  0
 12 11  1  0
 12 14  1  0
 12 13  1  1
 14 15  1  6
 15  7  1  0
 16 14  1  0
 17 16  2  0
 18 16  1  0
 19 25  1  0
 19 18  1  0
 19 20  1  1
 21 20  1  0
 22 21  1  0
 23 24  1  0
 23 22  1  0
 25 27  1  0
 26 25  2  0
M  END
$$$$
