EIK.pdb
     RDKit          3D

 27 26  0  0  1  0  0  0  0  0999 V2000
   18.6000  -14.1245  -17.7132 N   0  0  0  0  0  0  0  0  0  0  0  0
   19.5110  -13.0612  -18.0590 C   0  0  1  0  0  0  0  0  0  0  0  0
   18.9624  -12.1915  -19.1599 C   0  0  0  0  0  0  0  0  0  0  0  0
   18.7192  -12.9869  -20.4083 C   0  0  0  0  0  0  0  0  0  0  0  0
   20.0311  -13.4008  -20.9712 C   0  0  0  0  0  0  0  0  0  0  0  0
   20.8703  -12.5542  -21.3837 O   0  0  0  0  0  0  0  0  0  0  0  0
   19.9541  -12.2633  -16.9091 C   0  0  0  0  0  0  0  0  0  0  0  0
   19.2157  -11.9895  -15.9203 O   0  0  0  0  0  0  0  0  0  0  0  0
   20.3866  -14.7609  -21.0670 O   0  0  0  0  0  0  0  0  0  0  0  0
   22.6541  -12.8303  -13.6446 C   0  0  0  0  0  0  0  0  0  0  0  0
   23.3173  -12.7728  -15.0304 C   0  0  0  0  0  0  0  0  0  0  0  0
   23.1452  -11.3846  -15.5223 C   0  0  2  0  0  0  0  0  0  0  0  0
   23.8529  -10.4340  -14.5630 C   0  0  0  0  0  0  0  0  0  0  0  0
   21.7500  -10.9175  -15.7819 C   0  0  2  0  0  0  0  0  0  0  0  0
   21.2745  -11.7712  -16.8948 N   0  0  0  0  0  0  0  0  0  0  0  0
   21.6138   -9.5171  -16.2192 C   0  0  0  0  0  0  0  0  0  0  0  0
   22.3643   -9.0760  -17.1607 O   0  0  0  0  0  0  0  0  0  0  0  0
   20.7026   -8.5780  -15.6828 N   0  0  0  0  0  0  0  0  0  0  0  0
   20.5980   -7.2185  -16.2359 C   0  0  1  0  0  0  0  0  0  0  0  0
   19.1507   -6.9300  -16.5013 C   0  0  0  0  0  0  0  0  0  0  0  0
   18.8831   -5.5250  -16.9171 C   0  0  0  0  0  0  0  0  0  0  0  0
   17.4324   -5.2440  -17.2434 C   0  0  0  0  0  0  0  0  0  0  0  0
   17.2569   -3.7834  -17.6772 C   0  0  0  0  0  0  0  0  0  0  0  0
   17.5340   -2.9640  -16.5133 N   0  0  0  0  0  0  0  0  0  0  0  0
   21.1792   -6.2890  -15.2701 C   0  0  0  0  0  0  0  0  0  0  0  0
   21.2034   -6.5363  -14.0109 O   0  0  0  0  0  0  0  0  0  0  0  0
   21.7368   -5.0958  -15.6561 O   0  0  0  0  0  0  0  0  0  0  0  0
  2  1  1  1
  3  2  1  0
  4  3  1  0
  5  4  1  0
  5  6  2  0
  7  2  1  0
  7  8  2  0
  9  5  1  0
 10 11  1  0
 12 11  1  0
 12 14  1  0
 12 13  1  1
 14 15  1  6
 15  7  1  0
 16 14  1  0
 17 16  2  0
 18 16  1  0
 19 25  1  0
 19 18  1  0
 19 20  1  1
 21 20  1  0
 22 21  1  0
 23 24  1  0
 23 22  1  0
 25 27  1  0
 26 25  2  0
M  END
$$$$
