EIK.pdb
     RDKit          3D

 27 26  0  0  1  0  0  0  0  0999 V2000
   27.6267  -20.9850  -15.5067 N   0  0  0  0  0  0  0  0  0  0  0  0
   26.7783  -20.2077  -14.6371 C   0  0  1  0  0  0  0  0  0  0  0  0
   25.9988  -19.1685  -15.3998 C   0  0  0  0  0  0  0  0  0  0  0  0
   26.1054  -19.3895  -16.8797 C   0  0  0  0  0  0  0  0  0  0  0  0
   26.8638  -18.2586  -17.4757 C   0  0  0  0  0  0  0  0  0  0  0  0
   27.5330  -17.4623  -16.7620 O   0  0  0  0  0  0  0  0  0  0  0  0
   25.9043  -21.0196  -13.7814 C   0  0  0  0  0  0  0  0  0  0  0  0
   25.4867  -22.1699  -14.0978 O   0  0  0  0  0  0  0  0  0  0  0  0
   26.8619  -18.0323  -18.8664 O   0  0  0  0  0  0  0  0  0  0  0  0
   26.6195  -20.4040   -8.4785 C   0  0  0  0  0  0  0  0  0  0  0  0
   26.4149  -21.1530   -9.8055 C   0  0  0  0  0  0  0  0  0  0  0  0
   25.0363  -20.8433  -10.2554 C   0  0  2  0  0  0  0  0  0  0  0  0
   24.0520  -21.3778   -9.2209 C   0  0  0  0  0  0  0  0  0  0  0  0
   24.6454  -21.2927  -11.6256 C   0  0  2  0  0  0  0  0  0  0  0  0
   25.5035  -20.4987  -12.5349 N   0  0  0  0  0  0  0  0  0  0  0  0
   23.2470  -21.0335  -12.0106 C   0  0  0  0  0  0  0  0  0  0  0  0
   22.8670  -19.8282  -12.2273 O   0  0  0  0  0  0  0  0  0  0  0  0
   22.2468  -22.0203  -12.1707 N   0  0  0  0  0  0  0  0  0  0  0  0
   20.8887  -21.6623  -12.6094 C   0  0  1  0  0  0  0  0  0  0  0  0
   20.2466  -22.8851  -13.1933 C   0  0  0  0  0  0  0  0  0  0  0  0
   18.8418  -22.6723  -13.6404 C   0  0  0  0  0  0  0  0  0  0  0  0
   18.1789  -23.9115  -14.2018 C   0  0  0  0  0  0  0  0  0  0  0  0
   16.7801  -23.5737  -14.7324 C   0  0  0  0  0  0  0  0  0  0  0  0
   16.2375  -24.7963  -15.2926 N   0  0  0  0  0  0  0  0  0  0  0  0
   20.1569  -21.1524  -11.4522 C   0  0  0  0  0  0  0  0  0  0  0  0
   20.4217  -21.5294  -10.2543 O   0  0  0  0  0  0  0  0  0  0  0  0
   19.1433  -20.2360  -11.5807 O   0  0  0  0  0  0  0  0  0  0  0  0
  2  1  1  6
  3  2  1  0
  4  3  1  0
  5  4  1  0
  5  6  2  0
  7  2  1  0
  7  8  2  0
  9  5  1  0
 10 11  1  0
 12 11  1  0
 12 14  1  0
 12 13  1  1
 14 15  1  6
 15  7  1  0
 16 14  1  0
 17 16  2  0
 18 16  1  0
 19 25  1  0
 19 18  1  0
 19 20  1  1
 21 20  1  0
 22 21  1  0
 23 24  1  0
 23 22  1  0
 25 27  1  0
 26 25  2  0
M  END
$$$$
