EIK.pdb
     RDKit          3D

 27 26  0  0  1  0  0  0  0  0999 V2000
   22.4303  -14.9570  -18.4661 N   0  0  0  0  0  0  0  0  0  0  0  0
   22.6185  -13.5399  -18.6570 C   0  0  1  0  0  0  0  0  0  0  0  0
   21.5972  -12.9630  -19.6023 C   0  0  0  0  0  0  0  0  0  0  0  0
   21.6401  -13.6535  -20.9333 C   0  0  0  0  0  0  0  0  0  0  0  0
   21.4755  -12.6345  -22.0028 C   0  0  0  0  0  0  0  0  0  0  0  0
   21.3377  -12.9626  -23.2130 O   0  0  0  0  0  0  0  0  0  0  0  0
   22.6878  -12.7774  -17.4044 C   0  0  0  0  0  0  0  0  0  0  0  0
   22.0703  -13.1035  -16.3508 O   0  0  0  0  0  0  0  0  0  0  0  0
   21.4691  -11.2578  -21.7030 O   0  0  0  0  0  0  0  0  0  0  0  0
   27.2938  -11.1620  -15.5823 C   0  0  0  0  0  0  0  0  0  0  0  0
   25.8487  -11.6850  -15.6227 C   0  0  0  0  0  0  0  0  0  0  0  0
   24.9864  -10.5165  -15.9227 C   0  0  2  0  0  0  0  0  0  0  0  0
   25.1791   -9.4721  -14.8287 C   0  0  0  0  0  0  0  0  0  0  0  0
   23.5317  -10.7768  -16.1425 C   0  0  2  0  0  0  0  0  0  0  0  0
   23.4854  -11.6165  -17.3616 N   0  0  0  0  0  0  0  0  0  0  0  0
   22.6998   -9.5884  -16.4010 C   0  0  0  0  0  0  0  0  0  0  0  0
   23.0050   -8.8053  -17.3694 O   0  0  0  0  0  0  0  0  0  0  0  0
   21.5558   -9.2141  -15.6588 N   0  0  0  0  0  0  0  0  0  0  0  0
   20.8054   -7.9908  -15.9837 C   0  0  1  0  0  0  0  0  0  0  0  0
   19.3417   -8.2901  -15.8551 C   0  0  0  0  0  0  0  0  0  0  0  0
   18.4656   -7.0986  -16.0317 C   0  0  0  0  0  0  0  0  0  0  0  0
   16.9975   -7.3707  -15.7858 C   0  0  0  0  0  0  0  0  0  0  0  0
   16.1747   -6.0954  -16.0066 C   0  0  0  0  0  0  0  0  0  0  0  0
   14.8284   -6.3803  -15.5491 N   0  0  0  0  0  0  0  0  0  0  0  0
   21.2368   -6.9365  -15.0688 C   0  0  0  0  0  0  0  0  0  0  0  0
   21.7068   -7.1924  -13.9023 O   0  0  0  0  0  0  0  0  0  0  0  0
   21.1664   -5.6083  -15.4073 O   0  0  0  0  0  0  0  0  0  0  0  0
  2  1  1  1
  3  2  1  0
  4  3  1  0
  5  4  1  0
  5  6  2  0
  7  2  1  0
  7  8  2  0
  9  5  1  0
 10 11  1  0
 12 11  1  0
 12 14  1  0
 12 13  1  1
 14 15  1  6
 15  7  1  0
 16 14  1  0
 17 16  2  0
 18 16  1  0
 19 25  1  0
 19 18  1  0
 19 20  1  1
 21 20  1  0
 22 21  1  0
 23 24  1  0
 23 22  1  0
 25 27  1  0
 26 25  2  0
M  END
$$$$
