EIK.pdb
     RDKit          3D

 27 26  0  0  1  0  0  0  0  0999 V2000
   14.3827  -13.3222  -16.0531 N   0  0  0  0  0  0  0  0  0  0  0  0
   15.2966  -12.6454  -15.1661 C   0  0  1  0  0  0  0  0  0  0  0  0
   16.3644  -13.5739  -14.6492 C   0  0  0  0  0  0  0  0  0  0  0  0
   16.6778  -14.6483  -15.6481 C   0  0  0  0  0  0  0  0  0  0  0  0
   17.8209  -15.4510  -15.1397 C   0  0  0  0  0  0  0  0  0  0  0  0
   18.9478  -15.4293  -15.7061 O   0  0  0  0  0  0  0  0  0  0  0  0
   15.8732  -11.4196  -15.7321 C   0  0  0  0  0  0  0  0  0  0  0  0
   16.2190  -11.3022  -16.9422 O   0  0  0  0  0  0  0  0  0  0  0  0
   17.6865  -16.2711  -14.0018 O   0  0  0  0  0  0  0  0  0  0  0  0
   13.3578   -7.1778  -14.4588 C   0  0  0  0  0  0  0  0  0  0  0  0
   14.2352   -7.9369  -15.4675 C   0  0  0  0  0  0  0  0  0  0  0  0
   15.5955   -7.9977  -14.8802 C   0  0  2  0  0  0  0  0  0  0  0  0
   16.2189   -6.6078  -14.9440 C   0  0  0  0  0  0  0  0  0  0  0  0
   16.5371   -9.0157  -15.4361 C   0  0  2  0  0  0  0  0  0  0  0  0
   16.0543  -10.3047  -14.8895 N   0  0  0  0  0  0  0  0  0  0  0  0
   17.9469   -8.8729  -15.0325 C   0  0  0  0  0  0  0  0  0  0  0  0
   18.2802   -9.1070  -13.8166 O   0  0  0  0  0  0  0  0  0  0  0  0
   19.0070   -8.4894  -15.8863 N   0  0  0  0  0  0  0  0  0  0  0  0
   20.3917   -8.4167  -15.3939 C   0  0  1  0  0  0  0  0  0  0  0  0
   21.3005   -8.9261  -16.4723 C   0  0  0  0  0  0  0  0  0  0  0  0
   22.7470   -8.8559  -16.1238 C   0  0  0  0  0  0  0  0  0  0  0  0
   23.6695   -9.3486  -17.2176 C   0  0  0  0  0  0  0  0  0  0  0  0
   25.1250   -9.3329  -16.7344 C   0  0  0  0  0  0  0  0  0  0  0  0
   25.9363   -9.8254  -17.8310 N   0  0  0  0  0  0  0  0  0  0  0  0
   20.6762   -7.0278  -15.0412 C   0  0  0  0  0  0  0  0  0  0  0  0
   20.1088   -6.0409  -15.6338 O   0  0  0  0  0  0  0  0  0  0  0  0
   21.5675   -6.6986  -14.0507 O   0  0  0  0  0  0  0  0  0  0  0  0
  2  1  1  6
  3  2  1  0
  4  3  1  0
  5  4  1  0
  5  6  2  0
  7  2  1  0
  7  8  2  0
  9  5  1  0
 10 11  1  0
 12 11  1  0
 12 14  1  0
 12 13  1  6
 14 15  1  1
 15  7  1  0
 16 14  1  0
 17 16  2  0
 18 16  1  0
 19 25  1  0
 19 18  1  0
 19 20  1  6
 21 20  1  0
 22 21  1  0
 23 24  1  0
 23 22  1  0
 25 27  1  0
 26 25  2  0
M  END
$$$$
