EIK.pdb
     RDKit          3D

 27 26  0  0  1  0  0  0  0  0999 V2000
   28.4030  -21.5597  -15.3753 N   0  0  0  0  0  0  0  0  0  0  0  0
   27.5493  -20.5660  -14.7720 C   0  0  1  0  0  0  0  0  0  0  0  0
   26.9812  -19.6204  -15.7980 C   0  0  0  0  0  0  0  0  0  0  0  0
   28.0577  -19.0820  -16.6933 C   0  0  0  0  0  0  0  0  0  0  0  0
   27.4509  -18.0978  -17.6273 C   0  0  0  0  0  0  0  0  0  0  0  0
   27.2981  -18.3562  -18.8525 O   0  0  0  0  0  0  0  0  0  0  0  0
   26.4989  -21.1289  -13.9148 C   0  0  0  0  0  0  0  0  0  0  0  0
   25.8937  -22.2097  -14.1666 O   0  0  0  0  0  0  0  0  0  0  0  0
   27.0235  -16.8330  -17.1766 O   0  0  0  0  0  0  0  0  0  0  0  0
   27.1064  -20.4274   -8.6081 C   0  0  0  0  0  0  0  0  0  0  0  0
   26.8288  -21.1224   -9.9510 C   0  0  0  0  0  0  0  0  0  0  0  0
   25.5598  -20.5530  -10.4653 C   0  0  2  0  0  0  0  0  0  0  0  0
   24.4591  -20.8060   -9.4409 C   0  0  0  0  0  0  0  0  0  0  0  0
   25.1150  -20.9868  -11.8240 C   0  0  2  0  0  0  0  0  0  0  0  0
   26.1378  -20.4356  -12.7423 N   0  0  0  0  0  0  0  0  0  0  0  0
   23.8086  -20.4685  -12.2666 C   0  0  0  0  0  0  0  0  0  0  0  0
   23.6202  -19.2014  -12.3217 O   0  0  0  0  0  0  0  0  0  0  0  0
   22.7023  -21.2611  -12.6510 N   0  0  0  0  0  0  0  0  0  0  0  0
   21.4365  -20.6439  -13.0777 C   0  0  1  0  0  0  0  0  0  0  0  0
   20.6809  -21.6441  -13.9006 C   0  0  0  0  0  0  0  0  0  0  0  0
   19.3611  -21.1516  -14.3845 C   0  0  0  0  0  0  0  0  0  0  0  0
   18.5953  -22.1568  -15.2171 C   0  0  0  0  0  0  0  0  0  0  0  0
   17.3096  -21.5255  -15.7655 C   0  0  0  0  0  0  0  0  0  0  0  0
   16.5709  -22.5845  -16.4257 N   0  0  0  0  0  0  0  0  0  0  0  0
   20.7003  -20.2430  -11.8811 C   0  0  0  0  0  0  0  0  0  0  0  0
   20.7337  -20.9268  -10.7955 O   0  0  0  0  0  0  0  0  0  0  0  0
   19.9309  -19.1070  -11.8491 O   0  0  0  0  0  0  0  0  0  0  0  0
  2  1  1  6
  3  2  1  0
  4  3  1  0
  5  4  1  0
  5  6  2  0
  7  2  1  0
  7  8  2  0
  9  5  1  0
 10 11  1  0
 12 11  1  0
 12 14  1  0
 12 13  1  1
 14 15  1  6
 15  7  1  0
 16 14  1  0
 17 16  2  0
 18 16  1  0
 19 25  1  0
 19 18  1  0
 19 20  1  1
 21 20  1  0
 22 21  1  0
 23 24  1  0
 23 22  1  0
 25 27  1  0
 26 25  2  0
M  END
$$$$
