EIK.pdb
     RDKit          3D

 27 26  0  0  1  0  0  0  0  0999 V2000
   25.2402  -20.5129  -14.4312 N   0  0  0  0  0  0  0  0  0  0  0  0
   24.0423  -20.2046  -13.6895 C   0  0  1  0  0  0  0  0  0  0  0  0
   22.8231  -20.1993  -14.5743 C   0  0  0  0  0  0  0  0  0  0  0  0
   22.9490  -19.1760  -15.6639 C   0  0  0  0  0  0  0  0  0  0  0  0
   21.6846  -18.3977  -15.7333 C   0  0  0  0  0  0  0  0  0  0  0  0
   20.6879  -18.8123  -16.3860 O   0  0  0  0  0  0  0  0  0  0  0  0
   23.8465  -21.0474  -12.5035 C   0  0  0  0  0  0  0  0  0  0  0  0
   23.8695  -22.3109  -12.5306 O   0  0  0  0  0  0  0  0  0  0  0  0
   21.5526  -17.1612  -15.0706 O   0  0  0  0  0  0  0  0  0  0  0  0
   26.0999  -19.3347   -8.0336 C   0  0  0  0  0  0  0  0  0  0  0  0
   25.6383  -20.2767   -9.1575 C   0  0  0  0  0  0  0  0  0  0  0  0
   24.1789  -20.4663   -8.9750 C   0  0  2  0  0  0  0  0  0  0  0  0
   23.9335  -21.0871   -7.6042 C   0  0  0  0  0  0  0  0  0  0  0  0
   23.4502  -21.2324  -10.0305 C   0  0  2  0  0  0  0  0  0  0  0  0
   23.6212  -20.4243  -11.2598 N   0  0  0  0  0  0  0  0  0  0  0  0
   22.0017  -21.3985   -9.8172 C   0  0  0  0  0  0  0  0  0  0  0  0
   21.2399  -20.3674   -9.8409 O   0  0  0  0  0  0  0  0  0  0  0  0
   21.3459  -22.6289   -9.5808 N   0  0  0  0  0  0  0  0  0  0  0  0
   19.8871  -22.6903   -9.3984 C   0  0  1  0  0  0  0  0  0  0  0  0
   19.3476  -23.7680  -10.2905 C   0  0  0  0  0  0  0  0  0  0  0  0
   17.8795  -23.9810  -10.1574 C   0  0  0  0  0  0  0  0  0  0  0  0
   17.3319  -25.0754  -11.0478 C   0  0  0  0  0  0  0  0  0  0  0  0
   15.8040  -25.1416  -10.9326 C   0  0  0  0  0  0  0  0  0  0  0  0
   15.3536  -26.1324  -11.8910 N   0  0  0  0  0  0  0  0  0  0  0  0
   19.6163  -22.9535   -7.9871 C   0  0  0  0  0  0  0  0  0  0  0  0
   20.5192  -23.3906   -7.1865 O   0  0  0  0  0  0  0  0  0  0  0  0
   18.3774  -22.7448   -7.4346 O   0  0  0  0  0  0  0  0  0  0  0  0
  2  1  1  6
  3  2  1  0
  4  3  1  0
  5  4  1  0
  5  6  2  0
  7  2  1  0
  7  8  2  0
  9  5  1  0
 10 11  1  0
 12 11  1  0
 12 14  1  0
 12 13  1  1
 14 15  1  6
 15  7  1  0
 16 14  1  0
 17 16  2  0
 18 16  1  0
 19 25  1  0
 19 18  1  0
 19 20  1  6
 21 20  1  0
 22 21  1  0
 23 24  1  0
 23 22  1  0
 25 27  1  0
 26 25  2  0
M  END
$$$$
