EIK.pdb
     RDKit          3D

 27 26  0  0  1  0  0  0  0  0999 V2000
   26.5124  -20.4461  -19.0986 N   0  0  0  0  0  0  0  0  0  0  0  0
   27.0786  -21.5922  -18.4307 C   0  0  1  0  0  0  0  0  0  0  0  0
   28.5660  -21.6879  -18.6494 C   0  0  0  0  0  0  0  0  0  0  0  0
   28.9587  -21.0942  -19.9699 C   0  0  0  0  0  0  0  0  0  0  0  0
   30.3814  -20.6703  -19.8961 C   0  0  0  0  0  0  0  0  0  0  0  0
   30.7617  -19.5515  -20.3377 O   0  0  0  0  0  0  0  0  0  0  0  0
   26.7346  -21.6774  -17.0060 C   0  0  0  0  0  0  0  0  0  0  0  0
   27.0996  -22.6247  -16.2529 O   0  0  0  0  0  0  0  0  0  0  0  0
   31.3628  -21.5073  -19.3290 O   0  0  0  0  0  0  0  0  0  0  0  0
   27.8676  -17.8654  -15.6111 C   0  0  0  0  0  0  0  0  0  0  0  0
   27.6902  -19.0590  -14.6585 C   0  0  0  0  0  0  0  0  0  0  0  0
   26.2301  -19.2877  -14.5376 C   0  0  2  0  0  0  0  0  0  0  0  0
   25.8061  -18.9971  -13.1021 C   0  0  0  0  0  0  0  0  0  0  0  0
   25.7060  -20.6165  -14.9754 C   0  0  2  0  0  0  0  0  0  0  0  0
   25.9562  -20.6511  -16.4348 N   0  0  0  0  0  0  0  0  0  0  0  0
   24.2623  -20.8334  -14.7764 C   0  0  0  0  0  0  0  0  0  0  0  0
   23.4242  -20.0335  -15.3258 O   0  0  0  0  0  0  0  0  0  0  0  0
   23.6900  -21.8760  -14.0113 N   0  0  0  0  0  0  0  0  0  0  0  0
   22.2353  -21.9577  -13.8053 C   0  0  1  0  0  0  0  0  0  0  0  0
   21.8911  -23.3720  -13.4452 C   0  0  0  0  0  0  0  0  0  0  0  0
   20.4512  -23.5785  -13.1250 C   0  0  0  0  0  0  0  0  0  0  0  0
   20.1293  -24.9587  -12.5945 C   0  0  0  0  0  0  0  0  0  0  0  0
   18.6592  -25.0346  -12.1639 C   0  0  0  0  0  0  0  0  0  0  0  0
   18.4273  -26.3890  -11.7002 N   0  0  0  0  0  0  0  0  0  0  0  0
   21.8720  -21.0143  -12.7505 C   0  0  0  0  0  0  0  0  0  0  0  0
   22.6960  -20.6652  -11.8305 O   0  0  0  0  0  0  0  0  0  0  0  0
   20.6255  -20.4438  -12.6849 O   0  0  0  0  0  0  0  0  0  0  0  0
  2  1  1  1
  3  2  1  0
  4  3  1  0
  5  4  1  0
  5  6  2  0
  7  2  1  0
  7  8  2  0
  9  5  1  0
 10 11  1  0
 12 11  1  0
 12 14  1  0
 12 13  1  1
 14 15  1  6
 15  7  1  0
 16 14  1  0
 17 16  2  0
 18 16  1  0
 19 25  1  0
 19 18  1  0
 19 20  1  1
 21 20  1  0
 22 21  1  0
 23 24  1  0
 23 22  1  0
 25 27  1  0
 26 25  2  0
M  END
$$$$
