EIK.pdb
     RDKit          3D

 27 26  0  0  1  0  0  0  0  0999 V2000
   26.0158  -21.0266  -13.2385 N   0  0  0  0  0  0  0  0  0  0  0  0
   24.9597  -20.4888  -12.4166 C   0  0  1  0  0  0  0  0  0  0  0  0
   23.6518  -20.4212  -13.1611 C   0  0  0  0  0  0  0  0  0  0  0  0
   23.8680  -20.0822  -14.6062 C   0  0  0  0  0  0  0  0  0  0  0  0
   23.3803  -18.6991  -14.8480 C   0  0  0  0  0  0  0  0  0  0  0  0
   24.1372  -17.8026  -15.3113 O   0  0  0  0  0  0  0  0  0  0  0  0
   24.8115  -21.1674  -11.1232 C   0  0  0  0  0  0  0  0  0  0  0  0
   24.7326  -22.4225  -10.9958 O   0  0  0  0  0  0  0  0  0  0  0  0
   22.0484  -18.3361  -14.5654 O   0  0  0  0  0  0  0  0  0  0  0  0
   27.3568  -18.9614   -6.9661 C   0  0  0  0  0  0  0  0  0  0  0  0
   26.8400  -20.0377   -7.9346 C   0  0  0  0  0  0  0  0  0  0  0  0
   25.3810  -20.1530   -7.6962 C   0  0  2  0  0  0  0  0  0  0  0  0
   25.1534  -20.5797   -6.2502 C   0  0  0  0  0  0  0  0  0  0  0  0
   24.6018  -21.0265   -8.6246 C   0  0  2  0  0  0  0  0  0  0  0  0
   24.7548  -20.3867   -9.9515 N   0  0  0  0  0  0  0  0  0  0  0  0
   23.1569  -21.1233   -8.3524 C   0  0  0  0  0  0  0  0  0  0  0  0
   22.4007  -20.1186   -8.6032 O   0  0  0  0  0  0  0  0  0  0  0  0
   22.4989  -22.2575   -7.8229 N   0  0  0  0  0  0  0  0  0  0  0  0
   21.0430  -22.2612   -7.6096 C   0  0  1  0  0  0  0  0  0  0  0  0
   20.4468  -23.3419   -8.4612 C   0  0  0  0  0  0  0  0  0  0  0  0
   18.9775  -23.5081   -8.2819 C   0  0  0  0  0  0  0  0  0  0  0  0
   18.3808  -24.6365   -9.0947 C   0  0  0  0  0  0  0  0  0  0  0  0
   16.8612  -24.6922   -8.8940 C   0  0  0  0  0  0  0  0  0  0  0  0
   16.3614  -25.7393   -9.7641 N   0  0  0  0  0  0  0  0  0  0  0  0
   20.7928  -22.4773   -6.1865 C   0  0  0  0  0  0  0  0  0  0  0  0
   19.6548  -22.2314   -5.6463 O   0  0  0  0  0  0  0  0  0  0  0  0
   21.7630  -22.9598   -5.3441 O   0  0  0  0  0  0  0  0  0  0  0  0
  2  1  1  6
  3  2  1  0
  4  3  1  0
  5  4  1  0
  5  6  2  0
  7  2  1  0
  7  8  2  0
  9  5  1  0
 10 11  1  0
 12 11  1  0
 12 14  1  0
 12 13  1  1
 14 15  1  6
 15  7  1  0
 16 14  1  0
 17 16  2  0
 18 16  1  0
 19 25  1  0
 19 18  1  0
 19 20  1  6
 21 20  1  0
 22 21  1  0
 23 24  1  0
 23 22  1  0
 25 27  1  0
 26 25  2  0
M  END
$$$$
