MNC.pdb
     RDKit          3D

 23 22  0  0  1  0  0  0  0  0999 V2000
    8.3948  -11.6620   21.3751 C   0  0  0  0  0  0  0  0  0  0  0  0
    7.5676  -12.4621   19.9935 S   0  0  0  0  0  0  0  0  0  0  0  0
    7.2563  -14.1981   20.3949 C   0  0  0  0  0  0  0  0  0  0  0  0
    8.5287  -15.0150   20.3013 C   0  0  0  0  0  0  0  0  0  0  0  0
    8.2221  -16.4470   20.7161 C   0  0  2  0  0  0  0  0  0  0  0  0
    6.8128  -16.7177   20.4847 N   0  0  0  0  0  0  0  0  0  0  0  0
    8.5278  -16.5486   22.1537 C   0  0  0  0  0  0  0  0  0  0  0  0
    7.6228  -16.3925   22.9977 O   0  0  0  0  0  0  0  0  0  0  0  0
   11.4843  -19.9519   22.5222 N   0  0  0  0  0  0  0  0  0  0  0  0
   10.7903  -19.3431   23.5859 C   0  0  0  0  0  0  0  0  0  0  0  0
    9.7735  -19.8848   24.0956 O   0  0  0  0  0  0  0  0  0  0  0  0
   11.2541  -18.0443   24.1230 C   0  0  0  0  0  0  0  0  0  0  0  0
   10.0994  -17.0666   23.9763 C   0  0  2  0  0  0  0  0  0  0  0  0
    9.8398  -16.8212   22.5813 N   0  0  0  0  0  0  0  0  0  0  0  0
   10.4378  -15.8025   24.6739 C   0  0  0  0  0  0  0  0  0  0  0  0
   11.3502  -15.0567   24.2538 O   0  0  0  0  0  0  0  0  0  0  0  0
    9.7242  -15.4157   25.8401 N   0  0  0  0  0  0  0  0  0  0  0  0
   10.2317  -14.3654   26.6831 C   0  0  1  0  0  0  0  0  0  0  0  0
    9.2955  -13.1475   26.6601 C   0  0  0  0  0  0  0  0  0  0  0  0
    7.6209  -13.8059   26.9428 S   0  0  0  0  0  0  0  0  0  0  0  0
   10.3028  -14.7865   28.1071 C   0  0  0  0  0  0  0  0  0  0  0  0
    9.8993  -15.8919   28.4914 O   0  0  0  0  0  0  0  0  0  0  0  0
   10.8456  -13.8879   29.0139 O   0  0  0  0  0  0  0  0  0  0  0  0
  2  1  1  0
  3  2  1  0
  4  3  1  0
  5  7  1  0
  5  4  1  0
  5  6  1  1
  7  8  2  0
 10  9  1  0
 11 10  2  0
 12 10  1  0
 13 12  1  6
 13 15  1  0
 14 13  1  0
 14  7  1  0
 15 16  2  0
 15 17  1  0
 17 18  1  0
 18 21  1  0
 18 19  1  1
 20 19  1  0
 21 22  2  0
 21 23  1  0
M  END
$$$$
