MNC.pdb
     RDKit          3D

 23 22  0  0  1  0  0  0  0  0999 V2000
    8.4670  -11.5903   20.5647 C   0  0  0  0  0  0  0  0  0  0  0  0
    7.8161  -12.4680   19.1367 S   0  0  0  0  0  0  0  0  0  0  0  0
    8.0508  -14.2478   19.3590 C   0  0  0  0  0  0  0  0  0  0  0  0
    7.9001  -14.6390   20.8148 C   0  0  0  0  0  0  0  0  0  0  0  0
    8.1412  -16.1359   20.9464 C   0  0  2  0  0  0  0  0  0  0  0  0
    7.0416  -16.8516   20.3204 N   0  0  0  0  0  0  0  0  0  0  0  0
    8.1845  -16.4352   22.3883 C   0  0  0  0  0  0  0  0  0  0  0  0
    7.1266  -16.6436   23.0154 O   0  0  0  0  0  0  0  0  0  0  0  0
   11.5782  -18.7310   26.8095 N   0  0  0  0  0  0  0  0  0  0  0  0
   10.4366  -18.2293   26.1549 C   0  0  0  0  0  0  0  0  0  0  0  0
    9.3529  -18.0580   26.7740 O   0  0  0  0  0  0  0  0  0  0  0  0
   10.4988  -17.8933   24.7149 C   0  0  0  0  0  0  0  0  0  0  0  0
    9.4495  -16.8223   24.4643 C   0  0  2  0  0  0  0  0  0  0  0  0
    9.4169  -16.4867   23.0643 N   0  0  0  0  0  0  0  0  0  0  0  0
    9.7683  -15.6255   25.2800 C   0  0  0  0  0  0  0  0  0  0  0  0
   10.8638  -15.0336   25.1585 O   0  0  0  0  0  0  0  0  0  0  0  0
    8.8258  -15.1284   26.2199 N   0  0  0  0  0  0  0  0  0  0  0  0
    9.1836  -14.0472   27.0998 C   0  0  1  0  0  0  0  0  0  0  0  0
    7.9319  -13.2925   27.5731 C   0  0  0  0  0  0  0  0  0  0  0  0
    7.0691  -12.7669   26.0576 S   0  0  0  0  0  0  0  0  0  0  0  0
    9.8444  -14.5386   28.3375 C   0  0  0  0  0  0  0  0  0  0  0  0
    9.9590  -15.7445   28.5927 O   0  0  0  0  0  0  0  0  0  0  0  0
   10.3405  -13.5887   29.2185 O   0  0  0  0  0  0  0  0  0  0  0  0
  2  1  1  0
  3  2  1  0
  4  3  1  0
  5  7  1  0
  5  4  1  0
  5  6  1  6
  7  8  2  0
 10  9  1  0
 11 10  2  0
 12 10  1  0
 13 12  1  6
 13 15  1  0
 14 13  1  0
 14  7  1  0
 15 16  2  0
 15 17  1  0
 17 18  1  0
 18 21  1  0
 18 19  1  1
 20 19  1  0
 21 22  2  0
 21 23  1  0
M  END
$$$$
