MNC.pdb
     RDKit          3D

 23 22  0  0  1  0  0  0  0  0999 V2000
    7.8678  -12.3569   20.8732 C   0  0  0  0  0  0  0  0  0  0  0  0
    7.3024  -12.3878   19.1665 S   0  0  0  0  0  0  0  0  0  0  0  0
    8.4837  -13.3083   18.1521 C   0  0  0  0  0  0  0  0  0  0  0  0
    9.4853  -14.0458   19.0170 C   0  0  0  0  0  0  0  0  0  0  0  0
   10.4315  -14.8243   18.1143 C   0  0  2  0  0  0  0  0  0  0  0  0
    9.6697  -15.8086   17.3631 N   0  0  0  0  0  0  0  0  0  0  0  0
   11.4013  -15.4988   18.9945 C   0  0  0  0  0  0  0  0  0  0  0  0
   11.1502  -16.6333   19.4480 O   0  0  0  0  0  0  0  0  0  0  0  0
   15.7294  -13.8132   17.8970 N   0  0  0  0  0  0  0  0  0  0  0  0
   15.2979  -14.9736   18.5685 C   0  0  0  0  0  0  0  0  0  0  0  0
   15.2086  -16.0782   17.9693 O   0  0  0  0  0  0  0  0  0  0  0  0
   14.9406  -14.9070   20.0032 C   0  0  0  0  0  0  0  0  0  0  0  0
   13.5742  -15.5569   20.1499 C   0  0  2  0  0  0  0  0  0  0  0  0
   12.6134  -14.8678   19.3279 N   0  0  0  0  0  0  0  0  0  0  0  0
   13.1649  -15.5175   21.5747 C   0  0  0  0  0  0  0  0  0  0  0  0
   13.9053  -15.0101   22.4462 O   0  0  0  0  0  0  0  0  0  0  0  0
   11.9142  -16.0601   21.9751 N   0  0  0  0  0  0  0  0  0  0  0  0
   11.5890  -16.1728   23.3725 C   0  0  1  0  0  0  0  0  0  0  0  0
   10.0710  -16.3016   23.5704 C   0  0  0  0  0  0  0  0  0  0  0  0
    9.3465  -14.8074   22.8222 S   0  0  0  0  0  0  0  0  0  0  0  0
   12.1752  -17.3972   23.9785 C   0  0  0  0  0  0  0  0  0  0  0  0
   12.7261  -18.2733   23.2993 O   0  0  0  0  0  0  0  0  0  0  0  0
   12.0867  -17.5349   25.3560 O   0  0  0  0  0  0  0  0  0  0  0  0
  2  1  1  0
  3  2  1  0
  4  3  1  0
  5  7  1  0
  5  4  1  0
  5  6  1  1
  7  8  2  0
 10  9  1  0
 11 10  2  0
 12 10  1  0
 13 12  1  1
 13 15  1  0
 14 13  1  0
 14  7  1  0
 15 16  2  0
 15 17  1  0
 17 18  1  0
 18 21  1  0
 18 19  1  6
 20 19  1  0
 21 22  2  0
 21 23  1  0
M  END
$$$$
