MNC.pdb
     RDKit          3D

 23 22  0  0  1  0  0  0  0  0999 V2000
    7.1822  -11.2432   25.8278 C   0  0  0  0  0  0  0  0  0  0  0  0
    5.7408  -12.2444   26.2192 S   0  0  0  0  0  0  0  0  0  0  0  0
    5.7564  -13.7496   25.2161 C   0  0  0  0  0  0  0  0  0  0  0  0
    7.0559  -14.5080   25.3930 C   0  0  0  0  0  0  0  0  0  0  0  0
    7.0544  -15.7063   24.4545 C   0  0  2  0  0  0  0  0  0  0  0  0
    6.0270  -16.6424   24.8803 N   0  0  0  0  0  0  0  0  0  0  0  0
    8.3842  -16.3315   24.5602 C   0  0  0  0  0  0  0  0  0  0  0  0
    8.5518  -17.3232   25.2978 O   0  0  0  0  0  0  0  0  0  0  0  0
   10.6221  -15.6499   20.3958 N   0  0  0  0  0  0  0  0  0  0  0  0
   10.9246  -16.5448   21.4404 C   0  0  0  0  0  0  0  0  0  0  0  0
   10.6440  -17.7697   21.3511 O   0  0  0  0  0  0  0  0  0  0  0  0
   11.5839  -16.0496   22.6695 C   0  0  0  0  0  0  0  0  0  0  0  0
   10.7327  -16.5062   23.8433 C   0  0  2  0  0  0  0  0  0  0  0  0
    9.4701  -15.8138   23.8312 N   0  0  0  0  0  0  0  0  0  0  0  0
   11.4609  -16.2406   25.1075 C   0  0  0  0  0  0  0  0  0  0  0  0
   12.1892  -15.2312   25.2341 O   0  0  0  0  0  0  0  0  0  0  0  0
   11.3412  -17.1362   26.2040 N   0  0  0  0  0  0  0  0  0  0  0  0
   11.4578  -16.6477   27.5527 C   0  0  1  0  0  0  0  0  0  0  0  0
   10.3246  -15.6618   27.8754 C   0  0  0  0  0  0  0  0  0  0  0  0
   11.1203  -14.2479   28.7030 S   0  0  0  0  0  0  0  0  0  0  0  0
   11.3289  -17.7431   28.5495 C   0  0  0  0  0  0  0  0  0  0  0  0
   10.6408  -18.7507   28.3405 O   0  0  0  0  0  0  0  0  0  0  0  0
   12.0157  -17.6032   29.7466 O   0  0  0  0  0  0  0  0  0  0  0  0
  2  1  1  0
  3  2  1  0
  4  3  1  0
  5  7  1  0
  5  4  1  0
  5  6  1  1
  7  8  2  0
 10  9  1  0
 11 10  2  0
 12 10  1  0
 13 12  1  6
 13 15  1  0
 14 13  1  0
 14  7  1  0
 15 16  2  0
 15 17  1  0
 17 18  1  0
 18 21  1  0
 18 19  1  1
 20 19  1  0
 21 22  2  0
 21 23  1  0
M  END
$$$$
