MNC.pdb
     RDKit          3D

 23 22  0  0  1  0  0  0  0  0999 V2000
    7.4634  -11.1022   26.6140 C   0  0  0  0  0  0  0  0  0  0  0  0
    5.9609  -11.9379   26.0873 S   0  0  0  0  0  0  0  0  0  0  0  0
    5.7649  -13.4776   27.0162 C   0  0  0  0  0  0  0  0  0  0  0  0
    6.7847  -14.5097   26.5805 C   0  0  0  0  0  0  0  0  0  0  0  0
    6.3255  -15.1270   25.2673 C   0  0  2  0  0  0  0  0  0  0  0  0
    5.2649  -16.0838   25.5369 N   0  0  0  0  0  0  0  0  0  0  0  0
    7.4929  -15.8147   24.6888 C   0  0  0  0  0  0  0  0  0  0  0  0
    7.8332  -16.9359   25.1165 O   0  0  0  0  0  0  0  0  0  0  0  0
    7.8989  -14.1339   20.4916 N   0  0  0  0  0  0  0  0  0  0  0  0
    8.4438  -15.3431   20.9654 C   0  0  0  0  0  0  0  0  0  0  0  0
    7.8745  -16.4451   20.7452 O   0  0  0  0  0  0  0  0  0  0  0  0
    9.7071  -15.3319   21.7364 C   0  0  0  0  0  0  0  0  0  0  0  0
    9.3874  -15.8788   23.1182 C   0  0  2  0  0  0  0  0  0  0  0  0
    8.2289  -15.2113   23.6531 N   0  0  0  0  0  0  0  0  0  0  0  0
   10.5591  -15.6805   24.0053 C   0  0  0  0  0  0  0  0  0  0  0  0
   11.6337  -15.2169   23.5629 O   0  0  0  0  0  0  0  0  0  0  0  0
   10.4783  -16.0168   25.3835 N   0  0  0  0  0  0  0  0  0  0  0  0
   11.6475  -15.9319   26.2182 C   0  0  1  0  0  0  0  0  0  0  0  0
   11.5194  -14.7741   27.2199 C   0  0  0  0  0  0  0  0  0  0  0  0
    9.8467  -14.9150   27.9268 S   0  0  0  0  0  0  0  0  0  0  0  0
   11.8261  -17.1552   27.0439 C   0  0  0  0  0  0  0  0  0  0  0  0
   10.9891  -18.0670   27.0660 O   0  0  0  0  0  0  0  0  0  0  0  0
   12.9815  -17.2500   27.8058 O   0  0  0  0  0  0  0  0  0  0  0  0
  2  1  1  0
  3  2  1  0
  4  3  1  0
  5  7  1  0
  5  4  1  0
  5  6  1  1
  7  8  2  0
 10  9  1  0
 11 10  2  0
 12 10  1  0
 13 12  1  6
 13 15  1  0
 14 13  1  0
 14  7  1  0
 15 16  2  0
 15 17  1  0
 17 18  1  0
 18 21  1  0
 18 19  1  1
 20 19  1  0
 21 22  2  0
 21 23  1  0
M  END
$$$$
