MNC.pdb
     RDKit          3D

 23 22  0  0  1  0  0  0  0  0999 V2000
    7.3958  -11.3086   26.6748 C   0  0  0  0  0  0  0  0  0  0  0  0
    6.6800  -11.6336   25.0576 S   0  0  0  0  0  0  0  0  0  0  0  0
    5.9113  -13.2710   25.0517 C   0  0  0  0  0  0  0  0  0  0  0  0
    6.9127  -14.3437   25.4282 C   0  0  0  0  0  0  0  0  0  0  0  0
    7.6411  -14.7957   24.1706 C   0  0  2  0  0  0  0  0  0  0  0  0
    6.6899  -15.4280   23.2714 N   0  0  0  0  0  0  0  0  0  0  0  0
    8.6606  -15.7705   24.5961 C   0  0  0  0  0  0  0  0  0  0  0  0
    8.4361  -16.5288   25.5607 O   0  0  0  0  0  0  0  0  0  0  0  0
   10.7279  -18.1274   21.7396 N   0  0  0  0  0  0  0  0  0  0  0  0
   11.4508  -16.9604   22.0543 C   0  0  0  0  0  0  0  0  0  0  0  0
   11.5953  -16.0358   21.2109 O   0  0  0  0  0  0  0  0  0  0  0  0
   12.0557  -16.8057   23.3962 C   0  0  0  0  0  0  0  0  0  0  0  0
   10.9105  -16.7487   24.3943 C   0  0  2  0  0  0  0  0  0  0  0  0
    9.8904  -15.8506   23.9183 N   0  0  0  0  0  0  0  0  0  0  0  0
   11.4296  -16.2985   25.7085 C   0  0  0  0  0  0  0  0  0  0  0  0
   12.3121  -15.4152   25.7866 O   0  0  0  0  0  0  0  0  0  0  0  0
   10.9278  -16.8685   26.9094 N   0  0  0  0  0  0  0  0  0  0  0  0
   11.5598  -16.5745   28.1685 C   0  0  1  0  0  0  0  0  0  0  0  0
   10.6154  -15.7749   29.0790 C   0  0  0  0  0  0  0  0  0  0  0  0
   10.1500  -14.2926   28.1285 S   0  0  0  0  0  0  0  0  0  0  0  0
   11.8879  -17.8124   28.9235 C   0  0  0  0  0  0  0  0  0  0  0  0
   11.6133  -18.9411   28.4957 O   0  0  0  0  0  0  0  0  0  0  0  0
   12.5244  -17.6658   30.1473 O   0  0  0  0  0  0  0  0  0  0  0  0
  2  1  1  0
  3  2  1  0
  4  3  1  0
  5  7  1  0
  5  4  1  0
  5  6  1  6
  7  8  2  0
 10  9  1  0
 11 10  2  0
 12 10  1  0
 13 12  1  6
 13 15  1  0
 14 13  1  0
 14  7  1  0
 15 16  2  0
 15 17  1  0
 17 18  1  0
 18 21  1  0
 18 19  1  1
 20 19  1  0
 21 22  2  0
 21 23  1  0
M  END
$$$$
