RNY.pdb
     RDKit          3D

 32 32  0  0  1  0  0  0  0  0999 V2000
    8.7259  -12.3679   19.1570 N   0  0  0  0  0  0  0  0  0  0  0  0
    8.7292  -13.6092   18.4786 C   0  0  0  0  0  0  0  0  0  0  0  0
    8.5418  -13.6832   17.1892 N   0  0  0  0  0  0  0  0  0  0  0  0
    8.9439  -14.7989   19.2155 N   0  0  0  0  0  0  0  0  0  0  0  0
    7.9181  -15.4949   19.9351 C   0  0  0  0  0  0  0  0  0  0  0  0
    7.3021  -14.6470   20.9867 C   0  0  0  0  0  0  0  0  0  0  0  0
    6.2976  -15.3587   21.8126 C   0  0  0  0  0  0  0  0  0  0  0  0
    6.6479  -16.8537   21.9238 C   0  0  2  0  0  0  0  0  0  0  0  0
    5.6594  -17.6981   21.3162 N   0  0  0  0  0  0  0  0  0  0  0  0
    6.7458  -17.1432   23.3683 C   0  0  0  0  0  0  0  0  0  0  0  0
    5.7217  -16.9798   24.1146 O   0  0  0  0  0  0  0  0  0  0  0  0
    8.5656  -14.5841   16.6750 N   0  0  0  0  0  0  0  0  0  0  0  0
    6.7935  -19.5784   27.3136 C   0  0  0  0  0  0  0  0  0  0  0  0
    7.7046  -20.1901   26.4229 O   0  0  0  0  0  0  0  0  0  0  0  0
    7.8965  -21.4260   26.5164 C   0  0  0  0  0  0  0  0  0  0  0  0
    8.4174  -19.4041   25.4041 C   0  0  2  0  0  0  0  0  0  0  0  0
    7.9890  -17.9278   25.3669 N   0  0  0  0  0  0  0  0  0  0  0  0
    7.9617  -17.5993   23.9223 C   0  0  0  0  0  0  0  0  0  0  0  0
    9.0312  -17.1257   26.0119 O   0  0  0  0  0  0  0  0  0  0  0  0
   10.1570  -17.0347   25.4225 O   0  0  0  0  0  0  0  0  0  0  0  0
    5.6693  -12.0345   24.8516 C   0  0  0  0  0  0  0  0  0  0  0  0
    6.6076  -12.5931   25.7132 C   0  0  0  0  0  0  0  0  0  0  0  0
    7.9128  -12.8157   25.3227 C   0  0  0  0  0  0  0  0  0  0  0  0
    8.8584  -13.3712   26.1724 C   0  0  0  0  0  0  0  0  0  0  0  0
    8.5174  -13.7309   27.4740 C   0  0  0  0  0  0  0  0  0  0  0  0
    9.5030  -14.3448   28.3890 C   0  0  2  0  0  0  0  0  0  0  0  0
   10.0420  -15.6017   27.7278 N   0  0  0  0  0  0  0  0  0  0  0  0
    8.9270  -16.4211   27.2404 C   0  0  0  0  0  0  0  0  0  0  0  0
   10.9252  -16.3451   28.6373 O   0  0  0  0  0  0  0  0  0  0  0  0
   10.6378  -17.5385   28.9970 C   0  0  0  0  0  0  0  0  0  0  0  0
    7.2163  -13.5083   27.8585 C   0  0  0  0  0  0  0  0  0  0  0  0
    6.2760  -12.9532   27.0076 O   0  0  0  0  0  0  0  0  0  0  0  0
  2  1  1  0
  3  2  2  0
  4  2  1  0
  5  4  1  0
  6  5  1  0
  7  6  1  0
  8 10  1  0
  8  9  1  1
  8  7  1  0
 10 11  2  0
 12 13  1  0
 13 14  2  0
 15 13  1  0
 16 15  1  6
 16 18  1  0
 17 16  1  0
 17 10  1  0
 18 19  2  0
 18 27  1  0
 20 21  1  0
 21 22  2  0
 21 31  1  0
 22 23  1  0
 23 24  2  0
 24 25  1  0
 26 25  1  6
 26 28  1  0
 27 26  1  0
 28 29  2  0
 28 32  1  0
 30 24  1  0
 31 30  2  0
M  END
$$$$
