RNY.pdb
     RDKit          3D

 32 32  0  0  1  0  0  0  0  0999 V2000
    9.6794  -13.0024   18.3207 N   0  0  0  0  0  0  0  0  0  0  0  0
    8.5623  -12.9184   19.1845 C   0  0  0  0  0  0  0  0  0  0  0  0
    8.6244  -12.2795   20.3207 N   0  0  0  0  0  0  0  0  0  0  0  0
    7.3476  -13.5395   18.8059 N   0  0  0  0  0  0  0  0  0  0  0  0
    6.9717  -14.8691   19.1875 C   0  0  0  0  0  0  0  0  0  0  0  0
    7.5804  -15.2706   20.4808 C   0  0  0  0  0  0  0  0  0  0  0  0
    6.5890  -15.6861   21.5017 C   0  0  0  0  0  0  0  0  0  0  0  0
    6.6623  -17.2049   21.7423 C   0  0  2  0  0  0  0  0  0  0  0  0
    5.5675  -17.9115   21.1412 N   0  0  0  0  0  0  0  0  0  0  0  0
    6.6423  -17.3871   23.2073 C   0  0  0  0  0  0  0  0  0  0  0  0
    5.5225  -17.4755   23.8161 O   0  0  0  0  0  0  0  0  0  0  0  0
    7.8063  -12.1881   20.9524 N   0  0  0  0  0  0  0  0  0  0  0  0
    6.7946  -21.0459   24.1805 C   0  0  0  0  0  0  0  0  0  0  0  0
    6.8315  -20.0855   25.2168 O   0  0  0  0  0  0  0  0  0  0  0  0
    5.8111  -19.9334   25.9299 C   0  0  0  0  0  0  0  0  0  0  0  0
    8.0355  -19.2769   25.4629 C   0  0  2  0  0  0  0  0  0  0  0  0
    7.7772  -17.7632   25.3812 N   0  0  0  0  0  0  0  0  0  0  0  0
    7.8516  -17.4652   23.9317 C   0  0  0  0  0  0  0  0  0  0  0  0
    8.8728  -17.0681   26.0610 O   0  0  0  0  0  0  0  0  0  0  0  0
   10.0327  -17.1397   25.5389 O   0  0  0  0  0  0  0  0  0  0  0  0
    5.6530  -11.7346   25.1273 C   0  0  0  0  0  0  0  0  0  0  0  0
    6.5930  -12.3658   25.9355 C   0  0  0  0  0  0  0  0  0  0  0  0
    6.2272  -13.0638   27.0689 C   0  0  0  0  0  0  0  0  0  0  0  0
    7.1545  -13.6983   27.8827 C   0  0  0  0  0  0  0  0  0  0  0  0
    8.5129  -13.6522   27.5790 C   0  0  0  0  0  0  0  0  0  0  0  0
    9.5201  -14.3023   28.4442 C   0  0  2  0  0  0  0  0  0  0  0  0
    9.9607  -15.5904   27.7702 N   0  0  0  0  0  0  0  0  0  0  0  0
    8.7875  -16.3057   27.2559 C   0  0  0  0  0  0  0  0  0  0  0  0
   10.7654  -16.4187   28.6790 O   0  0  0  0  0  0  0  0  0  0  0  0
   10.3683  -17.5843   29.0252 C   0  0  0  0  0  0  0  0  0  0  0  0
    8.8730  -12.9554   26.4498 C   0  0  0  0  0  0  0  0  0  0  0  0
    7.9444  -12.3242   25.6402 O   0  0  0  0  0  0  0  0  0  0  0  0
  2  1  1  0
  3  2  2  0
  4  2  1  0
  5  4  1  0
  6  5  1  0
  7  6  1  0
  8 10  1  0
  8  9  1  6
  8  7  1  0
 10 11  2  0
 12 13  1  0
 13 14  2  0
 15 13  1  0
 16 15  1  6
 16 18  1  0
 17 16  1  0
 17 10  1  0
 18 19  2  0
 18 27  1  0
 20 21  1  0
 21 22  2  0
 21 31  1  0
 22 23  1  0
 23 24  2  0
 24 25  1  0
 26 25  1  6
 26 28  1  0
 27 26  1  0
 28 29  2  0
 28 32  1  0
 30 24  1  0
 31 30  2  0
M  END
$$$$
