RNY.pdb
     RDKit          3D

 32 32  0  0  1  0  0  0  0  0999 V2000
    8.6763  -12.8033   17.7960 N   0  0  0  0  0  0  0  0  0  0  0  0
    8.4625  -12.6666   19.1877 C   0  0  0  0  0  0  0  0  0  0  0  0
    8.5917  -11.5154   19.7885 N   0  0  0  0  0  0  0  0  0  0  0  0
    8.0968  -13.8051   19.9458 N   0  0  0  0  0  0  0  0  0  0  0  0
    8.0816  -15.1427   19.4309 C   0  0  0  0  0  0  0  0  0  0  0  0
    6.9371  -15.9289   19.9564 C   0  0  0  0  0  0  0  0  0  0  0  0
    7.0528  -16.2586   21.3971 C   0  0  0  0  0  0  0  0  0  0  0  0
    8.5116  -16.5879   21.7626 C   0  0  2  0  0  0  0  0  0  0  0  0
    9.0365  -17.6847   21.0007 N   0  0  0  0  0  0  0  0  0  0  0  0
    8.5059  -16.9237   23.2003 C   0  0  0  0  0  0  0  0  0  0  0  0
    7.5250  -16.5530   23.9301 O   0  0  0  0  0  0  0  0  0  0  0  0
    8.5474  -11.4191   20.8207 N   0  0  0  0  0  0  0  0  0  0  0  0
    8.6638  -20.3956   23.8459 C   0  0  0  0  0  0  0  0  0  0  0  0
    9.8957  -20.4423   24.5369 O   0  0  0  0  0  0  0  0  0  0  0  0
   10.5692  -21.4993   24.4911 C   0  0  0  0  0  0  0  0  0  0  0  0
   10.3873  -19.2821   25.2961 C   0  0  2  0  0  0  0  0  0  0  0  0
    9.4698  -18.0529   25.1880 N   0  0  0  0  0  0  0  0  0  0  0  0
    9.5756  -17.6512   23.7658 C   0  0  0  0  0  0  0  0  0  0  0  0
   10.0257  -16.9841   26.0212 O   0  0  0  0  0  0  0  0  0  0  0  0
   11.1415  -16.4799   25.6693 O   0  0  0  0  0  0  0  0  0  0  0  0
    5.8660  -12.8240   24.1311 C   0  0  0  0  0  0  0  0  0  0  0  0
    6.6839  -13.1980   25.1923 C   0  0  0  0  0  0  0  0  0  0  0  0
    8.0155  -13.5126   25.0094 C   0  0  0  0  0  0  0  0  0  0  0  0
    8.8420  -13.8861   26.0591 C   0  0  0  0  0  0  0  0  0  0  0  0
    8.3477  -13.9584   27.3592 C   0  0  0  0  0  0  0  0  0  0  0  0
    9.2049  -14.3755   28.4892 C   0  0  2  0  0  0  0  0  0  0  0  0
   10.1758  -15.4278   27.9818 N   0  0  0  0  0  0  0  0  0  0  0  0
    9.4503  -16.4323   27.1963 C   0  0  0  0  0  0  0  0  0  0  0  0
   10.9375  -16.0266   29.0868 O   0  0  0  0  0  0  0  0  0  0  0  0
   10.8224  -17.2707   29.3612 C   0  0  0  0  0  0  0  0  0  0  0  0
    7.0209  -13.6450   27.5369 C   0  0  0  0  0  0  0  0  0  0  0  0
    6.1998  -13.2722   26.4866 O   0  0  0  0  0  0  0  0  0  0  0  0
  2  1  1  0
  3  2  2  0
  4  2  1  0
  5  4  1  0
  6  5  1  0
  7  6  1  0
  8 10  1  0
  8  9  1  6
  8  7  1  0
 10 11  2  0
 12 13  1  0
 13 14  2  0
 15 13  1  0
 16 15  1  6
 16 18  1  0
 17 16  1  0
 17 10  1  0
 18 19  2  0
 18 27  1  0
 20 21  1  0
 21 22  2  0
 21 31  1  0
 22 23  1  0
 23 24  2  0
 24 25  1  0
 26 25  1  6
 26 28  1  0
 27 26  1  0
 28 29  2  0
 28 32  1  0
 30 24  1  0
 31 30  2  0
M  END
$$$$
