RNY.pdb
     RDKit          3D

 32 32  0  0  1  0  0  0  0  0999 V2000
    9.7254  -13.7612   19.0059 N   0  0  0  0  0  0  0  0  0  0  0  0
    8.7389  -13.7419   17.9922 C   0  0  0  0  0  0  0  0  0  0  0  0
    8.3399  -12.6243   17.4492 N   0  0  0  0  0  0  0  0  0  0  0  0
    8.1735  -14.9639   17.5546 N   0  0  0  0  0  0  0  0  0  0  0  0
    7.6569  -15.9710   18.4340 C   0  0  0  0  0  0  0  0  0  0  0  0
    7.3783  -15.4362   19.7908 C   0  0  0  0  0  0  0  0  0  0  0  0
    6.8955  -16.4610   20.7470 C   0  0  0  0  0  0  0  0  0  0  0  0
    7.5562  -17.8222   20.4626 C   0  0  2  0  0  0  0  0  0  0  0  0
    6.6054  -18.8956   20.4083 N   0  0  0  0  0  0  0  0  0  0  0  0
    8.5154  -18.0475   21.5622 C   0  0  0  0  0  0  0  0  0  0  0  0
    8.1636  -18.7465   22.5721 O   0  0  0  0  0  0  0  0  0  0  0  0
    7.6256  -12.5959   16.6970 N   0  0  0  0  0  0  0  0  0  0  0  0
   13.3682  -19.4426   23.5611 C   0  0  0  0  0  0  0  0  0  0  0  0
   13.2229  -18.2693   22.7868 O   0  0  0  0  0  0  0  0  0  0  0  0
   14.0885  -17.3683   22.8952 C   0  0  0  0  0  0  0  0  0  0  0  0
   12.0853  -18.0982   21.8699 C   0  0  1  0  0  0  0  0  0  0  0  0
   10.7593  -17.8134   22.5944 N   0  0  0  0  0  0  0  0  0  0  0  0
    9.8137  -17.4964   21.4987 C   0  0  0  0  0  0  0  0  0  0  0  0
   10.9319  -16.6203   23.4264 O   0  0  0  0  0  0  0  0  0  0  0  0
   11.7818  -16.6779   24.3737 O   0  0  0  0  0  0  0  0  0  0  0  0
    5.6287  -11.5378   28.2025 C   0  0  0  0  0  0  0  0  0  0  0  0
    6.2216  -12.2610   27.1727 C   0  0  0  0  0  0  0  0  0  0  0  0
    5.8552  -13.5619   26.8918 C   0  0  0  0  0  0  0  0  0  0  0  0
    6.4380  -14.2936   25.8672 C   0  0  0  0  0  0  0  0  0  0  0  0
    7.4323  -13.7305   25.0710 C   0  0  0  0  0  0  0  0  0  0  0  0
    8.0824  -14.4992   23.9884 C   0  0  2  0  0  0  0  0  0  0  0  0
    9.5037  -14.8151   24.4216 N   0  0  0  0  0  0  0  0  0  0  0  0
   10.2503  -15.3817   23.2929 C   0  0  0  0  0  0  0  0  0  0  0  0
    9.5186  -15.6949   25.5987 O   0  0  0  0  0  0  0  0  0  0  0  0
   10.1138  -15.3387   26.6735 C   0  0  0  0  0  0  0  0  0  0  0  0
    7.7948  -12.4350   25.3546 C   0  0  0  0  0  0  0  0  0  0  0  0
    7.2103  -11.7082   26.3776 O   0  0  0  0  0  0  0  0  0  0  0  0
  2  1  1  0
  3  2  2  0
  4  2  1  0
  5  4  1  0
  6  5  1  0
  7  6  1  0
  8 10  1  0
  8  9  1  1
  8  7  1  0
 10 11  2  0
 12 13  1  0
 13 14  2  0
 15 13  1  0
 16 15  1  6
 16 18  1  0
 17 16  1  0
 17 10  1  0
 18 19  2  0
 18 27  1  0
 20 21  1  0
 21 22  2  0
 21 31  1  0
 22 23  1  0
 23 24  2  0
 24 25  1  0
 26 25  1  6
 26 28  1  0
 27 26  1  0
 28 29  2  0
 28 32  1  0
 30 24  1  0
 31 30  2  0
M  END
$$$$
