RNY.pdb
     RDKit          3D

 32 32  0  0  1  0  0  0  0  0999 V2000
    8.0154  -15.7969   14.3260 N   0  0  0  0  0  0  0  0  0  0  0  0
    7.8295  -14.3958   14.3851 C   0  0  0  0  0  0  0  0  0  0  0  0
    7.8018  -13.6646   13.3045 N   0  0  0  0  0  0  0  0  0  0  0  0
    7.6666  -13.7727   15.6459 N   0  0  0  0  0  0  0  0  0  0  0  0
    8.2740  -14.2394   16.8575 C   0  0  0  0  0  0  0  0  0  0  0  0
    7.9724  -13.3524   18.0093 C   0  0  0  0  0  0  0  0  0  0  0  0
    7.7882  -14.0794   19.2881 C   0  0  0  0  0  0  0  0  0  0  0  0
    9.0953  -14.0859   20.1015 C   0  0  2  0  0  0  0  0  0  0  0  0
   10.2315  -14.4737   19.3154 N   0  0  0  0  0  0  0  0  0  0  0  0
    8.8859  -15.0477   21.2020 C   0  0  0  0  0  0  0  0  0  0  0  0
    7.8661  -14.9239   21.9616 O   0  0  0  0  0  0  0  0  0  0  0  0
    7.7108  -12.6314   13.3348 N   0  0  0  0  0  0  0  0  0  0  0  0
   10.5223  -19.2776   19.8618 C   0  0  0  0  0  0  0  0  0  0  0  0
    9.7452  -18.9902   21.0067 O   0  0  0  0  0  0  0  0  0  0  0  0
    8.5414  -19.3417   21.0182 C   0  0  0  0  0  0  0  0  0  0  0  0
   10.3256  -18.2948   22.1659 C   0  0  2  0  0  0  0  0  0  0  0  0
    9.5629  -17.0165   22.5513 N   0  0  0  0  0  0  0  0  0  0  0  0
    9.8045  -16.0987   21.4136 C   0  0  0  0  0  0  0  0  0  0  0  0
   10.1826  -16.4505   23.7518 O   0  0  0  0  0  0  0  0  0  0  0  0
   11.4309  -16.1992   23.7105 O   0  0  0  0  0  0  0  0  0  0  0  0
    5.0036  -12.2268   26.3775 C   0  0  0  0  0  0  0  0  0  0  0  0
    6.3131  -12.6912   26.3097 C   0  0  0  0  0  0  0  0  0  0  0  0
    6.8556  -13.1705   25.1343 C   0  0  0  0  0  0  0  0  0  0  0  0
    8.1602  -13.6356   25.0531 C   0  0  0  0  0  0  0  0  0  0  0  0
    8.9839  -13.6353   26.1762 C   0  0  0  0  0  0  0  0  0  0  0  0
   10.3697  -14.1468   26.1176 C   0  0  1  0  0  0  0  0  0  0  0  0
   10.3135  -15.6648   26.1297 N   0  0  0  0  0  0  0  0  0  0  0  0
    9.5381  -16.1401   24.9785 C   0  0  0  0  0  0  0  0  0  0  0  0
    9.7846  -16.1680   27.4052 O   0  0  0  0  0  0  0  0  0  0  0  0
   10.3756  -15.9026   28.5081 C   0  0  0  0  0  0  0  0  0  0  0  0
    8.4394  -13.1579   27.3449 C   0  0  0  0  0  0  0  0  0  0  0  0
    7.1373  -12.6942   27.4214 O   0  0  0  0  0  0  0  0  0  0  0  0
  2  1  1  0
  3  2  2  0
  4  2  1  0
  5  4  1  0
  6  5  1  0
  7  6  1  0
  8 10  1  0
  8  9  1  6
  8  7  1  0
 10 11  2  0
 12 13  1  0
 13 14  2  0
 15 13  1  0
 16 15  1  6
 16 18  1  0
 17 16  1  0
 17 10  1  0
 18 19  2  0
 18 27  1  0
 20 21  1  0
 21 22  2  0
 21 31  1  0
 22 23  1  0
 23 24  2  0
 24 25  1  0
 26 25  1  6
 26 28  1  0
 27 26  1  0
 28 29  2  0
 28 32  1  0
 30 24  1  0
 31 30  2  0
M  END
$$$$
