RNY.pdb
     RDKit          3D

 32 32  0  0  1  0  0  0  0  0999 V2000
    8.1099  -13.7014   18.0050 N   0  0  0  0  0  0  0  0  0  0  0  0
    8.8414  -13.2337   19.1219 C   0  0  0  0  0  0  0  0  0  0  0  0
    9.6291  -12.1968   19.0366 N   0  0  0  0  0  0  0  0  0  0  0  0
    8.7133  -13.9047   20.3621 N   0  0  0  0  0  0  0  0  0  0  0  0
    7.8336  -15.0134   20.5890 C   0  0  0  0  0  0  0  0  0  0  0  0
    6.6508  -14.6290   21.3999 C   0  0  0  0  0  0  0  0  0  0  0  0
    5.6842  -15.7344   21.6037 C   0  0  0  0  0  0  0  0  0  0  0  0
    6.4230  -17.0604   21.8605 C   0  0  2  0  0  0  0  0  0  0  0  0
    5.7895  -18.1772   21.2197 N   0  0  0  0  0  0  0  0  0  0  0  0
    6.4259  -17.2486   23.3248 C   0  0  0  0  0  0  0  0  0  0  0  0
    5.3332  -17.1348   23.9770 O   0  0  0  0  0  0  0  0  0  0  0  0
   10.1245  -11.8060   19.8603 N   0  0  0  0  0  0  0  0  0  0  0  0
    6.9465  -19.3069   27.9566 C   0  0  0  0  0  0  0  0  0  0  0  0
    7.8555  -19.7804   26.9835 O   0  0  0  0  0  0  0  0  0  0  0  0
    8.7305  -20.6082   27.3328 C   0  0  0  0  0  0  0  0  0  0  0  0
    7.7856  -19.3196   25.5882 C   0  0  1  0  0  0  0  0  0  0  0  0
    7.5608  -17.8038   25.4601 N   0  0  0  0  0  0  0  0  0  0  0  0
    7.6270  -17.5543   24.0011 C   0  0  0  0  0  0  0  0  0  0  0  0
    8.6786  -17.1125   26.1066 O   0  0  0  0  0  0  0  0  0  0  0  0
    9.7958  -17.0936   25.4945 O   0  0  0  0  0  0  0  0  0  0  0  0
    5.0537  -12.1517   25.4559 C   0  0  0  0  0  0  0  0  0  0  0  0
    6.0933  -12.7030   26.1977 C   0  0  0  0  0  0  0  0  0  0  0  0
    5.8722  -13.3275   27.4087 C   0  0  0  0  0  0  0  0  0  0  0  0
    6.9000  -13.8820   28.1577 C   0  0  0  0  0  0  0  0  0  0  0  0
    8.2161  -13.8267   27.7054 C   0  0  0  0  0  0  0  0  0  0  0  0
    9.3293  -14.3912   28.4977 C   0  0  2  0  0  0  0  0  0  0  0  0
    9.8112  -15.6530   27.8024 N   0  0  0  0  0  0  0  0  0  0  0  0
    8.6582  -16.4447   27.3597 C   0  0  0  0  0  0  0  0  0  0  0  0
   10.7189  -16.4226   28.6646 O   0  0  0  0  0  0  0  0  0  0  0  0
   10.4048  -17.5977   29.0605 C   0  0  0  0  0  0  0  0  0  0  0  0
    8.4320  -13.2032   26.4993 C   0  0  0  0  0  0  0  0  0  0  0  0
    7.4035  -12.6517   25.7548 O   0  0  0  0  0  0  0  0  0  0  0  0
  2  1  1  0
  3  2  2  0
  4  2  1  0
  5  4  1  0
  6  5  1  0
  7  6  1  0
  8 10  1  0
  8  9  1  6
  8  7  1  0
 10 11  2  0
 12 13  1  0
 13 14  2  0
 15 13  1  0
 16 15  1  6
 16 18  1  0
 17 16  1  0
 17 10  1  0
 18 19  2  0
 18 27  1  0
 20 21  1  0
 21 22  2  0
 21 31  1  0
 22 23  1  0
 23 24  2  0
 24 25  1  0
 26 25  1  6
 26 28  1  0
 27 26  1  0
 28 29  2  0
 28 32  1  0
 30 24  1  0
 31 30  2  0
M  END
$$$$
