RNY.pdb
     RDKit          3D

 32 32  0  0  1  0  0  0  0  0999 V2000
    8.4498  -15.5870   16.3734 N   0  0  0  0  0  0  0  0  0  0  0  0
    8.5731  -14.2808   15.8443 C   0  0  0  0  0  0  0  0  0  0  0  0
    8.8673  -14.0775   14.5893 N   0  0  0  0  0  0  0  0  0  0  0  0
    8.3694  -13.1682   16.6959 N   0  0  0  0  0  0  0  0  0  0  0  0
    8.3445  -13.2452   18.1270 C   0  0  0  0  0  0  0  0  0  0  0  0
    7.2632  -14.1362   18.6181 C   0  0  0  0  0  0  0  0  0  0  0  0
    7.4113  -14.5233   20.0414 C   0  0  0  0  0  0  0  0  0  0  0  0
    8.8349  -15.0405   20.3175 C   0  0  2  0  0  0  0  0  0  0  0  0
    9.3313  -15.8773   19.2628 N   0  0  0  0  0  0  0  0  0  0  0  0
    8.7536  -15.8050   21.5779 C   0  0  0  0  0  0  0  0  0  0  0  0
    8.0389  -15.3610   22.5394 O   0  0  0  0  0  0  0  0  0  0  0  0
    9.0777  -13.1334   14.2138 N   0  0  0  0  0  0  0  0  0  0  0  0
    9.3186  -20.9799   24.2142 C   0  0  0  0  0  0  0  0  0  0  0  0
   10.2014  -19.9061   23.9589 O   0  0  0  0  0  0  0  0  0  0  0  0
   11.1137  -19.6701   24.7865 C   0  0  0  0  0  0  0  0  0  0  0  0
   10.0629  -19.0771   22.7516 C   0  0  1  0  0  0  0  0  0  0  0  0
    9.3578  -17.7360   23.0138 N   0  0  0  0  0  0  0  0  0  0  0  0
    9.4589  -17.0197   21.7207 C   0  0  0  0  0  0  0  0  0  0  0  0
   10.1235  -16.9982   24.0212 O   0  0  0  0  0  0  0  0  0  0  0  0
   11.3502  -16.7592   23.7736 O   0  0  0  0  0  0  0  0  0  0  0  0
    5.1959  -12.4145   26.3827 C   0  0  0  0  0  0  0  0  0  0  0  0
    6.5000  -12.8869   26.2777 C   0  0  0  0  0  0  0  0  0  0  0  0
    7.3874  -12.8153   27.3327 C   0  0  0  0  0  0  0  0  0  0  0  0
    8.6902  -13.2836   27.2413 C   0  0  0  0  0  0  0  0  0  0  0  0
    9.1573  -13.8529   26.0592 C   0  0  0  0  0  0  0  0  0  0  0  0
   10.5481  -14.3379   25.9326 C   0  0  1  0  0  0  0  0  0  0  0  0
   10.5527  -15.8333   26.2000 N   0  0  0  0  0  0  0  0  0  0  0  0
    9.6449  -16.5058   25.2642 C   0  0  0  0  0  0  0  0  0  0  0  0
   10.2246  -16.1244   27.6026 O   0  0  0  0  0  0  0  0  0  0  0  0
    9.2039  -16.8352   27.9012 C   0  0  0  0  0  0  0  0  0  0  0  0
    8.2706  -13.9215   25.0108 C   0  0  0  0  0  0  0  0  0  0  0  0
    6.9713  -13.4536   25.1064 O   0  0  0  0  0  0  0  0  0  0  0  0
  2  1  1  0
  3  2  2  0
  4  2  1  0
  5  4  1  0
  6  5  1  0
  7  6  1  0
  8 10  1  0
  8  9  1  6
  8  7  1  0
 10 11  2  0
 12 13  1  0
 13 14  2  0
 15 13  1  0
 16 15  1  6
 16 18  1  0
 17 16  1  0
 17 10  1  0
 18 19  2  0
 18 27  1  0
 20 21  1  0
 21 22  2  0
 21 31  1  0
 22 23  1  0
 23 24  2  0
 24 25  1  0
 26 25  1  6
 26 28  1  0
 27 26  1  0
 28 29  2  0
 28 32  1  0
 30 24  1  0
 31 30  2  0
M  END
$$$$
