MPI.pdb
     RDKit          3D

 24 24  0  0  1  0  0  0  0  0999 V2000
   21.0411  -17.3945  -11.2883 C   0  0  0  0  0  0  0  0  0  0  0  0
   20.9044  -17.8844  -13.0082 S   0  0  0  0  0  0  0  0  0  0  0  0
   22.1109  -19.1516  -13.4666 C   0  0  0  0  0  0  0  0  0  0  0  0
   22.7946  -19.7244  -12.2383 C   0  0  0  0  0  0  0  0  0  0  0  0
   23.6518  -20.9345  -12.6265 C   0  0  2  0  0  0  0  0  0  0  0  0
   22.7546  -21.9373  -13.0794 N   0  0  0  0  0  0  0  0  0  0  0  0
   24.5900  -21.3047  -11.5747 C   0  0  0  0  0  0  0  0  0  0  0  0
   24.1028  -22.0387  -10.6438 O   0  0  0  0  0  0  0  0  0  0  0  0
   25.9561  -20.9539  -11.4609 N   0  0  0  0  0  0  0  0  0  0  0  0
   26.7466  -20.0108  -12.2132 C   0  0  0  0  0  0  0  0  0  0  0  0
   28.0859  -20.6926  -12.3144 C   0  0  0  0  0  0  0  0  0  0  0  0
   28.1081  -21.7427  -11.2392 C   0  0  0  0  0  0  0  0  0  0  0  0
   26.8544  -21.5238  -10.4827 C   0  0  1  0  0  0  0  0  0  0  0  0
   26.9851  -20.5234   -9.3620 C   0  0  0  0  0  0  0  0  0  0  0  0
   26.6985  -19.3222   -9.5823 O   0  0  0  0  0  0  0  0  0  0  0  0
   26.6676  -22.1350   -3.9228 C   0  0  0  0  0  0  0  0  0  0  0  0
   26.5444  -21.3205   -5.1502 C   0  0  0  0  0  0  0  0  0  0  0  0
   27.7069  -20.6333   -5.7038 C   0  0  2  0  0  0  0  0  0  0  0  0
   28.4007  -19.7879   -4.6184 C   0  0  0  0  0  0  0  0  0  0  0  0
   27.6260  -19.9523   -6.9906 C   0  0  2  0  0  0  0  0  0  0  0  0
   27.4173  -20.9034   -8.0867 N   0  0  0  0  0  0  0  0  0  0  0  0
   28.4855  -18.8454   -7.3670 C   0  0  0  0  0  0  0  0  0  0  0  0
   28.1946  -17.6732   -7.0206 O   0  0  0  0  0  0  0  0  0  0  0  0
   29.6440  -18.9601   -8.0920 O   0  0  0  0  0  0  0  0  0  0  0  0
  1  2  1  0
  3  2  1  0
  4  3  1  0
  5  6  1  1
  5  4  1  0
  7  5  1  0
  8  7  2  0
  9 10  1  0
  9  7  1  0
 11 10  1  0
 12 11  1  0
 12 13  1  0
 13  9  1  0
 13 14  1  1
 14 15  2  0
 17 18  1  0
 17 16  1  0
 18 20  1  0
 18 19  1  1
 20 21  1  6
 21 14  1  0
 22 20  1  0
 23 22  2  0
 24 22  1  0
M  END
$$$$
