MPI.pdb
     RDKit          3D

 24 24  0  0  1  0  0  0  0  0999 V2000
   19.6521  -16.4225  -13.1991 C   0  0  0  0  0  0  0  0  0  0  0  0
   18.8246  -17.2480  -14.5595 S   0  0  0  0  0  0  0  0  0  0  0  0
   19.9123  -18.3934  -15.4407 C   0  0  0  0  0  0  0  0  0  0  0  0
   20.8446  -19.1093  -14.4802 C   0  0  0  0  0  0  0  0  0  0  0  0
   20.6707  -20.6270  -14.6073 C   0  0  2  0  0  0  0  0  0  0  0  0
   19.3169  -20.9075  -14.2845 N   0  0  0  0  0  0  0  0  0  0  0  0
   21.6963  -21.3616  -13.8778 C   0  0  0  0  0  0  0  0  0  0  0  0
   21.4270  -21.5958  -12.6467 O   0  0  0  0  0  0  0  0  0  0  0  0
   22.9374  -21.8397  -14.3609 N   0  0  0  0  0  0  0  0  0  0  0  0
   23.5416  -21.7243  -15.6655 C   0  0  0  0  0  0  0  0  0  0  0  0
   24.2360  -23.0497  -15.8380 C   0  0  0  0  0  0  0  0  0  0  0  0
   24.3713  -23.6386  -14.4617 C   0  0  0  0  0  0  0  0  0  0  0  0
   23.8858  -22.5739  -13.5547 C   0  0  1  0  0  0  0  0  0  0  0  0
   24.9559  -21.6005  -13.1291 C   0  0  0  0  0  0  0  0  0  0  0  0
   25.1274  -20.5536  -13.7986 O   0  0  0  0  0  0  0  0  0  0  0  0
   25.7744  -20.7357   -7.8174 C   0  0  0  0  0  0  0  0  0  0  0  0
   25.7161  -20.6128   -9.2894 C   0  0  0  0  0  0  0  0  0  0  0  0
   26.8970  -20.8829  -10.1033 C   0  0  2  0  0  0  0  0  0  0  0  0
   28.1009  -20.0674   -9.5938 C   0  0  0  0  0  0  0  0  0  0  0  0
   26.8065  -20.9157  -11.5583 C   0  0  2  0  0  0  0  0  0  0  0  0
   25.7591  -21.8377  -12.0082 N   0  0  0  0  0  0  0  0  0  0  0  0
   27.9639  -20.9146  -12.4336 C   0  0  0  0  0  0  0  0  0  0  0  0
   28.4750  -22.0001  -12.8068 O   0  0  0  0  0  0  0  0  0  0  0  0
   28.5789  -19.7908  -12.9232 O   0  0  0  0  0  0  0  0  0  0  0  0
  1  2  1  0
  3  2  1  0
  4  3  1  0
  5  6  1  1
  5  4  1  0
  7  5  1  0
  8  7  2  0
  9 10  1  0
  9  7  1  0
 11 10  1  0
 12 11  1  0
 12 13  1  0
 13  9  1  0
 13 14  1  6
 14 15  2  0
 17 18  1  0
 17 16  1  0
 18 20  1  0
 18 19  1  6
 20 21  1  1
 21 14  1  0
 22 20  1  0
 23 22  2  0
 24 22  1  0
M  END
$$$$
