MPI.pdb
     RDKit          3D

 24 24  0  0  1  0  0  0  0  0999 V2000
   25.8079  -13.0876  -15.4775 C   0  0  0  0  0  0  0  0  0  0  0  0
   24.9409  -14.6499  -15.6336 S   0  0  0  0  0  0  0  0  0  0  0  0
   26.0178  -16.0733  -15.3401 C   0  0  0  0  0  0  0  0  0  0  0  0
   25.2381  -17.3733  -15.4184 C   0  0  0  0  0  0  0  0  0  0  0  0
   26.0233  -18.4128  -16.2263 C   0  0  2  0  0  0  0  0  0  0  0  0
   25.4332  -18.4520  -17.5170 N   0  0  0  0  0  0  0  0  0  0  0  0
   26.1557  -19.6776  -15.5148 C   0  0  0  0  0  0  0  0  0  0  0  0
   25.3149  -20.5838  -15.8535 O   0  0  0  0  0  0  0  0  0  0  0  0
   27.0893  -20.0187  -14.5077 N   0  0  0  0  0  0  0  0  0  0  0  0
   28.1298  -19.2332  -13.8905 C   0  0  0  0  0  0  0  0  0  0  0  0
   29.2377  -20.2334  -13.6886 C   0  0  0  0  0  0  0  0  0  0  0  0
   28.6011  -21.5924  -13.7727 C   0  0  0  0  0  0  0  0  0  0  0  0
   27.1501  -21.3154  -13.8727 C   0  0  1  0  0  0  0  0  0  0  0  0
   26.4597  -21.1904  -12.5380 C   0  0  0  0  0  0  0  0  0  0  0  0
   26.9898  -21.7115  -11.5275 O   0  0  0  0  0  0  0  0  0  0  0  0
   27.2501  -20.6319   -8.5431 C   0  0  0  0  0  0  0  0  0  0  0  0
   26.4551  -20.9573   -9.7460 C   0  0  0  0  0  0  0  0  0  0  0  0
   25.1824  -20.2884   -9.9969 C   0  0  2  0  0  0  0  0  0  0  0  0
   24.3220  -20.2701   -8.7189 C   0  0  0  0  0  0  0  0  0  0  0  0
   24.4108  -20.5833  -11.1985 C   0  0  2  0  0  0  0  0  0  0  0  0
   25.2453  -20.5089  -12.4016 N   0  0  0  0  0  0  0  0  0  0  0  0
   23.0614  -20.0992  -11.4235 C   0  0  0  0  0  0  0  0  0  0  0  0
   22.8192  -19.3262  -12.3839 O   0  0  0  0  0  0  0  0  0  0  0  0
   21.9709  -20.4250  -10.6582 O   0  0  0  0  0  0  0  0  0  0  0  0
  1  2  1  0
  3  2  1  0
  4  3  1  0
  5  6  1  6
  5  4  1  0
  7  5  1  0
  8  7  2  0
  9 10  1  0
  9  7  1  0
 11 10  1  0
 12 11  1  0
 12 13  1  0
 13  9  1  0
 13 14  1  1
 14 15  2  0
 17 18  1  0
 17 16  1  0
 18 20  1  0
 18 19  1  1
 20 21  1  6
 21 14  1  0
 22 20  1  0
 23 22  2  0
 24 22  1  0
M  END
$$$$
