MPI.pdb
     RDKit          3D

 24 24  0  0  1  0  0  0  0  0999 V2000
   17.0804  -17.1969  -19.3944 C   0  0  0  0  0  0  0  0  0  0  0  0
   17.5121  -16.8641  -21.1031 S   0  0  0  0  0  0  0  0  0  0  0  0
   19.1766  -16.1780  -21.2771 C   0  0  0  0  0  0  0  0  0  0  0  0
   19.3838  -15.0031  -20.3386 C   0  0  0  0  0  0  0  0  0  0  0  0
   20.8319  -14.5075  -20.4238 C   0  0  2  0  0  0  0  0  0  0  0  0
   21.6573  -15.6070  -20.0694 N   0  0  0  0  0  0  0  0  0  0  0  0
   21.0313  -13.2616  -19.6947 C   0  0  0  0  0  0  0  0  0  0  0  0
   21.6140  -13.3820  -18.5595 O   0  0  0  0  0  0  0  0  0  0  0  0
   20.6619  -11.9529  -20.0860 N   0  0  0  0  0  0  0  0  0  0  0  0
   20.0217  -11.4808  -21.2892 C   0  0  0  0  0  0  0  0  0  0  0  0
   20.6978  -10.1583  -21.5388 C   0  0  0  0  0  0  0  0  0  0  0  0
   21.3314   -9.7549  -20.2368 C   0  0  0  0  0  0  0  0  0  0  0  0
   20.8744  -10.7790  -19.2703 C   0  0  1  0  0  0  0  0  0  0  0  0
   19.5587  -10.4511  -18.6107 C   0  0  0  0  0  0  0  0  0  0  0  0
   18.4928  -10.6846  -19.2297 O   0  0  0  0  0  0  0  0  0  0  0  0
   17.7840  -13.2012  -14.9949 C   0  0  0  0  0  0  0  0  0  0  0  0
   17.9533  -12.1376  -16.0074 C   0  0  0  0  0  0  0  0  0  0  0  0
   18.0318  -10.7368  -15.6053 C   0  0  2  0  0  0  0  0  0  0  0  0
   16.9083  -10.3991  -14.6064 C   0  0  0  0  0  0  0  0  0  0  0  0
   18.2464   -9.6889  -16.5963 C   0  0  2  0  0  0  0  0  0  0  0  0
   19.4999   -9.8941  -17.3285 N   0  0  0  0  0  0  0  0  0  0  0  0
   17.9640   -8.2863  -16.3537 C   0  0  0  0  0  0  0  0  0  0  0  0
   18.8826   -7.5105  -15.9894 O   0  0  0  0  0  0  0  0  0  0  0  0
   16.7350   -7.6949  -16.4979 O   0  0  0  0  0  0  0  0  0  0  0  0
  1  2  1  0
  3  2  1  0
  4  3  1  0
  5  6  1  1
  5  4  1  0
  7  5  1  0
  8  7  2  0
  9 10  1  0
  9  7  1  0
 11 10  1  0
 12 11  1  0
 12 13  1  0
 13  9  1  0
 13 14  1  6
 14 15  2  0
 17 18  1  0
 17 16  1  0
 18 20  1  0
 18 19  1  6
 20 21  1  1
 21 14  1  0
 22 20  1  0
 23 22  2  0
 24 22  1  0
M  END
$$$$
