MPI.pdb
     RDKit          3D

 24 24  0  0  1  0  0  0  0  0999 V2000
   20.8799  -19.7629  -12.5266 C   0  0  0  0  0  0  0  0  0  0  0  0
   22.2468  -18.6728  -12.9268 S   0  0  0  0  0  0  0  0  0  0  0  0
   23.7926  -19.5708  -13.2024 C   0  0  0  0  0  0  0  0  0  0  0  0
   24.0687  -20.5429  -12.0698 C   0  0  0  0  0  0  0  0  0  0  0  0
   25.1491  -21.5472  -12.4868 C   0  0  2  0  0  0  0  0  0  0  0  0
   24.4716  -22.6563  -13.0582 N   0  0  0  0  0  0  0  0  0  0  0  0
   26.0896  -21.8236  -11.4085 C   0  0  0  0  0  0  0  0  0  0  0  0
   25.7225  -22.7352  -10.5857 O   0  0  0  0  0  0  0  0  0  0  0  0
   27.3425  -21.2124  -11.1653 N   0  0  0  0  0  0  0  0  0  0  0  0
   28.0273  -20.1637  -11.8805 C   0  0  0  0  0  0  0  0  0  0  0  0
   29.4726  -20.5783  -11.7922 C   0  0  0  0  0  0  0  0  0  0  0  0
   29.5615  -21.5635  -10.6605 C   0  0  0  0  0  0  0  0  0  0  0  0
   28.2075  -21.5618  -10.0616 C   0  0  1  0  0  0  0  0  0  0  0  0
   28.0137  -20.5137   -8.9950 C   0  0  0  0  0  0  0  0  0  0  0  0
   27.3423  -19.4888   -9.2639 O   0  0  0  0  0  0  0  0  0  0  0  0
   28.3841  -22.6521   -3.8660 C   0  0  0  0  0  0  0  0  0  0  0  0
   27.8874  -21.8660   -5.0151 C   0  0  0  0  0  0  0  0  0  0  0  0
   28.4417  -20.5477   -5.3067 C   0  0  2  0  0  0  0  0  0  0  0  0
   28.3181  -19.6272   -4.0773 C   0  0  0  0  0  0  0  0  0  0  0  0
   28.1297  -19.8696   -6.5593 C   0  0  2  0  0  0  0  0  0  0  0  0
   28.5640  -20.6580   -7.7167 N   0  0  0  0  0  0  0  0  0  0  0  0
   28.2961  -18.4423   -6.7611 C   0  0  0  0  0  0  0  0  0  0  0  0
   29.3578  -17.9944   -7.2620 O   0  0  0  0  0  0  0  0  0  0  0  0
   27.3597  -17.4895   -6.4510 O   0  0  0  0  0  0  0  0  0  0  0  0
  1  2  1  0
  3  2  1  0
  4  3  1  0
  5  6  1  1
  5  4  1  0
  7  5  1  0
  8  7  2  0
  9 10  1  0
  9  7  1  0
 11 10  1  0
 12 11  1  0
 12 13  1  0
 13  9  1  0
 13 14  1  1
 14 15  2  0
 17 18  1  0
 17 16  1  0
 18 20  1  0
 18 19  1  1
 20 21  1  6
 21 14  1  0
 22 20  1  0
 23 22  2  0
 24 22  1  0
M  END
$$$$
