MPI.pdb
     RDKit          3D

 24 24  0  0  1  0  0  0  0  0999 V2000
   20.5519  -20.5095  -16.9090 C   0  0  0  0  0  0  0  0  0  0  0  0
   20.5913  -18.7363  -16.6426 S   0  0  0  0  0  0  0  0  0  0  0  0
   22.2296  -18.0273  -16.9340 C   0  0  0  0  0  0  0  0  0  0  0  0
   22.8847  -18.6491  -18.1539 C   0  0  0  0  0  0  0  0  0  0  0  0
   24.3141  -18.1192  -18.3142 C   0  0  2  0  0  0  0  0  0  0  0  0
   24.8146  -18.6653  -19.5254 N   0  0  0  0  0  0  0  0  0  0  0  0
   25.1134  -18.3190  -17.1121 C   0  0  0  0  0  0  0  0  0  0  0  0
   25.7655  -19.4215  -17.0684 O   0  0  0  0  0  0  0  0  0  0  0  0
   25.2521  -17.4520  -16.0025 N   0  0  0  0  0  0  0  0  0  0  0  0
   24.6012  -16.1996  -15.7055 C   0  0  0  0  0  0  0  0  0  0  0  0
   25.6917  -15.3963  -15.0466 C   0  0  0  0  0  0  0  0  0  0  0  0
   26.7330  -16.3838  -14.5995 C   0  0  0  0  0  0  0  0  0  0  0  0
   26.1351  -17.7073  -14.8873 C   0  0  1  0  0  0  0  0  0  0  0  0
   25.2883  -18.2512  -13.7644 C   0  0  0  0  0  0  0  0  0  0  0  0
   24.0413  -18.2734  -13.8984 O   0  0  0  0  0  0  0  0  0  0  0  0
   29.1160  -21.6386  -12.2136 C   0  0  0  0  0  0  0  0  0  0  0  0
   27.8275  -21.0441  -12.6279 C   0  0  0  0  0  0  0  0  0  0  0  0
   26.7954  -20.7483  -11.6393 C   0  0  2  0  0  0  0  0  0  0  0  0
   26.5352  -21.9776  -10.7476 C   0  0  0  0  0  0  0  0  0  0  0  0
   25.5717  -20.0557  -12.0254 C   0  0  2  0  0  0  0  0  0  0  0  0
   25.8601  -18.7297  -12.5804 N   0  0  0  0  0  0  0  0  0  0  0  0
   24.3546  -20.0783  -11.2354 C   0  0  0  0  0  0  0  0  0  0  0  0
   24.0799  -19.1203  -10.4704 O   0  0  0  0  0  0  0  0  0  0  0  0
   23.4266  -21.0880  -11.2490 O   0  0  0  0  0  0  0  0  0  0  0  0
  1  2  1  0
  3  2  1  0
  4  3  1  0
  5  6  1  6
  5  4  1  0
  7  5  1  0
  8  7  2  0
  9 10  1  0
  9  7  1  0
 11 10  1  0
 12 11  1  0
 12 13  1  0
 13  9  1  0
 13 14  1  1
 14 15  2  0
 17 18  1  0
 17 16  1  0
 18 20  1  0
 18 19  1  6
 20 21  1  1
 21 14  1  0
 22 20  1  0
 23 22  2  0
 24 22  1  0
M  END
$$$$
