MPI.pdb
     RDKit          3D

 24 24  0  0  1  0  0  0  0  0999 V2000
   20.8994  -19.8750  -10.5541 C   0  0  0  0  0  0  0  0  0  0  0  0
   21.3078  -19.3253  -12.2118 S   0  0  0  0  0  0  0  0  0  0  0  0
   22.7581  -20.1706  -12.8854 C   0  0  0  0  0  0  0  0  0  0  0  0
   23.6736  -20.6533  -11.7750 C   0  0  0  0  0  0  0  0  0  0  0  0
   24.8359  -21.4620  -12.3622 C   0  0  2  0  0  0  0  0  0  0  0  0
   24.2572  -22.5597  -13.0519 N   0  0  0  0  0  0  0  0  0  0  0  0
   25.8559  -21.7631  -11.3659 C   0  0  0  0  0  0  0  0  0  0  0  0
   25.5616  -22.7103  -10.5541 O   0  0  0  0  0  0  0  0  0  0  0  0
   27.1149  -21.1415  -11.1906 N   0  0  0  0  0  0  0  0  0  0  0  0
   27.7503  -20.0855  -11.9399 C   0  0  0  0  0  0  0  0  0  0  0  0
   29.2018  -20.4877  -11.9323 C   0  0  0  0  0  0  0  0  0  0  0  0
   29.3613  -21.4741  -10.8095 C   0  0  0  0  0  0  0  0  0  0  0  0
   28.0424  -21.4854  -10.1370 C   0  0  1  0  0  0  0  0  0  0  0  0
   27.8985  -20.4410   -9.0589 C   0  0  0  0  0  0  0  0  0  0  0  0
   27.2024  -19.4228   -9.2871 O   0  0  0  0  0  0  0  0  0  0  0  0
   28.6198  -22.5465   -3.9598 C   0  0  0  0  0  0  0  0  0  0  0  0
   28.0558  -21.7804   -5.0912 C   0  0  0  0  0  0  0  0  0  0  0  0
   28.5527  -20.4439   -5.4027 C   0  0  2  0  0  0  0  0  0  0  0  0
   28.4469  -19.5283   -4.1680 C   0  0  0  0  0  0  0  0  0  0  0  0
   28.1682  -19.7767   -6.6409 C   0  0  2  0  0  0  0  0  0  0  0  0
   28.5220  -20.5815   -7.8141 N   0  0  0  0  0  0  0  0  0  0  0  0
   28.3336  -18.3532   -6.8690 C   0  0  0  0  0  0  0  0  0  0  0  0
   29.3392  -17.9251   -7.4889 O   0  0  0  0  0  0  0  0  0  0  0  0
   27.4533  -17.3836   -6.4616 O   0  0  0  0  0  0  0  0  0  0  0  0
  1  2  1  0
  3  2  1  0
  4  3  1  0
  5  6  1  1
  5  4  1  0
  7  5  1  0
  8  7  2  0
  9 10  1  0
  9  7  1  0
 11 10  1  0
 12 11  1  0
 12 13  1  0
 13  9  1  0
 13 14  1  1
 14 15  2  0
 17 18  1  0
 17 16  1  0
 18 20  1  0
 18 19  1  1
 20 21  1  6
 21 14  1  0
 22 20  1  0
 23 22  2  0
 24 22  1  0
M  END
$$$$
