MPI.pdb
     RDKit          3D

 24 24  0  0  1  0  0  0  0  0999 V2000
   20.8120  -20.1999  -13.3815 C   0  0  0  0  0  0  0  0  0  0  0  0
   21.3778  -21.5964  -12.4086 S   0  0  0  0  0  0  0  0  0  0  0  0
   22.3254  -21.0898  -10.9536 C   0  0  0  0  0  0  0  0  0  0  0  0
   23.4012  -20.0855  -11.3251 C   0  0  0  0  0  0  0  0  0  0  0  0
   24.7904  -20.7080  -11.1449 C   0  0  2  0  0  0  0  0  0  0  0  0
   25.1103  -20.5912   -9.7666 N   0  0  0  0  0  0  0  0  0  0  0  0
   25.7571  -20.1831  -12.1008 C   0  0  0  0  0  0  0  0  0  0  0  0
   26.3368  -19.0958  -11.7479 O   0  0  0  0  0  0  0  0  0  0  0  0
   26.1257  -20.7240  -13.3553 N   0  0  0  0  0  0  0  0  0  0  0  0
   25.6563  -21.9028  -14.0412 C   0  0  0  0  0  0  0  0  0  0  0  0
   26.9009  -22.4277  -14.7077 C   0  0  0  0  0  0  0  0  0  0  0  0
   27.8763  -21.2847  -14.7421 C   0  0  0  0  0  0  0  0  0  0  0  0
   27.1074  -20.1269  -14.2318 C   0  0  1  0  0  0  0  0  0  0  0  0
   26.3526  -19.3773  -15.3005 C   0  0  0  0  0  0  0  0  0  0  0  0
   25.1743  -19.7167  -15.5649 O   0  0  0  0  0  0  0  0  0  0  0  0
   25.9285  -14.3778  -14.5771 C   0  0  0  0  0  0  0  0  0  0  0  0
   25.6761  -15.7176  -15.1482 C   0  0  0  0  0  0  0  0  0  0  0  0
   26.1849  -16.0678  -16.4706 C   0  0  2  0  0  0  0  0  0  0  0  0
   25.6458  -15.0895  -17.5319 C   0  0  0  0  0  0  0  0  0  0  0  0
   26.1887  -17.4538  -16.9235 C   0  0  2  0  0  0  0  0  0  0  0  0
   26.9349  -18.3156  -16.0016 N   0  0  0  0  0  0  0  0  0  0  0  0
   26.3558  -17.8430  -18.3115 C   0  0  0  0  0  0  0  0  0  0  0  0
   27.5073  -17.9888  -18.7927 O   0  0  0  0  0  0  0  0  0  0  0  0
   25.3306  -18.0867  -19.1891 O   0  0  0  0  0  0  0  0  0  0  0  0
  1  2  1  0
  3  2  1  0
  4  3  1  0
  5  6  1  1
  5  4  1  0
  7  5  1  0
  8  7  2  0
  9 10  1  0
  9  7  1  0
 11 10  1  0
 12 11  1  0
 12 13  1  0
 13  9  1  0
 13 14  1  6
 14 15  2  0
 17 18  1  0
 17 16  1  0
 18 20  1  0
 18 19  1  6
 20 21  1  1
 21 14  1  0
 22 20  1  0
 23 22  2  0
 24 22  1  0
M  END
$$$$
