MPI.pdb
     RDKit          3D

 24 24  0  0  1  0  0  0  0  0999 V2000
   22.1296  -13.5381  -21.9492 C   0  0  0  0  0  0  0  0  0  0  0  0
   23.8975  -13.8398  -21.9329 S   0  0  0  0  0  0  0  0  0  0  0  0
   24.5163  -14.2483  -20.2831 C   0  0  0  0  0  0  0  0  0  0  0  0
   24.0620  -13.2229  -19.2601 C   0  0  0  0  0  0  0  0  0  0  0  0
   24.5113  -13.6423  -17.8558 C   0  0  2  0  0  0  0  0  0  0  0  0
   24.0284  -14.9621  -17.6538 N   0  0  0  0  0  0  0  0  0  0  0  0
   24.1706  -12.6460  -16.8483 C   0  0  0  0  0  0  0  0  0  0  0  0
   23.1228  -12.9061  -16.1575 O   0  0  0  0  0  0  0  0  0  0  0  0
   24.8500  -11.4419  -16.5473 N   0  0  0  0  0  0  0  0  0  0  0  0
   26.0035  -10.8373  -17.1671 C   0  0  0  0  0  0  0  0  0  0  0  0
   26.7405  -10.2336  -16.0005 C   0  0  0  0  0  0  0  0  0  0  0  0
   25.7452  -10.1316  -14.8787 C   0  0  0  0  0  0  0  0  0  0  0  0
   24.4591  -10.5408  -15.4872 C   0  0  1  0  0  0  0  0  0  0  0  0
   23.6980   -9.4062  -16.1253 C   0  0  0  0  0  0  0  0  0  0  0  0
   23.9175   -9.1269  -17.3284 O   0  0  0  0  0  0  0  0  0  0  0  0
   18.4414   -8.8418  -17.8450 C   0  0  0  0  0  0  0  0  0  0  0  0
   19.5120   -8.0104  -17.2553 C   0  0  0  0  0  0  0  0  0  0  0  0
   20.6151   -8.6291  -16.5270 C   0  0  2  0  0  0  0  0  0  0  0  0
   20.0780   -9.6072  -15.4645 C   0  0  0  0  0  0  0  0  0  0  0  0
   21.7338   -7.8260  -16.0477 C   0  0  2  0  0  0  0  0  0  0  0  0
   22.7559   -8.6605  -15.4084 N   0  0  0  0  0  0  0  0  0  0  0  0
   21.5756   -6.5389  -15.3965 C   0  0  0  0  0  0  0  0  0  0  0  0
   21.6380   -6.4521  -14.1446 O   0  0  0  0  0  0  0  0  0  0  0  0
   21.3623   -5.3498  -16.0457 O   0  0  0  0  0  0  0  0  0  0  0  0
  1  2  1  0
  3  2  1  0
  4  3  1  0
  5  6  1  1
  5  4  1  0
  7  5  1  0
  8  7  2  0
  9 10  1  0
  9  7  1  0
 11 10  1  0
 12 11  1  0
 12 13  1  0
 13  9  1  0
 13 14  1  6
 14 15  2  0
 17 18  1  0
 17 16  1  0
 18 20  1  0
 18 19  1  1
 20 21  1  1
 21 14  1  0
 22 20  1  0
 23 22  2  0
 24 22  1  0
M  END
$$$$
