GHN.pdb
     RDKit          3D

 23 23  0  0  1  0  0  0  0  0999 V2000
   15.0964  -14.2796   17.9732 N   0  0  0  0  0  0  0  0  0  0  0  0
   13.9497  -15.1308   17.9250 C   0  0  0  0  0  0  0  0  0  0  0  0
   13.0835  -15.0078   19.1169 C   0  0  0  0  0  0  0  0  0  0  0  0
   13.4700  -14.3208   20.0969 O   0  0  0  0  0  0  0  0  0  0  0  0
   11.8172  -15.6162   19.2532 N   0  0  0  0  0  0  0  0  0  0  0  0
   10.9610  -15.4708   20.3935 C   0  0  1  0  0  0  0  0  0  0  0  0
    9.5269  -15.3288   20.1279 C   0  0  0  0  0  0  0  0  0  0  0  0
    9.0613  -14.1685   19.3691 C   0  0  0  0  0  0  0  0  0  0  0  0
    9.6657  -13.1130   18.7675 C   0  0  0  0  0  0  0  0  0  0  0  0
    8.7351  -12.3287   18.1740 N   0  0  0  0  0  0  0  0  0  0  0  0
    7.5506  -12.9120   18.4157 C   0  0  0  0  0  0  0  0  0  0  0  0
    7.7165  -14.0189   19.1313 N   0  0  0  0  0  0  0  0  0  0  0  0
   11.2768  -16.4714   21.4545 C   0  0  0  0  0  0  0  0  0  0  0  0
   11.8274  -17.5600   21.1643 O   0  0  0  0  0  0  0  0  0  0  0  0
   12.8407  -17.6463   26.7658 N   0  0  0  0  0  0  0  0  0  0  0  0
   11.5015  -17.4949   26.3448 C   0  0  0  0  0  0  0  0  0  0  0  0
   10.6082  -18.1627   26.9011 O   0  0  0  0  0  0  0  0  0  0  0  0
   11.1500  -16.5604   25.2599 C   0  0  0  0  0  0  0  0  0  0  0  0
   11.3488  -17.1106   23.8924 C   0  0  2  0  0  0  0  0  0  0  0  0
   10.9751  -16.2412   22.8142 N   0  0  0  0  0  0  0  0  0  0  0  0
   10.5595  -18.3653   23.7812 C   0  0  0  0  0  0  0  0  0  0  0  0
    9.4807  -18.4086   23.1355 O   0  0  0  0  0  0  0  0  0  0  0  0
   10.9815  -19.5414   24.3859 O   0  0  0  0  0  0  0  0  0  0  0  0
  2  1  1  0
  3  2  1  0
  4  3  2  0
  5  3  1  0
  6 13  1  0
  6  5  1  0
  6  7  1  6
  8 12  1  0
  8  7  1  0
  9  8  2  0
 10  9  1  0
 10 11  1  0
 11 12  2  0
 13 20  1  0
 14 13  2  0
 16 15  1  0
 17 16  2  0
 18 16  1  0
 19 21  1  0
 19 18  1  1
 20 19  1  0
 21 23  1  0
 22 21  2  0
M  END
$$$$
