GHN.pdb
     RDKit          3D

 23 23  0  0  1  0  0  0  0  0999 V2000
   10.6696  -15.8692   14.2070 N   0  0  0  0  0  0  0  0  0  0  0  0
   10.3884  -16.5119   15.4518 C   0  0  0  0  0  0  0  0  0  0  0  0
   10.9831  -15.8164   16.6131 C   0  0  0  0  0  0  0  0  0  0  0  0
   12.1129  -15.2755   16.5008 O   0  0  0  0  0  0  0  0  0  0  0  0
   10.3703  -15.7040   17.8795 N   0  0  0  0  0  0  0  0  0  0  0  0
   10.8880  -14.9317   18.9705 C   0  0  1  0  0  0  0  0  0  0  0  0
    9.9115  -14.4043   19.9274 C   0  0  0  0  0  0  0  0  0  0  0  0
    8.7452  -13.6823   19.4199 C   0  0  0  0  0  0  0  0  0  0  0  0
    8.4585  -12.3789   19.1751 C   0  0  0  0  0  0  0  0  0  0  0  0
    7.2045  -12.2710   18.6759 N   0  0  0  0  0  0  0  0  0  0  0  0
    6.7213  -13.5218   18.6150 C   0  0  0  0  0  0  0  0  0  0  0  0
    7.6254  -14.3898   19.0555 N   0  0  0  0  0  0  0  0  0  0  0  0
   12.0575  -15.5978   19.6147 C   0  0  0  0  0  0  0  0  0  0  0  0
   12.2311  -16.8347   19.5036 O   0  0  0  0  0  0  0  0  0  0  0  0
   17.5597  -15.5696   19.9961 N   0  0  0  0  0  0  0  0  0  0  0  0
   16.7553  -14.8272   20.8879 C   0  0  0  0  0  0  0  0  0  0  0  0
   17.1834  -14.5774   22.0316 O   0  0  0  0  0  0  0  0  0  0  0  0
   15.4214  -14.3466   20.4834 C   0  0  0  0  0  0  0  0  0  0  0  0
   14.3313  -15.3405   20.6734 C   0  0  2  0  0  0  0  0  0  0  0  0
   13.0090  -14.8761   20.3676 N   0  0  0  0  0  0  0  0  0  0  0  0
   14.3575  -15.7881   22.0906 C   0  0  0  0  0  0  0  0  0  0  0  0
   13.5901  -15.2877   22.9527 O   0  0  0  0  0  0  0  0  0  0  0  0
   15.2310  -16.7777   22.5208 O   0  0  0  0  0  0  0  0  0  0  0  0
  2  1  1  0
  3  2  1  0
  4  3  2  0
  5  3  1  0
  6 13  1  0
  6  5  1  0
  6  7  1  1
  8 12  1  0
  8  7  1  0
  9  8  2  0
 10  9  1  0
 10 11  1  0
 11 12  2  0
 13 20  1  0
 14 13  2  0
 16 15  1  0
 17 16  2  0
 18 16  1  0
 19 21  1  0
 19 18  1  1
 20 19  1  0
 21 23  1  0
 22 21  2  0
M  END
$$$$
