GHN.pdb
     RDKit          3D

 23 23  0  0  1  0  0  0  0  0999 V2000
   11.1643  -17.6952   16.1486 N   0  0  0  0  0  0  0  0  0  0  0  0
   10.4593  -17.7869   17.3881 C   0  0  0  0  0  0  0  0  0  0  0  0
   10.9748  -16.8624   18.4204 C   0  0  0  0  0  0  0  0  0  0  0  0
   12.1226  -16.3651   18.2908 O   0  0  0  0  0  0  0  0  0  0  0  0
   10.2645  -16.4775   19.5777 N   0  0  0  0  0  0  0  0  0  0  0  0
   10.7582  -15.5740   20.5750 C   0  0  1  0  0  0  0  0  0  0  0  0
    9.8113  -14.5842   21.0954 C   0  0  0  0  0  0  0  0  0  0  0  0
    8.9709  -13.8474   20.1520 C   0  0  0  0  0  0  0  0  0  0  0  0
    9.1111  -12.7023   19.4377 C   0  0  0  0  0  0  0  0  0  0  0  0
    8.0042  -12.4917   18.6868 N   0  0  0  0  0  0  0  0  0  0  0  0
    7.1804  -13.5194   18.9453 C   0  0  0  0  0  0  0  0  0  0  0  0
    7.7353  -14.3491   19.8219 N   0  0  0  0  0  0  0  0  0  0  0  0
   11.5231  -16.2877   21.6390 C   0  0  0  0  0  0  0  0  0  0  0  0
   11.1470  -17.4094   22.0547 O   0  0  0  0  0  0  0  0  0  0  0  0
   17.3102  -17.0251   22.0240 N   0  0  0  0  0  0  0  0  0  0  0  0
   16.0034  -17.5585   22.0628 C   0  0  0  0  0  0  0  0  0  0  0  0
   15.8286  -18.7128   22.4995 O   0  0  0  0  0  0  0  0  0  0  0  0
   14.8493  -16.7692   21.5950 C   0  0  0  0  0  0  0  0  0  0  0  0
   13.8262  -16.5052   22.6418 C   0  0  2  0  0  0  0  0  0  0  0  0
   12.6887  -15.7407   22.2178 N   0  0  0  0  0  0  0  0  0  0  0  0
   14.4874  -15.7846   23.7612 C   0  0  0  0  0  0  0  0  0  0  0  0
   14.9275  -14.6144   23.6214 O   0  0  0  0  0  0  0  0  0  0  0  0
   14.6463  -16.3745   25.0078 O   0  0  0  0  0  0  0  0  0  0  0  0
  2  1  1  0
  3  2  1  0
  4  3  2  0
  5  3  1  0
  6 13  1  0
  6  5  1  0
  6  7  1  1
  8 12  1  0
  8  7  1  0
  9  8  2  0
 10  9  1  0
 10 11  1  0
 11 12  2  0
 13 20  1  0
 14 13  2  0
 16 15  1  0
 17 16  2  0
 18 16  1  0
 19 21  1  0
 19 18  1  6
 20 19  1  0
 21 23  1  0
 22 21  2  0
M  END
$$$$
