GHN.pdb
     RDKit          3D

 23 23  0  0  1  0  0  0  0  0999 V2000
    8.6310  -26.4919   27.8740 N   0  0  0  0  0  0  0  0  0  0  0  0
    8.9294  -25.9426   29.1589 C   0  0  0  0  0  0  0  0  0  0  0  0
   10.0225  -24.9476   29.1266 C   0  0  0  0  0  0  0  0  0  0  0  0
   11.2141  -25.3303   29.2513 O   0  0  0  0  0  0  0  0  0  0  0  0
    9.8365  -23.5582   28.9622 N   0  0  0  0  0  0  0  0  0  0  0  0
   10.8954  -22.5932   28.9176 C   0  0  1  0  0  0  0  0  0  0  0  0
   10.7345  -21.4801   27.9783 C   0  0  0  0  0  0  0  0  0  0  0  0
   10.5407  -21.7766   26.5593 C   0  0  0  0  0  0  0  0  0  0  0  0
   10.5333  -22.9081   25.8103 C   0  0  0  0  0  0  0  0  0  0  0  0
   10.2768  -22.6003   24.5169 N   0  0  0  0  0  0  0  0  0  0  0  0
   10.1257  -21.2672   24.4765 C   0  0  0  0  0  0  0  0  0  0  0  0
   10.2788  -20.7464   25.6890 N   0  0  0  0  0  0  0  0  0  0  0  0
   11.3139  -22.1666   30.2849 C   0  0  0  0  0  0  0  0  0  0  0  0
   10.4931  -21.6329   31.0684 O   0  0  0  0  0  0  0  0  0  0  0  0
   14.6604  -25.4096   32.1671 N   0  0  0  0  0  0  0  0  0  0  0  0
   13.7338  -24.4285   32.5824 C   0  0  0  0  0  0  0  0  0  0  0  0
   12.5849  -24.7775   32.9168 O   0  0  0  0  0  0  0  0  0  0  0  0
   14.1082  -23.0032   32.6246 C   0  0  0  0  0  0  0  0  0  0  0  0
   13.0666  -22.0827   32.0955 C   0  0  2  0  0  0  0  0  0  0  0  0
   12.6343  -22.3423   30.7526 N   0  0  0  0  0  0  0  0  0  0  0  0
   13.6007  -20.6970   32.1590 C   0  0  0  0  0  0  0  0  0  0  0  0
   13.6514  -19.9642   31.1377 O   0  0  0  0  0  0  0  0  0  0  0  0
   14.0658  -20.1546   33.3492 O   0  0  0  0  0  0  0  0  0  0  0  0
  2  1  1  0
  3  2  1  0
  4  3  2  0
  5  3  1  0
  6 13  1  0
  6  5  1  0
  6  7  1  6
  8 12  1  0
  8  7  1  0
  9  8  2  0
 10  9  1  0
 10 11  1  0
 11 12  2  0
 13 20  1  0
 14 13  2  0
 16 15  1  0
 17 16  2  0
 18 16  1  0
 19 21  1  0
 19 18  1  6
 20 19  1  0
 21 23  1  0
 22 21  2  0
M  END
$$$$
