GHN.pdb
     RDKit          3D

 23 23  0  0  1  0  0  0  0  0999 V2000
   10.2401  -16.0641   14.6266 N   0  0  0  0  0  0  0  0  0  0  0  0
   10.5204  -16.7679   15.8381 C   0  0  0  0  0  0  0  0  0  0  0  0
   11.1165  -15.9102   16.8846 C   0  0  0  0  0  0  0  0  0  0  0  0
   12.1630  -15.2599   16.6324 O   0  0  0  0  0  0  0  0  0  0  0  0
   10.5935  -15.7537   18.1862 N   0  0  0  0  0  0  0  0  0  0  0  0
   11.1451  -14.8903   19.1885 C   0  0  1  0  0  0  0  0  0  0  0  0
   10.2042  -14.3119   20.1515 C   0  0  0  0  0  0  0  0  0  0  0  0
    8.9559  -13.7319   19.6573 C   0  0  0  0  0  0  0  0  0  0  0  0
    8.6246  -12.5927   18.9988 C   0  0  0  0  0  0  0  0  0  0  0  0
    7.2914  -12.5700   18.7637 N   0  0  0  0  0  0  0  0  0  0  0  0
    6.8043  -13.7076   19.2837 C   0  0  0  0  0  0  0  0  0  0  0  0
    7.7818  -14.4248   19.8267 N   0  0  0  0  0  0  0  0  0  0  0  0
   12.3607  -15.4813   19.8206 C   0  0  0  0  0  0  0  0  0  0  0  0
   12.5055  -16.7249   19.8908 O   0  0  0  0  0  0  0  0  0  0  0  0
   17.5836  -15.7898   19.7179 N   0  0  0  0  0  0  0  0  0  0  0  0
   17.1617  -14.5070   20.1304 C   0  0  0  0  0  0  0  0  0  0  0  0
   17.9912  -13.7249   20.6340 O   0  0  0  0  0  0  0  0  0  0  0  0
   15.7579  -14.0848   19.9729 C   0  0  0  0  0  0  0  0  0  0  0  0
   14.7638  -15.0749   20.4666 C   0  0  2  0  0  0  0  0  0  0  0  0
   13.3892  -14.6788   20.3604 N   0  0  0  0  0  0  0  0  0  0  0  0
   15.0640  -15.3564   21.8950 C   0  0  0  0  0  0  0  0  0  0  0  0
   16.1768  -15.8204   22.2541 O   0  0  0  0  0  0  0  0  0  0  0  0
   14.1275  -15.1184   22.8917 O   0  0  0  0  0  0  0  0  0  0  0  0
  2  1  1  0
  3  2  1  0
  4  3  2  0
  5  3  1  0
  6 13  1  0
  6  5  1  0
  6  7  1  1
  8 12  1  0
  8  7  1  0
  9  8  2  0
 10  9  1  0
 10 11  1  0
 11 12  2  0
 13 20  1  0
 14 13  2  0
 16 15  1  0
 17 16  2  0
 18 16  1  0
 19 21  1  0
 19 18  1  1
 20 19  1  0
 21 23  1  0
 22 21  2  0
M  END
$$$$
