GHN.pdb
     RDKit          3D

 23 23  0  0  1  0  0  0  0  0999 V2000
   11.3757  -15.8529   14.0005 N   0  0  0  0  0  0  0  0  0  0  0  0
   11.2165  -16.6193   15.1960 C   0  0  0  0  0  0  0  0  0  0  0  0
   11.5952  -15.8772   16.4175 C   0  0  0  0  0  0  0  0  0  0  0  0
   12.6334  -15.1674   16.4157 O   0  0  0  0  0  0  0  0  0  0  0  0
   10.8663  -15.8983   17.6259 N   0  0  0  0  0  0  0  0  0  0  0  0
   11.1813  -15.1119   18.7822 C   0  0  1  0  0  0  0  0  0  0  0  0
   10.0732  -14.7974   19.6881 C   0  0  0  0  0  0  0  0  0  0  0  0
    8.8890  -14.1294   19.1491 C   0  0  0  0  0  0  0  0  0  0  0  0
    8.5276  -13.6596   17.9285 C   0  0  0  0  0  0  0  0  0  0  0  0
    7.2789  -13.1396   17.9886 N   0  0  0  0  0  0  0  0  0  0  0  0
    6.8741  -13.2942   19.2590 C   0  0  0  0  0  0  0  0  0  0  0  0
    7.8212  -13.8861   19.9784 N   0  0  0  0  0  0  0  0  0  0  0  0
   12.3999  -15.6166   19.4801 C   0  0  0  0  0  0  0  0  0  0  0  0
   12.6108  -16.8477   19.5904 O   0  0  0  0  0  0  0  0  0  0  0  0
   16.1467  -15.2104   18.2074 N   0  0  0  0  0  0  0  0  0  0  0  0
   16.2134  -14.1155   19.0965 C   0  0  0  0  0  0  0  0  0  0  0  0
   16.6826  -13.0325   18.6960 O   0  0  0  0  0  0  0  0  0  0  0  0
   15.7367  -14.2386   20.4862 C   0  0  0  0  0  0  0  0  0  0  0  0
   14.5835  -15.1624   20.6561 C   0  0  2  0  0  0  0  0  0  0  0  0
   13.3578  -14.7435   20.0396 N   0  0  0  0  0  0  0  0  0  0  0  0
   14.3429  -15.3363   22.1126 C   0  0  0  0  0  0  0  0  0  0  0  0
   13.2766  -14.9463   22.6543 O   0  0  0  0  0  0  0  0  0  0  0  0
   15.2863  -15.9369   22.9350 O   0  0  0  0  0  0  0  0  0  0  0  0
  2  1  1  0
  3  2  1  0
  4  3  2  0
  5  3  1  0
  6 13  1  0
  6  5  1  0
  6  7  1  1
  8 12  1  0
  8  7  1  0
  9  8  2  0
 10  9  1  0
 10 11  1  0
 11 12  2  0
 13 20  1  0
 14 13  2  0
 16 15  1  0
 17 16  2  0
 18 16  1  0
 19 21  1  0
 19 18  1  1
 20 19  1  0
 21 23  1  0
 22 21  2  0
M  END
$$$$
