GHN.pdb
     RDKit          3D

 23 23  0  0  1  0  0  0  0  0999 V2000
   14.2117  -13.5201   17.1088 N   0  0  0  0  0  0  0  0  0  0  0  0
   13.8597  -14.7837   17.6755 C   0  0  0  0  0  0  0  0  0  0  0  0
   13.1685  -14.6651   18.9772 C   0  0  0  0  0  0  0  0  0  0  0  0
   13.7400  -14.0797   19.9324 O   0  0  0  0  0  0  0  0  0  0  0  0
   11.8787  -15.1700   19.2483 N   0  0  0  0  0  0  0  0  0  0  0  0
   11.2487  -15.1496   20.5356 C   0  0  1  0  0  0  0  0  0  0  0  0
    9.7874  -15.2558   20.5568 C   0  0  0  0  0  0  0  0  0  0  0  0
    8.9989  -14.2978   19.7825 C   0  0  0  0  0  0  0  0  0  0  0  0
    9.2920  -13.2363   18.9897 C   0  0  0  0  0  0  0  0  0  0  0  0
    8.1497  -12.7060   18.4923 N   0  0  0  0  0  0  0  0  0  0  0  0
    7.1493  -13.4521   18.9865 C   0  0  0  0  0  0  0  0  0  0  0  0
    7.6303  -14.4155   19.7646 N   0  0  0  0  0  0  0  0  0  0  0  0
   11.9291  -16.0629   21.4998 C   0  0  0  0  0  0  0  0  0  0  0  0
   12.2259  -17.2358   21.1701 O   0  0  0  0  0  0  0  0  0  0  0  0
   15.1448  -16.9232   22.2610 N   0  0  0  0  0  0  0  0  0  0  0  0
   15.2910  -16.2791   23.5090 C   0  0  0  0  0  0  0  0  0  0  0  0
   16.4216  -15.8979   23.8698 O   0  0  0  0  0  0  0  0  0  0  0  0
   14.1272  -16.0538   24.3857 C   0  0  0  0  0  0  0  0  0  0  0  0
   12.8331  -16.5088   23.8108 C   0  0  2  0  0  0  0  0  0  0  0  0
   12.2655  -15.6540   22.8084 N   0  0  0  0  0  0  0  0  0  0  0  0
   11.8565  -16.6434   24.9234 C   0  0  0  0  0  0  0  0  0  0  0  0
   11.0772  -15.7052   25.2315 O   0  0  0  0  0  0  0  0  0  0  0  0
   11.7649  -17.8113   25.6683 O   0  0  0  0  0  0  0  0  0  0  0  0
  2  1  1  0
  3  2  1  0
  4  3  2  0
  5  3  1  0
  6 13  1  0
  6  5  1  0
  6  7  1  6
  8 12  1  0
  8  7  1  0
  9  8  2  0
 10  9  1  0
 10 11  1  0
 11 12  2  0
 13 20  1  0
 14 13  2  0
 16 15  1  0
 17 16  2  0
 18 16  1  0
 19 21  1  0
 19 18  1  1
 20 19  1  0
 21 23  1  0
 22 21  2  0
M  END
$$$$
