GHN.pdb
     RDKit          3D

 23 23  0  0  1  0  0  0  0  0999 V2000
    9.7236  -15.1418   12.2201 N   0  0  0  0  0  0  0  0  0  0  0  0
    9.1830  -15.8651   13.3275 C   0  0  0  0  0  0  0  0  0  0  0  0
    9.4575  -15.2237   14.6310 C   0  0  0  0  0  0  0  0  0  0  0  0
   10.5446  -14.6165   14.8074 O   0  0  0  0  0  0  0  0  0  0  0  0
    8.5736  -15.2352   15.7314 N   0  0  0  0  0  0  0  0  0  0  0  0
    8.8618  -14.6661   17.0150 C   0  0  1  0  0  0  0  0  0  0  0  0
    7.7227  -14.4475   17.9106 C   0  0  0  0  0  0  0  0  0  0  0  0
    7.9639  -13.8631   19.2294 C   0  0  0  0  0  0  0  0  0  0  0  0
    7.9931  -12.6006   19.7259 C   0  0  0  0  0  0  0  0  0  0  0  0
    8.2493  -12.6363   21.0550 N   0  0  0  0  0  0  0  0  0  0  0  0
    8.3772  -13.9342   21.3727 C   0  0  0  0  0  0  0  0  0  0  0  0
    8.2105  -14.6936   20.2956 N   0  0  0  0  0  0  0  0  0  0  0  0
   10.0193  -15.3401   17.6726 C   0  0  0  0  0  0  0  0  0  0  0  0
   10.2834  -16.5415   17.4289 O   0  0  0  0  0  0  0  0  0  0  0  0
   14.7337  -15.9796   19.7234 N   0  0  0  0  0  0  0  0  0  0  0  0
   14.5853  -14.6623   19.2370 C   0  0  0  0  0  0  0  0  0  0  0  0
   15.5890  -13.9287   19.1474 O   0  0  0  0  0  0  0  0  0  0  0  0
   13.2631  -14.1477   18.8361 C   0  0  0  0  0  0  0  0  0  0  0  0
   12.1535  -15.1249   18.9977 C   0  0  2  0  0  0  0  0  0  0  0  0
   10.8584  -14.6657   18.5858 N   0  0  0  0  0  0  0  0  0  0  0  0
   12.0830  -15.5091   20.4319 C   0  0  0  0  0  0  0  0  0  0  0  0
   11.6342  -16.6279   20.7918 O   0  0  0  0  0  0  0  0  0  0  0  0
   12.5099  -14.6479   21.4335 O   0  0  0  0  0  0  0  0  0  0  0  0
  2  1  1  0
  3  2  1  0
  4  3  2  0
  5  3  1  0
  6 13  1  0
  6  5  1  0
  6  7  1  1
  8 12  1  0
  8  7  1  0
  9  8  2  0
 10  9  1  0
 10 11  1  0
 11 12  2  0
 13 20  1  0
 14 13  2  0
 16 15  1  0
 17 16  2  0
 18 16  1  0
 19 21  1  0
 19 18  1  1
 20 19  1  0
 21 23  1  0
 22 21  2  0
M  END
$$$$
