CTD.pdb
     RDKit          3D

 22 21  0  0  1  0  0  0  0  0999 V2000
    5.3965  -12.9850   26.6610 N   0  0  0  0  0  0  0  0  0  0  0  0
    6.6844  -12.8256   26.0176 C   0  0  1  0  0  0  0  0  0  0  0  0
    7.7030  -12.5343   27.1133 C   0  0  0  0  0  0  0  0  0  0  0  0
    7.3894  -10.8543   27.7054 S   0  0  0  0  0  0  0  0  0  0  0  0
    7.0416  -14.1023   25.3406 C   0  0  0  0  0  0  0  0  0  0  0  0
    6.7417  -15.2245   25.7917 O   0  0  0  0  0  0  0  0  0  0  0  0
    6.7892  -14.3979   21.5515 C   0  0  0  0  0  0  0  0  0  0  0  0
    8.1235  -14.9903   21.9318 C   0  0  1  0  0  0  0  0  0  0  0  0
    9.1068  -14.0395   21.6741 O   0  0  0  0  0  0  0  0  0  0  0  0
    8.1835  -15.2786   23.4344 C   0  0  2  0  0  0  0  0  0  0  0  0
    7.7675  -14.0735   24.1051 N   0  0  0  0  0  0  0  0  0  0  0  0
    9.5446  -15.6278   23.8509 C   0  0  0  0  0  0  0  0  0  0  0  0
   10.3414  -14.7638   24.2676 O   0  0  0  0  0  0  0  0  0  0  0  0
   10.0058  -16.9741   23.7935 N   0  0  0  0  0  0  0  0  0  0  0  0
   11.3252  -17.3715   24.1932 C   0  0  1  0  0  0  0  0  0  0  0  0
   11.4454  -18.8182   24.5477 C   0  0  0  0  0  0  0  0  0  0  0  0
   12.7768  -19.2682   24.9173 C   0  0  0  0  0  0  0  0  0  0  0  0
   13.0567  -19.4580   26.1241 O   0  0  0  0  0  0  0  0  0  0  0  0
   12.3203  -16.8989   23.2317 C   0  0  0  0  0  0  0  0  0  0  0  0
   13.6110  -16.5607   23.5976 O   0  0  0  0  0  0  0  0  0  0  0  0
   13.7779  -19.5051   23.9934 O   0  0  0  0  0  0  0  0  0  0  0  0
   12.0164  -16.7871   22.0224 O   0  0  0  0  0  0  0  0  0  0  0  0
  2  1  1  1
  2  5  1  0
  2  3  1  0
  4  3  1  0
  5 11  1  0
  6  5  2  0
  8  7  1  1
  8  9  1  0
 10  8  1  0
 10 12  1  0
 10 11  1  1
 12 13  2  0
 12 14  1  0
 14 15  1  0
 15 16  1  6
 17 16  1  0
 17 21  1  0
 18 17  2  0
 19 15  1  0
 19 20  1  0
 22 19  2  0
M  END
$$$$
