CTD.pdb
     RDKit          3D

 22 21  0  0  1  0  0  0  0  0999 V2000
    9.2873  -15.5012   14.5974 N   0  0  0  0  0  0  0  0  0  0  0  0
    8.7709  -16.0468   15.8358 C   0  0  1  0  0  0  0  0  0  0  0  0
    9.1243  -17.5291   15.8579 C   0  0  0  0  0  0  0  0  0  0  0  0
    8.4295  -18.2245   17.3761 S   0  0  0  0  0  0  0  0  0  0  0  0
    9.4424  -15.3639   16.9755 C   0  0  0  0  0  0  0  0  0  0  0  0
   10.6500  -15.0567   16.9750 O   0  0  0  0  0  0  0  0  0  0  0  0
    7.5400  -12.6174   19.2711 C   0  0  0  0  0  0  0  0  0  0  0  0
    8.1664  -13.7277   20.0777 C   0  0  1  0  0  0  0  0  0  0  0  0
    7.1987  -14.7053   20.2904 O   0  0  0  0  0  0  0  0  0  0  0  0
    9.2962  -14.4007   19.2932 C   0  0  2  0  0  0  0  0  0  0  0  0
    8.6891  -15.0290   18.1479 N   0  0  0  0  0  0  0  0  0  0  0  0
    9.9738  -15.4135   20.1076 C   0  0  0  0  0  0  0  0  0  0  0  0
    9.7593  -16.6312   19.9460 O   0  0  0  0  0  0  0  0  0  0  0  0
   10.9058  -15.0385   21.1172 N   0  0  0  0  0  0  0  0  0  0  0  0
   11.5893  -15.9872   21.9485 C   0  0  1  0  0  0  0  0  0  0  0  0
   13.0165  -15.6402   22.2240 C   0  0  0  0  0  0  0  0  0  0  0  0
   13.7576  -16.6046   23.0192 C   0  0  0  0  0  0  0  0  0  0  0  0
   13.8054  -16.4780   24.2652 O   0  0  0  0  0  0  0  0  0  0  0  0
   10.7994  -16.2928   23.1404 C   0  0  0  0  0  0  0  0  0  0  0  0
   10.9473  -17.4693   23.8533 O   0  0  0  0  0  0  0  0  0  0  0  0
   14.4297  -17.6804   22.4689 O   0  0  0  0  0  0  0  0  0  0  0  0
    9.9483  -15.4725   23.5527 O   0  0  0  0  0  0  0  0  0  0  0  0
  2  1  1  6
  2  5  1  0
  2  3  1  0
  4  3  1  0
  5 11  1  0
  6  5  2  0
  8  7  1  6
  8  9  1  0
 10  8  1  0
 10 12  1  0
 10 11  1  6
 12 13  2  0
 12 14  1  0
 14 15  1  0
 15 16  1  1
 17 16  1  0
 17 21  1  0
 18 17  2  0
 19 15  1  0
 19 20  1  0
 22 19  2  0
M  END
$$$$
