CTD.pdb
     RDKit          3D

 22 21  0  0  1  0  0  0  0  0999 V2000
    5.3108  -13.1907   26.2750 N   0  0  0  0  0  0  0  0  0  0  0  0
    6.5358  -12.8942   25.5613 C   0  0  1  0  0  0  0  0  0  0  0  0
    7.4958  -12.2563   26.5585 C   0  0  0  0  0  0  0  0  0  0  0  0
    6.7987  -10.6539   27.0253 S   0  0  0  0  0  0  0  0  0  0  0  0
    7.1195  -14.1700   25.0636 C   0  0  0  0  0  0  0  0  0  0  0  0
    7.1051  -15.2311   25.7168 O   0  0  0  0  0  0  0  0  0  0  0  0
    6.7446  -14.8271   21.2664 C   0  0  0  0  0  0  0  0  0  0  0  0
    8.1237  -15.2829   21.6741 C   0  0  1  0  0  0  0  0  0  0  0  0
    9.0284  -14.2837   21.3268 O   0  0  0  0  0  0  0  0  0  0  0  0
    8.2178  -15.4425   23.1940 C   0  0  2  0  0  0  0  0  0  0  0  0
    7.7370  -14.2133   23.7710 N   0  0  0  0  0  0  0  0  0  0  0  0
    9.6021  -15.6747   23.6157 C   0  0  0  0  0  0  0  0  0  0  0  0
   10.3489  -14.7337   23.9502 O   0  0  0  0  0  0  0  0  0  0  0  0
   10.1444  -16.9910   23.6578 N   0  0  0  0  0  0  0  0  0  0  0  0
   11.4813  -17.2777   24.0922 C   0  0  1  0  0  0  0  0  0  0  0  0
   11.6691  -18.6655   24.6135 C   0  0  0  0  0  0  0  0  0  0  0  0
   11.4479  -18.8387   26.0393 C   0  0  0  0  0  0  0  0  0  0  0  0
   11.2323  -17.8375   26.7616 O   0  0  0  0  0  0  0  0  0  0  0  0
   12.4520  -16.8765   23.0749 C   0  0  0  0  0  0  0  0  0  0  0  0
   13.7551  -16.5273   23.3821 O   0  0  0  0  0  0  0  0  0  0  0  0
   11.4615  -20.0734   26.6615 O   0  0  0  0  0  0  0  0  0  0  0  0
   12.1145  -16.8395   21.8699 O   0  0  0  0  0  0  0  0  0  0  0  0
  2  1  1  1
  2  5  1  0
  2  3  1  0
  4  3  1  0
  5 11  1  0
  6  5  2  0
  8  7  1  1
  8  9  1  0
 10  8  1  0
 10 12  1  0
 10 11  1  1
 12 13  2  0
 12 14  1  0
 14 15  1  0
 15 16  1  6
 17 16  1  0
 17 21  1  0
 18 17  2  0
 19 15  1  0
 19 20  1  0
 22 19  2  0
M  END
$$$$
