CTD.pdb
     RDKit          3D

 22 21  0  0  1  0  0  0  0  0999 V2000
    8.0671  -13.8734   15.9486 N   0  0  0  0  0  0  0  0  0  0  0  0
    7.9774  -14.9492   16.9144 C   0  0  1  0  0  0  0  0  0  0  0  0
    8.6934  -16.1540   16.3155 C   0  0  0  0  0  0  0  0  0  0  0  0
    7.5061  -17.0114   15.2541 S   0  0  0  0  0  0  0  0  0  0  0  0
    8.6756  -14.5315   18.1610 C   0  0  0  0  0  0  0  0  0  0  0  0
    9.6716  -13.7827   18.1707 O   0  0  0  0  0  0  0  0  0  0  0  0
    6.9391  -12.9448   21.0242 C   0  0  0  0  0  0  0  0  0  0  0  0
    7.6587  -14.1433   21.5913 C   0  0  1  0  0  0  0  0  0  0  0  0
    6.7611  -15.2065   21.6306 O   0  0  0  0  0  0  0  0  0  0  0  0
    8.8034  -14.5773   20.6715 C   0  0  2  0  0  0  0  0  0  0  0  0
    8.2028  -14.9973   19.4313 N   0  0  0  0  0  0  0  0  0  0  0  0
    9.5559  -15.6914   21.2550 C   0  0  0  0  0  0  0  0  0  0  0  0
    9.3335  -16.8731   20.9247 O   0  0  0  0  0  0  0  0  0  0  0  0
   10.5730  -15.4603   22.2250 N   0  0  0  0  0  0  0  0  0  0  0  0
   11.2732  -16.5165   22.8977 C   0  0  1  0  0  0  0  0  0  0  0  0
   12.7600  -16.3675   22.8852 C   0  0  0  0  0  0  0  0  0  0  0  0
   13.5005  -17.3708   23.6313 C   0  0  0  0  0  0  0  0  0  0  0  0
   13.2639  -18.5870   23.4425 O   0  0  0  0  0  0  0  0  0  0  0  0
   10.6996  -16.7551   24.2214 C   0  0  0  0  0  0  0  0  0  0  0  0
   10.9400  -17.9112   24.9425 O   0  0  0  0  0  0  0  0  0  0  0  0
   14.4747  -17.0552   24.5604 O   0  0  0  0  0  0  0  0  0  0  0  0
    9.9577  -15.8934   24.7450 O   0  0  0  0  0  0  0  0  0  0  0  0
  2  1  1  6
  2  5  1  0
  2  3  1  0
  4  3  1  0
  5 11  1  0
  6  5  2  0
  8  7  1  6
  8  9  1  0
 10  8  1  0
 10 12  1  0
 10 11  1  6
 12 13  2  0
 12 14  1  0
 14 15  1  0
 15 16  1  1
 17 16  1  0
 17 21  1  0
 18 17  2  0
 19 15  1  0
 19 20  1  0
 22 19  2  0
M  END
$$$$
