CTD.pdb
     RDKit          3D

 22 21  0  0  1  0  0  0  0  0999 V2000
    9.1759  -15.5701   15.2199 N   0  0  0  0  0  0  0  0  0  0  0  0
    8.4677  -15.9211   16.4337 C   0  0  1  0  0  0  0  0  0  0  0  0
    8.5239  -17.4384   16.5662 C   0  0  0  0  0  0  0  0  0  0  0  0
   10.2323  -17.8799   16.9632 S   0  0  0  0  0  0  0  0  0  0  0  0
    9.1672  -15.2999   17.5916 C   0  0  0  0  0  0  0  0  0  0  0  0
   10.3277  -14.8502   17.5303 O   0  0  0  0  0  0  0  0  0  0  0  0
    7.6959  -12.5464   19.8255 C   0  0  0  0  0  0  0  0  0  0  0  0
    8.0562  -13.7329   20.6847 C   0  0  1  0  0  0  0  0  0  0  0  0
    6.9251  -14.5343   20.8098 O   0  0  0  0  0  0  0  0  0  0  0  0
    9.1237  -14.5943   20.0043 C   0  0  2  0  0  0  0  0  0  0  0  0
    8.4991  -15.1986   18.8555 N   0  0  0  0  0  0  0  0  0  0  0  0
    9.6106  -15.6417   20.9065 C   0  0  0  0  0  0  0  0  0  0  0  0
    9.1950  -16.8149   20.8289 O   0  0  0  0  0  0  0  0  0  0  0  0
   10.5809  -15.3530   21.9084 N   0  0  0  0  0  0  0  0  0  0  0  0
   11.1044  -16.3431   22.8051 C   0  0  1  0  0  0  0  0  0  0  0  0
   12.5048  -16.0792   23.2550 C   0  0  0  0  0  0  0  0  0  0  0  0
   13.4913  -15.9405   22.1971 C   0  0  0  0  0  0  0  0  0  0  0  0
   13.3254  -16.5402   21.1092 O   0  0  0  0  0  0  0  0  0  0  0  0
   10.1600  -16.6087   23.8894 C   0  0  0  0  0  0  0  0  0  0  0  0
    9.0767  -15.7897   24.1539 O   0  0  0  0  0  0  0  0  0  0  0  0
   14.6304  -15.1668   22.3228 O   0  0  0  0  0  0  0  0  0  0  0  0
   10.3163  -17.6117   24.6220 O   0  0  0  0  0  0  0  0  0  0  0  0
  2  1  1  6
  2  5  1  0
  2  3  1  0
  4  3  1  0
  5 11  1  0
  6  5  2  0
  8  7  1  6
  8  9  1  0
 10  8  1  0
 10 12  1  0
 10 11  1  6
 12 13  2  0
 12 14  1  0
 14 15  1  0
 15 16  1  1
 17 16  1  0
 17 21  1  0
 18 17  2  0
 19 15  1  0
 19 20  1  0
 22 19  2  0
M  END
$$$$
