CTD.pdb
     RDKit          3D

 22 21  0  0  1  0  0  0  0  0999 V2000
    8.5379  -12.6345   19.1864 N   0  0  0  0  0  0  0  0  0  0  0  0
    7.7086  -13.5498   19.9430 C   0  0  1  0  0  0  0  0  0  0  0  0
    7.7807  -14.9040   19.2476 C   0  0  0  0  0  0  0  0  0  0  0  0
    6.8560  -14.7628   17.6996 S   0  0  0  0  0  0  0  0  0  0  0  0
    8.2647  -13.6727   21.3184 C   0  0  0  0  0  0  0  0  0  0  0  0
    9.4824  -13.6042   21.5739 O   0  0  0  0  0  0  0  0  0  0  0  0
    7.0744  -14.2750   26.1276 C   0  0  0  0  0  0  0  0  0  0  0  0
    6.6768  -13.9695   24.7047 C   0  0  1  0  0  0  0  0  0  0  0  0
    6.3010  -12.6308   24.6398 O   0  0  0  0  0  0  0  0  0  0  0  0
    7.8702  -14.1302   23.7589 C   0  0  2  0  0  0  0  0  0  0  0  0
    7.3808  -13.8809   22.4272 N   0  0  0  0  0  0  0  0  0  0  0  0
    8.4239  -15.4852   23.8332 C   0  0  0  0  0  0  0  0  0  0  0  0
    8.3266  -16.2830   22.8799 O   0  0  0  0  0  0  0  0  0  0  0  0
    9.0959  -15.9389   25.0042 N   0  0  0  0  0  0  0  0  0  0  0  0
   10.0071  -17.0471   25.0088 C   0  0  1  0  0  0  0  0  0  0  0  0
   11.1100  -16.9342   24.0067 C   0  0  0  0  0  0  0  0  0  0  0  0
   12.0972  -18.0002   24.0330 C   0  0  0  0  0  0  0  0  0  0  0  0
   11.7324  -19.1899   23.8839 O   0  0  0  0  0  0  0  0  0  0  0  0
   10.4532  -17.3431   26.3694 C   0  0  0  0  0  0  0  0  0  0  0  0
   10.4509  -16.3969   27.3789 O   0  0  0  0  0  0  0  0  0  0  0  0
   13.4488  -17.7740   24.2173 O   0  0  0  0  0  0  0  0  0  0  0  0
   10.8582  -18.4920   26.6578 O   0  0  0  0  0  0  0  0  0  0  0  0
  2  1  1  6
  2  5  1  0
  2  3  1  0
  4  3  1  0
  5 11  1  0
  6  5  2  0
  8  7  1  1
  8  9  1  0
 10  8  1  0
 10 12  1  0
 10 11  1  6
 12 13  2  0
 12 14  1  0
 14 15  1  0
 15 16  1  6
 17 16  1  0
 17 21  1  0
 18 17  2  0
 19 15  1  0
 19 20  1  0
 22 19  2  0
M  END
$$$$
