CTD.pdb
     RDKit          3D

 22 21  0  0  1  0  0  0  0  0999 V2000
    7.6193  -12.7856   17.7093 N   0  0  0  0  0  0  0  0  0  0  0  0
    7.8418  -14.2053   17.8905 C   0  0  1  0  0  0  0  0  0  0  0  0
    9.1328  -14.5564   17.1606 C   0  0  0  0  0  0  0  0  0  0  0  0
    8.7035  -14.8736   15.4324 S   0  0  0  0  0  0  0  0  0  0  0  0
    8.0076  -14.4813   19.3439 C   0  0  0  0  0  0  0  0  0  0  0  0
    8.5272  -13.6752   20.1395 O   0  0  0  0  0  0  0  0  0  0  0  0
    6.5054  -17.4251   23.0420 C   0  0  0  0  0  0  0  0  0  0  0  0
    6.4720  -16.9872   21.5987 C   0  0  1  0  0  0  0  0  0  0  0  0
    5.2900  -16.2827   21.3889 O   0  0  0  0  0  0  0  0  0  0  0  0
    7.6151  -16.0138   21.2980 C   0  0  2  0  0  0  0  0  0  0  0  0
    7.5570  -15.7286   19.8871 N   0  0  0  0  0  0  0  0  0  0  0  0
    8.9142  -16.6076   21.6261 C   0  0  0  0  0  0  0  0  0  0  0  0
    9.4172  -17.5062   20.9229 O   0  0  0  0  0  0  0  0  0  0  0  0
    9.6504  -16.1755   22.7662 N   0  0  0  0  0  0  0  0  0  0  0  0
   10.9091  -16.7456   23.1524 C   0  0  1  0  0  0  0  0  0  0  0  0
   12.0640  -15.8033   23.0460 C   0  0  0  0  0  0  0  0  0  0  0  0
   13.3659  -16.3628   23.3681 C   0  0  0  0  0  0  0  0  0  0  0  0
   13.7313  -17.4360   22.8338 O   0  0  0  0  0  0  0  0  0  0  0  0
   10.7954  -17.4208   24.4444 C   0  0  0  0  0  0  0  0  0  0  0  0
    9.7184  -17.2341   25.2927 O   0  0  0  0  0  0  0  0  0  0  0  0
   14.2471  -15.7663   24.2509 O   0  0  0  0  0  0  0  0  0  0  0  0
   11.6962  -18.2044   24.8208 O   0  0  0  0  0  0  0  0  0  0  0  0
  2  1  1  1
  2  5  1  0
  2  3  1  0
  4  3  1  0
  5 11  1  0
  6  5  2  0
  8  7  1  1
  8  9  1  0
 10  8  1  0
 10 12  1  0
 10 11  1  6
 12 13  2  0
 12 14  1  0
 14 15  1  0
 15 16  1  1
 17 16  1  0
 17 21  1  0
 18 17  2  0
 19 15  1  0
 19 20  1  0
 22 19  2  0
M  END
$$$$
