CTD.pdb
     RDKit          3D

 22 21  0  0  1  0  0  0  0  0999 V2000
    5.3691  -13.6871   26.5105 N   0  0  0  0  0  0  0  0  0  0  0  0
    6.3370  -13.1124   25.5989 C   0  0  1  0  0  0  0  0  0  0  0  0
    7.4594  -12.5234   26.4450 C   0  0  0  0  0  0  0  0  0  0  0  0
    6.8067  -11.0380   27.2443 S   0  0  0  0  0  0  0  0  0  0  0  0
    6.8860  -14.1966   24.7391 C   0  0  0  0  0  0  0  0  0  0  0  0
    7.1632  -15.3345   25.1646 O   0  0  0  0  0  0  0  0  0  0  0  0
    8.3782  -13.1166   20.9352 C   0  0  0  0  0  0  0  0  0  0  0  0
    7.5893  -14.3973   21.0508 C   0  0  1  0  0  0  0  0  0  0  0  0
    8.1821  -15.3454   20.2218 O   0  0  0  0  0  0  0  0  0  0  0  0
    7.6659  -14.9580   22.4735 C   0  0  2  0  0  0  0  0  0  0  0  0
    7.1190  -13.9510   23.3465 N   0  0  0  0  0  0  0  0  0  0  0  0
    9.0524  -15.2395   22.8560 C   0  0  0  0  0  0  0  0  0  0  0  0
    9.7483  -14.3956   23.4549 O   0  0  0  0  0  0  0  0  0  0  0  0
    9.6554  -16.4941   22.5547 N   0  0  0  0  0  0  0  0  0  0  0  0
   11.0020  -16.8279   22.9204 C   0  0  1  0  0  0  0  0  0  0  0  0
   11.1080  -17.9590   23.8913 C   0  0  0  0  0  0  0  0  0  0  0  0
   11.9034  -17.6978   25.0791 C   0  0  0  0  0  0  0  0  0  0  0  0
   12.5223  -16.6134   25.1874 O   0  0  0  0  0  0  0  0  0  0  0  0
   11.8399  -16.9706   21.7306 C   0  0  0  0  0  0  0  0  0  0  0  0
   11.3289  -16.9151   20.4460 O   0  0  0  0  0  0  0  0  0  0  0  0
   12.0207  -18.5973   26.1227 O   0  0  0  0  0  0  0  0  0  0  0  0
   13.0726  -17.1513   21.8530 O   0  0  0  0  0  0  0  0  0  0  0  0
  2  1  1  1
  2  5  1  0
  2  3  1  0
  4  3  1  0
  5 11  1  0
  6  5  2  0
  8  7  1  1
  8  9  1  0
 10  8  1  0
 10 12  1  0
 10 11  1  1
 12 13  2  0
 12 14  1  0
 14 15  1  0
 15 16  1  6
 17 16  1  0
 17 21  1  0
 18 17  2  0
 19 15  1  0
 19 20  1  0
 22 19  2  0
M  END
$$$$
