CTD.pdb
     RDKit          3D

 22 21  0  0  1  0  0  0  0  0999 V2000
    8.9203  -16.8335   16.3025 N   0  0  0  0  0  0  0  0  0  0  0  0
    7.9763  -16.7101   17.3942 C   0  0  1  0  0  0  0  0  0  0  0  0
    7.4735  -18.1122   17.7165 C   0  0  0  0  0  0  0  0  0  0  0  0
    7.7440  -18.3869   19.4836 S   0  0  0  0  0  0  0  0  0  0  0  0
    8.6867  -16.1575   18.5800 C   0  0  0  0  0  0  0  0  0  0  0  0
    9.9218  -16.2238   18.7312 O   0  0  0  0  0  0  0  0  0  0  0  0
    7.1935  -12.9119   20.3939 C   0  0  0  0  0  0  0  0  0  0  0  0
    7.5885  -13.9639   21.4005 C   0  0  1  0  0  0  0  0  0  0  0  0
    6.4499  -14.6926   21.7322 O   0  0  0  0  0  0  0  0  0  0  0  0
    8.5767  -14.9604   20.7881 C   0  0  2  0  0  0  0  0  0  0  0  0
    7.9406  -15.5100   19.6183 N   0  0  0  0  0  0  0  0  0  0  0  0
    8.8901  -16.0391   21.7294 C   0  0  0  0  0  0  0  0  0  0  0  0
    8.5742  -17.2224   21.4947 O   0  0  0  0  0  0  0  0  0  0  0  0
    9.5704  -15.7705   22.9516 N   0  0  0  0  0  0  0  0  0  0  0  0
   10.4795  -16.6951   23.5657 C   0  0  1  0  0  0  0  0  0  0  0  0
   11.6192  -17.1031   22.6895 C   0  0  0  0  0  0  0  0  0  0  0  0
   12.5860  -18.0054   23.2919 C   0  0  0  0  0  0  0  0  0  0  0  0
   12.2367  -19.1641   23.6176 O   0  0  0  0  0  0  0  0  0  0  0  0
   10.8740  -16.2265   24.8934 C   0  0  0  0  0  0  0  0  0  0  0  0
   10.4509  -15.0169   25.4150 O   0  0  0  0  0  0  0  0  0  0  0  0
   13.9009  -17.6524   23.5330 O   0  0  0  0  0  0  0  0  0  0  0  0
   11.6246  -16.9304   25.6065 O   0  0  0  0  0  0  0  0  0  0  0  0
  2  1  1  6
  2  5  1  0
  2  3  1  0
  4  3  1  0
  5 11  1  0
  6  5  2  0
  8  7  1  6
  8  9  1  0
 10  8  1  0
 10 12  1  0
 10 11  1  6
 12 13  2  0
 12 14  1  0
 14 15  1  0
 15 16  1  6
 17 16  1  0
 17 21  1  0
 18 17  2  0
 19 15  1  0
 19 20  1  0
 22 19  2  0
M  END
$$$$
