CTD.pdb
     RDKit          3D

 22 21  0  0  1  0  0  0  0  0999 V2000
    5.2492  -13.2584   26.5280 N   0  0  0  0  0  0  0  0  0  0  0  0
    6.4065  -12.8508   25.7581 C   0  0  1  0  0  0  0  0  0  0  0  0
    7.4578  -12.3631   26.7479 C   0  0  0  0  0  0  0  0  0  0  0  0
    6.8479  -10.8170   27.4612 S   0  0  0  0  0  0  0  0  0  0  0  0
    6.9330  -14.0340   25.0242 C   0  0  0  0  0  0  0  0  0  0  0  0
    7.0032  -15.1740   25.5224 O   0  0  0  0  0  0  0  0  0  0  0  0
    8.7397  -13.4146   21.1668 C   0  0  0  0  0  0  0  0  0  0  0  0
    7.8434  -14.5967   21.4416 C   0  0  1  0  0  0  0  0  0  0  0  0
    8.3266  -15.6821   20.7164 O   0  0  0  0  0  0  0  0  0  0  0  0
    7.9089  -14.9988   22.9176 C   0  0  2  0  0  0  0  0  0  0  0  0
    7.3905  -13.8877   23.6738 N   0  0  0  0  0  0  0  0  0  0  0  0
    9.2887  -15.2723   23.3294 C   0  0  0  0  0  0  0  0  0  0  0  0
   10.0279  -14.3715   23.7732 O   0  0  0  0  0  0  0  0  0  0  0  0
    9.8348  -16.5844   23.2361 N   0  0  0  0  0  0  0  0  0  0  0  0
   11.1981  -16.8939   23.5584 C   0  0  1  0  0  0  0  0  0  0  0  0
   11.3766  -18.1973   24.2673 C   0  0  0  0  0  0  0  0  0  0  0  0
   11.0485  -18.1952   25.6829 C   0  0  0  0  0  0  0  0  0  0  0  0
   11.1848  -17.1440   26.3516 O   0  0  0  0  0  0  0  0  0  0  0  0
   12.0580  -16.7179   22.3889 C   0  0  0  0  0  0  0  0  0  0  0  0
   11.5581  -16.6146   21.1029 O   0  0  0  0  0  0  0  0  0  0  0  0
   10.5833  -19.3120   26.3524 O   0  0  0  0  0  0  0  0  0  0  0  0
   13.3002  -16.6552   22.5309 O   0  0  0  0  0  0  0  0  0  0  0  0
  2  1  1  1
  2  5  1  0
  2  3  1  0
  4  3  1  0
  5 11  1  0
  6  5  2  0
  8  7  1  1
  8  9  1  0
 10  8  1  0
 10 12  1  0
 10 11  1  1
 12 13  2  0
 12 14  1  0
 14 15  1  0
 15 16  1  6
 17 16  1  0
 17 21  1  0
 18 17  2  0
 19 15  1  0
 19 20  1  0
 22 19  2  0
M  END
$$$$
