CTD.pdb
     RDKit          3D

 22 21  0  0  1  0  0  0  0  0999 V2000
    8.5879  -17.7993   15.2770 N   0  0  0  0  0  0  0  0  0  0  0  0
    7.6551  -17.1666   16.1867 C   0  0  1  0  0  0  0  0  0  0  0  0
    6.9044  -18.2790   16.9090 C   0  0  0  0  0  0  0  0  0  0  0  0
    8.1210  -19.2144   17.8662 S   0  0  0  0  0  0  0  0  0  0  0  0
    8.4239  -16.3668   17.1794 C   0  0  0  0  0  0  0  0  0  0  0  0
    9.6690  -16.3297   17.2129 O   0  0  0  0  0  0  0  0  0  0  0  0
    8.0323  -12.7685   20.5873 C   0  0  0  0  0  0  0  0  0  0  0  0
    7.4243  -13.6639   19.5364 C   0  0  1  0  0  0  0  0  0  0  0  0
    7.1641  -12.8905   18.4088 O   0  0  0  0  0  0  0  0  0  0  0  0
    8.4176  -14.7444   19.1001 C   0  0  2  0  0  0  0  0  0  0  0  0
    7.7259  -15.5888   18.1600 N   0  0  0  0  0  0  0  0  0  0  0  0
    8.8630  -15.5449   20.2441 C   0  0  0  0  0  0  0  0  0  0  0  0
    8.2340  -16.5544   20.6187 O   0  0  0  0  0  0  0  0  0  0  0  0
   10.0367  -15.1946   20.9710 N   0  0  0  0  0  0  0  0  0  0  0  0
   10.5547  -15.9794   22.0545 C   0  0  1  0  0  0  0  0  0  0  0  0
   12.0269  -15.8327   22.2649 C   0  0  0  0  0  0  0  0  0  0  0  0
   12.5961  -16.6451   23.3268 C   0  0  0  0  0  0  0  0  0  0  0  0
   11.9408  -16.8455   24.3762 O   0  0  0  0  0  0  0  0  0  0  0  0
    9.7490  -15.7907   23.2601 C   0  0  0  0  0  0  0  0  0  0  0  0
    9.1946  -14.5708   23.6048 O   0  0  0  0  0  0  0  0  0  0  0  0
   13.8489  -17.2245   23.2459 O   0  0  0  0  0  0  0  0  0  0  0  0
    9.5379  -16.7568   24.0277 O   0  0  0  0  0  0  0  0  0  0  0  0
  2  1  1  6
  2  5  1  0
  2  3  1  0
  4  3  1  0
  5 11  1  0
  6  5  2  0
  8  7  1  1
  8  9  1  0
 10  8  1  0
 10 12  1  0
 10 11  1  6
 12 13  2  0
 12 14  1  0
 14 15  1  0
 15 16  1  1
 17 16  1  0
 17 21  1  0
 18 17  2  0
 19 15  1  0
 19 20  1  0
 22 19  2  0
M  END
$$$$
