AGH.pdb
     RDKit          3D

 20 20  0  0  1  0  0  0  0  0999 V2000
   28.8009  -22.9488  -19.3497 C   0  0  0  0  0  0  0  0  0  0  0  0
   29.3968  -22.6376  -18.0078 C   0  0  2  0  0  0  0  0  0  0  0  0
   29.3921  -23.8135  -17.1797 N   0  0  0  0  0  0  0  0  0  0  0  0
   28.6431  -21.5523  -17.3125 C   0  0  0  0  0  0  0  0  0  0  0  0
   28.5486  -20.3913  -17.7893 O   0  0  0  0  0  0  0  0  0  0  0  0
   28.0006  -21.8005  -16.0739 N   0  0  0  0  0  0  0  0  0  0  0  0
   27.2857  -20.7576  -15.4077 C   0  0  0  0  0  0  0  0  0  0  0  0
   25.9513  -21.2299  -14.9021 C   0  0  0  0  0  0  0  0  0  0  0  0
   25.5391  -22.3901  -15.0737 O   0  0  0  0  0  0  0  0  0  0  0  0
   25.1110  -20.3272  -14.1958 N   0  0  0  0  0  0  0  0  0  0  0  0
   23.8809  -20.6987  -13.5692 C   0  0  1  0  0  0  0  0  0  0  0  0
   23.5750  -19.8357  -12.3517 C   0  0  0  0  0  0  0  0  0  0  0  0
   22.3145  -20.2104  -11.6970 C   0  0  0  0  0  0  0  0  0  0  0  0
   21.6686  -21.4273  -11.7530 C   0  0  0  0  0  0  0  0  0  0  0  0
   20.5413  -21.3319  -11.0031 N   0  0  0  0  0  0  0  0  0  0  0  0
   20.4791  -20.0994  -10.4930 C   0  0  0  0  0  0  0  0  0  0  0  0
   21.5637  -19.4126  -10.9171 N   0  0  0  0  0  0  0  0  0  0  0  0
   22.7180  -20.6306  -14.4682 C   0  0  0  0  0  0  0  0  0  0  0  0
   21.6960  -21.3224  -14.2749 O   0  0  0  0  0  0  0  0  0  0  0  0
   22.7430  -19.7832  -15.5595 O   0  0  0  0  0  0  0  0  0  0  0  0
  2  1  1  6
  3  2  1  0
  4  5  2  0
  4  2  1  0
  6  4  1  0
  7  6  1  0
  8 10  1  0
  8  7  1  0
  9  8  2  0
 11 10  1  0
 11 12  1  1
 12 13  1  0
 13 17  1  0
 13 14  2  0
 14 15  1  0
 16 15  1  0
 17 16  2  0
 18 11  1  0
 19 18  2  0
 20 18  1  0
M  END
$$$$
