AGH.pdb
     RDKit          3D

 20 20  0  0  1  0  0  0  0  0999 V2000
   22.2225  -14.2033  -20.3992 C   0  0  0  0  0  0  0  0  0  0  0  0
   22.0160  -12.7462  -20.1044 C   0  0  2  0  0  0  0  0  0  0  0  0
   23.2844  -12.0949  -19.9162 N   0  0  0  0  0  0  0  0  0  0  0  0
   21.1833  -12.5478  -18.8810 C   0  0  0  0  0  0  0  0  0  0  0  0
   19.9936  -12.9521  -18.8080 O   0  0  0  0  0  0  0  0  0  0  0  0
   21.7160  -11.8872  -17.7459 N   0  0  0  0  0  0  0  0  0  0  0  0
   20.8901  -11.6190  -16.6109 C   0  0  0  0  0  0  0  0  0  0  0  0
   21.4204  -10.4756  -15.7919 C   0  0  0  0  0  0  0  0  0  0  0  0
   20.9801  -10.1949  -14.6638 O   0  0  0  0  0  0  0  0  0  0  0  0
   22.4693   -9.6696  -16.3117 N   0  0  0  0  0  0  0  0  0  0  0  0
   23.0198   -8.5356  -15.6376 C   0  0  1  0  0  0  0  0  0  0  0  0
   24.4472   -8.2427  -16.0815 C   0  0  0  0  0  0  0  0  0  0  0  0
   25.3468   -9.3861  -15.8789 C   0  0  0  0  0  0  0  0  0  0  0  0
   25.0955  -10.5350  -15.1592 C   0  0  0  0  0  0  0  0  0  0  0  0
   26.1993  -11.3211  -15.2367 N   0  0  0  0  0  0  0  0  0  0  0  0
   27.1132  -10.6903  -15.9784 C   0  0  0  0  0  0  0  0  0  0  0  0
   26.5923   -9.5063  -16.3717 N   0  0  0  0  0  0  0  0  0  0  0  0
   22.2344   -7.3044  -15.8187 C   0  0  0  0  0  0  0  0  0  0  0  0
   21.2474   -7.2605  -16.5833 O   0  0  0  0  0  0  0  0  0  0  0  0
   22.5863   -6.1585  -15.1312 O   0  0  0  0  0  0  0  0  0  0  0  0
  2  1  1  1
  3  2  1  0
  4  5  2  0
  4  2  1  0
  6  4  1  0
  7  6  1  0
  8 10  1  0
  8  7  1  0
  9  8  2  0
 11 10  1  0
 11 12  1  6
 12 13  1  0
 13 17  1  0
 13 14  2  0
 14 15  1  0
 16 15  1  0
 17 16  2  0
 18 11  1  0
 19 18  2  0
 20 18  1  0
M  END
$$$$
