AGH.pdb
     RDKit          3D

 20 20  0  0  1  0  0  0  0  0999 V2000
   15.8161  -24.8025   -3.3247 C   0  0  0  0  0  0  0  0  0  0  0  0
   14.5760  -23.9636   -3.2198 C   0  0  2  0  0  0  0  0  0  0  0  0
   14.8076  -22.6645   -3.7918 N   0  0  0  0  0  0  0  0  0  0  0  0
   14.1456  -23.7979   -1.7996 C   0  0  0  0  0  0  0  0  0  0  0  0
   13.5972  -24.7283   -1.1533 O   0  0  0  0  0  0  0  0  0  0  0  0
   14.3450  -22.5676   -1.1250 N   0  0  0  0  0  0  0  0  0  0  0  0
   13.9332  -22.4129    0.2348 C   0  0  0  0  0  0  0  0  0  0  0  0
   15.1016  -22.1667    1.1476 C   0  0  0  0  0  0  0  0  0  0  0  0
   16.2783  -22.1569    0.7467 O   0  0  0  0  0  0  0  0  0  0  0  0
   14.8724  -21.9333    2.5307 N   0  0  0  0  0  0  0  0  0  0  0  0
   15.9065  -21.6771    3.4839 C   0  0  1  0  0  0  0  0  0  0  0  0
   16.5767  -20.3288    3.2532 C   0  0  0  0  0  0  0  0  0  0  0  0
   15.6517  -19.2014    3.4302 C   0  0  0  0  0  0  0  0  0  0  0  0
   14.6748  -19.0600    4.3929 C   0  0  0  0  0  0  0  0  0  0  0  0
   14.0589  -17.8685    4.1849 N   0  0  0  0  0  0  0  0  0  0  0  0
   14.6272  -17.2803    3.1294 C   0  0  0  0  0  0  0  0  0  0  0  0
   15.6019  -18.0952    2.6670 N   0  0  0  0  0  0  0  0  0  0  0  0
   15.4424  -21.7119    4.8799 C   0  0  0  0  0  0  0  0  0  0  0  0
   14.2320  -21.8227    5.1678 O   0  0  0  0  0  0  0  0  0  0  0  0
   16.3588  -21.6205    5.9102 O   0  0  0  0  0  0  0  0  0  0  0  0
  2  1  1  1
  3  2  1  0
  4  5  2  0
  4  2  1  0
  6  4  1  0
  7  6  1  0
  8 10  1  0
  8  7  1  0
  9  8  2  0
 11 10  1  0
 11 12  1  6
 12 13  1  0
 13 17  1  0
 13 14  2  0
 14 15  1  0
 16 15  1  0
 17 16  2  0
 18 11  1  0
 19 18  2  0
 20 18  1  0
M  END
$$$$
