AGH.pdb
     RDKit          3D

 20 20  0  0  1  0  0  0  0  0999 V2000
   28.7315  -19.0250  -17.6690 C   0  0  0  0  0  0  0  0  0  0  0  0
   27.7195  -20.0621  -17.2780 C   0  0  2  0  0  0  0  0  0  0  0  0
   27.2117  -20.7243  -18.4494 N   0  0  0  0  0  0  0  0  0  0  0  0
   26.5774  -19.4578  -16.5297 C   0  0  0  0  0  0  0  0  0  0  0  0
   26.7326  -18.8835  -15.4205 O   0  0  0  0  0  0  0  0  0  0  0  0
   25.2620  -19.5135  -17.0543 N   0  0  0  0  0  0  0  0  0  0  0  0
   24.1696  -18.9430  -16.3306 C   0  0  0  0  0  0  0  0  0  0  0  0
   23.2925  -19.9994  -15.7190 C   0  0  0  0  0  0  0  0  0  0  0  0
   23.1286  -21.1188  -16.2340 O   0  0  0  0  0  0  0  0  0  0  0  0
   22.6135  -19.7262  -14.5007 N   0  0  0  0  0  0  0  0  0  0  0  0
   21.8568  -20.6935  -13.7690 C   0  0  1  0  0  0  0  0  0  0  0  0
   22.1411  -20.6312  -12.2738 C   0  0  0  0  0  0  0  0  0  0  0  0
   23.5266  -20.9941  -11.9474 C   0  0  0  0  0  0  0  0  0  0  0  0
   24.2433  -22.0757  -12.4138 C   0  0  0  0  0  0  0  0  0  0  0  0
   25.4795  -22.0241  -11.8557 N   0  0  0  0  0  0  0  0  0  0  0  0
   25.5396  -20.9489  -11.0662 C   0  0  0  0  0  0  0  0  0  0  0  0
   24.3450  -20.3181  -11.1218 N   0  0  0  0  0  0  0  0  0  0  0  0
   20.4024  -20.5648  -13.9526 C   0  0  0  0  0  0  0  0  0  0  0  0
   19.8928  -19.5517  -14.4764 O   0  0  0  0  0  0  0  0  0  0  0  0
   19.5658  -21.5840  -13.5394 O   0  0  0  0  0  0  0  0  0  0  0  0
  2  1  1  6
  3  2  1  0
  4  5  2  0
  4  2  1  0
  6  4  1  0
  7  6  1  0
  8 10  1  0
  8  7  1  0
  9  8  2  0
 11 10  1  0
 11 12  1  1
 12 13  1  0
 13 17  1  0
 13 14  2  0
 14 15  1  0
 16 15  1  0
 17 16  2  0
 18 11  1  0
 19 18  2  0
 20 18  1  0
M  END
$$$$
