AGH.pdb
     RDKit          3D

 20 20  0  0  1  0  0  0  0  0999 V2000
   21.7629  -13.3059  -20.2140 C   0  0  0  0  0  0  0  0  0  0  0  0
   22.6305  -12.0976  -20.0149 C   0  0  2  0  0  0  0  0  0  0  0  0
   23.1031  -12.0459  -18.6575 N   0  0  0  0  0  0  0  0  0  0  0  0
   21.8910  -10.8365  -20.3188 C   0  0  0  0  0  0  0  0  0  0  0  0
   21.4640  -10.5722  -21.4729 O   0  0  0  0  0  0  0  0  0  0  0  0
   21.6432   -9.8830  -19.3000 N   0  0  0  0  0  0  0  0  0  0  0  0
   20.9219   -8.6840  -19.5909 C   0  0  0  0  0  0  0  0  0  0  0  0
   20.3340   -8.0711  -18.3508 C   0  0  0  0  0  0  0  0  0  0  0  0
   19.1354   -8.1920  -18.0438 O   0  0  0  0  0  0  0  0  0  0  0  0
   21.1670   -7.3180  -17.4797 N   0  0  0  0  0  0  0  0  0  0  0  0
   20.7326   -6.7593  -16.2375 C   0  0  1  0  0  0  0  0  0  0  0  0
   21.6945   -7.0762  -15.0996 C   0  0  0  0  0  0  0  0  0  0  0  0
   21.9267   -8.5182  -14.9423 C   0  0  0  0  0  0  0  0  0  0  0  0
   21.3274   -9.5461  -15.6389 C   0  0  0  0  0  0  0  0  0  0  0  0
   21.8368  -10.7142  -15.1717 N   0  0  0  0  0  0  0  0  0  0  0  0
   22.7251  -10.4326  -14.2153 C   0  0  0  0  0  0  0  0  0  0  0  0
   22.7806   -9.0891  -14.0743 N   0  0  0  0  0  0  0  0  0  0  0  0
   20.5553   -5.2991  -16.2786 C   0  0  0  0  0  0  0  0  0  0  0  0
   20.9039   -4.6220  -17.2687 O   0  0  0  0  0  0  0  0  0  0  0  0
   19.9893   -4.6460  -15.2003 O   0  0  0  0  0  0  0  0  0  0  0  0
  2  1  1  1
  3  2  1  0
  4  5  2  0
  4  2  1  0
  6  4  1  0
  7  6  1  0
  8 10  1  0
  8  7  1  0
  9  8  2  0
 11 10  1  0
 11 12  1  1
 12 13  1  0
 13 17  1  0
 13 14  2  0
 14 15  1  0
 16 15  1  0
 17 16  2  0
 18 11  1  0
 19 18  2  0
 20 18  1  0
M  END
$$$$
