AGH.pdb
     RDKit          3D

 20 20  0  0  1  0  0  0  0  0999 V2000
   18.2618  -14.1662  -19.8858 C   0  0  0  0  0  0  0  0  0  0  0  0
   19.3115  -14.0490  -18.8195 C   0  0  2  0  0  0  0  0  0  0  0  0
   18.7081  -14.1505  -17.5180 N   0  0  0  0  0  0  0  0  0  0  0  0
   20.0451  -12.7519  -18.9137 C   0  0  0  0  0  0  0  0  0  0  0  0
   20.8139  -12.4856  -19.8740 O   0  0  0  0  0  0  0  0  0  0  0  0
   19.8955  -11.7647  -17.9079 N   0  0  0  0  0  0  0  0  0  0  0  0
   20.5980  -10.5237  -18.0018 C   0  0  0  0  0  0  0  0  0  0  0  0
   20.7433   -9.8612  -16.6605 C   0  0  0  0  0  0  0  0  0  0  0  0
   19.9779  -10.0935  -15.7089 O   0  0  0  0  0  0  0  0  0  0  0  0
   21.7936   -8.9268  -16.4514 N   0  0  0  0  0  0  0  0  0  0  0  0
   22.0550   -8.2786  -15.2043 C   0  0  1  0  0  0  0  0  0  0  0  0
   23.5269   -7.9216  -15.0419 C   0  0  0  0  0  0  0  0  0  0  0  0
   24.4089   -9.0881  -15.1801 C   0  0  0  0  0  0  0  0  0  0  0  0
   24.1044  -10.4069  -14.9169 C   0  0  0  0  0  0  0  0  0  0  0  0
   25.2109  -11.1473  -15.1809 N   0  0  0  0  0  0  0  0  0  0  0  0
   26.1778  -10.3248  -15.5954 C   0  0  0  0  0  0  0  0  0  0  0  0
   25.6878   -9.0647  -15.5952 N   0  0  0  0  0  0  0  0  0  0  0  0
   21.2726   -7.0483  -15.0049 C   0  0  0  0  0  0  0  0  0  0  0  0
   20.7206   -6.4584  -15.9577 O   0  0  0  0  0  0  0  0  0  0  0  0
   21.1362   -6.5200  -13.7353 O   0  0  0  0  0  0  0  0  0  0  0  0
  2  1  1  6
  3  2  1  0
  4  5  2  0
  4  2  1  0
  6  4  1  0
  7  6  1  0
  8 10  1  0
  8  7  1  0
  9  8  2  0
 11 10  1  0
 11 12  1  6
 12 13  1  0
 13 17  1  0
 13 14  2  0
 14 15  1  0
 16 15  1  0
 17 16  2  0
 18 11  1  0
 19 18  2  0
 20 18  1  0
M  END
$$$$
