KCK.pdb
     RDKit          3D

 25 24  0  0  1  0  0  0  0  0999 V2000
   22.2507  -18.3308  -15.0822 N   0  0  0  0  0  0  0  0  0  0  0  0
   22.1014  -19.7395  -15.2747 C   0  0  1  0  0  0  0  0  0  0  0  0
   23.2146  -20.3951  -16.0273 C   0  0  0  0  0  0  0  0  0  0  0  0
   23.2839  -19.9916  -17.4675 C   0  0  0  0  0  0  0  0  0  0  0  0
   22.0621  -20.4244  -18.2521 C   0  0  0  0  0  0  0  0  0  0  0  0
   22.3567  -20.0645  -19.7132 C   0  0  0  0  0  0  0  0  0  0  0  0
   21.2531  -20.5115  -20.5319 N   0  0  0  0  0  0  0  0  0  0  0  0
   21.9338  -20.3912  -13.9562 C   0  0  0  0  0  0  0  0  0  0  0  0
   22.3803  -21.5499  -13.7487 O   0  0  0  0  0  0  0  0  0  0  0  0
   21.2767  -19.7735  -12.8644 N   0  0  0  0  0  0  0  0  0  0  0  0
   21.0828  -20.4751  -11.5875 C   0  0  1  0  0  0  0  0  0  0  0  0
   20.8206  -19.4181  -10.5711 C   0  0  0  0  0  0  0  0  0  0  0  0
   20.1557  -17.8852  -11.2188 S   0  0  0  0  0  0  0  0  0  0  0  0
   20.0596  -21.5162  -11.7103 C   0  0  0  0  0  0  0  0  0  0  0  0
   19.1379  -21.3669  -12.5871 O   0  0  0  0  0  0  0  0  0  0  0  0
   19.9780  -22.6870  -10.9540 N   0  0  0  0  0  0  0  0  0  0  0  0
   18.9398  -23.6937  -11.1118 C   0  0  1  0  0  0  0  0  0  0  0  0
   19.2308  -24.9286  -10.3333 C   0  0  0  0  0  0  0  0  0  0  0  0
   18.2351  -26.0229  -10.4551 C   0  0  0  0  0  0  0  0  0  0  0  0
   18.6526  -27.2967   -9.7527 C   0  0  0  0  0  0  0  0  0  0  0  0
   17.5292  -28.3251   -9.8737 C   0  0  0  0  0  0  0  0  0  0  0  0
   17.9135  -29.5958   -9.2903 N   0  0  0  0  0  0  0  0  0  0  0  0
   17.6784  -23.0974  -10.6420 C   0  0  0  0  0  0  0  0  0  0  0  0
   16.4578  -23.4396  -11.1850 O   0  0  0  0  0  0  0  0  0  0  0  0
   17.6986  -22.2502   -9.7217 O   0  0  0  0  0  0  0  0  0  0  0  0
  2  8  1  0
  2  1  1  1
  3  2  1  0
  4  3  1  0
  5  4  1  0
  6  5  1  0
  6  7  1  0
  8  9  2  0
 10 11  1  0
 10  8  1  0
 11 12  1  1
 12 13  1  0
 14 15  2  0
 14 11  1  0
 16 14  1  0
 17 23  1  0
 17 16  1  0
 17 18  1  1
 19 20  1  0
 19 18  1  0
 20 21  1  0
 22 21  1  0
 23 24  1  0
 25 23  2  0
M  END
$$$$
