KCK.pdb
     RDKit          3D

 25 24  0  0  1  0  0  0  0  0999 V2000
   22.0243  -21.8984  -15.2903 N   0  0  0  0  0  0  0  0  0  0  0  0
   21.2464  -22.9824  -14.7767 C   0  0  1  0  0  0  0  0  0  0  0  0
   21.9212  -24.3161  -14.8128 C   0  0  0  0  0  0  0  0  0  0  0  0
   22.2785  -24.7702  -16.1940 C   0  0  0  0  0  0  0  0  0  0  0  0
   23.0299  -26.0858  -16.1974 C   0  0  0  0  0  0  0  0  0  0  0  0
   23.3079  -26.4027  -17.6716 C   0  0  0  0  0  0  0  0  0  0  0  0
   24.0577  -27.6356  -17.7471 N   0  0  0  0  0  0  0  0  0  0  0  0
   20.8332  -22.6653  -13.3911 C   0  0  0  0  0  0  0  0  0  0  0  0
   21.6844  -22.5864  -12.4669 O   0  0  0  0  0  0  0  0  0  0  0  0
   19.4869  -22.4344  -13.0175 N   0  0  0  0  0  0  0  0  0  0  0  0
   19.1199  -22.0999  -11.6342 C   0  0  1  0  0  0  0  0  0  0  0  0
   18.1946  -20.9358  -11.7223 C   0  0  0  0  0  0  0  0  0  0  0  0
   16.5832  -21.2932  -12.4202 S   0  0  0  0  0  0  0  0  0  0  0  0
   18.6069  -23.2762  -10.9277 C   0  0  0  0  0  0  0  0  0  0  0  0
   18.0750  -24.2177  -11.6143 O   0  0  0  0  0  0  0  0  0  0  0  0
   18.6360  -23.4886   -9.5481 N   0  0  0  0  0  0  0  0  0  0  0  0
   18.0256  -24.6284   -8.8815 C   0  0  1  0  0  0  0  0  0  0  0  0
   18.3600  -24.6775   -7.4318 C   0  0  0  0  0  0  0  0  0  0  0  0
   17.7458  -25.7876   -6.6609 C   0  0  0  0  0  0  0  0  0  0  0  0
   18.2542  -25.8853   -5.2388 C   0  0  0  0  0  0  0  0  0  0  0  0
   17.6009  -27.0860   -4.5562 C   0  0  0  0  0  0  0  0  0  0  0  0
   18.1788  -27.3268   -3.2482 N   0  0  0  0  0  0  0  0  0  0  0  0
   16.5684  -24.5039   -9.0501 C   0  0  0  0  0  0  0  0  0  0  0  0
   15.7483  -25.6046   -9.1832 O   0  0  0  0  0  0  0  0  0  0  0  0
   16.0425  -23.3691   -9.0765 O   0  0  0  0  0  0  0  0  0  0  0  0
  2  8  1  0
  2  1  1  1
  3  2  1  0
  4  3  1  0
  5  4  1  0
  6  5  1  0
  6  7  1  0
  8  9  2  0
 10 11  1  0
 10  8  1  0
 11 12  1  6
 12 13  1  0
 14 15  2  0
 14 11  1  0
 16 14  1  0
 17 23  1  0
 17 16  1  0
 17 18  1  1
 19 20  1  0
 19 18  1  0
 20 21  1  0
 22 21  1  0
 23 24  1  0
 25 23  2  0
M  END
$$$$
