KCK.pdb
     RDKit          3D

 25 24  0  0  1  0  0  0  0  0999 V2000
   14.8351  -11.0403  -11.8924 N   0  0  0  0  0  0  0  0  0  0  0  0
   15.7905  -10.0208  -11.5895 C   0  0  1  0  0  0  0  0  0  0  0  0
   16.5576   -9.5055  -12.7648 C   0  0  0  0  0  0  0  0  0  0  0  0
   17.4509  -10.5294  -13.3936 C   0  0  0  0  0  0  0  0  0  0  0  0
   16.6788  -11.6971  -13.9735 C   0  0  0  0  0  0  0  0  0  0  0  0
   17.7306  -12.6257  -14.5918 C   0  0  0  0  0  0  0  0  0  0  0  0
   17.0699  -13.8150  -15.0785 N   0  0  0  0  0  0  0  0  0  0  0  0
   15.1016   -8.9014  -10.9087 C   0  0  0  0  0  0  0  0  0  0  0  0
   13.9047   -8.6210  -11.1799 O   0  0  0  0  0  0  0  0  0  0  0  0
   15.7240   -8.0886   -9.9303 N   0  0  0  0  0  0  0  0  0  0  0  0
   14.9927   -7.0122   -9.2471 C   0  0  1  0  0  0  0  0  0  0  0  0
   14.9002   -7.4188   -7.8170 C   0  0  0  0  0  0  0  0  0  0  0  0
   14.4410   -6.1115   -6.6804 S   0  0  0  0  0  0  0  0  0  0  0  0
   15.6117   -5.7100   -9.5060 C   0  0  0  0  0  0  0  0  0  0  0  0
   16.8535   -5.5581   -9.2312 O   0  0  0  0  0  0  0  0  0  0  0  0
   14.9770   -4.5846  -10.0352 N   0  0  0  0  0  0  0  0  0  0  0  0
   15.6103   -3.2845  -10.1917 C   0  0  1  0  0  0  0  0  0  0  0  0
   14.8152   -2.3721  -11.0584 C   0  0  0  0  0  0  0  0  0  0  0  0
   15.4035   -1.0311  -11.3019 C   0  0  0  0  0  0  0  0  0  0  0  0
   14.5924   -0.1833  -12.2578 C   0  0  0  0  0  0  0  0  0  0  0  0
   15.2643    1.1805  -12.4091 C   0  0  0  0  0  0  0  0  0  0  0  0
   14.5444    2.0211  -13.3462 N   0  0  0  0  0  0  0  0  0  0  0  0
   15.7441   -2.6993   -8.8473 C   0  0  0  0  0  0  0  0  0  0  0  0
   16.7992   -1.8797   -8.5053 O   0  0  0  0  0  0  0  0  0  0  0  0
   14.8811   -2.9455   -7.9758 O   0  0  0  0  0  0  0  0  0  0  0  0
  2  8  1  0
  2  1  1  6
  3  2  1  0
  4  3  1  0
  5  4  1  0
  6  5  1  0
  6  7  1  0
  8  9  2  0
 10 11  1  0
 10  8  1  0
 11 12  1  1
 12 13  1  0
 14 15  2  0
 14 11  1  0
 16 14  1  0
 17 23  1  0
 17 16  1  0
 17 18  1  6
 19 20  1  0
 19 18  1  0
 20 21  1  0
 22 21  1  0
 23 24  1  0
 25 23  2  0
M  END
$$$$
