KCK.pdb
     RDKit          3D

 25 24  0  0  1  0  0  0  0  0999 V2000
   22.9605  -20.5879   -8.9673 N   0  0  0  0  0  0  0  0  0  0  0  0
   22.9569  -20.7446  -10.3884 C   0  0  1  0  0  0  0  0  0  0  0  0
   21.8811  -19.9919  -11.1036 C   0  0  0  0  0  0  0  0  0  0  0  0
   20.5521  -20.6812  -11.0834 C   0  0  0  0  0  0  0  0  0  0  0  0
   20.5176  -21.9040  -11.9775 C   0  0  0  0  0  0  0  0  0  0  0  0
   19.1072  -22.4873  -11.8309 C   0  0  0  0  0  0  0  0  0  0  0  0
   19.0168  -23.1666  -10.5587 N   0  0  0  0  0  0  0  0  0  0  0  0
   24.2821  -20.3540  -10.9198 C   0  0  0  0  0  0  0  0  0  0  0  0
   24.7715  -19.2228  -10.6631 O   0  0  0  0  0  0  0  0  0  0  0  0
   25.0719  -21.2028  -11.7330 N   0  0  0  0  0  0  0  0  0  0  0  0
   26.3144  -20.7291  -12.3589 C   0  0  1  0  0  0  0  0  0  0  0  0
   27.3412  -21.7717  -12.0796 C   0  0  0  0  0  0  0  0  0  0  0  0
   28.8810  -21.5857  -12.9774 S   0  0  0  0  0  0  0  0  0  0  0  0
   26.0997  -20.4008  -13.7702 C   0  0  0  0  0  0  0  0  0  0  0  0
   25.3210  -21.1481  -14.4600 O   0  0  0  0  0  0  0  0  0  0  0  0
   26.6676  -19.3310  -14.4648 N   0  0  0  0  0  0  0  0  0  0  0  0
   26.4036  -19.0293  -15.8632 C   0  0  1  0  0  0  0  0  0  0  0  0
   26.8282  -17.6508  -16.2311 C   0  0  0  0  0  0  0  0  0  0  0  0
   26.6445  -17.2731  -17.6550 C   0  0  0  0  0  0  0  0  0  0  0  0
   25.1919  -17.1665  -18.0661 C   0  0  0  0  0  0  0  0  0  0  0  0
   25.1169  -16.6999  -19.5190 C   0  0  0  0  0  0  0  0  0  0  0  0
   23.7451  -16.6529  -19.9868 N   0  0  0  0  0  0  0  0  0  0  0  0
   27.1494  -20.0096  -16.6697 C   0  0  0  0  0  0  0  0  0  0  0  0
   26.7224  -20.4091  -17.9187 O   0  0  0  0  0  0  0  0  0  0  0  0
   28.2061  -20.5059  -16.2202 O   0  0  0  0  0  0  0  0  0  0  0  0
  2  8  1  0
  2  1  1  1
  3  2  1  0
  4  3  1  0
  5  4  1  0
  6  5  1  0
  6  7  1  0
  8  9  2  0
 10 11  1  0
 10  8  1  0
 11 12  1  6
 12 13  1  0
 14 15  2  0
 14 11  1  0
 16 14  1  0
 17 23  1  0
 17 16  1  0
 17 18  1  6
 19 20  1  0
 19 18  1  0
 20 21  1  0
 22 21  1  0
 23 24  1  0
 25 23  2  0
M  END
$$$$
