KCK.pdb
     RDKit          3D

 25 24  0  0  1  0  0  0  0  0999 V2000
   16.0168  -10.7429  -12.7237 N   0  0  0  0  0  0  0  0  0  0  0  0
   15.3496  -10.4947  -11.4839 C   0  0  1  0  0  0  0  0  0  0  0  0
   15.3639  -11.6373  -10.5197 C   0  0  0  0  0  0  0  0  0  0  0  0
   14.6105  -12.8380  -11.0016 C   0  0  0  0  0  0  0  0  0  0  0  0
   13.1197  -12.5869  -11.1034 C   0  0  0  0  0  0  0  0  0  0  0  0
   12.4463  -13.8791  -10.6263 C   0  0  0  0  0  0  0  0  0  0  0  0
   11.0139  -13.6901  -10.6473 N   0  0  0  0  0  0  0  0  0  0  0  0
   15.9406   -9.2946  -10.8501 C   0  0  0  0  0  0  0  0  0  0  0  0
   15.6392   -8.9743   -9.6705 O   0  0  0  0  0  0  0  0  0  0  0  0
   16.8623   -8.4448  -11.5087 N   0  0  0  0  0  0  0  0  0  0  0  0
   17.4249   -7.2602  -10.8451 C   0  0  1  0  0  0  0  0  0  0  0  0
   18.5490   -6.7989  -11.7069 C   0  0  0  0  0  0  0  0  0  0  0  0
   20.0660   -7.7402  -11.5509 S   0  0  0  0  0  0  0  0  0  0  0  0
   16.3823   -6.2703  -10.5647 C   0  0  0  0  0  0  0  0  0  0  0  0
   15.5156   -6.0211  -11.4742 O   0  0  0  0  0  0  0  0  0  0  0  0
   16.2262   -5.5486   -9.3797 N   0  0  0  0  0  0  0  0  0  0  0  0
   15.1355   -4.6209   -9.1230 C   0  0  1  0  0  0  0  0  0  0  0  0
   14.6953   -4.6499   -7.7012 C   0  0  0  0  0  0  0  0  0  0  0  0
   13.6600   -3.6560   -7.3216 C   0  0  0  0  0  0  0  0  0  0  0  0
   13.3253   -3.6706   -5.8458 C   0  0  0  0  0  0  0  0  0  0  0  0
   12.2929   -2.5819   -5.5570 C   0  0  0  0  0  0  0  0  0  0  0  0
   12.0302   -2.4690   -4.1353 N   0  0  0  0  0  0  0  0  0  0  0  0
   15.6191   -3.2730   -9.4647 C   0  0  0  0  0  0  0  0  0  0  0  0
   14.7657   -2.2673   -9.8675 O   0  0  0  0  0  0  0  0  0  0  0  0
   16.8415   -3.0168   -9.3933 O   0  0  0  0  0  0  0  0  0  0  0  0
  2  8  1  0
  2  1  1  6
  3  2  1  0
  4  3  1  0
  5  4  1  0
  6  5  1  0
  6  7  1  0
  8  9  2  0
 10 11  1  0
 10  8  1  0
 11 12  1  6
 12 13  1  0
 14 15  2  0
 14 11  1  0
 16 14  1  0
 17 23  1  0
 17 16  1  0
 17 18  1  1
 19 20  1  0
 19 18  1  0
 20 21  1  0
 22 21  1  0
 23 24  1  0
 25 23  2  0
M  END
$$$$
