KCK.pdb
     RDKit          3D

 25 24  0  0  1  0  0  0  0  0999 V2000
   20.0323  -24.1277  -15.1865 N   0  0  0  0  0  0  0  0  0  0  0  0
   20.6333  -25.4143  -15.0211 C   0  0  1  0  0  0  0  0  0  0  0  0
   19.7133  -26.4808  -14.5194 C   0  0  0  0  0  0  0  0  0  0  0  0
   18.4888  -25.9471  -13.8431 C   0  0  0  0  0  0  0  0  0  0  0  0
   18.8147  -25.1392  -12.6033 C   0  0  0  0  0  0  0  0  0  0  0  0
   17.4704  -24.6203  -12.0794 C   0  0  0  0  0  0  0  0  0  0  0  0
   17.6211  -23.2306  -11.7133 N   0  0  0  0  0  0  0  0  0  0  0  0
   21.2357  -25.8339  -16.3065 C   0  0  0  0  0  0  0  0  0  0  0  0
   20.5144  -26.0564  -17.3140 O   0  0  0  0  0  0  0  0  0  0  0  0
   22.6290  -26.0097  -16.4886 N   0  0  0  0  0  0  0  0  0  0  0  0
   23.1894  -26.4148  -17.7855 C   0  0  1  0  0  0  0  0  0  0  0  0
   23.6027  -25.1568  -18.4680 C   0  0  0  0  0  0  0  0  0  0  0  0
   23.3095  -23.6529  -17.5385 S   0  0  0  0  0  0  0  0  0  0  0  0
   24.2356  -27.4256  -17.6131 C   0  0  0  0  0  0  0  0  0  0  0  0
   24.6890  -27.6411  -16.4347 O   0  0  0  0  0  0  0  0  0  0  0  0
   24.8080  -28.2019  -18.6226 N   0  0  0  0  0  0  0  0  0  0  0  0
   25.8075  -29.2341  -18.3952 C   0  0  1  0  0  0  0  0  0  0  0  0
   25.3186  -30.2978  -17.4757 C   0  0  0  0  0  0  0  0  0  0  0  0
   26.1484  -31.5267  -17.4047 C   0  0  0  0  0  0  0  0  0  0  0  0
   27.0500  -31.5739  -16.1902 C   0  0  0  0  0  0  0  0  0  0  0  0
   27.9615  -32.7958  -16.2920 C   0  0  0  0  0  0  0  0  0  0  0  0
   28.9179  -32.8316  -15.2025 N   0  0  0  0  0  0  0  0  0  0  0  0
   26.1334  -29.8224  -19.7049 C   0  0  0  0  0  0  0  0  0  0  0  0
   27.4102  -30.2302  -20.0291 O   0  0  0  0  0  0  0  0  0  0  0  0
   25.2332  -29.9623  -20.5624 O   0  0  0  0  0  0  0  0  0  0  0  0
  2  8  1  0
  2  1  1  6
  3  2  1  0
  4  3  1  0
  5  4  1  0
  6  5  1  0
  6  7  1  0
  8  9  2  0
 10 11  1  0
 10  8  1  0
 11 12  1  1
 12 13  1  0
 14 15  2  0
 14 11  1  0
 16 14  1  0
 17 23  1  0
 17 16  1  0
 17 18  1  1
 19 20  1  0
 19 18  1  0
 20 21  1  0
 22 21  1  0
 23 24  1  0
 25 23  2  0
M  END
$$$$
