KCK.pdb
     RDKit          3D

 25 24  0  0  1  0  0  0  0  0999 V2000
   20.1354  -16.8783  -18.3010 N   0  0  0  0  0  0  0  0  0  0  0  0
   20.5971  -18.2243  -18.4400 C   0  0  1  0  0  0  0  0  0  0  0  0
   21.7769  -18.3967  -19.3420 C   0  0  0  0  0  0  0  0  0  0  0  0
   21.5869  -17.7947  -20.6997 C   0  0  0  0  0  0  0  0  0  0  0  0
   20.1695  -17.9511  -21.2119 C   0  0  0  0  0  0  0  0  0  0  0  0
   20.1884  -17.4314  -22.6543 C   0  0  0  0  0  0  0  0  0  0  0  0
   18.8644  -17.5736  -23.2153 N   0  0  0  0  0  0  0  0  0  0  0  0
   20.9059  -18.7690  -17.0987 C   0  0  0  0  0  0  0  0  0  0  0  0
   21.5453  -19.8460  -16.9721 O   0  0  0  0  0  0  0  0  0  0  0  0
   20.5142  -18.1337  -15.8952 N   0  0  0  0  0  0  0  0  0  0  0  0
   20.8838  -18.6805  -14.5820 C   0  0  1  0  0  0  0  0  0  0  0  0
   21.2343  -17.5093  -13.7307 C   0  0  0  0  0  0  0  0  0  0  0  0
   19.8396  -16.6481  -13.0065 S   0  0  0  0  0  0  0  0  0  0  0  0
   19.8326  -19.5594  -14.0641 C   0  0  0  0  0  0  0  0  0  0  0  0
   18.6151  -19.2990  -14.3647 O   0  0  0  0  0  0  0  0  0  0  0  0
   20.0192  -20.6824  -13.2557 N   0  0  0  0  0  0  0  0  0  0  0  0
   18.9382  -21.4955  -12.7205 C   0  0  1  0  0  0  0  0  0  0  0  0
   19.4365  -22.7457  -12.0845 C   0  0  0  0  0  0  0  0  0  0  0  0
   18.3974  -23.6598  -11.5474 C   0  0  0  0  0  0  0  0  0  0  0  0
   18.9564  -24.9675  -11.0298 C   0  0  0  0  0  0  0  0  0  0  0  0
   17.8000  -25.8762  -10.6161 C   0  0  0  0  0  0  0  0  0  0  0  0
   18.2588  -27.2269  -10.3557 N   0  0  0  0  0  0  0  0  0  0  0  0
   18.2313  -20.6784  -11.7203 C   0  0  0  0  0  0  0  0  0  0  0  0
   18.7630  -19.5085  -11.2199 O   0  0  0  0  0  0  0  0  0  0  0  0
   17.1115  -21.0452  -11.3002 O   0  0  0  0  0  0  0  0  0  0  0  0
  2  8  1  0
  2  1  1  1
  3  2  1  0
  4  3  1  0
  5  4  1  0
  6  5  1  0
  6  7  1  0
  8  9  2  0
 10 11  1  0
 10  8  1  0
 11 12  1  1
 12 13  1  0
 14 15  2  0
 14 11  1  0
 16 14  1  0
 17 23  1  0
 17 16  1  0
 17 18  1  1
 19 20  1  0
 19 18  1  0
 20 21  1  0
 22 21  1  0
 23 24  1  0
 25 23  2  0
M  END
$$$$
