IQY.pdb
     RDKit          3D

 30 30  0  0  1  0  0  0  0  0999 V2000
   27.0153  -15.5089  -16.7139 C   0  0  0  0  0  0  0  0  0  0  0  0
   26.3181  -16.8270  -16.5943 C   0  0  0  0  0  0  0  0  0  0  0  0
   27.1170  -17.8264  -15.7416 C   0  0  2  0  0  0  0  0  0  0  0  0
   28.4858  -18.0185  -16.2958 C   0  0  0  0  0  0  0  0  0  0  0  0
   26.2850  -19.0782  -15.6968 C   0  0  2  0  0  0  0  0  0  0  0  0
   26.1004  -19.5261  -17.0791 N   0  0  0  0  0  0  0  0  0  0  0  0
   24.9464  -18.9196  -15.1201 C   0  0  0  0  0  0  0  0  0  0  0  0
   24.7426  -18.6381  -13.8992 O   0  0  0  0  0  0  0  0  0  0  0  0
   19.8024  -17.6062  -18.3414 N   0  0  0  0  0  0  0  0  0  0  0  0
   19.2673  -17.8010  -17.0491 C   0  0  0  0  0  0  0  0  0  0  0  0
   18.0353  -17.5892  -16.8665 O   0  0  0  0  0  0  0  0  0  0  0  0
   20.1173  -18.2492  -15.8972 C   0  0  0  0  0  0  0  0  0  0  0  0
   21.5183  -18.4978  -16.4013 C   0  0  0  0  0  0  0  0  0  0  0  0
   22.4360  -18.9963  -15.3237 C   0  0  2  0  0  0  0  0  0  0  0  0
   23.7671  -19.0696  -15.8945 N   0  0  0  0  0  0  0  0  0  0  0  0
   22.0100  -20.2287  -14.6861 C   0  0  0  0  0  0  0  0  0  0  0  0
   22.3094  -21.3264  -15.1955 O   0  0  0  0  0  0  0  0  0  0  0  0
   27.1527  -21.6340  -11.3552 O   0  0  0  0  0  0  0  0  0  0  0  0
   25.7509  -21.5909  -11.3708 C   0  0  0  0  0  0  0  0  0  0  0  0
   25.0445  -22.5737  -12.0215 C   0  0  0  0  0  0  0  0  0  0  0  0
   23.6537  -22.5444  -12.0457 C   0  0  0  0  0  0  0  0  0  0  0  0
   22.9441  -21.5419  -11.4263 C   0  0  0  0  0  0  0  0  0  0  0  0
   21.4723  -21.5094  -11.4576 C   0  0  0  0  0  0  0  0  0  0  0  0
   20.8626  -21.4837  -12.8228 C   0  0  2  0  0  0  0  0  0  0  0  0
   21.2580  -20.2294  -13.4929 N   0  0  0  0  0  0  0  0  0  0  0  0
   19.3911  -21.5605  -12.7121 C   0  0  0  0  0  0  0  0  0  0  0  0
   18.8173  -22.5771  -12.1933 O   0  0  0  0  0  0  0  0  0  0  0  0
   23.6654  -20.5646  -10.7785 C   0  0  0  0  0  0  0  0  0  0  0  0
   25.0553  -20.5822  -10.7467 C   0  0  0  0  0  0  0  0  0  0  0  0
   18.5883  -20.5459  -13.1590 O   0  0  0  0  0  0  0  0  0  0  0  0
  1  2  1  0
  2  3  1  0
  3  4  1  6
  5  3  1  0
  5  6  1  6
  7  8  2  0
  7  5  1  0
 10  9  1  0
 10 12  1  0
 11 10  2  0
 13 12  1  0
 14 13  1  6
 14 15  1  0
 15  7  1  0
 16 25  1  0
 16 14  1  0
 17 16  2  0
 19 18  1  0
 20 19  2  0
 21 20  1  0
 22 28  1  0
 22 21  2  0
 24 23  1  1
 23 22  1  0
 24 25  1  0
 24 26  1  0
 26 30  1  0
 27 26  2  0
 28 29  2  0
 29 19  1  0
M  END
$$$$
