IQY.pdb
     RDKit          3D

 30 30  0  0  1  0  0  0  0  0999 V2000
   10.1666  -10.4862   -9.1725 C   0  0  0  0  0  0  0  0  0  0  0  0
   10.9930  -11.0076  -10.3051 C   0  0  0  0  0  0  0  0  0  0  0  0
   12.3965  -10.3799  -10.3313 C   0  0  2  0  0  0  0  0  0  0  0  0
   12.3105   -8.8969  -10.4351 C   0  0  0  0  0  0  0  0  0  0  0  0
   13.1157  -11.0409  -11.4745 C   0  0  2  0  0  0  0  0  0  0  0  0
   13.0843  -12.4847  -11.2302 N   0  0  0  0  0  0  0  0  0  0  0  0
   14.5251  -10.6672  -11.6270 C   0  0  0  0  0  0  0  0  0  0  0  0
   15.4325  -11.0237  -10.8138 O   0  0  0  0  0  0  0  0  0  0  0  0
   18.6144   -9.8518  -17.0519 N   0  0  0  0  0  0  0  0  0  0  0  0
   18.5593  -10.5916  -15.8504 C   0  0  0  0  0  0  0  0  0  0  0  0
   18.7782  -11.8350  -15.8953 O   0  0  0  0  0  0  0  0  0  0  0  0
   18.2498   -9.9443  -14.5330 C   0  0  0  0  0  0  0  0  0  0  0  0
   16.7797  -10.1250  -14.2417 C   0  0  0  0  0  0  0  0  0  0  0  0
   16.3832   -9.5519  -12.9128 C   0  0  2  0  0  0  0  0  0  0  0  0
   14.9836   -9.8716  -12.7087 N   0  0  0  0  0  0  0  0  0  0  0  0
   16.6862   -8.1423  -12.7452 C   0  0  0  0  0  0  0  0  0  0  0  0
   17.8720   -7.7702  -12.6458 O   0  0  0  0  0  0  0  0  0  0  0  0
   13.3118   -6.7088   -6.5125 O   0  0  0  0  0  0  0  0  0  0  0  0
   14.1265   -6.4564   -7.6259 C   0  0  0  0  0  0  0  0  0  0  0  0
   15.1590   -7.3125   -7.9250 C   0  0  0  0  0  0  0  0  0  0  0  0
   15.9757   -7.0753   -9.0261 C   0  0  0  0  0  0  0  0  0  0  0  0
   15.7812   -5.9875   -9.8453 C   0  0  0  0  0  0  0  0  0  0  0  0
   16.6500   -5.7350  -11.0071 C   0  0  0  0  0  0  0  0  0  0  0  0
   15.9639   -5.7603  -12.3355 C   0  0  2  0  0  0  0  0  0  0  0  0
   15.6726   -7.1632  -12.6898 N   0  0  0  0  0  0  0  0  0  0  0  0
   16.8368   -5.1471  -13.3581 C   0  0  0  0  0  0  0  0  0  0  0  0
   17.2840   -3.9583  -13.2217 O   0  0  0  0  0  0  0  0  0  0  0  0
   14.7432   -5.1391   -9.5332 C   0  0  0  0  0  0  0  0  0  0  0  0
   13.9196   -5.3647   -8.4359 C   0  0  0  0  0  0  0  0  0  0  0  0
   17.2002   -5.8294  -14.4877 O   0  0  0  0  0  0  0  0  0  0  0  0
  1  2  1  0
  2  3  1  0
  3  4  1  6
  5  3  1  0
  5  6  1  1
  7  8  2  0
  7  5  1  0
 10  9  1  0
 10 12  1  0
 11 10  2  0
 13 12  1  0
 14 13  1  6
 14 15  1  0
 15  7  1  0
 16 25  1  0
 16 14  1  0
 17 16  2  0
 19 18  1  0
 20 19  2  0
 21 20  1  0
 22 28  1  0
 22 21  2  0
 24 23  1  1
 23 22  1  0
 24 25  1  0
 24 26  1  0
 26 30  1  0
 27 26  2  0
 28 29  2  0
 29 19  1  0
M  END
$$$$
