IQY.pdb
     RDKit          3D

 30 30  0  0  1  0  0  0  0  0999 V2000
   21.8438  -17.1501    7.8195 C   0  0  0  0  0  0  0  0  0  0  0  0
   22.4077  -17.0597    9.2020 C   0  0  0  0  0  0  0  0  0  0  0  0
   21.5850  -16.1211   10.1000 C   0  0  2  0  0  0  0  0  0  0  0  0
   21.4870  -14.7633    9.4963 C   0  0  0  0  0  0  0  0  0  0  0  0
   22.2560  -16.1546   11.4453 C   0  0  2  0  0  0  0  0  0  0  0  0
   23.5214  -15.4282   11.3171 N   0  0  0  0  0  0  0  0  0  0  0  0
   22.5839  -17.4921   11.9480 C   0  0  0  0  0  0  0  0  0  0  0  0
   23.7165  -17.7952   12.4349 O   0  0  0  0  0  0  0  0  0  0  0  0
   24.6317  -19.4097   15.0914 N   0  0  0  0  0  0  0  0  0  0  0  0
   23.8085  -20.5003   15.4481 C   0  0  0  0  0  0  0  0  0  0  0  0
   24.2837  -21.3953   16.2024 O   0  0  0  0  0  0  0  0  0  0  0  0
   22.3959  -20.6222   14.9582 C   0  0  0  0  0  0  0  0  0  0  0  0
   22.0801  -19.4230   14.0973 C   0  0  0  0  0  0  0  0  0  0  0  0
   21.8446  -19.7928   12.6622 C   0  0  2  0  0  0  0  0  0  0  0  0
   21.6474  -18.5578   11.9283 N   0  0  0  0  0  0  0  0  0  0  0  0
   20.7894  -20.7670   12.4519 C   0  0  0  0  0  0  0  0  0  0  0  0
   20.8818  -21.9013   12.9610 O   0  0  0  0  0  0  0  0  0  0  0  0
   17.0205  -17.1349    6.9195 O   0  0  0  0  0  0  0  0  0  0  0  0
   17.3607  -18.2558    7.6908 C   0  0  0  0  0  0  0  0  0  0  0  0
   18.2107  -19.2057    7.1774 C   0  0  0  0  0  0  0  0  0  0  0  0
   18.5574  -20.3230    7.9305 C   0  0  0  0  0  0  0  0  0  0  0  0
   18.0671  -20.5148    9.2013 C   0  0  0  0  0  0  0  0  0  0  0  0
   18.4307  -21.7007    9.9948 C   0  0  0  0  0  0  0  0  0  0  0  0
   18.5759  -21.4662   11.4645 C   0  0  2  0  0  0  0  0  0  0  0  0
   19.6458  -20.4726   11.6808 N   0  0  0  0  0  0  0  0  0  0  0  0
   18.9154  -22.7359   12.1398 C   0  0  0  0  0  0  0  0  0  0  0  0
   19.9706  -22.8470   12.8512 O   0  0  0  0  0  0  0  0  0  0  0  0
   17.2170  -19.5549    9.7021 C   0  0  0  0  0  0  0  0  0  0  0  0
   16.8627  -18.4336    8.9601 C   0  0  0  0  0  0  0  0  0  0  0  0
   18.1124  -23.8390   12.0304 O   0  0  0  0  0  0  0  0  0  0  0  0
  1  2  1  0
  2  3  1  0
  3  4  1  6
  5  3  1  0
  5  6  1  6
  7  8  2  0
  7  5  1  0
 10  9  1  0
 10 12  1  0
 11 10  2  0
 13 12  1  0
 14 13  1  1
 14 15  1  0
 15  7  1  0
 16 25  1  0
 16 14  1  0
 17 16  2  0
 19 18  1  0
 20 19  2  0
 21 20  1  0
 22 28  1  0
 22 21  2  0
 24 23  1  6
 23 22  1  0
 24 25  1  0
 24 26  1  0
 26 30  1  0
 27 26  2  0
 28 29  2  0
 29 19  1  0
M  END
$$$$
