IQY.pdb
     RDKit          3D

 30 30  0  0  1  0  0  0  0  0999 V2000
   14.7269  -14.1718  -15.5219 C   0  0  0  0  0  0  0  0  0  0  0  0
   14.3728  -12.7716  -15.1327 C   0  0  0  0  0  0  0  0  0  0  0  0
   15.3590  -12.1918  -14.1053 C   0  0  2  0  0  0  0  0  0  0  0  0
   15.4350  -13.0595  -12.8974 C   0  0  0  0  0  0  0  0  0  0  0  0
   14.8855  -10.7908  -13.8335 C   0  0  2  0  0  0  0  0  0  0  0  0
   14.8898  -10.0757  -15.1117 N   0  0  0  0  0  0  0  0  0  0  0  0
   15.7210  -10.0156  -12.9112 C   0  0  0  0  0  0  0  0  0  0  0  0
   15.9043  -10.3394  -11.6975 O   0  0  0  0  0  0  0  0  0  0  0  0
   20.8848   -7.4319  -14.1281 N   0  0  0  0  0  0  0  0  0  0  0  0
   20.6137   -6.6957  -12.9539 C   0  0  0  0  0  0  0  0  0  0  0  0
   21.5763   -6.1425  -12.3512 O   0  0  0  0  0  0  0  0  0  0  0  0
   19.2234   -6.5551  -12.4083 C   0  0  0  0  0  0  0  0  0  0  0  0
   18.2932   -7.4084  -13.2360 C   0  0  0  0  0  0  0  0  0  0  0  0
   17.2164   -8.0501  -12.4111 C   0  0  2  0  0  0  0  0  0  0  0  0
   16.3949   -8.8336  -13.3134 N   0  0  0  0  0  0  0  0  0  0  0  0
   16.4555   -7.1304  -11.5853 C   0  0  0  0  0  0  0  0  0  0  0  0
   15.4966   -6.5034  -12.0768 O   0  0  0  0  0  0  0  0  0  0  0  0
   10.3575   -8.7332   -8.2605 O   0  0  0  0  0  0  0  0  0  0  0  0
   11.6585   -8.2101   -8.2332 C   0  0  0  0  0  0  0  0  0  0  0  0
   11.8544   -6.8805   -7.9464 C   0  0  0  0  0  0  0  0  0  0  0  0
   13.1390   -6.3473   -7.9157 C   0  0  0  0  0  0  0  0  0  0  0  0
   14.2465   -7.1230   -8.1686 C   0  0  0  0  0  0  0  0  0  0  0  0
   15.6050   -6.5556   -8.1411 C   0  0  0  0  0  0  0  0  0  0  0  0
   16.0544   -5.9113   -9.4135 C   0  0  2  0  0  0  0  0  0  0  0  0
   16.7663   -6.9170  -10.2262 N   0  0  0  0  0  0  0  0  0  0  0  0
   16.9501   -4.7767   -9.1075 C   0  0  0  0  0  0  0  0  0  0  0  0
   18.1796   -4.7903   -9.4539 O   0  0  0  0  0  0  0  0  0  0  0  0
   14.0346   -8.4527   -8.4542 C   0  0  0  0  0  0  0  0  0  0  0  0
   12.7561   -8.9983   -8.4880 C   0  0  0  0  0  0  0  0  0  0  0  0
   16.4966   -3.6688   -8.4438 O   0  0  0  0  0  0  0  0  0  0  0  0
  1  2  1  0
  2  3  1  0
  3  4  1  1
  5  3  1  0
  5  6  1  6
  7  8  2  0
  7  5  1  0
 10  9  1  0
 10 12  1  0
 11 10  2  0
 13 12  1  0
 14 13  1  6
 14 15  1  0
 15  7  1  0
 16 25  1  0
 16 14  1  0
 17 16  2  0
 19 18  1  0
 20 19  2  0
 21 20  1  0
 22 28  1  0
 22 21  2  0
 24 23  1  1
 23 22  1  0
 24 25  1  0
 24 26  1  0
 26 30  1  0
 27 26  2  0
 28 29  2  0
 29 19  1  0
M  END
$$$$
