IQY.pdb
     RDKit          3D

 30 30  0  0  1  0  0  0  0  0999 V2000
   27.7623  -16.9955  -17.8022 C   0  0  0  0  0  0  0  0  0  0  0  0
   28.0915  -17.4558  -16.4175 C   0  0  0  0  0  0  0  0  0  0  0  0
   27.3642  -18.7613  -16.0557 C   0  0  2  0  0  0  0  0  0  0  0  0
   27.1672  -19.6090  -17.2640 C   0  0  0  0  0  0  0  0  0  0  0  0
   26.0892  -18.3416  -15.3781 C   0  0  2  0  0  0  0  0  0  0  0  0
   26.4625  -17.5613  -14.1961 N   0  0  0  0  0  0  0  0  0  0  0  0
   25.2385  -19.4399  -14.9096 C   0  0  0  0  0  0  0  0  0  0  0  0
   24.5984  -20.2079  -15.6919 O   0  0  0  0  0  0  0  0  0  0  0  0
   27.1649  -21.6802  -10.4692 N   0  0  0  0  0  0  0  0  0  0  0  0
   25.9928  -21.1862   -9.8556 C   0  0  0  0  0  0  0  0  0  0  0  0
   26.0300  -20.8958   -8.6267 O   0  0  0  0  0  0  0  0  0  0  0  0
   24.7154  -20.9992  -10.6194 C   0  0  0  0  0  0  0  0  0  0  0  0
   24.9033  -21.5480  -12.0130 C   0  0  0  0  0  0  0  0  0  0  0  0
   24.1622  -20.7531  -13.0477 C   0  0  2  0  0  0  0  0  0  0  0  0
   25.0679  -19.7290  -13.5311 N   0  0  0  0  0  0  0  0  0  0  0  0
   22.8798  -20.2331  -12.6096 C   0  0  0  0  0  0  0  0  0  0  0  0
   22.8297  -19.4212  -11.6648 O   0  0  0  0  0  0  0  0  0  0  0  0
   19.9090  -17.7905  -19.4588 O   0  0  0  0  0  0  0  0  0  0  0  0
   20.1842  -17.9331  -18.0910 C   0  0  0  0  0  0  0  0  0  0  0  0
   19.5203  -18.8860  -17.3563 C   0  0  0  0  0  0  0  0  0  0  0  0
   19.7825  -19.0394  -15.9986 C   0  0  0  0  0  0  0  0  0  0  0  0
   20.7051  -18.2514  -15.3503 C   0  0  0  0  0  0  0  0  0  0  0  0
   20.9773  -18.4114  -13.9121 C   0  0  0  0  0  0  0  0  0  0  0  0
   20.5165  -19.7023  -13.3142 C   0  0  2  0  0  0  0  0  0  0  0  0
   21.6699  -20.6188  -13.2232 N   0  0  0  0  0  0  0  0  0  0  0  0
   19.4607  -20.2944  -14.1617 C   0  0  0  0  0  0  0  0  0  0  0  0
   19.7250  -21.2231  -14.9981 O   0  0  0  0  0  0  0  0  0  0  0  0
   21.3621  -17.3015  -16.0991 C   0  0  0  0  0  0  0  0  0  0  0  0
   21.1096  -17.1380  -17.4566 C   0  0  0  0  0  0  0  0  0  0  0  0
   18.1612  -19.8721  -14.0815 O   0  0  0  0  0  0  0  0  0  0  0  0
  1  2  1  0
  2  3  1  0
  3  4  1  6
  5  3  1  0
  5  6  1  1
  7  8  2  0
  7  5  1  0
 10  9  1  0
 10 12  1  0
 11 10  2  0
 13 12  1  0
 14 13  1  1
 14 15  1  0
 15  7  1  0
 16 25  1  0
 16 14  1  0
 17 16  2  0
 19 18  1  0
 20 19  2  0
 21 20  1  0
 22 28  1  0
 22 21  2  0
 24 23  1  6
 23 22  1  0
 24 25  1  0
 24 26  1  0
 26 30  1  0
 27 26  2  0
 28 29  2  0
 29 19  1  0
M  END
$$$$
