IQY.pdb
     RDKit          3D

 30 30  0  0  1  0  0  0  0  0999 V2000
   20.8715  -12.7629  -19.0254 C   0  0  0  0  0  0  0  0  0  0  0  0
   20.2586  -11.7741  -18.0850 C   0  0  0  0  0  0  0  0  0  0  0  0
   20.7801  -10.3481  -18.3274 C   0  0  2  0  0  0  0  0  0  0  0  0
   22.2667  -10.3083  -18.2485 C   0  0  0  0  0  0  0  0  0  0  0  0
   20.0822   -9.4828  -17.3149 C   0  0  2  0  0  0  0  0  0  0  0  0
   18.6429   -9.6076  -17.5561 N   0  0  0  0  0  0  0  0  0  0  0  0
   20.4017   -8.0537  -17.3865 C   0  0  0  0  0  0  0  0  0  0  0  0
   21.5705   -7.5913  -17.2091 O   0  0  0  0  0  0  0  0  0  0  0  0
   16.4061   -3.7375  -19.5786 N   0  0  0  0  0  0  0  0  0  0  0  0
   17.5530   -2.9530  -19.3264 C   0  0  0  0  0  0  0  0  0  0  0  0
   17.5271   -1.7278  -19.6333 O   0  0  0  0  0  0  0  0  0  0  0  0
   18.7911   -3.5326  -18.7088 C   0  0  0  0  0  0  0  0  0  0  0  0
   18.5663   -5.0065  -18.4728 C   0  0  0  0  0  0  0  0  0  0  0  0
   19.7213   -5.6580  -17.7704 C   0  0  2  0  0  0  0  0  0  0  0  0
   19.4160   -7.0717  -17.6643 N   0  0  0  0  0  0  0  0  0  0  0  0
   20.0847   -5.0468  -16.5050 C   0  0  0  0  0  0  0  0  0  0  0  0
   19.3421   -5.1854  -15.5132 O   0  0  0  0  0  0  0  0  0  0  0  0
   21.4414   -9.4371  -12.3412 O   0  0  0  0  0  0  0  0  0  0  0  0
   21.7668   -8.1781  -12.8666 C   0  0  0  0  0  0  0  0  0  0  0  0
   21.2754   -7.0414  -12.2708 C   0  0  0  0  0  0  0  0  0  0  0  0
   21.5894   -5.7856  -12.7806 C   0  0  0  0  0  0  0  0  0  0  0  0
   22.3937   -5.6384  -13.8869 C   0  0  0  0  0  0  0  0  0  0  0  0
   22.7205   -4.3087  -14.4283 C   0  0  0  0  0  0  0  0  0  0  0  0
   21.5881   -3.5937  -15.0936 C   0  0  2  0  0  0  0  0  0  0  0  0
   21.2655   -4.2903  -16.3543 N   0  0  0  0  0  0  0  0  0  0  0  0
   21.9762   -2.1948  -15.3692 C   0  0  0  0  0  0  0  0  0  0  0  0
   22.0666   -1.7551  -16.5652 O   0  0  0  0  0  0  0  0  0  0  0  0
   22.8784   -6.7858  -14.4727 C   0  0  0  0  0  0  0  0  0  0  0  0
   22.5724   -8.0469  -13.9733 C   0  0  0  0  0  0  0  0  0  0  0  0
   22.2512   -1.3178  -14.3549 O   0  0  0  0  0  0  0  0  0  0  0  0
  1  2  1  0
  2  3  1  0
  3  4  1  1
  5  3  1  0
  5  6  1  6
  7  8  2  0
  7  5  1  0
 10  9  1  0
 10 12  1  0
 11 10  2  0
 13 12  1  0
 14 13  1  1
 14 15  1  0
 15  7  1  0
 16 25  1  0
 16 14  1  0
 17 16  2  0
 19 18  1  0
 20 19  2  0
 21 20  1  0
 22 28  1  0
 22 21  2  0
 24 23  1  6
 23 22  1  0
 24 25  1  0
 24 26  1  0
 26 30  1  0
 27 26  2  0
 28 29  2  0
 29 19  1  0
M  END
$$$$
