FQG.pdb
     RDKit          3D

 25 25  0  0  1  0  0  0  0  0999 V2000
    6.6754  -16.9697   25.8420 N   0  0  0  0  0  0  0  0  0  0  0  0
    7.0596  -15.7548   25.1470 C   0  0  1  0  0  0  0  0  0  0  0  0
    8.0134  -14.9248   25.9316 C   0  0  0  0  0  0  0  0  0  0  0  0
    7.4834  -13.6201   26.3757 C   0  0  0  0  0  0  0  0  0  0  0  0
    6.4230  -13.0492   25.6760 C   0  0  0  0  0  0  0  0  0  0  0  0
    5.8956  -11.8361   26.0711 C   0  0  0  0  0  0  0  0  0  0  0  0
    6.3989  -11.1676   27.1546 C   0  0  0  0  0  0  0  0  0  0  0  0
    7.4353  -11.7017   27.8577 C   0  0  0  0  0  0  0  0  0  0  0  0
    7.9614  -12.9189   27.4581 C   0  0  0  0  0  0  0  0  0  0  0  0
    7.6174  -16.1140   23.8347 C   0  0  0  0  0  0  0  0  0  0  0  0
    7.9343  -17.2894   23.5937 O   0  0  0  0  0  0  0  0  0  0  0  0
    7.7721  -12.4745   18.7050 N   0  0  0  0  0  0  0  0  0  0  0  0
    8.1906  -13.7299   18.2034 C   0  0  0  0  0  0  0  0  0  0  0  0
    8.5564  -13.8581   17.0220 O   0  0  0  0  0  0  0  0  0  0  0  0
    8.2045  -14.9408   19.0839 C   0  0  0  0  0  0  0  0  0  0  0  0
    7.7409  -14.5426   20.4587 C   0  0  0  0  0  0  0  0  0  0  0  0
    8.2322  -15.4861   21.4734 C   0  0  2  0  0  0  0  0  0  0  0  0
    7.8050  -15.1519   22.8308 N   0  0  0  0  0  0  0  0  0  0  0  0
    9.7072  -15.6344   21.4661 C   0  0  0  0  0  0  0  0  0  0  0  0
   10.3719  -16.0052   20.4707 O   0  0  0  0  0  0  0  0  0  0  0  0
   10.4895  -15.3507   22.6450 N   0  0  0  0  0  0  0  0  0  0  0  0
   11.9484  -15.3303   22.5773 C   0  0  0  0  0  0  0  0  0  0  0  0
   12.5350  -16.6131   22.9616 C   0  0  0  0  0  0  0  0  0  0  0  0
   11.8411  -17.6297   23.1731 O   0  0  0  0  0  0  0  0  0  0  0  0
   13.9079  -16.6980   23.0945 O   0  0  0  0  0  0  0  0  0  0  0  0
  2  1  1  1
  2 10  1  0
  3  2  1  0
  4  3  1  0
  5  4  2  0
  6  5  1  0
  7  6  2  0
  7  8  1  0
  8  9  2  0
  9  4  1  0
 10 11  2  0
 13 15  1  0
 13 12  1  0
 14 13  2  0
 16 15  1  0
 17 16  1  6
 18 10  1  0
 18 17  1  0
 19 17  1  0
 19 21  1  0
 20 19  2  0
 22 23  1  0
 22 21  1  0
 23 25  1  0
 24 23  2  0
M  END
$$$$
