FQG.pdb
     RDKit          3D

 25 25  0  0  1  0  0  0  0  0999 V2000
    6.4055  -16.5090   25.3230 N   0  0  0  0  0  0  0  0  0  0  0  0
    6.9728  -15.3985   24.5803 C   0  0  1  0  0  0  0  0  0  0  0  0
    7.8466  -14.5358   25.4209 C   0  0  0  0  0  0  0  0  0  0  0  0
    7.1436  -13.4617   26.1507 C   0  0  0  0  0  0  0  0  0  0  0  0
    7.6930  -12.9806   27.3368 C   0  0  0  0  0  0  0  0  0  0  0  0
    7.0681  -11.9692   28.0383 C   0  0  0  0  0  0  0  0  0  0  0  0
    5.8991  -11.4167   27.5882 C   0  0  0  0  0  0  0  0  0  0  0  0
    5.3391  -11.8669   26.4318 C   0  0  0  0  0  0  0  0  0  0  0  0
    5.9692  -12.8817   25.7309 C   0  0  0  0  0  0  0  0  0  0  0  0
    7.7023  -15.9271   23.4180 C   0  0  0  0  0  0  0  0  0  0  0  0
    8.0149  -17.1272   23.3727 O   0  0  0  0  0  0  0  0  0  0  0  0
    8.8950  -12.8959   18.0563 N   0  0  0  0  0  0  0  0  0  0  0  0
    7.8268  -13.8127   18.2021 C   0  0  0  0  0  0  0  0  0  0  0  0
    6.8883  -13.8377   17.3868 O   0  0  0  0  0  0  0  0  0  0  0  0
    7.7977  -14.7799   19.3446 C   0  0  0  0  0  0  0  0  0  0  0  0
    9.0519  -14.6045   20.1569 C   0  0  0  0  0  0  0  0  0  0  0  0
    9.0453  -15.4877   21.3321 C   0  0  2  0  0  0  0  0  0  0  0  0
    8.0610  -15.1018   22.3415 N   0  0  0  0  0  0  0  0  0  0  0  0
   10.3716  -15.5995   21.9850 C   0  0  0  0  0  0  0  0  0  0  0  0
   10.8097  -14.7858   22.8312 O   0  0  0  0  0  0  0  0  0  0  0  0
   11.2651  -16.6887   21.6730 N   0  0  0  0  0  0  0  0  0  0  0  0
   12.6034  -16.7376   22.2562 C   0  0  0  0  0  0  0  0  0  0  0  0
   13.4281  -17.7837   21.6539 C   0  0  0  0  0  0  0  0  0  0  0  0
   14.6084  -17.9909   22.0054 O   0  0  0  0  0  0  0  0  0  0  0  0
   12.8762  -18.5690   20.6595 O   0  0  0  0  0  0  0  0  0  0  0  0
  2  1  1  1
  2 10  1  0
  3  2  1  0
  4  3  1  0
  5  4  2  0
  6  5  1  0
  7  6  2  0
  7  8  1  0
  8  9  2  0
  9  4  1  0
 10 11  2  0
 13 15  1  0
 13 12  1  0
 14 13  2  0
 16 15  1  0
 17 16  1  6
 18 10  1  0
 18 17  1  0
 19 17  1  0
 19 21  1  0
 20 19  2  0
 22 23  1  0
 22 21  1  0
 23 25  1  0
 24 23  2  0
M  END
$$$$
