FQG.pdb
     RDKit          3D

 25 25  0  0  1  0  0  0  0  0999 V2000
    6.5789  -17.1714   25.9470 N   0  0  0  0  0  0  0  0  0  0  0  0
    6.9017  -15.9350   25.2588 C   0  0  1  0  0  0  0  0  0  0  0  0
    7.8147  -15.0637   26.0472 C   0  0  0  0  0  0  0  0  0  0  0  0
    7.2809  -13.7222   26.3572 C   0  0  0  0  0  0  0  0  0  0  0  0
    6.4052  -13.1201   25.4569 C   0  0  0  0  0  0  0  0  0  0  0  0
    5.8783  -11.8717   25.7210 C   0  0  0  0  0  0  0  0  0  0  0  0
    6.2017  -11.1981   26.8682 C   0  0  0  0  0  0  0  0  0  0  0  0
    7.0552  -11.7622   27.7664 C   0  0  0  0  0  0  0  0  0  0  0  0
    7.5814  -13.0148   27.4978 C   0  0  0  0  0  0  0  0  0  0  0  0
    7.4746  -16.2585   23.9437 C   0  0  0  0  0  0  0  0  0  0  0  0
    7.7570  -17.4331   23.6597 O   0  0  0  0  0  0  0  0  0  0  0  0
    7.7809  -12.4012   18.9885 N   0  0  0  0  0  0  0  0  0  0  0  0
    8.1232  -13.6523   18.4223 C   0  0  0  0  0  0  0  0  0  0  0  0
    8.4596  -13.7447   17.2289 O   0  0  0  0  0  0  0  0  0  0  0  0
    8.0894  -14.9015   19.2469 C   0  0  0  0  0  0  0  0  0  0  0  0
    7.6552  -14.5462   20.6429 C   0  0  0  0  0  0  0  0  0  0  0  0
    8.1098  -15.5572   21.6086 C   0  0  2  0  0  0  0  0  0  0  0  0
    7.7152  -15.2627   22.9849 N   0  0  0  0  0  0  0  0  0  0  0  0
    9.5753  -15.7784   21.5749 C   0  0  0  0  0  0  0  0  0  0  0  0
   10.2092  -16.1369   20.5553 O   0  0  0  0  0  0  0  0  0  0  0  0
   10.3839  -15.5871   22.7546 N   0  0  0  0  0  0  0  0  0  0  0  0
   11.8414  -15.6273   22.6667 C   0  0  0  0  0  0  0  0  0  0  0  0
   12.3691  -16.9723   22.8897 C   0  0  0  0  0  0  0  0  0  0  0  0
   11.6307  -17.9763   22.9689 O   0  0  0  0  0  0  0  0  0  0  0  0
   13.7359  -17.1326   23.0170 O   0  0  0  0  0  0  0  0  0  0  0  0
  2  1  1  1
  2 10  1  0
  3  2  1  0
  4  3  1  0
  5  4  2  0
  6  5  1  0
  7  6  2  0
  7  8  1  0
  8  9  2  0
  9  4  1  0
 10 11  2  0
 13 15  1  0
 13 12  1  0
 14 13  2  0
 16 15  1  0
 17 16  1  6
 18 10  1  0
 18 17  1  0
 19 17  1  0
 19 21  1  0
 20 19  2  0
 22 23  1  0
 22 21  1  0
 23 25  1  0
 24 23  2  0
M  END
$$$$
