FQG.pdb
     RDKit          3D

 25 25  0  0  1  0  0  0  0  0999 V2000
    5.8569  -17.1615   25.8812 N   0  0  0  0  0  0  0  0  0  0  0  0
    6.8180  -16.1679   25.4389 C   0  0  1  0  0  0  0  0  0  0  0  0
    7.5181  -15.5055   26.5727 C   0  0  0  0  0  0  0  0  0  0  0  0
    7.2849  -14.0516   26.6839 C   0  0  0  0  0  0  0  0  0  0  0  0
    5.9761  -13.5831   26.7714 C   0  0  0  0  0  0  0  0  0  0  0  0
    5.7227  -12.2311   26.8882 C   0  0  0  0  0  0  0  0  0  0  0  0
    6.7459  -11.3221   26.9207 C   0  0  0  0  0  0  0  0  0  0  0  0
    8.0353  -11.7512   26.8372 C   0  0  0  0  0  0  0  0  0  0  0  0
    8.2852  -13.1084   26.7203 C   0  0  0  0  0  0  0  0  0  0  0  0
    7.7727  -16.8058   24.5202 C   0  0  0  0  0  0  0  0  0  0  0  0
    7.6205  -17.9922   24.1896 O   0  0  0  0  0  0  0  0  0  0  0  0
    6.2650  -14.3791   20.9212 N   0  0  0  0  0  0  0  0  0  0  0  0
    7.0696  -15.5092   20.6412 C   0  0  0  0  0  0  0  0  0  0  0  0
    6.5855  -16.5249   20.1122 O   0  0  0  0  0  0  0  0  0  0  0  0
    8.5291  -15.5124   20.9752 C   0  0  0  0  0  0  0  0  0  0  0  0
    8.8657  -16.8124   21.6535 C   0  0  0  0  0  0  0  0  0  0  0  0
    9.6615  -16.5816   22.8679 C   0  0  2  0  0  0  0  0  0  0  0  0
    8.8682  -16.1017   23.9980 N   0  0  0  0  0  0  0  0  0  0  0  0
   10.7927  -15.6475   22.6550 C   0  0  0  0  0  0  0  0  0  0  0  0
   10.6812  -14.3994   22.6415 O   0  0  0  0  0  0  0  0  0  0  0  0
   12.1332  -16.1380   22.4436 N   0  0  0  0  0  0  0  0  0  0  0  0
   13.2629  -15.5253   23.1377 C   0  0  0  0  0  0  0  0  0  0  0  0
   14.5439  -16.0716   22.6926 C   0  0  0  0  0  0  0  0  0  0  0  0
   14.6349  -17.1686   22.1027 O   0  0  0  0  0  0  0  0  0  0  0  0
   15.6928  -15.3432   22.9364 O   0  0  0  0  0  0  0  0  0  0  0  0
  2  1  1  1
  2 10  1  0
  3  2  1  0
  4  3  1  0
  5  4  2  0
  6  5  1  0
  7  6  2  0
  7  8  1  0
  8  9  2  0
  9  4  1  0
 10 11  2  0
 13 15  1  0
 13 12  1  0
 14 13  2  0
 16 15  1  0
 17 16  1  6
 18 10  1  0
 18 17  1  0
 19 17  1  0
 19 21  1  0
 20 19  2  0
 22 23  1  0
 22 21  1  0
 23 25  1  0
 24 23  2  0
M  END
$$$$
