ILT.pdb
     RDKit          3D

 24 23  0  0  1  0  0  0  0  0999 V2000
   16.1798  -26.3440   -9.1851 C   0  0  0  0  0  0  0  0  0  0  0  0
   17.6236  -26.1136   -8.8805 C   0  0  0  0  0  0  0  0  0  0  0  0
   18.0002  -26.6060   -7.4808 C   0  0  2  0  0  0  0  0  0  0  0  0
   17.3960  -27.9378   -7.2034 C   0  0  0  0  0  0  0  0  0  0  0  0
   17.6497  -25.5277   -6.4738 C   0  0  2  0  0  0  0  0  0  0  0  0
   18.5610  -24.3932   -6.7514 N   0  0  0  0  0  0  0  0  0  0  0  0
   17.7593  -25.9473   -5.0762 C   0  0  0  0  0  0  0  0  0  0  0  0
   18.9234  -25.9417   -4.5407 O   0  0  0  0  0  0  0  0  0  0  0  0
   17.1192  -24.8856   -0.6275 C   0  0  0  0  0  0  0  0  0  0  0  0
   15.8675  -25.1052   -1.4979 C   0  0  2  0  0  0  0  0  0  0  0  0
   14.6757  -24.8250   -0.6121 C   0  0  0  0  0  0  0  0  0  0  0  0
   15.8927  -26.5273   -1.9254 C   0  0  0  0  0  0  0  0  0  0  0  0
   16.9403  -26.9229   -2.8996 C   0  0  2  0  0  0  0  0  0  0  0  0
   16.7172  -26.3655   -4.2265 N   0  0  0  0  0  0  0  0  0  0  0  0
   17.2025  -28.3524   -2.9818 C   0  0  0  0  0  0  0  0  0  0  0  0
   16.7515  -29.0960   -3.9214 O   0  0  0  0  0  0  0  0  0  0  0  0
   19.6035  -32.2050   -0.9050 C   0  0  0  0  0  0  0  0  0  0  0  0
   19.2967  -30.7368   -1.0060 C   0  0  1  0  0  0  0  0  0  0  0  0
   20.4158  -30.0104   -1.3939 O   0  0  0  0  0  0  0  0  0  0  0  0
   18.2274  -30.4688   -2.0865 C   0  0  2  0  0  0  0  0  0  0  0  0
   17.9921  -29.0488   -2.0196 N   0  0  0  0  0  0  0  0  0  0  0  0
   17.0067  -31.1847   -1.6810 C   0  0  0  0  0  0  0  0  0  0  0  0
   16.7144  -32.4199   -2.2246 O   0  0  0  0  0  0  0  0  0  0  0  0
   16.1921  -30.7120   -0.8394 O   0  0  0  0  0  0  0  0  0  0  0  0
  1  2  1  0
  3  2  1  0
  3  4  1  1
  5  6  1  1
  5  3  1  0
  7  5  1  0
  8  7  2  0
 10 11  1  1
 10  9  1  0
 12 10  1  0
 13 12  1  1
 13 14  1  0
 14  7  1  0
 15 13  1  0
 16 15  2  0
 18 17  1  6
 18 19  1  0
 20 18  1  0
 20 21  1  1
 21 15  1  0
 22 23  1  0
 22 20  1  0
 24 22  2  0
M  END
$$$$
