ILT.pdb
     RDKit          3D

 24 23  0  0  1  0  0  0  0  0999 V2000
   14.5909  -21.5421   -0.2183 C   0  0  0  0  0  0  0  0  0  0  0  0
   14.3625  -21.0296    1.1657 C   0  0  0  0  0  0  0  0  0  0  0  0
   15.6057  -20.3412    1.7348 C   0  0  2  0  0  0  0  0  0  0  0  0
   16.7826  -21.2519    1.7003 C   0  0  0  0  0  0  0  0  0  0  0  0
   15.2717  -19.7870    3.1063 C   0  0  2  0  0  0  0  0  0  0  0  0
   14.0221  -19.0083    2.9424 N   0  0  0  0  0  0  0  0  0  0  0  0
   16.3232  -18.9572    3.6954 C   0  0  0  0  0  0  0  0  0  0  0  0
   17.4484  -19.5134    3.9535 O   0  0  0  0  0  0  0  0  0  0  0  0
   18.8911  -15.8901    2.2702 C   0  0  0  0  0  0  0  0  0  0  0  0
   17.5472  -15.2974    2.7340 C   0  0  2  0  0  0  0  0  0  0  0  0
   17.5789  -13.8305    2.3725 C   0  0  0  0  0  0  0  0  0  0  0  0
   17.4874  -15.4836    4.2062 C   0  0  0  0  0  0  0  0  0  0  0  0
   17.3134  -16.8700    4.7068 C   0  0  2  0  0  0  0  0  0  0  0  0
   16.2492  -17.5890    4.0202 N   0  0  0  0  0  0  0  0  0  0  0  0
   17.1677  -16.9945    6.1498 C   0  0  0  0  0  0  0  0  0  0  0  0
   17.9535  -16.4270    6.9864 O   0  0  0  0  0  0  0  0  0  0  0  0
   14.2904  -18.3718    9.9271 C   0  0  0  0  0  0  0  0  0  0  0  0
   14.5376  -18.0871    8.4719 C   0  0  1  0  0  0  0  0  0  0  0  0
   13.9867  -16.8691    8.0927 O   0  0  0  0  0  0  0  0  0  0  0  0
   16.0491  -17.9727    8.1803 C   0  0  2  0  0  0  0  0  0  0  0  0
   16.1290  -17.7600    6.7574 N   0  0  0  0  0  0  0  0  0  0  0  0
   16.6585  -19.2705    8.5141 C   0  0  0  0  0  0  0  0  0  0  0  0
   16.8507  -20.2198    7.5299 O   0  0  0  0  0  0  0  0  0  0  0  0
   17.0226  -19.5663    9.6868 O   0  0  0  0  0  0  0  0  0  0  0  0
  1  2  1  0
  3  2  1  0
  3  4  1  1
  5  6  1  6
  5  3  1  0
  7  5  1  0
  8  7  2  0
 10 11  1  1
 10  9  1  0
 12 10  1  0
 13 12  1  1
 13 14  1  0
 14  7  1  0
 15 13  1  0
 16 15  2  0
 18 17  1  1
 18 19  1  0
 20 18  1  0
 20 21  1  6
 21 15  1  0
 22 23  1  0
 22 20  1  0
 24 22  2  0
M  END
$$$$
