ILT.pdb
     RDKit          3D

 24 23  0  0  1  0  0  0  0  0999 V2000
   18.1117  -22.3396   -8.9971 C   0  0  0  0  0  0  0  0  0  0  0  0
   19.1344  -22.3825  -10.0845 C   0  0  0  0  0  0  0  0  0  0  0  0
   20.2450  -21.3514   -9.8684 C   0  0  2  0  0  0  0  0  0  0  0  0
   19.6758  -19.9986   -9.6195 C   0  0  0  0  0  0  0  0  0  0  0  0
   21.2148  -21.4279  -11.0317 C   0  0  2  0  0  0  0  0  0  0  0  0
   21.3603  -22.8668  -11.3523 N   0  0  0  0  0  0  0  0  0  0  0  0
   22.5214  -20.8230  -10.7701 C   0  0  0  0  0  0  0  0  0  0  0  0
   22.7354  -19.6443  -11.2250 O   0  0  0  0  0  0  0  0  0  0  0  0
   27.3175  -20.9156   -7.0152 C   0  0  0  0  0  0  0  0  0  0  0  0
   26.7797  -20.2535   -8.2977 C   0  0  2  0  0  0  0  0  0  0  0  0
   26.6978  -18.7718   -8.0124 C   0  0  0  0  0  0  0  0  0  0  0  0
   25.4307  -20.8268   -8.5370 C   0  0  0  0  0  0  0  0  0  0  0  0
   24.8935  -20.7404   -9.9179 C   0  0  2  0  0  0  0  0  0  0  0  0
   23.5980  -21.3902  -10.0617 N   0  0  0  0  0  0  0  0  0  0  0  0
   25.8046  -21.1764  -10.9661 C   0  0  0  0  0  0  0  0  0  0  0  0
   26.3980  -22.3109  -10.9534 O   0  0  0  0  0  0  0  0  0  0  0  0
   25.5279  -22.8729  -13.5756 C   0  0  0  0  0  0  0  0  0  0  0  0
   25.9761  -21.5558  -14.1450 C   0  0  1  0  0  0  0  0  0  0  0  0
   24.9055  -20.6869  -14.3169 O   0  0  0  0  0  0  0  0  0  0  0  0
   26.9472  -20.8394  -13.1823 C   0  0  2  0  0  0  0  0  0  0  0  0
   26.1119  -20.3740  -12.1044 N   0  0  0  0  0  0  0  0  0  0  0  0
   27.5032  -19.6823  -13.9027 C   0  0  0  0  0  0  0  0  0  0  0  0
   27.1179  -18.4015  -13.5595 O   0  0  0  0  0  0  0  0  0  0  0  0
   28.3359  -19.8068  -14.8441 O   0  0  0  0  0  0  0  0  0  0  0  0
  1  2  1  0
  3  2  1  0
  3  4  1  6
  5  6  1  1
  5  3  1  0
  7  5  1  0
  8  7  2  0
 10 11  1  1
 10  9  1  0
 12 10  1  0
 13 12  1  1
 13 14  1  0
 14  7  1  0
 15 13  1  0
 16 15  2  0
 18 17  1  1
 18 19  1  0
 20 18  1  0
 20 21  1  1
 21 15  1  0
 22 23  1  0
 22 20  1  0
 24 22  2  0
M  END
$$$$
