ILT.pdb
     RDKit          3D

 24 23  0  0  1  0  0  0  0  0999 V2000
   18.7878  -21.8780  -11.7951 C   0  0  0  0  0  0  0  0  0  0  0  0
   19.8838  -21.9195  -12.8086 C   0  0  0  0  0  0  0  0  0  0  0  0
   21.0516  -21.0057  -12.4283 C   0  0  2  0  0  0  0  0  0  0  0  0
   20.5661  -19.6526  -12.0419 C   0  0  0  0  0  0  0  0  0  0  0  0
   22.0675  -21.0182  -13.5541 C   0  0  2  0  0  0  0  0  0  0  0  0
   22.2422  -22.4390  -13.9351 N   0  0  0  0  0  0  0  0  0  0  0  0
   23.3555  -20.4135  -13.2126 C   0  0  0  0  0  0  0  0  0  0  0  0
   23.4055  -19.1379  -13.1013 O   0  0  0  0  0  0  0  0  0  0  0  0
   25.2650  -19.5740   -9.7849 C   0  0  0  0  0  0  0  0  0  0  0  0
   25.6045  -21.0227  -10.1829 C   0  0  2  0  0  0  0  0  0  0  0  0
   26.3810  -21.6129   -9.0287 C   0  0  0  0  0  0  0  0  0  0  0  0
   26.4440  -20.9407  -11.4053 C   0  0  0  0  0  0  0  0  0  0  0  0
   25.8085  -20.3879  -12.6273 C   0  0  2  0  0  0  0  0  0  0  0  0
   24.5763  -21.0773  -12.9844 N   0  0  0  0  0  0  0  0  0  0  0  0
   26.6847  -20.2726  -13.7839 C   0  0  0  0  0  0  0  0  0  0  0  0
   27.8209  -19.6834  -13.7480 O   0  0  0  0  0  0  0  0  0  0  0  0
   28.7331  -22.4545  -15.6791 C   0  0  0  0  0  0  0  0  0  0  0  0
   27.6708  -21.9833  -16.6327 C   0  0  1  0  0  0  0  0  0  0  0  0
   26.5599  -22.8175  -16.6067 O   0  0  0  0  0  0  0  0  0  0  0  0
   27.1538  -20.5839  -16.2363 C   0  0  2  0  0  0  0  0  0  0  0  0
   26.3519  -20.8129  -15.0612 N   0  0  0  0  0  0  0  0  0  0  0  0
   26.2906  -20.1103  -17.3306 C   0  0  0  0  0  0  0  0  0  0  0  0
   26.8312  -19.8373  -18.5716 O   0  0  0  0  0  0  0  0  0  0  0  0
   25.0480  -19.9359  -17.1863 O   0  0  0  0  0  0  0  0  0  0  0  0
  1  2  1  0
  3  2  1  0
  3  4  1  6
  5  6  1  1
  5  3  1  0
  7  5  1  0
  8  7  2  0
 10 11  1  1
 10  9  1  0
 12 10  1  0
 13 12  1  1
 13 14  1  0
 14  7  1  0
 15 13  1  0
 16 15  2  0
 18 17  1  1
 18 19  1  0
 20 18  1  0
 20 21  1  1
 21 15  1  0
 22 23  1  0
 22 20  1  0
 24 22  2  0
M  END
$$$$
