ILT.pdb
     RDKit          3D

 24 23  0  0  1  0  0  0  0  0999 V2000
   18.3469  -14.3018  -17.0948 C   0  0  0  0  0  0  0  0  0  0  0  0
   19.2077  -13.2646  -17.7378 C   0  0  0  0  0  0  0  0  0  0  0  0
   19.7894  -12.2867  -16.7138 C   0  0  2  0  0  0  0  0  0  0  0  0
   18.7137  -11.6877  -15.8773 C   0  0  0  0  0  0  0  0  0  0  0  0
   20.6626  -11.2819  -17.4401 C   0  0  2  0  0  0  0  0  0  0  0  0
   21.4867  -12.0640  -18.3908 N   0  0  0  0  0  0  0  0  0  0  0  0
   21.5122  -10.4746  -16.5639 C   0  0  0  0  0  0  0  0  0  0  0  0
   20.9973  -10.0284  -15.4786 O   0  0  0  0  0  0  0  0  0  0  0  0
   25.4243  -11.1307  -14.4446 C   0  0  0  0  0  0  0  0  0  0  0  0
   25.6145  -10.7020  -15.9117 C   0  0  2  0  0  0  0  0  0  0  0  0
   27.1035  -10.7061  -16.1692 C   0  0  0  0  0  0  0  0  0  0  0  0
   25.0560   -9.3308  -16.0284 C   0  0  0  0  0  0  0  0  0  0  0  0
   23.5828   -9.1881  -15.9176 C   0  0  2  0  0  0  0  0  0  0  0  0
   22.8592  -10.1204  -16.7710 N   0  0  0  0  0  0  0  0  0  0  0  0
   23.0761   -7.8347  -16.0920 C   0  0  0  0  0  0  0  0  0  0  0  0
   23.1532   -7.1932  -17.1975 O   0  0  0  0  0  0  0  0  0  0  0  0
   19.9847   -6.2962  -16.4475 C   0  0  0  0  0  0  0  0  0  0  0  0
   20.5254   -5.7330  -15.1628 C   0  0  1  0  0  0  0  0  0  0  0  0
   20.1600   -6.5140  -14.0732 O   0  0  0  0  0  0  0  0  0  0  0  0
   22.0690   -5.7208  -15.1713 C   0  0  2  0  0  0  0  0  0  0  0  0
   22.4434   -7.1061  -15.0418 N   0  0  0  0  0  0  0  0  0  0  0  0
   22.5071   -4.9836  -13.9747 C   0  0  0  0  0  0  0  0  0  0  0  0
   22.4087   -3.6069  -13.9337 O   0  0  0  0  0  0  0  0  0  0  0  0
   22.9819   -5.5634  -12.9580 O   0  0  0  0  0  0  0  0  0  0  0  0
  1  2  1  0
  3  2  1  0
  3  4  1  6
  5  6  1  6
  5  3  1  0
  7  5  1  0
  8  7  2  0
 10 11  1  1
 10  9  1  0
 12 10  1  0
 13 12  1  6
 13 14  1  0
 14  7  1  0
 15 13  1  0
 16 15  2  0
 18 17  1  6
 18 19  1  0
 20 18  1  0
 20 21  1  1
 21 15  1  0
 22 23  1  0
 22 20  1  0
 24 22  2  0
M  END
$$$$
