MGM.pdb
     RDKit          3D

 21 20  0  0  1  0  0  0  0  0999 V2000
   26.4319  -24.9723  -15.8051 C   0  0  0  0  0  0  0  0  0  0  0  0
   24.7845  -24.3363  -16.1532 S   0  0  0  0  0  0  0  0  0  0  0  0
   24.9310  -22.7013  -16.9320 C   0  0  0  0  0  0  0  0  0  0  0  0
   25.6064  -21.7822  -15.9411 C   0  0  0  0  0  0  0  0  0  0  0  0
   24.8220  -21.5868  -14.6870 C   0  0  2  0  0  0  0  0  0  0  0  0
   23.6232  -20.8261  -14.8384 N   0  0  0  0  0  0  0  0  0  0  0  0
   25.7344  -21.0328  -13.6546 C   0  0  0  0  0  0  0  0  0  0  0  0
   25.7573  -19.7747  -13.5172 O   0  0  0  0  0  0  0  0  0  0  0  0
   26.5697  -21.7955  -12.8229 N   0  0  0  0  0  0  0  0  0  0  0  0
   27.4129  -21.1880  -11.8454 C   0  0  0  0  0  0  0  0  0  0  0  0
   26.8453  -21.2240  -10.4733 C   0  0  0  0  0  0  0  0  0  0  0  0
   25.7211  -21.6428  -10.1748 O   0  0  0  0  0  0  0  0  0  0  0  0
   30.4735  -20.0897   -5.0926 C   0  0  0  0  0  0  0  0  0  0  0  0
   28.8793  -19.4364   -4.5692 S   0  0  0  0  0  0  0  0  0  0  0  0
   27.6066  -20.0960   -5.6984 C   0  0  0  0  0  0  0  0  0  0  0  0
   28.1084  -20.0102   -7.1121 C   0  0  0  0  0  0  0  0  0  0  0  0
   27.1752  -20.7346   -8.0523 C   0  0  2  0  0  0  0  0  0  0  0  0
   27.6760  -20.7314   -9.4152 N   0  0  0  0  0  0  0  0  0  0  0  0
   25.8736  -19.9782   -8.0400 C   0  0  0  0  0  0  0  0  0  0  0  0
   25.6724  -18.8382   -8.8064 O   0  0  0  0  0  0  0  0  0  0  0  0
   24.9189  -20.3603   -7.3276 O   0  0  0  0  0  0  0  0  0  0  0  0
  2  1  1  0
  3  2  1  0
  4  3  1  0
  4  5  1  0
  5  7  1  0
  5  6  1  6
  7  8  2  0
  9  7  1  0
 10  9  1  0
 10 11  1  0
 11 12  2  0
 11 18  1  0
 14 13  1  0
 15 14  1  0
 16 15  1  0
 17 16  1  1
 18 17  1  0
 19 20  1  0
 19 17  1  0
 21 19  2  0
M  END
$$$$
