MGM.pdb
     RDKit          3D

 21 20  0  0  1  0  0  0  0  0999 V2000
   28.3228  -14.2453  -16.5854 C   0  0  0  0  0  0  0  0  0  0  0  0
   27.0291  -14.2802  -15.3346 S   0  0  0  0  0  0  0  0  0  0  0  0
   25.9969  -15.7539  -15.5883 C   0  0  0  0  0  0  0  0  0  0  0  0
   26.9189  -16.9087  -15.9030 C   0  0  0  0  0  0  0  0  0  0  0  0
   26.1979  -18.1337  -16.3564 C   0  0  2  0  0  0  0  0  0  0  0  0
   25.2769  -17.9290  -17.4281 N   0  0  0  0  0  0  0  0  0  0  0  0
   25.5732  -18.7672  -15.1674 C   0  0  0  0  0  0  0  0  0  0  0  0
   26.0469  -18.4633  -14.0335 O   0  0  0  0  0  0  0  0  0  0  0  0
   24.5016  -19.6735  -15.2054 N   0  0  0  0  0  0  0  0  0  0  0  0
   23.4520  -19.6359  -14.2399 C   0  0  0  0  0  0  0  0  0  0  0  0
   22.0984  -19.5433  -14.8443 C   0  0  0  0  0  0  0  0  0  0  0  0
   21.5624  -18.5032  -15.2430 O   0  0  0  0  0  0  0  0  0  0  0  0
   19.4260  -24.6152  -17.8114 C   0  0  0  0  0  0  0  0  0  0  0  0
   17.9014  -23.7697  -17.3608 S   0  0  0  0  0  0  0  0  0  0  0  0
   18.3387  -22.0892  -16.7997 C   0  0  0  0  0  0  0  0  0  0  0  0
   19.6578  -22.1359  -16.0819 C   0  0  0  0  0  0  0  0  0  0  0  0
   20.0682  -20.7539  -15.6333 C   0  0  2  0  0  0  0  0  0  0  0  0
   21.3609  -20.7649  -14.9722 N   0  0  0  0  0  0  0  0  0  0  0  0
   19.0427  -20.3017  -14.6280 C   0  0  0  0  0  0  0  0  0  0  0  0
   17.9170  -19.5762  -14.9937 O   0  0  0  0  0  0  0  0  0  0  0  0
   19.1763  -20.5706  -13.4136 O   0  0  0  0  0  0  0  0  0  0  0  0
  2  1  1  0
  3  2  1  0
  4  3  1  0
  4  5  1  0
  5  7  1  0
  5  6  1  6
  7  8  2  0
  9  7  1  0
 10  9  1  0
 10 11  1  0
 11 12  2  0
 11 18  1  0
 14 13  1  0
 15 14  1  0
 16 15  1  0
 17 16  1  1
 18 17  1  0
 19 20  1  0
 19 17  1  0
 21 19  2  0
M  END
$$$$
