MGM.pdb
     RDKit          3D

 21 20  0  0  1  0  0  0  0  0999 V2000
   19.6818  -15.7805  -17.6592 C   0  0  0  0  0  0  0  0  0  0  0  0
   20.4404  -14.9511  -19.0648 S   0  0  0  0  0  0  0  0  0  0  0  0
   19.6930  -13.3062  -19.2585 C   0  0  0  0  0  0  0  0  0  0  0  0
   19.5876  -12.6878  -17.8840 C   0  0  0  0  0  0  0  0  0  0  0  0
   18.8743  -11.3773  -17.8791 C   0  0  2  0  0  0  0  0  0  0  0  0
   19.2603  -10.4772  -18.9181 N   0  0  0  0  0  0  0  0  0  0  0  0
   19.0038  -10.7873  -16.5224 C   0  0  0  0  0  0  0  0  0  0  0  0
   18.5947  -11.4830  -15.5472 O   0  0  0  0  0  0  0  0  0  0  0  0
   19.5434   -9.5222  -16.2408 N   0  0  0  0  0  0  0  0  0  0  0  0
   19.8246   -9.1063  -14.9053 C   0  0  0  0  0  0  0  0  0  0  0  0
   21.2016   -8.5779  -14.7303 C   0  0  0  0  0  0  0  0  0  0  0  0
   21.6293   -8.0176  -13.7148 O   0  0  0  0  0  0  0  0  0  0  0  0
   27.2796  -11.1226  -16.0759 C   0  0  0  0  0  0  0  0  0  0  0  0
   25.5790  -11.6596  -16.3245 S   0  0  0  0  0  0  0  0  0  0  0  0
   24.4854  -10.4525  -15.5016 C   0  0  0  0  0  0  0  0  0  0  0  0
   24.4674   -9.1789  -16.2987 C   0  0  0  0  0  0  0  0  0  0  0  0
   23.4526   -8.2134  -15.7352 C   0  0  2  0  0  0  0  0  0  0  0  0
   22.1013   -8.7353  -15.8341 N   0  0  0  0  0  0  0  0  0  0  0  0
   23.5257   -6.9670  -16.5765 C   0  0  0  0  0  0  0  0  0  0  0  0
   22.4837   -6.5695  -17.4034 O   0  0  0  0  0  0  0  0  0  0  0  0
   24.5438   -6.2404  -16.5554 O   0  0  0  0  0  0  0  0  0  0  0  0
  2  1  1  0
  3  2  1  0
  4  3  1  0
  4  5  1  0
  5  7  1  0
  5  6  1  6
  7  8  2  0
  9  7  1  0
 10  9  1  0
 10 11  1  0
 11 12  2  0
 11 18  1  0
 14 13  1  0
 15 14  1  0
 16 15  1  0
 17 16  1  6
 18 17  1  0
 19 20  1  0
 19 17  1  0
 21 19  2  0
M  END
$$$$
