MGM.pdb
     RDKit          3D

 21 20  0  0  1  0  0  0  0  0999 V2000
   11.1707  -12.2324  -13.8541 C   0  0  0  0  0  0  0  0  0  0  0  0
   11.5623  -12.6729  -15.5546 S   0  0  0  0  0  0  0  0  0  0  0  0
   13.3389  -13.0323  -15.6814 C   0  0  0  0  0  0  0  0  0  0  0  0
   14.0535  -11.7233  -15.9231 C   0  0  0  0  0  0  0  0  0  0  0  0
   15.5399  -11.8529  -15.9228 C   0  0  2  0  0  0  0  0  0  0  0  0
   16.0822  -12.5680  -14.8123 N   0  0  0  0  0  0  0  0  0  0  0  0
   16.1208  -10.4951  -16.0783 C   0  0  0  0  0  0  0  0  0  0  0  0
   15.5686   -9.7214  -16.9142 O   0  0  0  0  0  0  0  0  0  0  0  0
   17.2311  -10.0066  -15.3713 N   0  0  0  0  0  0  0  0  0  0  0  0
   17.6002   -8.6291  -15.4119 C   0  0  0  0  0  0  0  0  0  0  0  0
   18.6925   -8.2836  -14.4665 C   0  0  0  0  0  0  0  0  0  0  0  0
   18.8724   -8.8045  -13.3600 O   0  0  0  0  0  0  0  0  0  0  0  0
   25.5009  -10.3140  -14.3015 C   0  0  0  0  0  0  0  0  0  0  0  0
   23.8308  -10.2395  -14.9703 S   0  0  0  0  0  0  0  0  0  0  0  0
   23.0513   -8.7071  -14.3585 C   0  0  0  0  0  0  0  0  0  0  0  0
   21.6577   -8.6072  -14.9113 C   0  0  0  0  0  0  0  0  0  0  0  0
   20.9947   -7.3301  -14.4541 C   0  0  2  0  0  0  0  0  0  0  0  0
   19.6081   -7.2621  -14.8796 N   0  0  0  0  0  0  0  0  0  0  0  0
   21.7335   -6.1971  -15.1151 C   0  0  0  0  0  0  0  0  0  0  0  0
   22.7606   -5.5123  -14.4799 O   0  0  0  0  0  0  0  0  0  0  0  0
   21.4394   -5.8328  -16.2752 O   0  0  0  0  0  0  0  0  0  0  0  0
  2  1  1  0
  3  2  1  0
  4  3  1  0
  4  5  1  0
  5  7  1  0
  5  6  1  1
  7  8  2  0
  9  7  1  0
 10  9  1  0
 10 11  1  0
 11 12  2  0
 11 18  1  0
 14 13  1  0
 15 14  1  0
 16 15  1  0
 17 16  1  6
 18 17  1  0
 19 20  1  0
 19 17  1  0
 21 19  2  0
M  END
$$$$
