MGM.pdb
     RDKit          3D

 21 20  0  0  1  0  0  0  0  0999 V2000
   17.9308  -26.1451   -0.1545 C   0  0  0  0  0  0  0  0  0  0  0  0
   16.4052  -27.0969   -0.2316 S   0  0  0  0  0  0  0  0  0  0  0  0
   15.0065  -25.9602   -0.4620 C   0  0  0  0  0  0  0  0  0  0  0  0
   15.4593  -24.5853   -0.0293 C   0  0  0  0  0  0  0  0  0  0  0  0
   14.3877  -23.5519   -0.1289 C   0  0  2  0  0  0  0  0  0  0  0  0
   13.7054  -23.5101   -1.3824 N   0  0  0  0  0  0  0  0  0  0  0  0
   14.9728  -22.2428    0.2574 C   0  0  0  0  0  0  0  0  0  0  0  0
   14.9818  -21.3311   -0.6208 O   0  0  0  0  0  0  0  0  0  0  0  0
   15.5140  -21.9410    1.5171 N   0  0  0  0  0  0  0  0  0  0  0  0
   15.8733  -20.6088    1.8802 C   0  0  0  0  0  0  0  0  0  0  0  0
   16.2745  -20.4741    3.3039 C   0  0  0  0  0  0  0  0  0  0  0  0
   16.5120  -21.4128    4.0724 O   0  0  0  0  0  0  0  0  0  0  0  0
   21.7080  -18.9323    7.8336 C   0  0  0  0  0  0  0  0  0  0  0  0
   20.9758  -19.1984    6.2102 S   0  0  0  0  0  0  0  0  0  0  0  0
   19.1822  -18.8916    6.3485 C   0  0  0  0  0  0  0  0  0  0  0  0
   18.5363  -19.1285    5.0127 C   0  0  0  0  0  0  0  0  0  0  0  0
   17.0424  -18.9287    5.1017 C   0  0  2  0  0  0  0  0  0  0  0  0
   16.3941  -19.1431    3.8203 N   0  0  0  0  0  0  0  0  0  0  0  0
   16.8193  -17.4925    5.4942 C   0  0  0  0  0  0  0  0  0  0  0  0
   16.8320  -17.0762    6.8186 O   0  0  0  0  0  0  0  0  0  0  0  0
   16.6127  -16.6170    4.6248 O   0  0  0  0  0  0  0  0  0  0  0  0
  2  1  1  0
  3  2  1  0
  4  3  1  0
  4  5  1  0
  5  7  1  0
  5  6  1  6
  7  8  2  0
  9  7  1  0
 10  9  1  0
 10 11  1  0
 11 12  2  0
 11 18  1  0
 14 13  1  0
 15 14  1  0
 16 15  1  0
 17 16  1  6
 18 17  1  0
 19 20  1  0
 19 17  1  0
 21 19  2  0
M  END
$$$$
