MGM.pdb
     RDKit          3D

 21 20  0  0  1  0  0  0  0  0999 V2000
   29.6844  -18.9215   -5.1765 C   0  0  0  0  0  0  0  0  0  0  0  0
   28.3438  -20.0154   -4.6811 S   0  0  0  0  0  0  0  0  0  0  0  0
   26.9546  -19.8132   -5.8346 C   0  0  0  0  0  0  0  0  0  0  0  0
   27.3910  -20.3569   -7.1750 C   0  0  0  0  0  0  0  0  0  0  0  0
   26.4314  -20.0535   -8.2764 C   0  0  2  0  0  0  0  0  0  0  0  0
   25.0577  -20.2774   -7.9576 N   0  0  0  0  0  0  0  0  0  0  0  0
   26.8733  -20.7892   -9.4883 C   0  0  0  0  0  0  0  0  0  0  0  0
   27.9881  -21.3861   -9.4288 O   0  0  0  0  0  0  0  0  0  0  0  0
   26.1515  -20.8728  -10.6896 N   0  0  0  0  0  0  0  0  0  0  0  0
   26.6463  -20.3097  -11.9034 C   0  0  0  0  0  0  0  0  0  0  0  0
   25.7262  -20.4911  -13.0552 C   0  0  0  0  0  0  0  0  0  0  0  0
   25.9534  -20.1318  -14.2160 O   0  0  0  0  0  0  0  0  0  0  0  0
   23.1301  -23.0457  -17.0939 C   0  0  0  0  0  0  0  0  0  0  0  0
   21.4916  -23.0957  -16.3491 S   0  0  0  0  0  0  0  0  0  0  0  0
   21.4817  -21.9350  -14.9409 C   0  0  0  0  0  0  0  0  0  0  0  0
   22.6776  -22.2031  -14.0716 C   0  0  0  0  0  0  0  0  0  0  0  0
   23.3503  -20.9096  -13.6793 C   0  0  2  0  0  0  0  0  0  0  0  0
   24.4752  -21.1369  -12.7898 N   0  0  0  0  0  0  0  0  0  0  0  0
   22.3278  -20.0993  -12.9279 C   0  0  0  0  0  0  0  0  0  0  0  0
   21.3690  -19.3324  -13.5759 O   0  0  0  0  0  0  0  0  0  0  0  0
   22.3111  -20.0928  -11.6770 O   0  0  0  0  0  0  0  0  0  0  0  0
  2  1  1  0
  3  2  1  0
  4  3  1  0
  4  5  1  0
  5  7  1  0
  5  6  1  1
  7  8  2  0
  9  7  1  0
 10  9  1  0
 10 11  1  0
 11 12  2  0
 11 18  1  0
 14 13  1  0
 15 14  1  0
 16 15  1  0
 17 16  1  1
 18 17  1  0
 19 20  1  0
 19 17  1  0
 21 19  2  0
M  END
$$$$
