MGM.pdb
     RDKit          3D

 21 20  0  0  1  0  0  0  0  0999 V2000
   26.8213  -19.8260   -6.5548 C   0  0  0  0  0  0  0  0  0  0  0  0
   26.5266  -19.4473   -8.2895 S   0  0  0  0  0  0  0  0  0  0  0  0
   27.1309  -20.8242   -9.3094 C   0  0  0  0  0  0  0  0  0  0  0  0
   27.0585  -20.3884  -10.7543 C   0  0  0  0  0  0  0  0  0  0  0  0
   25.9371  -21.0223  -11.5070 C   0  0  2  0  0  0  0  0  0  0  0  0
   25.8866  -22.4470  -11.4265 N   0  0  0  0  0  0  0  0  0  0  0  0
   25.9788  -20.5212  -12.9044 C   0  0  0  0  0  0  0  0  0  0  0  0
   26.2341  -19.2927  -13.0714 O   0  0  0  0  0  0  0  0  0  0  0  0
   25.7576  -21.3034  -14.0490 N   0  0  0  0  0  0  0  0  0  0  0  0
   25.0917  -22.5633  -13.9802 C   0  0  0  0  0  0  0  0  0  0  0  0
   23.6609  -22.4957  -14.3733 C   0  0  0  0  0  0  0  0  0  0  0  0
   23.0536  -23.3603  -15.0149 O   0  0  0  0  0  0  0  0  0  0  0  0
   21.9036  -19.0612   -9.7804 C   0  0  0  0  0  0  0  0  0  0  0  0
   21.0152  -20.6270   -9.8128 S   0  0  0  0  0  0  0  0  0  0  0  0
   21.5037  -21.5159  -11.3298 C   0  0  0  0  0  0  0  0  0  0  0  0
   21.0403  -20.7380  -12.5289 C   0  0  0  0  0  0  0  0  0  0  0  0
   21.4925  -21.4076  -13.8043 C   0  0  2  0  0  0  0  0  0  0  0  0
   22.9328  -21.3293  -13.9711 N   0  0  0  0  0  0  0  0  0  0  0  0
   20.8572  -20.6512  -14.9403 C   0  0  0  0  0  0  0  0  0  0  0  0
   19.5076  -20.7674  -15.2444 O   0  0  0  0  0  0  0  0  0  0  0  0
   21.5372  -19.8827  -15.6559 O   0  0  0  0  0  0  0  0  0  0  0  0
  2  1  1  0
  3  2  1  0
  4  3  1  0
  4  5  1  0
  5  7  1  0
  5  6  1  6
  7  8  2  0
  9  7  1  0
 10  9  1  0
 10 11  1  0
 11 12  2  0
 11 18  1  0
 14 13  1  0
 15 14  1  0
 16 15  1  0
 17 16  1  1
 18 17  1  0
 19 20  1  0
 19 17  1  0
 21 19  2  0
M  END
$$$$
