MGM.pdb
     RDKit          3D

 21 20  0  0  1  0  0  0  0  0999 V2000
   16.9415  -16.3321  -22.7052 C   0  0  0  0  0  0  0  0  0  0  0  0
   18.1962  -17.4715  -23.3107 S   0  0  0  0  0  0  0  0  0  0  0  0
   19.6621  -17.3636  -22.2426 C   0  0  0  0  0  0  0  0  0  0  0  0
   19.7426  -15.9486  -21.7191 C   0  0  0  0  0  0  0  0  0  0  0  0
   20.9770  -15.6820  -20.9246 C   0  0  2  0  0  0  0  0  0  0  0  0
   20.9850  -16.2501  -19.6147 N   0  0  0  0  0  0  0  0  0  0  0  0
   21.2163  -14.2163  -20.9229 C   0  0  0  0  0  0  0  0  0  0  0  0
   21.2666  -13.6367  -22.0471 O   0  0  0  0  0  0  0  0  0  0  0  0
   21.3901  -13.4284  -19.7740 N   0  0  0  0  0  0  0  0  0  0  0  0
   21.6339  -12.0251  -19.8559 C   0  0  0  0  0  0  0  0  0  0  0  0
   21.7961  -11.3768  -18.5294 C   0  0  0  0  0  0  0  0  0  0  0  0
   20.9597  -11.3904  -17.6193 O   0  0  0  0  0  0  0  0  0  0  0  0
   27.0501  -11.5976  -14.5917 C   0  0  0  0  0  0  0  0  0  0  0  0
   26.7335   -9.8368  -14.7949 S   0  0  0  0  0  0  0  0  0  0  0  0
   24.9756   -9.6324  -15.2399 C   0  0  0  0  0  0  0  0  0  0  0  0
   24.7418  -10.2104  -16.6069 C   0  0  0  0  0  0  0  0  0  0  0  0
   23.2840  -10.1067  -16.9858 C   0  0  2  0  0  0  0  0  0  0  0  0
   23.0263  -10.6813  -18.2941 N   0  0  0  0  0  0  0  0  0  0  0  0
   22.9576   -8.6388  -17.0571 C   0  0  0  0  0  0  0  0  0  0  0  0
   22.8818   -7.9547  -18.2628 O   0  0  0  0  0  0  0  0  0  0  0  0
   22.7413   -7.9807  -16.0154 O   0  0  0  0  0  0  0  0  0  0  0  0
  2  1  1  0
  3  2  1  0
  4  3  1  0
  4  5  1  0
  5  7  1  0
  5  6  1  1
  7  8  2  0
  9  7  1  0
 10  9  1  0
 10 11  1  0
 11 12  2  0
 11 18  1  0
 14 13  1  0
 15 14  1  0
 16 15  1  0
 17 16  1  6
 18 17  1  0
 19 20  1  0
 19 17  1  0
 21 19  2  0
M  END
$$$$
