MGM.pdb
     RDKit          3D

 21 20  0  0  1  0  0  0  0  0999 V2000
   24.4272  -21.4987   -7.1979 C   0  0  0  0  0  0  0  0  0  0  0  0
   24.4920  -21.2504   -8.9793 S   0  0  0  0  0  0  0  0  0  0  0  0
   25.8735  -20.1382   -9.3745 C   0  0  0  0  0  0  0  0  0  0  0  0
   25.8090  -19.8376  -10.8537 C   0  0  0  0  0  0  0  0  0  0  0  0
   26.0633  -21.0321  -11.7109 C   0  0  2  0  0  0  0  0  0  0  0  0
   27.3511  -21.6270  -11.5488 N   0  0  0  0  0  0  0  0  0  0  0  0
   25.7687  -20.6604  -13.1182 C   0  0  0  0  0  0  0  0  0  0  0  0
   26.6971  -20.1070  -13.7772 O   0  0  0  0  0  0  0  0  0  0  0  0
   24.5442  -20.8757  -13.7702 N   0  0  0  0  0  0  0  0  0  0  0  0
   24.2040  -20.1899  -14.9741 C   0  0  0  0  0  0  0  0  0  0  0  0
   24.1895  -18.7120  -14.8265 C   0  0  0  0  0  0  0  0  0  0  0  0
   23.6710  -18.0914  -13.8914 O   0  0  0  0  0  0  0  0  0  0  0  0
   28.4740  -14.6659  -17.7187 C   0  0  0  0  0  0  0  0  0  0  0  0
   27.8187  -13.7636  -16.3050 S   0  0  0  0  0  0  0  0  0  0  0  0
   26.1547  -14.4206  -15.9448 C   0  0  0  0  0  0  0  0  0  0  0  0
   26.2049  -15.9223  -15.9500 C   0  0  0  0  0  0  0  0  0  0  0  0
   24.8199  -16.5011  -15.7878 C   0  0  2  0  0  0  0  0  0  0  0  0
   24.8319  -17.9514  -15.8567 N   0  0  0  0  0  0  0  0  0  0  0  0
   23.9996  -15.9937  -16.9437 C   0  0  0  0  0  0  0  0  0  0  0  0
   23.2031  -14.8608  -16.8457 O   0  0  0  0  0  0  0  0  0  0  0  0
   24.0112  -16.5871  -18.0449 O   0  0  0  0  0  0  0  0  0  0  0  0
  2  1  1  0
  3  2  1  0
  4  3  1  0
  4  5  1  0
  5  7  1  0
  5  6  1  6
  7  8  2  0
  9  7  1  0
 10  9  1  0
 10 11  1  0
 11 12  2  0
 11 18  1  0
 14 13  1  0
 15 14  1  0
 16 15  1  0
 17 16  1  6
 18 17  1  0
 19 20  1  0
 19 17  1  0
 21 19  2  0
M  END
$$$$
