QPD.pdb
     RDKit          3D

 25 25  0  0  1  0  0  0  0  0999 V2000
   20.5607  -14.5892  -19.1556 N   0  0  0  0  0  0  0  0  0  0  0  0
   21.4659  -14.5737  -20.2446 C   0  0  0  0  0  0  0  0  0  0  0  0
   21.2500  -15.3220  -21.2182 O   0  0  0  0  0  0  0  0  0  0  0  0
   22.6394  -13.6839  -20.2178 C   0  0  0  0  0  0  0  0  0  0  0  0
   22.7330  -12.7701  -19.0528 C   0  0  0  0  0  0  0  0  0  0  0  0
   23.9738  -12.9331  -18.2034 C   0  0  2  0  0  0  0  0  0  0  0  0
   24.1272  -14.2546  -17.7096 N   0  0  0  0  0  0  0  0  0  0  0  0
   23.9710  -11.9195  -17.1401 C   0  0  0  0  0  0  0  0  0  0  0  0
   22.8593  -11.6480  -16.6154 O   0  0  0  0  0  0  0  0  0  0  0  0
   25.1475  -11.2191  -16.6581 N   0  0  0  0  0  0  0  0  0  0  0  0
   26.5002  -11.3875  -17.0757 C   0  0  0  0  0  0  0  0  0  0  0  0
   27.1559  -10.0447  -16.8310 C   0  0  0  0  0  0  0  0  0  0  0  0
   26.4662   -9.6364  -15.5430 C   0  0  0  0  0  0  0  0  0  0  0  0
   25.0908  -10.2068  -15.6324 C   0  0  1  0  0  0  0  0  0  0  0  0
   24.1767   -9.0850  -16.0251 C   0  0  0  0  0  0  0  0  0  0  0  0
   23.9368   -8.9422  -17.2456 O   0  0  0  0  0  0  0  0  0  0  0  0
   23.5888   -8.2050  -15.1089 N   0  0  0  0  0  0  0  0  0  0  0  0
   22.6399   -7.1611  -15.4349 C   0  0  1  0  0  0  0  0  0  0  0  0
   21.4197   -7.8095  -16.0340 C   0  0  0  0  0  0  0  0  0  0  0  0
   20.3231   -6.8617  -16.3313 C   0  0  0  0  0  0  0  0  0  0  0  0
   20.5519   -5.6385  -16.4941 O   0  0  0  0  0  0  0  0  0  0  0  0
   22.2437   -6.3865  -14.2333 C   0  0  0  0  0  0  0  0  0  0  0  0
   22.1936   -6.9726  -13.1308 O   0  0  0  0  0  0  0  0  0  0  0  0
   19.0012   -7.2959  -16.4401 O   0  0  0  0  0  0  0  0  0  0  0  0
   21.9296   -5.0440  -14.2931 O   0  0  0  0  0  0  0  0  0  0  0  0
  2  4  1  0
  2  1  1  0
  3  2  2  0
  5  6  1  0
  5  4  1  0
  6  8  1  0
  6  7  1  1
  8 10  1  0
  9  8  2  0
 10 14  1  0
 10 11  1  0
 11 12  1  0
 13 12  1  0
 14 13  1  0
 14 15  1  6
 15 17  1  0
 16 15  2  0
 18 17  1  0
 18 22  1  0
 18 19  1  1
 20 19  1  0
 21 20  2  0
 22 23  2  0
 22 25  1  0
 24 20  1  0
M  END
$$$$
