QPD.pdb
     RDKit          3D

 25 25  0  0  1  0  0  0  0  0999 V2000
   19.2571  -13.9662  -20.1503 N   0  0  0  0  0  0  0  0  0  0  0  0
   18.4867  -14.7884  -19.2923 C   0  0  0  0  0  0  0  0  0  0  0  0
   17.3377  -15.1185  -19.6459 O   0  0  0  0  0  0  0  0  0  0  0  0
   19.0436  -15.2412  -18.0060 C   0  0  0  0  0  0  0  0  0  0  0  0
   20.4374  -14.8212  -17.7199 C   0  0  0  0  0  0  0  0  0  0  0  0
   20.9535  -15.1913  -16.3472 C   0  0  2  0  0  0  0  0  0  0  0  0
   20.1019  -16.1036  -15.6718 N   0  0  0  0  0  0  0  0  0  0  0  0
   21.2084  -13.9663  -15.5775 C   0  0  0  0  0  0  0  0  0  0  0  0
   20.2029  -13.2935  -15.2291 O   0  0  0  0  0  0  0  0  0  0  0  0
   22.5233  -13.4849  -15.1952 N   0  0  0  0  0  0  0  0  0  0  0  0
   23.7867  -14.0983  -15.4402 C   0  0  0  0  0  0  0  0  0  0  0  0
   24.7747  -12.9521  -15.4953 C   0  0  0  0  0  0  0  0  0  0  0  0
   24.2034  -12.0491  -14.4184 C   0  0  0  0  0  0  0  0  0  0  0  0
   22.7267  -12.2530  -14.4731 C   0  0  1  0  0  0  0  0  0  0  0  0
   22.1511  -11.0852  -15.2167 C   0  0  0  0  0  0  0  0  0  0  0  0
   21.7635  -11.2878  -16.3899 O   0  0  0  0  0  0  0  0  0  0  0  0
   22.0283   -9.8016  -14.6720 N   0  0  0  0  0  0  0  0  0  0  0  0
   21.3356   -8.6890  -15.2876 C   0  0  1  0  0  0  0  0  0  0  0  0
   19.8819   -9.0596  -15.4202 C   0  0  0  0  0  0  0  0  0  0  0  0
   19.0283   -7.9625  -15.9270 C   0  0  0  0  0  0  0  0  0  0  0  0
   19.4936   -7.0803  -16.6887 O   0  0  0  0  0  0  0  0  0  0  0  0
   21.4547   -7.4531  -14.4758 C   0  0  0  0  0  0  0  0  0  0  0  0
   21.4751   -7.5525  -13.2304 O   0  0  0  0  0  0  0  0  0  0  0  0
   17.6807   -7.8730  -15.5755 O   0  0  0  0  0  0  0  0  0  0  0  0
   21.5435   -6.2010  -15.0494 O   0  0  0  0  0  0  0  0  0  0  0  0
  2  4  1  0
  2  1  1  0
  3  2  2  0
  5  6  1  0
  5  4  1  0
  6  8  1  0
  6  7  1  1
  8 10  1  0
  9  8  2  0
 10 14  1  0
 10 11  1  0
 11 12  1  0
 13 12  1  0
 14 13  1  0
 14 15  1  6
 15 17  1  0
 16 15  2  0
 18 17  1  0
 18 22  1  0
 18 19  1  1
 20 19  1  0
 21 20  2  0
 22 23  2  0
 22 25  1  0
 24 20  1  0
M  END
$$$$
