QPD.pdb
     RDKit          3D

 25 25  0  0  1  0  0  0  0  0999 V2000
   15.9357  -25.0259   -3.8493 N   0  0  0  0  0  0  0  0  0  0  0  0
   16.3983  -26.3581   -3.7188 C   0  0  0  0  0  0  0  0  0  0  0  0
   16.3889  -26.8914   -2.5919 O   0  0  0  0  0  0  0  0  0  0  0  0
   16.8796  -27.0927   -4.9013 C   0  0  0  0  0  0  0  0  0  0  0  0
   16.8343  -26.3526   -6.1863 C   0  0  0  0  0  0  0  0  0  0  0  0
   18.1656  -25.8263   -6.6746 C   0  0  2  0  0  0  0  0  0  0  0  0
   18.7828  -24.9536   -5.7413 N   0  0  0  0  0  0  0  0  0  0  0  0
   17.9909  -25.2185   -8.0005 C   0  0  0  0  0  0  0  0  0  0  0  0
   17.3295  -24.1486   -8.0534 O   0  0  0  0  0  0  0  0  0  0  0  0
   18.5226  -25.7595   -9.2380 N   0  0  0  0  0  0  0  0  0  0  0  0
   19.2927  -26.9458   -9.4166 C   0  0  0  0  0  0  0  0  0  0  0  0
   18.9857  -27.4037  -10.8269 C   0  0  0  0  0  0  0  0  0  0  0  0
   18.8869  -26.0641  -11.5319 C   0  0  0  0  0  0  0  0  0  0  0  0
   18.3288  -25.1233  -10.5178 C   0  0  1  0  0  0  0  0  0  0  0  0
   16.8711  -24.9594  -10.8287 C   0  0  0  0  0  0  0  0  0  0  0  0
   16.0822  -25.7958  -10.3330 O   0  0  0  0  0  0  0  0  0  0  0  0
   16.3587  -23.9342  -11.6323 N   0  0  0  0  0  0  0  0  0  0  0  0
   14.9635  -23.7492  -11.9723 C   0  0  1  0  0  0  0  0  0  0  0  0
   14.5312  -22.4028  -11.4543 C   0  0  0  0  0  0  0  0  0  0  0  0
   15.3366  -21.2751  -11.9727 C   0  0  0  0  0  0  0  0  0  0  0  0
   16.3931  -21.4782  -12.6189 O   0  0  0  0  0  0  0  0  0  0  0  0
   14.7453  -23.8037  -13.4386 C   0  0  0  0  0  0  0  0  0  0  0  0
   15.7407  -23.8584  -14.1921 O   0  0  0  0  0  0  0  0  0  0  0  0
   14.9487  -19.9513  -11.7606 O   0  0  0  0  0  0  0  0  0  0  0  0
   13.4829  -23.7960  -13.9961 O   0  0  0  0  0  0  0  0  0  0  0  0
  2  4  1  0
  2  1  1  0
  3  2  2  0
  5  6  1  0
  5  4  1  0
  6  8  1  0
  6  7  1  1
  8 10  1  0
  9  8  2  0
 10 14  1  0
 10 11  1  0
 11 12  1  0
 13 12  1  0
 14 13  1  0
 14 15  1  6
 15 17  1  0
 16 15  2  0
 18 17  1  0
 18 22  1  0
 18 19  1  6
 20 19  1  0
 21 20  2  0
 22 23  2  0
 22 25  1  0
 24 20  1  0
M  END
$$$$
