QPD.pdb
     RDKit          3D

 25 25  0  0  1  0  0  0  0  0999 V2000
   25.9869  -17.2433  -17.1593 N   0  0  0  0  0  0  0  0  0  0  0  0
   26.5520  -18.2588  -16.3499 C   0  0  0  0  0  0  0  0  0  0  0  0
   27.2311  -17.9300  -15.3574 O   0  0  0  0  0  0  0  0  0  0  0  0
   26.3343  -19.6768  -16.6836 C   0  0  0  0  0  0  0  0  0  0  0  0
   25.3813  -20.4082  -15.8129 C   0  0  0  0  0  0  0  0  0  0  0  0
   26.0155  -21.3133  -14.7803 C   0  0  2  0  0  0  0  0  0  0  0  0
   26.8113  -22.3331  -15.3637 N   0  0  0  0  0  0  0  0  0  0  0  0
   24.9728  -21.8380  -13.8885 C   0  0  0  0  0  0  0  0  0  0  0  0
   24.2201  -22.7319  -14.3571 O   0  0  0  0  0  0  0  0  0  0  0  0
   24.7541  -21.4030  -12.5211 N   0  0  0  0  0  0  0  0  0  0  0  0
   25.5856  -20.5615  -11.7255 C   0  0  0  0  0  0  0  0  0  0  0  0
   24.6422  -19.8844  -10.7536 C   0  0  0  0  0  0  0  0  0  0  0  0
   23.6758  -21.0207  -10.4769 C   0  0  0  0  0  0  0  0  0  0  0  0
   23.6001  -21.7947  -11.7498 C   0  0  1  0  0  0  0  0  0  0  0  0
   22.3273  -21.3912  -12.4320 C   0  0  0  0  0  0  0  0  0  0  0  0
   22.3453  -20.3306  -13.0972 O   0  0  0  0  0  0  0  0  0  0  0  0
   21.1405  -22.1302  -12.3623 N   0  0  0  0  0  0  0  0  0  0  0  0
   19.9123  -21.8177  -13.0626 C   0  0  1  0  0  0  0  0  0  0  0  0
   18.9846  -22.9962  -12.9269 C   0  0  0  0  0  0  0  0  0  0  0  0
   18.7089  -23.3829  -11.5256 C   0  0  0  0  0  0  0  0  0  0  0  0
   19.2098  -22.7446  -10.5681 O   0  0  0  0  0  0  0  0  0  0  0  0
   19.2559  -20.6100  -12.5046 C   0  0  0  0  0  0  0  0  0  0  0  0
   19.6674  -20.1510  -11.4176 O   0  0  0  0  0  0  0  0  0  0  0  0
   17.8846  -24.4678  -11.2232 O   0  0  0  0  0  0  0  0  0  0  0  0
   18.2089  -19.9787  -13.1448 O   0  0  0  0  0  0  0  0  0  0  0  0
  2  4  1  0
  2  1  1  0
  3  2  2  0
  5  6  1  0
  5  4  1  0
  6  8  1  0
  6  7  1  6
  8 10  1  0
  9  8  2  0
 10 14  1  0
 10 11  1  0
 11 12  1  0
 13 12  1  0
 14 13  1  0
 14 15  1  6
 15 17  1  0
 16 15  2  0
 18 17  1  0
 18 22  1  0
 18 19  1  1
 20 19  1  0
 21 20  2  0
 22 23  2  0
 22 25  1  0
 24 20  1  0
M  END
$$$$
