QPD.pdb
     RDKit          3D

 25 25  0  0  1  0  0  0  0  0999 V2000
   23.6796  -21.6685  -14.0654 N   0  0  0  0  0  0  0  0  0  0  0  0
   23.1289  -21.9710  -12.7962 C   0  0  0  0  0  0  0  0  0  0  0  0
   21.8898  -22.0442  -12.6790 O   0  0  0  0  0  0  0  0  0  0  0  0
   24.0143  -22.1945  -11.6404 C   0  0  0  0  0  0  0  0  0  0  0  0
   25.4699  -22.1051  -11.9128 C   0  0  0  0  0  0  0  0  0  0  0  0
   26.1415  -20.8421  -11.4214 C   0  0  2  0  0  0  0  0  0  0  0  0
   25.6302  -20.4025  -10.1727 N   0  0  0  0  0  0  0  0  0  0  0  0
   26.0657  -19.8133  -12.4672 C   0  0  0  0  0  0  0  0  0  0  0  0
   25.0441  -19.0774  -12.4687 O   0  0  0  0  0  0  0  0  0  0  0  0
   27.0754  -19.5890  -13.4855 N   0  0  0  0  0  0  0  0  0  0  0  0
   28.3433  -20.2272  -13.6182 C   0  0  0  0  0  0  0  0  0  0  0  0
   28.6511  -20.1830  -15.1002 C   0  0  0  0  0  0  0  0  0  0  0  0
   28.0855  -18.8207  -15.4545 C   0  0  0  0  0  0  0  0  0  0  0  0
   26.9127  -18.6321  -14.5523 C   0  0  1  0  0  0  0  0  0  0  0  0
   25.6857  -18.9245  -15.3630 C   0  0  0  0  0  0  0  0  0  0  0  0
   25.2909  -20.1122  -15.3963 O   0  0  0  0  0  0  0  0  0  0  0  0
   24.9728  -17.9506  -16.0720 N   0  0  0  0  0  0  0  0  0  0  0  0
   23.7510  -18.1768  -16.8153 C   0  0  1  0  0  0  0  0  0  0  0  0
   22.6328  -17.4603  -16.1050 C   0  0  0  0  0  0  0  0  0  0  0  0
   21.3419  -17.5012  -16.8267 C   0  0  0  0  0  0  0  0  0  0  0  0
   21.2327  -18.1020  -17.9232 O   0  0  0  0  0  0  0  0  0  0  0  0
   23.8538  -17.6692  -18.2054 C   0  0  0  0  0  0  0  0  0  0  0  0
   24.7696  -16.8664  -18.4852 O   0  0  0  0  0  0  0  0  0  0  0  0
   20.2056  -16.8746  -16.3130 O   0  0  0  0  0  0  0  0  0  0  0  0
   22.9739  -18.0535  -19.1967 O   0  0  0  0  0  0  0  0  0  0  0  0
  2  4  1  0
  2  1  1  0
  3  2  2  0
  5  6  1  0
  5  4  1  0
  6  8  1  0
  6  7  1  1
  8 10  1  0
  9  8  2  0
 10 14  1  0
 10 11  1  0
 11 12  1  0
 13 12  1  0
 14 13  1  0
 14 15  1  6
 15 17  1  0
 16 15  2  0
 18 17  1  0
 18 22  1  0
 18 19  1  1
 20 19  1  0
 21 20  2  0
 22 23  2  0
 22 25  1  0
 24 20  1  0
M  END
$$$$
