QPD.pdb
     RDKit          3D

 25 25  0  0  1  0  0  0  0  0999 V2000
   15.0837  -12.5882  -15.4624 N   0  0  0  0  0  0  0  0  0  0  0  0
   16.1729  -11.7540  -15.1113 C   0  0  0  0  0  0  0  0  0  0  0  0
   16.0680  -11.0144  -14.1131 O   0  0  0  0  0  0  0  0  0  0  0  0
   17.4052  -11.7682  -15.9181 C   0  0  0  0  0  0  0  0  0  0  0  0
   18.1816  -10.5042  -15.9372 C   0  0  0  0  0  0  0  0  0  0  0  0
   19.4852  -10.5596  -16.7022 C   0  0  2  0  0  0  0  0  0  0  0  0
   20.3748  -11.5415  -16.1941 N   0  0  0  0  0  0  0  0  0  0  0  0
   20.0784   -9.2165  -16.7489 C   0  0  0  0  0  0  0  0  0  0  0  0
   20.7482   -8.8549  -15.7461 O   0  0  0  0  0  0  0  0  0  0  0  0
   19.9477   -8.2897  -17.8584 N   0  0  0  0  0  0  0  0  0  0  0  0
   19.2726   -8.4951  -19.0972 C   0  0  0  0  0  0  0  0  0  0  0  0
   18.8402   -7.1135  -19.5415 C   0  0  0  0  0  0  0  0  0  0  0  0
   20.0333   -6.2955  -19.0845 C   0  0  0  0  0  0  0  0  0  0  0  0
   20.5225   -6.9670  -17.8456 C   0  0  1  0  0  0  0  0  0  0  0  0
   20.0162   -6.1650  -16.6843 C   0  0  0  0  0  0  0  0  0  0  0  0
   18.8581   -6.4132  -16.2783 O   0  0  0  0  0  0  0  0  0  0  0  0
   20.7628   -5.1695  -16.0433 N   0  0  0  0  0  0  0  0  0  0  0  0
   20.3149   -4.3741  -14.9194 C   0  0  1  0  0  0  0  0  0  0  0  0
   21.5097   -4.0764  -14.0523 C   0  0  0  0  0  0  0  0  0  0  0  0
   21.9848   -5.2378  -13.2684 C   0  0  0  0  0  0  0  0  0  0  0  0
   21.3922   -6.3426  -13.3255 O   0  0  0  0  0  0  0  0  0  0  0  0
   19.6999   -3.0986  -15.3617 C   0  0  0  0  0  0  0  0  0  0  0  0
   19.8266   -2.7534  -16.5560 O   0  0  0  0  0  0  0  0  0  0  0  0
   23.1051   -5.1431  -12.4415 O   0  0  0  0  0  0  0  0  0  0  0  0
   18.9946   -2.2834  -14.5000 O   0  0  0  0  0  0  0  0  0  0  0  0
  2  4  1  0
  2  1  1  0
  3  2  2  0
  5  6  1  0
  5  4  1  0
  6  8  1  0
  6  7  1  1
  8 10  1  0
  9  8  2  0
 10 14  1  0
 10 11  1  0
 11 12  1  0
 13 12  1  0
 14 13  1  0
 14 15  1  1
 15 17  1  0
 16 15  2  0
 18 17  1  0
 18 22  1  0
 18 19  1  1
 20 19  1  0
 21 20  2  0
 22 23  2  0
 22 25  1  0
 24 20  1  0
M  END
$$$$
