KTC.pdb
     RDKit          3D

 23 22  0  0  1  0  0  0  0  0999 V2000
   21.9589  -19.1620  -15.0642 N   0  0  0  0  0  0  0  0  0  0  0  0
   20.5620  -18.6727  -14.9511 C   0  0  1  0  0  0  0  0  0  0  0  0
   19.9957  -19.3925  -13.7573 C   0  0  0  0  0  0  0  0  0  0  0  0
   19.3215  -20.6815  -14.0174 C   0  0  0  0  0  0  0  0  0  0  0  0
   18.3468  -20.6743  -15.1617 C   0  0  0  0  0  0  0  0  0  0  0  0
   17.7623  -22.0453  -15.4260 C   0  0  0  0  0  0  0  0  0  0  0  0
   16.8421  -21.9593  -16.5449 N   0  0  0  0  0  0  0  0  0  0  0  0
   20.6968  -17.1993  -14.6593 C   0  0  0  0  0  0  0  0  0  0  0  0
   20.9552  -16.8743  -13.4917 O   0  0  0  0  0  0  0  0  0  0  0  0
   23.0911  -14.6477  -15.5696 C   0  0  0  0  0  0  0  0  0  0  0  0
   21.7641  -14.1465  -16.1025 C   0  0  1  0  0  0  0  0  0  0  0  0
   21.8023  -14.3072  -17.4713 O   0  0  0  0  0  0  0  0  0  0  0  0
   20.5950  -14.7678  -15.4338 C   0  0  2  0  0  0  0  0  0  0  0  0
   20.5440  -16.2032  -15.6481 N   0  0  0  0  0  0  0  0  0  0  0  0
   19.2931  -14.0938  -15.6168 C   0  0  0  0  0  0  0  0  0  0  0  0
   18.2853  -14.6846  -16.1019 O   0  0  0  0  0  0  0  0  0  0  0  0
   19.1301  -12.7450  -15.2462 N   0  0  0  0  0  0  0  0  0  0  0  0
   17.8948  -12.0062  -15.5657 C   0  0  1  0  0  0  0  0  0  0  0  0
   17.1421  -11.8636  -14.2498 C   0  0  0  0  0  0  0  0  0  0  0  0
   15.7736  -10.7062  -14.5089 S   0  0  0  0  0  0  0  0  0  0  0  0
   18.3090  -10.6329  -15.9724 C   0  0  0  0  0  0  0  0  0  0  0  0
   17.5832   -9.9169  -16.9360 O   0  0  0  0  0  0  0  0  0  0  0  0
   19.3038  -10.0644  -15.4839 O   0  0  0  0  0  0  0  0  0  0  0  0
  2  8  1  0
  2  1  1  1
  3  2  1  0
  4  3  1  0
  5  6  1  0
  5  4  1  0
  6  7  1  0
  8 14  1  0
  9  8  2  0
 11 10  1  1
 11 13  1  0
 12 11  1  0
 13 14  1  6
 15 13  1  0
 16 15  2  0
 17 15  1  0
 18 17  1  0
 18 21  1  0
 18 19  1  1
 20 19  1  0
 21 22  1  0
 23 21  2  0
M  END
$$$$
