KTC.pdb
     RDKit          3D

 23 22  0  0  1  0  0  0  0  0999 V2000
   25.4285  -21.0834   -9.0947 N   0  0  0  0  0  0  0  0  0  0  0  0
   24.1436  -20.9923   -9.8324 C   0  0  1  0  0  0  0  0  0  0  0  0
   23.2868  -20.0733   -9.0044 C   0  0  0  0  0  0  0  0  0  0  0  0
   21.8639  -20.4443   -8.8582 C   0  0  0  0  0  0  0  0  0  0  0  0
   21.6042  -21.9074   -8.6321 C   0  0  0  0  0  0  0  0  0  0  0  0
   20.1302  -22.2097   -8.4676 C   0  0  0  0  0  0  0  0  0  0  0  0
   19.9269  -22.9010   -7.2078 N   0  0  0  0  0  0  0  0  0  0  0  0
   24.5019  -20.3363  -11.1422 C   0  0  0  0  0  0  0  0  0  0  0  0
   25.2356  -19.3388  -11.0942 O   0  0  0  0  0  0  0  0  0  0  0  0
   26.7384  -21.0294  -13.4594 C   0  0  0  0  0  0  0  0  0  0  0  0
   25.5008  -20.9698  -14.3319 C   0  0  1  0  0  0  0  0  0  0  0  0
   25.2260  -22.2651  -14.7160 O   0  0  0  0  0  0  0  0  0  0  0  0
   24.3696  -20.2558  -13.6913 C   0  0  2  0  0  0  0  0  0  0  0  0
   24.0419  -20.8104  -12.3899 N   0  0  0  0  0  0  0  0  0  0  0  0
   23.1883  -19.9930  -14.5390 C   0  0  0  0  0  0  0  0  0  0  0  0
   22.0931  -20.6069  -14.3859 O   0  0  0  0  0  0  0  0  0  0  0  0
   23.2462  -19.0284  -15.5634 N   0  0  0  0  0  0  0  0  0  0  0  0
   22.0606  -18.7023  -16.3769 C   0  0  1  0  0  0  0  0  0  0  0  0
   21.9396  -17.1846  -16.3477 C   0  0  0  0  0  0  0  0  0  0  0  0
   20.9735  -16.7269  -14.8859 S   0  0  0  0  0  0  0  0  0  0  0  0
   22.3874  -19.0783  -17.7821 C   0  0  0  0  0  0  0  0  0  0  0  0
   21.3715  -19.2980  -18.7243 O   0  0  0  0  0  0  0  0  0  0  0  0
   23.5598  -19.2133  -18.1807 O   0  0  0  0  0  0  0  0  0  0  0  0
  2  8  1  0
  2  1  1  1
  3  2  1  0
  4  3  1  0
  5  6  1  0
  5  4  1  0
  6  7  1  0
  8 14  1  0
  9  8  2  0
 11 10  1  1
 11 13  1  0
 12 11  1  0
 13 14  1  1
 15 13  1  0
 16 15  2  0
 17 15  1  0
 18 17  1  0
 18 21  1  0
 18 19  1  6
 20 19  1  0
 21 22  1  0
 23 21  2  0
M  END
$$$$
