KTC.pdb
     RDKit          3D

 23 22  0  0  1  0  0  0  0  0999 V2000
   29.2186  -24.2318  -18.2397 N   0  0  0  0  0  0  0  0  0  0  0  0
   28.1118  -24.4560  -17.2764 C   0  0  1  0  0  0  0  0  0  0  0  0
   28.4874  -25.7145  -16.5421 C   0  0  0  0  0  0  0  0  0  0  0  0
   28.1208  -26.9933  -17.1854 C   0  0  0  0  0  0  0  0  0  0  0  0
   26.6446  -27.2341  -17.3351 C   0  0  0  0  0  0  0  0  0  0  0  0
   26.3438  -28.5701  -17.9797 C   0  0  0  0  0  0  0  0  0  0  0  0
   24.9053  -28.7508  -18.0443 N   0  0  0  0  0  0  0  0  0  0  0  0
   28.1693  -23.2699  -16.3469 C   0  0  0  0  0  0  0  0  0  0  0  0
   29.2919  -22.8750  -16.0011 O   0  0  0  0  0  0  0  0  0  0  0  0
   27.8742  -19.8923  -16.4928 C   0  0  0  0  0  0  0  0  0  0  0  0
   26.8148  -20.2192  -15.4599 C   0  0  1  0  0  0  0  0  0  0  0  0
   25.5946  -19.9972  -16.0621 O   0  0  0  0  0  0  0  0  0  0  0  0
   26.9795  -21.5665  -14.8619 C   0  0  2  0  0  0  0  0  0  0  0  0
   27.0154  -22.6100  -15.8712 N   0  0  0  0  0  0  0  0  0  0  0  0
   26.1159  -21.8875  -13.7069 C   0  0  0  0  0  0  0  0  0  0  0  0
   25.1368  -22.6837  -13.7922 O   0  0  0  0  0  0  0  0  0  0  0  0
   26.3636  -21.3065  -12.4482 N   0  0  0  0  0  0  0  0  0  0  0  0
   25.3974  -21.4339  -11.3418 C   0  0  1  0  0  0  0  0  0  0  0  0
   26.0226  -20.7102  -10.1569 C   0  0  0  0  0  0  0  0  0  0  0  0
   24.8085  -20.6806   -8.8135 S   0  0  0  0  0  0  0  0  0  0  0  0
   24.1908  -20.6505  -11.7333 C   0  0  0  0  0  0  0  0  0  0  0  0
   22.9033  -21.0921  -11.3936 O   0  0  0  0  0  0  0  0  0  0  0  0
   24.2669  -19.5831  -12.3707 O   0  0  0  0  0  0  0  0  0  0  0  0
  2  8  1  0
  2  1  1  6
  3  2  1  0
  4  3  1  0
  5  6  1  0
  5  4  1  0
  6  7  1  0
  8 14  1  0
  9  8  2  0
 11 10  1  6
 11 13  1  0
 12 11  1  0
 13 14  1  6
 15 13  1  0
 16 15  2  0
 17 15  1  0
 18 17  1  0
 18 21  1  0
 18 19  1  1
 20 19  1  0
 21 22  1  0
 23 21  2  0
M  END
$$$$
