KTC.pdb
     RDKit          3D

 23 22  0  0  1  0  0  0  0  0999 V2000
   31.7876  -31.8575  -17.5936 N   0  0  0  0  0  0  0  0  0  0  0  0
   31.1800  -30.8901  -18.5414 C   0  0  1  0  0  0  0  0  0  0  0  0
   31.0892  -31.6329  -19.8468 C   0  0  0  0  0  0  0  0  0  0  0  0
   32.0344  -31.2283  -20.9082 C   0  0  0  0  0  0  0  0  0  0  0  0
   31.5860  -30.0720  -21.7575 C   0  0  0  0  0  0  0  0  0  0  0  0
   32.5353  -29.8008  -22.9049 C   0  0  0  0  0  0  0  0  0  0  0  0
   32.0554  -28.6549  -23.6549 N   0  0  0  0  0  0  0  0  0  0  0  0
   29.8009  -30.6304  -17.9892 C   0  0  0  0  0  0  0  0  0  0  0  0
   29.3025  -31.5104  -17.2729 O   0  0  0  0  0  0  0  0  0  0  0  0
   28.8334  -27.3451  -16.1640 C   0  0  0  0  0  0  0  0  0  0  0  0
   27.7963  -27.6505  -17.2257 C   0  0  1  0  0  0  0  0  0  0  0  0
   27.9841  -26.7322  -18.2367 O   0  0  0  0  0  0  0  0  0  0  0  0
   27.8073  -29.0684  -17.6609 C   0  0  2  0  0  0  0  0  0  0  0  0
   29.0780  -29.4468  -18.2532 N   0  0  0  0  0  0  0  0  0  0  0  0
   26.6331  -29.5341  -18.4273 C   0  0  0  0  0  0  0  0  0  0  0  0
   26.7214  -29.9472  -19.6195 O   0  0  0  0  0  0  0  0  0  0  0  0
   25.3531  -29.5349  -17.8404 N   0  0  0  0  0  0  0  0  0  0  0  0
   24.1666  -29.9871  -18.5897 C   0  0  1  0  0  0  0  0  0  0  0  0
   24.3854  -31.4691  -18.8623 C   0  0  0  0  0  0  0  0  0  0  0  0
   22.8404  -32.1539  -19.5133 S   0  0  0  0  0  0  0  0  0  0  0  0
   23.0074  -29.8903  -17.6571 C   0  0  0  0  0  0  0  0  0  0  0  0
   21.6918  -30.0198  -18.1268 O   0  0  0  0  0  0  0  0  0  0  0  0
   23.1491  -29.6930  -16.4355 O   0  0  0  0  0  0  0  0  0  0  0  0
  2  8  1  0
  2  1  1  1
  3  2  1  0
  4  3  1  0
  5  6  1  0
  5  4  1  0
  6  7  1  0
  8 14  1  0
  9  8  2  0
 11 10  1  1
 11 13  1  0
 12 11  1  0
 13 14  1  6
 15 13  1  0
 16 15  2  0
 17 15  1  0
 18 17  1  0
 18 21  1  0
 18 19  1  1
 20 19  1  0
 21 22  1  0
 23 21  2  0
M  END
$$$$
