KTC.pdb
     RDKit          3D

 23 22  0  0  1  0  0  0  0  0999 V2000
   20.8207  -12.3848  -17.0014 N   0  0  0  0  0  0  0  0  0  0  0  0
   19.9159  -11.8095  -18.0279 C   0  0  1  0  0  0  0  0  0  0  0  0
   18.6824  -12.6701  -17.9818 C   0  0  0  0  0  0  0  0  0  0  0  0
   18.8659  -14.1092  -18.2627 C   0  0  0  0  0  0  0  0  0  0  0  0
   18.8383  -15.0051  -17.0562 C   0  0  0  0  0  0  0  0  0  0  0  0
   18.8810  -16.4715  -17.4294 C   0  0  0  0  0  0  0  0  0  0  0  0
   19.0774  -17.2599  -16.2270 N   0  0  0  0  0  0  0  0  0  0  0  0
   19.6054  -10.4213  -17.5273 C   0  0  0  0  0  0  0  0  0  0  0  0
   18.8281   -9.7350  -18.2060 O   0  0  0  0  0  0  0  0  0  0  0  0
   17.5727   -9.4541  -15.0157 C   0  0  0  0  0  0  0  0  0  0  0  0
   18.8620   -8.7686  -14.6107 C   0  0  1  0  0  0  0  0  0  0  0  0
   19.3508   -9.4588  -13.5219 O   0  0  0  0  0  0  0  0  0  0  0  0
   19.8189   -8.6160  -15.7336 C   0  0  2  0  0  0  0  0  0  0  0  0
   20.1556   -9.8919  -16.3398 N   0  0  0  0  0  0  0  0  0  0  0  0
   20.9889   -7.7466  -15.4919 C   0  0  0  0  0  0  0  0  0  0  0  0
   22.1508   -8.2094  -15.3035 O   0  0  0  0  0  0  0  0  0  0  0  0
   20.8433   -6.3461  -15.4663 N   0  0  0  0  0  0  0  0  0  0  0  0
   21.9928   -5.4608  -15.2045 C   0  0  1  0  0  0  0  0  0  0  0  0
   21.7344   -4.1934  -16.0079 C   0  0  0  0  0  0  0  0  0  0  0  0
   21.7548   -4.6294  -17.7655 S   0  0  0  0  0  0  0  0  0  0  0  0
   21.9202   -5.0772  -13.7656 C   0  0  0  0  0  0  0  0  0  0  0  0
   22.9986   -4.4395  -13.1343 O   0  0  0  0  0  0  0  0  0  0  0  0
   20.9143   -5.3011  -13.0658 O   0  0  0  0  0  0  0  0  0  0  0  0
  2  8  1  0
  2  1  1  1
  3  2  1  0
  4  3  1  0
  5  6  1  0
  5  4  1  0
  6  7  1  0
  8 14  1  0
  9  8  2  0
 11 10  1  6
 11 13  1  0
 12 11  1  0
 13 14  1  1
 15 13  1  0
 16 15  2  0
 17 15  1  0
 18 17  1  0
 18 21  1  0
 18 19  1  6
 20 19  1  0
 21 22  1  0
 23 21  2  0
M  END
$$$$
