KTC.pdb
     RDKit          3D

 23 22  0  0  1  0  0  0  0  0999 V2000
   17.3516  -13.5630  -15.2354 N   0  0  0  0  0  0  0  0  0  0  0  0
   16.5265  -12.4744  -15.8163 C   0  0  1  0  0  0  0  0  0  0  0  0
   15.1108  -12.8205  -15.4418 C   0  0  0  0  0  0  0  0  0  0  0  0
   14.5362  -14.0311  -16.0648 C   0  0  0  0  0  0  0  0  0  0  0  0
   13.1324  -14.3631  -15.6424 C   0  0  0  0  0  0  0  0  0  0  0  0
   12.5988  -15.5947  -16.3422 C   0  0  0  0  0  0  0  0  0  0  0  0
   12.7474  -16.7397  -15.4631 N   0  0  0  0  0  0  0  0  0  0  0  0
   16.9713  -11.2299  -15.0900 C   0  0  0  0  0  0  0  0  0  0  0  0
   17.2804  -11.3507  -13.8960 O   0  0  0  0  0  0  0  0  0  0  0  0
   19.8213   -9.7186  -14.7938 C   0  0  0  0  0  0  0  0  0  0  0  0
   18.9957   -8.5597  -15.3152 C   0  0  1  0  0  0  0  0  0  0  0  0
   19.3714   -8.3664  -16.6276 O   0  0  0  0  0  0  0  0  0  0  0  0
   17.5388   -8.7399  -15.1033 C   0  0  2  0  0  0  0  0  0  0  0  0
   17.0471   -9.9640  -15.7105 N   0  0  0  0  0  0  0  0  0  0  0  0
   16.6826   -7.5638  -15.3615 C   0  0  0  0  0  0  0  0  0  0  0  0
   15.6886   -7.6065  -16.1425 O   0  0  0  0  0  0  0  0  0  0  0  0
   16.9511   -6.3340  -14.7303 N   0  0  0  0  0  0  0  0  0  0  0  0
   16.1041   -5.1505  -14.9660 C   0  0  1  0  0  0  0  0  0  0  0  0
   14.7667   -5.4566  -14.3054 C   0  0  0  0  0  0  0  0  0  0  0  0
   13.7549   -3.9558  -14.3650 S   0  0  0  0  0  0  0  0  0  0  0  0
   16.7131   -4.0269  -14.1981 C   0  0  0  0  0  0  0  0  0  0  0  0
   16.7251   -2.7232  -14.7159 O   0  0  0  0  0  0  0  0  0  0  0  0
   17.2323   -4.1894  -13.0776 O   0  0  0  0  0  0  0  0  0  0  0  0
  2  8  1  0
  2  1  1  1
  3  2  1  0
  4  3  1  0
  5  6  1  0
  5  4  1  0
  6  7  1  0
  8 14  1  0
  9  8  2  0
 11 10  1  6
 11 13  1  0
 12 11  1  0
 13 14  1  6
 15 13  1  0
 16 15  2  0
 17 15  1  0
 18 17  1  0
 18 21  1  0
 18 19  1  1
 20 19  1  0
 21 22  1  0
 23 21  2  0
M  END
$$$$
