KTC.pdb
     RDKit          3D

 23 22  0  0  1  0  0  0  0  0999 V2000
   25.6780  -22.1403  -10.5295 N   0  0  0  0  0  0  0  0  0  0  0  0
   24.6759  -21.4784  -11.4019 C   0  0  1  0  0  0  0  0  0  0  0  0
   23.8894  -20.5867  -10.4797 C   0  0  0  0  0  0  0  0  0  0  0  0
   22.4662  -20.3737  -10.8159 C   0  0  0  0  0  0  0  0  0  0  0  0
   21.8110  -21.4988  -11.5670 C   0  0  0  0  0  0  0  0  0  0  0  0
   20.4085  -21.1486  -12.0162 C   0  0  0  0  0  0  0  0  0  0  0  0
   19.8926  -22.2265  -12.8395 N   0  0  0  0  0  0  0  0  0  0  0  0
   25.4935  -20.6499  -12.3608 C   0  0  0  0  0  0  0  0  0  0  0  0
   26.3144  -19.8616  -11.8707 O   0  0  0  0  0  0  0  0  0  0  0  0
   27.9166  -21.7289  -14.7096 C   0  0  0  0  0  0  0  0  0  0  0  0
   27.0023  -20.8651  -15.5547 C   0  0  1  0  0  0  0  0  0  0  0  0
   26.3464  -21.7140  -16.4206 O   0  0  0  0  0  0  0  0  0  0  0  0
   26.1167  -19.9905  -14.7480 C   0  0  2  0  0  0  0  0  0  0  0  0
   25.3589  -20.7419  -13.7632 N   0  0  0  0  0  0  0  0  0  0  0  0
   25.3080  -19.0023  -15.4914 C   0  0  0  0  0  0  0  0  0  0  0  0
   24.0459  -19.0635  -15.5484 O   0  0  0  0  0  0  0  0  0  0  0  0
   25.9308  -17.9378  -16.1711 N   0  0  0  0  0  0  0  0  0  0  0  0
   25.1480  -16.9717  -16.9633 C   0  0  1  0  0  0  0  0  0  0  0  0
   25.4388  -15.6045  -16.3594 C   0  0  0  0  0  0  0  0  0  0  0  0
   24.6330  -14.3527  -17.3906 S   0  0  0  0  0  0  0  0  0  0  0  0
   25.7333  -16.9668  -18.3346 C   0  0  0  0  0  0  0  0  0  0  0  0
   24.9439  -16.6641  -19.4541 O   0  0  0  0  0  0  0  0  0  0  0  0
   26.9324  -17.2271  -18.5486 O   0  0  0  0  0  0  0  0  0  0  0  0
  2  8  1  0
  2  1  1  1
  3  2  1  0
  4  3  1  0
  5  6  1  0
  5  4  1  0
  6  7  1  0
  8 14  1  0
  9  8  2  0
 11 10  1  1
 11 13  1  0
 12 11  1  0
 13 14  1  6
 15 13  1  0
 16 15  2  0
 17 15  1  0
 18 17  1  0
 18 21  1  0
 18 19  1  1
 20 19  1  0
 21 22  1  0
 23 21  2  0
M  END
$$$$
