KTC.pdb
     RDKit          3D

 23 22  0  0  1  0  0  0  0  0999 V2000
   18.9643  -12.1105  -17.0784 N   0  0  0  0  0  0  0  0  0  0  0  0
   18.1247  -11.1495  -16.3203 C   0  0  1  0  0  0  0  0  0  0  0  0
   17.2504  -12.0064  -15.4454 C   0  0  0  0  0  0  0  0  0  0  0  0
   16.0738  -12.6282  -16.0879 C   0  0  0  0  0  0  0  0  0  0  0  0
   14.8583  -11.7493  -16.1837 C   0  0  0  0  0  0  0  0  0  0  0  0
   13.6982  -12.4466  -16.8613 C   0  0  0  0  0  0  0  0  0  0  0  0
   12.6003  -11.5083  -17.0036 N   0  0  0  0  0  0  0  0  0  0  0  0
   19.1034  -10.3691  -15.4792 C   0  0  0  0  0  0  0  0  0  0  0  0
   18.9108  -10.3519  -14.2552 O   0  0  0  0  0  0  0  0  0  0  0  0
   22.7772  -10.7330  -15.1103 C   0  0  0  0  0  0  0  0  0  0  0  0
   22.5473   -9.2846  -15.4919 C   0  0  1  0  0  0  0  0  0  0  0  0
   23.0275   -9.1336  -16.7755 O   0  0  0  0  0  0  0  0  0  0  0  0
   21.1445   -8.8452  -15.2949 C   0  0  2  0  0  0  0  0  0  0  0  0
   20.2052   -9.6765  -16.0266 N   0  0  0  0  0  0  0  0  0  0  0  0
   20.8808   -7.3972  -15.4235 C   0  0  0  0  0  0  0  0  0  0  0  0
   20.1074   -6.9240  -16.3056 O   0  0  0  0  0  0  0  0  0  0  0  0
   21.4932   -6.4802  -14.5476 N   0  0  0  0  0  0  0  0  0  0  0  0
   21.3200   -5.0259  -14.7167 C   0  0  1  0  0  0  0  0  0  0  0  0
   19.8702   -4.7337  -14.3542 C   0  0  0  0  0  0  0  0  0  0  0  0
   19.6669   -2.9367  -14.2593 S   0  0  0  0  0  0  0  0  0  0  0  0
   22.1617   -4.3695  -13.6758 C   0  0  0  0  0  0  0  0  0  0  0  0
   22.6860   -3.0841  -13.8780 O   0  0  0  0  0  0  0  0  0  0  0  0
   22.4355   -4.9222  -12.5936 O   0  0  0  0  0  0  0  0  0  0  0  0
  2  8  1  0
  2  1  1  6
  3  2  1  0
  4  3  1  0
  5  6  1  0
  5  4  1  0
  6  7  1  0
  8 14  1  0
  9  8  2  0
 11 10  1  6
 11 13  1  0
 12 11  1  0
 13 14  1  6
 15 13  1  0
 16 15  2  0
 17 15  1  0
 18 17  1  0
 18 21  1  0
 18 19  1  1
 20 19  1  0
 21 22  1  0
 23 21  2  0
M  END
$$$$
