TVM.pdb
     RDKit          3D

 23 22  0  0  1  0  0  0  0  0999 V2000
   26.5556  -24.2040  -18.3757 C   0  0  0  0  0  0  0  0  0  0  0  0
   26.8776  -23.4868  -17.0765 C   0  0  1  0  0  0  0  0  0  0  0  0
   27.5508  -24.3492  -16.2056 O   0  0  0  0  0  0  0  0  0  0  0  0
   27.7383  -22.2585  -17.3826 C   0  0  2  0  0  0  0  0  0  0  0  0
   28.9730  -22.7468  -17.9120 N   0  0  0  0  0  0  0  0  0  0  0  0
   27.9199  -21.5413  -16.0840 C   0  0  0  0  0  0  0  0  0  0  0  0
   29.0682  -21.5286  -15.5655 O   0  0  0  0  0  0  0  0  0  0  0  0
   27.6571  -17.9731  -15.2222 C   0  0  0  0  0  0  0  0  0  0  0  0
   26.6709  -18.7318  -14.3960 C   0  0  1  0  0  0  0  0  0  0  0  0
   25.2715  -18.7067  -14.9141 C   0  0  0  0  0  0  0  0  0  0  0  0
   27.1148  -20.1704  -14.1245 C   0  0  2  0  0  0  0  0  0  0  0  0
   26.9023  -20.8738  -15.3886 N   0  0  0  0  0  0  0  0  0  0  0  0
   26.3132  -20.7865  -13.0374 C   0  0  0  0  0  0  0  0  0  0  0  0
   25.3939  -21.5777  -13.3259 O   0  0  0  0  0  0  0  0  0  0  0  0
   28.1153  -19.8966   -6.5058 C   0  0  0  0  0  0  0  0  0  0  0  0
   26.3078  -20.2368   -6.4640 S   0  0  0  0  0  0  0  0  0  0  0  0
   25.6927  -20.7457   -8.0187 C   0  0  0  0  0  0  0  0  0  0  0  0
   26.3510  -20.5088   -9.3055 C   0  0  0  0  0  0  0  0  0  0  0  0
   25.7490  -20.9799  -10.5613 C   0  0  2  0  0  0  0  0  0  0  0  0
   26.5874  -20.4824  -11.7082 N   0  0  0  0  0  0  0  0  0  0  0  0
   24.3973  -20.3466  -10.8410 C   0  0  0  0  0  0  0  0  0  0  0  0
   24.1771  -19.2830  -11.3970 O   0  0  0  0  0  0  0  0  0  0  0  0
   23.2292  -21.0398  -10.4224 O   0  0  0  0  0  0  0  0  0  0  0  0
  2  1  1  6
  2  4  1  0
  3  2  1  0
  4  5  1  1
  6  4  1  0
  6  7  2  0
  9  8  1  6
  9 11  1  0
  9 10  1  0
 11 12  1  6
 12  6  1  0
 13 11  1  0
 14 13  2  0
 16 15  1  0
 17 16  1  0
 18 17  1  0
 19 20  1  0
 19 18  1  1
 20 13  1  0
 21 19  1  0
 22 21  2  0
 23 21  1  0
M  END
$$$$
