TVM.pdb
     RDKit          3D

 23 22  0  0  1  0  0  0  0  0999 V2000
   18.1058   -9.8862  -17.8813 C   0  0  0  0  0  0  0  0  0  0  0  0
   17.7868  -11.2284  -17.2468 C   0  0  1  0  0  0  0  0  0  0  0  0
   16.9125  -11.9508  -18.0647 O   0  0  0  0  0  0  0  0  0  0  0  0
   19.0888  -12.0061  -17.0391 C   0  0  2  0  0  0  0  0  0  0  0  0
   18.7205  -13.2917  -16.5344 N   0  0  0  0  0  0  0  0  0  0  0  0
   19.8939  -11.2185  -16.0567 C   0  0  0  0  0  0  0  0  0  0  0  0
   19.4016  -11.0062  -14.9164 O   0  0  0  0  0  0  0  0  0  0  0  0
   23.4866  -11.7438  -14.8131 C   0  0  0  0  0  0  0  0  0  0  0  0
   23.3412  -10.3807  -15.4062 C   0  0  1  0  0  0  0  0  0  0  0  0
   23.8910  -10.2381  -16.7862 C   0  0  0  0  0  0  0  0  0  0  0  0
   21.9021   -9.8648  -15.3481 C   0  0  2  0  0  0  0  0  0  0  0  0
   21.1683  -10.6906  -16.3059 N   0  0  0  0  0  0  0  0  0  0  0  0
   21.8275   -8.4303  -15.7230 C   0  0  0  0  0  0  0  0  0  0  0  0
   21.7814   -8.1127  -16.9277 O   0  0  0  0  0  0  0  0  0  0  0  0
   18.0857   -1.9720  -16.1483 C   0  0  0  0  0  0  0  0  0  0  0  0
   18.2446   -3.7982  -15.9914 S   0  0  0  0  0  0  0  0  0  0  0  0
   19.8794   -4.2920  -15.6199 C   0  0  0  0  0  0  0  0  0  0  0  0
   20.3139   -5.6729  -15.3970 C   0  0  0  0  0  0  0  0  0  0  0  0
   21.7071   -5.9794  -15.0411 C   0  0  2  0  0  0  0  0  0  0  0  0
   21.8090   -7.4500  -14.7366 N   0  0  0  0  0  0  0  0  0  0  0  0
   22.1352   -5.3404  -13.7316 C   0  0  0  0  0  0  0  0  0  0  0  0
   22.4535   -4.1777  -13.5426 O   0  0  0  0  0  0  0  0  0  0  0  0
   22.1850   -6.1562  -12.5687 O   0  0  0  0  0  0  0  0  0  0  0  0
  2  1  1  6
  2  4  1  0
  3  2  1  0
  4  5  1  1
  6  4  1  0
  6  7  2  0
  9  8  1  6
  9 11  1  0
  9 10  1  0
 11 12  1  6
 12  6  1  0
 13 11  1  0
 14 13  2  0
 16 15  1  0
 17 16  1  0
 18 17  1  0
 19 20  1  0
 19 18  1  1
 20 13  1  0
 21 19  1  0
 22 21  2  0
 23 21  1  0
M  END
$$$$
