TVM.pdb
     RDKit          3D

 23 22  0  0  1  0  0  0  0  0999 V2000
   17.1662  -12.7905  -17.0879 C   0  0  0  0  0  0  0  0  0  0  0  0
   18.0819  -12.0531  -16.1267 C   0  0  1  0  0  0  0  0  0  0  0  0
   19.2122  -12.8283  -15.8498 O   0  0  0  0  0  0  0  0  0  0  0  0
   18.4910  -10.7165  -16.7508 C   0  0  2  0  0  0  0  0  0  0  0  0
   19.2343  -11.0276  -17.9314 N   0  0  0  0  0  0  0  0  0  0  0  0
   19.3199  -10.0128  -15.7253 C   0  0  0  0  0  0  0  0  0  0  0  0
   18.7885   -9.7358  -14.6170 O   0  0  0  0  0  0  0  0  0  0  0  0
   22.7260  -10.9621  -14.2809 C   0  0  0  0  0  0  0  0  0  0  0  0
   22.7911   -9.5892  -14.8653 C   0  0  1  0  0  0  0  0  0  0  0  0
   23.4464   -9.5105  -16.2039 C   0  0  0  0  0  0  0  0  0  0  0  0
   21.4266   -8.8983  -14.8966 C   0  0  2  0  0  0  0  0  0  0  0  0
   20.6573   -9.6317  -15.9007 N   0  0  0  0  0  0  0  0  0  0  0  0
   21.5545   -7.4677  -15.2722 C   0  0  0  0  0  0  0  0  0  0  0  0
   21.7877   -7.1634  -16.4585 O   0  0  0  0  0  0  0  0  0  0  0  0
   18.3788   -0.4545  -14.9477 C   0  0  0  0  0  0  0  0  0  0  0  0
   18.2785   -2.2819  -14.7594 S   0  0  0  0  0  0  0  0  0  0  0  0
   19.8567   -3.0317  -14.7177 C   0  0  0  0  0  0  0  0  0  0  0  0
   20.1045   -4.4716  -14.6146 C   0  0  0  0  0  0  0  0  0  0  0  0
   21.4741   -5.0060  -14.6239 C   0  0  2  0  0  0  0  0  0  0  0  0
   21.4145   -6.4763  -14.3068 N   0  0  0  0  0  0  0  0  0  0  0  0
   22.3281   -4.4586  -13.4936 C   0  0  0  0  0  0  0  0  0  0  0  0
   22.8425   -3.3546  -13.4201 O   0  0  0  0  0  0  0  0  0  0  0  0
   22.5819   -5.2972  -12.3743 O   0  0  0  0  0  0  0  0  0  0  0  0
  2  1  1  6
  2  4  1  0
  3  2  1  0
  4  5  1  6
  6  4  1  0
  6  7  2  0
  9  8  1  6
  9 11  1  0
  9 10  1  0
 11 12  1  6
 12  6  1  0
 13 11  1  0
 14 13  2  0
 16 15  1  0
 17 16  1  0
 18 17  1  0
 19 20  1  0
 19 18  1  1
 20 13  1  0
 21 19  1  0
 22 21  2  0
 23 21  1  0
M  END
$$$$
