TVM.pdb
     RDKit          3D

 23 22  0  0  1  0  0  0  0  0999 V2000
   21.5739  -20.8934  -15.4353 C   0  0  0  0  0  0  0  0  0  0  0  0
   20.8107  -20.7811  -14.1273 C   0  0  1  0  0  0  0  0  0  0  0  0
   19.6299  -21.5270  -14.1944 O   0  0  0  0  0  0  0  0  0  0  0  0
   21.6968  -21.2860  -12.9857 C   0  0  2  0  0  0  0  0  0  0  0  0
   20.9083  -21.2169  -11.7955 N   0  0  0  0  0  0  0  0  0  0  0  0
   22.8789  -20.3727  -12.9389 C   0  0  0  0  0  0  0  0  0  0  0  0
   22.7071  -19.1959  -12.5225 O   0  0  0  0  0  0  0  0  0  0  0  0
   26.2381  -21.1625  -11.2516 C   0  0  0  0  0  0  0  0  0  0  0  0
   26.4571  -20.7319  -12.6649 C   0  0  1  0  0  0  0  0  0  0  0  0
   26.7259  -21.8446  -13.6224 C   0  0  0  0  0  0  0  0  0  0  0  0
   25.3321  -19.8367  -13.1877 C   0  0  2  0  0  0  0  0  0  0  0  0
   24.1791  -20.7251  -13.3264 N   0  0  0  0  0  0  0  0  0  0  0  0
   25.6892  -19.2287  -14.4942 C   0  0  0  0  0  0  0  0  0  0  0  0
   25.4927  -19.8717  -15.5441 O   0  0  0  0  0  0  0  0  0  0  0  0
   27.2368  -12.5067  -14.6916 C   0  0  0  0  0  0  0  0  0  0  0  0
   26.5465  -13.0115  -16.3205 S   0  0  0  0  0  0  0  0  0  0  0  0
   26.6054  -14.7420  -16.5581 C   0  0  0  0  0  0  0  0  0  0  0  0
   26.4097  -15.7452  -15.5090 C   0  0  0  0  0  0  0  0  0  0  0  0
   26.4101  -17.1809  -15.8257 C   0  0  2  0  0  0  0  0  0  0  0  0
   26.2381  -17.9518  -14.5444 N   0  0  0  0  0  0  0  0  0  0  0  0
   27.7557  -17.6730  -16.3293 C   0  0  0  0  0  0  0  0  0  0  0  0
   28.7063  -18.0464  -15.6618 O   0  0  0  0  0  0  0  0  0  0  0  0
   27.9736  -17.7188  -17.7332 O   0  0  0  0  0  0  0  0  0  0  0  0
  2  1  1  6
  2  4  1  0
  3  2  1  0
  4  5  1  1
  6  4  1  0
  6  7  2  0
  9  8  1  1
  9 11  1  0
  9 10  1  0
 11 12  1  6
 12  6  1  0
 13 11  1  0
 14 13  2  0
 16 15  1  0
 17 16  1  0
 18 17  1  0
 19 20  1  0
 19 18  1  1
 20 13  1  0
 21 19  1  0
 22 21  2  0
 23 21  1  0
M  END
$$$$
