TVM.pdb
     RDKit          3D

 23 22  0  0  1  0  0  0  0  0999 V2000
   22.2778  -15.1556  -14.7364 C   0  0  0  0  0  0  0  0  0  0  0  0
   21.7831  -15.9903  -15.9045 C   0  0  1  0  0  0  0  0  0  0  0  0
   21.3988  -17.2591  -15.4598 O   0  0  0  0  0  0  0  0  0  0  0  0
   20.6016  -15.2759  -16.5654 C   0  0  2  0  0  0  0  0  0  0  0  0
   20.1620  -16.1168  -17.6344 N   0  0  0  0  0  0  0  0  0  0  0  0
   21.1260  -13.9637  -17.0524 C   0  0  0  0  0  0  0  0  0  0  0  0
   22.0861  -13.9712  -17.8683 O   0  0  0  0  0  0  0  0  0  0  0  0
   19.4915  -11.5969  -19.1349 C   0  0  0  0  0  0  0  0  0  0  0  0
   19.9018  -10.8310  -17.9201 C   0  0  1  0  0  0  0  0  0  0  0  0
   18.8047  -10.5799  -16.9399 C   0  0  0  0  0  0  0  0  0  0  0  0
   21.1146  -11.4459  -17.2192 C   0  0  2  0  0  0  0  0  0  0  0  0
   20.6289  -12.7105  -16.6689 N   0  0  0  0  0  0  0  0  0  0  0  0
   21.6202  -10.5610  -16.1398 C   0  0  0  0  0  0  0  0  0  0  0  0
   21.1014  -10.6166  -15.0075 O   0  0  0  0  0  0  0  0  0  0  0  0
   27.4882  -11.6034  -15.6922 C   0  0  0  0  0  0  0  0  0  0  0  0
   25.9312  -10.7955  -16.2471 S   0  0  0  0  0  0  0  0  0  0  0  0
   25.7297   -9.2015  -15.5594 C   0  0  0  0  0  0  0  0  0  0  0  0
   24.5703   -8.3316  -15.7703 C   0  0  0  0  0  0  0  0  0  0  0  0
   23.2250   -8.7486  -15.3484 C   0  0  2  0  0  0  0  0  0  0  0  0
   22.6647   -9.6779  -16.3916 N   0  0  0  0  0  0  0  0  0  0  0  0
   22.2251   -7.6056  -15.3528 C   0  0  0  0  0  0  0  0  0  0  0  0
   21.5698   -7.1967  -16.2974 O   0  0  0  0  0  0  0  0  0  0  0  0
   21.9979   -6.9049  -14.1371 O   0  0  0  0  0  0  0  0  0  0  0  0
  2  1  1  1
  2  4  1  0
  3  2  1  0
  4  5  1  6
  6  4  1  0
  6  7  2  0
  9  8  1  6
  9 11  1  0
  9 10  1  0
 11 12  1  1
 12  6  1  0
 13 11  1  0
 14 13  2  0
 16 15  1  0
 17 16  1  0
 18 17  1  0
 19 20  1  0
 19 18  1  6
 20 13  1  0
 21 19  1  0
 22 21  2  0
 23 21  1  0
M  END
$$$$
