TVM.pdb
     RDKit          3D

 23 22  0  0  1  0  0  0  0  0999 V2000
   28.9587  -17.7533  -16.1034 C   0  0  0  0  0  0  0  0  0  0  0  0
   28.0978  -17.9434  -14.8670 C   0  0  1  0  0  0  0  0  0  0  0  0
   27.7688  -16.7014  -14.3150 O   0  0  0  0  0  0  0  0  0  0  0  0
   26.8295  -18.7088  -15.2528 C   0  0  2  0  0  0  0  0  0  0  0  0
   26.1185  -17.8817  -16.1766 N   0  0  0  0  0  0  0  0  0  0  0  0
   26.0708  -18.9271  -13.9838 C   0  0  0  0  0  0  0  0  0  0  0  0
   25.2494  -18.0433  -13.6207 O   0  0  0  0  0  0  0  0  0  0  0  0
   25.5044  -22.7031  -12.6552 C   0  0  0  0  0  0  0  0  0  0  0  0
   24.6029  -21.5712  -12.2856 C   0  0  1  0  0  0  0  0  0  0  0  0
   23.6333  -21.8760  -11.1928 C   0  0  0  0  0  0  0  0  0  0  0  0
   25.3710  -20.2851  -11.9754 C   0  0  2  0  0  0  0  0  0  0  0  0
   26.2019  -20.0502  -13.1553 N   0  0  0  0  0  0  0  0  0  0  0  0
   26.2112  -20.4379  -10.7610 C   0  0  0  0  0  0  0  0  0  0  0  0
   27.3518  -20.9310  -10.8623 O   0  0  0  0  0  0  0  0  0  0  0  0
   29.2968  -20.4810   -4.6555 C   0  0  0  0  0  0  0  0  0  0  0  0
   29.0084  -19.1442   -5.8862 S   0  0  0  0  0  0  0  0  0  0  0  0
   27.3115  -18.9260   -6.2429 C   0  0  0  0  0  0  0  0  0  0  0  0
   26.7145  -18.9922   -7.5788 C   0  0  0  0  0  0  0  0  0  0  0  0
   26.4615  -20.2852   -8.2311 C   0  0  2  0  0  0  0  0  0  0  0  0
   25.7282  -20.0331   -9.5212 N   0  0  0  0  0  0  0  0  0  0  0  0
   25.4834  -21.1535   -7.4592 C   0  0  0  0  0  0  0  0  0  0  0  0
   24.2807  -21.2553   -7.6380 O   0  0  0  0  0  0  0  0  0  0  0  0
   25.9862  -21.9546   -6.3981 O   0  0  0  0  0  0  0  0  0  0  0  0
  2  1  1  6
  2  4  1  0
  3  2  1  0
  4  5  1  6
  6  4  1  0
  6  7  2  0
  9  8  1  1
  9 11  1  0
  9 10  1  0
 11 12  1  6
 12  6  1  0
 13 11  1  0
 14 13  2  0
 16 15  1  0
 17 16  1  0
 18 17  1  0
 19 20  1  0
 19 18  1  1
 20 13  1  0
 21 19  1  0
 22 21  2  0
 23 21  1  0
M  END
$$$$
