TVM.pdb
     RDKit          3D

 23 22  0  0  1  0  0  0  0  0999 V2000
   20.8189  -11.1593  -17.6659 C   0  0  0  0  0  0  0  0  0  0  0  0
   19.3953  -11.5329  -18.0397 C   0  0  1  0  0  0  0  0  0  0  0  0
   19.3762  -12.7793  -18.6732 O   0  0  0  0  0  0  0  0  0  0  0  0
   18.5369  -11.5649  -16.7726 C   0  0  2  0  0  0  0  0  0  0  0  0
   17.2374  -12.0073  -17.1708 N   0  0  0  0  0  0  0  0  0  0  0  0
   18.5244  -10.1681  -16.2409 C   0  0  0  0  0  0  0  0  0  0  0  0
   18.1593   -9.2402  -17.0112 O   0  0  0  0  0  0  0  0  0  0  0  0
   16.6079   -8.8262  -13.4767 C   0  0  0  0  0  0  0  0  0  0  0  0
   18.0253   -8.4504  -13.1930 C   0  0  1  0  0  0  0  0  0  0  0  0
   18.6842   -9.2590  -12.1257 C   0  0  0  0  0  0  0  0  0  0  0  0
   18.8902   -8.4239  -14.4545 C   0  0  2  0  0  0  0  0  0  0  0  0
   18.8912   -9.8038  -14.9381 N   0  0  0  0  0  0  0  0  0  0  0  0
   20.2711   -7.9703  -14.1526 C   0  0  0  0  0  0  0  0  0  0  0  0
   21.1972   -8.8042  -14.1191 O   0  0  0  0  0  0  0  0  0  0  0  0
   25.9927   -5.0159  -17.5824 C   0  0  0  0  0  0  0  0  0  0  0  0
   24.3618   -5.8527  -17.4246 S   0  0  0  0  0  0  0  0  0  0  0  0
   23.6409   -5.6090  -15.8513 C   0  0  0  0  0  0  0  0  0  0  0  0
   22.3505   -6.1521  -15.4209 C   0  0  0  0  0  0  0  0  0  0  0  0
   21.8987   -6.0153  -14.0285 C   0  0  2  0  0  0  0  0  0  0  0  0
   20.5277   -6.6250  -13.9099 N   0  0  0  0  0  0  0  0  0  0  0  0
   21.6540   -4.5711  -13.6274 C   0  0  0  0  0  0  0  0  0  0  0  0
   20.6134   -3.9410  -13.7222 O   0  0  0  0  0  0  0  0  0  0  0  0
   22.7357   -3.8331  -13.0747 O   0  0  0  0  0  0  0  0  0  0  0  0
  2  1  1  1
  2  4  1  0
  3  2  1  0
  4  5  1  6
  6  4  1  0
  6  7  2  0
  9  8  1  6
  9 11  1  0
  9 10  1  0
 11 12  1  1
 12  6  1  0
 13 11  1  0
 14 13  2  0
 16 15  1  0
 17 16  1  0
 18 17  1  0
 19 20  1  0
 19 18  1  6
 20 13  1  0
 21 19  1  0
 22 21  2  0
 23 21  1  0
M  END
$$$$
