TVM.pdb
     RDKit          3D

 23 22  0  0  1  0  0  0  0  0999 V2000
   22.5552   -5.6727  -18.2241 C   0  0  0  0  0  0  0  0  0  0  0  0
   23.2455   -6.6180  -19.1916 C   0  0  1  0  0  0  0  0  0  0  0  0
   24.2003   -5.9247  -19.9419 O   0  0  0  0  0  0  0  0  0  0  0  0
   23.9070   -7.7492  -18.4003 C   0  0  2  0  0  0  0  0  0  0  0  0
   24.5734   -8.5794  -19.3541 N   0  0  0  0  0  0  0  0  0  0  0  0
   22.8022   -8.4670  -17.6946 C   0  0  0  0  0  0  0  0  0  0  0  0
   21.8751   -8.9637  -18.3885 O   0  0  0  0  0  0  0  0  0  0  0  0
   22.9900  -11.3872  -15.4268 C   0  0  0  0  0  0  0  0  0  0  0  0
   22.2508  -10.3141  -14.6969 C   0  0  1  0  0  0  0  0  0  0  0  0
   23.0462   -9.6095  -13.6490 C   0  0  0  0  0  0  0  0  0  0  0  0
   21.5972   -9.3037  -15.6415 C   0  0  2  0  0  0  0  0  0  0  0  0
   22.7142   -8.6335  -16.3056 N   0  0  0  0  0  0  0  0  0  0  0  0
   20.7651   -8.3268  -14.8949 C   0  0  0  0  0  0  0  0  0  0  0  0
   21.3192   -7.4090  -14.2585 O   0  0  0  0  0  0  0  0  0  0  0  0
   15.8859   -3.4895  -14.7465 C   0  0  0  0  0  0  0  0  0  0  0  0
   15.3442   -5.1571  -15.3036 S   0  0  0  0  0  0  0  0  0  0  0  0
   16.1712   -6.4411  -14.4539 C   0  0  0  0  0  0  0  0  0  0  0  0
   17.2979   -7.2137  -14.9819 C   0  0  0  0  0  0  0  0  0  0  0  0
   18.4740   -7.5026  -14.1482 C   0  0  2  0  0  0  0  0  0  0  0  0
   19.3787   -8.4361  -14.9069 N   0  0  0  0  0  0  0  0  0  0  0  0
   18.1331   -8.3087  -12.9071 C   0  0  0  0  0  0  0  0  0  0  0  0
   18.1143   -9.5234  -12.7934 O   0  0  0  0  0  0  0  0  0  0  0  0
   17.7901   -7.6055  -11.7204 O   0  0  0  0  0  0  0  0  0  0  0  0
  2  1  1  1
  2  4  1  0
  3  2  1  0
  4  5  1  6
  6  4  1  0
  6  7  2  0
  9  8  1  6
  9 11  1  0
  9 10  1  0
 11 12  1  1
 12  6  1  0
 13 11  1  0
 14 13  2  0
 16 15  1  0
 17 16  1  0
 18 17  1  0
 19 20  1  0
 19 18  1  6
 20 13  1  0
 21 19  1  0
 22 21  2  0
 23 21  1  0
M  END
$$$$
