FRA.pdb
     RDKit          3D

 28 28  0  0  1  0  0  0  0  0999 V2000
    7.4928  -15.6620   26.2017 N   0  0  0  0  0  0  0  0  0  0  0  0
    6.8524  -15.6033   24.9035 C   0  0  1  0  0  0  0  0  0  0  0  0
    6.8238  -14.1842   24.3824 C   0  0  0  0  0  0  0  0  0  0  0  0
    6.8198  -13.2661   25.5512 C   0  0  0  0  0  0  0  0  0  0  0  0
    8.0096  -12.6636   25.9715 C   0  0  0  0  0  0  0  0  0  0  0  0
    7.9948  -11.8130   27.0575 C   0  0  0  0  0  0  0  0  0  0  0  0
    6.8450  -11.5214   27.7625 C   0  0  0  0  0  0  0  0  0  0  0  0
    5.6703  -12.1125   27.3523 C   0  0  0  0  0  0  0  0  0  0  0  0
    5.6730  -12.9694   26.2619 C   0  0  0  0  0  0  0  0  0  0  0  0
    7.5130  -16.5276   23.9319 C   0  0  0  0  0  0  0  0  0  0  0  0
    6.8581  -17.1057   23.0251 O   0  0  0  0  0  0  0  0  0  0  0  0
    8.1856  -14.1833   17.6871 N   0  0  0  0  0  0  0  0  0  0  0  0
    8.2601  -13.4035   18.8717 C   0  0  0  0  0  0  0  0  0  0  0  0
    8.5880  -12.1497   18.7775 N   0  0  0  0  0  0  0  0  0  0  0  0
    7.9880  -13.9488   20.1561 N   0  0  0  0  0  0  0  0  0  0  0  0
    7.6793  -15.3541   20.2849 C   0  0  0  0  0  0  0  0  0  0  0  0
    8.9819  -16.1072   20.5135 C   0  0  0  0  0  0  0  0  0  0  0  0
    9.5686  -15.7830   21.8612 C   0  0  0  0  0  0  0  0  0  0  0  0
    9.6979  -16.9906   22.7434 C   0  0  2  0  0  0  0  0  0  0  0  0
    8.9053  -16.8012   23.9792 N   0  0  0  0  0  0  0  0  0  0  0  0
   11.0890  -17.2363   23.1646 C   0  0  0  0  0  0  0  0  0  0  0  0
   11.7574  -16.4097   23.8299 O   0  0  0  0  0  0  0  0  0  0  0  0
    8.6825  -11.5383   19.6021 C   0  0  0  0  0  0  0  0  0  0  0  0
   13.6640  -20.0349   22.8628 C   0  0  1  0  0  0  0  0  0  0  0  0
   13.1502  -18.6895   23.3132 N   0  0  0  0  0  0  0  0  0  0  0  0
   11.7984  -18.4523   22.8445 C   0  0  0  0  0  0  0  0  0  0  0  0
   14.0432  -17.6430   22.7359 O   0  0  0  0  0  0  0  0  0  0  0  0
   13.7384  -17.0173   21.6726 O   0  0  0  0  0  0  0  0  0  0  0  0
  2  1  1  1
  2 10  1  0
  2  3  1  0
  3  4  1  0
  4  9  2  0
  5  4  1  0
  5  6  2  0
  6  7  1  0
  7  8  2  0
  9  8  1  0
 10 11  2  0
 13 15  1  0
 13 12  1  0
 14 13  2  0
 16 17  1  0
 16 15  1  0
 17 18  1  0
 19 18  1  6
 20 10  1  0
 20 19  1  0
 21 22  2  0
 21 19  1  0
 24 23  1  1
 24 25  1  0
 25 21  1  0
 26 24  1  0
 26 28  1  0
 27 26  2  0
M  END
$$$$
