FRA.pdb
     RDKit          3D

 28 28  0  0  1  0  0  0  0  0999 V2000
    6.5188  -17.6415   26.0006 N   0  0  0  0  0  0  0  0  0  0  0  0
    6.8026  -16.3625   25.3822 C   0  0  1  0  0  0  0  0  0  0  0  0
    7.8489  -15.6058   26.1688 C   0  0  0  0  0  0  0  0  0  0  0  0
    7.2900  -14.2719   26.5112 C   0  0  0  0  0  0  0  0  0  0  0  0
    6.1318  -13.8146   25.8749 C   0  0  0  0  0  0  0  0  0  0  0  0
    5.6212  -12.5749   26.2001 C   0  0  0  0  0  0  0  0  0  0  0  0
    6.2059  -11.7488   27.1380 C   0  0  0  0  0  0  0  0  0  0  0  0
    7.3471  -12.1947   27.7676 C   0  0  0  0  0  0  0  0  0  0  0  0
    7.8695  -13.4393   27.4488 C   0  0  0  0  0  0  0  0  0  0  0  0
    7.2105  -16.5307   23.9538 C   0  0  0  0  0  0  0  0  0  0  0  0
    7.2941  -17.6698   23.4237 O   0  0  0  0  0  0  0  0  0  0  0  0
    8.9201  -15.3342   16.7944 N   0  0  0  0  0  0  0  0  0  0  0  0
    8.4825  -13.9990   16.5875 C   0  0  0  0  0  0  0  0  0  0  0  0
    8.1710  -13.6206   15.3842 N   0  0  0  0  0  0  0  0  0  0  0  0
    8.3741  -13.0637   17.6527 N   0  0  0  0  0  0  0  0  0  0  0  0
    8.6932  -13.4751   19.0001 C   0  0  0  0  0  0  0  0  0  0  0  0
    7.6566  -14.4980   19.4422 C   0  0  0  0  0  0  0  0  0  0  0  0
    7.3772  -14.3869   20.9171 C   0  0  0  0  0  0  0  0  0  0  0  0
    7.8272  -15.5954   21.6854 C   0  0  2  0  0  0  0  0  0  0  0  0
    7.5232  -15.4222   23.1238 N   0  0  0  0  0  0  0  0  0  0  0  0
    9.2802  -15.8215   21.5826 C   0  0  0  0  0  0  0  0  0  0  0  0
    9.8543  -16.0942   20.5016 O   0  0  0  0  0  0  0  0  0  0  0  0
    7.9457  -12.6418   15.1522 C   0  0  0  0  0  0  0  0  0  0  0  0
   12.3949  -15.2821   23.6124 C   0  0  2  0  0  0  0  0  0  0  0  0
   11.5767  -16.0569   22.6089 N   0  0  0  0  0  0  0  0  0  0  0  0
   10.1644  -15.7474   22.7216 C   0  0  0  0  0  0  0  0  0  0  0  0
   11.7679  -17.5100   22.8882 O   0  0  0  0  0  0  0  0  0  0  0  0
   10.7993  -18.2569   23.2333 O   0  0  0  0  0  0  0  0  0  0  0  0
  2  1  1  1
  2 10  1  0
  2  3  1  0
  3  4  1  0
  4  9  2  0
  5  4  1  0
  5  6  2  0
  6  7  1  0
  7  8  2  0
  9  8  1  0
 10 11  2  0
 13 15  1  0
 13 12  1  0
 14 13  2  0
 16 17  1  0
 16 15  1  0
 17 18  1  0
 19 18  1  6
 20 10  1  0
 20 19  1  0
 21 22  2  0
 21 19  1  0
 24 23  1  6
 24 25  1  0
 25 21  1  0
 26 24  1  0
 26 28  1  0
 27 26  2  0
M  END
$$$$
