FRA.pdb
     RDKit          3D

 28 28  0  0  1  0  0  0  0  0999 V2000
    6.9184  -17.9190   27.0250 N   0  0  0  0  0  0  0  0  0  0  0  0
    7.0912  -16.7174   26.2343 C   0  0  1  0  0  0  0  0  0  0  0  0
    8.1036  -15.7944   26.8740 C   0  0  0  0  0  0  0  0  0  0  0  0
    7.5841  -14.4053   26.7767 C   0  0  0  0  0  0  0  0  0  0  0  0
    8.4357  -13.3219   27.0140 C   0  0  0  0  0  0  0  0  0  0  0  0
    7.9434  -12.0364   26.9210 C   0  0  0  0  0  0  0  0  0  0  0  0
    6.6300  -11.7610   26.6000 C   0  0  0  0  0  0  0  0  0  0  0  0
    5.7871  -12.8249   26.3654 C   0  0  0  0  0  0  0  0  0  0  0  0
    6.2708  -14.1215   26.4559 C   0  0  0  0  0  0  0  0  0  0  0  0
    7.4671  -17.0461   24.8253 C   0  0  0  0  0  0  0  0  0  0  0  0
    7.7364  -18.2251   24.4747 O   0  0  0  0  0  0  0  0  0  0  0  0
    9.1165  -13.8477   17.5601 N   0  0  0  0  0  0  0  0  0  0  0  0
    8.6688  -13.0598   18.6536 C   0  0  0  0  0  0  0  0  0  0  0  0
    9.3867  -12.0444   19.0302 N   0  0  0  0  0  0  0  0  0  0  0  0
    7.4622  -13.3451   19.3491 N   0  0  0  0  0  0  0  0  0  0  0  0
    6.8041  -14.6151   19.1471 C   0  0  0  0  0  0  0  0  0  0  0  0
    7.4809  -15.6473   20.0375 C   0  0  0  0  0  0  0  0  0  0  0  0
    7.2334  -15.3560   21.4933 C   0  0  0  0  0  0  0  0  0  0  0  0
    7.8035  -16.4073   22.4005 C   0  0  2  0  0  0  0  0  0  0  0  0
    7.5400  -16.0529   23.8135 N   0  0  0  0  0  0  0  0  0  0  0  0
    9.2648  -16.5415   22.2617 C   0  0  0  0  0  0  0  0  0  0  0  0
    9.8161  -16.9595   21.2157 O   0  0  0  0  0  0  0  0  0  0  0  0
    9.1438  -11.4677   19.8495 C   0  0  0  0  0  0  0  0  0  0  0  0
   12.3280  -15.1884   23.9237 C   0  0  2  0  0  0  0  0  0  0  0  0
   11.6206  -16.2587   23.1295 N   0  0  0  0  0  0  0  0  0  0  0  0
   10.1842  -16.2018   23.3218 C   0  0  0  0  0  0  0  0  0  0  0  0
   12.1115  -17.5833   23.6095 O   0  0  0  0  0  0  0  0  0  0  0  0
   11.3279  -18.4368   24.1316 O   0  0  0  0  0  0  0  0  0  0  0  0
  2  1  1  1
  2 10  1  0
  2  3  1  0
  3  4  1  0
  4  9  2  0
  5  4  1  0
  5  6  2  0
  6  7  1  0
  7  8  2  0
  9  8  1  0
 10 11  2  0
 13 15  1  0
 13 12  1  0
 14 13  2  0
 16 17  1  0
 16 15  1  0
 17 18  1  0
 19 18  1  6
 20 10  1  0
 20 19  1  0
 21 22  2  0
 21 19  1  0
 24 23  1  6
 24 25  1  0
 25 21  1  0
 26 24  1  0
 26 28  1  0
 27 26  2  0
M  END
$$$$
