FRA.pdb
     RDKit          3D

 28 28  0  0  1  0  0  0  0  0999 V2000
    8.5385  -16.2932   26.2752 N   0  0  0  0  0  0  0  0  0  0  0  0
    7.2702  -16.5383   25.6194 C   0  0  1  0  0  0  0  0  0  0  0  0
    6.1612  -15.7550   26.2849 C   0  0  0  0  0  0  0  0  0  0  0  0
    6.5925  -14.3356   26.3755 C   0  0  0  0  0  0  0  0  0  0  0  0
    7.4863  -13.9387   27.3750 C   0  0  0  0  0  0  0  0  0  0  0  0
    7.8803  -12.6187   27.4503 C   0  0  0  0  0  0  0  0  0  0  0  0
    7.4291  -11.6532   26.5738 C   0  0  0  0  0  0  0  0  0  0  0  0
    6.5484  -12.0393   25.5874 C   0  0  0  0  0  0  0  0  0  0  0  0
    6.1453  -13.3635   25.5019 C   0  0  0  0  0  0  0  0  0  0  0  0
    7.3495  -16.2363   24.1575 C   0  0  0  0  0  0  0  0  0  0  0  0
    6.3731  -16.4424   23.3897 O   0  0  0  0  0  0  0  0  0  0  0  0
    8.0606  -14.4342   15.9834 N   0  0  0  0  0  0  0  0  0  0  0  0
    8.0643  -13.7663   17.2367 C   0  0  0  0  0  0  0  0  0  0  0  0
    8.9126  -12.8013   17.4304 N   0  0  0  0  0  0  0  0  0  0  0  0
    7.1712  -14.1180   18.2854 N   0  0  0  0  0  0  0  0  0  0  0  0
    7.2180  -13.3963   19.5359 C   0  0  0  0  0  0  0  0  0  0  0  0
    8.4815  -13.8108   20.2761 C   0  0  0  0  0  0  0  0  0  0  0  0
    8.1857  -14.1416   21.7144 C   0  0  0  0  0  0  0  0  0  0  0  0
    8.6300  -15.5239   22.0951 C   0  0  2  0  0  0  0  0  0  0  0  0
    8.5225  -15.7041   23.5605 N   0  0  0  0  0  0  0  0  0  0  0  0
   10.0362  -15.7840   21.7373 C   0  0  0  0  0  0  0  0  0  0  0  0
   11.0002  -15.4408   22.4622 O   0  0  0  0  0  0  0  0  0  0  0  0
    8.9289  -12.2436   18.2972 C   0  0  0  0  0  0  0  0  0  0  0  0
   11.8306  -18.1901   21.5153 C   0  0  2  0  0  0  0  0  0  0  0  0
   11.6759  -17.1743   20.4103 N   0  0  0  0  0  0  0  0  0  0  0  0
   10.4201  -16.4571   20.5191 C   0  0  0  0  0  0  0  0  0  0  0  0
   11.6930  -17.9069   19.1107 O   0  0  0  0  0  0  0  0  0  0  0  0
   10.6347  -18.3982   18.6070 O   0  0  0  0  0  0  0  0  0  0  0  0
  2  1  1  1
  2 10  1  0
  2  3  1  0
  3  4  1  0
  4  9  2  0
  5  4  1  0
  5  6  2  0
  6  7  1  0
  7  8  2  0
  9  8  1  0
 10 11  2  0
 13 15  1  0
 13 12  1  0
 14 13  2  0
 16 17  1  0
 16 15  1  0
 17 18  1  0
 19 18  1  1
 20 10  1  0
 20 19  1  0
 21 22  2  0
 21 19  1  0
 24 23  1  1
 24 25  1  0
 25 21  1  0
 26 24  1  0
 26 28  1  0
 27 26  2  0
M  END
$$$$
