FRA.pdb
     RDKit          3D

 28 28  0  0  1  0  0  0  0  0999 V2000
    6.3302  -17.1554   25.8724 N   0  0  0  0  0  0  0  0  0  0  0  0
    6.7396  -15.9422   25.1946 C   0  0  1  0  0  0  0  0  0  0  0  0
    7.7731  -15.1955   26.0072 C   0  0  0  0  0  0  0  0  0  0  0  0
    7.1273  -13.9780   26.5636 C   0  0  0  0  0  0  0  0  0  0  0  0
    7.5620  -13.4512   27.7838 C   0  0  0  0  0  0  0  0  0  0  0  0
    6.9558  -12.3207   28.2914 C   0  0  0  0  0  0  0  0  0  0  0  0
    5.9240  -11.6720   27.6446 C   0  0  0  0  0  0  0  0  0  0  0  0
    5.4921  -12.1870   26.4422 C   0  0  0  0  0  0  0  0  0  0  0  0
    6.0939  -13.3231   25.9222 C   0  0  0  0  0  0  0  0  0  0  0  0
    7.2375  -16.2345   23.8156 C   0  0  0  0  0  0  0  0  0  0  0  0
    7.7213  -17.3576   23.5156 O   0  0  0  0  0  0  0  0  0  0  0  0
   10.0906  -14.7601   16.9224 N   0  0  0  0  0  0  0  0  0  0  0  0
    8.8307  -14.2175   16.5549 C   0  0  0  0  0  0  0  0  0  0  0  0
    8.3479  -14.4930   15.3804 N   0  0  0  0  0  0  0  0  0  0  0  0
    8.0807  -13.3838   17.4287 N   0  0  0  0  0  0  0  0  0  0  0  0
    8.6649  -12.9467   18.6755 C   0  0  0  0  0  0  0  0  0  0  0  0
    8.8682  -14.1692   19.5589 C   0  0  0  0  0  0  0  0  0  0  0  0
    7.9011  -14.1738   20.7123 C   0  0  0  0  0  0  0  0  0  0  0  0
    7.9947  -15.4206   21.5429 C   0  0  2  0  0  0  0  0  0  0  0  0
    7.1919  -15.2675   22.7772 N   0  0  0  0  0  0  0  0  0  0  0  0
    9.3753  -15.7141   21.9680 C   0  0  0  0  0  0  0  0  0  0  0  0
   10.0380  -14.9516   22.7111 O   0  0  0  0  0  0  0  0  0  0  0  0
    7.4339  -14.1396   15.0603 C   0  0  0  0  0  0  0  0  0  0  0  0
   11.8931  -18.5455   21.6803 C   0  0  1  0  0  0  0  0  0  0  0  0
   11.4804  -17.1082   21.8818 N   0  0  0  0  0  0  0  0  0  0  0  0
   10.0802  -16.9070   21.5623 C   0  0  0  0  0  0  0  0  0  0  0  0
   12.3021  -16.2644   20.9659 O   0  0  0  0  0  0  0  0  0  0  0  0
   11.8987  -15.9548   19.8012 O   0  0  0  0  0  0  0  0  0  0  0  0
  2  1  1  1
  2 10  1  0
  2  3  1  0
  3  4  1  0
  4  9  2  0
  5  4  1  0
  5  6  2  0
  6  7  1  0
  7  8  2  0
  9  8  1  0
 10 11  2  0
 13 15  1  0
 13 12  1  0
 14 13  2  0
 16 17  1  0
 16 15  1  0
 17 18  1  0
 19 18  1  1
 20 10  1  0
 20 19  1  0
 21 22  2  0
 21 19  1  0
 24 23  1  1
 24 25  1  0
 25 21  1  0
 26 24  1  0
 26 28  1  0
 27 26  2  0
M  END
$$$$
