FRA.pdb
     RDKit          3D

 28 28  0  0  1  0  0  0  0  0999 V2000
    6.0934  -17.8351   26.0402 N   0  0  0  0  0  0  0  0  0  0  0  0
    6.5287  -16.4991   25.6872 C   0  0  1  0  0  0  0  0  0  0  0  0
    7.2888  -15.8627   26.8288 C   0  0  0  0  0  0  0  0  0  0  0  0
    6.9929  -14.4061   26.8216 C   0  0  0  0  0  0  0  0  0  0  0  0
    5.6803  -13.9600   26.6389 C   0  0  0  0  0  0  0  0  0  0  0  0
    5.4165  -12.6059   26.6339 C   0  0  0  0  0  0  0  0  0  0  0  0
    6.3997  -11.6526   26.8031 C   0  0  0  0  0  0  0  0  0  0  0  0
    7.6944  -12.0871   26.9834 C   0  0  0  0  0  0  0  0  0  0  0  0
    7.9716  -13.4460   26.9902 C   0  0  0  0  0  0  0  0  0  0  0  0
    7.3388  -16.5082   24.4309 C   0  0  0  0  0  0  0  0  0  0  0  0
    8.1451  -17.4409   24.1752 O   0  0  0  0  0  0  0  0  0  0  0  0
    9.7771  -14.6785   17.5071 N   0  0  0  0  0  0  0  0  0  0  0  0
    8.5702  -14.0122   17.1657 C   0  0  0  0  0  0  0  0  0  0  0  0
    8.2143  -13.9599   15.9172 N   0  0  0  0  0  0  0  0  0  0  0  0
    7.7393  -13.4011   18.1441 N   0  0  0  0  0  0  0  0  0  0  0  0
    8.3208  -12.9210   19.3763 C   0  0  0  0  0  0  0  0  0  0  0  0
    8.6952  -14.1268   20.2260 C   0  0  0  0  0  0  0  0  0  0  0  0
    7.7848  -14.2564   21.4177 C   0  0  0  0  0  0  0  0  0  0  0  0
    8.0821  -15.4729   22.2454 C   0  0  2  0  0  0  0  0  0  0  0  0
    7.2430  -15.4722   23.4649 N   0  0  0  0  0  0  0  0  0  0  0  0
    9.4850  -15.5211   22.6952 C   0  0  0  0  0  0  0  0  0  0  0  0
    9.9866  -14.6642   23.4612 O   0  0  0  0  0  0  0  0  0  0  0  0
    7.3688  -13.4611   15.6026 C   0  0  0  0  0  0  0  0  0  0  0  0
   12.1758  -17.9611   23.2235 C   0  0  1  0  0  0  0  0  0  0  0  0
   11.7752  -16.5863   22.7481 N   0  0  0  0  0  0  0  0  0  0  0  0
   10.3997  -16.5619   22.2894 C   0  0  0  0  0  0  0  0  0  0  0  0
   12.6629  -16.2214   21.6057 O   0  0  0  0  0  0  0  0  0  0  0  0
   12.2381  -16.2065   20.4081 O   0  0  0  0  0  0  0  0  0  0  0  0
  2  1  1  1
  2 10  1  0
  2  3  1  0
  3  4  1  0
  4  9  2  0
  5  4  1  0
  5  6  2  0
  6  7  1  0
  7  8  2  0
  9  8  1  0
 10 11  2  0
 13 15  1  0
 13 12  1  0
 14 13  2  0
 16 17  1  0
 16 15  1  0
 17 18  1  0
 19 18  1  1
 20 10  1  0
 20 19  1  0
 21 22  2  0
 21 19  1  0
 24 23  1  1
 24 25  1  0
 25 21  1  0
 26 24  1  0
 26 28  1  0
 27 26  2  0
M  END
$$$$
