FRA.pdb
     RDKit          3D

 28 28  0  0  1  0  0  0  0  0999 V2000
    6.2228  -17.1333   26.2161 N   0  0  0  0  0  0  0  0  0  0  0  0
    6.9370  -16.0648   25.5477 C   0  0  1  0  0  0  0  0  0  0  0  0
    7.7444  -15.2566   26.5382 C   0  0  0  0  0  0  0  0  0  0  0  0
    7.1214  -13.9118   26.6493 C   0  0  0  0  0  0  0  0  0  0  0  0
    7.8460  -12.8484   27.1965 C   0  0  0  0  0  0  0  0  0  0  0  0
    7.2584  -11.6041   27.2950 C   0  0  0  0  0  0  0  0  0  0  0  0
    5.9690  -11.3514   26.8736 C   0  0  0  0  0  0  0  0  0  0  0  0
    5.2510  -12.3958   26.3338 C   0  0  0  0  0  0  0  0  0  0  0  0
    5.8314  -13.6510   26.2297 C   0  0  0  0  0  0  0  0  0  0  0  0
    7.7979  -16.5952   24.4467 C   0  0  0  0  0  0  0  0  0  0  0  0
    8.3083  -17.7447   24.5069 O   0  0  0  0  0  0  0  0  0  0  0  0
    9.9835  -14.0482   18.5074 N   0  0  0  0  0  0  0  0  0  0  0  0
    8.7613  -13.3254   18.5319 C   0  0  0  0  0  0  0  0  0  0  0  0
    8.7916  -12.0365   18.3701 N   0  0  0  0  0  0  0  0  0  0  0  0
    7.5067  -13.9649   18.7275 N   0  0  0  0  0  0  0  0  0  0  0  0
    7.4514  -15.4014   18.8692 C   0  0  0  0  0  0  0  0  0  0  0  0
    7.4369  -15.7317   20.3548 C   0  0  0  0  0  0  0  0  0  0  0  0
    8.8020  -15.5564   20.9644 C   0  0  0  0  0  0  0  0  0  0  0  0
    8.9816  -16.3531   22.2238 C   0  0  2  0  0  0  0  0  0  0  0  0
    8.0842  -15.8362   23.2816 N   0  0  0  0  0  0  0  0  0  0  0  0
   10.3546  -16.2702   22.7539 C   0  0  0  0  0  0  0  0  0  0  0  0
   10.9201  -15.1827   23.0187 O   0  0  0  0  0  0  0  0  0  0  0  0
    7.9512  -11.4467   18.4625 C   0  0  0  0  0  0  0  0  0  0  0  0
   13.1221  -18.6810   23.7893 C   0  0  1  0  0  0  0  0  0  0  0  0
   12.5281  -17.3264   23.4907 N   0  0  0  0  0  0  0  0  0  0  0  0
   11.1636  -17.4378   23.0122 C   0  0  0  0  0  0  0  0  0  0  0  0
   13.3546  -16.6903   22.4239 O   0  0  0  0  0  0  0  0  0  0  0  0
   14.4696  -16.1383   22.6829 O   0  0  0  0  0  0  0  0  0  0  0  0
  2  1  1  1
  2 10  1  0
  2  3  1  0
  3  4  1  0
  4  9  2  0
  5  4  1  0
  5  6  2  0
  6  7  1  0
  7  8  2  0
  9  8  1  0
 10 11  2  0
 13 15  1  0
 13 12  1  0
 14 13  2  0
 16 17  1  0
 16 15  1  0
 17 18  1  0
 19 18  1  6
 20 10  1  0
 20 19  1  0
 21 22  2  0
 21 19  1  0
 24 23  1  1
 24 25  1  0
 25 21  1  0
 26 24  1  0
 26 28  1  0
 27 26  2  0
M  END
$$$$
