FRA.pdb
     RDKit          3D

 28 28  0  0  1  0  0  0  0  0999 V2000
    6.3716  -16.3794   26.4678 N   0  0  0  0  0  0  0  0  0  0  0  0
    6.6612  -16.0123   25.0967 C   0  0  1  0  0  0  0  0  0  0  0  0
    7.7726  -14.9889   25.0378 C   0  0  0  0  0  0  0  0  0  0  0  0
    7.3655  -13.8214   25.8626 C   0  0  0  0  0  0  0  0  0  0  0  0
    6.0097  -13.5274   26.0377 C   0  0  0  0  0  0  0  0  0  0  0  0
    5.6426  -12.4414   26.8053 C   0  0  0  0  0  0  0  0  0  0  0  0
    6.5620  -11.6161   27.4198 C   0  0  0  0  0  0  0  0  0  0  0  0
    7.8989  -11.9015   27.2503 C   0  0  0  0  0  0  0  0  0  0  0  0
    8.2797  -12.9906   26.4809 C   0  0  0  0  0  0  0  0  0  0  0  0
    6.9841  -17.2158   24.2708 C   0  0  0  0  0  0  0  0  0  0  0  0
    6.1119  -18.0843   24.0053 O   0  0  0  0  0  0  0  0  0  0  0  0
    7.2381  -12.7253   18.7890 N   0  0  0  0  0  0  0  0  0  0  0  0
    8.6128  -13.0772   18.8463 C   0  0  0  0  0  0  0  0  0  0  0  0
    9.4975  -12.1328   18.9633 N   0  0  0  0  0  0  0  0  0  0  0  0
    9.0526  -14.4275   18.7799 N   0  0  0  0  0  0  0  0  0  0  0  0
    8.2561  -15.4690   19.3862 C   0  0  0  0  0  0  0  0  0  0  0  0
    8.4453  -15.3941   20.8945 C   0  0  0  0  0  0  0  0  0  0  0  0
    7.6567  -16.4674   21.5957 C   0  0  0  0  0  0  0  0  0  0  0  0
    8.5318  -17.4729   22.2860 C   0  0  2  0  0  0  0  0  0  0  0  0
    8.2832  -17.4425   23.7451 N   0  0  0  0  0  0  0  0  0  0  0  0
    9.9674  -17.1990   22.0940 C   0  0  0  0  0  0  0  0  0  0  0  0
   10.5864  -17.5018   21.0462 O   0  0  0  0  0  0  0  0  0  0  0  0
   10.5111  -12.3208   18.9689 C   0  0  0  0  0  0  0  0  0  0  0  0
   12.7492  -15.1699   23.5306 C   0  0  2  0  0  0  0  0  0  0  0  0
   12.2224  -16.4663   22.9661 N   0  0  0  0  0  0  0  0  0  0  0  0
   10.7812  -16.5578   23.0995 C   0  0  0  0  0  0  0  0  0  0  0  0
   12.8421  -17.5846   23.7349 O   0  0  0  0  0  0  0  0  0  0  0  0
   14.1002  -17.6695   23.8934 O   0  0  0  0  0  0  0  0  0  0  0  0
  2  1  1  1
  2 10  1  0
  2  3  1  0
  3  4  1  0
  4  9  2  0
  5  4  1  0
  5  6  2  0
  6  7  1  0
  7  8  2  0
  9  8  1  0
 10 11  2  0
 13 15  1  0
 13 12  1  0
 14 13  2  0
 16 17  1  0
 16 15  1  0
 17 18  1  0
 19 18  1  6
 20 10  1  0
 20 19  1  0
 21 22  2  0
 21 19  1  0
 24 23  1  6
 24 25  1  0
 25 21  1  0
 26 24  1  0
 26 28  1  0
 27 26  2  0
M  END
$$$$
