SQS.pdb
     RDKit          3D

 22 21  0  0  1  0  0  0  0  0999 V2000
    7.1480  -15.2784   18.7178 O   0  0  0  0  0  0  0  0  0  0  0  0
    7.0307  -13.9232   19.0160 C   0  0  0  0  0  0  0  0  0  0  0  0
    8.0470  -13.5103   20.0669 C   0  0  2  0  0  0  0  0  0  0  0  0
    9.3527  -13.9848   19.6490 N   0  0  0  0  0  0  0  0  0  0  0  0
    7.7078  -14.1600   21.3469 C   0  0  0  0  0  0  0  0  0  0  0  0
    6.6055  -13.9167   21.9382 O   0  0  0  0  0  0  0  0  0  0  0  0
   10.6766  -19.0405   24.0055 N   0  0  0  0  0  0  0  0  0  0  0  0
    9.9207  -18.5310   25.0761 C   0  0  0  0  0  0  0  0  0  0  0  0
    9.9696  -19.0876   26.1998 O   0  0  0  0  0  0  0  0  0  0  0  0
    9.0380  -17.3273   24.9394 C   0  0  0  0  0  0  0  0  0  0  0  0
    9.1022  -16.7879   23.5511 C   0  0  0  0  0  0  0  0  0  0  0  0
    8.2768  -15.5553   23.3803 C   0  0  2  0  0  0  0  0  0  0  0  0
    8.5560  -15.0826   22.0063 N   0  0  0  0  0  0  0  0  0  0  0  0
    8.5737  -14.4835   24.3479 C   0  0  0  0  0  0  0  0  0  0  0  0
    9.6409  -13.8794   24.3538 O   0  0  0  0  0  0  0  0  0  0  0  0
    5.8849  -11.8745   25.5251 O   0  0  0  0  0  0  0  0  0  0  0  0
    6.5332  -12.3540   26.6622 C   0  0  0  0  0  0  0  0  0  0  0  0
    7.7630  -13.1308   26.3141 C   0  0  2  0  0  0  0  0  0  0  0  0
    7.6017  -14.1220   25.3171 N   0  0  0  0  0  0  0  0  0  0  0  0
    8.3269  -13.7114   27.5390 C   0  0  0  0  0  0  0  0  0  0  0  0
    8.5963  -12.9796   28.6863 O   0  0  0  0  0  0  0  0  0  0  0  0
    8.5832  -14.9390   27.5586 O   0  0  0  0  0  0  0  0  0  0  0  0
  2  1  1  0
  3  4  1  6
  3  2  1  0
  5  3  1  0
  6  5  2  0
  7  8  1  0
  8 10  1  0
  8  9  2  0
 10 11  1  0
 12 11  1  1
 12 13  1  0
 12 14  1  0
 13  5  1  0
 14 19  1  0
 15 14  2  0
 16 17  1  0
 18 17  1  1
 18 20  1  0
 19 18  1  0
 20 22  2  0
 20 21  1  0
M  END
$$$$
