SQS.pdb
     RDKit          3D

 22 21  0  0  1  0  0  0  0  0999 V2000
    9.5529  -13.4563   18.8043 O   0  0  0  0  0  0  0  0  0  0  0  0
    8.7307  -13.4211   19.9276 C   0  0  0  0  0  0  0  0  0  0  0  0
    7.9803  -14.7320   20.0902 C   0  0  2  0  0  0  0  0  0  0  0  0
    6.8503  -14.7260   19.1805 N   0  0  0  0  0  0  0  0  0  0  0  0
    7.4629  -14.8234   21.4683 C   0  0  0  0  0  0  0  0  0  0  0  0
    6.4420  -14.1548   21.8353 O   0  0  0  0  0  0  0  0  0  0  0  0
    8.7282  -19.2119   26.8240 N   0  0  0  0  0  0  0  0  0  0  0  0
    7.6168  -18.8324   26.0507 C   0  0  0  0  0  0  0  0  0  0  0  0
    6.8050  -19.7014   25.6499 O   0  0  0  0  0  0  0  0  0  0  0  0
    7.3464  -17.4076   25.6720 C   0  0  0  0  0  0  0  0  0  0  0  0
    7.7340  -17.1619   24.2536 C   0  0  0  0  0  0  0  0  0  0  0  0
    7.4446  -15.7632   23.8183 C   0  0  2  0  0  0  0  0  0  0  0  0
    8.0422  -15.6395   22.4704 N   0  0  0  0  0  0  0  0  0  0  0  0
    7.9934  -14.7221   24.7060 C   0  0  0  0  0  0  0  0  0  0  0  0
    9.1820  -14.4201   24.7097 O   0  0  0  0  0  0  0  0  0  0  0  0
    5.2025  -12.5183   26.7064 O   0  0  0  0  0  0  0  0  0  0  0  0
    6.4946  -12.0243   26.8787 C   0  0  0  0  0  0  0  0  0  0  0  0
    7.5304  -13.0452   26.5300 C   0  0  2  0  0  0  0  0  0  0  0  0
    7.1310  -14.0317   25.5973 N   0  0  0  0  0  0  0  0  0  0  0  0
    8.0272  -13.6662   27.7640 C   0  0  0  0  0  0  0  0  0  0  0  0
    8.4982  -12.9480   28.8534 O   0  0  0  0  0  0  0  0  0  0  0  0
    8.0297  -14.9177   27.8474 O   0  0  0  0  0  0  0  0  0  0  0  0
  2  1  1  0
  3  4  1  6
  3  2  1  0
  5  3  1  0
  6  5  2  0
  7  8  1  0
  8 10  1  0
  8  9  2  0
 10 11  1  0
 12 11  1  1
 12 13  1  0
 12 14  1  0
 13  5  1  0
 14 19  1  0
 15 14  2  0
 16 17  1  0
 18 17  1  1
 18 20  1  0
 19 18  1  0
 20 22  2  0
 20 21  1  0
M  END
$$$$
