SQS.pdb
     RDKit          3D

 22 21  0  0  1  0  0  0  0  0999 V2000
    9.9490  -15.5954   18.6483 O   0  0  0  0  0  0  0  0  0  0  0  0
    9.0480  -15.4023   19.6924 C   0  0  0  0  0  0  0  0  0  0  0  0
    8.6037  -16.7323   20.2768 C   0  0  2  0  0  0  0  0  0  0  0  0
    7.6327  -17.3240   19.3760 N   0  0  0  0  0  0  0  0  0  0  0  0
    7.9438  -16.4924   21.5738 C   0  0  0  0  0  0  0  0  0  0  0  0
    6.7163  -16.1563   21.6372 O   0  0  0  0  0  0  0  0  0  0  0  0
    6.9592  -20.1714   27.2247 N   0  0  0  0  0  0  0  0  0  0  0  0
    7.3721  -18.8783   26.8575 C   0  0  0  0  0  0  0  0  0  0  0  0
    8.0557  -18.1886   27.6524 O   0  0  0  0  0  0  0  0  0  0  0  0
    7.0285  -18.2677   25.5325 C   0  0  0  0  0  0  0  0  0  0  0  0
    8.2306  -17.6292   24.9246 C   0  0  0  0  0  0  0  0  0  0  0  0
    7.8850  -16.4309   24.1034 C   0  0  2  0  0  0  0  0  0  0  0  0
    8.6022  -16.6124   22.8220 N   0  0  0  0  0  0  0  0  0  0  0  0
    8.2666  -15.1436   24.7120 C   0  0  0  0  0  0  0  0  0  0  0  0
    9.4094  -14.7024   24.6559 O   0  0  0  0  0  0  0  0  0  0  0  0
    5.2371  -12.8133   26.6689 O   0  0  0  0  0  0  0  0  0  0  0  0
    6.3546  -12.2029   26.1017 C   0  0  0  0  0  0  0  0  0  0  0  0
    7.5237  -13.1336   26.0390 C   0  0  2  0  0  0  0  0  0  0  0  0
    7.2900  -14.3708   25.3931 N   0  0  0  0  0  0  0  0  0  0  0  0
    8.0427  -13.3446   27.3960 C   0  0  0  0  0  0  0  0  0  0  0  0
    8.5099  -12.3236   28.2106 O   0  0  0  0  0  0  0  0  0  0  0  0
    8.0691  -14.5121   27.8538 O   0  0  0  0  0  0  0  0  0  0  0  0
  2  1  1  0
  3  4  1  6
  3  2  1  0
  5  3  1  0
  6  5  2  0
  7  8  1  0
  8 10  1  0
  8  9  2  0
 10 11  1  0
 12 11  1  1
 12 13  1  0
 12 14  1  0
 13  5  1  0
 14 19  1  0
 15 14  2  0
 16 17  1  0
 18 17  1  1
 18 20  1  0
 19 18  1  0
 20 22  2  0
 20 21  1  0
M  END
$$$$
