SQS.pdb
     RDKit          3D

 22 21  0  0  1  0  0  0  0  0999 V2000
   11.5945  -21.6145   19.0466 O   0  0  0  0  0  0  0  0  0  0  0  0
   10.3088  -21.1292   19.2717 C   0  0  0  0  0  0  0  0  0  0  0  0
   10.2698  -19.6166   19.1361 C   0  0  2  0  0  0  0  0  0  0  0  0
   10.7612  -19.2647   17.8173 N   0  0  0  0  0  0  0  0  0  0  0  0
   11.1714  -19.0195   20.1391 C   0  0  0  0  0  0  0  0  0  0  0  0
   12.3648  -18.6885   19.8392 O   0  0  0  0  0  0  0  0  0  0  0  0
   13.3806  -15.6086   22.1691 N   0  0  0  0  0  0  0  0  0  0  0  0
   13.1759  -15.7335   23.5547 C   0  0  0  0  0  0  0  0  0  0  0  0
   14.0050  -15.2421   24.3583 O   0  0  0  0  0  0  0  0  0  0  0  0
   11.9883  -16.4413   24.1339 C   0  0  0  0  0  0  0  0  0  0  0  0
   11.1572  -17.0391   23.0504 C   0  0  0  0  0  0  0  0  0  0  0  0
   11.7648  -18.2809   22.4860 C   0  0  2  0  0  0  0  0  0  0  0  0
   10.7952  -18.7715   21.4818 N   0  0  0  0  0  0  0  0  0  0  0  0
   12.0315  -19.3359   23.4805 C   0  0  0  0  0  0  0  0  0  0  0  0
   11.1364  -20.0027   23.9885 O   0  0  0  0  0  0  0  0  0  0  0  0
   15.5835  -21.3958   23.4159 O   0  0  0  0  0  0  0  0  0  0  0  0
   15.2104  -21.0184   24.7049 C   0  0  0  0  0  0  0  0  0  0  0  0
   13.7687  -20.6260   24.7731 C   0  0  2  0  0  0  0  0  0  0  0  0
   13.3670  -19.6055   23.8787 N   0  0  0  0  0  0  0  0  0  0  0  0
   13.4337  -20.2673   26.1567 C   0  0  0  0  0  0  0  0  0  0  0  0
   13.6063  -21.1193   27.2378 O   0  0  0  0  0  0  0  0  0  0  0  0
   12.9636  -19.1269   26.3841 O   0  0  0  0  0  0  0  0  0  0  0  0
  2  1  1  0
  3  4  1  6
  3  2  1  0
  5  3  1  0
  6  5  2  0
  7  8  1  0
  8 10  1  0
  8  9  2  0
 10 11  1  0
 12 11  1  1
 12 13  1  0
 12 14  1  0
 13  5  1  0
 14 19  1  0
 15 14  2  0
 16 17  1  0
 18 17  1  1
 18 20  1  0
 19 18  1  0
 20 22  2  0
 20 21  1  0
M  END
$$$$
