SQS.pdb
     RDKit          3D

 22 21  0  0  1  0  0  0  0  0999 V2000
   17.3144  -20.1229   15.1397 O   0  0  0  0  0  0  0  0  0  0  0  0
   16.7301  -19.4287   16.1960 C   0  0  0  0  0  0  0  0  0  0  0  0
   15.9686  -20.3741   17.1095 C   0  0  2  0  0  0  0  0  0  0  0  0
   14.5884  -20.4234   16.6654 N   0  0  0  0  0  0  0  0  0  0  0  0
   15.9924  -19.8396   18.4839 C   0  0  0  0  0  0  0  0  0  0  0  0
   15.5577  -18.6705   18.7446 O   0  0  0  0  0  0  0  0  0  0  0  0
   16.4562  -24.4198   20.6510 N   0  0  0  0  0  0  0  0  0  0  0  0
   16.1997  -23.4461   21.6325 C   0  0  0  0  0  0  0  0  0  0  0  0
   15.2243  -23.5811   22.4104 O   0  0  0  0  0  0  0  0  0  0  0  0
   17.0535  -22.2256   21.8004 C   0  0  0  0  0  0  0  0  0  0  0  0
   16.2043  -21.0047   21.9030 C   0  0  0  0  0  0  0  0  0  0  0  0
   16.6135  -19.9436   20.9353 C   0  0  2  0  0  0  0  0  0  0  0  0
   16.4870  -20.5621   19.5971 N   0  0  0  0  0  0  0  0  0  0  0  0
   17.9860  -19.4406   21.1259 C   0  0  0  0  0  0  0  0  0  0  0  0
   18.9707  -20.0415   20.7099 O   0  0  0  0  0  0  0  0  0  0  0  0
   19.1692  -15.8033   20.3757 O   0  0  0  0  0  0  0  0  0  0  0  0
   19.4445  -16.0933   21.7111 C   0  0  0  0  0  0  0  0  0  0  0  0
   19.4440  -17.5662   21.9709 C   0  0  2  0  0  0  0  0  0  0  0  0
   18.1974  -18.2172   21.8141 N   0  0  0  0  0  0  0  0  0  0  0  0
   19.9986  -17.8183   23.3066 C   0  0  0  0  0  0  0  0  0  0  0  0
   21.2859  -17.4671   23.6863 O   0  0  0  0  0  0  0  0  0  0  0  0
   19.2743  -18.3835   24.1605 O   0  0  0  0  0  0  0  0  0  0  0  0
  2  1  1  0
  3  4  1  6
  3  2  1  0
  5  3  1  0
  6  5  2  0
  7  8  1  0
  8 10  1  0
  8  9  2  0
 10 11  1  0
 12 11  1  1
 12 13  1  0
 12 14  1  0
 13  5  1  0
 14 19  1  0
 15 14  2  0
 16 17  1  0
 18 17  1  1
 18 20  1  0
 19 18  1  0
 20 22  2  0
 20 21  1  0
M  END
$$$$
