SQS.pdb
     RDKit          3D

 22 21  0  0  1  0  0  0  0  0999 V2000
   -1.4308  -28.1841   29.6077 O   0  0  0  0  0  0  0  0  0  0  0  0
   -2.2207  -27.0387   29.5521 C   0  0  0  0  0  0  0  0  0  0  0  0
   -2.1256  -26.3815   28.1858 C   0  0  2  0  0  0  0  0  0  0  0  0
   -0.8247  -25.7493   28.0739 N   0  0  0  0  0  0  0  0  0  0  0  0
   -3.1584  -25.3336   28.0821 C   0  0  0  0  0  0  0  0  0  0  0  0
   -3.0010  -24.1955   28.6334 O   0  0  0  0  0  0  0  0  0  0  0  0
   -7.6199  -25.1652   23.6974 N   0  0  0  0  0  0  0  0  0  0  0  0
   -7.8967  -24.0091   24.4484 C   0  0  0  0  0  0  0  0  0  0  0  0
   -8.7818  -23.2074   24.0629 O   0  0  0  0  0  0  0  0  0  0  0  0
   -7.1700  -23.6782   25.7169 C   0  0  0  0  0  0  0  0  0  0  0  0
   -6.1151  -24.6943   25.9945 C   0  0  0  0  0  0  0  0  0  0  0  0
   -5.3596  -24.4027   27.2490 C   0  0  2  0  0  0  0  0  0  0  0  0
   -4.3771  -25.5013   27.3805 N   0  0  0  0  0  0  0  0  0  0  0  0
   -6.1949  -24.3312   28.4615 C   0  0  0  0  0  0  0  0  0  0  0  0
   -6.7276  -25.3205   28.9528 O   0  0  0  0  0  0  0  0  0  0  0  0
   -5.6538  -21.1830   31.1465 O   0  0  0  0  0  0  0  0  0  0  0  0
   -6.3119  -22.3716   31.4585 C   0  0  0  0  0  0  0  0  0  0  0  0
   -7.1166  -22.8802   30.3049 C   0  0  2  0  0  0  0  0  0  0  0  0
   -6.4032  -23.0803   29.0993 N   0  0  0  0  0  0  0  0  0  0  0  0
   -8.2633  -21.9892   30.0896 C   0  0  0  0  0  0  0  0  0  0  0  0
   -9.2195  -21.7153   31.0566 O   0  0  0  0  0  0  0  0  0  0  0  0
   -8.3945  -21.4395   28.9699 O   0  0  0  0  0  0  0  0  0  0  0  0
  2  1  1  0
  3  4  1  1
  3  2  1  0
  5  3  1  0
  6  5  2  0
  7  8  1  0
  8 10  1  0
  8  9  2  0
 10 11  1  0
 12 11  1  6
 12 13  1  0
 12 14  1  0
 13  5  1  0
 14 19  1  0
 15 14  2  0
 16 17  1  0
 18 17  1  1
 18 20  1  0
 19 18  1  0
 20 22  2  0
 20 21  1  0
M  END
$$$$
