CVS.pdb
     RDKit          3D

 20 19  0  0  1  0  0  0  0  0999 V2000
    6.3502  -16.9188   21.7485 N   0  0  0  0  0  0  0  0  0  0  0  0
    6.1153  -16.8705   23.1691 C   0  0  1  0  0  0  0  0  0  0  0  0
    6.0726  -18.2913   23.7415 C   0  0  0  0  0  0  0  0  0  0  0  0
    4.6950  -19.2081   23.0251 S   0  0  0  0  0  0  0  0  0  0  0  0
    7.1570  -16.0667   23.8780 C   0  0  0  0  0  0  0  0  0  0  0  0
    8.3283  -15.9769   23.4619 O   0  0  0  0  0  0  0  0  0  0  0  0
    6.3715  -12.5379   25.8758 C   0  0  0  0  0  0  0  0  0  0  0  0
    7.0711  -13.5770   26.7256 C   0  0  2  0  0  0  0  0  0  0  0  0
    8.2138  -12.8790   27.4532 C   0  0  0  0  0  0  0  0  0  0  0  0
    7.6753  -14.6910   25.9379 C   0  0  2  0  0  0  0  0  0  0  0  0
    6.7788  -15.3866   25.0693 N   0  0  0  0  0  0  0  0  0  0  0  0
    8.5050  -15.6311   26.7577 C   0  0  0  0  0  0  0  0  0  0  0  0
    8.0037  -16.4163   27.5875 O   0  0  0  0  0  0  0  0  0  0  0  0
   12.7162  -15.6065   26.3474 O   0  0  0  0  0  0  0  0  0  0  0  0
   12.0879  -16.8162   26.6459 C   0  0  0  0  0  0  0  0  0  0  0  0
   10.7769  -16.5668   27.3491 C   0  0  2  0  0  0  0  0  0  0  0  0
    9.9208  -15.6630   26.6173 N   0  0  0  0  0  0  0  0  0  0  0  0
   11.0871  -16.0572   28.7062 C   0  0  0  0  0  0  0  0  0  0  0  0
   11.8212  -16.7874   29.6247 O   0  0  0  0  0  0  0  0  0  0  0  0
   10.6674  -14.9256   29.0267 O   0  0  0  0  0  0  0  0  0  0  0  0
  2  1  1  6
  2  3  1  0
  3  4  1  0
  5  2  1  0
  6  5  2  0
  8  7  1  6
  8 10  1  0
  9  8  1  0
 10 11  1  1
 10 12  1  0
 11  5  1  0
 12 13  2  0
 15 14  1  0
 16 15  1  6
 17 12  1  0
 17 16  1  0
 18 19  1  0
 18 16  1  0
 20 18  2  0
M  END
$$$$
