CVS.pdb
     RDKit          3D

 20 19  0  0  1  0  0  0  0  0999 V2000
    9.3024  -17.0970   15.8358 N   0  0  0  0  0  0  0  0  0  0  0  0
    8.3148  -16.9927   16.8796 C   0  0  1  0  0  0  0  0  0  0  0  0
    7.7373  -18.3767   17.1943 C   0  0  0  0  0  0  0  0  0  0  0  0
    6.9813  -19.0843   15.7181 S   0  0  0  0  0  0  0  0  0  0  0  0
    8.8803  -16.3823   18.1211 C   0  0  0  0  0  0  0  0  0  0  0  0
   10.0887  -16.4645   18.4144 O   0  0  0  0  0  0  0  0  0  0  0  0
    7.2060  -12.8588   19.6498 C   0  0  0  0  0  0  0  0  0  0  0  0
    7.4375  -13.9584   20.6639 C   0  0  2  0  0  0  0  0  0  0  0  0
    8.0749  -13.3209   21.8926 C   0  0  0  0  0  0  0  0  0  0  0  0
    8.3717  -15.0232   20.1944 C   0  0  2  0  0  0  0  0  0  0  0  0
    7.9912  -15.6861   18.9870 N   0  0  0  0  0  0  0  0  0  0  0  0
    8.7717  -15.9921   21.2646 C   0  0  0  0  0  0  0  0  0  0  0  0
    7.9815  -16.8368   21.7320 O   0  0  0  0  0  0  0  0  0  0  0  0
   12.8344  -16.2688   22.4642 O   0  0  0  0  0  0  0  0  0  0  0  0
   11.9846  -17.3747   22.5101 C   0  0  0  0  0  0  0  0  0  0  0  0
   10.5658  -16.9354   22.7738 C   0  0  2  0  0  0  0  0  0  0  0  0
   10.0915  -15.9839   21.7967 N   0  0  0  0  0  0  0  0  0  0  0  0
   10.5163  -16.3860   24.1498 C   0  0  0  0  0  0  0  0  0  0  0  0
   10.1072  -15.0915   24.4193 O   0  0  0  0  0  0  0  0  0  0  0  0
   10.8579  -17.1242   25.0974 O   0  0  0  0  0  0  0  0  0  0  0  0
  2  1  1  6
  2  3  1  0
  3  4  1  0
  5  2  1  0
  6  5  2  0
  8  7  1  6
  8 10  1  0
  9  8  1  0
 10 11  1  6
 10 12  1  0
 11  5  1  0
 12 13  2  0
 15 14  1  0
 16 15  1  6
 17 12  1  0
 17 16  1  0
 18 19  1  0
 18 16  1  0
 20 18  2  0
M  END
$$$$
