CVS.pdb
     RDKit          3D

 20 19  0  0  1  0  0  0  0  0999 V2000
    9.7554  -17.4196   16.2976 N   0  0  0  0  0  0  0  0  0  0  0  0
    8.7446  -17.3655   17.3228 C   0  0  1  0  0  0  0  0  0  0  0  0
    8.2938  -18.7835   17.6891 C   0  0  0  0  0  0  0  0  0  0  0  0
    6.8796  -19.2656   16.6795 S   0  0  0  0  0  0  0  0  0  0  0  0
    9.2289  -16.6534   18.5443 C   0  0  0  0  0  0  0  0  0  0  0  0
   10.4173  -16.7000   18.9167 O   0  0  0  0  0  0  0  0  0  0  0  0
    7.4373  -13.0236   19.7294 C   0  0  0  0  0  0  0  0  0  0  0  0
    7.6022  -14.0708   20.8099 C   0  0  2  0  0  0  0  0  0  0  0  0
    8.1298  -13.3657   22.0536 C   0  0  0  0  0  0  0  0  0  0  0  0
    8.5861  -15.1392   20.4674 C   0  0  2  0  0  0  0  0  0  0  0  0
    8.2843  -15.9002   19.2961 N   0  0  0  0  0  0  0  0  0  0  0  0
    8.9566  -16.0143   21.6254 C   0  0  0  0  0  0  0  0  0  0  0  0
    8.1576  -16.8274   22.1322 O   0  0  0  0  0  0  0  0  0  0  0  0
   12.9949  -16.4113   22.7239 O   0  0  0  0  0  0  0  0  0  0  0  0
   12.0628  -17.4179   22.9791 C   0  0  0  0  0  0  0  0  0  0  0  0
   10.7075  -16.8186   23.2607 C   0  0  2  0  0  0  0  0  0  0  0  0
   10.2569  -15.9487   22.1998 N   0  0  0  0  0  0  0  0  0  0  0  0
   10.7936  -16.1082   24.5590 C   0  0  0  0  0  0  0  0  0  0  0  0
   10.4759  -14.7681   24.6958 O   0  0  0  0  0  0  0  0  0  0  0  0
   11.1678  -16.7489   25.5636 O   0  0  0  0  0  0  0  0  0  0  0  0
  2  1  1  6
  2  3  1  0
  3  4  1  0
  5  2  1  0
  6  5  2  0
  8  7  1  6
  8 10  1  0
  9  8  1  0
 10 11  1  6
 10 12  1  0
 11  5  1  0
 12 13  2  0
 15 14  1  0
 16 15  1  6
 17 12  1  0
 17 16  1  0
 18 19  1  0
 18 16  1  0
 20 18  2  0
M  END
$$$$
