CVS.pdb
     RDKit          3D

 20 19  0  0  1  0  0  0  0  0999 V2000
    6.5791  -16.8585   21.5967 N   0  0  0  0  0  0  0  0  0  0  0  0
    6.4237  -17.0516   23.0159 C   0  0  1  0  0  0  0  0  0  0  0  0
    6.6486  -18.5249   23.3717 C   0  0  0  0  0  0  0  0  0  0  0  0
    5.8837  -18.9037   24.9601 S   0  0  0  0  0  0  0  0  0  0  0  0
    7.3594  -16.1894   23.8001 C   0  0  0  0  0  0  0  0  0  0  0  0
    8.5451  -16.0108   23.4607 O   0  0  0  0  0  0  0  0  0  0  0  0
    6.3766  -12.6315   25.5341 C   0  0  0  0  0  0  0  0  0  0  0  0
    6.9297  -13.6352   26.5229 C   0  0  2  0  0  0  0  0  0  0  0  0
    7.9512  -12.9085   27.3895 C   0  0  0  0  0  0  0  0  0  0  0  0
    7.6407  -14.7808   25.8836 C   0  0  2  0  0  0  0  0  0  0  0  0
    6.8600  -15.5583   24.9736 N   0  0  0  0  0  0  0  0  0  0  0  0
    8.3961  -15.6399   26.8509 C   0  0  0  0  0  0  0  0  0  0  0  0
    7.8283  -16.3012   27.7434 O   0  0  0  0  0  0  0  0  0  0  0  0
   12.6217  -15.9069   26.5788 O   0  0  0  0  0  0  0  0  0  0  0  0
   11.8899  -17.0354   26.9509 C   0  0  0  0  0  0  0  0  0  0  0  0
   10.5953  -16.6274   27.6090 C   0  0  2  0  0  0  0  0  0  0  0  0
    9.8145  -15.7343   26.7857 N   0  0  0  0  0  0  0  0  0  0  0  0
   10.9315  -16.0199   28.9188 C   0  0  0  0  0  0  0  0  0  0  0  0
   11.6173  -16.7089   29.9040 O   0  0  0  0  0  0  0  0  0  0  0  0
   10.5798  -14.8413   29.1352 O   0  0  0  0  0  0  0  0  0  0  0  0
  2  1  1  6
  2  3  1  0
  3  4  1  0
  5  2  1  0
  6  5  2  0
  8  7  1  6
  8 10  1  0
  9  8  1  0
 10 11  1  1
 10 12  1  0
 11  5  1  0
 12 13  2  0
 15 14  1  0
 16 15  1  6
 17 12  1  0
 17 16  1  0
 18 19  1  0
 18 16  1  0
 20 18  2  0
M  END
$$$$
