CVS.pdb
     RDKit          3D

 20 19  0  0  1  0  0  0  0  0999 V2000
    5.8802  -15.5737   21.8429 N   0  0  0  0  0  0  0  0  0  0  0  0
    7.2598  -15.2527   21.5799 C   0  0  1  0  0  0  0  0  0  0  0  0
    7.3478  -14.1427   20.5272 C   0  0  0  0  0  0  0  0  0  0  0  0
    9.0303  -14.0237   19.8896 S   0  0  0  0  0  0  0  0  0  0  0  0
    7.9801  -14.8357   22.8214 C   0  0  0  0  0  0  0  0  0  0  0  0
    9.2169  -14.6871   22.8572 O   0  0  0  0  0  0  0  0  0  0  0  0
    6.6040  -12.0683   25.4311 C   0  0  0  0  0  0  0  0  0  0  0  0
    6.9323  -13.3756   26.1198 C   0  0  2  0  0  0  0  0  0  0  0  0
    7.7638  -13.0466   27.3537 C   0  0  0  0  0  0  0  0  0  0  0  0
    7.7456  -14.3078   25.2853 C   0  0  2  0  0  0  0  0  0  0  0  0
    7.2088  -14.6049   23.9947 N   0  0  0  0  0  0  0  0  0  0  0  0
    8.1821  -15.5442   26.0098 C   0  0  0  0  0  0  0  0  0  0  0  0
    7.3702  -16.3753   26.4642 O   0  0  0  0  0  0  0  0  0  0  0  0
   12.1934  -16.8003   25.8535 O   0  0  0  0  0  0  0  0  0  0  0  0
   11.1522  -17.6902   26.1208 C   0  0  0  0  0  0  0  0  0  0  0  0
   10.0540  -16.9971   26.8883 C   0  0  2  0  0  0  0  0  0  0  0  0
    9.5637  -15.8205   26.2098 N   0  0  0  0  0  0  0  0  0  0  0  0
   10.5828  -16.6780   28.2359 C   0  0  0  0  0  0  0  0  0  0  0  0
   11.0278  -17.6542   29.1104 O   0  0  0  0  0  0  0  0  0  0  0  0
   10.6257  -15.4811   28.5897 O   0  0  0  0  0  0  0  0  0  0  0  0
  2  1  1  1
  2  3  1  0
  3  4  1  0
  5  2  1  0
  6  5  2  0
  8  7  1  6
  8 10  1  0
  9  8  1  0
 10 11  1  6
 10 12  1  0
 11  5  1  0
 12 13  2  0
 15 14  1  0
 16 15  1  6
 17 12  1  0
 17 16  1  0
 18 19  1  0
 18 16  1  0
 20 18  2  0
M  END
$$$$
