CVS.pdb
     RDKit          3D

 20 19  0  0  1  0  0  0  0  0999 V2000
    6.4552  -17.5550   20.9010 N   0  0  0  0  0  0  0  0  0  0  0  0
    6.1297  -17.3441   22.2885 C   0  0  1  0  0  0  0  0  0  0  0  0
    5.6534  -18.6565   22.9200 C   0  0  0  0  0  0  0  0  0  0  0  0
    3.9035  -18.9148   22.5698 S   0  0  0  0  0  0  0  0  0  0  0  0
    7.2917  -16.8017   23.0561 C   0  0  0  0  0  0  0  0  0  0  0  0
    8.4672  -17.1361   22.8123 O   0  0  0  0  0  0  0  0  0  0  0  0
    6.4622  -13.8845   26.3518 C   0  0  0  0  0  0  0  0  0  0  0  0
    7.7268  -13.9790   25.5253 C   0  0  2  0  0  0  0  0  0  0  0  0
    7.5509  -13.0705   24.3145 C   0  0  0  0  0  0  0  0  0  0  0  0
    8.0030  -15.3491   25.0025 C   0  0  2  0  0  0  0  0  0  0  0  0
    7.0264  -15.8709   24.0992 N   0  0  0  0  0  0  0  0  0  0  0  0
    8.3708  -16.3392   26.0648 C   0  0  0  0  0  0  0  0  0  0  0  0
    7.5147  -16.9418   26.7432 O   0  0  0  0  0  0  0  0  0  0  0  0
   11.4746  -18.6937   25.5036 O   0  0  0  0  0  0  0  0  0  0  0  0
   10.5119  -18.9586   26.4785 C   0  0  0  0  0  0  0  0  0  0  0  0
   10.1599  -17.6958   27.2248 C   0  0  2  0  0  0  0  0  0  0  0  0
    9.7349  -16.6337   26.3437 N   0  0  0  0  0  0  0  0  0  0  0  0
   11.3431  -17.3069   28.0288 C   0  0  0  0  0  0  0  0  0  0  0  0
   11.9658  -16.0787   27.8893 O   0  0  0  0  0  0  0  0  0  0  0  0
   11.7901  -18.1229   28.8618 O   0  0  0  0  0  0  0  0  0  0  0  0
  2  1  1  6
  2  3  1  0
  3  4  1  0
  5  2  1  0
  6  5  2  0
  8  7  1  6
  8 10  1  0
  9  8  1  0
 10 11  1  1
 10 12  1  0
 11  5  1  0
 12 13  2  0
 15 14  1  0
 16 15  1  6
 17 12  1  0
 17 16  1  0
 18 19  1  0
 18 16  1  0
 20 18  2  0
M  END
$$$$
