CVS.pdb
     RDKit          3D

 20 19  0  0  1  0  0  0  0  0999 V2000
    8.1776  -17.8358   16.4380 N   0  0  0  0  0  0  0  0  0  0  0  0
    7.3812  -17.3727   17.5457 C   0  0  1  0  0  0  0  0  0  0  0  0
    6.7325  -18.5639   18.2586 C   0  0  0  0  0  0  0  0  0  0  0  0
    8.0035  -19.6672   18.9058 S   0  0  0  0  0  0  0  0  0  0  0  0
    8.1903  -16.5763   18.5177 C   0  0  0  0  0  0  0  0  0  0  0  0
    9.4364  -16.5976   18.5240 O   0  0  0  0  0  0  0  0  0  0  0  0
    7.3290  -12.7438   19.6462 C   0  0  0  0  0  0  0  0  0  0  0  0
    7.4230  -13.7033   20.8131 C   0  0  2  0  0  0  0  0  0  0  0  0
    8.2479  -13.0234   21.8992 C   0  0  0  0  0  0  0  0  0  0  0  0
    8.1124  -14.9853   20.4841 C   0  0  2  0  0  0  0  0  0  0  0  0
    7.4950  -15.7706   19.4623 N   0  0  0  0  0  0  0  0  0  0  0  0
    8.4680  -15.8066   21.6854 C   0  0  0  0  0  0  0  0  0  0  0  0
    7.6047  -16.3438   22.4082 O   0  0  0  0  0  0  0  0  0  0  0  0
   11.9331  -17.8317   21.9156 O   0  0  0  0  0  0  0  0  0  0  0  0
   10.9169  -18.0603   22.8443 C   0  0  0  0  0  0  0  0  0  0  0  0
   10.2407  -16.7630   23.2117 C   0  0  2  0  0  0  0  0  0  0  0  0
    9.8282  -16.0073   22.0524 N   0  0  0  0  0  0  0  0  0  0  0  0
   11.1784  -15.9962   24.0664 C   0  0  0  0  0  0  0  0  0  0  0  0
   11.5897  -16.4466   25.3088 O   0  0  0  0  0  0  0  0  0  0  0  0
   11.6099  -14.9032   23.6436 O   0  0  0  0  0  0  0  0  0  0  0  0
  2  1  1  6
  2  3  1  0
  3  4  1  0
  5  2  1  0
  6  5  2  0
  8  7  1  6
  8 10  1  0
  9  8  1  0
 10 11  1  6
 10 12  1  0
 11  5  1  0
 12 13  2  0
 15 14  1  0
 16 15  1  6
 17 12  1  0
 17 16  1  0
 18 19  1  0
 18 16  1  0
 20 18  2  0
M  END
$$$$
