CVS.pdb
     RDKit          3D

 20 19  0  0  1  0  0  0  0  0999 V2000
    8.0481  -14.5808   20.4849 N   0  0  0  0  0  0  0  0  0  0  0  0
    7.2803  -15.0026   21.6286 C   0  0  1  0  0  0  0  0  0  0  0  0
    6.9871  -16.5039   21.5377 C   0  0  0  0  0  0  0  0  0  0  0  0
    5.5029  -16.7882   20.5540 S   0  0  0  0  0  0  0  0  0  0  0  0
    7.9816  -14.6972   22.9125 C   0  0  0  0  0  0  0  0  0  0  0  0
    9.2150  -14.8176   23.0442 O   0  0  0  0  0  0  0  0  0  0  0  0
    6.5929  -11.8040   25.5831 C   0  0  0  0  0  0  0  0  0  0  0  0
    6.8586  -13.1596   26.2020 C   0  0  2  0  0  0  0  0  0  0  0  0
    7.6479  -12.9299   27.4852 C   0  0  0  0  0  0  0  0  0  0  0  0
    7.6803  -14.0623   25.3437 C   0  0  2  0  0  0  0  0  0  0  0  0
    7.1958  -14.2543   24.0131 N   0  0  0  0  0  0  0  0  0  0  0  0
    8.0423  -15.3585   26.0017 C   0  0  0  0  0  0  0  0  0  0  0  0
    7.2076  -16.2642   26.2004 O   0  0  0  0  0  0  0  0  0  0  0  0
   11.9291  -16.7215   26.0341 O   0  0  0  0  0  0  0  0  0  0  0  0
   10.8519  -17.5658   26.3058 C   0  0  0  0  0  0  0  0  0  0  0  0
    9.7905  -16.8283   27.0835 C   0  0  2  0  0  0  0  0  0  0  0  0
    9.3756  -15.6083   26.4318 N   0  0  0  0  0  0  0  0  0  0  0  0
   10.3267  -16.5744   28.4421 C   0  0  0  0  0  0  0  0  0  0  0  0
   10.7487  -17.5942   29.2774 O   0  0  0  0  0  0  0  0  0  0  0  0
   10.3978  -15.3936   28.8421 O   0  0  0  0  0  0  0  0  0  0  0  0
  2  1  1  6
  2  3  1  0
  3  4  1  0
  5  2  1  0
  6  5  2  0
  8  7  1  6
  8 10  1  0
  9  8  1  0
 10 11  1  6
 10 12  1  0
 11  5  1  0
 12 13  2  0
 15 14  1  0
 16 15  1  6
 17 12  1  0
 17 16  1  0
 18 19  1  0
 18 16  1  0
 20 18  2  0
M  END
$$$$
