CVS.pdb
     RDKit          3D

 20 19  0  0  1  0  0  0  0  0999 V2000
    7.9507  -14.4889   20.3848 N   0  0  0  0  0  0  0  0  0  0  0  0
    7.2567  -15.0607   21.5104 C   0  0  1  0  0  0  0  0  0  0  0  0
    7.1335  -16.5779   21.3341 C   0  0  0  0  0  0  0  0  0  0  0  0
    5.4127  -17.0860   21.5134 S   0  0  0  0  0  0  0  0  0  0  0  0
    7.9426  -14.7519   22.8018 C   0  0  0  0  0  0  0  0  0  0  0  0
    9.1831  -14.7693   22.9194 O   0  0  0  0  0  0  0  0  0  0  0  0
    6.6708  -11.9417   25.4658 C   0  0  0  0  0  0  0  0  0  0  0  0
    6.8490  -13.3014   26.1066 C   0  0  2  0  0  0  0  0  0  0  0  0
    7.6513  -13.1023   27.3868 C   0  0  0  0  0  0  0  0  0  0  0  0
    7.6111  -14.2687   25.2638 C   0  0  2  0  0  0  0  0  0  0  0  0
    7.1331  -14.4287   23.9266 N   0  0  0  0  0  0  0  0  0  0  0  0
    7.8622  -15.5860   25.9315 C   0  0  0  0  0  0  0  0  0  0  0  0
    6.9556  -16.4201   26.1282 O   0  0  0  0  0  0  0  0  0  0  0  0
   11.4731  -17.4334   25.7213 O   0  0  0  0  0  0  0  0  0  0  0  0
   10.3173  -18.0963   26.1358 C   0  0  0  0  0  0  0  0  0  0  0  0
    9.4823  -17.1964   27.0124 C   0  0  2  0  0  0  0  0  0  0  0  0
    9.1676  -15.9402   26.3736 N   0  0  0  0  0  0  0  0  0  0  0  0
   10.2197  -17.0007   28.2835 C   0  0  0  0  0  0  0  0  0  0  0  0
   10.5912  -15.7489   28.7425 O   0  0  0  0  0  0  0  0  0  0  0  0
   10.5140  -18.0075   28.9612 O   0  0  0  0  0  0  0  0  0  0  0  0
  2  1  1  6
  2  3  1  0
  3  4  1  0
  5  2  1  0
  6  5  2  0
  8  7  1  6
  8 10  1  0
  9  8  1  0
 10 11  1  6
 10 12  1  0
 11  5  1  0
 12 13  2  0
 15 14  1  0
 16 15  1  6
 17 12  1  0
 17 16  1  0
 18 19  1  0
 18 16  1  0
 20 18  2  0
M  END
$$$$
