CVS.pdb
     RDKit          3D

 20 19  0  0  1  0  0  0  0  0999 V2000
    8.1841  -14.3929   20.3080 N   0  0  0  0  0  0  0  0  0  0  0  0
    7.2038  -14.3291   21.3618 C   0  0  1  0  0  0  0  0  0  0  0  0
    6.2463  -15.5211   21.2592 C   0  0  0  0  0  0  0  0  0  0  0  0
    7.1249  -17.0555   21.6129 S   0  0  0  0  0  0  0  0  0  0  0  0
    7.8413  -14.3026   22.7134 C   0  0  0  0  0  0  0  0  0  0  0  0
    9.0342  -14.6142   22.8948 O   0  0  0  0  0  0  0  0  0  0  0  0
    6.6332  -11.5173   25.5711 C   0  0  0  0  0  0  0  0  0  0  0  0
    6.7115  -12.9433   26.0726 C   0  0  2  0  0  0  0  0  0  0  0  0
    7.4372  -12.9180   27.4124 C   0  0  0  0  0  0  0  0  0  0  0  0
    7.4844  -13.8542   25.1784 C   0  0  2  0  0  0  0  0  0  0  0  0
    7.0412  -13.9046   23.8208 N   0  0  0  0  0  0  0  0  0  0  0  0
    7.7010  -15.2221   25.7493 C   0  0  0  0  0  0  0  0  0  0  0  0
    6.7953  -16.0788   25.7961 O   0  0  0  0  0  0  0  0  0  0  0  0
   10.5451  -18.8958   25.9080 O   0  0  0  0  0  0  0  0  0  0  0  0
   10.2359  -17.5810   25.5575 C   0  0  0  0  0  0  0  0  0  0  0  0
    9.3290  -16.9618   26.5916 C   0  0  2  0  0  0  0  0  0  0  0  0
    8.9707  -15.6009   26.2684 N   0  0  0  0  0  0  0  0  0  0  0  0
   10.0152  -17.0564   27.9023 C   0  0  0  0  0  0  0  0  0  0  0  0
   10.3975  -15.9388   28.6238 O   0  0  0  0  0  0  0  0  0  0  0  0
   10.2545  -18.1903   28.3676 O   0  0  0  0  0  0  0  0  0  0  0  0
  2  1  1  6
  2  3  1  0
  3  4  1  0
  5  2  1  0
  6  5  2  0
  8  7  1  6
  8 10  1  0
  9  8  1  0
 10 11  1  6
 10 12  1  0
 11  5  1  0
 12 13  2  0
 15 14  1  0
 16 15  1  6
 17 12  1  0
 17 16  1  0
 18 19  1  0
 18 16  1  0
 20 18  2  0
M  END
$$$$
