YSP.pdb
     RDKit          3D

 26 27  0  0  1  0  0  0  0  0999 V2000
   19.1948  -24.8309   -9.6198 O   0  0  0  0  0  0  0  0  0  0  0  0
   18.3820  -24.4714   -8.5506 C   0  0  0  0  0  0  0  0  0  0  0  0
   18.7129  -24.8955   -7.2774 C   0  0  0  0  0  0  0  0  0  0  0  0
   17.9017  -24.5355   -6.2175 C   0  0  0  0  0  0  0  0  0  0  0  0
   16.7722  -23.7669   -6.3885 C   0  0  0  0  0  0  0  0  0  0  0  0
   15.9107  -23.3959   -5.2502 C   0  0  0  0  0  0  0  0  0  0  0  0
   15.0180  -24.5204   -4.8144 C   0  0  2  0  0  0  0  0  0  0  0  0
   14.0075  -24.7770   -5.8410 N   0  0  0  0  0  0  0  0  0  0  0  0
   14.3374  -24.1437   -3.5563 C   0  0  0  0  0  0  0  0  0  0  0  0
   13.1167  -23.9395   -3.4711 O   0  0  0  0  0  0  0  0  0  0  0  0
   16.4356  -23.3385   -7.6643 C   0  0  0  0  0  0  0  0  0  0  0  0
   17.2485  -23.7016   -8.7105 C   0  0  0  0  0  0  0  0  0  0  0  0
   14.0747  -25.7666    0.0167 O   0  0  0  0  0  0  0  0  0  0  0  0
   13.4585  -24.8662   -0.8873 C   0  0  0  0  0  0  0  0  0  0  0  0
   14.4399  -23.7308   -1.0560 C   0  0  2  0  0  0  0  0  0  0  0  0
   15.0942  -23.9969   -2.3491 N   0  0  0  0  0  0  0  0  0  0  0  0
   15.4251  -23.5999    0.0147 C   0  0  0  0  0  0  0  0  0  0  0  0
   16.3918  -24.4439   -0.0242 O   0  0  0  0  0  0  0  0  0  0  0  0
   15.4452  -22.6718    1.0714 N   0  0  0  0  0  0  0  0  0  0  0  0
   14.2915  -21.8350    1.4513 C   0  0  0  0  0  0  0  0  0  0  0  0
   14.9189  -20.5575    1.9216 C   0  0  0  0  0  0  0  0  0  0  0  0
   16.4083  -20.7795    1.9436 C   0  0  0  0  0  0  0  0  0  0  0  0
   16.4692  -22.2973    2.0235 C   0  0  1  0  0  0  0  0  0  0  0  0
   16.1501  -22.7609    3.4174 C   0  0  0  0  0  0  0  0  0  0  0  0
   17.0573  -22.6318    4.2770 O   0  0  0  0  0  0  0  0  0  0  0  0
   14.9533  -23.3065    3.8025 O   0  0  0  0  0  0  0  0  0  0  0  0
  2  3  2  0
  2  1  1  0
  4  3  1  0
  5  4  2  0
  6  5  1  0
  7  6  1  0
  7  9  1  0
  7  8  1  6
  9 16  1  0
  9 10  2  0
 11  5  1  0
 11 12  2  0
 12  2  1  0
 14 13  1  0
 15 14  1  1
 16 15  1  0
 17 15  1  0
 17 18  2  0
 19 17  1  0
 20 19  1  0
 21 20  1  0
 21 22  1  0
 22 23  1  0
 23 19  1  0
 23 24  1  1
 25 24  2  0
 26 24  1  0
M  END
$$$$
