YSP.pdb
     RDKit          3D

 26 27  0  0  1  0  0  0  0  0999 V2000
   18.0333  -12.2893  -16.1371 O   0  0  0  0  0  0  0  0  0  0  0  0
   18.8238  -13.4167  -15.9446 C   0  0  0  0  0  0  0  0  0  0  0  0
   20.1737  -13.2606  -15.6917 C   0  0  0  0  0  0  0  0  0  0  0  0
   20.9556  -14.3846  -15.5009 C   0  0  0  0  0  0  0  0  0  0  0  0
   20.4332  -15.6573  -15.5549 C   0  0  0  0  0  0  0  0  0  0  0  0
   21.2798  -16.8488  -15.3571 C   0  0  0  0  0  0  0  0  0  0  0  0
   22.1089  -17.1720  -16.5652 C   0  0  2  0  0  0  0  0  0  0  0  0
   21.2548  -17.7173  -17.6207 N   0  0  0  0  0  0  0  0  0  0  0  0
   23.1264  -18.1826  -16.2029 C   0  0  0  0  0  0  0  0  0  0  0  0
   22.9198  -19.4055  -16.2324 O   0  0  0  0  0  0  0  0  0  0  0  0
   19.0790  -15.8196  -15.8084 C   0  0  0  0  0  0  0  0  0  0  0  0
   18.3109  -14.6962  -15.9963 C   0  0  0  0  0  0  0  0  0  0  0  0
   26.6877  -17.0961  -14.2487 O   0  0  0  0  0  0  0  0  0  0  0  0
   26.7454  -17.9687  -15.3635 C   0  0  0  0  0  0  0  0  0  0  0  0
   25.4459  -18.7378  -15.3402 C   0  0  2  0  0  0  0  0  0  0  0  0
   24.4334  -17.7666  -15.7903 N   0  0  0  0  0  0  0  0  0  0  0  0
   25.0875  -19.3084  -14.0439 C   0  0  0  0  0  0  0  0  0  0  0  0
   24.2915  -18.5952  -13.3326 O   0  0  0  0  0  0  0  0  0  0  0  0
   25.5021  -20.5311  -13.4858 N   0  0  0  0  0  0  0  0  0  0  0  0
   26.5042  -21.4187  -14.1051 C   0  0  0  0  0  0  0  0  0  0  0  0
   26.0378  -22.7942  -13.7345 C   0  0  0  0  0  0  0  0  0  0  0  0
   24.8823  -22.6267  -12.7833 C   0  0  0  0  0  0  0  0  0  0  0  0
   25.1411  -21.2201  -12.2650 C   0  0  1  0  0  0  0  0  0  0  0  0
   26.2609  -21.2300  -11.2622 C   0  0  0  0  0  0  0  0  0  0  0  0
   27.3967  -20.8930  -11.6808 O   0  0  0  0  0  0  0  0  0  0  0  0
   26.1236  -21.5780   -9.9437 O   0  0  0  0  0  0  0  0  0  0  0  0
  2  3  2  0
  2  1  1  0
  4  3  1  0
  5  4  2  0
  6  5  1  0
  7  6  1  0
  7  9  1  0
  7  8  1  6
  9 16  1  0
  9 10  2  0
 11  5  1  0
 11 12  2  0
 12  2  1  0
 14 13  1  0
 15 14  1  1
 16 15  1  0
 17 15  1  0
 17 18  2  0
 19 17  1  0
 20 19  1  0
 21 20  1  0
 21 22  1  0
 22 23  1  0
 23 19  1  0
 23 24  1  1
 25 24  2  0
 26 24  1  0
M  END
$$$$
