YSP.pdb
     RDKit          3D

 26 27  0  0  1  0  0  0  0  0999 V2000
    9.5455  -11.4687  -10.7244 O   0  0  0  0  0  0  0  0  0  0  0  0
   10.9102  -11.4161  -10.9847 C   0  0  0  0  0  0  0  0  0  0  0  0
   11.6827  -12.5425  -10.7729 C   0  0  0  0  0  0  0  0  0  0  0  0
   13.0392  -12.4852  -11.0331 C   0  0  0  0  0  0  0  0  0  0  0  0
   13.6477  -11.3407  -11.4971 C   0  0  0  0  0  0  0  0  0  0  0  0
   15.0975  -11.2904  -11.7638 C   0  0  0  0  0  0  0  0  0  0  0  0
   15.4234  -11.5045  -13.2127 C   0  0  2  0  0  0  0  0  0  0  0  0
   15.1662  -12.8980  -13.5775 N   0  0  0  0  0  0  0  0  0  0  0  0
   16.8540  -11.2062  -13.4405 C   0  0  0  0  0  0  0  0  0  0  0  0
   17.7476  -12.0662  -13.4101 O   0  0  0  0  0  0  0  0  0  0  0  0
   12.8770  -10.2073  -11.7115 C   0  0  0  0  0  0  0  0  0  0  0  0
   11.5300  -10.2749  -11.4499 C   0  0  0  0  0  0  0  0  0  0  0  0
   17.9508   -9.8230  -16.3401 O   0  0  0  0  0  0  0  0  0  0  0  0
   18.8533  -10.3641  -15.3912 C   0  0  0  0  0  0  0  0  0  0  0  0
   18.6487   -9.5534  -14.1335 C   0  0  2  0  0  0  0  0  0  0  0  0
   17.2707   -9.8634  -13.7140 N   0  0  0  0  0  0  0  0  0  0  0  0
   18.8403   -8.1134  -14.2872 C   0  0  0  0  0  0  0  0  0  0  0  0
   17.7702   -7.4386  -14.5061 O   0  0  0  0  0  0  0  0  0  0  0  0
   20.0405   -7.3826  -14.2243 N   0  0  0  0  0  0  0  0  0  0  0  0
   21.3763   -8.0029  -14.1444 C   0  0  0  0  0  0  0  0  0  0  0  0
   22.1621   -7.0463  -13.2992 C   0  0  0  0  0  0  0  0  0  0  0  0
   21.2889   -5.8411  -13.0691 C   0  0  0  0  0  0  0  0  0  0  0  0
   20.3216   -5.9627  -14.2369 C   0  0  1  0  0  0  0  0  0  0  0  0
   20.9839   -5.5228  -15.5126 C   0  0  0  0  0  0  0  0  0  0  0  0
   21.4171   -6.4304  -16.2660 O   0  0  0  0  0  0  0  0  0  0  0  0
   21.1429   -4.2174  -15.8985 O   0  0  0  0  0  0  0  0  0  0  0  0
  2  3  2  0
  2  1  1  0
  4  3  1  0
  5  4  2  0
  6  5  1  0
  7  6  1  0
  7  9  1  0
  7  8  1  1
  9 16  1  0
  9 10  2  0
 11  5  1  0
 11 12  2  0
 12  2  1  0
 14 13  1  0
 15 14  1  6
 16 15  1  0
 17 15  1  0
 17 18  2  0
 19 17  1  0
 20 19  1  0
 21 20  1  0
 21 22  1  0
 22 23  1  0
 23 19  1  0
 23 24  1  6
 25 24  2  0
 26 24  1  0
M  END
$$$$
