YSP.pdb
     RDKit          3D

 26 27  0  0  1  0  0  0  0  0999 V2000
   28.3463  -20.0228   -3.3144 O   0  0  0  0  0  0  0  0  0  0  0  0
   28.2205  -19.9308   -4.6959 C   0  0  0  0  0  0  0  0  0  0  0  0
   27.2183  -19.1446   -5.2326 C   0  0  0  0  0  0  0  0  0  0  0  0
   27.0973  -19.0563   -6.6069 C   0  0  0  0  0  0  0  0  0  0  0  0
   27.9437  -19.7272   -7.4607 C   0  0  0  0  0  0  0  0  0  0  0  0
   27.7992  -19.6306   -8.9255 C   0  0  0  0  0  0  0  0  0  0  0  0
   26.6186  -20.4013   -9.4388 C   0  0  2  0  0  0  0  0  0  0  0  0
   26.7169  -21.7984   -9.0151 N   0  0  0  0  0  0  0  0  0  0  0  0
   26.6068  -20.3490  -10.9169 C   0  0  0  0  0  0  0  0  0  0  0  0
   27.6303  -20.2276  -11.6074 O   0  0  0  0  0  0  0  0  0  0  0  0
   28.9514  -20.5175   -6.9274 C   0  0  0  0  0  0  0  0  0  0  0  0
   29.0630  -20.5983   -5.5605 C   0  0  0  0  0  0  0  0  0  0  0  0
   27.2556  -22.0031  -13.5498 O   0  0  0  0  0  0  0  0  0  0  0  0
   25.9224  -22.1909  -13.1081 C   0  0  0  0  0  0  0  0  0  0  0  0
   25.3183  -20.8078  -13.0528 C   0  0  2  0  0  0  0  0  0  0  0  0
   25.3661  -20.4403  -11.6267 N   0  0  0  0  0  0  0  0  0  0  0  0
   23.9586  -20.7049  -13.5771 C   0  0  0  0  0  0  0  0  0  0  0  0
   23.8730  -20.5152  -14.8440 O   0  0  0  0  0  0  0  0  0  0  0  0
   22.7444  -20.7883  -12.8721 N   0  0  0  0  0  0  0  0  0  0  0  0
   22.6174  -20.5416  -11.4234 C   0  0  0  0  0  0  0  0  0  0  0  0
   21.5344  -21.4856  -10.9960 C   0  0  0  0  0  0  0  0  0  0  0  0
   20.9772  -22.1130  -12.2465 C   0  0  0  0  0  0  0  0  0  0  0  0
   21.3907  -21.0858  -13.2896 C   0  0  1  0  0  0  0  0  0  0  0  0
   20.4942  -19.8811  -13.2213 C   0  0  0  0  0  0  0  0  0  0  0  0
   19.2810  -20.0640  -13.4924 O   0  0  0  0  0  0  0  0  0  0  0  0
   20.9096  -18.6182  -12.8885 O   0  0  0  0  0  0  0  0  0  0  0  0
  2  3  2  0
  2  1  1  0
  4  3  1  0
  5  4  2  0
  6  5  1  0
  7  6  1  0
  7  9  1  0
  7  8  1  6
  9 16  1  0
  9 10  2  0
 11  5  1  0
 11 12  2  0
 12  2  1  0
 14 13  1  0
 15 14  1  1
 16 15  1  0
 17 15  1  0
 17 18  2  0
 19 17  1  0
 20 19  1  0
 21 20  1  0
 21 22  1  0
 22 23  1  0
 23 19  1  0
 23 24  1  1
 25 24  2  0
 26 24  1  0
M  END
$$$$
