YSP.pdb
     RDKit          3D

 26 27  0  0  1  0  0  0  0  0999 V2000
   14.2543  -15.1143  -17.9309 O   0  0  0  0  0  0  0  0  0  0  0  0
   15.4197  -14.3924  -17.6995 C   0  0  0  0  0  0  0  0  0  0  0  0
   15.3480  -13.0189  -17.5621 C   0  0  0  0  0  0  0  0  0  0  0  0
   16.5096  -12.3054  -17.3321 C   0  0  0  0  0  0  0  0  0  0  0  0
   17.7383  -12.9190  -17.2354 C   0  0  0  0  0  0  0  0  0  0  0  0
   18.9714  -12.1454  -16.9972 C   0  0  0  0  0  0  0  0  0  0  0  0
   19.6260  -11.7003  -18.2718 C   0  0  2  0  0  0  0  0  0  0  0  0
   20.1529  -12.8613  -18.9898 N   0  0  0  0  0  0  0  0  0  0  0  0
   20.7446  -10.7866  -17.9528 C   0  0  0  0  0  0  0  0  0  0  0  0
   21.9370  -11.0671  -18.1489 O   0  0  0  0  0  0  0  0  0  0  0  0
   17.8159  -14.2973  -17.3723 C   0  0  0  0  0  0  0  0  0  0  0  0
   16.6558  -14.9968  -17.6006 C   0  0  0  0  0  0  0  0  0  0  0  0
   23.3354   -7.5601  -18.3619 O   0  0  0  0  0  0  0  0  0  0  0  0
   22.2387   -8.4386  -18.5441 C   0  0  0  0  0  0  0  0  0  0  0  0
   21.5449   -8.4993  -17.2041 C   0  0  2  0  0  0  0  0  0  0  0  0
   20.4776   -9.4988  -17.3854 N   0  0  0  0  0  0  0  0  0  0  0  0
   21.0007   -7.2289  -16.7306 C   0  0  0  0  0  0  0  0  0  0  0  0
   20.0022   -6.7774  -17.3995 O   0  0  0  0  0  0  0  0  0  0  0  0
   21.4310   -6.4483  -15.6426 N   0  0  0  0  0  0  0  0  0  0  0  0
   22.6446   -6.7355  -14.8550 C   0  0  0  0  0  0  0  0  0  0  0  0
   22.2810   -6.2952  -13.4690 C   0  0  0  0  0  0  0  0  0  0  0  0
   20.9352   -5.6253  -13.5579 C   0  0  0  0  0  0  0  0  0  0  0  0
   20.9011   -5.2480  -15.0311 C   0  0  1  0  0  0  0  0  0  0  0  0
   21.7694   -4.0472  -15.2837 C   0  0  0  0  0  0  0  0  0  0  0  0
   21.3699   -2.9526  -14.8136 O   0  0  0  0  0  0  0  0  0  0  0  0
   22.9480   -4.0707  -15.9828 O   0  0  0  0  0  0  0  0  0  0  0  0
  2  3  2  0
  2  1  1  0
  4  3  1  0
  5  4  2  0
  6  5  1  0
  7  6  1  0
  7  9  1  0
  7  8  1  1
  9 16  1  0
  9 10  2  0
 11  5  1  0
 11 12  2  0
 12  2  1  0
 14 13  1  0
 15 14  1  6
 16 15  1  0
 17 15  1  0
 17 18  2  0
 19 17  1  0
 20 19  1  0
 21 20  1  0
 21 22  1  0
 22 23  1  0
 23 19  1  0
 23 24  1  1
 25 24  2  0
 26 24  1  0
M  END
$$$$
