YSP.pdb
     RDKit          3D

 26 27  0  0  1  0  0  0  0  0999 V2000
   22.1438  -20.8578   -8.5534 O   0  0  0  0  0  0  0  0  0  0  0  0
   23.1548  -20.7857   -9.5051 C   0  0  0  0  0  0  0  0  0  0  0  0
   24.4415  -21.1474   -9.1533 C   0  0  0  0  0  0  0  0  0  0  0  0
   25.4433  -21.0740  -10.1031 C   0  0  0  0  0  0  0  0  0  0  0  0
   25.2013  -20.6513  -11.3908 C   0  0  0  0  0  0  0  0  0  0  0  0
   26.2806  -20.5702  -12.3929 C   0  0  0  0  0  0  0  0  0  0  0  0
   25.9175  -21.2420  -13.6845 C   0  0  2  0  0  0  0  0  0  0  0  0
   25.8122  -22.6869  -13.4787 N   0  0  0  0  0  0  0  0  0  0  0  0
   26.9731  -20.9769  -14.6862 C   0  0  0  0  0  0  0  0  0  0  0  0
   28.1541  -21.3309  -14.5487 O   0  0  0  0  0  0  0  0  0  0  0  0
   23.9116  -20.2871  -11.7493 C   0  0  0  0  0  0  0  0  0  0  0  0
   22.9234  -20.3638  -10.7981 C   0  0  0  0  0  0  0  0  0  0  0  0
   26.2314  -20.8228  -18.4014 O   0  0  0  0  0  0  0  0  0  0  0  0
   27.5814  -20.8869  -17.9760 C   0  0  0  0  0  0  0  0  0  0  0  0
   27.6984  -19.8811  -16.8555 C   0  0  2  0  0  0  0  0  0  0  0  0
   26.6542  -20.2759  -15.8939 N   0  0  0  0  0  0  0  0  0  0  0  0
   27.5424  -18.4854  -17.2577 C   0  0  0  0  0  0  0  0  0  0  0  0
   26.4027  -17.9609  -16.9851 O   0  0  0  0  0  0  0  0  0  0  0  0
   28.4780  -17.6538  -17.8992 N   0  0  0  0  0  0  0  0  0  0  0  0
   29.8155  -18.1022  -18.3300 C   0  0  0  0  0  0  0  0  0  0  0  0
   30.6738  -16.8871  -18.1457 C   0  0  0  0  0  0  0  0  0  0  0  0
   29.7571  -15.7519  -17.7730 C   0  0  0  0  0  0  0  0  0  0  0  0
   28.4312  -16.2672  -18.3121 C   0  0  1  0  0  0  0  0  0  0  0  0
   28.3810  -16.1180  -19.8071 C   0  0  0  0  0  0  0  0  0  0  0  0
   28.6005  -17.1525  -20.4855 O   0  0  0  0  0  0  0  0  0  0  0  0
   28.1163  -14.9451  -20.4649 O   0  0  0  0  0  0  0  0  0  0  0  0
  2  3  2  0
  2  1  1  0
  4  3  1  0
  5  4  2  0
  6  5  1  0
  7  6  1  0
  7  9  1  0
  7  8  1  1
  9 16  1  0
  9 10  2  0
 11  5  1  0
 11 12  2  0
 12  2  1  0
 14 13  1  0
 15 14  1  6
 16 15  1  0
 17 15  1  0
 17 18  2  0
 19 17  1  0
 20 19  1  0
 21 20  1  0
 21 22  1  0
 22 23  1  0
 23 19  1  0
 23 24  1  6
 25 24  2  0
 26 24  1  0
M  END
$$$$
