YSP.pdb
     RDKit          3D

 26 27  0  0  1  0  0  0  0  0999 V2000
   28.0371  -17.1731  -15.9079 O   0  0  0  0  0  0  0  0  0  0  0  0
   27.1338  -16.1228  -16.0264 C   0  0  0  0  0  0  0  0  0  0  0  0
   26.8376  -15.3573  -14.9144 C   0  0  0  0  0  0  0  0  0  0  0  0
   25.9388  -14.3141  -15.0372 C   0  0  0  0  0  0  0  0  0  0  0  0
   25.3274  -14.0118  -16.2332 C   0  0  0  0  0  0  0  0  0  0  0  0
   24.3644  -12.9007  -16.3494 C   0  0  0  0  0  0  0  0  0  0  0  0
   23.0475  -13.2110  -15.7006 C   0  0  2  0  0  0  0  0  0  0  0  0
   22.4687  -14.4116  -16.3044 N   0  0  0  0  0  0  0  0  0  0  0  0
   22.1216  -12.0765  -15.9086 C   0  0  0  0  0  0  0  0  0  0  0  0
   21.6767  -11.7485  -17.0193 O   0  0  0  0  0  0  0  0  0  0  0  0
   25.6213  -14.7769  -17.3525 C   0  0  0  0  0  0  0  0  0  0  0  0
   26.5158  -15.8111  -17.2197 C   0  0  0  0  0  0  0  0  0  0  0  0
   19.1296   -8.9676  -13.8274 O   0  0  0  0  0  0  0  0  0  0  0  0
   20.0506  -10.0306  -13.6557 C   0  0  0  0  0  0  0  0  0  0  0  0
   20.7993  -10.1294  -14.9635 C   0  0  2  0  0  0  0  0  0  0  0  0
   21.6917  -11.2892  -14.7919 N   0  0  0  0  0  0  0  0  0  0  0  0
   21.5543   -8.9356  -15.3363 C   0  0  0  0  0  0  0  0  0  0  0  0
   22.7733   -8.9105  -14.9340 O   0  0  0  0  0  0  0  0  0  0  0  0
   21.1149   -7.8223  -16.0752 N   0  0  0  0  0  0  0  0  0  0  0  0
   19.7684   -7.7088  -16.6665 C   0  0  0  0  0  0  0  0  0  0  0  0
   19.9987   -6.9322  -17.9277 C   0  0  0  0  0  0  0  0  0  0  0  0
   21.4399   -6.4954  -17.9198 C   0  0  0  0  0  0  0  0  0  0  0  0
   21.7535   -6.5736  -16.4333 C   0  0  1  0  0  0  0  0  0  0  0  0
   21.1563   -5.3988  -15.7103 C   0  0  0  0  0  0  0  0  0  0  0  0
   21.6975   -4.2815  -15.9048 O   0  0  0  0  0  0  0  0  0  0  0  0
   20.0784   -5.4684  -14.8668 O   0  0  0  0  0  0  0  0  0  0  0  0
  2  3  2  0
  2  1  1  0
  4  3  1  0
  5  4  2  0
  6  5  1  0
  7  6  1  0
  7  9  1  0
  7  8  1  6
  9 16  1  0
  9 10  2  0
 11  5  1  0
 11 12  2  0
 12  2  1  0
 14 13  1  0
 15 14  1  1
 16 15  1  0
 17 15  1  0
 17 18  2  0
 19 17  1  0
 20 19  1  0
 21 20  1  0
 21 22  1  0
 22 23  1  0
 23 19  1  0
 23 24  1  1
 25 24  2  0
 26 24  1  0
M  END
$$$$
