YSP.pdb
     RDKit          3D

 26 27  0  0  1  0  0  0  0  0999 V2000
   28.6324  -19.2509   -4.1091 O   0  0  0  0  0  0  0  0  0  0  0  0
   28.1781  -19.6660   -5.3558 C   0  0  0  0  0  0  0  0  0  0  0  0
   27.0663  -20.4835   -5.4323 C   0  0  0  0  0  0  0  0  0  0  0  0
   26.6184  -20.8937   -6.6742 C   0  0  0  0  0  0  0  0  0  0  0  0
   27.2447  -20.5140   -7.8401 C   0  0  0  0  0  0  0  0  0  0  0  0
   26.7613  -20.9647   -9.1588 C   0  0  0  0  0  0  0  0  0  0  0  0
   25.7448  -20.0315   -9.7481 C   0  0  2  0  0  0  0  0  0  0  0  0
   24.4759  -20.1650   -9.0319 N   0  0  0  0  0  0  0  0  0  0  0  0
   25.5308  -20.3779  -11.1701 C   0  0  0  0  0  0  0  0  0  0  0  0
   24.6567  -21.1672  -11.5600 O   0  0  0  0  0  0  0  0  0  0  0  0
   28.3609  -19.6934   -7.7690 C   0  0  0  0  0  0  0  0  0  0  0  0
   28.7977  -19.2914   -6.5301 C   0  0  0  0  0  0  0  0  0  0  0  0
   28.2064  -19.0867  -13.8806 O   0  0  0  0  0  0  0  0  0  0  0  0
   26.8681  -18.8921  -14.3033 C   0  0  0  0  0  0  0  0  0  0  0  0
   26.0677  -19.9724  -13.6155 C   0  0  2  0  0  0  0  0  0  0  0  0
   26.3572  -19.7912  -12.1822 N   0  0  0  0  0  0  0  0  0  0  0  0
   26.3707  -21.3355  -14.0449 C   0  0  0  0  0  0  0  0  0  0  0  0
   27.2437  -21.9526  -13.3339 O   0  0  0  0  0  0  0  0  0  0  0  0
   25.8283  -22.0481  -15.1295 N   0  0  0  0  0  0  0  0  0  0  0  0
   24.8666  -21.4750  -16.0899 C   0  0  0  0  0  0  0  0  0  0  0  0
   23.9912  -22.6366  -16.4519 C   0  0  0  0  0  0  0  0  0  0  0  0
   24.5913  -23.8587  -15.8083 C   0  0  0  0  0  0  0  0  0  0  0  0
   26.0277  -23.3995  -15.6084 C   0  0  1  0  0  0  0  0  0  0  0  0
   26.7756  -23.4390  -16.9117 C   0  0  0  0  0  0  0  0  0  0  0  0
   27.1765  -24.5651  -17.2988 O   0  0  0  0  0  0  0  0  0  0  0  0
   27.0437  -22.3433  -17.6902 O   0  0  0  0  0  0  0  0  0  0  0  0
  2  3  2  0
  2  1  1  0
  4  3  1  0
  5  4  2  0
  6  5  1  0
  7  6  1  0
  7  9  1  0
  7  8  1  1
  9 16  1  0
  9 10  2  0
 11  5  1  0
 11 12  2  0
 12  2  1  0
 14 13  1  0
 15 14  1  6
 16 15  1  0
 17 15  1  0
 17 18  2  0
 19 17  1  0
 20 19  1  0
 21 20  1  0
 21 22  1  0
 22 23  1  0
 23 19  1  0
 23 24  1  6
 25 24  2  0
 26 24  1  0
M  END
$$$$
