VRN.pdb
     RDKit          3D

 27 26  0  0  1  0  0  0  0  0999 V2000
   20.3092  -14.0891  -17.6085 C   0  0  0  0  0  0  0  0  0  0  0  0
   19.5279  -12.8180  -17.4444 C   0  0  1  0  0  0  0  0  0  0  0  0
   18.1790  -13.0024  -16.8142 C   0  0  0  0  0  0  0  0  0  0  0  0
   20.3334  -11.6975  -16.8352 C   0  0  2  0  0  0  0  0  0  0  0  0
   20.9651  -12.2338  -15.6420 N   0  0  0  0  0  0  0  0  0  0  0  0
   19.5778  -10.4939  -16.5319 C   0  0  0  0  0  0  0  0  0  0  0  0
   19.5614   -9.5754  -17.4224 O   0  0  0  0  0  0  0  0  0  0  0  0
   11.9853  -10.1985  -13.0990 N   0  0  0  0  0  0  0  0  0  0  0  0
   12.1565  -10.6658  -14.4420 C   0  0  0  0  0  0  0  0  0  0  0  0
   11.1312  -11.1929  -15.0132 N   0  0  0  0  0  0  0  0  0  0  0  0
   13.4052  -10.5556  -15.1237 N   0  0  0  0  0  0  0  0  0  0  0  0
   14.4943   -9.9575  -14.3933 C   0  0  0  0  0  0  0  0  0  0  0  0
   15.7563   -9.8834  -15.2554 C   0  0  0  0  0  0  0  0  0  0  0  0
   16.8258   -9.2099  -14.4256 C   0  0  0  0  0  0  0  0  0  0  0  0
   18.0936   -8.9999  -15.2060 C   0  0  2  0  0  0  0  0  0  0  0  0
   18.8577  -10.2181  -15.3671 N   0  0  0  0  0  0  0  0  0  0  0  0
   18.9011   -7.9901  -14.4399 C   0  0  0  0  0  0  0  0  0  0  0  0
   19.3039   -8.2712  -13.2879 O   0  0  0  0  0  0  0  0  0  0  0  0
   11.1799  -11.5994  -15.9677 N   0  0  0  0  0  0  0  0  0  0  0  0
   22.6481   -4.8072  -12.7960 C   0  0  0  0  0  0  0  0  0  0  0  0
   22.1962   -4.6716  -14.1284 O   0  0  0  0  0  0  0  0  0  0  0  0
   22.4753   -3.6486  -14.7862 C   0  0  0  0  0  0  0  0  0  0  0  0
   21.3801   -5.7446  -14.7712 C   0  0  1  0  0  0  0  0  0  0  0  0
   19.9499   -5.6999  -14.2997 N   0  0  0  0  0  0  0  0  0  0  0  0
   19.2173   -6.7305  -14.9884 C   0  0  0  0  0  0  0  0  0  0  0  0
   19.3462   -4.3603  -14.4767 O   0  0  0  0  0  0  0  0  0  0  0  0
   19.4687   -3.3276  -13.5645 O   0  0  0  0  0  0  0  0  0  0  0  0
  2  1  1  1
  2  3  1  0
  4  2  1  0
  4  5  1  1
  6  7  2  0
  6  4  1  0
  9  8  1  0
 10  9  2  0
 11  9  1  0
 12 11  1  0
 13 14  1  0
 13 12  1  0
 15 16  1  0
 15 14  1  1
 16  6  1  0
 17 15  1  0
 18 17  2  0
 19 20  1  0
 20 22  1  0
 21 20  2  0
 23 22  1  1
 23 24  1  0
 24 17  1  0
 25 23  1  0
 25 26  1  0
 27 25  2  0
M  END
$$$$
