VRN.pdb
     RDKit          3D

 27 26  0  0  1  0  0  0  0  0999 V2000
   27.2740  -18.2175  -19.4703 C   0  0  0  0  0  0  0  0  0  0  0  0
   28.2543  -19.2960  -19.8290 C   0  0  1  0  0  0  0  0  0  0  0  0
   29.1300  -18.9659  -21.0015 C   0  0  0  0  0  0  0  0  0  0  0  0
   29.0110  -19.8334  -18.6398 C   0  0  2  0  0  0  0  0  0  0  0  0
   29.7180  -21.0194  -19.0916 N   0  0  0  0  0  0  0  0  0  0  0  0
   28.1942  -20.1231  -17.4734 C   0  0  0  0  0  0  0  0  0  0  0  0
   27.4967  -21.1953  -17.5013 O   0  0  0  0  0  0  0  0  0  0  0  0
   26.1454  -20.5790   -9.5079 N   0  0  0  0  0  0  0  0  0  0  0  0
   25.2303  -20.9514  -10.5448 C   0  0  0  0  0  0  0  0  0  0  0  0
   23.9751  -20.8430  -10.2841 N   0  0  0  0  0  0  0  0  0  0  0  0
   25.6821  -21.4227  -11.8136 N   0  0  0  0  0  0  0  0  0  0  0  0
   26.9082  -20.8577  -12.3183 C   0  0  0  0  0  0  0  0  0  0  0  0
   26.6954  -19.4162  -12.7852 C   0  0  0  0  0  0  0  0  0  0  0  0
   27.6895  -19.1538  -13.8938 C   0  0  0  0  0  0  0  0  0  0  0  0
   27.2600  -19.7767  -15.1930 C   0  0  2  0  0  0  0  0  0  0  0  0
   28.0796  -19.3586  -16.3098 N   0  0  0  0  0  0  0  0  0  0  0  0
   25.8368  -19.3498  -15.4182 C   0  0  0  0  0  0  0  0  0  0  0  0
   25.5909  -18.1551  -15.7023 O   0  0  0  0  0  0  0  0  0  0  0  0
   23.2454  -21.0225  -11.0011 N   0  0  0  0  0  0  0  0  0  0  0  0
   20.6387  -20.0329  -15.0865 C   0  0  0  0  0  0  0  0  0  0  0  0
   21.4125  -19.4794  -14.0410 O   0  0  0  0  0  0  0  0  0  0  0  0
   20.8668  -19.1146  -12.9798 C   0  0  0  0  0  0  0  0  0  0  0  0
   22.8905  -19.3215  -14.1859 C   0  0  2  0  0  0  0  0  0  0  0  0
   23.3800  -19.9200  -15.4789 N   0  0  0  0  0  0  0  0  0  0  0  0
   24.7687  -20.2643  -15.3175 C   0  0  0  0  0  0  0  0  0  0  0  0
   23.1489  -19.0214  -16.6319 O   0  0  0  0  0  0  0  0  0  0  0  0
   22.4582  -19.3863  -17.7736 O   0  0  0  0  0  0  0  0  0  0  0  0
  2  1  1  1
  2  3  1  0
  4  2  1  0
  4  5  1  6
  6  7  2  0
  6  4  1  0
  9  8  1  0
 10  9  2  0
 11  9  1  0
 12 11  1  0
 13 14  1  0
 13 12  1  0
 15 16  1  0
 15 14  1  1
 16  6  1  0
 17 15  1  0
 18 17  2  0
 19 20  1  0
 20 22  1  0
 21 20  2  0
 23 22  1  1
 23 24  1  0
 24 17  1  0
 25 23  1  0
 25 26  1  0
 27 25  2  0
M  END
$$$$
