VRN.pdb
     RDKit          3D

 27 26  0  0  1  0  0  0  0  0999 V2000
   17.2232  -18.8145  -17.2409 C   0  0  0  0  0  0  0  0  0  0  0  0
   17.4240  -20.1372  -16.5604 C   0  0  1  0  0  0  0  0  0  0  0  0
   18.6782  -20.8533  -16.9660 C   0  0  0  0  0  0  0  0  0  0  0  0
   17.2162  -20.0771  -15.0675 C   0  0  2  0  0  0  0  0  0  0  0  0
   17.3383  -21.4367  -14.5704 N   0  0  0  0  0  0  0  0  0  0  0  0
   15.9617  -19.4763  -14.6468 C   0  0  0  0  0  0  0  0  0  0  0  0
   14.8834  -20.0325  -15.0528 O   0  0  0  0  0  0  0  0  0  0  0  0
   12.0899  -16.4378   -7.5950 N   0  0  0  0  0  0  0  0  0  0  0  0
   11.0379  -16.4710   -8.5664 C   0  0  0  0  0  0  0  0  0  0  0  0
    9.8406  -16.2731   -8.1390 N   0  0  0  0  0  0  0  0  0  0  0  0
   11.2973  -16.7121   -9.9486 N   0  0  0  0  0  0  0  0  0  0  0  0
   12.6592  -17.0129  -10.3119 C   0  0  0  0  0  0  0  0  0  0  0  0
   12.7959  -17.1891  -11.8257 C   0  0  0  0  0  0  0  0  0  0  0  0
   14.2014  -17.6776  -12.0940 C   0  0  0  0  0  0  0  0  0  0  0  0
   14.4865  -17.7886  -13.5660 C   0  0  2  0  0  0  0  0  0  0  0  0
   15.7924  -18.3482  -13.8406 N   0  0  0  0  0  0  0  0  0  0  0  0
   14.4035  -16.3942  -14.1205 C   0  0  0  0  0  0  0  0  0  0  0  0
   15.3428  -15.5926  -13.9116 O   0  0  0  0  0  0  0  0  0  0  0  0
    9.0236  -16.2470   -8.7798 N   0  0  0  0  0  0  0  0  0  0  0  0
   13.9805  -12.7006  -17.1417 C   0  0  0  0  0  0  0  0  0  0  0  0
   13.0307  -13.6310  -17.6217 O   0  0  0  0  0  0  0  0  0  0  0  0
   12.6330  -13.5712  -18.8030 C   0  0  0  0  0  0  0  0  0  0  0  0
   12.4878  -14.6979  -16.7287 C   0  0  2  0  0  0  0  0  0  0  0  0
   13.0978  -14.6221  -15.3532 N   0  0  0  0  0  0  0  0  0  0  0  0
   13.2909  -15.9655  -14.8727 C   0  0  0  0  0  0  0  0  0  0  0  0
   12.2864  -13.8000  -14.4281 O   0  0  0  0  0  0  0  0  0  0  0  0
   12.5346  -12.4669  -14.1542 O   0  0  0  0  0  0  0  0  0  0  0  0
  2  1  1  1
  2  3  1  0
  4  2  1  0
  4  5  1  6
  6  7  2  0
  6  4  1  0
  9  8  1  0
 10  9  2  0
 11  9  1  0
 12 11  1  0
 13 14  1  0
 13 12  1  0
 15 16  1  0
 15 14  1  1
 16  6  1  0
 17 15  1  0
 18 17  2  0
 19 20  1  0
 20 22  1  0
 21 20  2  0
 23 22  1  6
 23 24  1  0
 24 17  1  0
 25 23  1  0
 25 26  1  0
 27 25  2  0
M  END
$$$$
