VRN.pdb
     RDKit          3D

 27 26  0  0  1  0  0  0  0  0999 V2000
   19.0874  -25.2126  -14.7663 C   0  0  0  0  0  0  0  0  0  0  0  0
   19.8762  -26.2422  -14.0107 C   0  0  1  0  0  0  0  0  0  0  0  0
   19.3231  -27.6333  -14.1074 C   0  0  0  0  0  0  0  0  0  0  0  0
   21.3607  -26.1611  -14.2659 C   0  0  2  0  0  0  0  0  0  0  0  0
   21.9956  -27.1018  -13.3590 N   0  0  0  0  0  0  0  0  0  0  0  0
   21.9346  -24.8331  -14.1292 C   0  0  0  0  0  0  0  0  0  0  0  0
   22.1211  -24.3977  -12.9407 O   0  0  0  0  0  0  0  0  0  0  0  0
   26.3013  -25.5574  -16.3333 N   0  0  0  0  0  0  0  0  0  0  0  0
   27.5278  -24.8179  -16.3474 C   0  0  0  0  0  0  0  0  0  0  0  0
   28.6173  -25.4892  -16.2143 N   0  0  0  0  0  0  0  0  0  0  0  0
   27.5495  -23.3995  -16.5018 N   0  0  0  0  0  0  0  0  0  0  0  0
   26.2809  -22.7487  -16.7126 C   0  0  0  0  0  0  0  0  0  0  0  0
   25.2918  -23.1041  -15.6006 C   0  0  0  0  0  0  0  0  0  0  0  0
   24.0126  -22.3485  -15.8817 C   0  0  0  0  0  0  0  0  0  0  0  0
   22.9322  -22.6846  -14.8916 C   0  0  2  0  0  0  0  0  0  0  0  0
   22.3117  -23.9647  -15.1563 N   0  0  0  0  0  0  0  0  0  0  0  0
   21.9067  -21.5908  -14.9950 C   0  0  0  0  0  0  0  0  0  0  0  0
   21.1034  -21.5901  -15.9558 O   0  0  0  0  0  0  0  0  0  0  0  0
   29.5410  -25.0261  -16.1088 N   0  0  0  0  0  0  0  0  0  0  0  0
   21.5376  -19.6557  -10.5383 C   0  0  0  0  0  0  0  0  0  0  0  0
   20.6409  -19.4774  -11.6163 O   0  0  0  0  0  0  0  0  0  0  0  0
   19.5052  -19.9933  -11.5816 C   0  0  0  0  0  0  0  0  0  0  0  0
   21.0335  -18.6724  -12.8114 C   0  0  2  0  0  0  0  0  0  0  0  0
   20.8887  -19.4715  -14.0803 N   0  0  0  0  0  0  0  0  0  0  0  0
   21.8268  -20.5627  -14.0338 C   0  0  0  0  0  0  0  0  0  0  0  0
   21.0533  -18.6333  -15.2889 O   0  0  0  0  0  0  0  0  0  0  0  0
   22.2093  -18.5840  -16.0471 O   0  0  0  0  0  0  0  0  0  0  0  0
  2  1  1  6
  2  3  1  0
  4  2  1  0
  4  5  1  1
  6  7  2  0
  6  4  1  0
  9  8  1  0
 10  9  2  0
 11  9  1  0
 12 11  1  0
 13 14  1  0
 13 12  1  0
 15 16  1  0
 15 14  1  6
 16  6  1  0
 17 15  1  0
 18 17  2  0
 19 20  1  0
 20 22  1  0
 21 20  2  0
 23 22  1  1
 23 24  1  0
 24 17  1  0
 25 23  1  0
 25 26  1  0
 27 25  2  0
M  END
$$$$
