VRN.pdb
     RDKit          3D

 27 26  0  0  1  0  0  0  0  0999 V2000
   29.8921  -23.4162  -19.2980 C   0  0  0  0  0  0  0  0  0  0  0  0
   28.6640  -23.3479  -18.4376 C   0  0  1  0  0  0  0  0  0  0  0  0
   27.4694  -24.0484  -19.0144 C   0  0  0  0  0  0  0  0  0  0  0  0
   28.9287  -23.6910  -16.9927 C   0  0  2  0  0  0  0  0  0  0  0  0
   29.2592  -25.1050  -16.9496 N   0  0  0  0  0  0  0  0  0  0  0  0
   27.8421  -23.3790  -16.0796 C   0  0  0  0  0  0  0  0  0  0  0  0
   26.9535  -24.2818  -15.9001 O   0  0  0  0  0  0  0  0  0  0  0  0
   23.5978  -20.2586  -10.1236 N   0  0  0  0  0  0  0  0  0  0  0  0
   24.8612  -20.4345   -9.4723 C   0  0  0  0  0  0  0  0  0  0  0  0
   24.8377  -20.7998   -8.2389 N   0  0  0  0  0  0  0  0  0  0  0  0
   26.0959  -20.2164  -10.1536 N   0  0  0  0  0  0  0  0  0  0  0  0
   26.0161  -19.6762  -11.4874 C   0  0  0  0  0  0  0  0  0  0  0  0
   25.6272  -20.7603  -12.4948 C   0  0  0  0  0  0  0  0  0  0  0  0
   26.8035  -20.9482  -13.4260 C   0  0  0  0  0  0  0  0  0  0  0  0
   26.5440  -22.0172  -14.4508 C   0  0  2  0  0  0  0  0  0  0  0  0
   27.6514  -22.1938  -15.3653 N   0  0  0  0  0  0  0  0  0  0  0  0
   25.3200  -21.5886  -15.2104 C   0  0  0  0  0  0  0  0  0  0  0  0
   25.4077  -20.6567  -16.0423 O   0  0  0  0  0  0  0  0  0  0  0  0
   25.7059  -20.9089   -7.6794 N   0  0  0  0  0  0  0  0  0  0  0  0
   20.4117  -21.3941  -16.9004 C   0  0  0  0  0  0  0  0  0  0  0  0
   20.5746  -22.6185  -16.2132 O   0  0  0  0  0  0  0  0  0  0  0  0
   19.6487  -23.4547  -16.1899 C   0  0  0  0  0  0  0  0  0  0  0  0
   21.8515  -22.9332  -15.5054 C   0  0  2  0  0  0  0  0  0  0  0  0
   22.8445  -21.8086  -15.6436 N   0  0  0  0  0  0  0  0  0  0  0  0
   24.0720  -22.2124  -15.0087 C   0  0  0  0  0  0  0  0  0  0  0  0
   22.3207  -20.5332  -15.1057 O   0  0  0  0  0  0  0  0  0  0  0  0
   22.8271  -19.8970  -13.9866 O   0  0  0  0  0  0  0  0  0  0  0  0
  2  1  1  6
  2  3  1  0
  4  2  1  0
  4  5  1  6
  6  7  2  0
  6  4  1  0
  9  8  1  0
 10  9  2  0
 11  9  1  0
 12 11  1  0
 13 14  1  0
 13 12  1  0
 15 16  1  0
 15 14  1  1
 16  6  1  0
 17 15  1  0
 18 17  2  0
 19 20  1  0
 20 22  1  0
 21 20  2  0
 23 22  1  6
 23 24  1  0
 24 17  1  0
 25 23  1  0
 25 26  1  0
 27 25  2  0
M  END
$$$$
