VRN.pdb
     RDKit          3D

 27 26  0  0  1  0  0  0  0  0999 V2000
   25.5578  -34.8318  -11.3155 C   0  0  0  0  0  0  0  0  0  0  0  0
   25.6129  -33.5048  -12.0150 C   0  0  1  0  0  0  0  0  0  0  0  0
   26.9546  -32.8360  -11.9602 C   0  0  0  0  0  0  0  0  0  0  0  0
   25.0059  -33.5332  -13.3957 C   0  0  2  0  0  0  0  0  0  0  0  0
   25.7875  -34.4737  -14.1799 N   0  0  0  0  0  0  0  0  0  0  0  0
   24.9241  -32.2413  -14.0561 C   0  0  0  0  0  0  0  0  0  0  0  0
   24.2006  -31.3457  -13.4984 O   0  0  0  0  0  0  0  0  0  0  0  0
   28.4303  -25.7258  -16.8506 N   0  0  0  0  0  0  0  0  0  0  0  0
   28.7737  -26.7455  -17.7961 C   0  0  0  0  0  0  0  0  0  0  0  0
   29.4264  -26.3775  -18.8421 N   0  0  0  0  0  0  0  0  0  0  0  0
   28.4122  -28.1110  -17.5947 N   0  0  0  0  0  0  0  0  0  0  0  0
   28.0382  -28.4942  -16.2565 C   0  0  0  0  0  0  0  0  0  0  0  0
   27.7188  -29.9889  -16.1842 C   0  0  0  0  0  0  0  0  0  0  0  0
   26.3762  -30.1920  -16.8493 C   0  0  0  0  0  0  0  0  0  0  0  0
   25.3099  -30.5700  -15.8591 C   0  0  2  0  0  0  0  0  0  0  0  0
   25.5510  -31.8574  -15.2440 N   0  0  0  0  0  0  0  0  0  0  0  0
   24.0155  -30.6049  -16.6220 C   0  0  0  0  0  0  0  0  0  0  0  0
   23.6786  -31.6561  -17.2134 O   0  0  0  0  0  0  0  0  0  0  0  0
   29.7712  -27.0598  -19.5452 N   0  0  0  0  0  0  0  0  0  0  0  0
   18.5802  -29.9969  -16.7998 C   0  0  0  0  0  0  0  0  0  0  0  0
   19.6970  -30.6076  -17.4146 O   0  0  0  0  0  0  0  0  0  0  0  0
   19.5699  -31.1943  -18.5086 C   0  0  0  0  0  0  0  0  0  0  0  0
   21.0434  -30.5626  -16.7699 C   0  0  2  0  0  0  0  0  0  0  0  0
   21.8890  -29.4574  -17.3473 N   0  0  0  0  0  0  0  0  0  0  0  0
   23.1688  -29.4796  -16.6880 C   0  0  0  0  0  0  0  0  0  0  0  0
   21.2243  -28.1385  -17.2510 O   0  0  0  0  0  0  0  0  0  0  0  0
   20.5180  -27.5487  -18.2838 O   0  0  0  0  0  0  0  0  0  0  0  0
  2  1  1  6
  2  3  1  0
  4  2  1  0
  4  5  1  6
  6  7  2  0
  6  4  1  0
  9  8  1  0
 10  9  2  0
 11  9  1  0
 12 11  1  0
 13 14  1  0
 13 12  1  0
 15 16  1  0
 15 14  1  6
 16  6  1  0
 17 15  1  0
 18 17  2  0
 19 20  1  0
 20 22  1  0
 21 20  2  0
 23 22  1  6
 23 24  1  0
 24 17  1  0
 25 23  1  0
 25 26  1  0
 27 25  2  0
M  END
$$$$
