VRN.pdb
     RDKit          3D

 27 26  0  0  1  0  0  0  0  0999 V2000
   24.7153  -12.0789  -14.5529 C   0  0  0  0  0  0  0  0  0  0  0  0
   23.6378  -11.0828  -14.8688 C   0  0  1  0  0  0  0  0  0  0  0  0
   24.0538  -10.0122  -15.8339 C   0  0  0  0  0  0  0  0  0  0  0  0
   22.3147  -11.7232  -15.2075 C   0  0  2  0  0  0  0  0  0  0  0  0
   22.5433  -12.5774  -16.3601 N   0  0  0  0  0  0  0  0  0  0  0  0
   21.2275  -10.7910  -15.4538 C   0  0  0  0  0  0  0  0  0  0  0  0
   21.0167  -10.4485  -16.6684 O   0  0  0  0  0  0  0  0  0  0  0  0
   12.9747  -10.1870  -13.3668 N   0  0  0  0  0  0  0  0  0  0  0  0
   13.1496   -8.9941  -14.1400 C   0  0  0  0  0  0  0  0  0  0  0  0
   12.0844   -8.3666  -14.4966 N   0  0  0  0  0  0  0  0  0  0  0  0
   14.4439   -8.5157  -14.5030 N   0  0  0  0  0  0  0  0  0  0  0  0
   15.5695   -9.3305  -14.1202 C   0  0  0  0  0  0  0  0  0  0  0  0
   16.8700   -8.7785  -14.7077 C   0  0  0  0  0  0  0  0  0  0  0  0
   17.9855   -9.7001  -14.2690 C   0  0  0  0  0  0  0  0  0  0  0  0
   19.3037   -9.3191  -14.8834 C   0  0  2  0  0  0  0  0  0  0  0  0
   20.3743  -10.2174  -14.5081 N   0  0  0  0  0  0  0  0  0  0  0  0
   19.6117   -7.9300  -14.3994 C   0  0  0  0  0  0  0  0  0  0  0  0
   19.8026   -7.7329  -13.1775 O   0  0  0  0  0  0  0  0  0  0  0  0
   12.1205   -7.4949  -15.0601 N   0  0  0  0  0  0  0  0  0  0  0  0
   22.4201   -2.7954  -15.8320 C   0  0  0  0  0  0  0  0  0  0  0  0
   21.3703   -3.5199  -15.2229 O   0  0  0  0  0  0  0  0  0  0  0  0
   20.6816   -2.9941  -14.3249 C   0  0  0  0  0  0  0  0  0  0  0  0
   21.0668   -4.9213  -15.6403 C   0  0  2  0  0  0  0  0  0  0  0  0
   19.8808   -5.4702  -14.8907 N   0  0  0  0  0  0  0  0  0  0  0  0
   19.6914   -6.8403  -15.2903 C   0  0  0  0  0  0  0  0  0  0  0  0
   18.6663   -4.6483  -15.0901 O   0  0  0  0  0  0  0  0  0  0  0  0
   17.5447   -5.0757  -15.7780 O   0  0  0  0  0  0  0  0  0  0  0  0
  2  1  1  6
  2  3  1  0
  4  2  1  0
  4  5  1  6
  6  7  2  0
  6  4  1  0
  9  8  1  0
 10  9  2  0
 11  9  1  0
 12 11  1  0
 13 14  1  0
 13 12  1  0
 15 16  1  0
 15 14  1  1
 16  6  1  0
 17 15  1  0
 18 17  2  0
 19 20  1  0
 20 22  1  0
 21 20  2  0
 23 22  1  1
 23 24  1  0
 24 17  1  0
 25 23  1  0
 25 26  1  0
 27 25  2  0
M  END
$$$$
