VRN.pdb
     RDKit          3D

 27 26  0  0  1  0  0  0  0  0999 V2000
   14.3734   -6.9610   -6.6205 C   0  0  0  0  0  0  0  0  0  0  0  0
   13.9630   -5.7594   -7.4210 C   0  0  1  0  0  0  0  0  0  0  0  0
   13.2007   -4.7307   -6.6392 C   0  0  0  0  0  0  0  0  0  0  0  0
   15.0847   -5.1830   -8.2487 C   0  0  2  0  0  0  0  0  0  0  0  0
   14.5338   -4.0516   -8.9746 N   0  0  0  0  0  0  0  0  0  0  0  0
   15.7255   -6.1234   -9.1525 C   0  0  0  0  0  0  0  0  0  0  0  0
   16.4940   -7.0029   -8.6305 O   0  0  0  0  0  0  0  0  0  0  0  0
   14.0340  -12.3886   -9.7335 N   0  0  0  0  0  0  0  0  0  0  0  0
   13.4816  -11.9140  -10.9668 C   0  0  0  0  0  0  0  0  0  0  0  0
   12.2524  -12.2072  -11.2085 N   0  0  0  0  0  0  0  0  0  0  0  0
   14.2532  -11.1494  -11.8920 N   0  0  0  0  0  0  0  0  0  0  0  0
   14.9792  -10.0240  -11.3594 C   0  0  0  0  0  0  0  0  0  0  0  0
   14.2896   -8.7068  -11.7210 C   0  0  0  0  0  0  0  0  0  0  0  0
   15.3329   -7.8153  -12.3559 C   0  0  0  0  0  0  0  0  0  0  0  0
   16.2488   -7.2048  -11.3318 C   0  0  2  0  0  0  0  0  0  0  0  0
   15.5992   -6.1806  -10.5426 N   0  0  0  0  0  0  0  0  0  0  0  0
   17.3987   -6.6077  -12.0934 C   0  0  0  0  0  0  0  0  0  0  0  0
   17.2924   -5.4501  -12.5594 O   0  0  0  0  0  0  0  0  0  0  0  0
   11.7735  -11.9026  -12.0783 N   0  0  0  0  0  0  0  0  0  0  0  0
   22.9211   -5.8695  -12.8747 C   0  0  0  0  0  0  0  0  0  0  0  0
   22.1962   -7.0396  -13.1962 O   0  0  0  0  0  0  0  0  0  0  0  0
   22.5669   -7.7705  -14.1373 C   0  0  0  0  0  0  0  0  0  0  0  0
   20.9791   -7.4218  -12.4196 C   0  0  1  0  0  0  0  0  0  0  0  0
   19.7362   -6.8169  -13.0190 N   0  0  0  0  0  0  0  0  0  0  0  0
   18.5976   -7.3210  -12.2961 C   0  0  0  0  0  0  0  0  0  0  0  0
   19.6403   -7.0676  -14.4744 O   0  0  0  0  0  0  0  0  0  0  0  0
   20.0877   -6.1883  -15.4441 O   0  0  0  0  0  0  0  0  0  0  0  0
  2  1  1  1
  2  3  1  0
  4  2  1  0
  4  5  1  6
  6  7  2  0
  6  4  1  0
  9  8  1  0
 10  9  2  0
 11  9  1  0
 12 11  1  0
 13 14  1  0
 13 12  1  0
 15 16  1  0
 15 14  1  6
 16  6  1  0
 17 15  1  0
 18 17  2  0
 19 20  1  0
 20 22  1  0
 21 20  2  0
 23 22  1  1
 23 24  1  0
 24 17  1  0
 25 23  1  0
 25 26  1  0
 27 25  2  0
M  END
$$$$
