TPW.pdb
     RDKit          3D

 29 31  0  0  1  0  0  0  0  0999 V2000
   34.9608  -24.4910  -18.8821 C   0  0  0  0  0  0  0  0  0  0  0  0
   35.0513  -25.9168  -19.3613 C   0  0  1  0  0  0  0  0  0  0  0  0
   36.2584  -26.0940  -19.9967 O   0  0  0  0  0  0  0  0  0  0  0  0
   34.9248  -26.7959  -18.1028 C   0  0  2  0  0  0  0  0  0  0  0  0
   35.2447  -28.1582  -18.4296 N   0  0  0  0  0  0  0  0  0  0  0  0
   33.6277  -26.5939  -17.4511 C   0  0  0  0  0  0  0  0  0  0  0  0
   32.6191  -26.7002  -18.2408 O   0  0  0  0  0  0  0  0  0  0  0  0
   33.3843  -26.3067  -16.1012 N   0  0  0  0  0  0  0  0  0  0  0  0
   34.0861  -26.6803  -14.8856 C   0  0  0  0  0  0  0  0  0  0  0  0
   34.1400  -25.3239  -14.1459 C   0  0  0  0  0  0  0  0  0  0  0  0
   33.0965  -24.4484  -14.8243 C   0  0  0  0  0  0  0  0  0  0  0  0
   32.2916  -25.4992  -15.5581 C   0  0  1  0  0  0  0  0  0  0  0  0
   31.4113  -24.8827  -16.5225 C   0  0  0  0  0  0  0  0  0  0  0  0
   31.9067  -24.3181  -17.5594 O   0  0  0  0  0  0  0  0  0  0  0  0
   29.9792  -24.8210  -16.4512 N   0  0  0  0  0  0  0  0  0  0  0  0
   29.2095  -24.0982  -17.4630 C   0  0  1  0  0  0  0  0  0  0  0  0
   28.3645  -25.0085  -18.2742 C   0  0  0  0  0  0  0  0  0  0  0  0
   27.2762  -25.6792  -17.5413 C   0  0  0  0  0  0  0  0  0  0  0  0
   26.1418  -25.0069  -17.0701 C   0  0  0  0  0  0  0  0  0  0  0  0
   25.3188  -25.8908  -16.4888 N   0  0  0  0  0  0  0  0  0  0  0  0
   25.8784  -27.1183  -16.5634 C   0  0  0  0  0  0  0  0  0  0  0  0
   25.4096  -28.3275  -16.0969 C   0  0  0  0  0  0  0  0  0  0  0  0
   26.1763  -29.4572  -16.2818 C   0  0  0  0  0  0  0  0  0  0  0  0
   27.4070  -29.3718  -16.9314 C   0  0  0  0  0  0  0  0  0  0  0  0
   27.8449  -28.1399  -17.3867 C   0  0  0  0  0  0  0  0  0  0  0  0
   27.1025  -26.9905  -17.2198 C   0  0  0  0  0  0  0  0  0  0  0  0
   28.4857  -23.0040  -16.8043 C   0  0  0  0  0  0  0  0  0  0  0  0
   27.9201  -21.9132  -17.4522 O   0  0  0  0  0  0  0  0  0  0  0  0
   28.3409  -23.0055  -15.5347 O   0  0  0  0  0  0  0  0  0  0  0  0
  2  1  1  1
  2  3  1  0
  4  5  1  6
  4  2  1  0
  6  4  1  0
  7  6  2  0
  8  9  1  0
  8  6  1  0
 10  9  1  0
 11 12  1  0
 11 10  1  0
 12  8  1  0
 12 13  1  6
 14 13  2  0
 15 13  1  0
 16 17  1  1
 16 15  1  0
 18 17  1  0
 19 18  2  0
 20 19  1  0
 21 20  1  0
 21 26  2  0
 22 21  1  0
 23 22  2  0
 23 24  1  0
 24 25  2  0
 25 26  1  0
 26 18  1  0
 27 16  1  0
 28 27  1  0
 29 27  2  0
M  END
$$$$
