TPW.pdb
     RDKit          3D

 29 31  0  0  1  0  0  0  0  0999 V2000
   24.6287  -20.6439  -17.5943 C   0  0  0  0  0  0  0  0  0  0  0  0
   25.1534  -22.0042  -17.9754 C   0  0  1  0  0  0  0  0  0  0  0  0
   24.8159  -22.2574  -19.2847 O   0  0  0  0  0  0  0  0  0  0  0  0
   26.6790  -21.9423  -17.7722 C   0  0  2  0  0  0  0  0  0  0  0  0
   27.2905  -23.1141  -18.3362 N   0  0  0  0  0  0  0  0  0  0  0  0
   27.0101  -21.6738  -16.3700 C   0  0  0  0  0  0  0  0  0  0  0  0
   26.4770  -22.4942  -15.5363 O   0  0  0  0  0  0  0  0  0  0  0  0
   27.8210  -20.6490  -15.8638 N   0  0  0  0  0  0  0  0  0  0  0  0
   28.8990  -19.8783  -16.4586 C   0  0  0  0  0  0  0  0  0  0  0  0
   28.5131  -18.4455  -16.0250 C   0  0  0  0  0  0  0  0  0  0  0  0
   27.5162  -18.6186  -14.8883 C   0  0  0  0  0  0  0  0  0  0  0  0
   27.7653  -20.0660  -14.5228 C   0  0  1  0  0  0  0  0  0  0  0  0
   26.7214  -20.5573  -13.6547 C   0  0  0  0  0  0  0  0  0  0  0  0
   25.5137  -20.5959  -14.0782 O   0  0  0  0  0  0  0  0  0  0  0  0
   26.8837  -21.0258  -12.3078 N   0  0  0  0  0  0  0  0  0  0  0  0
   25.7214  -21.3641  -11.4873 C   0  0  1  0  0  0  0  0  0  0  0  0
   26.1058  -22.0845  -10.2488 C   0  0  0  0  0  0  0  0  0  0  0  0
   26.1872  -21.2531   -9.0349 C   0  0  0  0  0  0  0  0  0  0  0  0
   25.0643  -20.8737   -8.2894 C   0  0  0  0  0  0  0  0  0  0  0  0
   25.4645  -20.1639   -7.2251 N   0  0  0  0  0  0  0  0  0  0  0  0
   26.8118  -20.0658   -7.2513 C   0  0  0  0  0  0  0  0  0  0  0  0
   27.6633  -19.4259   -6.3766 C   0  0  0  0  0  0  0  0  0  0  0  0
   29.0184  -19.4528   -6.6240 C   0  0  0  0  0  0  0  0  0  0  0  0
   29.5145  -20.1187   -7.7439 C   0  0  0  0  0  0  0  0  0  0  0  0
   28.6286  -20.7506   -8.5998 C   0  0  0  0  0  0  0  0  0  0  0  0
   27.2677  -20.7445   -8.3814 C   0  0  0  0  0  0  0  0  0  0  0  0
   24.9305  -20.1457  -11.2749 C   0  0  0  0  0  0  0  0  0  0  0  0
   23.5542  -20.1060  -11.0906 O   0  0  0  0  0  0  0  0  0  0  0  0
   25.5056  -19.0049  -11.2543 O   0  0  0  0  0  0  0  0  0  0  0  0
  2  1  1  6
  2  3  1  0
  4  5  1  1
  4  2  1  0
  6  4  1  0
  7  6  2  0
  8  9  1  0
  8  6  1  0
 10  9  1  0
 11 12  1  0
 11 10  1  0
 12  8  1  0
 12 13  1  1
 14 13  2  0
 15 13  1  0
 16 17  1  1
 16 15  1  0
 18 17  1  0
 19 18  2  0
 20 19  1  0
 21 20  1  0
 21 26  2  0
 22 21  1  0
 23 22  2  0
 23 24  1  0
 24 25  2  0
 25 26  1  0
 26 18  1  0
 27 16  1  0
 28 27  1  0
 29 27  2  0
M  END
$$$$
