TPW.pdb
     RDKit          3D

 29 31  0  0  1  0  0  0  0  0999 V2000
   27.6026  -16.8525  -13.6786 C   0  0  0  0  0  0  0  0  0  0  0  0
   26.2703  -17.0609  -14.3514 C   0  0  1  0  0  0  0  0  0  0  0  0
   26.0544  -16.0283  -15.2343 O   0  0  0  0  0  0  0  0  0  0  0  0
   26.3641  -18.4228  -15.0649 C   0  0  2  0  0  0  0  0  0  0  0  0
   25.3745  -18.4940  -16.1044 N   0  0  0  0  0  0  0  0  0  0  0  0
   26.3398  -19.5236  -14.0976 C   0  0  0  0  0  0  0  0  0  0  0  0
   25.3626  -19.4711  -13.2641 O   0  0  0  0  0  0  0  0  0  0  0  0
   27.2424  -20.5905  -13.9931 N   0  0  0  0  0  0  0  0  0  0  0  0
   28.0597  -21.2731  -14.9809 C   0  0  0  0  0  0  0  0  0  0  0  0
   29.4181  -21.3406  -14.2460 C   0  0  0  0  0  0  0  0  0  0  0  0
   29.1015  -21.0803  -12.7804 C   0  0  0  0  0  0  0  0  0  0  0  0
   27.6067  -21.3169  -12.7763 C   0  0  1  0  0  0  0  0  0  0  0  0
   27.0205  -20.8391  -11.5463 C   0  0  0  0  0  0  0  0  0  0  0  0
   27.7169  -20.1118  -10.7555 O   0  0  0  0  0  0  0  0  0  0  0  0
   25.6878  -21.0985  -11.0807 N   0  0  0  0  0  0  0  0  0  0  0  0
   25.3886  -21.1362   -9.6498 C   0  0  1  0  0  0  0  0  0  0  0  0
   25.9545  -19.9675   -8.9324 C   0  0  0  0  0  0  0  0  0  0  0  0
   26.2196  -20.1757   -7.4980 C   0  0  0  0  0  0  0  0  0  0  0  0
   25.3384  -20.8531   -6.6463 C   0  0  0  0  0  0  0  0  0  0  0  0
   25.8769  -20.9182   -5.4206 N   0  0  0  0  0  0  0  0  0  0  0  0
   27.0804  -20.3045   -5.4428 C   0  0  0  0  0  0  0  0  0  0  0  0
   27.9886  -20.1143   -4.4237 C   0  0  0  0  0  0  0  0  0  0  0  0
   29.1583  -19.4364   -4.6896 C   0  0  0  0  0  0  0  0  0  0  0  0
   29.4132  -18.9523   -5.9719 C   0  0  0  0  0  0  0  0  0  0  0  0
   28.4775  -19.1629   -6.9704 C   0  0  0  0  0  0  0  0  0  0  0  0
   27.2983  -19.8381   -6.7393 C   0  0  0  0  0  0  0  0  0  0  0  0
   23.9428  -21.3260   -9.4808 C   0  0  0  0  0  0  0  0  0  0  0  0
   23.3183  -21.7178   -8.3035 O   0  0  0  0  0  0  0  0  0  0  0  0
   23.1526  -21.1329  -10.4663 O   0  0  0  0  0  0  0  0  0  0  0  0
  2  1  1  6
  2  3  1  0
  4  5  1  6
  4  2  1  0
  6  4  1  0
  7  6  2  0
  8  9  1  0
  8  6  1  0
 10  9  1  0
 11 12  1  0
 11 10  1  0
 12  8  1  0
 12 13  1  1
 14 13  2  0
 15 13  1  0
 16 17  1  6
 16 15  1  0
 18 17  1  0
 19 18  2  0
 20 19  1  0
 21 20  1  0
 21 26  2  0
 22 21  1  0
 23 22  2  0
 23 24  1  0
 24 25  2  0
 25 26  1  0
 26 18  1  0
 27 16  1  0
 28 27  1  0
 29 27  2  0
M  END
$$$$
