TPW.pdb
     RDKit          3D

 29 31  0  0  1  0  0  0  0  0999 V2000
   26.6105  -17.9993  -15.2609 C   0  0  0  0  0  0  0  0  0  0  0  0
   26.9858  -19.0527  -16.2711 C   0  0  1  0  0  0  0  0  0  0  0  0
   27.9103  -18.5220  -17.1406 O   0  0  0  0  0  0  0  0  0  0  0  0
   27.5612  -20.2302  -15.4618 C   0  0  2  0  0  0  0  0  0  0  0  0
   28.2484  -21.1335  -16.3433 N   0  0  0  0  0  0  0  0  0  0  0  0
   26.5296  -20.8391  -14.6175 C   0  0  0  0  0  0  0  0  0  0  0  0
   25.4020  -21.0163  -15.2085 O   0  0  0  0  0  0  0  0  0  0  0  0
   26.6443  -21.2342  -13.2778 N   0  0  0  0  0  0  0  0  0  0  0  0
   27.7646  -21.7444  -12.5068 C   0  0  0  0  0  0  0  0  0  0  0  0
   27.6501  -20.8950  -11.2202 C   0  0  0  0  0  0  0  0  0  0  0  0
   26.2414  -20.3194  -11.2363 C   0  0  0  0  0  0  0  0  0  0  0  0
   25.5891  -21.2187  -12.2641 C   0  0  1  0  0  0  0  0  0  0  0  0
   24.3148  -20.6788  -12.6754 C   0  0  0  0  0  0  0  0  0  0  0  0
   24.2400  -19.4601  -13.0611 O   0  0  0  0  0  0  0  0  0  0  0  0
   23.0615  -21.3778  -12.7005 N   0  0  0  0  0  0  0  0  0  0  0  0
   21.8522  -20.7291  -13.2057 C   0  0  1  0  0  0  0  0  0  0  0  0
   22.0691  -20.1061  -14.5345 C   0  0  0  0  0  0  0  0  0  0  0  0
   20.8778  -19.4890  -15.1438 C   0  0  0  0  0  0  0  0  0  0  0  0
   20.4187  -18.2104  -14.8043 C   0  0  0  0  0  0  0  0  0  0  0  0
   19.3501  -17.9143  -15.5572 N   0  0  0  0  0  0  0  0  0  0  0  0
   19.0948  -18.9578  -16.3767 C   0  0  0  0  0  0  0  0  0  0  0  0
   18.0968  -19.1151  -17.3141 C   0  0  0  0  0  0  0  0  0  0  0  0
   18.0309  -20.2915  -18.0283 C   0  0  0  0  0  0  0  0  0  0  0  0
   18.9624  -21.3037  -17.8014 C   0  0  0  0  0  0  0  0  0  0  0  0
   19.9511  -21.1094  -16.8519 C   0  0  0  0  0  0  0  0  0  0  0  0
   20.0468  -19.9447  -16.1210 C   0  0  0  0  0  0  0  0  0  0  0  0
   20.7468  -21.6933  -13.1467 C   0  0  0  0  0  0  0  0  0  0  0  0
   19.4262  -21.3810  -12.8497 O   0  0  0  0  0  0  0  0  0  0  0  0
   20.9650  -22.9316  -13.3740 O   0  0  0  0  0  0  0  0  0  0  0  0
  2  1  1  1
  2  3  1  0
  4  5  1  6
  4  2  1  0
  6  4  1  0
  7  6  2  0
  8  9  1  0
  8  6  1  0
 10  9  1  0
 11 12  1  0
 11 10  1  0
 12  8  1  0
 12 13  1  6
 14 13  2  0
 15 13  1  0
 16 17  1  6
 16 15  1  0
 18 17  1  0
 19 18  2  0
 20 19  1  0
 21 20  1  0
 21 26  2  0
 22 21  1  0
 23 22  2  0
 23 24  1  0
 24 25  2  0
 25 26  1  0
 26 18  1  0
 27 16  1  0
 28 27  1  0
 29 27  2  0
M  END
$$$$
