TPW.pdb
     RDKit          3D

 29 31  0  0  1  0  0  0  0  0999 V2000
   29.9911  -31.7162  -16.1759 C   0  0  0  0  0  0  0  0  0  0  0  0
   29.2345  -30.8460  -17.1460 C   0  0  1  0  0  0  0  0  0  0  0  0
   30.0218  -29.7688  -17.4807 O   0  0  0  0  0  0  0  0  0  0  0  0
   28.9254  -31.7378  -18.3633 C   0  0  2  0  0  0  0  0  0  0  0  0
   28.4696  -30.9240  -19.4564 N   0  0  0  0  0  0  0  0  0  0  0  0
   28.0387  -32.8437  -17.9907 C   0  0  0  0  0  0  0  0  0  0  0  0
   27.0523  -32.4988  -17.2422 O   0  0  0  0  0  0  0  0  0  0  0  0
   28.1533  -34.1919  -18.3554 N   0  0  0  0  0  0  0  0  0  0  0  0
   28.6016  -34.8337  -19.5790 C   0  0  0  0  0  0  0  0  0  0  0  0
   29.5380  -35.9266  -19.0144 C   0  0  0  0  0  0  0  0  0  0  0  0
   29.1764  -36.0514  -17.5414 C   0  0  0  0  0  0  0  0  0  0  0  0
   27.8323  -35.3559  -17.5288 C   0  0  1  0  0  0  0  0  0  0  0  0
   27.4148  -35.0826  -16.1739 C   0  0  0  0  0  0  0  0  0  0  0  0
   28.2647  -34.6293  -15.3304 O   0  0  0  0  0  0  0  0  0  0  0  0
   26.0987  -35.2717  -15.6335 N   0  0  0  0  0  0  0  0  0  0  0  0
   25.7893  -34.8771  -14.2598 C   0  0  1  0  0  0  0  0  0  0  0  0
   25.6196  -33.4093  -14.1277 C   0  0  0  0  0  0  0  0  0  0  0  0
   24.4822  -32.8367  -14.8691 C   0  0  0  0  0  0  0  0  0  0  0  0
   23.1901  -33.3748  -14.8254 C   0  0  0  0  0  0  0  0  0  0  0  0
   22.3721  -32.6105  -15.5623 N   0  0  0  0  0  0  0  0  0  0  0  0
   23.0871  -31.5913  -16.0873 C   0  0  0  0  0  0  0  0  0  0  0  0
   22.6796  -30.5662  -16.9135 C   0  0  0  0  0  0  0  0  0  0  0  0
   23.6079  -29.6397  -17.3357 C   0  0  0  0  0  0  0  0  0  0  0  0
   24.9377  -29.7432  -16.9300 C   0  0  0  0  0  0  0  0  0  0  0  0
   25.3098  -30.7863  -16.0992 C   0  0  0  0  0  0  0  0  0  0  0  0
   24.4068  -31.7293  -15.6572 C   0  0  0  0  0  0  0  0  0  0  0  0
   24.6514  -35.6769  -13.7902 C   0  0  0  0  0  0  0  0  0  0  0  0
   24.2201  -35.7601  -12.4723 O   0  0  0  0  0  0  0  0  0  0  0  0
   23.9735  -36.3738  -14.6193 O   0  0  0  0  0  0  0  0  0  0  0  0
  2  1  1  1
  2  3  1  0
  4  5  1  6
  4  2  1  0
  6  4  1  0
  7  6  2  0
  8  9  1  0
  8  6  1  0
 10  9  1  0
 11 12  1  0
 11 10  1  0
 12  8  1  0
 12 13  1  1
 14 13  2  0
 15 13  1  0
 16 17  1  6
 16 15  1  0
 18 17  1  0
 19 18  2  0
 20 19  1  0
 21 20  1  0
 21 26  2  0
 22 21  1  0
 23 22  2  0
 23 24  1  0
 24 25  2  0
 25 26  1  0
 26 18  1  0
 27 16  1  0
 28 27  1  0
 29 27  2  0
M  END
$$$$
