TPW.pdb
     RDKit          3D

 29 31  0  0  1  0  0  0  0  0999 V2000
   26.6390  -16.2810  -15.4891 C   0  0  0  0  0  0  0  0  0  0  0  0
   25.5046  -16.7480  -16.3643 C   0  0  1  0  0  0  0  0  0  0  0  0
   25.2797  -15.8031  -17.3384 O   0  0  0  0  0  0  0  0  0  0  0  0
   25.9547  -18.0961  -16.9582 C   0  0  2  0  0  0  0  0  0  0  0  0
   25.1241  -18.4316  -18.0818 N   0  0  0  0  0  0  0  0  0  0  0  0
   26.0473  -19.1227  -15.9163 C   0  0  0  0  0  0  0  0  0  0  0  0
   25.1360  -19.0406  -15.0135 O   0  0  0  0  0  0  0  0  0  0  0  0
   26.9955  -20.1490  -15.8087 N   0  0  0  0  0  0  0  0  0  0  0  0
   27.8150  -20.8237  -16.8000 C   0  0  0  0  0  0  0  0  0  0  0  0
   29.1932  -20.8166  -16.0996 C   0  0  0  0  0  0  0  0  0  0  0  0
   28.9032  -20.5308  -14.6333 C   0  0  0  0  0  0  0  0  0  0  0  0
   27.4200  -20.8277  -14.5838 C   0  0  1  0  0  0  0  0  0  0  0  0
   26.8458  -20.3418  -13.3514 C   0  0  0  0  0  0  0  0  0  0  0  0
   26.7623  -19.0804  -13.1476 O   0  0  0  0  0  0  0  0  0  0  0  0
   26.3372  -21.1428  -12.2745 N   0  0  0  0  0  0  0  0  0  0  0  0
   26.0877  -20.5565  -10.9582 C   0  0  1  0  0  0  0  0  0  0  0  0
   25.1130  -19.4400  -11.0225 C   0  0  0  0  0  0  0  0  0  0  0  0
   23.7945  -19.7853  -11.5825 C   0  0  0  0  0  0  0  0  0  0  0  0
   22.8339  -20.5245  -10.8813 C   0  0  0  0  0  0  0  0  0  0  0  0
   21.7303  -20.6342  -11.6340 N   0  0  0  0  0  0  0  0  0  0  0  0
   21.9384  -19.9921  -12.8045 C   0  0  0  0  0  0  0  0  0  0  0  0
   21.0989  -19.8459  -13.8876 C   0  0  0  0  0  0  0  0  0  0  0  0
   21.5458  -19.1502  -14.9897 C   0  0  0  0  0  0  0  0  0  0  0  0
   22.8289  -18.6050  -15.0029 C   0  0  0  0  0  0  0  0  0  0  0  0
   23.6437  -18.7720  -13.8961 C   0  0  0  0  0  0  0  0  0  0  0  0
   23.2278  -19.4608  -12.7769 C   0  0  0  0  0  0  0  0  0  0  0  0
   25.7336  -21.6350  -10.0272 C   0  0  0  0  0  0  0  0  0  0  0  0
   25.2848  -21.4542   -8.7251 O   0  0  0  0  0  0  0  0  0  0  0  0
   25.8333  -22.8551  -10.3936 O   0  0  0  0  0  0  0  0  0  0  0  0
  2  1  1  1
  2  3  1  0
  4  5  1  6
  4  2  1  0
  6  4  1  0
  7  6  2  0
  8  9  1  0
  8  6  1  0
 10  9  1  0
 11 12  1  0
 11 10  1  0
 12  8  1  0
 12 13  1  1
 14 13  2  0
 15 13  1  0
 16 17  1  6
 16 15  1  0
 18 17  1  0
 19 18  2  0
 20 19  1  0
 21 20  1  0
 21 26  2  0
 22 21  1  0
 23 22  2  0
 23 24  1  0
 24 25  2  0
 25 26  1  0
 26 18  1  0
 27 16  1  0
 28 27  1  0
 29 27  2  0
M  END
$$$$
