TPW.pdb
     RDKit          3D

 29 31  0  0  1  0  0  0  0  0999 V2000
   27.9966  -17.0433  -14.3899 C   0  0  0  0  0  0  0  0  0  0  0  0
   26.4943  -16.9251  -14.3807 C   0  0  1  0  0  0  0  0  0  0  0  0
   26.1352  -15.7960  -15.0795 O   0  0  0  0  0  0  0  0  0  0  0  0
   25.9639  -18.2100  -15.0442 C   0  0  2  0  0  0  0  0  0  0  0  0
   24.6387  -17.9818  -15.5508 N   0  0  0  0  0  0  0  0  0  0  0  0
   26.1041  -19.3596  -14.1459 C   0  0  0  0  0  0  0  0  0  0  0  0
   25.4362  -19.2581  -13.0523 O   0  0  0  0  0  0  0  0  0  0  0  0
   26.8657  -20.5178  -14.3516 N   0  0  0  0  0  0  0  0  0  0  0  0
   27.2249  -21.2442  -15.5570 C   0  0  0  0  0  0  0  0  0  0  0  0
   28.7345  -21.4804  -15.3218 C   0  0  0  0  0  0  0  0  0  0  0  0
   28.9568  -21.2439  -13.8349 C   0  0  0  0  0  0  0  0  0  0  0  0
   27.5328  -21.3236  -13.3284 C   0  0  1  0  0  0  0  0  0  0  0  0
   27.4480  -20.8339  -11.9728 C   0  0  0  0  0  0  0  0  0  0  0  0
   28.4053  -20.1311  -11.4940 O   0  0  0  0  0  0  0  0  0  0  0  0
   26.3689  -21.0556  -11.0529 N   0  0  0  0  0  0  0  0  0  0  0  0
   26.5951  -21.0127   -9.6088 C   0  0  1  0  0  0  0  0  0  0  0  0
   27.3663  -19.8125   -9.2022 C   0  0  0  0  0  0  0  0  0  0  0  0
   27.4754  -19.5953   -7.7488 C   0  0  0  0  0  0  0  0  0  0  0  0
   26.5417  -18.8558   -7.0124 C   0  0  0  0  0  0  0  0  0  0  0  0
   26.8890  -18.8769   -5.7180 N   0  0  0  0  0  0  0  0  0  0  0  0
   28.0195  -19.6047   -5.5844 C   0  0  0  0  0  0  0  0  0  0  0  0
   28.7497  -19.8935   -4.4517 C   0  0  0  0  0  0  0  0  0  0  0  0
   29.8921  -20.6547   -4.5698 C   0  0  0  0  0  0  0  0  0  0  0  0
   30.2980  -21.1225   -5.8188 C   0  0  0  0  0  0  0  0  0  0  0  0
   29.5386  -20.8125   -6.9342 C   0  0  0  0  0  0  0  0  0  0  0  0
   28.3900  -20.0550   -6.8515 C   0  0  0  0  0  0  0  0  0  0  0  0
   25.3042  -21.1787   -8.9297 C   0  0  0  0  0  0  0  0  0  0  0  0
   25.1396  -21.5467   -7.6004 O   0  0  0  0  0  0  0  0  0  0  0  0
   24.2151  -20.9857   -9.5696 O   0  0  0  0  0  0  0  0  0  0  0  0
  2  1  1  6
  2  3  1  0
  4  5  1  1
  4  2  1  0
  6  4  1  0
  7  6  2  0
  8  9  1  0
  8  6  1  0
 10  9  1  0
 11 12  1  0
 11 10  1  0
 12  8  1  0
 12 13  1  1
 14 13  2  0
 15 13  1  0
 16 17  1  6
 16 15  1  0
 18 17  1  0
 19 18  2  0
 20 19  1  0
 21 20  1  0
 21 26  2  0
 22 21  1  0
 23 22  2  0
 23 24  1  0
 24 25  2  0
 25 26  1  0
 26 18  1  0
 27 16  1  0
 28 27  1  0
 29 27  2  0
M  END
$$$$
