TPW.pdb
     RDKit          3D

 29 31  0  0  1  0  0  0  0  0999 V2000
   26.6047  -25.4525  -17.7658 C   0  0  0  0  0  0  0  0  0  0  0  0
   26.1861  -24.5426  -16.6398 C   0  0  1  0  0  0  0  0  0  0  0  0
   26.2635  -25.2393  -15.4562 O   0  0  0  0  0  0  0  0  0  0  0  0
   27.1599  -23.3497  -16.6744 C   0  0  2  0  0  0  0  0  0  0  0  0
   28.5111  -23.8241  -16.5553 N   0  0  0  0  0  0  0  0  0  0  0  0
   26.7662  -22.3239  -15.7045 C   0  0  0  0  0  0  0  0  0  0  0  0
   26.9258  -22.6705  -14.4770 O   0  0  0  0  0  0  0  0  0  0  0  0
   26.2515  -21.0479  -15.9705 N   0  0  0  0  0  0  0  0  0  0  0  0
   26.3093  -20.2025  -17.1503 C   0  0  0  0  0  0  0  0  0  0  0  0
   24.8377  -19.7407  -17.2561 C   0  0  0  0  0  0  0  0  0  0  0  0
   24.2222  -20.0266  -15.8940 C   0  0  0  0  0  0  0  0  0  0  0  0
   25.4724  -20.2077  -15.0605 C   0  0  1  0  0  0  0  0  0  0  0  0
   25.1478  -20.7846  -13.7773 C   0  0  0  0  0  0  0  0  0  0  0  0
   24.8649  -22.0308  -13.6984 O   0  0  0  0  0  0  0  0  0  0  0  0
   25.0981  -20.0933  -12.5205 N   0  0  0  0  0  0  0  0  0  0  0  0
   24.5558  -20.7443  -11.3286 C   0  0  1  0  0  0  0  0  0  0  0  0
   25.1160  -20.1729  -10.0794 C   0  0  0  0  0  0  0  0  0  0  0  0
   26.4845  -20.6059   -9.7460 C   0  0  0  0  0  0  0  0  0  0  0  0
   27.2417  -21.4517  -10.5658 C   0  0  0  0  0  0  0  0  0  0  0  0
   28.4526  -21.6241  -10.0176 N   0  0  0  0  0  0  0  0  0  0  0  0
   28.5113  -20.9200   -8.8660 C   0  0  0  0  0  0  0  0  0  0  0  0
   29.5432  -20.8019   -7.9600 C   0  0  0  0  0  0  0  0  0  0  0  0
   29.3594  -20.0268   -6.8359 C   0  0  0  0  0  0  0  0  0  0  0  0
   28.1456  -19.3747   -6.6236 C   0  0  0  0  0  0  0  0  0  0  0  0
   27.1320  -19.5164   -7.5560 C   0  0  0  0  0  0  0  0  0  0  0  0
   27.2828  -20.2826   -8.6918 C   0  0  0  0  0  0  0  0  0  0  0  0
   23.0904  -20.7278  -11.4145 C   0  0  0  0  0  0  0  0  0  0  0  0
   22.2454  -21.6902  -10.8766 O   0  0  0  0  0  0  0  0  0  0  0  0
   22.4960  -19.7764  -12.0264 O   0  0  0  0  0  0  0  0  0  0  0  0
  2  1  1  6
  2  3  1  0
  4  5  1  1
  4  2  1  0
  6  4  1  0
  7  6  2  0
  8  9  1  0
  8  6  1  0
 10  9  1  0
 11 12  1  0
 11 10  1  0
 12  8  1  0
 12 13  1  1
 14 13  2  0
 15 13  1  0
 16 17  1  1
 16 15  1  0
 18 17  1  0
 19 18  2  0
 20 19  1  0
 21 20  1  0
 21 26  2  0
 22 21  1  0
 23 22  2  0
 23 24  1  0
 24 25  2  0
 25 26  1  0
 26 18  1  0
 27 16  1  0
 28 27  1  0
 29 27  2  0
M  END
$$$$
