CEW.pdb
     RDKit          3D

 30 31  0  0  1  0  0  0  0  0999 V2000
    8.0664  -14.6700   19.9547 N   0  0  0  0  0  0  0  0  0  0  0  0
    7.1273  -15.3464   20.8821 C   0  0  1  0  0  0  0  0  0  0  0  0
    6.1724  -16.1081   20.0393 C   0  0  0  0  0  0  0  0  0  0  0  0
    4.9832  -17.0575   21.0069 S   0  0  0  0  0  0  0  0  0  0  0  0
    7.9658  -16.0998   21.8086 C   0  0  0  0  0  0  0  0  0  0  0  0
    7.4210  -16.7381   22.7818 O   0  0  0  0  0  0  0  0  0  0  0  0
    9.3840  -16.2095   21.7436 N   0  0  0  0  0  0  0  0  0  0  0  0
   10.1058  -17.0571   22.7175 C   0  0  1  0  0  0  0  0  0  0  0  0
   11.4741  -17.2381   22.1177 C   0  0  0  0  0  0  0  0  0  0  0  0
   12.4144  -18.0766   22.9037 C   0  0  0  0  0  0  0  0  0  0  0  0
   13.7425  -18.1273   22.2751 C   0  0  0  0  0  0  0  0  0  0  0  0
   14.7487  -17.4597   22.5927 O   0  0  0  0  0  0  0  0  0  0  0  0
   10.1414  -16.3815   24.0260 C   0  0  0  0  0  0  0  0  0  0  0  0
   10.4863  -15.1561   24.1502 O   0  0  0  0  0  0  0  0  0  0  0  0
   13.8954  -19.0179   21.2079 O   0  0  0  0  0  0  0  0  0  0  0  0
    9.7825  -17.1136   25.1859 N   0  0  0  0  0  0  0  0  0  0  0  0
   10.0193  -16.5986   26.5063 C   0  0  1  0  0  0  0  0  0  0  0  0
    8.7169  -16.4234   27.2217 C   0  0  0  0  0  0  0  0  0  0  0  0
    7.7604  -15.5684   26.4786 C   0  0  0  0  0  0  0  0  0  0  0  0
    6.7440  -15.9876   25.6409 C   0  0  0  0  0  0  0  0  0  0  0  0
    6.1421  -14.8800   25.1954 N   0  0  0  0  0  0  0  0  0  0  0  0
    6.7104  -13.7702   25.6962 C   0  0  0  0  0  0  0  0  0  0  0  0
    6.4432  -12.4177   25.5301 C   0  0  0  0  0  0  0  0  0  0  0  0
    7.2195  -11.5088   26.1912 C   0  0  0  0  0  0  0  0  0  0  0  0
    8.2508  -11.9035   27.0105 C   0  0  0  0  0  0  0  0  0  0  0  0
    8.5126  -13.2369   27.1731 C   0  0  0  0  0  0  0  0  0  0  0  0
    7.7426  -14.1689   26.5161 C   0  0  0  0  0  0  0  0  0  0  0  0
   10.9829  -17.4266   27.2750 C   0  0  0  0  0  0  0  0  0  0  0  0
   11.4269  -17.0935   28.5521 O   0  0  0  0  0  0  0  0  0  0  0  0
   11.4531  -18.4919   26.7968 O   0  0  0  0  0  0  0  0  0  0  0  0
  2  5  1  0
  2  1  1  6
  3  2  1  0
  4  3  1  0
  5  6  2  0
  7  8  1  0
  7  5  1  0
  8  9  1  6
  9 10  1  0
 10 11  1  0
 11 15  1  0
 11 12  2  0
 13  8  1  0
 14 13  2  0
 16 13  1  0
 17 18  1  1
 17 16  1  0
 19 18  1  0
 20 19  2  0
 21 20  1  0
 22 21  1  0
 22 27  2  0
 23 22  1  0
 24 23  2  0
 24 25  1  0
 25 26  2  0
 26 27  1  0
 27 19  1  0
 28 17  1  0
 28 29  1  0
 30 28  2  0
M  END
$$$$
