CEW.pdb
     RDKit          3D

 30 31  0  0  1  0  0  0  0  0999 V2000
    6.7444  -16.0468   20.0541 N   0  0  0  0  0  0  0  0  0  0  0  0
    7.9466  -15.2833   20.4680 C   0  0  1  0  0  0  0  0  0  0  0  0
    7.4585  -14.0598   21.1515 C   0  0  0  0  0  0  0  0  0  0  0  0
    6.8842  -14.3747   22.8316 S   0  0  0  0  0  0  0  0  0  0  0  0
    8.7564  -16.2170   21.2436 C   0  0  0  0  0  0  0  0  0  0  0  0
    8.2328  -17.3120   21.6656 O   0  0  0  0  0  0  0  0  0  0  0  0
   10.1246  -16.0367   21.5942 N   0  0  0  0  0  0  0  0  0  0  0  0
   10.8152  -17.0480   22.4239 C   0  0  1  0  0  0  0  0  0  0  0  0
   12.1095  -17.3077   21.7015 C   0  0  0  0  0  0  0  0  0  0  0  0
   12.0159  -18.1945   20.5141 C   0  0  0  0  0  0  0  0  0  0  0  0
   13.3397  -18.4449   19.9254 C   0  0  0  0  0  0  0  0  0  0  0  0
   14.4039  -18.6670   20.5395 O   0  0  0  0  0  0  0  0  0  0  0  0
   11.0170  -16.5149   23.7822 C   0  0  0  0  0  0  0  0  0  0  0  0
   11.7524  -15.4937   24.0104 O   0  0  0  0  0  0  0  0  0  0  0  0
   13.4152  -18.4332   18.5291 O   0  0  0  0  0  0  0  0  0  0  0  0
   10.3758  -17.1554   24.8727 N   0  0  0  0  0  0  0  0  0  0  0  0
   10.5040  -16.6646   26.2171 C   0  0  1  0  0  0  0  0  0  0  0  0
   10.0998  -15.2250   26.2703 C   0  0  0  0  0  0  0  0  0  0  0  0
    8.6424  -15.0272   26.0838 C   0  0  0  0  0  0  0  0  0  0  0  0
    7.6960  -15.9993   25.8197 C   0  0  0  0  0  0  0  0  0  0  0  0
    6.5211  -15.3674   25.7319 N   0  0  0  0  0  0  0  0  0  0  0  0
    6.6533  -14.0441   25.9236 C   0  0  0  0  0  0  0  0  0  0  0  0
    5.7415  -12.9968   25.9278 C   0  0  0  0  0  0  0  0  0  0  0  0
    6.1972  -11.7300   26.1587 C   0  0  0  0  0  0  0  0  0  0  0  0
    7.5291  -11.4740   26.3851 C   0  0  0  0  0  0  0  0  0  0  0  0
    8.4263  -12.5074   26.3807 C   0  0  0  0  0  0  0  0  0  0  0  0
    7.9881  -13.7911   26.1500 C   0  0  0  0  0  0  0  0  0  0  0  0
    9.7662  -17.4987   27.1994 C   0  0  0  0  0  0  0  0  0  0  0  0
    9.8932  -17.3469   28.5778 O   0  0  0  0  0  0  0  0  0  0  0  0
    8.9737  -18.4014   26.8228 O   0  0  0  0  0  0  0  0  0  0  0  0
  2  5  1  0
  2  1  1  1
  3  2  1  0
  4  3  1  0
  5  6  2  0
  7  8  1  0
  7  5  1  0
  8  9  1  6
  9 10  1  0
 10 11  1  0
 11 15  1  0
 11 12  2  0
 13  8  1  0
 14 13  2  0
 16 13  1  0
 17 18  1  6
 17 16  1  0
 19 18  1  0
 20 19  2  0
 21 20  1  0
 22 21  1  0
 22 27  2  0
 23 22  1  0
 24 23  2  0
 24 25  1  0
 25 26  2  0
 26 27  1  0
 27 19  1  0
 28 17  1  0
 28 29  1  0
 30 28  2  0
M  END
$$$$
