CEW.pdb
     RDKit          3D

 30 31  0  0  1  0  0  0  0  0999 V2000
    6.3805  -15.7782   19.6604 N   0  0  0  0  0  0  0  0  0  0  0  0
    7.5292  -15.0286   20.2244 C   0  0  1  0  0  0  0  0  0  0  0  0
    6.9756  -13.7866   20.8187 C   0  0  0  0  0  0  0  0  0  0  0  0
    8.2421  -12.7327   21.5515 S   0  0  0  0  0  0  0  0  0  0  0  0
    8.2081  -15.9636   21.1154 C   0  0  0  0  0  0  0  0  0  0  0  0
    7.5153  -16.7799   21.8258 O   0  0  0  0  0  0  0  0  0  0  0  0
    9.6176  -16.0737   21.2855 N   0  0  0  0  0  0  0  0  0  0  0  0
   10.1724  -17.0486   22.2498 C   0  0  1  0  0  0  0  0  0  0  0  0
   11.4381  -17.5408   21.6015 C   0  0  0  0  0  0  0  0  0  0  0  0
   11.2683  -18.2121   20.2880 C   0  0  0  0  0  0  0  0  0  0  0  0
   12.5578  -18.6639   19.7452 C   0  0  0  0  0  0  0  0  0  0  0  0
   13.5919  -18.9305   20.3921 O   0  0  0  0  0  0  0  0  0  0  0  0
   10.4148  -16.3805   23.5400 C   0  0  0  0  0  0  0  0  0  0  0  0
   10.9970  -15.2445   23.6196 O   0  0  0  0  0  0  0  0  0  0  0  0
   12.6346  -18.8108   18.3567 O   0  0  0  0  0  0  0  0  0  0  0  0
    9.9896  -17.0180   24.7330 N   0  0  0  0  0  0  0  0  0  0  0  0
   10.4061  -16.5520   26.0270 C   0  0  1  0  0  0  0  0  0  0  0  0
   10.0186  -15.1168   26.1961 C   0  0  0  0  0  0  0  0  0  0  0  0
    8.5554  -14.8984   26.0990 C   0  0  0  0  0  0  0  0  0  0  0  0
    7.5793  -15.8596   25.9151 C   0  0  0  0  0  0  0  0  0  0  0  0
    6.4110  -15.2101   25.8898 N   0  0  0  0  0  0  0  0  0  0  0  0
    6.5755  -13.8857   26.0465 C   0  0  0  0  0  0  0  0  0  0  0  0
    5.6819  -12.8237   26.0880 C   0  0  0  0  0  0  0  0  0  0  0  0
    6.1707  -11.5604   26.2644 C   0  0  0  0  0  0  0  0  0  0  0  0
    7.5182  -11.3223   26.4003 C   0  0  0  0  0  0  0  0  0  0  0  0
    8.3973  -12.3702   26.3592 C   0  0  0  0  0  0  0  0  0  0  0  0
    7.9257  -13.6506   26.1823 C   0  0  0  0  0  0  0  0  0  0  0  0
    9.9027  -17.4102   27.1292 C   0  0  0  0  0  0  0  0  0  0  0  0
    9.1068  -18.5335   26.9197 O   0  0  0  0  0  0  0  0  0  0  0  0
   10.1788  -17.1562   28.3309 O   0  0  0  0  0  0  0  0  0  0  0  0
  2  5  1  0
  2  1  1  1
  3  2  1  0
  4  3  1  0
  5  6  2  0
  7  8  1  0
  7  5  1  0
  8  9  1  6
  9 10  1  0
 10 11  1  0
 11 15  1  0
 11 12  2  0
 13  8  1  0
 14 13  2  0
 16 13  1  0
 17 18  1  1
 17 16  1  0
 19 18  1  0
 20 19  2  0
 21 20  1  0
 22 21  1  0
 22 27  2  0
 23 22  1  0
 24 23  2  0
 24 25  1  0
 25 26  2  0
 26 27  1  0
 27 19  1  0
 28 17  1  0
 28 29  1  0
 30 28  2  0
M  END
$$$$
