CEW.pdb
     RDKit          3D

 30 31  0  0  1  0  0  0  0  0999 V2000
    7.6049  -17.5650   18.1885 N   0  0  0  0  0  0  0  0  0  0  0  0
    8.3417  -16.3930   18.7203 C   0  0  1  0  0  0  0  0  0  0  0  0
    7.3330  -15.3324   18.9655 C   0  0  0  0  0  0  0  0  0  0  0  0
    7.9120  -14.0618   20.1066 S   0  0  0  0  0  0  0  0  0  0  0  0
    9.0958  -16.8907   19.8659 C   0  0  0  0  0  0  0  0  0  0  0  0
    8.5495  -17.7334   20.6675 O   0  0  0  0  0  0  0  0  0  0  0  0
   10.4312  -16.5281   20.2019 N   0  0  0  0  0  0  0  0  0  0  0  0
   11.0447  -17.0368   21.4480 C   0  0  1  0  0  0  0  0  0  0  0  0
   12.5175  -17.0975   21.1452 C   0  0  0  0  0  0  0  0  0  0  0  0
   12.9651  -18.2795   20.3659 C   0  0  0  0  0  0  0  0  0  0  0  0
   14.3361  -18.1042   19.8644 C   0  0  0  0  0  0  0  0  0  0  0  0
   15.3955  -18.2687   20.5043 O   0  0  0  0  0  0  0  0  0  0  0  0
   10.7281  -16.1241   22.5600 C   0  0  0  0  0  0  0  0  0  0  0  0
   10.6446  -14.8580   22.3989 O   0  0  0  0  0  0  0  0  0  0  0  0
   14.4677  -17.7116   18.5288 O   0  0  0  0  0  0  0  0  0  0  0  0
   10.5096  -16.6666   23.8517 N   0  0  0  0  0  0  0  0  0  0  0  0
    9.6555  -16.0177   24.8078 C   0  0  1  0  0  0  0  0  0  0  0  0
    8.3376  -15.7000   24.1746 C   0  0  0  0  0  0  0  0  0  0  0  0
    7.3959  -15.0323   25.1048 C   0  0  0  0  0  0  0  0  0  0  0  0
    6.2818  -15.5882   25.7050 C   0  0  0  0  0  0  0  0  0  0  0  0
    5.7393  -14.6255   26.4573 N   0  0  0  0  0  0  0  0  0  0  0  0
    6.4376  -13.4803   26.3781 C   0  0  0  0  0  0  0  0  0  0  0  0
    6.2708  -12.2325   26.9640 C   0  0  0  0  0  0  0  0  0  0  0  0
    7.1720  -11.2467   26.6780 C   0  0  0  0  0  0  0  0  0  0  0  0
    8.2315  -11.4640   25.8289 C   0  0  0  0  0  0  0  0  0  0  0  0
    8.3944  -12.6945   25.2524 C   0  0  0  0  0  0  0  0  0  0  0  0
    7.4978  -13.7013   25.5272 C   0  0  0  0  0  0  0  0  0  0  0  0
    9.5096  -16.7991   26.0620 C   0  0  0  0  0  0  0  0  0  0  0  0
    9.3514  -18.1824   26.0857 O   0  0  0  0  0  0  0  0  0  0  0  0
    9.5228  -16.2343   27.1870 O   0  0  0  0  0  0  0  0  0  0  0  0
  2  5  1  0
  2  1  1  1
  3  2  1  0
  4  3  1  0
  5  6  2  0
  7  8  1  0
  7  5  1  0
  8  9  1  6
  9 10  1  0
 10 11  1  0
 11 15  1  0
 11 12  2  0
 13  8  1  0
 14 13  2  0
 16 13  1  0
 17 18  1  6
 17 16  1  0
 19 18  1  0
 20 19  2  0
 21 20  1  0
 22 21  1  0
 22 27  2  0
 23 22  1  0
 24 23  2  0
 24 25  1  0
 25 26  2  0
 26 27  1  0
 27 19  1  0
 28 17  1  0
 28 29  1  0
 30 28  2  0
M  END
$$$$
