CEW.pdb
     RDKit          3D

 30 31  0  0  1  0  0  0  0  0999 V2000
    7.1984  -16.7947   20.0089 N   0  0  0  0  0  0  0  0  0  0  0  0
    7.8225  -15.6652   20.7398 C   0  0  1  0  0  0  0  0  0  0  0  0
    6.7116  -14.8273   21.2559 C   0  0  0  0  0  0  0  0  0  0  0  0
    7.2863  -13.3535   22.1216 S   0  0  0  0  0  0  0  0  0  0  0  0
    8.7207  -16.2767   21.7135 C   0  0  0  0  0  0  0  0  0  0  0  0
    8.3417  -17.3223   22.3572 O   0  0  0  0  0  0  0  0  0  0  0  0
   10.0298  -15.8195   22.0373 N   0  0  0  0  0  0  0  0  0  0  0  0
   10.8302  -16.5302   23.0582 C   0  0  1  0  0  0  0  0  0  0  0  0
   12.2591  -16.2797   22.6579 C   0  0  0  0  0  0  0  0  0  0  0  0
   13.2880  -16.9331   23.5061 C   0  0  0  0  0  0  0  0  0  0  0  0
   14.6440  -16.6755   22.9995 C   0  0  0  0  0  0  0  0  0  0  0  0
   15.3527  -15.6736   23.2291 O   0  0  0  0  0  0  0  0  0  0  0  0
   10.5099  -15.9965   24.3932 C   0  0  0  0  0  0  0  0  0  0  0  0
   10.4817  -14.7410   24.6357 O   0  0  0  0  0  0  0  0  0  0  0  0
   15.1993  -17.6570   22.1726 O   0  0  0  0  0  0  0  0  0  0  0  0
   10.2242  -16.9043   25.4443 N   0  0  0  0  0  0  0  0  0  0  0  0
   10.0450  -16.4581   26.7985 C   0  0  1  0  0  0  0  0  0  0  0  0
    8.6377  -16.7193   27.2345 C   0  0  0  0  0  0  0  0  0  0  0  0
    7.6463  -15.8818   26.5177 C   0  0  0  0  0  0  0  0  0  0  0  0
    6.6648  -16.3140   25.6458 C   0  0  0  0  0  0  0  0  0  0  0  0
    6.0100  -15.2200   25.2434 N   0  0  0  0  0  0  0  0  0  0  0  0
    6.5113  -14.1067   25.8043 C   0  0  0  0  0  0  0  0  0  0  0  0
    6.1740  -12.7639   25.6976 C   0  0  0  0  0  0  0  0  0  0  0  0
    6.8917  -11.8475   26.4125 C   0  0  0  0  0  0  0  0  0  0  0  0
    7.9321  -12.2255   27.2282 C   0  0  0  0  0  0  0  0  0  0  0  0
    8.2631  -13.5493   27.3322 C   0  0  0  0  0  0  0  0  0  0  0  0
    7.5528  -14.4886   26.6204 C   0  0  0  0  0  0  0  0  0  0  0  0
   11.0454  -17.0434   27.7268 C   0  0  0  0  0  0  0  0  0  0  0  0
   11.1523  -16.6745   29.0653 O   0  0  0  0  0  0  0  0  0  0  0  0
   11.8610  -17.9198   27.3377 O   0  0  0  0  0  0  0  0  0  0  0  0
  2  5  1  0
  2  1  1  1
  3  2  1  0
  4  3  1  0
  5  6  2  0
  7  8  1  0
  7  5  1  0
  8  9  1  6
  9 10  1  0
 10 11  1  0
 11 15  1  0
 11 12  2  0
 13  8  1  0
 14 13  2  0
 16 13  1  0
 17 18  1  1
 17 16  1  0
 19 18  1  0
 20 19  2  0
 21 20  1  0
 22 21  1  0
 22 27  2  0
 23 22  1  0
 24 23  2  0
 24 25  1  0
 25 26  2  0
 26 27  1  0
 27 19  1  0
 28 17  1  0
 28 29  1  0
 30 28  2  0
M  END
$$$$
