CEW.pdb
     RDKit          3D

 30 31  0  0  1  0  0  0  0  0999 V2000
    7.9084  -21.3408   22.3926 N   0  0  0  0  0  0  0  0  0  0  0  0
    7.7054  -20.0866   23.1575 C   0  0  1  0  0  0  0  0  0  0  0  0
    6.8990  -20.4427   24.3514 C   0  0  0  0  0  0  0  0  0  0  0  0
    5.1482  -20.6597   23.9779 S   0  0  0  0  0  0  0  0  0  0  0  0
    9.0407  -19.5413   23.3781 C   0  0  0  0  0  0  0  0  0  0  0  0
   10.0013  -20.3288   23.7070 O   0  0  0  0  0  0  0  0  0  0  0  0
    9.4079  -18.1707   23.2592 N   0  0  0  0  0  0  0  0  0  0  0  0
   10.7976  -17.7499   23.5417 C   0  0  1  0  0  0  0  0  0  0  0  0
   11.1123  -16.7442   22.4675 C   0  0  0  0  0  0  0  0  0  0  0  0
   11.5146  -17.3105   21.1551 C   0  0  0  0  0  0  0  0  0  0  0  0
   11.7935  -16.2501   20.1755 C   0  0  0  0  0  0  0  0  0  0  0  0
   12.9142  -15.8095   19.8457 O   0  0  0  0  0  0  0  0  0  0  0  0
   10.8724  -17.1787   24.8975 C   0  0  0  0  0  0  0  0  0  0  0  0
   11.9198  -16.5852   25.3293 O   0  0  0  0  0  0  0  0  0  0  0  0
   10.6859  -15.6735   19.5461 O   0  0  0  0  0  0  0  0  0  0  0  0
    9.7467  -17.2914   25.7522 N   0  0  0  0  0  0  0  0  0  0  0  0
    9.7631  -16.7751   27.0931 C   0  0  1  0  0  0  0  0  0  0  0  0
    8.3667  -16.4658   27.5327 C   0  0  0  0  0  0  0  0  0  0  0  0
    7.5923  -15.7191   26.5126 C   0  0  0  0  0  0  0  0  0  0  0  0
    6.7237  -16.2452   25.5749 C   0  0  0  0  0  0  0  0  0  0  0  0
    6.2557  -15.2091   24.8716 N   0  0  0  0  0  0  0  0  0  0  0  0
    6.7712  -14.0445   25.3000 C   0  0  0  0  0  0  0  0  0  0  0  0
    6.5930  -12.7288   24.8934 C   0  0  0  0  0  0  0  0  0  0  0  0
    7.2765  -11.7417   25.5447 C   0  0  0  0  0  0  0  0  0  0  0  0
    8.1298  -12.0229   26.5856 C   0  0  0  0  0  0  0  0  0  0  0  0
    8.3042  -13.3202   26.9850 C   0  0  0  0  0  0  0  0  0  0  0  0
    7.6252  -14.3297   26.3423 C   0  0  0  0  0  0  0  0  0  0  0  0
   10.4708  -17.6741   28.0397 C   0  0  0  0  0  0  0  0  0  0  0  0
   10.7233  -17.3384   29.3674 O   0  0  0  0  0  0  0  0  0  0  0  0
   10.8841  -18.8066   27.6774 O   0  0  0  0  0  0  0  0  0  0  0  0
  2  5  1  0
  2  1  1  6
  3  2  1  0
  4  3  1  0
  5  6  2  0
  7  8  1  0
  7  5  1  0
  8  9  1  6
  9 10  1  0
 10 11  1  0
 11 15  1  0
 11 12  2  0
 13  8  1  0
 14 13  2  0
 16 13  1  0
 17 18  1  1
 17 16  1  0
 19 18  1  0
 20 19  2  0
 21 20  1  0
 22 21  1  0
 22 27  2  0
 23 22  1  0
 24 23  2  0
 24 25  1  0
 25 26  2  0
 26 27  1  0
 27 19  1  0
 28 17  1  0
 28 29  1  0
 30 28  2  0
M  END
$$$$
