CEW.pdb
     RDKit          3D

 30 31  0  0  1  0  0  0  0  0999 V2000
    7.2360  -16.2429   19.3208 N   0  0  0  0  0  0  0  0  0  0  0  0
    7.7196  -15.3352   20.3893 C   0  0  1  0  0  0  0  0  0  0  0  0
    6.5249  -14.6403   20.9297 C   0  0  0  0  0  0  0  0  0  0  0  0
    6.9327  -13.4212   22.1943 S   0  0  0  0  0  0  0  0  0  0  0  0
    8.4861  -16.1771   21.3018 C   0  0  0  0  0  0  0  0  0  0  0  0
    8.0378  -17.3380   21.6218 O   0  0  0  0  0  0  0  0  0  0  0  0
    9.7331  -15.8347   21.8979 N   0  0  0  0  0  0  0  0  0  0  0  0
   10.4223  -16.8024   22.7792 C   0  0  1  0  0  0  0  0  0  0  0  0
   11.8111  -16.9078   22.2094 C   0  0  0  0  0  0  0  0  0  0  0  0
   11.9423  -17.7394   20.9862 C   0  0  0  0  0  0  0  0  0  0  0  0
   13.3510  -18.0347   20.6863 C   0  0  0  0  0  0  0  0  0  0  0  0
   13.8268  -19.1303   20.3228 O   0  0  0  0  0  0  0  0  0  0  0  0
   10.4105  -16.3009   24.1642 C   0  0  0  0  0  0  0  0  0  0  0  0
   10.9383  -15.1816   24.4875 O   0  0  0  0  0  0  0  0  0  0  0  0
   14.2543  -16.9759   20.8224 O   0  0  0  0  0  0  0  0  0  0  0  0
    9.7948  -17.0851   25.1724 N   0  0  0  0  0  0  0  0  0  0  0  0
    9.8638  -16.7190   26.5602 C   0  0  1  0  0  0  0  0  0  0  0  0
    8.4975  -16.7781   27.1670 C   0  0  0  0  0  0  0  0  0  0  0  0
    7.5437  -15.8353   26.5351 C   0  0  0  0  0  0  0  0  0  0  0  0
    6.4832  -16.1519   25.7070 C   0  0  0  0  0  0  0  0  0  0  0  0
    5.9032  -14.9932   25.3779 N   0  0  0  0  0  0  0  0  0  0  0  0
    6.5271  -13.9468   25.9447 C   0  0  0  0  0  0  0  0  0  0  0  0
    6.3000  -12.5776   25.9006 C   0  0  0  0  0  0  0  0  0  0  0  0
    7.1307  -11.7511   26.6024 C   0  0  0  0  0  0  0  0  0  0  0  0
    8.1778  -12.2440   27.3450 C   0  0  0  0  0  0  0  0  0  0  0  0
    8.3999  -13.5937   27.3875 C   0  0  0  0  0  0  0  0  0  0  0  0
    7.5749  -14.4438   26.6876 C   0  0  0  0  0  0  0  0  0  0  0  0
   10.8554  -17.5285   27.3129 C   0  0  0  0  0  0  0  0  0  0  0  0
   11.2013  -17.2737   28.6375 O   0  0  0  0  0  0  0  0  0  0  0  0
   11.4418  -18.5046   26.7761 O   0  0  0  0  0  0  0  0  0  0  0  0
  2  5  1  0
  2  1  1  6
  3  2  1  0
  4  3  1  0
  5  6  2  0
  7  8  1  0
  7  5  1  0
  8  9  1  6
  9 10  1  0
 10 11  1  0
 11 15  1  0
 11 12  2  0
 13  8  1  0
 14 13  2  0
 16 13  1  0
 17 18  1  1
 17 16  1  0
 19 18  1  0
 20 19  2  0
 21 20  1  0
 22 21  1  0
 22 27  2  0
 23 22  1  0
 24 23  2  0
 24 25  1  0
 25 26  2  0
 26 27  1  0
 27 19  1  0
 28 17  1  0
 28 29  1  0
 30 28  2  0
M  END
$$$$
