RTT.pdb
     RDKit          3D

 26 25  0  0  1  0  0  0  0  0999 V2000
    7.8156  -21.8970   16.2908 N   0  0  0  0  0  0  0  0  0  0  0  0
    7.9097  -20.5034   16.6942 C   0  0  0  0  0  0  0  0  0  0  0  0
    6.9659  -19.9704   17.3623 N   0  0  0  0  0  0  0  0  0  0  0  0
    9.0343  -19.7277   16.3553 N   0  0  0  0  0  0  0  0  0  0  0  0
    9.2753  -18.4045   16.7519 C   0  0  0  0  0  0  0  0  0  0  0  0
    8.7105  -17.2716   15.9858 C   0  0  0  0  0  0  0  0  0  0  0  0
    7.5077  -16.6307   16.6493 C   0  0  0  0  0  0  0  0  0  0  0  0
    7.7794  -15.1344   16.7892 C   0  0  2  0  0  0  0  0  0  0  0  0
    8.3987  -14.6136   15.6050 N   0  0  0  0  0  0  0  0  0  0  0  0
    8.5341  -14.8194   18.0194 C   0  0  0  0  0  0  0  0  0  0  0  0
    9.7396  -14.4255   17.8952 O   0  0  0  0  0  0  0  0  0  0  0  0
    6.9543  -19.0128   17.6792 C   0  0  0  0  0  0  0  0  0  0  0  0
    7.5711  -12.3498   20.5042 C   0  0  2  0  0  0  0  0  0  0  0  0
    7.9283  -13.5805   21.2700 O   0  0  0  0  0  0  0  0  0  0  0  0
    6.7056  -14.2761   21.4866 C   0  0  2  0  0  0  0  0  0  0  0  0
    8.8016  -14.5680   20.5294 N   0  0  0  0  0  0  0  0  0  0  0  0
    8.0092  -14.9251   19.3295 C   0  0  0  0  0  0  0  0  0  0  0  0
    9.0509  -15.8208   21.3202 O   0  0  0  0  0  0  0  0  0  0  0  0
    8.2369  -16.7498   21.1837 C   0  0  0  0  0  0  0  0  0  0  0  0
   11.8535  -18.0113   21.2165 C   0  0  2  0  0  0  0  0  0  0  0  0
   11.8562  -17.5889   22.6778 O   0  0  0  0  0  0  0  0  0  0  0  0
   12.8652  -16.6075   22.7811 C   0  0  2  0  0  0  0  0  0  0  0  0
   10.5315  -16.9838   23.0574 N   0  0  0  0  0  0  0  0  0  0  0  0
   10.1503  -15.9347   22.1695 C   0  0  0  0  0  0  0  0  0  0  0  0
   10.3586  -16.7720   24.4939 O   0  0  0  0  0  0  0  0  0  0  0  0
   10.5463  -17.7468   25.4318 O   0  0  0  0  0  0  0  0  0  0  0  0
  1  2  1  0
  2  3  2  0
  4  2  1  0
  4  5  1  0
  5  6  1  0
  7  6  1  0
  8  7  1  0
  8  9  1  6
 10  8  1  0
 11 10  2  0
 13 12  1  1
 13 15  1  0
 14 13  1  0
 15 16  1  1
 16 10  1  0
 17 23  1  0
 17 15  1  0
 18 17  2  0
 20 19  1  1
 20 22  1  0
 21 20  1  0
 22 24  1  0
 22 23  1  1
 24 25  1  0
 26 24  2  0
M  END
$$$$
