RTT.pdb
     RDKit          3D

 26 25  0  0  1  0  0  0  0  0999 V2000
   14.4630  -16.4667   14.6475 N   0  0  0  0  0  0  0  0  0  0  0  0
   14.6635  -17.8128   15.1589 C   0  0  0  0  0  0  0  0  0  0  0  0
   15.8413  -18.2313   15.4013 N   0  0  0  0  0  0  0  0  0  0  0  0
   13.5696  -18.6675   15.3913 N   0  0  0  0  0  0  0  0  0  0  0  0
   12.2185  -18.3558   15.1827 C   0  0  0  0  0  0  0  0  0  0  0  0
   11.6609  -17.0657   15.6454 C   0  0  0  0  0  0  0  0  0  0  0  0
   11.1271  -17.1095   17.0633 C   0  0  0  0  0  0  0  0  0  0  0  0
    9.9237  -16.1732   17.1506 C   0  0  2  0  0  0  0  0  0  0  0  0
    9.8737  -15.2967   16.0164 N   0  0  0  0  0  0  0  0  0  0  0  0
    9.8736  -15.4514   18.4384 C   0  0  0  0  0  0  0  0  0  0  0  0
   10.8180  -14.6380   18.7034 O   0  0  0  0  0  0  0  0  0  0  0  0
   16.0634  -19.1415   15.7752 C   0  0  0  0  0  0  0  0  0  0  0  0
    7.4734  -13.1077   19.5917 C   0  0  2  0  0  0  0  0  0  0  0  0
    7.6101  -14.0789   20.7172 O   0  0  0  0  0  0  0  0  0  0  0  0
    6.5650  -15.0293   20.5438 C   0  0  2  0  0  0  0  0  0  0  0  0
    8.8784  -14.9019   20.7061 N   0  0  0  0  0  0  0  0  0  0  0  0
    8.8462  -15.6012   19.4004 C   0  0  0  0  0  0  0  0  0  0  0  0
    8.9017  -15.9367   21.7950 O   0  0  0  0  0  0  0  0  0  0  0  0
    8.3046  -17.0043   21.5766 C   0  0  0  0  0  0  0  0  0  0  0  0
   12.0754  -16.6408   23.8912 C   0  0  2  0  0  0  0  0  0  0  0  0
   10.9480  -16.3841   24.8796 O   0  0  0  0  0  0  0  0  0  0  0  0
   11.1452  -15.0633   25.3362 C   0  0  2  0  0  0  0  0  0  0  0  0
    9.6109  -16.4808   24.1958 N   0  0  0  0  0  0  0  0  0  0  0  0
    9.5670  -15.7073   22.9983 C   0  0  0  0  0  0  0  0  0  0  0  0
    8.4668  -16.4159   25.1041 O   0  0  0  0  0  0  0  0  0  0  0  0
    8.3056  -17.2411   26.1804 O   0  0  0  0  0  0  0  0  0  0  0  0
  1  2  1  0
  2  3  2  0
  4  2  1  0
  4  5  1  0
  5  6  1  0
  7  6  1  0
  8  7  1  0
  8  9  1  6
 10  8  1  0
 11 10  2  0
 13 12  1  1
 13 15  1  0
 14 13  1  0
 15 16  1  1
 16 10  1  0
 17 23  1  0
 17 15  1  0
 18 17  2  0
 20 19  1  1
 20 22  1  0
 21 20  1  0
 22 24  1  0
 22 23  1  1
 24 25  1  0
 26 24  2  0
M  END
$$$$
