RTT.pdb
     RDKit          3D

 26 25  0  0  1  0  0  0  0  0999 V2000
    4.3486  -19.4793   13.9986 N   0  0  0  0  0  0  0  0  0  0  0  0
    4.6517  -19.3888   15.4177 C   0  0  0  0  0  0  0  0  0  0  0  0
    3.7245  -19.5438   16.2764 N   0  0  0  0  0  0  0  0  0  0  0  0
    5.9621  -19.1297   15.8613 N   0  0  0  0  0  0  0  0  0  0  0  0
    7.1321  -19.2517   15.0981 C   0  0  0  0  0  0  0  0  0  0  0  0
    8.0726  -20.3700   15.3311 C   0  0  0  0  0  0  0  0  0  0  0  0
    8.6249  -20.4138   16.7420 C   0  0  0  0  0  0  0  0  0  0  0  0
    9.7458  -21.4502   16.7850 C   0  0  2  0  0  0  0  0  0  0  0  0
   10.2701  -21.6920   15.4721 N   0  0  0  0  0  0  0  0  0  0  0  0
    9.3316  -22.6882   17.4763 C   0  0  0  0  0  0  0  0  0  0  0  0
    8.1764  -23.1588   17.2160 O   0  0  0  0  0  0  0  0  0  0  0  0
    3.8634  -19.5713   17.2753 C   0  0  0  0  0  0  0  0  0  0  0  0
   12.0768  -25.5480   18.7575 C   0  0  2  0  0  0  0  0  0  0  0  0
   10.6386  -25.6963   18.3859 O   0  0  0  0  0  0  0  0  0  0  0  0
   10.2196  -26.9426   18.9307 C   0  0  1  0  0  0  0  0  0  0  0  0
    9.7065  -24.6785   19.0036 N   0  0  0  0  0  0  0  0  0  0  0  0
   10.1315  -23.3893   18.4100 C   0  0  0  0  0  0  0  0  0  0  0  0
    9.8637  -24.5858   20.4949 O   0  0  0  0  0  0  0  0  0  0  0  0
   10.8696  -23.9960   20.9242 C   0  0  0  0  0  0  0  0  0  0  0  0
    6.6480  -24.1151   22.8767 C   0  0  2  0  0  0  0  0  0  0  0  0
    7.4826  -25.3103   23.3110 O   0  0  0  0  0  0  0  0  0  0  0  0
    6.8554  -26.4341   22.7316 C   0  0  2  0  0  0  0  0  0  0  0  0
    8.8874  -25.1962   22.7834 N   0  0  0  0  0  0  0  0  0  0  0  0
    8.9189  -25.1377   21.3586 C   0  0  0  0  0  0  0  0  0  0  0  0
    9.8548  -26.0572   23.4623 O   0  0  0  0  0  0  0  0  0  0  0  0
   10.0538  -26.0555   24.8135 O   0  0  0  0  0  0  0  0  0  0  0  0
  1  2  1  0
  2  3  2  0
  4  2  1  0
  4  5  1  0
  5  6  1  0
  7  6  1  0
  8  7  1  0
  8  9  1  6
 10  8  1  0
 11 10  2  0
 13 12  1  6
 13 15  1  0
 14 13  1  0
 15 16  1  6
 16 10  1  0
 17 23  1  0
 17 15  1  0
 18 17  2  0
 20 19  1  1
 20 22  1  0
 21 20  1  0
 22 24  1  0
 22 23  1  1
 24 25  1  0
 26 24  2  0
M  END
$$$$
