RTT.pdb
     RDKit          3D

 26 25  0  0  1  0  0  0  0  0999 V2000
   11.7004  -17.2154   12.3919 N   0  0  0  0  0  0  0  0  0  0  0  0
   11.5745  -18.6543   12.5578 C   0  0  0  0  0  0  0  0  0  0  0  0
   12.2707  -19.4400   11.8374 N   0  0  0  0  0  0  0  0  0  0  0  0
   10.6888  -19.1971   13.5075 N   0  0  0  0  0  0  0  0  0  0  0  0
    9.7025  -18.4941   14.2141 C   0  0  0  0  0  0  0  0  0  0  0  0
    9.9658  -17.1299   14.7232 C   0  0  0  0  0  0  0  0  0  0  0  0
    9.9971  -17.0429   16.2361 C   0  0  0  0  0  0  0  0  0  0  0  0
    9.0019  -15.9706   16.6742 C   0  0  2  0  0  0  0  0  0  0  0  0
    8.7916  -15.0100   15.6301 N   0  0  0  0  0  0  0  0  0  0  0  0
    9.3838  -15.3497   17.9590 C   0  0  0  0  0  0  0  0  0  0  0  0
   10.5201  -14.7774   18.0305 O   0  0  0  0  0  0  0  0  0  0  0  0
   12.2415  -20.4471   11.8898 C   0  0  0  0  0  0  0  0  0  0  0  0
    7.6261  -12.7365   19.7154 C   0  0  2  0  0  0  0  0  0  0  0  0
    7.9209  -13.7694   20.7521 O   0  0  0  0  0  0  0  0  0  0  0  0
    6.7500  -14.5725   20.8493 C   0  0  2  0  0  0  0  0  0  0  0  0
    9.0214  -14.7429   20.3952 N   0  0  0  0  0  0  0  0  0  0  0  0
    8.5726  -15.3466   19.1188 C   0  0  0  0  0  0  0  0  0  0  0  0
    9.1690  -15.8408   21.4101 O   0  0  0  0  0  0  0  0  0  0  0  0
    8.3147  -16.7431   21.3988 C   0  0  0  0  0  0  0  0  0  0  0  0
   12.2673  -17.7597   21.9560 C   0  0  2  0  0  0  0  0  0  0  0  0
   11.9335  -17.2361   23.3445 O   0  0  0  0  0  0  0  0  0  0  0  0
   12.8153  -16.1550   23.5580 C   0  0  2  0  0  0  0  0  0  0  0  0
   10.5139  -16.7392   23.3968 N   0  0  0  0  0  0  0  0  0  0  0  0
   10.2215  -15.8459   22.3240 C   0  0  0  0  0  0  0  0  0  0  0  0
   10.0516  -16.3849   24.7381 O   0  0  0  0  0  0  0  0  0  0  0  0
   10.1307  -17.2233   25.8133 O   0  0  0  0  0  0  0  0  0  0  0  0
  1  2  1  0
  2  3  2  0
  4  2  1  0
  4  5  1  0
  5  6  1  0
  7  6  1  0
  8  7  1  0
  8  9  1  6
 10  8  1  0
 11 10  2  0
 13 12  1  1
 13 15  1  0
 14 13  1  0
 15 16  1  1
 16 10  1  0
 17 23  1  0
 17 15  1  0
 18 17  2  0
 20 19  1  1
 20 22  1  0
 21 20  1  0
 22 24  1  0
 22 23  1  1
 24 25  1  0
 26 24  2  0
M  END
$$$$
