RTT.pdb
     RDKit          3D

 26 25  0  0  1  0  0  0  0  0999 V2000
    9.4586  -21.0537   13.5776 N   0  0  0  0  0  0  0  0  0  0  0  0
    9.2138  -19.9647   12.6460 C   0  0  0  0  0  0  0  0  0  0  0  0
    9.3770  -20.1488   11.3967 N   0  0  0  0  0  0  0  0  0  0  0  0
    8.7974  -18.7011   13.1053 N   0  0  0  0  0  0  0  0  0  0  0  0
    8.5286  -18.3533   14.4368 C   0  0  0  0  0  0  0  0  0  0  0  0
    9.6011  -18.3805   15.4559 C   0  0  0  0  0  0  0  0  0  0  0  0
    9.1039  -18.1332   16.8662 C   0  0  0  0  0  0  0  0  0  0  0  0
    8.5967  -16.6950   16.9493 C   0  0  2  0  0  0  0  0  0  0  0  0
    8.8551  -15.9897   15.7274 N   0  0  0  0  0  0  0  0  0  0  0  0
    9.1143  -15.9913   18.1405 C   0  0  0  0  0  0  0  0  0  0  0  0
   10.3139  -15.5629   18.1059 O   0  0  0  0  0  0  0  0  0  0  0  0
    9.2621  -19.4380   10.6901 C   0  0  0  0  0  0  0  0  0  0  0  0
    7.5429  -13.0124   19.8060 C   0  0  2  0  0  0  0  0  0  0  0  0
    7.8499  -14.0350   20.8494 O   0  0  0  0  0  0  0  0  0  0  0  0
    6.6717  -14.8218   20.9856 C   0  0  2  0  0  0  0  0  0  0  0  0
    8.9292  -15.0272   20.4795 N   0  0  0  0  0  0  0  0  0  0  0  0
    8.3677  -15.7595   19.3203 C   0  0  0  0  0  0  0  0  0  0  0  0
    9.2003  -16.0172   21.5765 O   0  0  0  0  0  0  0  0  0  0  0  0
    8.5386  -17.0690   21.5685 C   0  0  0  0  0  0  0  0  0  0  0  0
   12.8548  -15.4978   23.7699 C   0  0  2  0  0  0  0  0  0  0  0  0
   12.1060  -16.8063   23.5678 O   0  0  0  0  0  0  0  0  0  0  0  0
   12.5019  -17.6329   24.6411 C   0  0  1  0  0  0  0  0  0  0  0  0
   10.6193  -16.5821   23.6333 N   0  0  0  0  0  0  0  0  0  0  0  0
   10.1552  -15.7651   22.5602 C   0  0  0  0  0  0  0  0  0  0  0  0
   10.1121  -16.3122   24.9780 O   0  0  0  0  0  0  0  0  0  0  0  0
   10.2972  -17.1504   26.0403 O   0  0  0  0  0  0  0  0  0  0  0  0
  1  2  1  0
  2  3  2  0
  4  2  1  0
  4  5  1  0
  5  6  1  0
  7  6  1  0
  8  7  1  0
  8  9  1  6
 10  8  1  0
 11 10  2  0
 13 12  1  1
 13 15  1  0
 14 13  1  0
 15 16  1  1
 16 10  1  0
 17 23  1  0
 17 15  1  0
 18 17  2  0
 20 19  1  6
 20 22  1  0
 21 20  1  0
 22 24  1  0
 22 23  1  6
 24 25  1  0
 26 24  2  0
M  END
$$$$
