RTT.pdb
     RDKit          3D

 26 25  0  0  1  0  0  0  0  0999 V2000
   10.8516  -14.6115   17.2650 N   0  0  0  0  0  0  0  0  0  0  0  0
   11.5813  -14.2799   18.4780 C   0  0  0  0  0  0  0  0  0  0  0  0
   12.7121  -14.8186   18.7063 N   0  0  0  0  0  0  0  0  0  0  0  0
   11.0544  -13.3674   19.4112 N   0  0  0  0  0  0  0  0  0  0  0  0
    9.7685  -12.8088   19.3853 C   0  0  0  0  0  0  0  0  0  0  0  0
    8.6984  -13.4145   18.5622 C   0  0  0  0  0  0  0  0  0  0  0  0
    7.5807  -14.0313   19.3794 C   0  0  0  0  0  0  0  0  0  0  0  0
    8.0739  -15.3660   19.9339 C   0  0  2  0  0  0  0  0  0  0  0  0
    7.8732  -16.4210   18.9831 N   0  0  0  0  0  0  0  0  0  0  0  0
    7.4924  -15.6665   21.2582 C   0  0  0  0  0  0  0  0  0  0  0  0
    6.4485  -16.3961   21.2996 O   0  0  0  0  0  0  0  0  0  0  0  0
   13.2439  -14.7032   19.5558 C   0  0  0  0  0  0  0  0  0  0  0  0
    7.6461  -17.8971   22.5871 C   0  0  2  0  0  0  0  0  0  0  0  0
    7.8988  -17.1298   23.8424 O   0  0  0  0  0  0  0  0  0  0  0  0
    9.3115  -17.1134   24.0141 C   0  0  2  0  0  0  0  0  0  0  0  0
    7.5045  -15.6708   23.7948 N   0  0  0  0  0  0  0  0  0  0  0  0
    8.0162  -15.1987   22.4870 C   0  0  0  0  0  0  0  0  0  0  0  0
    8.1607  -14.8624   24.8779 O   0  0  0  0  0  0  0  0  0  0  0  0
    9.3716  -14.6156   24.7476 C   0  0  0  0  0  0  0  0  0  0  0  0
    6.2991  -11.7117   26.3957 C   0  0  2  0  0  0  0  0  0  0  0  0
    6.7036  -12.6672   27.5079 O   0  0  0  0  0  0  0  0  0  0  0  0
    5.5583  -13.4522   27.7610 C   0  0  2  0  0  0  0  0  0  0  0  0
    7.8295  -13.5586   27.0581 N   0  0  0  0  0  0  0  0  0  0  0  0
    7.4394  -14.4082   25.9808 C   0  0  0  0  0  0  0  0  0  0  0  0
    8.6076  -14.1400   28.1512 O   0  0  0  0  0  0  0  0  0  0  0  0
    8.9364  -15.4633   28.2274 O   0  0  0  0  0  0  0  0  0  0  0  0
  1  2  1  0
  2  3  2  0
  4  2  1  0
  4  5  1  0
  5  6  1  0
  7  6  1  0
  8  7  1  0
  8  9  1  6
 10  8  1  0
 11 10  2  0
 13 12  1  1
 13 15  1  0
 14 13  1  0
 15 16  1  1
 16 10  1  0
 17 23  1  0
 17 15  1  0
 18 17  2  0
 20 19  1  1
 20 22  1  0
 21 20  1  0
 22 24  1  0
 22 23  1  1
 24 25  1  0
 26 24  2  0
M  END
$$$$
