RTT.pdb
     RDKit          3D

 26 25  0  0  1  0  0  0  0  0999 V2000
    9.7282  -21.3031   16.9055 N   0  0  0  0  0  0  0  0  0  0  0  0
    8.4711  -21.8650   17.3720 C   0  0  0  0  0  0  0  0  0  0  0  0
    8.3156  -23.1281   17.4112 N   0  0  0  0  0  0  0  0  0  0  0  0
    7.4150  -21.0300   17.7829 N   0  0  0  0  0  0  0  0  0  0  0  0
    7.5077  -19.6602   18.0678 C   0  0  0  0  0  0  0  0  0  0  0  0
    8.6915  -19.1124   18.7664 C   0  0  0  0  0  0  0  0  0  0  0  0
    8.3671  -18.4827   20.1064 C   0  0  0  0  0  0  0  0  0  0  0  0
    8.6173  -16.9797   20.0017 C   0  0  2  0  0  0  0  0  0  0  0  0
    9.3401  -16.6633   18.8040 N   0  0  0  0  0  0  0  0  0  0  0  0
    9.2542  -16.4364   21.2188 C   0  0  0  0  0  0  0  0  0  0  0  0
   10.4918  -16.1385   21.1621 O   0  0  0  0  0  0  0  0  0  0  0  0
    7.4960  -23.5966   17.7668 C   0  0  0  0  0  0  0  0  0  0  0  0
    8.1216  -13.4681   23.2597 C   0  0  2  0  0  0  0  0  0  0  0  0
    8.3416  -14.6287   24.1724 O   0  0  0  0  0  0  0  0  0  0  0  0
    7.0820  -15.2815   24.2869 C   0  0  2  0  0  0  0  0  0  0  0  0
    9.2755  -15.6942   23.6444 N   0  0  0  0  0  0  0  0  0  0  0  0
    8.5827  -16.2233   22.4464 C   0  0  0  0  0  0  0  0  0  0  0  0
    9.4667  -16.8239   24.6161 O   0  0  0  0  0  0  0  0  0  0  0  0
    8.5967  -17.7108   24.6340 C   0  0  0  0  0  0  0  0  0  0  0  0
   12.7420  -19.3696   27.2575 C   0  0  2  0  0  0  0  0  0  0  0  0
   12.3993  -18.2493   26.2874 O   0  0  0  0  0  0  0  0  0  0  0  0
   12.6050  -18.7930   25.0013 C   0  0  1  0  0  0  0  0  0  0  0  0
   10.9571  -17.8445   26.4327 N   0  0  0  0  0  0  0  0  0  0  0  0
   10.5750  -16.8737   25.4601 C   0  0  0  0  0  0  0  0  0  0  0  0
   10.5267  -17.6451   27.8159 O   0  0  0  0  0  0  0  0  0  0  0  0
   10.5637  -18.6221   28.7696 O   0  0  0  0  0  0  0  0  0  0  0  0
  1  2  1  0
  2  3  2  0
  4  2  1  0
  4  5  1  0
  5  6  1  0
  7  6  1  0
  8  7  1  0
  8  9  1  6
 10  8  1  0
 11 10  2  0
 13 12  1  1
 13 15  1  0
 14 13  1  0
 15 16  1  1
 16 10  1  0
 17 23  1  0
 17 15  1  0
 18 17  2  0
 20 19  1  1
 20 22  1  0
 21 20  1  0
 22 24  1  0
 22 23  1  1
 24 25  1  0
 26 24  2  0
M  END
$$$$
