ECY.pdb
     RDKit          3D

 28 28  0  0  1  0  0  0  0  0999 V2000
   10.9483  -16.8707   17.7446 N   0  0  0  0  0  0  0  0  0  0  0  0
   10.0935  -17.6398   18.6792 C   0  0  1  0  0  0  0  0  0  0  0  0
   10.8705  -18.7927   19.2326 C   0  0  0  0  0  0  0  0  0  0  0  0
   12.1355  -18.3583   19.8701 C   0  0  0  0  0  0  0  0  0  0  0  0
   12.9360  -19.4581   20.4374 C   0  0  0  0  0  0  0  0  0  0  0  0
   14.0186  -19.2505   20.9921 O   0  0  0  0  0  0  0  0  0  0  0  0
    9.7485  -16.6899   19.7855 C   0  0  0  0  0  0  0  0  0  0  0  0
   10.6236  -15.8981   20.2523 O   0  0  0  0  0  0  0  0  0  0  0  0
   12.4023  -20.7464   20.3126 O   0  0  0  0  0  0  0  0  0  0  0  0
    8.4560  -16.6131   20.3699 N   0  0  0  0  0  0  0  0  0  0  0  0
    8.1922  -15.6403   21.4104 C   0  0  1  0  0  0  0  0  0  0  0  0
    6.7096  -15.5744   21.7164 C   0  0  0  0  0  0  0  0  0  0  0  0
    5.7569  -15.1560   20.2462 S   0  0  0  0  0  0  0  0  0  0  0  0
    8.8770  -15.9936   22.6730 C   0  0  0  0  0  0  0  0  0  0  0  0
    9.1895  -17.1914   22.8696 O   0  0  0  0  0  0  0  0  0  0  0  0
   11.6845  -15.7306   30.9574 O   0  0  0  0  0  0  0  0  0  0  0  0
   11.2352  -15.3499   29.7029 C   0  0  0  0  0  0  0  0  0  0  0  0
   10.0671  -14.6061   29.5645 C   0  0  0  0  0  0  0  0  0  0  0  0
    9.6214  -14.2286   28.3215 C   0  0  0  0  0  0  0  0  0  0  0  0
   10.2981  -14.5624   27.1663 C   0  0  0  0  0  0  0  0  0  0  0  0
    9.7676  -14.1257   25.8395 C   0  0  0  0  0  0  0  0  0  0  0  0
    9.6627  -15.3923   24.9963 C   0  0  2  0  0  0  0  0  0  0  0  0
    9.1961  -15.0410   23.6697 N   0  0  0  0  0  0  0  0  0  0  0  0
    8.7248  -16.3499   25.6081 C   0  0  0  0  0  0  0  0  0  0  0  0
    7.4772  -16.2337   25.4973 O   0  0  0  0  0  0  0  0  0  0  0  0
   11.4540  -15.2976   27.2920 C   0  0  0  0  0  0  0  0  0  0  0  0
   11.9076  -15.6806   28.5425 C   0  0  0  0  0  0  0  0  0  0  0  0
    9.2067  -17.4283   26.3384 O   0  0  0  0  0  0  0  0  0  0  0  0
  2  1  1  6
  3  2  1  0
  3  4  1  0
  4  5  1  0
  5  9  1  0
  5  6  2  0
  7  2  1  0
  8  7  2  0
 10  7  1  0
 11 14  1  0
 11 10  1  0
 11 12  1  1
 13 12  1  0
 14 23  1  0
 15 14  2  0
 16 17  1  0
 17 18  2  0
 17 27  1  0
 18 19  1  0
 19 20  2  0
 20 21  1  0
 22 21  1  1
 22 24  1  0
 23 22  1  0
 24 25  2  0
 24 28  1  0
 26 20  1  0
 27 26  2  0
M  END
$$$$
