ECY.pdb
     RDKit          3D

 28 28  0  0  1  0  0  0  0  0999 V2000
    8.7394  -18.8495   21.3859 N   0  0  0  0  0  0  0  0  0  0  0  0
   10.0100  -18.2330   20.9375 C   0  0  1  0  0  0  0  0  0  0  0  0
   10.1511  -18.4010   19.4572 C   0  0  0  0  0  0  0  0  0  0  0  0
    8.8388  -18.4141   18.7696 C   0  0  0  0  0  0  0  0  0  0  0  0
    8.9258  -18.5150   17.3018 C   0  0  0  0  0  0  0  0  0  0  0  0
    7.9148  -18.5628   16.5958 O   0  0  0  0  0  0  0  0  0  0  0  0
    9.8908  -16.7764   21.2682 C   0  0  0  0  0  0  0  0  0  0  0  0
   10.8373  -15.9745   21.0006 O   0  0  0  0  0  0  0  0  0  0  0  0
   10.2140  -18.5535   16.7548 O   0  0  0  0  0  0  0  0  0  0  0  0
    8.7435  -16.2104   21.8858 N   0  0  0  0  0  0  0  0  0  0  0  0
    8.8230  -14.8939   22.4848 C   0  0  1  0  0  0  0  0  0  0  0  0
    7.4685  -14.2150   22.4642 C   0  0  0  0  0  0  0  0  0  0  0  0
    6.5188  -14.6956   21.0111 S   0  0  0  0  0  0  0  0  0  0  0  0
    9.2478  -14.9640   23.9000 C   0  0  0  0  0  0  0  0  0  0  0  0
    9.4986  -13.8944   24.5034 O   0  0  0  0  0  0  0  0  0  0  0  0
    6.0138  -11.3412   27.0537 O   0  0  0  0  0  0  0  0  0  0  0  0
    6.6020  -12.5944   26.9901 C   0  0  0  0  0  0  0  0  0  0  0  0
    7.8023  -12.8478   27.6473 C   0  0  0  0  0  0  0  0  0  0  0  0
    8.3856  -14.0895   27.5845 C   0  0  0  0  0  0  0  0  0  0  0  0
    7.8202  -15.1314   26.8782 C   0  0  0  0  0  0  0  0  0  0  0  0
    8.4983  -16.4623   26.8431 C   0  0  0  0  0  0  0  0  0  0  0  0
    9.7561  -16.2661   26.0030 C   0  0  2  0  0  0  0  0  0  0  0  0
    9.3838  -16.1837   24.6046 N   0  0  0  0  0  0  0  0  0  0  0  0
   10.6921  -17.3876   26.1958 C   0  0  0  0  0  0  0  0  0  0  0  0
   11.0653  -18.1230   25.2459 O   0  0  0  0  0  0  0  0  0  0  0  0
    6.6336  -14.8915   26.2249 C   0  0  0  0  0  0  0  0  0  0  0  0
    6.0415  -13.6416   26.2850 C   0  0  0  0  0  0  0  0  0  0  0  0
   11.1962  -17.6659   27.4595 O   0  0  0  0  0  0  0  0  0  0  0  0
  2  1  1  6
  3  2  1  0
  3  4  1  0
  4  5  1  0
  5  9  1  0
  5  6  2  0
  7  2  1  0
  8  7  2  0
 10  7  1  0
 11 14  1  0
 11 10  1  0
 11 12  1  1
 13 12  1  0
 14 23  1  0
 15 14  2  0
 16 17  1  0
 17 18  2  0
 17 27  1  0
 18 19  1  0
 19 20  2  0
 20 21  1  0
 22 21  1  1
 22 24  1  0
 23 22  1  0
 24 25  2  0
 24 28  1  0
 26 20  1  0
 27 26  2  0
M  END
$$$$
