ECY.pdb
     RDKit          3D

 28 28  0  0  1  0  0  0  0  0999 V2000
    9.8582  -15.4836   20.3037 N   0  0  0  0  0  0  0  0  0  0  0  0
    8.4790  -15.0207   20.5851 C   0  0  1  0  0  0  0  0  0  0  0  0
    7.5636  -15.4900   19.4983 C   0  0  0  0  0  0  0  0  0  0  0  0
    8.2153  -16.4789   18.6080 C   0  0  0  0  0  0  0  0  0  0  0  0
    7.3478  -16.9868   17.5302 C   0  0  0  0  0  0  0  0  0  0  0  0
    6.1859  -16.5935   17.3958 O   0  0  0  0  0  0  0  0  0  0  0  0
    8.0927  -15.6670   21.8806 C   0  0  0  0  0  0  0  0  0  0  0  0
    6.9259  -15.5133   22.3555 O   0  0  0  0  0  0  0  0  0  0  0  0
    7.9127  -17.9365   16.6706 O   0  0  0  0  0  0  0  0  0  0  0  0
    8.9804  -16.4722   22.6431 N   0  0  0  0  0  0  0  0  0  0  0  0
    8.5417  -17.0324   23.9050 C   0  0  1  0  0  0  0  0  0  0  0  0
    8.6544  -18.5433   23.8865 C   0  0  0  0  0  0  0  0  0  0  0  0
    7.9196  -19.2714   25.3610 S   0  0  0  0  0  0  0  0  0  0  0  0
    9.3713  -16.5527   25.0318 C   0  0  0  0  0  0  0  0  0  0  0  0
   10.6028  -16.4079   24.8494 O   0  0  0  0  0  0  0  0  0  0  0  0
    6.3484  -10.8883   25.0531 O   0  0  0  0  0  0  0  0  0  0  0  0
    6.9449  -11.8548   25.8471 C   0  0  0  0  0  0  0  0  0  0  0  0
    6.2148  -12.9501   26.2987 C   0  0  0  0  0  0  0  0  0  0  0  0
    6.8055  -13.9082   27.0857 C   0  0  0  0  0  0  0  0  0  0  0  0
    8.1310  -13.8343   27.4620 C   0  0  0  0  0  0  0  0  0  0  0  0
    8.7226  -14.9048   28.3201 C   0  0  0  0  0  0  0  0  0  0  0  0
    9.6270  -15.7209   27.4023 C   0  0  2  0  0  0  0  0  0  0  0  0
    8.8381  -16.2491   26.3071 N   0  0  0  0  0  0  0  0  0  0  0  0
   10.2497  -16.8345   28.1395 C   0  0  0  0  0  0  0  0  0  0  0  0
    9.9619  -18.0373   27.9100 O   0  0  0  0  0  0  0  0  0  0  0  0
    8.8617  -12.7555   27.0208 C   0  0  0  0  0  0  0  0  0  0  0  0
    8.2712  -11.7870   26.2274 C   0  0  0  0  0  0  0  0  0  0  0  0
   11.1907  -16.5769   29.1278 O   0  0  0  0  0  0  0  0  0  0  0  0
  2  1  1  6
  3  2  1  0
  3  4  1  0
  4  5  1  0
  5  9  1  0
  5  6  2  0
  7  2  1  0
  8  7  2  0
 10  7  1  0
 11 14  1  0
 11 10  1  0
 11 12  1  6
 13 12  1  0
 14 23  1  0
 15 14  2  0
 16 17  1  0
 17 18  2  0
 17 27  1  0
 18 19  1  0
 19 20  2  0
 20 21  1  0
 22 21  1  1
 22 24  1  0
 23 22  1  0
 24 25  2  0
 24 28  1  0
 26 20  1  0
 27 26  2  0
M  END
$$$$
