ECY.pdb
     RDKit          3D

 28 28  0  0  1  0  0  0  0  0999 V2000
    9.5025  -13.3857   19.9154 N   0  0  0  0  0  0  0  0  0  0  0  0
    8.0739  -13.7754   19.9691 C   0  0  1  0  0  0  0  0  0  0  0  0
    7.6271  -14.2224   18.6127 C   0  0  0  0  0  0  0  0  0  0  0  0
    8.5452  -13.7644   17.5438 C   0  0  0  0  0  0  0  0  0  0  0  0
    8.2199  -14.2833   16.2033 C   0  0  0  0  0  0  0  0  0  0  0  0
    7.2989  -15.0854   16.0263 O   0  0  0  0  0  0  0  0  0  0  0  0
    8.0053  -14.9273   20.9250 C   0  0  0  0  0  0  0  0  0  0  0  0
    6.8932  -15.4749   21.1967 O   0  0  0  0  0  0  0  0  0  0  0  0
    9.0105  -13.8178   15.1458 O   0  0  0  0  0  0  0  0  0  0  0  0
    9.1474  -15.4691   21.5731 N   0  0  0  0  0  0  0  0  0  0  0  0
    8.9904  -16.5467   22.5284 C   0  0  1  0  0  0  0  0  0  0  0  0
    9.8630  -17.7265   22.1507 C   0  0  0  0  0  0  0  0  0  0  0  0
    9.7292  -19.0527   23.3622 S   0  0  0  0  0  0  0  0  0  0  0  0
    9.3939  -16.1313   23.8896 C   0  0  0  0  0  0  0  0  0  0  0  0
   10.4739  -15.5112   24.0308 O   0  0  0  0  0  0  0  0  0  0  0  0
    6.1605  -10.5668   25.5815 O   0  0  0  0  0  0  0  0  0  0  0  0
    6.5463  -11.8390   25.9729 C   0  0  0  0  0  0  0  0  0  0  0  0
    7.6558  -12.0219   26.7929 C   0  0  0  0  0  0  0  0  0  0  0  0
    8.0386  -13.2825   27.1810 C   0  0  0  0  0  0  0  0  0  0  0  0
    7.3537  -14.4126   26.7839 C   0  0  0  0  0  0  0  0  0  0  0  0
    7.8145  -15.7602   27.2356 C   0  0  0  0  0  0  0  0  0  0  0  0
    9.0411  -16.0854   26.3896 C   0  0  2  0  0  0  0  0  0  0  0  0
    8.6159  -16.4016   25.0404 N   0  0  0  0  0  0  0  0  0  0  0  0
    9.7746  -17.2320   26.9537 C   0  0  0  0  0  0  0  0  0  0  0  0
    9.6919  -18.3888   26.4667 O   0  0  0  0  0  0  0  0  0  0  0  0
    6.2554  -14.2428   25.9732 C   0  0  0  0  0  0  0  0  0  0  0  0
    5.8653  -12.9744   25.5791 C   0  0  0  0  0  0  0  0  0  0  0  0
   10.5935  -17.0591   28.0619 O   0  0  0  0  0  0  0  0  0  0  0  0
  2  1  1  6
  3  2  1  0
  3  4  1  0
  4  5  1  0
  5  9  1  0
  5  6  2  0
  7  2  1  0
  8  7  2  0
 10  7  1  0
 11 14  1  0
 11 10  1  0
 11 12  1  6
 13 12  1  0
 14 23  1  0
 15 14  2  0
 16 17  1  0
 17 18  2  0
 17 27  1  0
 18 19  1  0
 19 20  2  0
 20 21  1  0
 22 21  1  1
 22 24  1  0
 23 22  1  0
 24 25  2  0
 24 28  1  0
 26 20  1  0
 27 26  2  0
M  END
$$$$
