ECY.pdb
     RDKit          3D

 28 28  0  0  1  0  0  0  0  0999 V2000
   11.8602  -19.5087   20.3645 N   0  0  0  0  0  0  0  0  0  0  0  0
   12.4540  -18.1824   20.0745 C   0  0  1  0  0  0  0  0  0  0  0  0
   12.4461  -17.9443   18.5971 C   0  0  0  0  0  0  0  0  0  0  0  0
   12.4022  -19.2100   17.8282 C   0  0  0  0  0  0  0  0  0  0  0  0
   12.3765  -19.0290   16.3658 C   0  0  0  0  0  0  0  0  0  0  0  0
   13.3711  -19.2492   15.6694 O   0  0  0  0  0  0  0  0  0  0  0  0
   11.5622  -17.1846   20.7485 C   0  0  0  0  0  0  0  0  0  0  0  0
   11.5651  -15.9684   20.3861 O   0  0  0  0  0  0  0  0  0  0  0  0
   11.1659  -18.5948   15.8125 O   0  0  0  0  0  0  0  0  0  0  0  0
   10.6784  -17.5224   21.8080 N   0  0  0  0  0  0  0  0  0  0  0  0
   10.0456  -16.4732   22.5809 C   0  0  1  0  0  0  0  0  0  0  0  0
    8.7343  -16.9575   23.1657 C   0  0  0  0  0  0  0  0  0  0  0  0
    7.6530  -17.6192   21.8862 S   0  0  0  0  0  0  0  0  0  0  0  0
   10.8920  -16.0471   23.7167 C   0  0  0  0  0  0  0  0  0  0  0  0
   10.3997  -15.2767   24.5742 O   0  0  0  0  0  0  0  0  0  0  0  0
    9.0754  -13.1284   28.8066 O   0  0  0  0  0  0  0  0  0  0  0  0
    9.9430  -14.0092   28.1805 C   0  0  0  0  0  0  0  0  0  0  0  0
   11.2903  -13.6928   28.0344 C   0  0  0  0  0  0  0  0  0  0  0  0
   12.1505  -14.5654   27.4140 C   0  0  0  0  0  0  0  0  0  0  0  0
   11.7290  -15.7798   26.9124 C   0  0  0  0  0  0  0  0  0  0  0  0
   12.7080  -16.6908   26.2460 C   0  0  0  0  0  0  0  0  0  0  0  0
   13.0987  -16.0002   24.9435 C   0  0  2  0  0  0  0  0  0  0  0  0
   12.2327  -16.4696   23.8801 N   0  0  0  0  0  0  0  0  0  0  0  0
   14.5010  -16.2925   24.5985 C   0  0  0  0  0  0  0  0  0  0  0  0
   15.4623  -15.9243   25.3215 O   0  0  0  0  0  0  0  0  0  0  0  0
   10.3990  -16.1023   27.0518 C   0  0  0  0  0  0  0  0  0  0  0  0
    9.5278  -15.2264   27.6763 C   0  0  0  0  0  0  0  0  0  0  0  0
   14.8020  -16.9976   23.4406 O   0  0  0  0  0  0  0  0  0  0  0  0
  2  1  1  6
  3  2  1  0
  3  4  1  0
  4  5  1  0
  5  9  1  0
  5  6  2  0
  7  2  1  0
  8  7  2  0
 10  7  1  0
 11 14  1  0
 11 10  1  0
 11 12  1  1
 13 12  1  0
 14 23  1  0
 15 14  2  0
 16 17  1  0
 17 18  2  0
 17 27  1  0
 18 19  1  0
 19 20  2  0
 20 21  1  0
 22 21  1  1
 22 24  1  0
 23 22  1  0
 24 25  2  0
 24 28  1  0
 26 20  1  0
 27 26  2  0
M  END
$$$$
