ECY.pdb
     RDKit          3D

 28 28  0  0  1  0  0  0  0  0999 V2000
    7.9085  -19.7776   20.3968 N   0  0  0  0  0  0  0  0  0  0  0  0
    9.0043  -19.1948   21.2063 C   0  0  1  0  0  0  0  0  0  0  0  0
    9.7118  -18.1460   20.4071 C   0  0  0  0  0  0  0  0  0  0  0  0
   11.0074  -18.6293   19.8751 C   0  0  0  0  0  0  0  0  0  0  0  0
   11.7419  -17.6336   19.0743 C   0  0  0  0  0  0  0  0  0  0  0  0
   12.8389  -17.8905   18.5709 O   0  0  0  0  0  0  0  0  0  0  0  0
    8.3388  -18.5604   22.3895 C   0  0  0  0  0  0  0  0  0  0  0  0
    7.5525  -17.5761   22.2365 O   0  0  0  0  0  0  0  0  0  0  0  0
   11.1286  -16.3850   18.9168 O   0  0  0  0  0  0  0  0  0  0  0  0
    8.5368  -19.0048   23.7241 N   0  0  0  0  0  0  0  0  0  0  0  0
    7.9096  -18.2955   24.8204 C   0  0  1  0  0  0  0  0  0  0  0  0
    7.2595  -19.2682   25.7834 C   0  0  0  0  0  0  0  0  0  0  0  0
    6.4209  -18.4014   27.1211 S   0  0  0  0  0  0  0  0  0  0  0  0
    8.8951  -17.5136   25.5984 C   0  0  0  0  0  0  0  0  0  0  0  0
   10.0407  -17.9932   25.7674 O   0  0  0  0  0  0  0  0  0  0  0  0
    6.2674  -12.4745   22.5026 O   0  0  0  0  0  0  0  0  0  0  0  0
    6.8999  -12.8722   23.6697 C   0  0  0  0  0  0  0  0  0  0  0  0
    8.2692  -13.1204   23.6842 C   0  0  0  0  0  0  0  0  0  0  0  0
    8.8965  -13.5146   24.8406 C   0  0  0  0  0  0  0  0  0  0  0  0
    8.2120  -13.6818   26.0269 C   0  0  0  0  0  0  0  0  0  0  0  0
    8.9447  -14.1130   27.2555 C   0  0  0  0  0  0  0  0  0  0  0  0
    9.5615  -15.4665   26.9184 C   0  0  2  0  0  0  0  0  0  0  0  0
    8.6042  -16.2479   26.1606 N   0  0  0  0  0  0  0  0  0  0  0  0
    9.9252  -16.1943   28.1468 C   0  0  0  0  0  0  0  0  0  0  0  0
    9.4046  -17.2974   28.4542 O   0  0  0  0  0  0  0  0  0  0  0  0
    6.8579  -13.4390   26.0235 C   0  0  0  0  0  0  0  0  0  0  0  0
    6.2207  -13.0415   24.8606 C   0  0  0  0  0  0  0  0  0  0  0  0
   10.8732  -15.6679   29.0144 O   0  0  0  0  0  0  0  0  0  0  0  0
  2  1  1  6
  3  2  1  0
  3  4  1  0
  4  5  1  0
  5  9  1  0
  5  6  2  0
  7  2  1  0
  8  7  2  0
 10  7  1  0
 11 14  1  0
 11 10  1  0
 11 12  1  1
 13 12  1  0
 14 23  1  0
 15 14  2  0
 16 17  1  0
 17 18  2  0
 17 27  1  0
 18 19  1  0
 19 20  2  0
 20 21  1  0
 22 21  1  1
 22 24  1  0
 23 22  1  0
 24 25  2  0
 24 28  1  0
 26 20  1  0
 27 26  2  0
M  END
$$$$
