ECY.pdb
     RDKit          3D

 28 28  0  0  1  0  0  0  0  0999 V2000
    7.2476  -19.6285   20.1334 N   0  0  0  0  0  0  0  0  0  0  0  0
    6.3865  -18.5608   20.6940 C   0  0  1  0  0  0  0  0  0  0  0  0
    5.8064  -19.0191   21.9950 C   0  0  0  0  0  0  0  0  0  0  0  0
    6.8203  -19.6638   22.8618 C   0  0  0  0  0  0  0  0  0  0  0  0
    6.2835  -20.1994   24.1256 C   0  0  0  0  0  0  0  0  0  0  0  0
    6.3779  -19.5737   25.1850 O   0  0  0  0  0  0  0  0  0  0  0  0
    7.2951  -17.3934   20.9331 C   0  0  0  0  0  0  0  0  0  0  0  0
    8.5284  -17.5740   21.1715 O   0  0  0  0  0  0  0  0  0  0  0  0
    5.6630  -21.4526   24.0580 O   0  0  0  0  0  0  0  0  0  0  0  0
    6.8506  -16.0444   20.9096 N   0  0  0  0  0  0  0  0  0  0  0  0
    7.7944  -14.9705   21.1429 C   0  0  1  0  0  0  0  0  0  0  0  0
    7.1843  -13.6337   20.7734 C   0  0  0  0  0  0  0  0  0  0  0  0
    8.4572  -12.3975   20.4640 S   0  0  0  0  0  0  0  0  0  0  0  0
    8.1836  -14.8870   22.5676 C   0  0  0  0  0  0  0  0  0  0  0  0
    7.4500  -14.2404   23.3516 O   0  0  0  0  0  0  0  0  0  0  0  0
    6.0898  -10.9617   26.9687 O   0  0  0  0  0  0  0  0  0  0  0  0
    6.7134  -12.1393   26.5880 C   0  0  0  0  0  0  0  0  0  0  0  0
    8.1019  -12.2290   26.5615 C   0  0  0  0  0  0  0  0  0  0  0  0
    8.7204  -13.3958   26.1843 C   0  0  0  0  0  0  0  0  0  0  0  0
    8.0079  -14.5194   25.8186 C   0  0  0  0  0  0  0  0  0  0  0  0
    8.7323  -15.7627   25.4164 C   0  0  0  0  0  0  0  0  0  0  0  0
    9.8185  -15.3149   24.4438 C   0  0  2  0  0  0  0  0  0  0  0  0
    9.3466  -15.5042   23.0864 N   0  0  0  0  0  0  0  0  0  0  0  0
   11.0531  -16.0933   24.6465 C   0  0  0  0  0  0  0  0  0  0  0  0
   11.5076  -16.8736   23.7708 O   0  0  0  0  0  0  0  0  0  0  0  0
    6.6347  -14.4413   25.8415 C   0  0  0  0  0  0  0  0  0  0  0  0
    6.0063  -13.2677   26.2208 C   0  0  0  0  0  0  0  0  0  0  0  0
   11.7606  -15.9814   25.8362 O   0  0  0  0  0  0  0  0  0  0  0  0
  2  1  1  1
  3  2  1  0
  3  4  1  0
  4  5  1  0
  5  9  1  0
  5  6  2  0
  7  2  1  0
  8  7  2  0
 10  7  1  0
 11 14  1  0
 11 10  1  0
 11 12  1  1
 13 12  1  0
 14 23  1  0
 15 14  2  0
 16 17  1  0
 17 18  2  0
 17 27  1  0
 18 19  1  0
 19 20  2  0
 20 21  1  0
 22 21  1  1
 22 24  1  0
 23 22  1  0
 24 25  2  0
 24 28  1  0
 26 20  1  0
 27 26  2  0
M  END
$$$$
