ECY.pdb
     RDKit          3D

 28 28  0  0  1  0  0  0  0  0999 V2000
    9.3024  -18.3783   18.7624 N   0  0  0  0  0  0  0  0  0  0  0  0
   10.6946  -18.0878   19.1786 C   0  0  1  0  0  0  0  0  0  0  0  0
   11.3644  -17.2532   18.1326 C   0  0  0  0  0  0  0  0  0  0  0  0
   11.6262  -18.0186   16.8913 C   0  0  0  0  0  0  0  0  0  0  0  0
   12.8122  -18.8910   16.9572 C   0  0  0  0  0  0  0  0  0  0  0  0
   12.7097  -20.1203   16.9901 O   0  0  0  0  0  0  0  0  0  0  0  0
   10.5803  -17.3028   20.4499 C   0  0  0  0  0  0  0  0  0  0  0  0
   11.5959  -16.7242   20.9443 O   0  0  0  0  0  0  0  0  0  0  0  0
   14.0569  -18.2503   16.9803 O   0  0  0  0  0  0  0  0  0  0  0  0
    9.3629  -17.1570   21.1672 N   0  0  0  0  0  0  0  0  0  0  0  0
    9.3534  -16.4590   22.4365 C   0  0  1  0  0  0  0  0  0  0  0  0
    7.9375  -16.3161   22.9568 C   0  0  0  0  0  0  0  0  0  0  0  0
    6.9565  -15.2416   21.8951 S   0  0  0  0  0  0  0  0  0  0  0  0
   10.1189  -17.1931   23.4677 C   0  0  0  0  0  0  0  0  0  0  0  0
   10.2080  -18.4397   23.3728 O   0  0  0  0  0  0  0  0  0  0  0  0
    8.2777  -13.3563   29.2867 O   0  0  0  0  0  0  0  0  0  0  0  0
    9.2434  -14.0468   28.5718 C   0  0  0  0  0  0  0  0  0  0  0  0
   10.0449  -14.9964   29.1985 C   0  0  0  0  0  0  0  0  0  0  0  0
   11.0021  -15.6809   28.4905 C   0  0  0  0  0  0  0  0  0  0  0  0
   11.2139  -15.4653   27.1442 C   0  0  0  0  0  0  0  0  0  0  0  0
   12.2697  -16.2383   26.4229 C   0  0  0  0  0  0  0  0  0  0  0  0
   11.5263  -17.2554   25.5633 C   0  0  2  0  0  0  0  0  0  0  0  0
   10.7559  -16.5522   24.5568 N   0  0  0  0  0  0  0  0  0  0  0  0
   10.6218  -18.0744   26.3894 C   0  0  0  0  0  0  0  0  0  0  0  0
    9.3701  -18.0074   26.2849 O   0  0  0  0  0  0  0  0  0  0  0  0
   10.4268  -14.5288   26.5150 C   0  0  0  0  0  0  0  0  0  0  0  0
    9.4606  -13.8360   27.2241 C   0  0  0  0  0  0  0  0  0  0  0  0
   11.1415  -18.9601   27.3242 O   0  0  0  0  0  0  0  0  0  0  0  0
  2  1  1  6
  3  2  1  0
  3  4  1  0
  4  5  1  0
  5  9  1  0
  5  6  2  0
  7  2  1  0
  8  7  2  0
 10  7  1  0
 11 14  1  0
 11 10  1  0
 11 12  1  1
 13 12  1  0
 14 23  1  0
 15 14  2  0
 16 17  1  0
 17 18  2  0
 17 27  1  0
 18 19  1  0
 19 20  2  0
 20 21  1  0
 22 21  1  1
 22 24  1  0
 23 22  1  0
 24 25  2  0
 24 28  1  0
 26 20  1  0
 27 26  2  0
M  END
$$$$
