GNI.pdb
     RDKit          3D

 21 20  0  0  1  0  0  0  0  0999 V2000
    7.6527  -17.3309   18.6376 N   0  0  0  0  0  0  0  0  0  0  0  0
    8.5692  -17.3400   19.7380 C   0  0  0  0  0  0  0  0  0  0  0  0
    7.8836  -16.9102   20.9741 C   0  0  0  0  0  0  0  0  0  0  0  0
    7.1494  -15.8935   20.9626 O   0  0  0  0  0  0  0  0  0  0  0  0
    6.1993  -20.4134   23.1903 N   0  0  0  0  0  0  0  0  0  0  0  0
    5.8920  -19.1293   23.6825 C   0  0  0  0  0  0  0  0  0  0  0  0
    4.7287  -18.6957   23.5908 O   0  0  0  0  0  0  0  0  0  0  0  0
    6.9402  -18.3058   24.3012 C   0  0  0  0  0  0  0  0  0  0  0  0
    7.3753  -17.1586   23.4178 C   0  0  2  0  0  0  0  0  0  0  0  0
    8.0093  -17.5992   22.2115 N   0  0  0  0  0  0  0  0  0  0  0  0
    8.2189  -16.1901   24.1716 C   0  0  0  0  0  0  0  0  0  0  0  0
    9.4495  -16.4367   24.2591 O   0  0  0  0  0  0  0  0  0  0  0  0
    5.8956  -11.5559   26.8302 C   0  0  0  0  0  0  0  0  0  0  0  0
    6.4771  -12.8999   26.4664 C   0  0  0  0  0  0  0  0  0  0  0  0
    7.7866  -12.8041   25.7517 C   0  0  2  0  0  0  0  0  0  0  0  0
    7.5511  -12.1536   24.4043 C   0  0  0  0  0  0  0  0  0  0  0  0
    8.4446  -14.1375   25.5071 C   0  0  2  0  0  0  0  0  0  0  0  0
    7.6347  -15.0429   24.7582 N   0  0  0  0  0  0  0  0  0  0  0  0
    8.6925  -14.7311   26.8575 C   0  0  0  0  0  0  0  0  0  0  0  0
    8.0540  -15.7344   27.2623 O   0  0  0  0  0  0  0  0  0  0  0  0
    9.6426  -14.1838   27.7054 O   0  0  0  0  0  0  0  0  0  0  0  0
  1  2  1  0
  3  4  2  0
  3  2  1  0
  6  8  1  0
  6  5  1  0
  7  6  2  0
  9  8  1  1
  9 11  1  0
  9 10  1  0
 10  3  1  0
 11 12  2  0
 13 14  1  0
 15 14  1  0
 15 16  1  6
 17 15  1  0
 17 18  1  6
 18 11  1  0
 19 17  1  0
 20 19  2  0
 21 19  1  0
M  END
$$$$
