GNI.pdb
     RDKit          3D

 21 20  0  0  1  0  0  0  0  0999 V2000
    7.4726  -12.7131   18.9689 N   0  0  0  0  0  0  0  0  0  0  0  0
    8.5492  -13.5739   19.3574 C   0  0  0  0  0  0  0  0  0  0  0  0
    8.1776  -14.3390   20.5655 C   0  0  0  0  0  0  0  0  0  0  0  0
    7.1197  -14.0645   21.1805 O   0  0  0  0  0  0  0  0  0  0  0  0
    7.3475  -19.0021   21.1863 N   0  0  0  0  0  0  0  0  0  0  0  0
    8.5592  -18.2902   21.0840 C   0  0  0  0  0  0  0  0  0  0  0  0
    9.1829  -18.2857   20.0067 O   0  0  0  0  0  0  0  0  0  0  0  0
    9.0841  -17.5565   22.2440 C   0  0  0  0  0  0  0  0  0  0  0  0
    8.6243  -16.1167   22.2778 C   0  0  2  0  0  0  0  0  0  0  0  0
    8.9695  -15.3979   21.0880 N   0  0  0  0  0  0  0  0  0  0  0  0
    9.1058  -15.4275   23.5071 C   0  0  0  0  0  0  0  0  0  0  0  0
   10.3296  -15.1435   23.5725 O   0  0  0  0  0  0  0  0  0  0  0  0
    5.6932  -12.0212   26.1611 C   0  0  0  0  0  0  0  0  0  0  0  0
    6.8970  -12.6634   25.5167 C   0  0  0  0  0  0  0  0  0  0  0  0
    7.5995  -13.6339   26.4108 C   0  0  2  0  0  0  0  0  0  0  0  0
    8.2631  -12.8601   27.5311 C   0  0  0  0  0  0  0  0  0  0  0  0
    8.6673  -14.4381   25.7154 C   0  0  2  0  0  0  0  0  0  0  0  0
    8.2008  -15.1146   24.5486 N   0  0  0  0  0  0  0  0  0  0  0  0
    9.1248  -15.4625   26.7047 C   0  0  0  0  0  0  0  0  0  0  0  0
    9.8492  -15.1540   27.6836 O   0  0  0  0  0  0  0  0  0  0  0  0
    8.7575  -16.7917   26.5653 O   0  0  0  0  0  0  0  0  0  0  0  0
  1  2  1  0
  3  4  2  0
  3  2  1  0
  6  8  1  0
  6  5  1  0
  7  6  2  0
  9  8  1  6
  9 11  1  0
  9 10  1  0
 10  3  1  0
 11 12  2  0
 13 14  1  0
 15 14  1  0
 15 16  1  1
 17 15  1  0
 17 18  1  6
 18 11  1  0
 19 17  1  0
 20 19  2  0
 21 19  1  0
M  END
$$$$
