GNI.pdb
     RDKit          3D

 21 20  0  0  1  0  0  0  0  0999 V2000
    8.0355  -17.0280   17.8172 N   0  0  0  0  0  0  0  0  0  0  0  0
    8.8849  -16.5407   18.8623 C   0  0  0  0  0  0  0  0  0  0  0  0
    8.1754  -16.5879   20.1574 C   0  0  0  0  0  0  0  0  0  0  0  0
    6.9281  -16.7156   20.1845 O   0  0  0  0  0  0  0  0  0  0  0  0
   10.5196  -18.0348   23.0675 N   0  0  0  0  0  0  0  0  0  0  0  0
    9.3227  -18.7619   23.2234 C   0  0  0  0  0  0  0  0  0  0  0  0
    9.3694  -19.9800   23.4757 O   0  0  0  0  0  0  0  0  0  0  0  0
    8.0253  -18.0850   23.0888 C   0  0  0  0  0  0  0  0  0  0  0  0
    8.1644  -16.6404   22.6651 C   0  0  2  0  0  0  0  0  0  0  0  0
    8.8402  -16.4947   21.4107 N   0  0  0  0  0  0  0  0  0  0  0  0
    8.7959  -15.8240   23.7388 C   0  0  0  0  0  0  0  0  0  0  0  0
   10.0233  -15.5703   23.6299 O   0  0  0  0  0  0  0  0  0  0  0  0
    5.7834  -11.8602   26.0169 C   0  0  0  0  0  0  0  0  0  0  0  0
    6.9371  -12.6334   25.4270 C   0  0  0  0  0  0  0  0  0  0  0  0
    7.6124  -13.5323   26.4123 C   0  0  2  0  0  0  0  0  0  0  0  0
    8.3613  -12.6737   27.4102 C   0  0  0  0  0  0  0  0  0  0  0  0
    8.6042  -14.4806   25.7897 C   0  0  2  0  0  0  0  0  0  0  0  0
    8.0229  -15.3628   24.8303 N   0  0  0  0  0  0  0  0  0  0  0  0
    9.1550  -15.3004   26.9131 C   0  0  0  0  0  0  0  0  0  0  0  0
    8.7121  -16.4478   27.1687 O   0  0  0  0  0  0  0  0  0  0  0  0
   10.1786  -14.8100   27.7087 O   0  0  0  0  0  0  0  0  0  0  0  0
  1  2  1  0
  3  4  2  0
  3  2  1  0
  6  8  1  0
  6  5  1  0
  7  6  2  0
  9  8  1  1
  9 11  1  0
  9 10  1  0
 10  3  1  0
 11 12  2  0
 13 14  1  0
 15 14  1  0
 15 16  1  1
 17 15  1  0
 17 18  1  6
 18 11  1  0
 19 17  1  0
 20 19  2  0
 21 19  1  0
M  END
$$$$
