GNI.pdb
     RDKit          3D

 21 20  0  0  1  0  0  0  0  0999 V2000
    7.8816  -16.4429   18.8616 N   0  0  0  0  0  0  0  0  0  0  0  0
    7.3756  -17.6100   19.5195 C   0  0  0  0  0  0  0  0  0  0  0  0
    7.0903  -17.3104   20.9378 C   0  0  0  0  0  0  0  0  0  0  0  0
    6.1900  -16.4900   21.2363 O   0  0  0  0  0  0  0  0  0  0  0  0
    5.9616  -18.7683   26.1560 N   0  0  0  0  0  0  0  0  0  0  0  0
    7.2560  -18.8453   25.6047 C   0  0  0  0  0  0  0  0  0  0  0  0
    8.2498  -18.7432   26.3473 O   0  0  0  0  0  0  0  0  0  0  0  0
    7.4319  -19.0453   24.1595 C   0  0  0  0  0  0  0  0  0  0  0  0
    7.4153  -17.7460   23.3866 C   0  0  2  0  0  0  0  0  0  0  0  0
    7.7948  -17.9132   22.0157 N   0  0  0  0  0  0  0  0  0  0  0  0
    8.2310  -16.7040   24.0697 C   0  0  0  0  0  0  0  0  0  0  0  0
    9.4571  -16.6519   23.7928 O   0  0  0  0  0  0  0  0  0  0  0  0
    5.5730  -12.1978   26.1443 C   0  0  0  0  0  0  0  0  0  0  0  0
    6.5838  -13.0252   25.3889 C   0  0  0  0  0  0  0  0  0  0  0  0
    7.5559  -13.7298   26.2797 C   0  0  2  0  0  0  0  0  0  0  0  0
    8.4974  -12.7012   26.8708 C   0  0  0  0  0  0  0  0  0  0  0  0
    8.3933  -14.7619   25.5696 C   0  0  2  0  0  0  0  0  0  0  0  0
    7.6262  -15.8174   24.9916 N   0  0  0  0  0  0  0  0  0  0  0  0
    9.2970  -15.3477   26.6076 C   0  0  0  0  0  0  0  0  0  0  0  0
    8.9072  -16.2574   27.3814 O   0  0  0  0  0  0  0  0  0  0  0  0
   10.6008  -14.8973   26.7437 O   0  0  0  0  0  0  0  0  0  0  0  0
  1  2  1  0
  3  4  2  0
  3  2  1  0
  6  8  1  0
  6  5  1  0
  7  6  2  0
  9  8  1  1
  9 11  1  0
  9 10  1  0
 10  3  1  0
 11 12  2  0
 13 14  1  0
 15 14  1  0
 15 16  1  6
 17 15  1  0
 17 18  1  1
 18 11  1  0
 19 17  1  0
 20 19  2  0
 21 19  1  0
M  END
$$$$
