GNI.pdb
     RDKit          3D

 21 20  0  0  1  0  0  0  0  0999 V2000
    5.6895  -18.6213   20.8278 N   0  0  0  0  0  0  0  0  0  0  0  0
    5.7344  -17.5660   21.7948 C   0  0  0  0  0  0  0  0  0  0  0  0
    7.0498  -16.8946   21.7536 C   0  0  0  0  0  0  0  0  0  0  0  0
    8.1006  -17.5659   21.8878 O   0  0  0  0  0  0  0  0  0  0  0  0
    6.6823  -13.0646   19.0999 N   0  0  0  0  0  0  0  0  0  0  0  0
    7.8645  -13.7580   19.4275 C   0  0  0  0  0  0  0  0  0  0  0  0
    8.3794  -14.5270   18.5950 O   0  0  0  0  0  0  0  0  0  0  0  0
    8.4865  -13.5739   20.7461 C   0  0  0  0  0  0  0  0  0  0  0  0
    8.4741  -14.8375   21.5761 C   0  0  2  0  0  0  0  0  0  0  0  0
    7.2009  -15.4934   21.5658 N   0  0  0  0  0  0  0  0  0  0  0  0
    8.9574  -14.5760   22.9603 C   0  0  0  0  0  0  0  0  0  0  0  0
   10.1621  -14.2425   23.1018 O   0  0  0  0  0  0  0  0  0  0  0  0
    5.9274  -11.8269   26.3930 C   0  0  0  0  0  0  0  0  0  0  0  0
    7.0470  -12.4682   25.6108 C   0  0  0  0  0  0  0  0  0  0  0  0
    7.5760  -13.7131   26.2473 C   0  0  2  0  0  0  0  0  0  0  0  0
    8.2943  -13.3306   27.5247 C   0  0  0  0  0  0  0  0  0  0  0  0
    8.5511  -14.4704   25.3834 C   0  0  2  0  0  0  0  0  0  0  0  0
    8.0749  -14.7045   24.0587 N   0  0  0  0  0  0  0  0  0  0  0  0
    8.7572  -15.7923   26.0523 C   0  0  0  0  0  0  0  0  0  0  0  0
    9.3256  -15.8830   27.1689 O   0  0  0  0  0  0  0  0  0  0  0  0
    8.3220  -16.9629   25.4510 O   0  0  0  0  0  0  0  0  0  0  0  0
  1  2  1  0
  3  4  2  0
  3  2  1  0
  6  8  1  0
  6  5  1  0
  7  6  2  0
  9  8  1  6
  9 11  1  0
  9 10  1  0
 10  3  1  0
 11 12  2  0
 13 14  1  0
 15 14  1  0
 15 16  1  1
 17 15  1  0
 17 18  1  6
 18 11  1  0
 19 17  1  0
 20 19  2  0
 21 19  1  0
M  END
$$$$
