TVW.pdb
     RDKit          3D

 29 30  0  0  1  0  0  0  0  0999 V2000
   29.6619  -19.2690  -16.9670 C   0  0  0  0  0  0  0  0  0  0  0  0
   28.6849  -19.0863  -15.8511 C   0  0  1  0  0  0  0  0  0  0  0  0
   28.8746  -17.7746  -15.3589 O   0  0  0  0  0  0  0  0  0  0  0  0
   27.2450  -19.1473  -16.3122 C   0  0  2  0  0  0  0  0  0  0  0  0
   26.9883  -18.1678  -17.3332 N   0  0  0  0  0  0  0  0  0  0  0  0
   26.3814  -18.9298  -15.1243 C   0  0  0  0  0  0  0  0  0  0  0  0
   26.1380  -17.7628  -14.7361 O   0  0  0  0  0  0  0  0  0  0  0  0
   22.8905  -19.7643  -14.8776 C   0  0  0  0  0  0  0  0  0  0  0  0
   23.5807  -20.5502  -13.7677 C   0  0  2  0  0  0  0  0  0  0  0  0
   22.6697  -20.6450  -12.5647 C   0  0  0  0  0  0  0  0  0  0  0  0
   24.8621  -19.8738  -13.3532 C   0  0  2  0  0  0  0  0  0  0  0  0
   25.8269  -20.0422  -14.4197 N   0  0  0  0  0  0  0  0  0  0  0  0
   25.4306  -20.4858  -12.1071 C   0  0  0  0  0  0  0  0  0  0  0  0
   25.8983  -21.6671  -12.1271 O   0  0  0  0  0  0  0  0  0  0  0  0
   25.4721  -19.7921  -10.8788 N   0  0  0  0  0  0  0  0  0  0  0  0
   25.8893  -20.4802   -9.6634 C   0  0  1  0  0  0  0  0  0  0  0  0
   26.8229  -19.6339   -8.8556 C   0  0  0  0  0  0  0  0  0  0  0  0
   27.2524  -20.2106   -7.5725 C   0  0  0  0  0  0  0  0  0  0  0  0
   27.0291  -21.5515   -7.1939 C   0  0  0  0  0  0  0  0  0  0  0  0
   27.5613  -21.7816   -5.9927 N   0  0  0  0  0  0  0  0  0  0  0  0
   28.1424  -20.6445   -5.5326 C   0  0  0  0  0  0  0  0  0  0  0  0
   28.8020  -20.4062   -4.3485 C   0  0  0  0  0  0  0  0  0  0  0  0
   29.2929  -19.1400   -4.1267 C   0  0  0  0  0  0  0  0  0  0  0  0
   29.1087  -18.1642   -5.0878 C   0  0  0  0  0  0  0  0  0  0  0  0
   28.4443  -18.4298   -6.2661 C   0  0  0  0  0  0  0  0  0  0  0  0
   27.9449  -19.6760   -6.5199 C   0  0  0  0  0  0  0  0  0  0  0  0
   24.7837  -21.0619   -8.8996 C   0  0  0  0  0  0  0  0  0  0  0  0
   24.9651  -22.3009   -8.3031 O   0  0  0  0  0  0  0  0  0  0  0  0
   23.6621  -20.5133   -8.7458 O   0  0  0  0  0  0  0  0  0  0  0  0
  2  1  1  6
  2  3  1  0
  2  4  1  0
  4  6  1  0
  4  5  1  6
  6  7  2  0
  9 11  1  0
  9  8  1  6
 10  9  1  0
 11 12  1  6
 12  6  1  0
 13 15  1  0
 13 11  1  0
 14 13  2  0
 16 27  1  0
 16 15  1  0
 16 17  1  1
 18 19  2  0
 18 17  1  0
 20 19  1  0
 21 26  2  0
 21 20  1  0
 22 21  1  0
 23 24  1  0
 23 22  2  0
 24 25  2  0
 25 26  1  0
 26 18  1  0
 27 28  1  0
 29 27  2  0
M  END
$$$$
