TVW.pdb
     RDKit          3D

 29 30  0  0  1  0  0  0  0  0999 V2000
   13.5584  -12.9413  -10.9308 C   0  0  0  0  0  0  0  0  0  0  0  0
   13.9028  -11.5447  -11.3363 C   0  0  1  0  0  0  0  0  0  0  0  0
   13.3204  -11.3381  -12.6078 O   0  0  0  0  0  0  0  0  0  0  0  0
   13.2904  -10.4996  -10.4295 C   0  0  2  0  0  0  0  0  0  0  0  0
   11.8576  -10.4874  -10.5503 N   0  0  0  0  0  0  0  0  0  0  0  0
   13.8755   -9.1854  -10.7966 C   0  0  0  0  0  0  0  0  0  0  0  0
   13.3323   -8.4879  -11.6856 O   0  0  0  0  0  0  0  0  0  0  0  0
   16.1500   -7.2829   -7.9940 C   0  0  0  0  0  0  0  0  0  0  0  0
   15.5144   -6.5682   -9.1819 C   0  0  2  0  0  0  0  0  0  0  0  0
   14.0535   -6.3019   -8.8974 C   0  0  0  0  0  0  0  0  0  0  0  0
   15.6201   -7.4086  -10.4284 C   0  0  2  0  0  0  0  0  0  0  0  0
   15.0547   -8.7109  -10.1441 N   0  0  0  0  0  0  0  0  0  0  0  0
   17.0486   -7.5996  -10.8450 C   0  0  0  0  0  0  0  0  0  0  0  0
   17.8628   -8.2124  -10.0860 O   0  0  0  0  0  0  0  0  0  0  0  0
   17.5451   -7.1176  -12.0750 N   0  0  0  0  0  0  0  0  0  0  0  0
   18.9494   -7.3015  -12.4199 C   0  0  1  0  0  0  0  0  0  0  0  0
   19.2342   -8.7238  -12.7894 C   0  0  0  0  0  0  0  0  0  0  0  0
   20.6259   -9.0149  -13.1658 C   0  0  0  0  0  0  0  0  0  0  0  0
   21.6527   -9.2983  -12.2402 C   0  0  0  0  0  0  0  0  0  0  0  0
   22.7922   -9.5511  -12.8856 N   0  0  0  0  0  0  0  0  0  0  0  0
   22.5839   -9.4507  -14.2230 C   0  0  0  0  0  0  0  0  0  0  0  0
   23.4626   -9.6178  -15.2690 C   0  0  0  0  0  0  0  0  0  0  0  0
   22.9843   -9.4448  -16.5476 C   0  0  0  0  0  0  0  0  0  0  0  0
   21.6558   -9.1133  -16.7347 C   0  0  0  0  0  0  0  0  0  0  0  0
   20.7965   -8.9522  -15.6688 C   0  0  0  0  0  0  0  0  0  0  0  0
   21.2370   -9.1174  -14.3862 C   0  0  0  0  0  0  0  0  0  0  0  0
   19.4628   -6.3136  -13.3709 C   0  0  0  0  0  0  0  0  0  0  0  0
   20.7638   -5.8570  -13.2201 O   0  0  0  0  0  0  0  0  0  0  0  0
   18.7985   -5.8380  -14.3274 O   0  0  0  0  0  0  0  0  0  0  0  0
  2  1  1  1
  2  3  1  0
  2  4  1  0
  4  6  1  0
  4  5  1  6
  6  7  2  0
  9 11  1  0
  9  8  1  1
 10  9  1  0
 11 12  1  1
 12  6  1  0
 13 15  1  0
 13 11  1  0
 14 13  2  0
 16 27  1  0
 16 15  1  0
 16 17  1  6
 18 19  2  0
 18 17  1  0
 20 19  1  0
 21 26  2  0
 21 20  1  0
 22 21  1  0
 23 24  1  0
 23 22  2  0
 24 25  2  0
 25 26  1  0
 26 18  1  0
 27 28  1  0
 29 27  2  0
M  END
$$$$
