TVW.pdb
     RDKit          3D

 29 30  0  0  1  0  0  0  0  0999 V2000
   24.3004  -18.2980  -15.1206 C   0  0  0  0  0  0  0  0  0  0  0  0
   24.3793  -17.0899  -15.9967 C   0  0  1  0  0  0  0  0  0  0  0  0
   25.5306  -17.2492  -16.8015 O   0  0  0  0  0  0  0  0  0  0  0  0
   23.2169  -16.9831  -16.9597 C   0  0  2  0  0  0  0  0  0  0  0  0
   23.3134  -17.9744  -17.9968 N   0  0  0  0  0  0  0  0  0  0  0  0
   23.2222  -15.6092  -17.5222 C   0  0  0  0  0  0  0  0  0  0  0  0
   24.1784  -15.2338  -18.2411 O   0  0  0  0  0  0  0  0  0  0  0  0
   20.6569  -12.1148  -19.4938 C   0  0  0  0  0  0  0  0  0  0  0  0
   21.0367  -13.5044  -18.9930 C   0  0  2  0  0  0  0  0  0  0  0  0
   19.8071  -14.2159  -18.4755 C   0  0  0  0  0  0  0  0  0  0  0  0
   22.0478  -13.4116  -17.8794 C   0  0  2  0  0  0  0  0  0  0  0  0
   22.1450  -14.7113  -17.2485 N   0  0  0  0  0  0  0  0  0  0  0  0
   21.6307  -12.4159  -16.8375 C   0  0  0  0  0  0  0  0  0  0  0  0
   20.7379  -12.7148  -15.9842 O   0  0  0  0  0  0  0  0  0  0  0  0
   22.1992  -11.1268  -16.7577 N   0  0  0  0  0  0  0  0  0  0  0  0
   21.6906  -10.1612  -15.7914 C   0  0  1  0  0  0  0  0  0  0  0  0
   22.8067   -9.5249  -15.0233 C   0  0  0  0  0  0  0  0  0  0  0  0
   22.4302   -8.3655  -14.2003 C   0  0  0  0  0  0  0  0  0  0  0  0
   21.8111   -8.4609  -12.9358 C   0  0  0  0  0  0  0  0  0  0  0  0
   21.6249   -7.2427  -12.4255 N   0  0  0  0  0  0  0  0  0  0  0  0
   22.0944   -6.3134  -13.2963 C   0  0  0  0  0  0  0  0  0  0  0  0
   22.1090   -4.9406  -13.2002 C   0  0  0  0  0  0  0  0  0  0  0  0
   22.6434   -4.2260  -14.2477 C   0  0  0  0  0  0  0  0  0  0  0  0
   23.1402   -4.9026  -15.3456 C   0  0  0  0  0  0  0  0  0  0  0  0
   23.1136   -6.2791  -15.4161 C   0  0  0  0  0  0  0  0  0  0  0  0
   22.5915   -7.0203  -14.3940 C   0  0  0  0  0  0  0  0  0  0  0  0
   20.7219   -9.2152  -16.3489 C   0  0  0  0  0  0  0  0  0  0  0  0
   19.5819   -8.9195  -15.6163 O   0  0  0  0  0  0  0  0  0  0  0  0
   20.8480   -8.6451  -17.4631 O   0  0  0  0  0  0  0  0  0  0  0  0
  2  1  1  1
  2  3  1  0
  2  4  1  0
  4  6  1  0
  4  5  1  6
  6  7  2  0
  9 11  1  0
  9  8  1  1
 10  9  1  0
 11 12  1  1
 12  6  1  0
 13 15  1  0
 13 11  1  0
 14 13  2  0
 16 27  1  0
 16 15  1  0
 16 17  1  6
 18 19  2  0
 18 17  1  0
 20 19  1  0
 21 26  2  0
 21 20  1  0
 22 21  1  0
 23 24  1  0
 23 22  2  0
 24 25  2  0
 25 26  1  0
 26 18  1  0
 27 28  1  0
 29 27  2  0
M  END
$$$$
