TVW.pdb
     RDKit          3D

 29 30  0  0  1  0  0  0  0  0999 V2000
   16.6360  -11.9502  -22.0453 C   0  0  0  0  0  0  0  0  0  0  0  0
   17.8974  -11.9249  -21.2443 C   0  0  1  0  0  0  0  0  0  0  0  0
   17.5565  -12.3526  -19.9406 O   0  0  0  0  0  0  0  0  0  0  0  0
   18.9319  -12.9105  -21.7423 C   0  0  2  0  0  0  0  0  0  0  0  0
   18.4550  -14.2620  -21.6258 N   0  0  0  0  0  0  0  0  0  0  0  0
   20.1702  -12.7034  -20.9498 C   0  0  0  0  0  0  0  0  0  0  0  0
   20.4299  -13.4658  -19.9890 O   0  0  0  0  0  0  0  0  0  0  0  0
   23.2424  -10.5274  -22.7220 C   0  0  0  0  0  0  0  0  0  0  0  0
   23.4338  -11.5701  -21.6256 C   0  0  2  0  0  0  0  0  0  0  0  0
   23.4112  -12.9566  -22.2282 C   0  0  0  0  0  0  0  0  0  0  0  0
   22.3362  -11.4703  -20.5978 C   0  0  2  0  0  0  0  0  0  0  0  0
   21.0673  -11.6398  -21.2744 N   0  0  0  0  0  0  0  0  0  0  0  0
   22.3318  -10.1297  -19.9242 C   0  0  0  0  0  0  0  0  0  0  0  0
   21.5991   -9.1907  -20.3669 O   0  0  0  0  0  0  0  0  0  0  0  0
   23.1250   -9.8544  -18.7900 N   0  0  0  0  0  0  0  0  0  0  0  0
   23.1752   -8.5044  -18.2423 C   0  0  1  0  0  0  0  0  0  0  0  0
   23.4889   -8.5254  -16.7788 C   0  0  0  0  0  0  0  0  0  0  0  0
   23.5045   -7.2132  -16.1145 C   0  0  0  0  0  0  0  0  0  0  0  0
   22.5862   -6.8207  -15.1175 C   0  0  0  0  0  0  0  0  0  0  0  0
   22.8766   -5.5920  -14.6875 N   0  0  0  0  0  0  0  0  0  0  0  0
   23.9628   -5.1265  -15.3551 C   0  0  0  0  0  0  0  0  0  0  0  0
   24.6122   -3.9175  -15.2516 C   0  0  0  0  0  0  0  0  0  0  0  0
   25.6985   -3.6965  -16.0668 C   0  0  0  0  0  0  0  0  0  0  0  0
   26.0945   -4.6830  -16.9498 C   0  0  0  0  0  0  0  0  0  0  0  0
   25.4261   -5.8859  -17.0331 C   0  0  0  0  0  0  0  0  0  0  0  0
   24.3443   -6.1397  -16.2381 C   0  0  0  0  0  0  0  0  0  0  0  0
   23.9928   -7.5750  -19.0244 C   0  0  0  0  0  0  0  0  0  0  0  0
   23.4767   -6.3227  -19.3232 O   0  0  0  0  0  0  0  0  0  0  0  0
   25.1458   -7.8346  -19.4554 O   0  0  0  0  0  0  0  0  0  0  0  0
  2  1  1  6
  2  3  1  0
  2  4  1  0
  4  6  1  0
  4  5  1  1
  6  7  2  0
  9 11  1  0
  9  8  1  6
 10  9  1  0
 11 12  1  6
 12  6  1  0
 13 15  1  0
 13 11  1  0
 14 13  2  0
 16 27  1  0
 16 15  1  0
 16 17  1  1
 18 19  2  0
 18 17  1  0
 20 19  1  0
 21 26  2  0
 21 20  1  0
 22 21  1  0
 23 24  1  0
 23 22  2  0
 24 25  2  0
 25 26  1  0
 26 18  1  0
 27 28  1  0
 29 27  2  0
M  END
$$$$
