TVW.pdb
     RDKit          3D

 29 30  0  0  1  0  0  0  0  0999 V2000
   23.0821  -23.2799  -17.2356 C   0  0  0  0  0  0  0  0  0  0  0  0
   23.9893  -22.9396  -16.0978 C   0  0  1  0  0  0  0  0  0  0  0  0
   23.6927  -23.8508  -15.0584 O   0  0  0  0  0  0  0  0  0  0  0  0
   25.4512  -23.1523  -16.4254 C   0  0  2  0  0  0  0  0  0  0  0  0
   25.7085  -24.5247  -16.7686 N   0  0  0  0  0  0  0  0  0  0  0  0
   26.2441  -22.7324  -15.2426 C   0  0  0  0  0  0  0  0  0  0  0  0
   26.6219  -23.5897  -14.4093 O   0  0  0  0  0  0  0  0  0  0  0  0
   28.6372  -18.9794  -12.9989 C   0  0  0  0  0  0  0  0  0  0  0  0
   27.7790  -19.4903  -14.1514 C   0  0  2  0  0  0  0  0  0  0  0  0
   26.5604  -18.6098  -14.3118 C   0  0  0  0  0  0  0  0  0  0  0  0
   27.3250  -20.9037  -13.8921 C   0  0  2  0  0  0  0  0  0  0  0  0
   26.5785  -21.3571  -15.0470 N   0  0  0  0  0  0  0  0  0  0  0  0
   26.4263  -20.9830  -12.6935 C   0  0  0  0  0  0  0  0  0  0  0  0
   25.1725  -20.8195  -12.8187 O   0  0  0  0  0  0  0  0  0  0  0  0
   26.9213  -21.2382  -11.3968 N   0  0  0  0  0  0  0  0  0  0  0  0
   26.0166  -21.2324  -10.2538 C   0  0  1  0  0  0  0  0  0  0  0  0
   26.7283  -21.6295   -8.9983 C   0  0  0  0  0  0  0  0  0  0  0  0
   27.1480  -20.5198   -8.1289 C   0  0  0  0  0  0  0  0  0  0  0  0
   26.6896  -19.1921   -8.2645 C   0  0  0  0  0  0  0  0  0  0  0  0
   27.2233  -18.4253   -7.3126 N   0  0  0  0  0  0  0  0  0  0  0  0
   28.0332  -19.1805   -6.5276 C   0  0  0  0  0  0  0  0  0  0  0  0
   28.7921  -18.8212   -5.4373 C   0  0  0  0  0  0  0  0  0  0  0  0
   29.5410  -19.7979   -4.8220 C   0  0  0  0  0  0  0  0  0  0  0  0
   29.5059  -21.0889   -5.3140 C   0  0  0  0  0  0  0  0  0  0  0  0
   28.7363  -21.4222   -6.4082 C   0  0  0  0  0  0  0  0  0  0  0  0
   27.9796  -20.4781   -7.0427 C   0  0  0  0  0  0  0  0  0  0  0  0
   25.2143  -20.0132  -10.1362 C   0  0  0  0  0  0  0  0  0  0  0  0
   23.9434  -20.1022   -9.5878 O   0  0  0  0  0  0  0  0  0  0  0  0
   25.5977  -18.8735  -10.5058 O   0  0  0  0  0  0  0  0  0  0  0  0
  2  1  1  6
  2  3  1  0
  2  4  1  0
  4  6  1  0
  4  5  1  1
  6  7  2  0
  9 11  1  0
  9  8  1  1
 10  9  1  0
 11 12  1  6
 12  6  1  0
 13 15  1  0
 13 11  1  0
 14 13  2  0
 16 27  1  0
 16 15  1  0
 16 17  1  1
 18 19  2  0
 18 17  1  0
 20 19  1  0
 21 26  2  0
 21 20  1  0
 22 21  1  0
 23 24  1  0
 23 22  2  0
 24 25  2  0
 25 26  1  0
 26 18  1  0
 27 28  1  0
 29 27  2  0
M  END
$$$$
