TVW.pdb
     RDKit          3D

 29 30  0  0  1  0  0  0  0  0999 V2000
   26.3192  -24.3717  -19.0602 C   0  0  0  0  0  0  0  0  0  0  0  0
   26.6639  -23.7327  -17.7540 C   0  0  1  0  0  0  0  0  0  0  0  0
   26.9534  -24.7839  -16.8540 O   0  0  0  0  0  0  0  0  0  0  0  0
   27.9208  -22.8929  -17.8221 C   0  0  2  0  0  0  0  0  0  0  0  0
   29.0688  -23.7058  -18.1206 N   0  0  0  0  0  0  0  0  0  0  0  0
   28.0721  -22.2010  -16.5173 C   0  0  0  0  0  0  0  0  0  0  0  0
   28.9160  -22.6141  -15.6871 O   0  0  0  0  0  0  0  0  0  0  0  0
   28.3603  -18.2920  -16.1529 C   0  0  0  0  0  0  0  0  0  0  0  0
   27.2178  -18.8474  -15.3091 C   0  0  2  0  0  0  0  0  0  0  0  0
   27.1143  -18.0734  -14.0145 C   0  0  0  0  0  0  0  0  0  0  0  0
   27.4507  -20.3012  -14.9875 C   0  0  2  0  0  0  0  0  0  0  0  0
   27.2612  -21.0680  -16.2010 N   0  0  0  0  0  0  0  0  0  0  0  0
   26.4775  -20.8015  -13.9611 C   0  0  0  0  0  0  0  0  0  0  0  0
   25.2427  -20.9038  -14.2427 O   0  0  0  0  0  0  0  0  0  0  0  0
   26.8798  -21.1749  -12.6610 N   0  0  0  0  0  0  0  0  0  0  0  0
   25.8887  -21.6109  -11.6851 C   0  0  1  0  0  0  0  0  0  0  0  0
   26.5421  -22.0812  -10.4232 C   0  0  0  0  0  0  0  0  0  0  0  0
   26.5774  -21.1037   -9.3248 C   0  0  0  0  0  0  0  0  0  0  0  0
   25.5075  -20.2441   -8.9965 C   0  0  0  0  0  0  0  0  0  0  0  0
   25.8283  -19.4998   -7.9373 N   0  0  0  0  0  0  0  0  0  0  0  0
   27.0822  -19.8181   -7.5266 C   0  0  0  0  0  0  0  0  0  0  0  0
   27.8274  -19.3090   -6.4876 C   0  0  0  0  0  0  0  0  0  0  0  0
   29.0942  -19.8107   -6.2955 C   0  0  0  0  0  0  0  0  0  0  0  0
   29.5683  -20.7952   -7.1415 C   0  0  0  0  0  0  0  0  0  0  0  0
   28.8004  -21.2881   -8.1750 C   0  0  0  0  0  0  0  0  0  0  0  0
   27.5380  -20.8138   -8.3941 C   0  0  0  0  0  0  0  0  0  0  0  0
   24.7941  -20.6596  -11.4830 C   0  0  0  0  0  0  0  0  0  0  0  0
   23.5088  -21.1503  -11.3067 O   0  0  0  0  0  0  0  0  0  0  0  0
   24.9356  -19.4098  -11.4612 O   0  0  0  0  0  0  0  0  0  0  0  0
  2  1  1  6
  2  3  1  0
  2  4  1  0
  4  6  1  0
  4  5  1  1
  6  7  2  0
  9 11  1  0
  9  8  1  6
 10  9  1  0
 11 12  1  6
 12  6  1  0
 13 15  1  0
 13 11  1  0
 14 13  2  0
 16 27  1  0
 16 15  1  0
 16 17  1  1
 18 19  2  0
 18 17  1  0
 20 19  1  0
 21 26  2  0
 21 20  1  0
 22 21  1  0
 23 24  1  0
 23 22  2  0
 24 25  2  0
 25 26  1  0
 26 18  1  0
 27 28  1  0
 29 27  2  0
M  END
$$$$
