TVW.pdb
     RDKit          3D

 29 30  0  0  1  0  0  0  0  0999 V2000
   26.5453  -17.4888  -14.6898 C   0  0  0  0  0  0  0  0  0  0  0  0
   27.1360  -18.4253  -15.6935 C   0  0  1  0  0  0  0  0  0  0  0  0
   28.1045  -17.6882  -16.4126 O   0  0  0  0  0  0  0  0  0  0  0  0
   27.8850  -19.5758  -15.0570 C   0  0  2  0  0  0  0  0  0  0  0  0
   28.6045  -20.3328  -16.0454 N   0  0  0  0  0  0  0  0  0  0  0  0
   26.8933  -20.4205  -14.3448 C   0  0  0  0  0  0  0  0  0  0  0  0
   26.2868  -21.3261  -14.9644 O   0  0  0  0  0  0  0  0  0  0  0  0
   25.0336  -21.7949   -9.9531 C   0  0  0  0  0  0  0  0  0  0  0  0
   26.0793  -21.0681  -10.7922 C   0  0  2  0  0  0  0  0  0  0  0  0
   26.2706  -19.6632  -10.2674 C   0  0  0  0  0  0  0  0  0  0  0  0
   25.6469  -20.9922  -12.2339 C   0  0  2  0  0  0  0  0  0  0  0  0
   26.6247  -20.2070  -12.9578 N   0  0  0  0  0  0  0  0  0  0  0  0
   24.3119  -20.3222  -12.3746 C   0  0  0  0  0  0  0  0  0  0  0  0
   24.1632  -19.1079  -12.0312 O   0  0  0  0  0  0  0  0  0  0  0  0
   23.1816  -20.9954  -12.8852 N   0  0  0  0  0  0  0  0  0  0  0  0
   21.9200  -20.2846  -13.0522 C   0  0  1  0  0  0  0  0  0  0  0  0
   22.1008  -19.0469  -13.8744 C   0  0  0  0  0  0  0  0  0  0  0  0
   21.8721  -19.2057  -15.3186 C   0  0  0  0  0  0  0  0  0  0  0  0
   20.6154  -19.4911  -15.8936 C   0  0  0  0  0  0  0  0  0  0  0  0
   20.7223  -19.5432  -17.2220 N   0  0  0  0  0  0  0  0  0  0  0  0
   22.0095  -19.3037  -17.5798 C   0  0  0  0  0  0  0  0  0  0  0  0
   22.5866  -19.2639  -18.8285 C   0  0  0  0  0  0  0  0  0  0  0  0
   23.9358  -19.0056  -18.9081 C   0  0  0  0  0  0  0  0  0  0  0  0
   24.6553  -18.7981  -17.7466 C   0  0  0  0  0  0  0  0  0  0  0  0
   24.0522  -18.8431  -16.5077 C   0  0  0  0  0  0  0  0  0  0  0  0
   22.7145  -19.0958  -16.3916 C   0  0  0  0  0  0  0  0  0  0  0  0
   20.8082  -21.1375  -13.4770 C   0  0  0  0  0  0  0  0  0  0  0  0
   19.5139  -20.6530  -13.3592 O   0  0  0  0  0  0  0  0  0  0  0  0
   20.9428  -22.2976  -13.9446 O   0  0  0  0  0  0  0  0  0  0  0  0
  2  1  1  1
  2  3  1  0
  2  4  1  0
  4  6  1  0
  4  5  1  6
  6  7  2  0
  9 11  1  0
  9  8  1  1
 10  9  1  0
 11 12  1  6
 12  6  1  0
 13 15  1  0
 13 11  1  0
 14 13  2  0
 16 27  1  0
 16 15  1  0
 16 17  1  6
 18 19  2  0
 18 17  1  0
 20 19  1  0
 21 26  2  0
 21 20  1  0
 22 21  1  0
 23 24  1  0
 23 22  2  0
 24 25  2  0
 25 26  1  0
 26 18  1  0
 27 28  1  0
 29 27  2  0
M  END
$$$$
