TDV.pdb
     RDKit          3D

 23 22  0  0  1  0  0  0  0  0999 V2000
   22.7169  -11.2570  -17.9642 C   0  0  0  0  0  0  0  0  0  0  0  0
   21.5971  -12.1538  -18.4844 C   0  0  1  0  0  0  0  0  0  0  0  0
   22.1311  -13.4068  -18.8294 O   0  0  0  0  0  0  0  0  0  0  0  0
   20.5482  -12.3195  -17.4218 C   0  0  2  0  0  0  0  0  0  0  0  0
   19.5606  -13.2916  -17.8720 N   0  0  0  0  0  0  0  0  0  0  0  0
   19.8919  -11.0165  -17.1078 C   0  0  0  0  0  0  0  0  0  0  0  0
   19.3046  -10.4012  -18.0331 O   0  0  0  0  0  0  0  0  0  0  0  0
   19.9347  -10.4955  -15.8016 N   0  0  0  0  0  0  0  0  0  0  0  0
   19.3831   -9.1129  -15.5610 C   0  0  1  0  0  0  0  0  0  0  0  0
   18.2821   -9.2910  -14.5651 C   0  0  0  0  0  0  0  0  0  0  0  0
   17.6975   -8.1555  -13.9075 C   0  0  0  0  0  0  0  0  0  0  0  0
   17.3364   -7.1091  -14.4345 O   0  0  0  0  0  0  0  0  0  0  0  0
   20.5464   -8.3306  -15.0887 C   0  0  0  0  0  0  0  0  0  0  0  0
   21.4087   -8.8942  -14.3242 O   0  0  0  0  0  0  0  0  0  0  0  0
   17.5166   -8.2472  -12.5073 O   0  0  0  0  0  0  0  0  0  0  0  0
   23.4525   -7.0671  -16.8546 C   0  0  0  0  0  0  0  0  0  0  0  0
   22.8807   -5.8799  -16.1042 C   0  0  1  0  0  0  0  0  0  0  0  0
   22.1457   -4.9916  -17.0508 C   0  0  0  0  0  0  0  0  0  0  0  0
   22.0026   -6.2896  -14.9710 C   0  0  2  0  0  0  0  0  0  0  0  0
   20.7973   -6.9897  -15.4182 N   0  0  0  0  0  0  0  0  0  0  0  0
   21.6066   -5.1139  -14.1147 C   0  0  0  0  0  0  0  0  0  0  0  0
   22.5102   -4.5028  -13.2604 O   0  0  0  0  0  0  0  0  0  0  0  0
   20.4387   -4.6468  -14.1476 O   0  0  0  0  0  0  0  0  0  0  0  0
  2  1  1  1
  3  2  1  0
  4  5  1  6
  4  2  1  0
  6  4  1  0
  7  6  2  0
  8  6  1  0
  9  8  1  0
  9 10  1  1
 10 11  1  0
 11 15  1  0
 11 12  2  0
 13  9  1  0
 13 20  1  0
 14 13  2  0
 17 16  1  6
 18 17  1  0
 19 20  1  6
 19 17  1  0
 21 19  1  0
 21 22  1  0
 23 21  2  0
M  END
$$$$
