TDV.pdb
     RDKit          3D

 23 22  0  0  1  0  0  0  0  0999 V2000
   26.3041  -11.1750  -15.0423 C   0  0  0  0  0  0  0  0  0  0  0  0
   26.3005  -12.5533  -15.6974 C   0  0  1  0  0  0  0  0  0  0  0  0
   27.2763  -13.3582  -15.0856 O   0  0  0  0  0  0  0  0  0  0  0  0
   24.9457  -13.1832  -15.5409 C   0  0  2  0  0  0  0  0  0  0  0  0
   24.9604  -14.5067  -16.1499 N   0  0  0  0  0  0  0  0  0  0  0  0
   23.8851  -12.3357  -16.1605 C   0  0  0  0  0  0  0  0  0  0  0  0
   23.7477  -12.3628  -17.4095 O   0  0  0  0  0  0  0  0  0  0  0  0
   23.0614  -11.5269  -15.3563 N   0  0  0  0  0  0  0  0  0  0  0  0
   21.9704  -10.7264  -16.0217 C   0  0  1  0  0  0  0  0  0  0  0  0
   20.6935  -11.2090  -15.4115 C   0  0  0  0  0  0  0  0  0  0  0  0
   19.4590  -10.5134  -15.6478 C   0  0  0  0  0  0  0  0  0  0  0  0
   18.6311  -10.1834  -14.8060 O   0  0  0  0  0  0  0  0  0  0  0  0
   22.3200   -9.3183  -15.7330 C   0  0  0  0  0  0  0  0  0  0  0  0
   22.8596   -9.0277  -14.6060 O   0  0  0  0  0  0  0  0  0  0  0  0
   19.1615  -10.1705  -16.9877 O   0  0  0  0  0  0  0  0  0  0  0  0
   24.5361   -6.9399  -17.8077 C   0  0  0  0  0  0  0  0  0  0  0  0
   23.2508   -6.2275  -17.4338 C   0  0  1  0  0  0  0  0  0  0  0  0
   22.3605   -6.1341  -18.6273 C   0  0  0  0  0  0  0  0  0  0  0  0
   22.5449   -6.8826  -16.2956 C   0  0  2  0  0  0  0  0  0  0  0  0
   22.1111   -8.2445  -16.6119 N   0  0  0  0  0  0  0  0  0  0  0  0
   21.3579   -6.0767  -15.8332 C   0  0  0  0  0  0  0  0  0  0  0  0
   21.5136   -4.9257  -15.0778 O   0  0  0  0  0  0  0  0  0  0  0  0
   20.1825   -6.4236  -16.1187 O   0  0  0  0  0  0  0  0  0  0  0  0
  2  1  1  1
  3  2  1  0
  4  5  1  6
  4  2  1  0
  6  4  1  0
  7  6  2  0
  8  6  1  0
  9  8  1  0
  9 10  1  1
 10 11  1  0
 11 15  1  0
 11 12  2  0
 13  9  1  0
 13 20  1  0
 14 13  2  0
 17 16  1  6
 18 17  1  0
 19 20  1  6
 19 17  1  0
 21 19  1  0
 21 22  1  0
 23 21  2  0
M  END
$$$$
