TDV.pdb
     RDKit          3D

 23 22  0  0  1  0  0  0  0  0999 V2000
   20.8710   -8.0817  -21.1214 C   0  0  0  0  0  0  0  0  0  0  0  0
   19.8510   -9.2110  -21.2366 C   0  0  1  0  0  0  0  0  0  0  0  0
   20.1000   -9.9404  -22.4114 O   0  0  0  0  0  0  0  0  0  0  0  0
   19.9600  -10.1137  -20.0408 C   0  0  2  0  0  0  0  0  0  0  0  0
   19.0704  -11.2536  -20.2193 N   0  0  0  0  0  0  0  0  0  0  0  0
   19.6247   -9.3823  -18.7839 C   0  0  0  0  0  0  0  0  0  0  0  0
   18.4261   -9.0686  -18.5728 O   0  0  0  0  0  0  0  0  0  0  0  0
   20.6348   -9.0548  -17.8609 N   0  0  0  0  0  0  0  0  0  0  0  0
   20.2474   -8.3209  -16.6019 C   0  0  1  0  0  0  0  0  0  0  0  0
   20.4220   -9.3101  -15.4944 C   0  0  0  0  0  0  0  0  0  0  0  0
   20.3815   -8.8887  -14.1217 C   0  0  0  0  0  0  0  0  0  0  0  0
   19.3840   -8.5803  -13.4790 O   0  0  0  0  0  0  0  0  0  0  0  0
   21.1571   -7.1551  -16.5617 C   0  0  0  0  0  0  0  0  0  0  0  0
   22.3397   -7.2694  -17.0457 O   0  0  0  0  0  0  0  0  0  0  0  0
   21.6160   -8.8205  -13.4341 O   0  0  0  0  0  0  0  0  0  0  0  0
   19.8941   -3.1719  -16.2663 C   0  0  0  0  0  0  0  0  0  0  0  0
   21.2818   -3.5835  -16.7182 C   0  0  1  0  0  0  0  0  0  0  0  0
   22.2253   -2.4395  -16.5550 C   0  0  0  0  0  0  0  0  0  0  0  0
   21.7821   -4.7902  -15.9994 C   0  0  2  0  0  0  0  0  0  0  0  0
   20.8271   -5.8992  -16.0298 N   0  0  0  0  0  0  0  0  0  0  0  0
   22.1414   -4.4818  -14.5683 C   0  0  0  0  0  0  0  0  0  0  0  0
   23.3500   -3.8914  -14.2358 O   0  0  0  0  0  0  0  0  0  0  0  0
   21.3531   -4.7509  -13.6251 O   0  0  0  0  0  0  0  0  0  0  0  0
  2  1  1  1
  3  2  1  0
  4  5  1  6
  4  2  1  0
  6  4  1  0
  7  6  2  0
  8  6  1  0
  9  8  1  0
  9 10  1  1
 10 11  1  0
 11 15  1  0
 11 12  2  0
 13  9  1  0
 13 20  1  0
 14 13  2  0
 17 16  1  1
 18 17  1  0
 19 20  1  1
 19 17  1  0
 21 19  1  0
 21 22  1  0
 23 21  2  0
M  END
$$$$
