TDV.pdb
     RDKit          3D

 23 22  0  0  1  0  0  0  0  0999 V2000
   42.7582  -10.3510   -8.9044 C   0  0  0  0  0  0  0  0  0  0  0  0
   43.6041  -11.0135   -7.8206 C   0  0  1  0  0  0  0  0  0  0  0  0
   44.5877  -11.8132   -8.4266 O   0  0  0  0  0  0  0  0  0  0  0  0
   44.2540   -9.9581   -6.9718 C   0  0  2  0  0  0  0  0  0  0  0  0
   44.9958  -10.6004   -5.8948 N   0  0  0  0  0  0  0  0  0  0  0  0
   43.2387   -9.0159   -6.4162 C   0  0  0  0  0  0  0  0  0  0  0  0
   42.6425   -9.3320   -5.3559 O   0  0  0  0  0  0  0  0  0  0  0  0
   42.9612   -7.8024   -7.0718 N   0  0  0  0  0  0  0  0  0  0  0  0
   41.9981   -6.8397   -6.4241 C   0  0  1  0  0  0  0  0  0  0  0  0
   42.8014   -5.6154   -6.1219 C   0  0  0  0  0  0  0  0  0  0  0  0
   42.1587   -4.4030   -5.6970 C   0  0  0  0  0  0  0  0  0  0  0  0
   41.5073   -4.2396   -4.6713 O   0  0  0  0  0  0  0  0  0  0  0  0
   40.9249   -6.6637   -7.4269 C   0  0  0  0  0  0  0  0  0  0  0  0
   41.2096   -6.7790   -8.6725 O   0  0  0  0  0  0  0  0  0  0  0  0
   42.2863   -3.2775   -6.5445 O   0  0  0  0  0  0  0  0  0  0  0  0
   37.5789   -8.4809   -7.6848 C   0  0  0  0  0  0  0  0  0  0  0  0
   37.3213   -6.9967   -7.8582 C   0  0  1  0  0  0  0  0  0  0  0  0
   36.6526   -6.4552   -6.6394 C   0  0  0  0  0  0  0  0  0  0  0  0
   38.5647   -6.2331   -8.1643 C   0  0  2  0  0  0  0  0  0  0  0  0
   39.5846   -6.3787   -7.1244 N   0  0  0  0  0  0  0  0  0  0  0  0
   38.2837   -4.7685   -8.3844 C   0  0  0  0  0  0  0  0  0  0  0  0
   37.7150   -4.3087   -9.5612 O   0  0  0  0  0  0  0  0  0  0  0  0
   38.5570   -3.9122   -7.5039 O   0  0  0  0  0  0  0  0  0  0  0  0
  2  1  1  6
  3  2  1  0
  4  5  1  1
  4  2  1  0
  6  4  1  0
  7  6  2  0
  8  6  1  0
  9  8  1  0
  9 10  1  6
 10 11  1  0
 11 15  1  0
 11 12  2  0
 13  9  1  0
 13 20  1  0
 14 13  2  0
 17 16  1  1
 18 17  1  0
 19 20  1  1
 19 17  1  0
 21 19  1  0
 21 22  1  0
 23 21  2  0
M  END
$$$$
