TDV.pdb
     RDKit          3D

 23 22  0  0  1  0  0  0  0  0999 V2000
   18.9531  -12.0834  -15.3295 C   0  0  0  0  0  0  0  0  0  0  0  0
   17.8705  -12.3478  -16.3721 C   0  0  1  0  0  0  0  0  0  0  0  0
   17.4593  -13.6883  -16.2814 O   0  0  0  0  0  0  0  0  0  0  0  0
   16.7016  -11.4362  -16.1285 C   0  0  2  0  0  0  0  0  0  0  0  0
   15.6316  -11.7714  -17.0588 N   0  0  0  0  0  0  0  0  0  0  0  0
   17.0962  -10.0051  -16.2811 C   0  0  0  0  0  0  0  0  0  0  0  0
   17.4966   -9.6088  -17.4047 O   0  0  0  0  0  0  0  0  0  0  0  0
   17.0186   -9.1256  -15.1857 N   0  0  0  0  0  0  0  0  0  0  0  0
   17.3923   -7.6801  -15.3970 C   0  0  1  0  0  0  0  0  0  0  0  0
   16.2162   -6.8905  -14.9185 C   0  0  0  0  0  0  0  0  0  0  0  0
   16.2950   -5.4619  -14.7908 C   0  0  0  0  0  0  0  0  0  0  0  0
   15.8513   -4.7828  -13.8715 O   0  0  0  0  0  0  0  0  0  0  0  0
   18.6359   -7.5043  -14.6154 C   0  0  0  0  0  0  0  0  0  0  0  0
   18.6940   -7.9710  -13.4218 O   0  0  0  0  0  0  0  0  0  0  0  0
   16.9511   -4.7595  -15.8289 O   0  0  0  0  0  0  0  0  0  0  0  0
   22.4592   -7.1220  -16.2997 C   0  0  0  0  0  0  0  0  0  0  0  0
   22.1381   -7.5603  -14.8840 C   0  0  1  0  0  0  0  0  0  0  0  0
   23.3623   -7.4646  -14.0367 C   0  0  0  0  0  0  0  0  0  0  0  0
   21.0166   -6.7813  -14.2854 C   0  0  2  0  0  0  0  0  0  0  0  0
   19.7907   -6.8577  -15.0817 N   0  0  0  0  0  0  0  0  0  0  0  0
   21.3864   -5.3346  -14.0783 C   0  0  0  0  0  0  0  0  0  0  0  0
   22.3002   -4.9518  -13.1097 O   0  0  0  0  0  0  0  0  0  0  0  0
   20.8759   -4.4238  -14.7805 O   0  0  0  0  0  0  0  0  0  0  0  0
  2  1  1  1
  3  2  1  0
  4  5  1  6
  4  2  1  0
  6  4  1  0
  7  6  2  0
  8  6  1  0
  9  8  1  0
  9 10  1  1
 10 11  1  0
 11 15  1  0
 11 12  2  0
 13  9  1  0
 13 20  1  0
 14 13  2  0
 17 16  1  6
 18 17  1  0
 19 20  1  6
 19 17  1  0
 21 19  1  0
 21 22  1  0
 23 21  2  0
M  END
$$$$
