TDV.pdb
     RDKit          3D

 23 22  0  0  1  0  0  0  0  0999 V2000
   15.0392  -13.5565  -16.0522 C   0  0  0  0  0  0  0  0  0  0  0  0
   16.3299  -12.7424  -16.0391 C   0  0  1  0  0  0  0  0  0  0  0  0
   17.2150  -13.2948  -15.0980 O   0  0  0  0  0  0  0  0  0  0  0  0
   16.9552  -12.7653  -17.4048 C   0  0  2  0  0  0  0  0  0  0  0  0
   17.3202  -14.1352  -17.7408 N   0  0  0  0  0  0  0  0  0  0  0  0
   18.1533  -11.8774  -17.4615 C   0  0  0  0  0  0  0  0  0  0  0  0
   19.2881  -12.3875  -17.2830 O   0  0  0  0  0  0  0  0  0  0  0  0
   18.0066  -10.5003  -17.7097 N   0  0  0  0  0  0  0  0  0  0  0  0
   19.2500   -9.6627  -17.8707 C   0  0  1  0  0  0  0  0  0  0  0  0
   18.8338   -8.4858  -18.6936 C   0  0  0  0  0  0  0  0  0  0  0  0
   19.7769   -7.4557  -19.0299 C   0  0  0  0  0  0  0  0  0  0  0  0
   19.5184   -6.3400  -19.4676 O   0  0  0  0  0  0  0  0  0  0  0  0
   19.6664   -9.3536  -16.4852 C   0  0  0  0  0  0  0  0  0  0  0  0
   18.7683   -9.0930  -15.6071 O   0  0  0  0  0  0  0  0  0  0  0  0
   21.1469   -7.7522  -18.8388 O   0  0  0  0  0  0  0  0  0  0  0  0
   22.1351  -11.3139  -14.1249 C   0  0  0  0  0  0  0  0  0  0  0  0
   22.4652   -9.8339  -14.1319 C   0  0  1  0  0  0  0  0  0  0  0  0
   23.7096   -9.5987  -14.9204 C   0  0  0  0  0  0  0  0  0  0  0  0
   21.3430   -9.0008  -14.6510 C   0  0  2  0  0  0  0  0  0  0  0  0
   20.9954   -9.3252  -16.0355 N   0  0  0  0  0  0  0  0  0  0  0  0
   21.6427   -7.5273  -14.5451 C   0  0  0  0  0  0  0  0  0  0  0  0
   21.7941   -6.7359  -15.6723 O   0  0  0  0  0  0  0  0  0  0  0  0
   21.7656   -6.9652  -13.4261 O   0  0  0  0  0  0  0  0  0  0  0  0
  2  1  1  6
  3  2  1  0
  4  5  1  1
  4  2  1  0
  6  4  1  0
  7  6  2  0
  8  6  1  0
  9  8  1  0
  9 10  1  6
 10 11  1  0
 11 15  1  0
 11 12  2  0
 13  9  1  0
 13 20  1  0
 14 13  2  0
 17 16  1  6
 18 17  1  0
 19 20  1  6
 19 17  1  0
 21 19  1  0
 21 22  1  0
 23 21  2  0
M  END
$$$$
