TDV.pdb
     RDKit          3D

 23 22  0  0  1  0  0  0  0  0999 V2000
   16.7132   -7.0764  -17.4135 C   0  0  0  0  0  0  0  0  0  0  0  0
   16.2318   -8.4803  -17.0583 C   0  0  1  0  0  0  0  0  0  0  0  0
   15.1398   -8.8151  -17.8767 O   0  0  0  0  0  0  0  0  0  0  0  0
   17.3477   -9.4643  -17.2660 C   0  0  2  0  0  0  0  0  0  0  0  0
   16.8398  -10.8141  -17.0593 N   0  0  0  0  0  0  0  0  0  0  0  0
   18.4860   -9.1879  -16.3412 C   0  0  0  0  0  0  0  0  0  0  0  0
   18.3562   -9.4783  -15.1253 O   0  0  0  0  0  0  0  0  0  0  0  0
   19.6747   -8.6145  -16.8285 N   0  0  0  0  0  0  0  0  0  0  0  0
   20.8099   -8.3844  -15.8630 C   0  0  1  0  0  0  0  0  0  0  0  0
   21.9648   -9.1575  -16.4145 C   0  0  0  0  0  0  0  0  0  0  0  0
   22.1714  -10.5303  -16.0455 C   0  0  0  0  0  0  0  0  0  0  0  0
   22.1306  -10.9989  -14.9132 O   0  0  0  0  0  0  0  0  0  0  0  0
   20.9814   -6.9152  -15.8414 C   0  0  0  0  0  0  0  0  0  0  0  0
   21.1540   -6.2907  -16.9485 O   0  0  0  0  0  0  0  0  0  0  0  0
   22.4510  -11.4413  -17.0911 O   0  0  0  0  0  0  0  0  0  0  0  0
   20.1945   -2.4250  -14.2036 C   0  0  0  0  0  0  0  0  0  0  0  0
   19.9616   -3.9228  -14.2468 C   0  0  1  0  0  0  0  0  0  0  0  0
   18.7709   -4.2236  -15.0938 C   0  0  0  0  0  0  0  0  0  0  0  0
   21.1572   -4.6731  -14.7270 C   0  0  2  0  0  0  0  0  0  0  0  0
   20.9660   -6.1237  -14.6827 N   0  0  0  0  0  0  0  0  0  0  0  0
   22.3966   -4.3103  -13.9494 C   0  0  0  0  0  0  0  0  0  0  0  0
   23.2834   -3.3490  -14.4068 O   0  0  0  0  0  0  0  0  0  0  0  0
   22.6678   -4.8701  -12.8556 O   0  0  0  0  0  0  0  0  0  0  0  0
  2  1  1  6
  3  2  1  0
  4  5  1  1
  4  2  1  0
  6  4  1  0
  7  6  2  0
  8  6  1  0
  9  8  1  0
  9 10  1  6
 10 11  1  0
 11 15  1  0
 11 12  2  0
 13  9  1  0
 13 20  1  0
 14 13  2  0
 17 16  1  6
 18 17  1  0
 19 20  1  1
 19 17  1  0
 21 19  1  0
 21 22  1  0
 23 21  2  0
M  END
$$$$
