TDV.pdb
     RDKit          3D

 23 22  0  0  1  0  0  0  0  0999 V2000
   25.9779  -26.8101  -19.1287 C   0  0  0  0  0  0  0  0  0  0  0  0
   25.4769  -25.8828  -18.0250 C   0  0  1  0  0  0  0  0  0  0  0  0
   24.4204  -26.5074  -17.3410 O   0  0  0  0  0  0  0  0  0  0  0  0
   26.5975  -25.5821  -17.0708 C   0  0  2  0  0  0  0  0  0  0  0  0
   26.9973  -26.8120  -16.3998 N   0  0  0  0  0  0  0  0  0  0  0  0
   26.1895  -24.5516  -16.0714 C   0  0  0  0  0  0  0  0  0  0  0  0
   26.0213  -24.9062  -14.8774 O   0  0  0  0  0  0  0  0  0  0  0  0
   25.9993  -23.2147  -16.4661 N   0  0  0  0  0  0  0  0  0  0  0  0
   25.7353  -22.1814  -15.4001 C   0  0  1  0  0  0  0  0  0  0  0  0
   26.5940  -21.0110  -15.7584 C   0  0  0  0  0  0  0  0  0  0  0  0
   28.0263  -21.1109  -15.7123 C   0  0  0  0  0  0  0  0  0  0  0  0
   28.6991  -21.5822  -14.8022 O   0  0  0  0  0  0  0  0  0  0  0  0
   24.2768  -21.9447  -15.4715 C   0  0  0  0  0  0  0  0  0  0  0  0
   23.7458  -21.6574  -16.6034 O   0  0  0  0  0  0  0  0  0  0  0  0
   28.7408  -20.6165  -16.8289 O   0  0  0  0  0  0  0  0  0  0  0  0
   19.6685  -22.6407  -13.9463 C   0  0  0  0  0  0  0  0  0  0  0  0
   21.1597  -22.7694  -13.7031 C   0  0  1  0  0  0  0  0  0  0  0  0
   21.5924  -24.1744  -13.9569 C   0  0  0  0  0  0  0  0  0  0  0  0
   21.9567  -21.8127  -14.5231 C   0  0  2  0  0  0  0  0  0  0  0  0
   23.3994  -22.0142  -14.3785 N   0  0  0  0  0  0  0  0  0  0  0  0
   21.6193  -20.3797  -14.1989 C   0  0  0  0  0  0  0  0  0  0  0  0
   20.6485  -19.6867  -14.9039 O   0  0  0  0  0  0  0  0  0  0  0  0
   22.2098  -19.7634  -13.2744 O   0  0  0  0  0  0  0  0  0  0  0  0
  2  1  1  6
  3  2  1  0
  4  5  1  1
  4  2  1  0
  6  4  1  0
  7  6  2  0
  8  6  1  0
  9  8  1  0
  9 10  1  6
 10 11  1  0
 11 15  1  0
 11 12  2  0
 13  9  1  0
 13 20  1  0
 14 13  2  0
 17 16  1  6
 18 17  1  0
 19 20  1  1
 19 17  1  0
 21 19  1  0
 21 22  1  0
 23 21  2  0
M  END
$$$$
