VDG.pdb
     RDKit          3D

 20 19  0  0  1  0  0  0  0  0999 V2000
    9.3633  -12.7468   20.3108 C   0  0  0  0  0  0  0  0  0  0  0  0
    8.2394  -13.3980   19.5213 C   0  0  1  0  0  0  0  0  0  0  0  0
    7.9354  -12.5308   18.3279 C   0  0  0  0  0  0  0  0  0  0  0  0
    8.6999  -14.7899   19.1239 C   0  0  2  0  0  0  0  0  0  0  0  0
    7.7631  -15.3369   18.1810 N   0  0  0  0  0  0  0  0  0  0  0  0
    8.8935  -15.6534   20.3080 C   0  0  0  0  0  0  0  0  0  0  0  0
    7.9335  -15.9582   21.0588 O   0  0  0  0  0  0  0  0  0  0  0  0
   10.1863  -16.1511   20.6058 N   0  0  0  0  0  0  0  0  0  0  0  0
   10.4426  -17.0283   21.7362 C   0  0  1  0  0  0  0  0  0  0  0  0
   10.6774  -18.4263   21.2105 C   0  0  0  0  0  0  0  0  0  0  0  0
    9.4540  -19.1413   20.8424 C   0  0  0  0  0  0  0  0  0  0  0  0
    8.3484  -18.8914   21.4174 O   0  0  0  0  0  0  0  0  0  0  0  0
   11.5284  -16.4892   22.5475 C   0  0  0  0  0  0  0  0  0  0  0  0
   11.8667  -16.9496   23.6731 O   0  0  0  0  0  0  0  0  0  0  0  0
    9.4020  -20.1304   19.8552 O   0  0  0  0  0  0  0  0  0  0  0  0
   12.2772  -15.3713   22.0689 N   0  0  0  0  0  0  0  0  0  0  0  0
   13.3264  -14.7588   22.8523 C   0  0  0  0  0  0  0  0  0  0  0  0
   14.5734  -15.5556   22.7540 C   0  0  0  0  0  0  0  0  0  0  0  0
   14.4845  -16.7752   22.4649 O   0  0  0  0  0  0  0  0  0  0  0  0
   15.8181  -14.9917   22.9714 O   0  0  0  0  0  0  0  0  0  0  0  0
  2  1  1  6
  3  2  1  0
  4  2  1  0
  4  5  1  6
  6  7  2  0
  6  4  1  0
  8  6  1  0
  9  8  1  0
  9 13  1  0
  9 10  1  6
 11 10  1  0
 11 15  1  0
 12 11  2  0
 13 16  1  0
 14 13  2  0
 16 17  1  0
 17 18  1  0
 18 19  2  0
 18 20  1  0
M  END
$$$$
