VDG.pdb
     RDKit          3D

 20 19  0  0  1  0  0  0  0  0999 V2000
  -43.5836  -99.5246   -2.8321 C   0  0  0  0  0  0  0  0  0  0  0  0
  -42.8995  -98.2088   -2.4987 C   0  0  1  0  0  0  0  0  0  0  0  0
  -43.3119  -97.1875   -3.5261 C   0  0  0  0  0  0  0  0  0  0  0  0
  -43.3148  -97.8155   -1.0915 C   0  0  2  0  0  0  0  0  0  0  0  0
  -43.5126  -99.0091   -0.3155 N   0  0  0  0  0  0  0  0  0  0  0  0
  -44.5028  -96.9358   -1.1049 C   0  0  0  0  0  0  0  0  0  0  0  0
  -44.5802  -95.9536   -1.8844 O   0  0  0  0  0  0  0  0  0  0  0  0
  -45.5795  -97.2025   -0.2233 N   0  0  0  0  0  0  0  0  0  0  0  0
  -46.9237  -97.4868   -0.6980 C   0  0  1  0  0  0  0  0  0  0  0  0
  -46.8756  -98.7403   -1.5420 C   0  0  0  0  0  0  0  0  0  0  0  0
  -46.4288  -99.9324   -0.8192 C   0  0  0  0  0  0  0  0  0  0  0  0
  -45.7483 -100.8360   -1.3988 O   0  0  0  0  0  0  0  0  0  0  0  0
  -47.8473  -97.5434    0.4296 C   0  0  0  0  0  0  0  0  0  0  0  0
  -47.5432  -97.9857    1.5720 O   0  0  0  0  0  0  0  0  0  0  0  0
  -46.7058 -100.1690    0.5309 O   0  0  0  0  0  0  0  0  0  0  0  0
  -49.1871  -97.0767    0.2667 N   0  0  0  0  0  0  0  0  0  0  0  0
  -49.4872  -95.6935   -0.0278 C   0  0  0  0  0  0  0  0  0  0  0  0
  -50.6499  -95.2378    0.7723 C   0  0  0  0  0  0  0  0  0  0  0  0
  -51.1849  -96.0494    1.5685 O   0  0  0  0  0  0  0  0  0  0  0  0
  -51.1524  -93.9534    0.6620 O   0  0  0  0  0  0  0  0  0  0  0  0
  2  1  1  6
  3  2  1  0
  4  2  1  0
  4  5  1  1
  6  7  2  0
  6  4  1  0
  8  6  1  0
  9  8  1  0
  9 13  1  0
  9 10  1  1
 11 10  1  0
 11 15  1  0
 12 11  2  0
 13 16  1  0
 14 13  2  0
 16 17  1  0
 17 18  1  0
 18 19  2  0
 18 20  1  0
M  END
$$$$
