VDG.pdb
     RDKit          3D

 20 19  0  0  1  0  0  0  0  0999 V2000
    9.3031  -12.8695   20.5627 C   0  0  0  0  0  0  0  0  0  0  0  0
    8.3092  -13.7042   19.7716 C   0  0  1  0  0  0  0  0  0  0  0  0
    7.0964  -12.8561   19.4913 C   0  0  0  0  0  0  0  0  0  0  0  0
    9.0010  -14.1643   18.5000 C   0  0  2  0  0  0  0  0  0  0  0  0
    8.0281  -14.7796   17.6392 N   0  0  0  0  0  0  0  0  0  0  0  0
   10.1460  -15.0504   18.7983 C   0  0  0  0  0  0  0  0  0  0  0  0
   10.0626  -16.2960   18.6578 O   0  0  0  0  0  0  0  0  0  0  0  0
   11.3652  -14.4880   19.2510 N   0  0  0  0  0  0  0  0  0  0  0  0
   12.5934  -15.2601   19.3425 C   0  0  1  0  0  0  0  0  0  0  0  0
   13.7633  -14.3088   19.2309 C   0  0  0  0  0  0  0  0  0  0  0  0
   14.6042  -14.5289   18.0529 C   0  0  0  0  0  0  0  0  0  0  0  0
   14.4295  -15.5378   17.2998 O   0  0  0  0  0  0  0  0  0  0  0  0
   12.5797  -16.0740   20.5528 C   0  0  0  0  0  0  0  0  0  0  0  0
   13.3299  -17.0711   20.7436 O   0  0  0  0  0  0  0  0  0  0  0  0
   15.6401  -13.6714   17.6693 O   0  0  0  0  0  0  0  0  0  0  0  0
   11.6742  -15.7509   21.6088 N   0  0  0  0  0  0  0  0  0  0  0  0
   11.6288  -16.5086   22.8391 C   0  0  0  0  0  0  0  0  0  0  0  0
   12.6931  -16.0506   23.7648 C   0  0  0  0  0  0  0  0  0  0  0  0
   13.8895  -16.1289   23.3887 O   0  0  0  0  0  0  0  0  0  0  0  0
   12.4006  -15.5448   25.0190 O   0  0  0  0  0  0  0  0  0  0  0  0
  2  1  1  1
  3  2  1  0
  4  2  1  0
  4  5  1  6
  6  7  2  0
  6  4  1  0
  8  6  1  0
  9  8  1  0
  9 13  1  0
  9 10  1  1
 11 10  1  0
 11 15  1  0
 12 11  2  0
 13 16  1  0
 14 13  2  0
 16 17  1  0
 17 18  1  0
 18 19  2  0
 18 20  1  0
M  END
$$$$
