VDG.pdb
     RDKit          3D

 20 19  0  0  1  0  0  0  0  0999 V2000
    9.2255  -13.0590   20.9565 C   0  0  0  0  0  0  0  0  0  0  0  0
    8.0811  -13.7299   20.2144 C   0  0  1  0  0  0  0  0  0  0  0  0
    7.4496  -12.7133   19.2999 C   0  0  0  0  0  0  0  0  0  0  0  0
    8.6538  -14.9150   19.4561 C   0  0  2  0  0  0  0  0  0  0  0  0
    7.6235  -15.4758   18.6254 N   0  0  0  0  0  0  0  0  0  0  0  0
    9.2535  -15.9056   20.3749 C   0  0  0  0  0  0  0  0  0  0  0  0
    8.5388  -16.6889   21.0486 O   0  0  0  0  0  0  0  0  0  0  0  0
   10.6629  -15.9779   20.5009 N   0  0  0  0  0  0  0  0  0  0  0  0
   11.3181  -16.9086   21.4050 C   0  0  1  0  0  0  0  0  0  0  0  0
   12.6523  -17.2940   20.8072 C   0  0  0  0  0  0  0  0  0  0  0  0
   12.5526  -18.0665   19.5676 C   0  0  0  0  0  0  0  0  0  0  0  0
   11.6423  -18.9392   19.4083 O   0  0  0  0  0  0  0  0  0  0  0  0
   11.3905  -16.3335   22.7436 C   0  0  0  0  0  0  0  0  0  0  0  0
   11.5991  -15.1108   22.9781 O   0  0  0  0  0  0  0  0  0  0  0  0
   13.4259  -17.9124   18.4864 O   0  0  0  0  0  0  0  0  0  0  0  0
   11.2186  -17.1770   23.8829 N   0  0  0  0  0  0  0  0  0  0  0  0
   11.2348  -16.6571   25.2317 C   0  0  0  0  0  0  0  0  0  0  0  0
   10.9876  -17.7474   26.2062 C   0  0  0  0  0  0  0  0  0  0  0  0
   11.9596  -18.4527   26.5761 O   0  0  0  0  0  0  0  0  0  0  0  0
    9.7247  -18.0020   26.7109 O   0  0  0  0  0  0  0  0  0  0  0  0
  2  1  1  6
  3  2  1  0
  4  2  1  0
  4  5  1  1
  6  7  2  0
  6  4  1  0
  8  6  1  0
  9  8  1  0
  9 13  1  0
  9 10  1  6
 11 10  1  0
 11 15  1  0
 12 11  2  0
 13 16  1  0
 14 13  2  0
 16 17  1  0
 17 18  1  0
 18 19  2  0
 18 20  1  0
M  END
$$$$
