VDG.pdb
     RDKit          3D

 20 19  0  0  1  0  0  0  0  0999 V2000
    8.4358  -12.1333   25.4193 C   0  0  0  0  0  0  0  0  0  0  0  0
    7.4128  -12.6247   26.4304 C   0  0  1  0  0  0  0  0  0  0  0  0
    6.8708  -11.4317   27.1732 C   0  0  0  0  0  0  0  0  0  0  0  0
    6.3323  -13.3726   25.6684 C   0  0  2  0  0  0  0  0  0  0  0  0
    5.2845  -13.7336   26.5836 N   0  0  0  0  0  0  0  0  0  0  0  0
    6.8884  -14.5354   24.9444 C   0  0  0  0  0  0  0  0  0  0  0  0
    6.8361  -15.6933   25.4291 O   0  0  0  0  0  0  0  0  0  0  0  0
    7.4926  -14.3455   23.6770 N   0  0  0  0  0  0  0  0  0  0  0  0
    7.8861  -15.4568   22.8265 C   0  0  1  0  0  0  0  0  0  0  0  0
    7.7563  -15.0219   21.3843 C   0  0  0  0  0  0  0  0  0  0  0  0
    8.2549  -16.0006   20.4163 C   0  0  0  0  0  0  0  0  0  0  0  0
    7.7471  -17.1629   20.3358 O   0  0  0  0  0  0  0  0  0  0  0  0
    9.2133  -15.9277   23.2067 C   0  0  0  0  0  0  0  0  0  0  0  0
    9.8537  -16.8187   22.5826 O   0  0  0  0  0  0  0  0  0  0  0  0
    9.3018  -15.7448   19.5252 O   0  0  0  0  0  0  0  0  0  0  0  0
    9.8587  -15.3673   24.3507 N   0  0  0  0  0  0  0  0  0  0  0  0
   11.2031  -15.7379   24.7313 C   0  0  0  0  0  0  0  0  0  0  0  0
   11.1745  -16.8943   25.6594 C   0  0  0  0  0  0  0  0  0  0  0  0
   10.0814  -17.4842   25.8489 O   0  0  0  0  0  0  0  0  0  0  0  0
   12.3123  -17.3325   26.3137 O   0  0  0  0  0  0  0  0  0  0  0  0
  2  1  1  6
  3  2  1  0
  4  2  1  0
  4  5  1  1
  6  7  2  0
  6  4  1  0
  8  6  1  0
  9  8  1  0
  9 13  1  0
  9 10  1  6
 11 10  1  0
 11 15  1  0
 12 11  2  0
 13 16  1  0
 14 13  2  0
 16 17  1  0
 17 18  1  0
 18 19  2  0
 18 20  1  0
M  END
$$$$
