VDG.pdb
     RDKit          3D

 20 19  0  0  1  0  0  0  0  0999 V2000
    8.3518  -11.9350   19.6868 C   0  0  0  0  0  0  0  0  0  0  0  0
    8.6779  -13.3794   20.0300 C   0  0  1  0  0  0  0  0  0  0  0  0
    7.5663  -13.9245   20.8878 C   0  0  0  0  0  0  0  0  0  0  0  0
    8.8298  -14.1416   18.7249 C   0  0  2  0  0  0  0  0  0  0  0  0
    7.5804  -14.1002   18.0155 N   0  0  0  0  0  0  0  0  0  0  0  0
    9.3132  -15.5192   18.9570 C   0  0  0  0  0  0  0  0  0  0  0  0
    8.5629  -16.5125   18.7877 O   0  0  0  0  0  0  0  0  0  0  0  0
   10.6498  -15.7289   19.3779 N   0  0  0  0  0  0  0  0  0  0  0  0
   11.1835  -17.0539   19.6473 C   0  0  1  0  0  0  0  0  0  0  0  0
   12.4540  -17.2274   18.8463 C   0  0  0  0  0  0  0  0  0  0  0  0
   12.2358  -17.4244   17.4121 C   0  0  0  0  0  0  0  0  0  0  0  0
   12.9911  -16.8741   16.5506 O   0  0  0  0  0  0  0  0  0  0  0  0
   11.3356  -17.2455   21.0853 C   0  0  0  0  0  0  0  0  0  0  0  0
   11.6913  -18.3319   21.6207 O   0  0  0  0  0  0  0  0  0  0  0  0
   11.2074  -18.2125   16.8860 O   0  0  0  0  0  0  0  0  0  0  0  0
   11.0750  -16.1572   21.9724 N   0  0  0  0  0  0  0  0  0  0  0  0
   11.0803  -16.3202   23.4087 C   0  0  0  0  0  0  0  0  0  0  0  0
   12.4620  -16.2020   23.9347 C   0  0  0  0  0  0  0  0  0  0  0  0
   13.4051  -16.0620   23.1163 O   0  0  0  0  0  0  0  0  0  0  0  0
   12.7318  -16.2424   25.2911 O   0  0  0  0  0  0  0  0  0  0  0  0
  2  1  1  6
  3  2  1  0
  4  2  1  0
  4  5  1  1
  6  7  2  0
  6  4  1  0
  8  6  1  0
  9  8  1  0
  9 13  1  0
  9 10  1  6
 11 10  1  0
 11 15  1  0
 12 11  2  0
 13 16  1  0
 14 13  2  0
 16 17  1  0
 17 18  1  0
 18 19  2  0
 18 20  1  0
M  END
$$$$
