VDG.pdb
     RDKit          3D

 20 19  0  0  1  0  0  0  0  0999 V2000
    9.4856  -12.4811   19.6088 C   0  0  0  0  0  0  0  0  0  0  0  0
    8.1714  -13.2320   19.4699 C   0  0  1  0  0  0  0  0  0  0  0  0
    7.1962  -12.3476   18.7381 C   0  0  0  0  0  0  0  0  0  0  0  0
    8.4542  -14.5245   18.7238 C   0  0  2  0  0  0  0  0  0  0  0  0
    7.2063  -15.1790   18.4401 N   0  0  0  0  0  0  0  0  0  0  0  0
    9.3968  -15.3842   19.4706 C   0  0  0  0  0  0  0  0  0  0  0  0
    9.0027  -16.1357   20.3970 O   0  0  0  0  0  0  0  0  0  0  0  0
   10.7739  -15.3648   19.1376 N   0  0  0  0  0  0  0  0  0  0  0  0
   11.7404  -16.2502   19.7659 C   0  0  1  0  0  0  0  0  0  0  0  0
   12.9217  -16.4033   18.8348 C   0  0  0  0  0  0  0  0  0  0  0  0
   13.9234  -17.3685   19.2914 C   0  0  0  0  0  0  0  0  0  0  0  0
   13.5802  -18.4912   19.7785 O   0  0  0  0  0  0  0  0  0  0  0  0
   12.0715  -15.7589   21.0989 C   0  0  0  0  0  0  0  0  0  0  0  0
   12.3848  -14.5631   21.3547 O   0  0  0  0  0  0  0  0  0  0  0  0
   15.3019  -17.1415   19.2311 O   0  0  0  0  0  0  0  0  0  0  0  0
   12.0491  -16.6592   22.2072 N   0  0  0  0  0  0  0  0  0  0  0  0
   12.2476  -16.2080   23.5661 C   0  0  0  0  0  0  0  0  0  0  0  0
   12.0966  -17.3407   24.5114 C   0  0  0  0  0  0  0  0  0  0  0  0
   11.7579  -18.4614   24.0551 O   0  0  0  0  0  0  0  0  0  0  0  0
   12.3180  -17.1919   25.8691 O   0  0  0  0  0  0  0  0  0  0  0  0
  2  1  1  6
  3  2  1  0
  4  2  1  0
  4  5  1  1
  6  7  2  0
  6  4  1  0
  8  6  1  0
  9  8  1  0
  9 13  1  0
  9 10  1  6
 11 10  1  0
 11 15  1  0
 12 11  2  0
 13 16  1  0
 14 13  2  0
 16 17  1  0
 17 18  1  0
 18 19  2  0
 18 20  1  0
M  END
$$$$
