TKD.pdb
     RDKit          3D

 25 24  0  0  1  0  0  0  0  0999 V2000
   15.2886  -19.5353   17.8007 C   0  0  0  0  0  0  0  0  0  0  0  0
   15.6534  -18.2503   17.1081 C   0  0  1  0  0  0  0  0  0  0  0  0
   16.3402  -18.4736   15.9297 O   0  0  0  0  0  0  0  0  0  0  0  0
   14.3909  -17.4750   16.7919 C   0  0  2  0  0  0  0  0  0  0  0  0
   14.7865  -16.2843   16.0805 N   0  0  0  0  0  0  0  0  0  0  0  0
   13.7105  -17.0565   18.0455 C   0  0  0  0  0  0  0  0  0  0  0  0
   14.2486  -16.1898   18.7436 O   0  0  0  0  0  0  0  0  0  0  0  0
   12.4843  -17.6065   18.4649 N   0  0  0  0  0  0  0  0  0  0  0  0
   11.7846  -17.2789   19.6645 C   0  0  1  0  0  0  0  0  0  0  0  0
   10.4092  -17.8722   19.7921 C   0  0  0  0  0  0  0  0  0  0  0  0
    9.5345  -17.5131   18.5876 C   0  0  0  0  0  0  0  0  0  0  0  0
    8.2352  -18.3145   18.7502 C   0  0  0  0  0  0  0  0  0  0  0  0
    7.2787  -17.9651   17.6372 C   0  0  0  0  0  0  0  0  0  0  0  0
    6.0637  -18.7427   17.8707 N   0  0  0  0  0  0  0  0  0  0  0  0
   12.5327  -17.6980   20.8956 C   0  0  0  0  0  0  0  0  0  0  0  0
   13.0983  -18.8215   20.9055 O   0  0  0  0  0  0  0  0  0  0  0  0
   12.6357  -16.8942   22.0483 N   0  0  0  0  0  0  0  0  0  0  0  0
   13.5255  -17.1877   23.1593 C   0  0  1  0  0  0  0  0  0  0  0  0
   14.6897  -16.2326   23.2131 C   0  0  0  0  0  0  0  0  0  0  0  0
   15.6006  -16.5220   24.3496 C   0  0  0  0  0  0  0  0  0  0  0  0
   16.5601  -15.7284   24.5230 O   0  0  0  0  0  0  0  0  0  0  0  0
   12.7446  -17.0020   24.4090 C   0  0  0  0  0  0  0  0  0  0  0  0
   12.5378  -15.7511   24.9667 O   0  0  0  0  0  0  0  0  0  0  0  0
   15.4624  -17.5831   25.2068 O   0  0  0  0  0  0  0  0  0  0  0  0
   12.2510  -17.9858   24.9911 O   0  0  0  0  0  0  0  0  0  0  0  0
  2  1  1  6
  2  3  1  0
  4  6  1  0
  4  2  1  0
  4  5  1  6
  6  7  2  0
  8  9  1  0
  8  6  1  0
  9 15  1  0
  9 10  1  6
 11 10  1  0
 12 11  1  0
 12 13  1  0
 13 14  1  0
 15 16  2  0
 17 15  1  0
 17 18  1  0
 18 22  1  0
 18 19  1  1
 20 19  1  0
 21 20  2  0
 22 25  2  0
 22 23  1  0
 24 20  1  0
M  END
$$$$
