TKD.pdb
     RDKit          3D

 25 24  0  0  1  0  0  0  0  0999 V2000
    7.0243  -18.0575   20.4214 C   0  0  0  0  0  0  0  0  0  0  0  0
    8.0965  -17.6746   19.4376 C   0  0  1  0  0  0  0  0  0  0  0  0
    7.7962  -18.0929   18.1550 O   0  0  0  0  0  0  0  0  0  0  0  0
    8.2552  -16.1680   19.4296 C   0  0  2  0  0  0  0  0  0  0  0  0
    9.2546  -15.8480   18.4401 N   0  0  0  0  0  0  0  0  0  0  0  0
    8.7455  -15.6903   20.7490 C   0  0  0  0  0  0  0  0  0  0  0  0
    9.9288  -15.8929   21.0434 O   0  0  0  0  0  0  0  0  0  0  0  0
    7.9182  -15.0200   21.6701 N   0  0  0  0  0  0  0  0  0  0  0  0
    8.2902  -14.6031   22.9830 C   0  0  1  0  0  0  0  0  0  0  0  0
    7.2349  -13.8505   23.7445 C   0  0  0  0  0  0  0  0  0  0  0  0
    7.6895  -13.5497   25.1755 C   0  0  0  0  0  0  0  0  0  0  0  0
    6.6043  -12.6531   25.7881 C   0  0  0  0  0  0  0  0  0  0  0  0
    7.0122  -12.2383   27.1799 C   0  0  0  0  0  0  0  0  0  0  0  0
    5.9878  -11.3121   27.6572 N   0  0  0  0  0  0  0  0  0  0  0  0
    8.6900  -15.7551   23.8571 C   0  0  0  0  0  0  0  0  0  0  0  0
    7.8587  -16.6775   24.0584 O   0  0  0  0  0  0  0  0  0  0  0  0
    9.9554  -15.8586   24.4681 N   0  0  0  0  0  0  0  0  0  0  0  0
   10.4076  -17.0349   25.1922 C   0  0  1  0  0  0  0  0  0  0  0  0
   11.8045  -17.4361   24.7940 C   0  0  0  0  0  0  0  0  0  0  0  0
   12.2902  -18.6117   25.5602 C   0  0  0  0  0  0  0  0  0  0  0  0
   11.5705  -19.6421   25.5334 O   0  0  0  0  0  0  0  0  0  0  0  0
   10.4454  -16.6767   26.6331 C   0  0  0  0  0  0  0  0  0  0  0  0
   10.6563  -17.6252   27.6202 O   0  0  0  0  0  0  0  0  0  0  0  0
   13.4550  -18.6424   26.2826 O   0  0  0  0  0  0  0  0  0  0  0  0
   10.2853  -15.4943   26.9889 O   0  0  0  0  0  0  0  0  0  0  0  0
  2  1  1  1
  2  3  1  0
  4  6  1  0
  4  2  1  0
  4  5  1  6
  6  7  2  0
  8  9  1  0
  8  6  1  0
  9 15  1  0
  9 10  1  1
 11 10  1  0
 12 11  1  0
 12 13  1  0
 13 14  1  0
 15 16  2  0
 17 15  1  0
 17 18  1  0
 18 22  1  0
 18 19  1  6
 20 19  1  0
 21 20  2  0
 22 25  2  0
 22 23  1  0
 24 20  1  0
M  END
$$$$
