TKD.pdb
     RDKit          3D

 25 24  0  0  1  0  0  0  0  0999 V2000
    7.4125  -15.1840   17.4298 C   0  0  0  0  0  0  0  0  0  0  0  0
    7.9243  -15.0670   18.8399 C   0  0  1  0  0  0  0  0  0  0  0  0
    9.2540  -15.4300   18.9404 O   0  0  0  0  0  0  0  0  0  0  0  0
    7.7778  -13.6341   19.3094 C   0  0  2  0  0  0  0  0  0  0  0  0
    8.6009  -12.8165   18.4524 N   0  0  0  0  0  0  0  0  0  0  0  0
    8.2786  -13.4898   20.7015 C   0  0  0  0  0  0  0  0  0  0  0  0
    9.4706  -13.2087   20.8697 O   0  0  0  0  0  0  0  0  0  0  0  0
    7.4519  -13.6601   21.8282 N   0  0  0  0  0  0  0  0  0  0  0  0
    7.8810  -13.6744   23.1890 C   0  0  1  0  0  0  0  0  0  0  0  0
    6.8530  -13.2360   24.1945 C   0  0  0  0  0  0  0  0  0  0  0  0
    7.4056  -13.3047   25.6210 C   0  0  0  0  0  0  0  0  0  0  0  0
    6.3373  -12.6705   26.5230 C   0  0  0  0  0  0  0  0  0  0  0  0
    6.7913  -12.7180   27.9608 C   0  0  0  0  0  0  0  0  0  0  0  0
    5.7289  -12.1052   28.7551 N   0  0  0  0  0  0  0  0  0  0  0  0
    8.3393  -15.0332   23.6299 C   0  0  0  0  0  0  0  0  0  0  0  0
    7.5854  -16.0198   23.4282 O   0  0  0  0  0  0  0  0  0  0  0  0
    9.5773  -15.2637   24.2620 N   0  0  0  0  0  0  0  0  0  0  0  0
   10.0159  -16.5698   24.7246 C   0  0  1  0  0  0  0  0  0  0  0  0
   11.4946  -16.7712   24.5164 C   0  0  0  0  0  0  0  0  0  0  0  0
   11.8712  -16.7179   23.0809 C   0  0  0  0  0  0  0  0  0  0  0  0
   11.2180  -17.4514   22.2962 O   0  0  0  0  0  0  0  0  0  0  0  0
    9.7649  -16.6252   26.1875 C   0  0  0  0  0  0  0  0  0  0  0  0
   10.0284  -17.7610   26.9352 O   0  0  0  0  0  0  0  0  0  0  0  0
   12.8700  -15.9317   22.5673 O   0  0  0  0  0  0  0  0  0  0  0  0
    9.3040  -15.6329   26.7819 O   0  0  0  0  0  0  0  0  0  0  0  0
  2  1  1  6
  2  3  1  0
  4  6  1  0
  4  2  1  0
  4  5  1  6
  6  7  2  0
  8  9  1  0
  8  6  1  0
  9 15  1  0
  9 10  1  1
 11 10  1  0
 12 11  1  0
 12 13  1  0
 13 14  1  0
 15 16  2  0
 17 15  1  0
 17 18  1  0
 18 22  1  0
 18 19  1  1
 20 19  1  0
 21 20  2  0
 22 25  2  0
 22 23  1  0
 24 20  1  0
M  END
$$$$
