TKD.pdb
     RDKit          3D

 25 24  0  0  1  0  0  0  0  0999 V2000
    6.6369  -18.7461   27.7676 C   0  0  0  0  0  0  0  0  0  0  0  0
    7.3996  -18.3090   26.5465 C   0  0  1  0  0  0  0  0  0  0  0  0
    8.5997  -18.9820   26.4166 O   0  0  0  0  0  0  0  0  0  0  0  0
    6.5625  -18.5715   25.3115 C   0  0  2  0  0  0  0  0  0  0  0  0
    6.4888  -20.0018   25.1401 N   0  0  0  0  0  0  0  0  0  0  0  0
    7.2186  -17.9977   24.1074 C   0  0  0  0  0  0  0  0  0  0  0  0
    7.8784  -18.7519   23.3835 O   0  0  0  0  0  0  0  0  0  0  0  0
    7.1176  -16.6365   23.7627 N   0  0  0  0  0  0  0  0  0  0  0  0
    7.9260  -15.9508   22.8075 C   0  0  1  0  0  0  0  0  0  0  0  0
    7.4810  -14.5556   22.4682 C   0  0  0  0  0  0  0  0  0  0  0  0
    8.4443  -13.8887   21.4822 C   0  0  0  0  0  0  0  0  0  0  0  0
    7.6513  -13.6841   20.1836 C   0  0  0  0  0  0  0  0  0  0  0  0
    8.5568  -13.1188   19.1177 C   0  0  0  0  0  0  0  0  0  0  0  0
    7.7293  -12.9169   17.9303 N   0  0  0  0  0  0  0  0  0  0  0  0
    9.3559  -15.8346   23.2468 C   0  0  0  0  0  0  0  0  0  0  0  0
    9.6159  -15.1830   24.2909 O   0  0  0  0  0  0  0  0  0  0  0  0
   10.4292  -16.4206   22.5470 N   0  0  0  0  0  0  0  0  0  0  0  0
   11.8226  -16.2652   22.9299 C   0  0  1  0  0  0  0  0  0  0  0  0
   12.5086  -17.5956   23.1030 C   0  0  0  0  0  0  0  0  0  0  0  0
   12.1658  -18.2393   24.3965 C   0  0  0  0  0  0  0  0  0  0  0  0
   12.4443  -17.5967   25.4405 O   0  0  0  0  0  0  0  0  0  0  0  0
   12.5077  -15.5570   21.8185 C   0  0  0  0  0  0  0  0  0  0  0  0
   11.8995  -15.3557   20.5905 O   0  0  0  0  0  0  0  0  0  0  0  0
   11.5744  -19.4700   24.5206 O   0  0  0  0  0  0  0  0  0  0  0  0
   13.6642  -15.1219   21.9718 O   0  0  0  0  0  0  0  0  0  0  0  0
  2  1  1  1
  2  3  1  0
  4  6  1  0
  4  2  1  0
  4  5  1  6
  6  7  2  0
  8  9  1  0
  8  6  1  0
  9 15  1  0
  9 10  1  1
 11 10  1  0
 12 11  1  0
 12 13  1  0
 13 14  1  0
 15 16  2  0
 17 15  1  0
 17 18  1  0
 18 22  1  0
 18 19  1  6
 20 19  1  0
 21 20  2  0
 22 25  2  0
 22 23  1  0
 24 20  1  0
M  END
$$$$
