TKD.pdb
     RDKit          3D

 25 24  0  0  1  0  0  0  0  0999 V2000
    7.5198  -16.3236   19.1797 C   0  0  0  0  0  0  0  0  0  0  0  0
    8.1373  -15.1432   18.4801 C   0  0  1  0  0  0  0  0  0  0  0  0
    7.8002  -15.1003   17.1405 O   0  0  0  0  0  0  0  0  0  0  0  0
    7.6619  -13.8646   19.1391 C   0  0  2  0  0  0  0  0  0  0  0  0
    8.1968  -12.7645   18.3748 N   0  0  0  0  0  0  0  0  0  0  0  0
    8.1945  -13.7644   20.5232 C   0  0  0  0  0  0  0  0  0  0  0  0
    9.3980  -13.5249   20.6726 O   0  0  0  0  0  0  0  0  0  0  0  0
    7.3851  -13.9309   21.6631 N   0  0  0  0  0  0  0  0  0  0  0  0
    7.8297  -13.9049   23.0187 C   0  0  1  0  0  0  0  0  0  0  0  0
    6.7735  -13.5816   24.0383 C   0  0  0  0  0  0  0  0  0  0  0  0
    7.3677  -13.4960   25.4470 C   0  0  0  0  0  0  0  0  0  0  0  0
    6.3281  -12.7606   26.3044 C   0  0  0  0  0  0  0  0  0  0  0  0
    6.8421  -12.6157   27.7152 C   0  0  0  0  0  0  0  0  0  0  0  0
    5.7984  -11.9277   28.4718 N   0  0  0  0  0  0  0  0  0  0  0  0
    8.4343  -15.2094   23.4473 C   0  0  0  0  0  0  0  0  0  0  0  0
    7.7384  -16.2540   23.3639 O   0  0  0  0  0  0  0  0  0  0  0  0
    9.7486  -15.3266   23.9413 N   0  0  0  0  0  0  0  0  0  0  0  0
   10.3505  -16.5876   24.3413 C   0  0  1  0  0  0  0  0  0  0  0  0
   11.8523  -16.4927   24.4191 C   0  0  0  0  0  0  0  0  0  0  0  0
   12.4968  -16.7043   23.0981 C   0  0  0  0  0  0  0  0  0  0  0  0
   11.7349  -16.9519   22.1292 O   0  0  0  0  0  0  0  0  0  0  0  0
    9.8567  -16.8967   25.7076 C   0  0  0  0  0  0  0  0  0  0  0  0
    9.7930  -18.1937   26.1894 O   0  0  0  0  0  0  0  0  0  0  0  0
   13.8481  -16.6474   22.8735 O   0  0  0  0  0  0  0  0  0  0  0  0
    9.4833  -15.9785   26.4612 O   0  0  0  0  0  0  0  0  0  0  0  0
  2  1  1  1
  2  3  1  0
  4  6  1  0
  4  2  1  0
  4  5  1  6
  6  7  2  0
  8  9  1  0
  8  6  1  0
  9 15  1  0
  9 10  1  1
 11 10  1  0
 12 11  1  0
 12 13  1  0
 13 14  1  0
 15 16  2  0
 17 15  1  0
 17 18  1  0
 18 22  1  0
 18 19  1  1
 20 19  1  0
 21 20  2  0
 22 25  2  0
 22 23  1  0
 24 20  1  0
M  END
$$$$
