TKD.pdb
     RDKit          3D

 25 24  0  0  1  0  0  0  0  0999 V2000
    9.8496  -20.4157   22.0848 C   0  0  0  0  0  0  0  0  0  0  0  0
   10.3711  -20.6588   20.6945 C   0  0  1  0  0  0  0  0  0  0  0  0
   10.0927  -21.9384   20.2529 O   0  0  0  0  0  0  0  0  0  0  0  0
    9.7349  -19.6692   19.7400 C   0  0  2  0  0  0  0  0  0  0  0  0
   10.1915  -20.0006   18.4125 N   0  0  0  0  0  0  0  0  0  0  0  0
   10.1850  -18.2866   20.0488 C   0  0  0  0  0  0  0  0  0  0  0  0
   11.2988  -17.9293   19.6490 O   0  0  0  0  0  0  0  0  0  0  0  0
    9.3956  -17.3746   20.7749 N   0  0  0  0  0  0  0  0  0  0  0  0
    9.7950  -16.0724   21.2000 C   0  0  1  0  0  0  0  0  0  0  0  0
    8.7067  -15.0354   21.2122 C   0  0  0  0  0  0  0  0  0  0  0  0
    8.1288  -14.8189   19.8108 C   0  0  0  0  0  0  0  0  0  0  0  0
    7.5119  -13.4131   19.8165 C   0  0  0  0  0  0  0  0  0  0  0  0
    6.9342  -13.1050   18.4574 C   0  0  0  0  0  0  0  0  0  0  0  0
    6.2254  -11.8334   18.5829 N   0  0  0  0  0  0  0  0  0  0  0  0
   10.3797  -16.0762   22.5817 C   0  0  0  0  0  0  0  0  0  0  0  0
    9.5997  -16.1243   23.5675 O   0  0  0  0  0  0  0  0  0  0  0  0
   11.7650  -16.0283   22.8347 N   0  0  0  0  0  0  0  0  0  0  0  0
   12.3801  -16.5279   24.0530 C   0  0  1  0  0  0  0  0  0  0  0  0
   12.0942  -17.9920   24.2662 C   0  0  0  0  0  0  0  0  0  0  0  0
   12.1815  -18.3778   25.6975 C   0  0  0  0  0  0  0  0  0  0  0  0
   12.5066  -17.4744   26.5090 O   0  0  0  0  0  0  0  0  0  0  0  0
   13.8499  -16.3841   23.8944 C   0  0  0  0  0  0  0  0  0  0  0  0
   14.4202  -15.9256   22.7184 O   0  0  0  0  0  0  0  0  0  0  0  0
   11.9337  -19.6368   26.1804 O   0  0  0  0  0  0  0  0  0  0  0  0
   14.6128  -16.6785   24.8333 O   0  0  0  0  0  0  0  0  0  0  0  0
  2  1  1  1
  2  3  1  0
  4  6  1  0
  4  2  1  0
  4  5  1  6
  6  7  2  0
  8  9  1  0
  8  6  1  0
  9 15  1  0
  9 10  1  1
 11 10  1  0
 12 11  1  0
 12 13  1  0
 13 14  1  0
 15 16  2  0
 17 15  1  0
 17 18  1  0
 18 22  1  0
 18 19  1  6
 20 19  1  0
 21 20  2  0
 22 25  2  0
 22 23  1  0
 24 20  1  0
M  END
$$$$
