CSD.pdb
     RDKit          3D

 21 20  0  0  1  0  0  0  0  0999 V2000
   26.3669  -11.6876  -17.9350 N   0  0  0  0  0  0  0  0  0  0  0  0
   25.4744  -11.6535  -16.8124 C   0  0  1  0  0  0  0  0  0  0  0  0
   26.2998  -11.2121  -15.6012 C   0  0  0  0  0  0  0  0  0  0  0  0
   27.4040  -12.5913  -15.1798 S   0  0  0  0  0  0  0  0  0  0  0  0
   24.3858  -10.6496  -16.9756 C   0  0  0  0  0  0  0  0  0  0  0  0
   24.7641   -9.5115  -17.4012 O   0  0  0  0  0  0  0  0  0  0  0  0
   20.2828  -11.2840  -16.0556 O   0  0  0  0  0  0  0  0  0  0  0  0
   20.6789  -10.5476  -17.1628 C   0  0  0  0  0  0  0  0  0  0  0  0
   22.0275   -9.8858  -16.9414 C   0  0  2  0  0  0  0  0  0  0  0  0
   23.0366  -10.8948  -16.6950 N   0  0  0  0  0  0  0  0  0  0  0  0
   21.9775   -8.8838  -15.8587 C   0  0  0  0  0  0  0  0  0  0  0  0
   22.4181   -9.1965  -14.7070 O   0  0  0  0  0  0  0  0  0  0  0  0
   21.4717   -7.5797  -15.9931 N   0  0  0  0  0  0  0  0  0  0  0  0
   21.3903   -6.6126  -14.9127 C   0  0  1  0  0  0  0  0  0  0  0  0
   22.5527   -5.6970  -14.8505 C   0  0  0  0  0  0  0  0  0  0  0  0
   22.3433   -4.6906  -13.7928 C   0  0  0  0  0  0  0  0  0  0  0  0
   22.0353   -3.4873  -13.9701 O   0  0  0  0  0  0  0  0  0  0  0  0
   20.1407   -5.8324  -15.0704 C   0  0  0  0  0  0  0  0  0  0  0  0
   19.6939   -5.5953  -16.2262 O   0  0  0  0  0  0  0  0  0  0  0  0
   22.4964   -5.0918  -12.4654 O   0  0  0  0  0  0  0  0  0  0  0  0
   19.3975   -5.3275  -14.0219 O   0  0  0  0  0  0  0  0  0  0  0  0
  2  5  1  0
  2  1  1  6
  3  2  1  0
  4  3  1  0
  5  6  2  0
  8  7  1  0
  9  8  1  1
 10  9  1  0
 10  5  1  0
 11 13  1  0
 11  9  1  0
 12 11  2  0
 14 13  1  0
 14 15  1  6
 15 16  1  0
 16 20  1  0
 16 17  2  0
 18 14  1  0
 19 18  2  0
 21 18  1  0
M  END
$$$$
