CSD.pdb
     RDKit          3D

 21 20  0  0  1  0  0  0  0  0999 V2000
   17.2885  -10.9696  -14.9241 N   0  0  0  0  0  0  0  0  0  0  0  0
   18.0433  -10.1490  -15.8267 C   0  0  1  0  0  0  0  0  0  0  0  0
   17.0730   -9.1171  -16.4069 C   0  0  0  0  0  0  0  0  0  0  0  0
   15.9699  -10.0057  -17.5438 S   0  0  0  0  0  0  0  0  0  0  0  0
   19.1209   -9.3828  -15.1403 C   0  0  0  0  0  0  0  0  0  0  0  0
   18.8016   -8.9076  -14.0037 O   0  0  0  0  0  0  0  0  0  0  0  0
   23.1392   -9.9513  -14.7592 O   0  0  0  0  0  0  0  0  0  0  0  0
   22.7744   -8.7574  -15.3645 C   0  0  0  0  0  0  0  0  0  0  0  0
   21.3654   -8.3423  -14.9792 C   0  0  2  0  0  0  0  0  0  0  0  0
   20.4012   -9.1758  -15.6667 N   0  0  0  0  0  0  0  0  0  0  0  0
   21.1269   -6.9072  -15.2288 C   0  0  0  0  0  0  0  0  0  0  0  0
   20.7784   -6.5324  -16.3933 O   0  0  0  0  0  0  0  0  0  0  0  0
   21.2551   -5.8918  -14.2660 N   0  0  0  0  0  0  0  0  0  0  0  0
   21.1413   -4.4714  -14.5469 C   0  0  1  0  0  0  0  0  0  0  0  0
   20.7459   -3.6660  -13.3687 C   0  0  0  0  0  0  0  0  0  0  0  0
   20.6629   -2.2408  -13.7395 C   0  0  0  0  0  0  0  0  0  0  0  0
   21.5585   -1.3798  -13.5650 O   0  0  0  0  0  0  0  0  0  0  0  0
   22.4384   -3.9893  -15.0761 C   0  0  0  0  0  0  0  0  0  0  0  0
   23.5134   -4.3653  -14.5329 O   0  0  0  0  0  0  0  0  0  0  0  0
   19.4890   -1.7866  -14.3413 O   0  0  0  0  0  0  0  0  0  0  0  0
   22.5740   -3.1350  -16.1523 O   0  0  0  0  0  0  0  0  0  0  0  0
  2  5  1  0
  2  1  1  1
  3  2  1  0
  4  3  1  0
  5  6  2  0
  8  7  1  0
  9  8  1  6
 10  9  1  0
 10  5  1  0
 11 13  1  0
 11  9  1  0
 12 11  2  0
 14 13  1  0
 14 15  1  1
 15 16  1  0
 16 20  1  0
 16 17  2  0
 18 14  1  0
 19 18  2  0
 21 18  1  0
M  END
$$$$
