CSD.pdb
     RDKit          3D

 21 20  0  0  1  0  0  0  0  0999 V2000
   25.8222  -12.7117  -17.6974 N   0  0  0  0  0  0  0  0  0  0  0  0
   25.7007  -11.7069  -16.6808 C   0  0  1  0  0  0  0  0  0  0  0  0
   27.0740  -11.0449  -16.5432 C   0  0  0  0  0  0  0  0  0  0  0  0
   28.1290  -12.1978  -15.6176 S   0  0  0  0  0  0  0  0  0  0  0  0
   24.7424  -10.6283  -17.0522 C   0  0  0  0  0  0  0  0  0  0  0  0
   24.8065  -10.2471  -18.2648 O   0  0  0  0  0  0  0  0  0  0  0  0
   21.3527   -9.7252  -14.8827 O   0  0  0  0  0  0  0  0  0  0  0  0
   21.4627   -9.4864  -16.2450 C   0  0  0  0  0  0  0  0  0  0  0  0
   22.8695   -9.0607  -16.6266 C   0  0  2  0  0  0  0  0  0  0  0  0
   23.8241  -10.0489  -16.1690 N   0  0  0  0  0  0  0  0  0  0  0  0
   23.1921   -7.7115  -16.1223 C   0  0  0  0  0  0  0  0  0  0  0  0
   23.8991   -7.5979  -15.0709 O   0  0  0  0  0  0  0  0  0  0  0  0
   22.7744   -6.5095  -16.7184 N   0  0  0  0  0  0  0  0  0  0  0  0
   23.0087   -5.1890  -16.1611 C   0  0  1  0  0  0  0  0  0  0  0  0
   22.8292   -4.0936  -17.1416 C   0  0  0  0  0  0  0  0  0  0  0  0
   23.2103   -2.8060  -16.5314 C   0  0  0  0  0  0  0  0  0  0  0  0
   24.1640   -2.6193  -15.7379 O   0  0  0  0  0  0  0  0  0  0  0  0
   22.0951   -4.9927  -15.0114 C   0  0  0  0  0  0  0  0  0  0  0  0
   22.2214   -3.9721  -14.2803 O   0  0  0  0  0  0  0  0  0  0  0  0
   22.4543   -1.6782  -16.8526 O   0  0  0  0  0  0  0  0  0  0  0  0
   21.0809   -5.8621  -14.6623 O   0  0  0  0  0  0  0  0  0  0  0  0
  2  5  1  0
  2  1  1  6
  3  2  1  0
  4  3  1  0
  5  6  2  0
  8  7  1  0
  9  8  1  1
 10  9  1  0
 10  5  1  0
 11 13  1  0
 11  9  1  0
 12 11  2  0
 14 13  1  0
 14 15  1  6
 15 16  1  0
 16 20  1  0
 16 17  2  0
 18 14  1  0
 19 18  2  0
 21 18  1  0
M  END
$$$$
