LWA.pdb
     RDKit          3D

 28 29  0  0  1  0  0  0  0  0999 V2000
    6.8859  -12.4612   19.0686 C   0  0  0  0  0  0  0  0  0  0  0  0
    7.3296  -13.8736   19.4240 C   0  0  1  0  0  0  0  0  0  0  0  0
    7.8294  -14.5351   18.1847 C   0  0  0  0  0  0  0  0  0  0  0  0
    8.3133  -13.8789   20.5542 C   0  0  0  0  0  0  0  0  0  0  0  0
    8.6106  -15.3064   20.9426 C   0  0  2  0  0  0  0  0  0  0  0  0
    7.3764  -16.0525   21.0565 N   0  0  0  0  0  0  0  0  0  0  0  0
    9.3330  -15.4000   22.2284 C   0  0  0  0  0  0  0  0  0  0  0  0
   10.3696  -14.7163   22.3937 O   0  0  0  0  0  0  0  0  0  0  0  0
    8.9147  -16.2365   23.3130 N   0  0  0  0  0  0  0  0  0  0  0  0
    9.5907  -16.2880   24.5698 C   0  0  1  0  0  0  0  0  0  0  0  0
    8.6520  -16.5746   25.7039 C   0  0  0  0  0  0  0  0  0  0  0  0
    7.5104  -15.6524   25.8055 C   0  0  0  0  0  0  0  0  0  0  0  0
    6.1810  -15.9510   25.4996 C   0  0  0  0  0  0  0  0  0  0  0  0
    5.4306  -14.8545   25.6914 N   0  0  0  0  0  0  0  0  0  0  0  0
    6.2085  -13.8469   26.1110 C   0  0  0  0  0  0  0  0  0  0  0  0
    5.8636  -12.5462   26.4377 C   0  0  0  0  0  0  0  0  0  0  0  0
    6.8799  -11.7136   26.8563 C   0  0  0  0  0  0  0  0  0  0  0  0
    8.1797  -12.1645   26.9431 C   0  0  0  0  0  0  0  0  0  0  0  0
    8.4870  -13.4561   26.6124 C   0  0  0  0  0  0  0  0  0  0  0  0
    7.5065  -14.3320   26.1863 C   0  0  0  0  0  0  0  0  0  0  0  0
   10.7013  -17.2915   24.4776 C   0  0  0  0  0  0  0  0  0  0  0  0
   10.4741  -18.4927   24.1514 O   0  0  0  0  0  0  0  0  0  0  0  0
   14.4484  -17.1199   24.5212 C   0  0  0  0  0  0  0  0  0  0  0  0
   13.1391  -17.8944   24.7264 C   0  0  2  0  0  0  0  0  0  0  0  0
   12.0603  -16.9533   24.7483 N   0  0  0  0  0  0  0  0  0  0  0  0
   13.2982  -18.6776   25.9536 C   0  0  0  0  0  0  0  0  0  0  0  0
   14.3115  -19.6368   25.9736 O   0  0  0  0  0  0  0  0  0  0  0  0
   12.6123  -18.5731   26.9945 O   0  0  0  0  0  0  0  0  0  0  0  0
  2  1  1  6
  2  3  1  0
  4  5  1  0
  4  2  1  0
  5  6  1  1
  7  8  2  0
  7  5  1  0
  9  7  1  0
 10  9  1  0
 11 12  1  0
 10 11  1  1
 12 13  2  0
 12 20  1  0
 13 14  1  0
 14 15  1  0
 15 16  2  0
 17 16  1  0
 18 17  2  0
 19 20  2  0
 19 18  1  0
 20 15  1  0
 21 22  2  0
 21 10  1  0
 24 23  1  1
 24 25  1  0
 25 21  1  0
 26 24  1  0
 27 26  1  0
 28 26  2  0
M  END
$$$$
