LWA.pdb
     RDKit          3D

 28 29  0  0  1  0  0  0  0  0999 V2000
    8.2797  -12.1913   19.3077 C   0  0  0  0  0  0  0  0  0  0  0  0
    8.1338  -13.7013   19.1783 C   0  0  1  0  0  0  0  0  0  0  0  0
    7.0188  -13.9863   18.2301 C   0  0  0  0  0  0  0  0  0  0  0  0
    9.4298  -14.3546   18.8056 C   0  0  0  0  0  0  0  0  0  0  0  0
    9.5526  -15.6642   19.5453 C   0  0  2  0  0  0  0  0  0  0  0  0
    8.4396  -16.5252   19.2091 N   0  0  0  0  0  0  0  0  0  0  0  0
    9.5750  -15.4813   21.0116 C   0  0  0  0  0  0  0  0  0  0  0  0
   10.4817  -14.7842   21.5228 O   0  0  0  0  0  0  0  0  0  0  0  0
    8.6098  -16.0605   21.8969 N   0  0  0  0  0  0  0  0  0  0  0  0
    8.5886  -15.8147   23.3035 C   0  0  1  0  0  0  0  0  0  0  0  0
    7.1987  -15.5740   23.8131 C   0  0  0  0  0  0  0  0  0  0  0  0
    7.1255  -15.1259   25.2123 C   0  0  0  0  0  0  0  0  0  0  0  0
    6.9872  -15.9467   26.3335 C   0  0  0  0  0  0  0  0  0  0  0  0
    6.9324  -15.1795   27.4338 N   0  0  0  0  0  0  0  0  0  0  0  0
    7.0293  -13.8889   27.0855 C   0  0  0  0  0  0  0  0  0  0  0  0
    7.0275  -12.7589   27.8859 C   0  0  0  0  0  0  0  0  0  0  0  0
    7.1546  -11.5408   27.2525 C   0  0  0  0  0  0  0  0  0  0  0  0
    7.2778  -11.4603   25.8817 C   0  0  0  0  0  0  0  0  0  0  0  0
    7.2757  -12.5966   25.1195 C   0  0  0  0  0  0  0  0  0  0  0  0
    7.1504  -13.8428   25.7038 C   0  0  0  0  0  0  0  0  0  0  0  0
    9.2651  -16.9567   24.0014 C   0  0  0  0  0  0  0  0  0  0  0  0
    8.9180  -18.1543   23.7869 O   0  0  0  0  0  0  0  0  0  0  0  0
   12.4939  -17.6033   25.5438 C   0  0  0  0  0  0  0  0  0  0  0  0
   10.9777  -17.8221   25.6404 C   0  0  2  0  0  0  0  0  0  0  0  0
   10.3257  -16.7605   24.9348 N   0  0  0  0  0  0  0  0  0  0  0  0
   10.6518  -17.9055   27.0658 C   0  0  0  0  0  0  0  0  0  0  0  0
   11.2491  -18.9311   27.7997 O   0  0  0  0  0  0  0  0  0  0  0  0
    9.8861  -17.1443   27.6974 O   0  0  0  0  0  0  0  0  0  0  0  0
  2  1  1  6
  2  3  1  0
  4  5  1  0
  4  2  1  0
  5  6  1  1
  7  8  2  0
  7  5  1  0
  9  7  1  0
 10  9  1  0
 11 12  1  0
 10 11  1  1
 12 13  2  0
 12 20  1  0
 13 14  1  0
 14 15  1  0
 15 16  2  0
 17 16  1  0
 18 17  2  0
 19 20  2  0
 19 18  1  0
 20 15  1  0
 21 22  2  0
 21 10  1  0
 24 23  1  1
 24 25  1  0
 25 21  1  0
 26 24  1  0
 27 26  1  0
 28 26  2  0
M  END
$$$$
