LWA.pdb
     RDKit          3D

 28 29  0  0  1  0  0  0  0  0999 V2000
    7.0838  -12.4567   19.1115 C   0  0  0  0  0  0  0  0  0  0  0  0
    7.6134  -13.8374   19.4739 C   0  0  1  0  0  0  0  0  0  0  0  0
    8.4623  -14.3252   18.3493 C   0  0  0  0  0  0  0  0  0  0  0  0
    8.3073  -13.8350   20.8019 C   0  0  0  0  0  0  0  0  0  0  0  0
    8.8132  -15.2259   21.0964 C   0  0  2  0  0  0  0  0  0  0  0  0
    7.7097  -16.1614   21.0947 N   0  0  0  0  0  0  0  0  0  0  0  0
    9.4947  -15.3104   22.4050 C   0  0  0  0  0  0  0  0  0  0  0  0
   10.4339  -14.5193   22.6527 O   0  0  0  0  0  0  0  0  0  0  0  0
    9.1423  -16.2550   23.4222 N   0  0  0  0  0  0  0  0  0  0  0  0
    9.7804  -16.3078   24.6986 C   0  0  1  0  0  0  0  0  0  0  0  0
    8.7922  -16.4516   25.8177 C   0  0  0  0  0  0  0  0  0  0  0  0
    7.6825  -15.4865   25.7862 C   0  0  0  0  0  0  0  0  0  0  0  0
    6.3649  -15.7588   25.4125 C   0  0  0  0  0  0  0  0  0  0  0  0
    5.6462  -14.6273   25.4858 N   0  0  0  0  0  0  0  0  0  0  0  0
    6.4337  -13.6218   25.8922 C   0  0  0  0  0  0  0  0  0  0  0  0
    6.1185  -12.2917   26.1138 C   0  0  0  0  0  0  0  0  0  0  0  0
    7.1371  -11.4688   26.5459 C   0  0  0  0  0  0  0  0  0  0  0  0
    8.4107  -11.9572   26.7461 C   0  0  0  0  0  0  0  0  0  0  0  0
    8.6889  -13.2772   26.5174 C   0  0  0  0  0  0  0  0  0  0  0  0
    7.7048  -14.1449   26.0830 C   0  0  0  0  0  0  0  0  0  0  0  0
   10.7943  -17.4127   24.6839 C   0  0  0  0  0  0  0  0  0  0  0  0
   10.4594  -18.6064   24.4318 O   0  0  0  0  0  0  0  0  0  0  0  0
   14.5383  -17.6158   24.8095 C   0  0  0  0  0  0  0  0  0  0  0  0
   13.1528  -18.2247   25.0662 C   0  0  2  0  0  0  0  0  0  0  0  0
   12.1769  -17.1836   24.9493 N   0  0  0  0  0  0  0  0  0  0  0  0
   13.2106  -18.8701   26.3796 C   0  0  0  0  0  0  0  0  0  0  0  0
   14.0778  -19.9541   26.5223 O   0  0  0  0  0  0  0  0  0  0  0  0
   12.5561  -18.5454   27.3951 O   0  0  0  0  0  0  0  0  0  0  0  0
  2  1  1  6
  2  3  1  0
  4  5  1  0
  4  2  1  0
  5  6  1  1
  7  8  2  0
  7  5  1  0
  9  7  1  0
 10  9  1  0
 11 12  1  0
 10 11  1  1
 12 13  2  0
 12 20  1  0
 13 14  1  0
 14 15  1  0
 15 16  2  0
 17 16  1  0
 18 17  2  0
 19 20  2  0
 19 18  1  0
 20 15  1  0
 21 22  2  0
 21 10  1  0
 24 23  1  1
 24 25  1  0
 25 21  1  0
 26 24  1  0
 27 26  1  0
 28 26  2  0
M  END
$$$$
