LWA.pdb
     RDKit          3D

 28 29  0  0  1  0  0  0  0  0999 V2000
    6.6479  -14.0939   19.8316 C   0  0  0  0  0  0  0  0  0  0  0  0
    8.0999  -13.8038   19.4770 C   0  0  1  0  0  0  0  0  0  0  0  0
    8.1403  -12.5806   18.6252 C   0  0  0  0  0  0  0  0  0  0  0  0
    8.9641  -13.7221   20.6983 C   0  0  0  0  0  0  0  0  0  0  0  0
    9.4349  -15.1087   21.0629 C   0  0  2  0  0  0  0  0  0  0  0  0
    8.4156  -16.0786   20.7265 N   0  0  0  0  0  0  0  0  0  0  0  0
    9.7441  -15.2366   22.5024 C   0  0  0  0  0  0  0  0  0  0  0  0
   10.5687  -14.4475   23.0188 O   0  0  0  0  0  0  0  0  0  0  0  0
    9.1502  -16.2216   23.3557 N   0  0  0  0  0  0  0  0  0  0  0  0
    9.3916  -16.2898   24.7615 C   0  0  1  0  0  0  0  0  0  0  0  0
    8.1618  -16.6792   25.5267 C   0  0  0  0  0  0  0  0  0  0  0  0
    7.2676  -15.5609   25.8643 C   0  0  0  0  0  0  0  0  0  0  0  0
    5.8793  -15.6287   25.9993 C   0  0  0  0  0  0  0  0  0  0  0  0
    5.4073  -14.4056   26.2882 N   0  0  0  0  0  0  0  0  0  0  0  0
    6.4249  -13.5356   26.3499 C   0  0  0  0  0  0  0  0  0  0  0  0
    6.4069  -12.1786   26.6252 C   0  0  0  0  0  0  0  0  0  0  0  0
    7.6203  -11.5236   26.6337 C   0  0  0  0  0  0  0  0  0  0  0  0
    8.7954  -12.1980   26.3784 C   0  0  0  0  0  0  0  0  0  0  0  0
    8.7782  -13.5394   26.1095 C   0  0  0  0  0  0  0  0  0  0  0  0
    7.5893  -14.2437   26.0878 C   0  0  0  0  0  0  0  0  0  0  0  0
   10.5391  -17.2234   25.0075 C   0  0  0  0  0  0  0  0  0  0  0  0
   11.1464  -17.2374   26.1174 O   0  0  0  0  0  0  0  0  0  0  0  0
   11.9139  -20.2031   23.1858 C   0  0  0  0  0  0  0  0  0  0  0  0
   12.0487  -19.0932   24.2374 C   0  0  2  0  0  0  0  0  0  0  0  0
   11.0053  -18.1378   24.0171 N   0  0  0  0  0  0  0  0  0  0  0  0
   13.4074  -18.5596   24.1182 C   0  0  0  0  0  0  0  0  0  0  0  0
   13.5469  -17.2779   23.5841 O   0  0  0  0  0  0  0  0  0  0  0  0
   14.4644  -19.1409   24.4495 O   0  0  0  0  0  0  0  0  0  0  0  0
  2  1  1  1
  2  3  1  0
  4  5  1  0
  4  2  1  0
  5  6  1  1
  7  8  2  0
  7  5  1  0
  9  7  1  0
 10  9  1  0
 11 12  1  0
 10 11  1  1
 12 13  2  0
 12 20  1  0
 13 14  1  0
 14 15  1  0
 15 16  2  0
 17 16  1  0
 18 17  2  0
 19 20  2  0
 19 18  1  0
 20 15  1  0
 21 22  2  0
 21 10  1  0
 24 23  1  6
 24 25  1  0
 25 21  1  0
 26 24  1  0
 27 26  1  0
 28 26  2  0
M  END
$$$$
