LWA.pdb
     RDKit          3D

 28 29  0  0  1  0  0  0  0  0999 V2000
    6.9155  -12.2832   19.6342 C   0  0  0  0  0  0  0  0  0  0  0  0
    7.5357  -13.6477   19.9017 C   0  0  1  0  0  0  0  0  0  0  0  0
    8.3262  -14.0480   18.7024 C   0  0  0  0  0  0  0  0  0  0  0  0
    8.3203  -13.6605   21.1782 C   0  0  0  0  0  0  0  0  0  0  0  0
    8.8465  -15.0540   21.4197 C   0  0  2  0  0  0  0  0  0  0  0  0
    7.7609  -16.0079   21.3551 N   0  0  0  0  0  0  0  0  0  0  0  0
    9.5056  -15.1854   22.7359 C   0  0  0  0  0  0  0  0  0  0  0  0
   10.4050  -14.3713   23.0486 O   0  0  0  0  0  0  0  0  0  0  0  0
    9.1747  -16.2011   23.6897 N   0  0  0  0  0  0  0  0  0  0  0  0
    9.6913  -16.2255   25.0208 C   0  0  1  0  0  0  0  0  0  0  0  0
    8.6120  -16.4356   26.0409 C   0  0  0  0  0  0  0  0  0  0  0  0
    7.4717  -15.5130   25.9289 C   0  0  0  0  0  0  0  0  0  0  0  0
    6.1856  -15.8425   25.4960 C   0  0  0  0  0  0  0  0  0  0  0  0
    5.4242  -14.7368   25.5042 N   0  0  0  0  0  0  0  0  0  0  0  0
    6.1534  -13.6937   25.9244 C   0  0  0  0  0  0  0  0  0  0  0  0
    5.7801  -12.3713   26.0961 C   0  0  0  0  0  0  0  0  0  0  0  0
    6.7451  -11.5015   26.5582 C   0  0  0  0  0  0  0  0  0  0  0  0
    8.0233  -11.9377   26.8349 C   0  0  0  0  0  0  0  0  0  0  0  0
    8.3597  -13.2516   26.6540 C   0  0  0  0  0  0  0  0  0  0  0  0
    7.4309  -14.1649   26.1924 C   0  0  0  0  0  0  0  0  0  0  0  0
   10.7660  -17.2684   25.1004 C   0  0  0  0  0  0  0  0  0  0  0  0
   11.2480  -17.6293   26.2131 O   0  0  0  0  0  0  0  0  0  0  0  0
   12.0946  -19.8695   22.8043 C   0  0  0  0  0  0  0  0  0  0  0  0
   12.3235  -18.9049   23.9761 C   0  0  2  0  0  0  0  0  0  0  0  0
   11.2990  -17.9054   23.9408 N   0  0  0  0  0  0  0  0  0  0  0  0
   13.6889  -18.3923   23.8422 C   0  0  0  0  0  0  0  0  0  0  0  0
   14.7330  -19.3057   23.9938 O   0  0  0  0  0  0  0  0  0  0  0  0
   14.0169  -17.2090   23.6036 O   0  0  0  0  0  0  0  0  0  0  0  0
  2  1  1  6
  2  3  1  0
  4  5  1  0
  4  2  1  0
  5  6  1  1
  7  8  2  0
  7  5  1  0
  9  7  1  0
 10  9  1  0
 11 12  1  0
 10 11  1  1
 12 13  2  0
 12 20  1  0
 13 14  1  0
 14 15  1  0
 15 16  2  0
 17 16  1  0
 18 17  2  0
 19 20  2  0
 19 18  1  0
 20 15  1  0
 21 22  2  0
 21 10  1  0
 24 23  1  6
 24 25  1  0
 25 21  1  0
 26 24  1  0
 27 26  1  0
 28 26  2  0
M  END
$$$$
