LWA.pdb
     RDKit          3D

 28 29  0  0  1  0  0  0  0  0999 V2000
    8.1940  -12.3088   19.9666 C   0  0  0  0  0  0  0  0  0  0  0  0
    8.2175  -13.7873   20.3297 C   0  0  1  0  0  0  0  0  0  0  0  0
    6.9640  -14.4158   19.8226 C   0  0  0  0  0  0  0  0  0  0  0  0
    9.4694  -14.4569   19.8508 C   0  0  0  0  0  0  0  0  0  0  0  0
    9.6034  -15.7969   20.5317 C   0  0  2  0  0  0  0  0  0  0  0  0
    8.4448  -16.6136   20.2427 N   0  0  0  0  0  0  0  0  0  0  0  0
    9.7319  -15.6713   21.9986 C   0  0  0  0  0  0  0  0  0  0  0  0
   10.6805  -15.0026   22.4700 O   0  0  0  0  0  0  0  0  0  0  0  0
    8.8254  -16.2760   22.9278 N   0  0  0  0  0  0  0  0  0  0  0  0
    8.9791  -16.1869   24.3447 C   0  0  1  0  0  0  0  0  0  0  0  0
    7.6678  -15.9787   25.0424 C   0  0  0  0  0  0  0  0  0  0  0  0
    7.2046  -14.5829   25.0777 C   0  0  0  0  0  0  0  0  0  0  0  0
    6.6394  -13.8759   24.0143 C   0  0  0  0  0  0  0  0  0  0  0  0
    6.3653  -12.6249   24.4168 N   0  0  0  0  0  0  0  0  0  0  0  0
    6.7251  -12.4778   25.6995 C   0  0  0  0  0  0  0  0  0  0  0  0
    6.6203  -11.3681   26.5211 C   0  0  0  0  0  0  0  0  0  0  0  0
    7.0654  -11.5038   27.8191 C   0  0  0  0  0  0  0  0  0  0  0  0
    7.5903  -12.6957   28.2710 C   0  0  0  0  0  0  0  0  0  0  0  0
    7.6801  -13.7735   27.4329 C   0  0  0  0  0  0  0  0  0  0  0  0
    7.2491  -13.6913   26.1224 C   0  0  0  0  0  0  0  0  0  0  0  0
    9.6974  -17.4113   24.8283 C   0  0  0  0  0  0  0  0  0  0  0  0
    9.1555  -18.5533   24.7749 O   0  0  0  0  0  0  0  0  0  0  0  0
   13.2379  -18.1881   25.7689 C   0  0  0  0  0  0  0  0  0  0  0  0
   11.7375  -18.5058   25.8326 C   0  0  2  0  0  0  0  0  0  0  0  0
   11.0164  -17.3590   25.3688 N   0  0  0  0  0  0  0  0  0  0  0  0
   11.4462  -18.8996   27.2128 C   0  0  0  0  0  0  0  0  0  0  0  0
   12.0977  -20.0306   27.7065 O   0  0  0  0  0  0  0  0  0  0  0  0
   10.6663  -18.3202   28.0007 O   0  0  0  0  0  0  0  0  0  0  0  0
  2  1  1  6
  2  3  1  0
  4  5  1  0
  4  2  1  0
  5  6  1  1
  7  8  2  0
  7  5  1  0
  9  7  1  0
 10  9  1  0
 11 12  1  0
 10 11  1  1
 12 13  2  0
 12 20  1  0
 13 14  1  0
 14 15  1  0
 15 16  2  0
 17 16  1  0
 18 17  2  0
 19 20  2  0
 19 18  1  0
 20 15  1  0
 21 22  2  0
 21 10  1  0
 24 23  1  1
 24 25  1  0
 25 21  1  0
 26 24  1  0
 27 26  1  0
 28 26  2  0
M  END
$$$$
