LWA.pdb
     RDKit          3D

 28 29  0  0  1  0  0  0  0  0999 V2000
    7.2922  -12.2802   19.4143 C   0  0  0  0  0  0  0  0  0  0  0  0
    7.7642  -13.6936   19.7265 C   0  0  1  0  0  0  0  0  0  0  0  0
    8.5327  -14.2022   18.5542 C   0  0  0  0  0  0  0  0  0  0  0  0
    8.5186  -13.7543   21.0197 C   0  0  0  0  0  0  0  0  0  0  0  0
    8.9178  -15.1840   21.2912 C   0  0  2  0  0  0  0  0  0  0  0  0
    7.7666  -16.0500   21.1576 N   0  0  0  0  0  0  0  0  0  0  0  0
    9.4814  -15.3623   22.6457 C   0  0  0  0  0  0  0  0  0  0  0  0
   10.3812  -14.5832   23.0364 O   0  0  0  0  0  0  0  0  0  0  0  0
    9.0559  -16.3862   23.5522 N   0  0  0  0  0  0  0  0  0  0  0  0
    9.5675  -16.5217   24.8785 C   0  0  1  0  0  0  0  0  0  0  0  0
    8.4726  -16.5899   25.9012 C   0  0  0  0  0  0  0  0  0  0  0  0
    7.4992  -15.4889   25.8346 C   0  0  0  0  0  0  0  0  0  0  0  0
    6.1813  -15.5813   25.3823 C   0  0  0  0  0  0  0  0  0  0  0  0
    5.6104  -14.3680   25.4460 N   0  0  0  0  0  0  0  0  0  0  0  0
    6.4954  -13.4807   25.9214 C   0  0  0  0  0  0  0  0  0  0  0  0
    6.3409  -12.1256   26.1606 C   0  0  0  0  0  0  0  0  0  0  0  0
    7.4298  -11.4498   26.6694 C   0  0  0  0  0  0  0  0  0  0  0  0
    8.6167  -12.1024   26.9260 C   0  0  0  0  0  0  0  0  0  0  0  0
    8.7363  -13.4427   26.6781 C   0  0  0  0  0  0  0  0  0  0  0  0
    7.6760  -14.1674   26.1676 C   0  0  0  0  0  0  0  0  0  0  0  0
   10.4709  -17.7178   24.9255 C   0  0  0  0  0  0  0  0  0  0  0  0
   10.0066  -18.8929   24.8603 O   0  0  0  0  0  0  0  0  0  0  0  0
   14.2055  -18.2241   24.9021 C   0  0  0  0  0  0  0  0  0  0  0  0
   12.7758  -18.7167   25.1659 C   0  0  2  0  0  0  0  0  0  0  0  0
   11.8875  -17.6004   25.0442 N   0  0  0  0  0  0  0  0  0  0  0  0
   12.7845  -19.3562   26.4834 C   0  0  0  0  0  0  0  0  0  0  0  0
   13.5702  -20.4995   26.6345 O   0  0  0  0  0  0  0  0  0  0  0  0
   12.1539  -18.9783   27.4955 O   0  0  0  0  0  0  0  0  0  0  0  0
  2  1  1  6
  2  3  1  0
  4  5  1  0
  4  2  1  0
  5  6  1  1
  7  8  2  0
  7  5  1  0
  9  7  1  0
 10  9  1  0
 11 12  1  0
 10 11  1  1
 12 13  2  0
 12 20  1  0
 13 14  1  0
 14 15  1  0
 15 16  2  0
 17 16  1  0
 18 17  2  0
 19 20  2  0
 19 18  1  0
 20 15  1  0
 21 22  2  0
 21 10  1  0
 24 23  1  1
 24 25  1  0
 25 21  1  0
 26 24  1  0
 27 26  1  0
 28 26  2  0
M  END
$$$$
