LWA.pdb
     RDKit          3D

 28 29  0  0  1  0  0  0  0  0999 V2000
   12.2137  -19.9568   18.5058 C   0  0  0  0  0  0  0  0  0  0  0  0
   11.0118  -19.0224   18.4792 C   0  0  1  0  0  0  0  0  0  0  0  0
    9.7834  -19.8424   18.2740 C   0  0  0  0  0  0  0  0  0  0  0  0
   10.9618  -18.1473   19.6945 C   0  0  0  0  0  0  0  0  0  0  0  0
    9.7560  -17.2447   19.6029 C   0  0  2  0  0  0  0  0  0  0  0  0
    9.8691  -16.3889   18.4420 N   0  0  0  0  0  0  0  0  0  0  0  0
    9.6013  -16.3907   20.7991 C   0  0  0  0  0  0  0  0  0  0  0  0
   10.2359  -15.3125   20.8616 O   0  0  0  0  0  0  0  0  0  0  0  0
    8.7582  -16.7250   21.9074 N   0  0  0  0  0  0  0  0  0  0  0  0
    8.5423  -15.8551   23.0191 C   0  0  1  0  0  0  0  0  0  0  0  0
    7.1527  -15.9781   23.5700 C   0  0  0  0  0  0  0  0  0  0  0  0
    6.9083  -15.2094   24.8002 C   0  0  0  0  0  0  0  0  0  0  0  0
    6.4134  -15.7167   26.0034 C   0  0  0  0  0  0  0  0  0  0  0  0
    6.3021  -14.7137   26.8887 N   0  0  0  0  0  0  0  0  0  0  0  0
    6.7029  -13.5679   26.3204 C   0  0  0  0  0  0  0  0  0  0  0  0
    6.7662  -12.2937   26.8589 C   0  0  0  0  0  0  0  0  0  0  0  0
    7.2351  -11.2886   26.0396 C   0  0  0  0  0  0  0  0  0  0  0  0
    7.6220  -11.5495   24.7424 C   0  0  0  0  0  0  0  0  0  0  0  0
    7.5466  -12.8202   24.2408 C   0  0  0  0  0  0  0  0  0  0  0  0
    7.0833  -13.8641   25.0191 C   0  0  0  0  0  0  0  0  0  0  0  0
    9.5945  -16.1257   24.0528 C   0  0  0  0  0  0  0  0  0  0  0  0
    9.7644  -15.3464   25.0349 O   0  0  0  0  0  0  0  0  0  0  0  0
   12.2876  -16.2103   25.1323 C   0  0  0  0  0  0  0  0  0  0  0  0
   11.5141  -17.5183   24.9156 C   0  0  2  0  0  0  0  0  0  0  0  0
   10.4528  -17.2632   23.9889 N   0  0  0  0  0  0  0  0  0  0  0  0
   11.0807  -17.9780   26.2368 C   0  0  0  0  0  0  0  0  0  0  0  0
    9.7077  -18.1049   26.4515 O   0  0  0  0  0  0  0  0  0  0  0  0
   11.8226  -18.2710   27.2005 O   0  0  0  0  0  0  0  0  0  0  0  0
  2  1  1  1
  2  3  1  0
  4  5  1  0
  4  2  1  0
  5  6  1  6
  7  8  2  0
  7  5  1  0
  9  7  1  0
 10  9  1  0
 11 12  1  0
 10 11  1  1
 12 13  2  0
 12 20  1  0
 13 14  1  0
 14 15  1  0
 15 16  2  0
 17 16  1  0
 18 17  2  0
 19 20  2  0
 19 18  1  0
 20 15  1  0
 21 22  2  0
 21 10  1  0
 24 23  1  1
 24 25  1  0
 25 21  1  0
 26 24  1  0
 27 26  1  0
 28 26  2  0
M  END
$$$$
