FQM.pdb
     RDKit          3D

 29 29  0  0  1  0  0  0  0  0999 V2000
    7.0859  -18.2705   21.5426 N   0  0  0  0  0  0  0  0  0  0  0  0
    7.6289  -16.9584   21.7534 C   0  0  1  0  0  0  0  0  0  0  0  0
    6.6045  -16.0946   22.4711 C   0  0  0  0  0  0  0  0  0  0  0  0
    7.1064  -14.7014   22.4852 C   0  0  0  0  0  0  0  0  0  0  0  0
    7.5485  -14.1205   21.2938 C   0  0  0  0  0  0  0  0  0  0  0  0
    8.0245  -12.8304   21.2331 C   0  0  0  0  0  0  0  0  0  0  0  0
    8.0490  -12.1157   22.4212 C   0  0  0  0  0  0  0  0  0  0  0  0
    7.6238  -12.6429   23.6249 C   0  0  0  0  0  0  0  0  0  0  0  0
    7.1539  -13.9401   23.6421 C   0  0  0  0  0  0  0  0  0  0  0  0
    8.8342  -17.1009   22.6301 C   0  0  0  0  0  0  0  0  0  0  0  0
    8.7712  -17.6959   23.7404 O   0  0  0  0  0  0  0  0  0  0  0  0
   13.2312  -14.2850   20.3680 N   0  0  0  0  0  0  0  0  0  0  0  0
   12.7467  -15.4548   19.7402 C   0  0  0  0  0  0  0  0  0  0  0  0
   12.6920  -15.5746   18.5030 O   0  0  0  0  0  0  0  0  0  0  0  0
   12.2731  -16.6140   20.5887 C   0  0  0  0  0  0  0  0  0  0  0  0
   12.4436  -16.2477   22.0278 C   0  0  0  0  0  0  0  0  0  0  0  0
   11.3027  -16.6576   22.8996 C   0  0  2  0  0  0  0  0  0  0  0  0
   10.0438  -16.5410   22.1622 N   0  0  0  0  0  0  0  0  0  0  0  0
   11.1472  -15.9558   24.1639 C   0  0  0  0  0  0  0  0  0  0  0  0
   11.1858  -14.6715   24.1473 O   0  0  0  0  0  0  0  0  0  0  0  0
    7.6813  -12.3829   26.2955 C   0  0  0  0  0  0  0  0  0  0  0  0
    7.7008  -13.3922   27.8012 S   0  0  0  0  0  0  0  0  0  0  0  0
    9.2807  -14.3115   27.8355 C   0  0  0  0  0  0  0  0  0  0  0  0
    9.5198  -15.0113   26.5307 C   0  0  0  0  0  0  0  0  0  0  0  0
   10.8286  -15.7713   26.6051 C   0  0  2  0  0  0  0  0  0  0  0  0
   10.9515  -16.6151   25.3994 N   0  0  0  0  0  0  0  0  0  0  0  0
   10.8277  -16.6928   27.7417 C   0  0  0  0  0  0  0  0  0  0  0  0
   10.8772  -18.0852   27.6630 O   0  0  0  0  0  0  0  0  0  0  0  0
   10.7751  -16.2559   28.9347 O   0  0  0  0  0  0  0  0  0  0  0  0
  2  1  1  1
  2 10  1  0
  2  3  1  0
  3  4  1  0
  4  5  2  0
  4  9  1  0
  5  6  1  0
  6  7  2  0
  8  7  1  0
  9  8  2  0
 10 18  1  0
 11 10  2  0
 13 15  1  0
 13 12  1  0
 14 13  2  0
 17 16  1  6
 16 15  1  0
 18 17  1  0
 19 17  1  0
 19 20  2  0
 21 22  1  0
 22 23  1  0
 23 24  1  0
 25 24  1  6
 25 26  1  0
 25 27  1  0
 26 19  1  0
 27 28  1  0
 29 27  2  0
M  END
$$$$
