FQM.pdb
     RDKit          3D

 29 29  0  0  1  0  0  0  0  0999 V2000
    5.8161  -16.6418   25.1571 N   0  0  0  0  0  0  0  0  0  0  0  0
    7.0278  -15.9661   24.7879 C   0  0  1  0  0  0  0  0  0  0  0  0
    7.5369  -15.1558   25.9689 C   0  0  0  0  0  0  0  0  0  0  0  0
    6.9728  -13.7903   25.8675 C   0  0  0  0  0  0  0  0  0  0  0  0
    7.6444  -12.8262   25.1115 C   0  0  0  0  0  0  0  0  0  0  0  0
    7.1764  -11.5394   24.9716 C   0  0  0  0  0  0  0  0  0  0  0  0
    5.9910  -11.2303   25.6217 C   0  0  0  0  0  0  0  0  0  0  0  0
    5.2887  -12.1459   26.3807 C   0  0  0  0  0  0  0  0  0  0  0  0
    5.7926  -13.4252   26.4952 C   0  0  0  0  0  0  0  0  0  0  0  0
    8.0454  -17.0106   24.4488 C   0  0  0  0  0  0  0  0  0  0  0  0
    8.0670  -18.1229   25.0431 O   0  0  0  0  0  0  0  0  0  0  0  0
   11.3795  -18.6230   18.8677 N   0  0  0  0  0  0  0  0  0  0  0  0
   12.0606  -17.9148   19.8837 C   0  0  0  0  0  0  0  0  0  0  0  0
   12.9256  -17.0561   19.6338 O   0  0  0  0  0  0  0  0  0  0  0  0
   11.7383  -18.1989   21.3340 C   0  0  0  0  0  0  0  0  0  0  0  0
   10.5627  -17.3648   21.7296 C   0  0  0  0  0  0  0  0  0  0  0  0
   10.1434  -17.5395   23.1520 C   0  0  2  0  0  0  0  0  0  0  0  0
    8.9799  -16.6983   23.4365 N   0  0  0  0  0  0  0  0  0  0  0  0
   11.1433  -17.2809   24.1759 C   0  0  0  0  0  0  0  0  0  0  0  0
   11.8828  -16.2383   24.0444 O   0  0  0  0  0  0  0  0  0  0  0  0
   10.8663  -13.3204   27.4414 C   0  0  0  0  0  0  0  0  0  0  0  0
   11.6789  -14.5947   28.4423 S   0  0  0  0  0  0  0  0  0  0  0  0
   12.6021  -15.6906   27.3069 C   0  0  0  0  0  0  0  0  0  0  0  0
   12.0807  -17.0949   27.3785 C   0  0  0  0  0  0  0  0  0  0  0  0
   12.5208  -17.8538   26.1429 C   0  0  2  0  0  0  0  0  0  0  0  0
   11.3343  -18.1133   25.3029 N   0  0  0  0  0  0  0  0  0  0  0  0
   13.0515  -19.1684   26.5053 C   0  0  0  0  0  0  0  0  0  0  0  0
   12.3858  -20.3859   26.3574 O   0  0  0  0  0  0  0  0  0  0  0  0
   14.2138  -19.2861   27.0075 O   0  0  0  0  0  0  0  0  0  0  0  0
  2  1  1  1
  2 10  1  0
  2  3  1  0
  3  4  1  0
  4  5  2  0
  4  9  1  0
  5  6  1  0
  6  7  2  0
  8  7  1  0
  9  8  2  0
 10 18  1  0
 11 10  2  0
 13 15  1  0
 13 12  1  0
 14 13  2  0
 17 16  1  6
 16 15  1  0
 18 17  1  0
 19 17  1  0
 19 20  2  0
 21 22  1  0
 22 23  1  0
 23 24  1  0
 25 24  1  1
 25 26  1  0
 25 27  1  0
 26 19  1  0
 27 28  1  0
 29 27  2  0
M  END
$$$$
