FQM.pdb
     RDKit          3D

 29 29  0  0  1  0  0  0  0  0999 V2000
    7.7178  -17.0538   24.1749 N   0  0  0  0  0  0  0  0  0  0  0  0
    7.2435  -17.0856   22.8202 C   0  0  1  0  0  0  0  0  0  0  0  0
    6.3895  -15.8570   22.5526 C   0  0  0  0  0  0  0  0  0  0  0  0
    6.6049  -14.8969   23.6594 C   0  0  0  0  0  0  0  0  0  0  0  0
    7.3053  -13.7134   23.4128 C   0  0  0  0  0  0  0  0  0  0  0  0
    7.5395  -12.7757   24.3929 C   0  0  0  0  0  0  0  0  0  0  0  0
    7.0447  -13.0555   25.6579 C   0  0  0  0  0  0  0  0  0  0  0  0
    6.3465  -14.2098   25.9540 C   0  0  0  0  0  0  0  0  0  0  0  0
    6.1335  -15.1239   24.9426 C   0  0  0  0  0  0  0  0  0  0  0  0
    8.4386  -17.0442   21.9192 C   0  0  0  0  0  0  0  0  0  0  0  0
    8.3341  -16.7181   20.7054 O   0  0  0  0  0  0  0  0  0  0  0  0
   12.7391  -13.9737   20.1189 N   0  0  0  0  0  0  0  0  0  0  0  0
   12.1808  -15.2289   19.7867 C   0  0  0  0  0  0  0  0  0  0  0  0
   12.8382  -16.1245   19.2264 O   0  0  0  0  0  0  0  0  0  0  0  0
   10.7321  -15.5110   20.1176 C   0  0  0  0  0  0  0  0  0  0  0  0
   10.5326  -15.3035   21.5844 C   0  0  0  0  0  0  0  0  0  0  0  0
   10.8509  -16.5010   22.4175 C   0  0  2  0  0  0  0  0  0  0  0  0
    9.6870  -17.3859   22.4852 N   0  0  0  0  0  0  0  0  0  0  0  0
   11.3105  -16.2618   23.7764 C   0  0  0  0  0  0  0  0  0  0  0  0
   12.4124  -15.6198   23.9342 O   0  0  0  0  0  0  0  0  0  0  0  0
   10.8712  -12.3797   28.0684 C   0  0  0  0  0  0  0  0  0  0  0  0
   10.7738  -13.7913   29.2015 S   0  0  0  0  0  0  0  0  0  0  0  0
   11.3723  -15.2679   28.3050 C   0  0  0  0  0  0  0  0  0  0  0  0
   10.7670  -15.3425   26.9348 C   0  0  0  0  0  0  0  0  0  0  0  0
   11.2900  -16.5751   26.2252 C   0  0  2  0  0  0  0  0  0  0  0  0
   10.6043  -16.6941   24.9227 N   0  0  0  0  0  0  0  0  0  0  0  0
   10.9472  -17.7860   26.9716 C   0  0  0  0  0  0  0  0  0  0  0  0
   11.4759  -18.1593   28.2079 O   0  0  0  0  0  0  0  0  0  0  0  0
   10.1031  -18.6182   26.5112 O   0  0  0  0  0  0  0  0  0  0  0  0
  2  1  1  1
  2 10  1  0
  2  3  1  0
  3  4  1  0
  4  5  2  0
  4  9  1  0
  5  6  1  0
  6  7  2  0
  8  7  1  0
  9  8  2  0
 10 18  1  0
 11 10  2  0
 13 15  1  0
 13 12  1  0
 14 13  2  0
 17 16  1  1
 16 15  1  0
 18 17  1  0
 19 17  1  0
 19 20  2  0
 21 22  1  0
 22 23  1  0
 23 24  1  0
 25 24  1  1
 25 26  1  0
 25 27  1  0
 26 19  1  0
 27 28  1  0
 29 27  2  0
M  END
$$$$
