FQM.pdb
     RDKit          3D

 29 29  0  0  1  0  0  0  0  0999 V2000
    6.0477  -16.5377   24.9626 N   0  0  0  0  0  0  0  0  0  0  0  0
    6.7309  -16.5900   23.7010 C   0  0  1  0  0  0  0  0  0  0  0  0
    6.7810  -15.1977   23.0931 C   0  0  0  0  0  0  0  0  0  0  0  0
    7.1217  -14.2381   24.1684 C   0  0  0  0  0  0  0  0  0  0  0  0
    8.0598  -13.2334   23.9178 C   0  0  0  0  0  0  0  0  0  0  0  0
    8.4217  -12.3067   24.8690 C   0  0  0  0  0  0  0  0  0  0  0  0
    7.8084  -12.4099   26.1085 C   0  0  0  0  0  0  0  0  0  0  0  0
    6.8754  -13.3835   26.4073 C   0  0  0  0  0  0  0  0  0  0  0  0
    6.5409  -14.2931   25.4253 C   0  0  0  0  0  0  0  0  0  0  0  0
    8.1316  -17.0500   23.9616 C   0  0  0  0  0  0  0  0  0  0  0  0
    8.4737  -17.5065   25.0864 O   0  0  0  0  0  0  0  0  0  0  0  0
   12.0690  -17.5012   19.1119 N   0  0  0  0  0  0  0  0  0  0  0  0
   10.8899  -18.2727   19.2217 C   0  0  0  0  0  0  0  0  0  0  0  0
   10.3842  -18.8609   18.2488 O   0  0  0  0  0  0  0  0  0  0  0  0
   10.2045  -18.3989   20.5641 C   0  0  0  0  0  0  0  0  0  0  0  0
   10.9707  -17.5943   21.5641 C   0  0  0  0  0  0  0  0  0  0  0  0
   10.3697  -17.5899   22.9310 C   0  0  2  0  0  0  0  0  0  0  0  0
    9.0534  -16.9510   22.8956 N   0  0  0  0  0  0  0  0  0  0  0  0
   11.1415  -16.9657   23.9940 C   0  0  0  0  0  0  0  0  0  0  0  0
   11.7115  -15.8418   23.7427 O   0  0  0  0  0  0  0  0  0  0  0  0
    8.6399  -14.4709   29.7731 C   0  0  0  0  0  0  0  0  0  0  0  0
    9.9188  -14.1239   28.5361 S   0  0  0  0  0  0  0  0  0  0  0  0
   10.3007  -15.6907   27.6748 C   0  0  0  0  0  0  0  0  0  0  0  0
   11.2721  -15.4616   26.5554 C   0  0  0  0  0  0  0  0  0  0  0  0
   12.0331  -16.7439   26.2854 C   0  0  2  0  0  0  0  0  0  0  0  0
   11.2879  -17.5305   25.2820 N   0  0  0  0  0  0  0  0  0  0  0  0
   12.0877  -17.5758   27.4879 C   0  0  0  0  0  0  0  0  0  0  0  0
   11.4890  -18.8268   27.6422 O   0  0  0  0  0  0  0  0  0  0  0  0
   12.7157  -17.1853   28.5224 O   0  0  0  0  0  0  0  0  0  0  0  0
  2  1  1  1
  2 10  1  0
  2  3  1  0
  3  4  1  0
  4  5  2  0
  4  9  1  0
  5  6  1  0
  6  7  2  0
  8  7  1  0
  9  8  2  0
 10 18  1  0
 11 10  2  0
 13 15  1  0
 13 12  1  0
 14 13  2  0
 17 16  1  6
 16 15  1  0
 18 17  1  0
 19 17  1  0
 19 20  2  0
 21 22  1  0
 22 23  1  0
 23 24  1  0
 25 24  1  1
 25 26  1  0
 25 27  1  0
 26 19  1  0
 27 28  1  0
 29 27  2  0
M  END
$$$$
