FQM.pdb
     RDKit          3D

 29 29  0  0  1  0  0  0  0  0999 V2000
    8.3762  -16.8310   20.0437 N   0  0  0  0  0  0  0  0  0  0  0  0
    8.9466  -16.1173   21.1512 C   0  0  1  0  0  0  0  0  0  0  0  0
    7.9187  -15.1499   21.7149 C   0  0  0  0  0  0  0  0  0  0  0  0
    7.7674  -14.0299   20.7579 C   0  0  0  0  0  0  0  0  0  0  0  0
    6.8102  -14.1200   19.7441 C   0  0  0  0  0  0  0  0  0  0  0  0
    6.6135  -13.1166   18.8226 C   0  0  0  0  0  0  0  0  0  0  0  0
    7.4163  -11.9920   18.9409 C   0  0  0  0  0  0  0  0  0  0  0  0
    8.3763  -11.8533   19.9240 C   0  0  0  0  0  0  0  0  0  0  0  0
    8.5414  -12.8827   20.8279 C   0  0  0  0  0  0  0  0  0  0  0  0
    9.2919  -17.1197   22.2083 C   0  0  0  0  0  0  0  0  0  0  0  0
    8.6496  -18.1990   22.3239 O   0  0  0  0  0  0  0  0  0  0  0  0
   10.6429  -21.1805   23.7198 N   0  0  0  0  0  0  0  0  0  0  0  0
   11.4812  -20.9205   24.8276 C   0  0  0  0  0  0  0  0  0  0  0  0
   11.7184  -21.7750   25.7003 O   0  0  0  0  0  0  0  0  0  0  0  0
   12.1221  -19.5582   24.9732 C   0  0  0  0  0  0  0  0  0  0  0  0
   11.6677  -18.6977   23.8385 C   0  0  0  0  0  0  0  0  0  0  0  0
   10.7069  -17.6255   24.2344 C   0  0  2  0  0  0  0  0  0  0  0  0
   10.3660  -16.8060   23.0706 N   0  0  0  0  0  0  0  0  0  0  0  0
   11.1138  -16.7317   25.3071 C   0  0  0  0  0  0  0  0  0  0  0  0
   11.8239  -15.7063   24.9984 O   0  0  0  0  0  0  0  0  0  0  0  0
    6.9276  -12.9267   26.5411 C   0  0  0  0  0  0  0  0  0  0  0  0
    8.5749  -12.2554   26.8896 S   0  0  0  0  0  0  0  0  0  0  0  0
    9.5380  -13.5557   27.7407 C   0  0  0  0  0  0  0  0  0  0  0  0
    9.6726  -14.7732   26.8754 C   0  0  0  0  0  0  0  0  0  0  0  0
   10.6506  -15.7359   27.5181 C   0  0  2  0  0  0  0  0  0  0  0  0
   10.7625  -16.9339   26.6618 N   0  0  0  0  0  0  0  0  0  0  0  0
   10.1403  -16.2088   28.8054 C   0  0  0  0  0  0  0  0  0  0  0  0
   10.2786  -15.5518   30.0288 O   0  0  0  0  0  0  0  0  0  0  0  0
    9.5086  -17.3090   28.8915 O   0  0  0  0  0  0  0  0  0  0  0  0
  2  1  1  6
  2 10  1  0
  2  3  1  0
  3  4  1  0
  4  5  2  0
  4  9  1  0
  5  6  1  0
  6  7  2  0
  8  7  1  0
  9  8  2  0
 10 18  1  0
 11 10  2  0
 13 15  1  0
 13 12  1  0
 14 13  2  0
 17 16  1  6
 16 15  1  0
 18 17  1  0
 19 17  1  0
 19 20  2  0
 21 22  1  0
 22 23  1  0
 23 24  1  0
 25 24  1  6
 25 26  1  0
 25 27  1  0
 26 19  1  0
 27 28  1  0
 29 27  2  0
M  END
$$$$
