ATI.pdb
     RDKit          3D

 21 20  0  0  1  0  0  0  0  0999 V2000
   19.1165  -16.5013  -14.5835 C   0  0  0  0  0  0  0  0  0  0  0  0
   18.8574  -16.0862  -15.9939 C   0  0  2  0  0  0  0  0  0  0  0  0
   19.4070  -17.0617  -16.9325 N   0  0  0  0  0  0  0  0  0  0  0  0
   19.2599  -14.7338  -16.3419 C   0  0  0  0  0  0  0  0  0  0  0  0
   20.3284  -14.5555  -16.9841 O   0  0  0  0  0  0  0  0  0  0  0  0
   16.7718  -12.2723  -17.9452 C   0  0  0  0  0  0  0  0  0  0  0  0
   17.4127  -11.6205  -16.7472 C   0  0  1  0  0  0  0  0  0  0  0  0
   16.6125  -11.6868  -15.6177 O   0  0  0  0  0  0  0  0  0  0  0  0
   18.7610  -12.2510  -16.4158 C   0  0  2  0  0  0  0  0  0  0  0  0
   18.4867  -13.6172  -15.9800 N   0  0  0  0  0  0  0  0  0  0  0  0
   19.4744  -11.4957  -15.3469 C   0  0  0  0  0  0  0  0  0  0  0  0
   19.2955  -11.8872  -14.1403 O   0  0  0  0  0  0  0  0  0  0  0  0
   24.3494  -11.5537  -14.5896 C   0  0  0  0  0  0  0  0  0  0  0  0
   22.8792  -11.3131  -14.5131 C   0  0  0  0  0  0  0  0  0  0  0  0
   22.4728   -9.8666  -14.6816 C   0  0  2  0  0  0  0  0  0  0  0  0
   23.1273   -8.9639  -13.6945 C   0  0  0  0  0  0  0  0  0  0  0  0
   20.9735   -9.7029  -14.5760 C   0  0  2  0  0  0  0  0  0  0  0  0
   20.3131  -10.3957  -15.6439 N   0  0  0  0  0  0  0  0  0  0  0  0
   20.6290   -8.2453  -14.6016 C   0  0  0  0  0  0  0  0  0  0  0  0
   20.3020   -7.7418  -15.7182 O   0  0  0  0  0  0  0  0  0  0  0  0
   20.6454   -7.4284  -13.4982 O   0  0  0  0  0  0  0  0  0  0  0  0
  2  4  1  0
  2  3  1  0
  2  1  1  1
  4  5  2  0
  7  6  1  6
  7  9  1  0
  8  7  1  0
  9 11  1  0
  9 10  1  1
 10  4  1  0
 11 18  1  0
 11 12  2  0
 13 14  1  0
 14 15  1  0
 15 16  1  1
 17 15  1  0
 17 18  1  6
 19 17  1  0
 19 21  1  0
 20 19  2  0
M  END
$$$$
