ATI.pdb
     RDKit          3D

 21 20  0  0  1  0  0  0  0  0999 V2000
   20.0242  -17.9582  -13.6165 C   0  0  0  0  0  0  0  0  0  0  0  0
   19.9738  -19.4446  -13.7466 C   0  0  2  0  0  0  0  0  0  0  0  0
   18.6478  -19.9521  -13.4023 N   0  0  0  0  0  0  0  0  0  0  0  0
   21.0173  -20.1786  -13.0507 C   0  0  0  0  0  0  0  0  0  0  0  0
   20.8101  -20.5761  -11.8738 O   0  0  0  0  0  0  0  0  0  0  0  0
   21.9315  -23.3698  -13.4381 C   0  0  0  0  0  0  0  0  0  0  0  0
   23.2138  -22.6477  -13.7621 C   0  0  1  0  0  0  0  0  0  0  0  0
   23.3763  -22.4432  -15.1230 O   0  0  0  0  0  0  0  0  0  0  0  0
   23.2916  -21.2949  -13.0626 C   0  0  2  0  0  0  0  0  0  0  0  0
   22.2541  -20.4574  -13.6575 N   0  0  0  0  0  0  0  0  0  0  0  0
   24.6317  -20.6640  -13.2311 C   0  0  0  0  0  0  0  0  0  0  0  0
   24.6858  -19.5928  -13.9317 O   0  0  0  0  0  0  0  0  0  0  0  0
   30.3432  -20.4860  -10.8433 C   0  0  0  0  0  0  0  0  0  0  0  0
   29.3606  -20.2487  -11.9404 C   0  0  0  0  0  0  0  0  0  0  0  0
   28.0139  -20.9015  -11.7255 C   0  0  2  0  0  0  0  0  0  0  0  0
   28.1055  -22.3807  -11.5803 C   0  0  0  0  0  0  0  0  0  0  0  0
   27.0621  -20.5784  -12.8549 C   0  0  2  0  0  0  0  0  0  0  0  0
   25.7952  -21.2170  -12.6462 N   0  0  0  0  0  0  0  0  0  0  0  0
   27.6648  -21.0163  -14.1544 C   0  0  0  0  0  0  0  0  0  0  0  0
   28.5330  -20.2573  -14.6809 O   0  0  0  0  0  0  0  0  0  0  0  0
   27.3369  -22.1805  -14.8042 O   0  0  0  0  0  0  0  0  0  0  0  0
  2  4  1  0
  2  3  1  0
  2  1  1  1
  4  5  2  0
  7  6  1  6
  7  9  1  0
  8  7  1  0
  9 11  1  0
  9 10  1  6
 10  4  1  0
 11 18  1  0
 11 12  2  0
 13 14  1  0
 14 15  1  0
 15 16  1  6
 17 15  1  0
 17 18  1  1
 19 17  1  0
 19 21  1  0
 20 19  2  0
M  END
$$$$
