ATI.pdb
     RDKit          3D

 21 20  0  0  1  0  0  0  0  0999 V2000
   16.1982  -11.5051  -10.5051 C   0  0  0  0  0  0  0  0  0  0  0  0
   15.5166  -10.2677  -10.0223 C   0  0  2  0  0  0  0  0  0  0  0  0
   14.0694  -10.4600   -9.9643 N   0  0  0  0  0  0  0  0  0  0  0  0
   15.8585   -9.0404  -10.7215 C   0  0  0  0  0  0  0  0  0  0  0  0
   15.3310   -8.8014  -11.8397 O   0  0  0  0  0  0  0  0  0  0  0  0
   15.0527   -5.6720  -10.1299 C   0  0  0  0  0  0  0  0  0  0  0  0
   16.5525   -5.7341   -9.9966 C   0  0  1  0  0  0  0  0  0  0  0  0
   16.9601   -5.9059   -8.6833 O   0  0  0  0  0  0  0  0  0  0  0  0
   17.1470   -6.8618  -10.8334 C   0  0  2  0  0  0  0  0  0  0  0  0
   16.7644   -8.1111  -10.1817 N   0  0  0  0  0  0  0  0  0  0  0  0
   18.6309   -6.7551  -10.9266 C   0  0  0  0  0  0  0  0  0  0  0  0
   19.2994   -7.0027   -9.8621 O   0  0  0  0  0  0  0  0  0  0  0  0
   21.3892   -6.8269  -15.5061 C   0  0  0  0  0  0  0  0  0  0  0  0
   20.5663   -7.4523  -14.4304 C   0  0  0  0  0  0  0  0  0  0  0  0
   21.2306   -7.4822  -13.0725 C   0  0  2  0  0  0  0  0  0  0  0  0
   21.0549   -8.7845  -12.3720 C   0  0  0  0  0  0  0  0  0  0  0  0
   20.7116   -6.3744  -12.1842 C   0  0  2  0  0  0  0  0  0  0  0  0
   19.2787   -6.3977  -12.1325 N   0  0  0  0  0  0  0  0  0  0  0  0
   21.1985   -5.0546  -12.6987 C   0  0  0  0  0  0  0  0  0  0  0  0
   20.3299   -4.2426  -13.1386 O   0  0  0  0  0  0  0  0  0  0  0  0
   22.5174   -4.6738  -12.7220 O   0  0  0  0  0  0  0  0  0  0  0  0
  2  4  1  0
  2  3  1  0
  2  1  1  6
  4  5  2  0
  7  6  1  1
  7  9  1  0
  8  7  1  0
  9 11  1  0
  9 10  1  1
 10  4  1  0
 11 18  1  0
 11 12  2  0
 13 14  1  0
 14 15  1  0
 15 16  1  1
 17 15  1  0
 17 18  1  6
 19 17  1  0
 19 21  1  0
 20 19  2  0
M  END
$$$$
