ATI.pdb
     RDKit          3D

 21 20  0  0  1  0  0  0  0  0999 V2000
   20.5700  -13.7457  -19.3443 C   0  0  0  0  0  0  0  0  0  0  0  0
   21.9060  -13.8696  -18.6896 C   0  0  2  0  0  0  0  0  0  0  0  0
   22.2259  -15.2697  -18.4213 N   0  0  0  0  0  0  0  0  0  0  0  0
   22.1145  -13.0452  -17.5111 C   0  0  0  0  0  0  0  0  0  0  0  0
   21.6515  -13.4259  -16.4037 O   0  0  0  0  0  0  0  0  0  0  0  0
   25.0909  -12.0514  -15.7154 C   0  0  0  0  0  0  0  0  0  0  0  0
   24.4790  -10.7682  -16.2150 C   0  0  1  0  0  0  0  0  0  0  0  0
   25.0635  -10.3263  -17.3912 O   0  0  0  0  0  0  0  0  0  0  0  0
   22.9794  -10.9128  -16.4511 C   0  0  2  0  0  0  0  0  0  0  0  0
   22.8207  -11.8315  -17.5747 N   0  0  0  0  0  0  0  0  0  0  0  0
   22.3408   -9.6007  -16.7558 C   0  0  0  0  0  0  0  0  0  0  0  0
   22.4074   -9.1893  -17.9672 O   0  0  0  0  0  0  0  0  0  0  0  0
   17.6230   -6.6411  -17.5194 C   0  0  0  0  0  0  0  0  0  0  0  0
   18.9870   -6.5000  -16.9321 C   0  0  0  0  0  0  0  0  0  0  0  0
   19.6569   -7.8104  -16.5851 C   0  0  2  0  0  0  0  0  0  0  0  0
   18.9150   -8.5821  -15.5499 C   0  0  0  0  0  0  0  0  0  0  0  0
   21.0753   -7.5915  -16.1098 C   0  0  2  0  0  0  0  0  0  0  0  0
   21.6884   -8.8392  -15.7578 N   0  0  0  0  0  0  0  0  0  0  0  0
   21.0691   -6.6588  -14.9378 C   0  0  0  0  0  0  0  0  0  0  0  0
   20.8247   -5.4358  -15.1656 O   0  0  0  0  0  0  0  0  0  0  0  0
   21.3095   -7.0449  -13.6422 O   0  0  0  0  0  0  0  0  0  0  0  0
  2  4  1  0
  2  3  1  0
  2  1  1  1
  4  5  2  0
  7  6  1  6
  7  9  1  0
  8  7  1  0
  9 11  1  0
  9 10  1  6
 10  4  1  0
 11 18  1  0
 11 12  2  0
 13 14  1  0
 14 15  1  0
 15 16  1  1
 17 15  1  0
 17 18  1  1
 19 17  1  0
 19 21  1  0
 20 19  2  0
M  END
$$$$
