ATI.pdb
     RDKit          3D

 21 20  0  0  1  0  0  0  0  0999 V2000
   15.0417  -14.0860  -17.7254 C   0  0  0  0  0  0  0  0  0  0  0  0
   16.4174  -14.2399  -17.1661 C   0  0  2  0  0  0  0  0  0  0  0  0
   16.5971  -15.5684  -16.5855 N   0  0  0  0  0  0  0  0  0  0  0  0
   16.8496  -13.1995  -16.2481 C   0  0  0  0  0  0  0  0  0  0  0  0
   16.4436  -13.2226  -15.0563 O   0  0  0  0  0  0  0  0  0  0  0  0
   20.3363  -12.5417  -15.3833 C   0  0  0  0  0  0  0  0  0  0  0  0
   19.7889  -11.2410  -15.9117 C   0  0  1  0  0  0  0  0  0  0  0  0
   20.1010  -11.0393  -17.2467 O   0  0  0  0  0  0  0  0  0  0  0  0
   18.2738  -11.1624  -15.7575 C   0  0  2  0  0  0  0  0  0  0  0  0
   17.7105  -12.1660  -16.6560 N   0  0  0  0  0  0  0  0  0  0  0  0
   17.7551   -9.8071  -16.0984 C   0  0  0  0  0  0  0  0  0  0  0  0
   17.5298   -9.5653  -17.3361 O   0  0  0  0  0  0  0  0  0  0  0  0
   13.2741   -7.9045  -14.8277 C   0  0  0  0  0  0  0  0  0  0  0  0
   14.6004   -8.0319  -15.4985 C   0  0  0  0  0  0  0  0  0  0  0  0
   15.7095   -7.2373  -14.8468 C   0  0  2  0  0  0  0  0  0  0  0  0
   15.4672   -5.7685  -14.8851 C   0  0  0  0  0  0  0  0  0  0  0  0
   17.0452   -7.5303  -15.4919 C   0  0  2  0  0  0  0  0  0  0  0  0
   17.5192   -8.8273  -15.1054 N   0  0  0  0  0  0  0  0  0  0  0  0
   18.0298   -6.4716  -15.1002 C   0  0  0  0  0  0  0  0  0  0  0  0
   18.7384   -6.6848  -14.0708 O   0  0  0  0  0  0  0  0  0  0  0  0
   18.2104   -5.2942  -15.7831 O   0  0  0  0  0  0  0  0  0  0  0  0
  2  4  1  0
  2  3  1  0
  2  1  1  1
  4  5  2  0
  7  6  1  6
  7  9  1  0
  8  7  1  0
  9 11  1  0
  9 10  1  6
 10  4  1  0
 11 18  1  0
 11 12  2  0
 13 14  1  0
 14 15  1  0
 15 16  1  6
 17 15  1  0
 17 18  1  1
 19 17  1  0
 19 21  1  0
 20 19  2  0
M  END
$$$$
