ATI.pdb
     RDKit          3D

 21 20  0  0  1  0  0  0  0  0999 V2000
   14.6639  -11.1167  -10.5898 C   0  0  0  0  0  0  0  0  0  0  0  0
   14.0482  -10.5132  -11.8086 C   0  0  2  0  0  0  0  0  0  0  0  0
   12.8907  -11.2901  -12.2457 N   0  0  0  0  0  0  0  0  0  0  0  0
   14.9547  -10.2491  -12.9135 C   0  0  0  0  0  0  0  0  0  0  0  0
   15.1858  -11.1603  -13.7514 O   0  0  0  0  0  0  0  0  0  0  0  0
   14.4785   -8.3944  -15.7771 C   0  0  0  0  0  0  0  0  0  0  0  0
   15.6052   -7.6851  -15.0712 C   0  0  1  0  0  0  0  0  0  0  0  0
   15.1565   -6.6507  -14.2654 O   0  0  0  0  0  0  0  0  0  0  0  0
   16.4226   -8.6421  -14.2101 C   0  0  2  0  0  0  0  0  0  0  0  0
   15.5815   -9.0011  -13.0719 N   0  0  0  0  0  0  0  0  0  0  0  0
   17.6922   -8.0154  -13.7436 C   0  0  0  0  0  0  0  0  0  0  0  0
   17.6814   -7.4760  -12.5816 O   0  0  0  0  0  0  0  0  0  0  0  0
   22.6023  -10.0808  -14.2863 C   0  0  0  0  0  0  0  0  0  0  0  0
   21.4246   -9.2805  -13.8411 C   0  0  0  0  0  0  0  0  0  0  0  0
   21.2819   -7.9421  -14.5297 C   0  0  2  0  0  0  0  0  0  0  0  0
   22.4279   -7.0295  -14.2620 C   0  0  0  0  0  0  0  0  0  0  0  0
   20.0002   -7.2508  -14.1231 C   0  0  2  0  0  0  0  0  0  0  0  0
   18.8601   -8.0131  -14.5420 N   0  0  0  0  0  0  0  0  0  0  0  0
   19.9640   -5.8778  -14.7210 C   0  0  0  0  0  0  0  0  0  0  0  0
   20.7023   -4.9918  -14.1946 O   0  0  0  0  0  0  0  0  0  0  0  0
   19.1865   -5.5238  -15.7959 O   0  0  0  0  0  0  0  0  0  0  0  0
  2  4  1  0
  2  3  1  0
  2  1  1  1
  4  5  2  0
  7  6  1  1
  7  9  1  0
  8  7  1  0
  9 11  1  0
  9 10  1  1
 10  4  1  0
 11 18  1  0
 11 12  2  0
 13 14  1  0
 14 15  1  0
 15 16  1  1
 17 15  1  0
 17 18  1  6
 19 17  1  0
 19 21  1  0
 20 19  2  0
M  END
$$$$
