ATI.pdb
     RDKit          3D

 21 20  0  0  1  0  0  0  0  0999 V2000
   13.9088  -11.2680  -15.0186 C   0  0  0  0  0  0  0  0  0  0  0  0
   15.3950  -11.3595  -14.9105 C   0  0  2  0  0  0  0  0  0  0  0  0
   15.8518  -12.7240  -15.1633 N   0  0  0  0  0  0  0  0  0  0  0  0
   15.9770  -10.8253  -13.6907 C   0  0  0  0  0  0  0  0  0  0  0  0
   16.1297  -11.5843  -12.6976 O   0  0  0  0  0  0  0  0  0  0  0  0
   19.3072   -9.3720  -13.4220 C   0  0  0  0  0  0  0  0  0  0  0  0
   18.3567   -8.3081  -12.9367 C   0  0  1  0  0  0  0  0  0  0  0  0
   18.0552   -7.3796  -13.9203 O   0  0  0  0  0  0  0  0  0  0  0  0
   17.0500   -8.9082  -12.4288 C   0  0  2  0  0  0  0  0  0  0  0  0
   16.3749   -9.4810  -13.5899 N   0  0  0  0  0  0  0  0  0  0  0  0
   16.1880   -7.8804  -11.7785 C   0  0  0  0  0  0  0  0  0  0  0  0
   15.3791   -7.2371  -12.5354 O   0  0  0  0  0  0  0  0  0  0  0  0
   12.2549   -6.5803   -7.6714 C   0  0  0  0  0  0  0  0  0  0  0  0
   13.4684   -6.0849   -8.3838 C   0  0  0  0  0  0  0  0  0  0  0  0
   14.3007   -7.1695   -9.0295 C   0  0  2  0  0  0  0  0  0  0  0  0
   14.8485   -8.1415   -8.0432 C   0  0  0  0  0  0  0  0  0  0  0  0
   15.4444   -6.5819   -9.8249 C   0  0  2  0  0  0  0  0  0  0  0  0
   16.2543   -7.6222  -10.3891 N   0  0  0  0  0  0  0  0  0  0  0  0
   16.2657   -5.6982   -8.9372 C   0  0  0  0  0  0  0  0  0  0  0  0
   17.3636   -6.1622   -8.5052 O   0  0  0  0  0  0  0  0  0  0  0  0
   15.9049   -4.4264   -8.5663 O   0  0  0  0  0  0  0  0  0  0  0  0
  2  4  1  0
  2  3  1  0
  2  1  1  1
  4  5  2  0
  7  6  1  6
  7  9  1  0
  8  7  1  0
  9 11  1  0
  9 10  1  6
 10  4  1  0
 11 18  1  0
 11 12  2  0
 13 14  1  0
 14 15  1  0
 15 16  1  1
 17 15  1  0
 17 18  1  1
 19 17  1  0
 19 21  1  0
 20 19  2  0
M  END
$$$$
