ATI.pdb
     RDKit          3D

 21 20  0  0  1  0  0  0  0  0999 V2000
   16.4909  -13.7212  -16.9405 C   0  0  0  0  0  0  0  0  0  0  0  0
   16.4965  -12.9831  -18.2381 C   0  0  2  0  0  0  0  0  0  0  0  0
   16.5166  -13.9126  -19.3651 N   0  0  0  0  0  0  0  0  0  0  0  0
   17.5166  -11.9578  -18.3810 C   0  0  0  0  0  0  0  0  0  0  0  0
   18.6699  -12.2862  -18.7654 O   0  0  0  0  0  0  0  0  0  0  0  0
   17.0712   -8.5416  -20.1834 C   0  0  0  0  0  0  0  0  0  0  0  0
   17.5095   -8.3199  -18.7588 C   0  0  1  0  0  0  0  0  0  0  0  0
   16.4479   -8.0225  -17.9191 O   0  0  0  0  0  0  0  0  0  0  0  0
   18.2377   -9.5361  -18.1968 C   0  0  2  0  0  0  0  0  0  0  0  0
   17.2495  -10.6066  -18.1010 N   0  0  0  0  0  0  0  0  0  0  0  0
   18.8315   -9.2529  -16.8591 C   0  0  0  0  0  0  0  0  0  0  0  0
   18.0951   -9.4818  -15.8361 O   0  0  0  0  0  0  0  0  0  0  0  0
   23.5228  -10.4145  -13.5109 C   0  0  0  0  0  0  0  0  0  0  0  0
   22.4597   -9.4165  -13.8256 C   0  0  0  0  0  0  0  0  0  0  0  0
   21.8852   -9.5334  -15.2193 C   0  0  2  0  0  0  0  0  0  0  0  0
   22.8906   -9.2600  -16.2833 C   0  0  0  0  0  0  0  0  0  0  0  0
   20.7086   -8.6027  -15.4067 C   0  0  2  0  0  0  0  0  0  0  0  0
   20.1480   -8.7546  -16.7179 N   0  0  0  0  0  0  0  0  0  0  0  0
   21.1517   -7.1892  -15.1841 C   0  0  0  0  0  0  0  0  0  0  0  0
   21.3992   -6.4862  -16.2096 O   0  0  0  0  0  0  0  0  0  0  0  0
   21.3044   -6.6135  -13.9469 O   0  0  0  0  0  0  0  0  0  0  0  0
  2  4  1  0
  2  3  1  0
  2  1  1  1
  4  5  2  0
  7  6  1  6
  7  9  1  0
  8  7  1  0
  9 11  1  0
  9 10  1  1
 10  4  1  0
 11 18  1  0
 11 12  2  0
 13 14  1  0
 14 15  1  0
 15 16  1  6
 17 15  1  0
 17 18  1  6
 19 17  1  0
 19 21  1  0
 20 19  2  0
M  END
$$$$
