ATI.pdb
     RDKit          3D

 21 20  0  0  1  0  0  0  0  0999 V2000
   15.4931  -11.7087  -15.1445 C   0  0  0  0  0  0  0  0  0  0  0  0
   15.2863  -10.4756  -15.9604 C   0  0  2  0  0  0  0  0  0  0  0  0
   14.4357  -10.7528  -17.1154 N   0  0  0  0  0  0  0  0  0  0  0  0
   16.4912   -9.7631  -16.3508 C   0  0  0  0  0  0  0  0  0  0  0  0
   17.2871  -10.2998  -17.1659 O   0  0  0  0  0  0  0  0  0  0  0  0
   16.4384   -6.4675  -17.9920 C   0  0  0  0  0  0  0  0  0  0  0  0
   17.2686   -6.3222  -16.7429 C   0  0  1  0  0  0  0  0  0  0  0  0
   16.5369   -5.8246  -15.6764 O   0  0  0  0  0  0  0  0  0  0  0  0
   17.8883   -7.6498  -16.3198 C   0  0  2  0  0  0  0  0  0  0  0  0
   16.7926   -8.4880  -15.8418 N   0  0  0  0  0  0  0  0  0  0  0  0
   18.9090   -7.4648  -15.2492 C   0  0  0  0  0  0  0  0  0  0  0  0
   18.4964   -7.5172  -14.0375 O   0  0  0  0  0  0  0  0  0  0  0  0
   22.9482  -10.5262  -14.7726 C   0  0  0  0  0  0  0  0  0  0  0  0
   21.8806   -9.5039  -14.5711 C   0  0  0  0  0  0  0  0  0  0  0  0
   22.3626   -8.0729  -14.6481 C   0  0  2  0  0  0  0  0  0  0  0  0
   23.4121   -7.7618  -13.6384 C   0  0  0  0  0  0  0  0  0  0  0  0
   21.2180   -7.0995  -14.4806 C   0  0  2  0  0  0  0  0  0  0  0  0
   20.2733   -7.2416  -15.5500 N   0  0  0  0  0  0  0  0  0  0  0  0
   21.7556   -5.7022  -14.4352 C   0  0  0  0  0  0  0  0  0  0  0  0
   21.6251   -4.9918  -15.4771 O   0  0  0  0  0  0  0  0  0  0  0  0
   22.3758   -5.1484  -13.3424 O   0  0  0  0  0  0  0  0  0  0  0  0
  2  4  1  0
  2  3  1  0
  2  1  1  6
  4  5  2  0
  7  6  1  6
  7  9  1  0
  8  7  1  0
  9 11  1  0
  9 10  1  1
 10  4  1  0
 11 18  1  0
 11 12  2  0
 13 14  1  0
 14 15  1  0
 15 16  1  1
 17 15  1  0
 17 18  1  6
 19 17  1  0
 19 21  1  0
 20 19  2  0
M  END
$$$$
