SVL.pdb
     RDKit          3D

 22 21  0  0  1  0  0  0  0  0999 V2000
   29.4225  -22.4748  -15.5642 O   0  0  0  0  0  0  0  0  0  0  0  0
   28.1331  -22.8847  -15.8910 C   0  0  0  0  0  0  0  0  0  0  0  0
   27.4229  -21.6791  -16.4768 C   0  0  2  0  0  0  0  0  0  0  0  0
   28.3063  -21.0358  -17.4286 N   0  0  0  0  0  0  0  0  0  0  0  0
   27.1868  -20.7133  -15.3745 C   0  0  0  0  0  0  0  0  0  0  0  0
   27.5333  -19.4995  -15.5391 O   0  0  0  0  0  0  0  0  0  0  0  0
   24.7153  -19.3444  -15.7236 C   0  0  0  0  0  0  0  0  0  0  0  0
   24.3553  -20.1605  -14.4917 C   0  0  2  0  0  0  0  0  0  0  0  0
   23.1265  -19.5302  -13.9066 C   0  0  0  0  0  0  0  0  0  0  0  0
   25.5337  -20.2226  -13.5366 C   0  0  2  0  0  0  0  0  0  0  0  0
   26.5981  -21.0344  -14.1332 N   0  0  0  0  0  0  0  0  0  0  0  0
   25.2114  -20.8483  -12.2419 C   0  0  0  0  0  0  0  0  0  0  0  0
   24.7743  -22.0516  -12.2160 O   0  0  0  0  0  0  0  0  0  0  0  0
   27.9642  -21.0769   -8.6390 C   0  0  0  0  0  0  0  0  0  0  0  0
   26.9971  -19.9491   -8.5967 C   0  0  2  0  0  0  0  0  0  0  0  0
   27.3957  -18.9748   -7.4820 C   0  0  0  0  0  0  0  0  0  0  0  0
   25.5593  -20.2884   -8.5572 C   0  0  0  0  0  0  0  0  0  0  0  0
   24.9627  -20.9492   -9.7384 C   0  0  2  0  0  0  0  0  0  0  0  0
   25.3400  -20.2384  -10.9672 N   0  0  0  0  0  0  0  0  0  0  0  0
   23.4656  -20.8202   -9.5977 C   0  0  0  0  0  0  0  0  0  0  0  0
   22.8075  -20.0031  -10.2770 O   0  0  0  0  0  0  0  0  0  0  0  0
   22.7635  -21.6126   -8.7005 O   0  0  0  0  0  0  0  0  0  0  0  0
  2  1  1  0
  3  2  1  0
  3  4  1  6
  5  3  1  0
  5  6  2  0
  8  7  1  6
  8 10  1  0
  9  8  1  0
 10 11  1  6
 10 12  1  0
 11  5  1  0
 12 19  1  0
 13 12  2  0
 15 14  1  1
 16 15  1  0
 17 15  1  0
 18 17  1  1
 19 18  1  0
 20 22  1  0
 20 18  1  0
 21 20  2  0
M  END
$$$$
