SVL.pdb
     RDKit          3D

 22 21  0  0  1  0  0  0  0  0999 V2000
   18.2172  -15.5959  -15.3375 O   0  0  0  0  0  0  0  0  0  0  0  0
   18.9775  -14.5878  -15.9233 C   0  0  0  0  0  0  0  0  0  0  0  0
   18.0394  -13.7839  -16.8035 C   0  0  2  0  0  0  0  0  0  0  0  0
   17.6804  -14.5862  -17.9556 N   0  0  0  0  0  0  0  0  0  0  0  0
   18.7891  -12.6052  -17.3056 C   0  0  0  0  0  0  0  0  0  0  0  0
   19.6144  -12.7660  -18.2614 O   0  0  0  0  0  0  0  0  0  0  0  0
   17.4666   -9.2528  -18.6426 C   0  0  0  0  0  0  0  0  0  0  0  0
   18.4681   -8.9798  -17.5310 C   0  0  2  0  0  0  0  0  0  0  0  0
   19.1597   -7.6970  -17.8856 C   0  0  0  0  0  0  0  0  0  0  0  0
   19.4052  -10.1621  -17.3624 C   0  0  2  0  0  0  0  0  0  0  0  0
   18.6613  -11.2935  -16.8018 N   0  0  0  0  0  0  0  0  0  0  0  0
   20.5228   -9.9019  -16.4377 C   0  0  0  0  0  0  0  0  0  0  0  0
   20.2798   -9.7102  -15.1952 O   0  0  0  0  0  0  0  0  0  0  0  0
   26.7549   -9.5896  -16.0666 C   0  0  0  0  0  0  0  0  0  0  0  0
   25.4308   -9.7281  -15.4061 C   0  0  2  0  0  0  0  0  0  0  0  0
   25.5288  -10.7570  -14.2737 C   0  0  0  0  0  0  0  0  0  0  0  0
   24.2590   -9.9614  -16.2759 C   0  0  0  0  0  0  0  0  0  0  0  0
   22.9280   -9.5419  -15.7858 C   0  0  2  0  0  0  0  0  0  0  0  0
   21.8965   -9.8403  -16.7880 N   0  0  0  0  0  0  0  0  0  0  0  0
   22.9742   -8.0409  -15.6354 C   0  0  0  0  0  0  0  0  0  0  0  0
   23.1328   -7.2845  -16.6177 O   0  0  0  0  0  0  0  0  0  0  0  0
   22.8407   -7.4454  -14.3891 O   0  0  0  0  0  0  0  0  0  0  0  0
  2  1  1  0
  3  2  1  0
  3  4  1  6
  5  3  1  0
  5  6  2  0
  8  7  1  6
  8 10  1  0
  9  8  1  0
 10 11  1  1
 10 12  1  0
 11  5  1  0
 12 19  1  0
 13 12  2  0
 15 14  1  6
 16 15  1  0
 17 15  1  0
 18 17  1  6
 19 18  1  0
 20 22  1  0
 20 18  1  0
 21 20  2  0
M  END
$$$$
