SVL.pdb
     RDKit          3D

 22 21  0  0  1  0  0  0  0  0999 V2000
   22.1711  -11.1104  -17.4836 O   0  0  0  0  0  0  0  0  0  0  0  0
   22.3055  -12.4945  -17.5448 C   0  0  0  0  0  0  0  0  0  0  0  0
   23.7919  -12.7899  -17.6131 C   0  0  2  0  0  0  0  0  0  0  0  0
   24.2639  -12.4944  -18.9509 N   0  0  0  0  0  0  0  0  0  0  0  0
   23.9741  -14.2468  -17.3949 C   0  0  0  0  0  0  0  0  0  0  0  0
   23.9184  -15.0280  -18.3985 O   0  0  0  0  0  0  0  0  0  0  0  0
   26.7374  -15.8695  -15.1172 C   0  0  0  0  0  0  0  0  0  0  0  0
   25.3962  -16.5314  -14.8417 C   0  0  2  0  0  0  0  0  0  0  0  0
   25.6819  -17.9795  -14.5753 C   0  0  0  0  0  0  0  0  0  0  0  0
   24.4415  -16.2913  -15.9974 C   0  0  2  0  0  0  0  0  0  0  0  0
   24.2088  -14.8517  -16.1420 N   0  0  0  0  0  0  0  0  0  0  0  0
   23.1170  -16.9083  -15.8064 C   0  0  0  0  0  0  0  0  0  0  0  0
   22.3497  -16.4762  -14.8767 O   0  0  0  0  0  0  0  0  0  0  0  0
   18.7064  -20.2603  -18.5553 C   0  0  0  0  0  0  0  0  0  0  0  0
   19.1559  -19.3650  -17.4574 C   0  0  2  0  0  0  0  0  0  0  0  0
   18.1066  -18.2712  -17.2271 C   0  0  0  0  0  0  0  0  0  0  0  0
   20.5260  -18.8182  -17.5448 C   0  0  0  0  0  0  0  0  0  0  0  0
   21.2432  -18.5203  -16.2860 C   0  0  2  0  0  0  0  0  0  0  0  0
   22.5751  -17.9719  -16.5736 N   0  0  0  0  0  0  0  0  0  0  0  0
   21.4529  -19.8394  -15.5834 C   0  0  0  0  0  0  0  0  0  0  0  0
   20.6310  -20.2814  -14.7519 O   0  0  0  0  0  0  0  0  0  0  0  0
   22.5763  -20.6127  -15.8401 O   0  0  0  0  0  0  0  0  0  0  0  0
  2  1  1  0
  3  2  1  0
  3  4  1  6
  5  3  1  0
  5  6  2  0
  8  7  1  6
  8 10  1  0
  9  8  1  0
 10 11  1  1
 10 12  1  0
 11  5  1  0
 12 19  1  0
 13 12  2  0
 15 14  1  6
 16 15  1  0
 17 15  1  0
 18 17  1  6
 19 18  1  0
 20 22  1  0
 20 18  1  0
 21 20  2  0
M  END
$$$$
