SVL.pdb
     RDKit          3D

 22 21  0  0  1  0  0  0  0  0999 V2000
   16.8527   -9.8505  -19.1248 O   0  0  0  0  0  0  0  0  0  0  0  0
   17.5401   -9.4344  -17.9882 C   0  0  0  0  0  0  0  0  0  0  0  0
   18.0522  -10.6858  -17.3005 C   0  0  2  0  0  0  0  0  0  0  0  0
   16.9419  -11.3395  -16.6372 N   0  0  0  0  0  0  0  0  0  0  0  0
   19.0072  -10.2637  -16.2455 C   0  0  0  0  0  0  0  0  0  0  0  0
   18.5708  -10.0739  -15.0648 O   0  0  0  0  0  0  0  0  0  0  0  0
   22.2529  -11.8793  -15.0396 C   0  0  0  0  0  0  0  0  0  0  0  0
   22.5510  -10.4318  -15.3984 C   0  0  2  0  0  0  0  0  0  0  0  0
   23.6054   -9.9632  -14.4402 C   0  0  0  0  0  0  0  0  0  0  0  0
   21.2767   -9.6071  -15.3682 C   0  0  2  0  0  0  0  0  0  0  0  0
   20.3875  -10.0505  -16.4455 N   0  0  0  0  0  0  0  0  0  0  0  0
   21.5011   -8.1665  -15.5825 C   0  0  0  0  0  0  0  0  0  0  0  0
   22.0044   -7.7658  -16.6896 O   0  0  0  0  0  0  0  0  0  0  0  0
   20.4322   -4.5638  -17.6457 C   0  0  0  0  0  0  0  0  0  0  0  0
   19.6161   -4.9881  -16.4783 C   0  0  2  0  0  0  0  0  0  0  0  0
   18.2775   -4.2407  -16.4910 C   0  0  0  0  0  0  0  0  0  0  0  0
   20.2631   -4.9569  -15.1499 C   0  0  0  0  0  0  0  0  0  0  0  0
   21.5118   -5.7267  -14.9606 C   0  0  2  0  0  0  0  0  0  0  0  0
   21.2060   -7.1311  -14.6581 N   0  0  0  0  0  0  0  0  0  0  0  0
   22.1947   -5.1531  -13.7431 C   0  0  0  0  0  0  0  0  0  0  0  0
   22.1105   -5.6986  -12.6216 O   0  0  0  0  0  0  0  0  0  0  0  0
   22.9461   -3.9896  -13.8296 O   0  0  0  0  0  0  0  0  0  0  0  0
  2  1  1  0
  3  2  1  0
  3  4  1  1
  5  3  1  0
  5  6  2  0
  8  7  1  1
  8 10  1  0
  9  8  1  0
 10 11  1  6
 10 12  1  0
 11  5  1  0
 12 19  1  0
 13 12  2  0
 15 14  1  6
 16 15  1  0
 17 15  1  0
 18 17  1  1
 19 18  1  0
 20 22  1  0
 20 18  1  0
 21 20  2  0
M  END
$$$$
