SVL.pdb
     RDKit          3D

 22 21  0  0  1  0  0  0  0  0999 V2000
   20.1623  -19.3217  -10.4749 O   0  0  0  0  0  0  0  0  0  0  0  0
   20.9985  -18.7501  -11.4295 C   0  0  0  0  0  0  0  0  0  0  0  0
   21.5364  -19.8851  -12.2801 C   0  0  2  0  0  0  0  0  0  0  0  0
   20.4670  -20.8327  -12.5216 N   0  0  0  0  0  0  0  0  0  0  0  0
   22.5768  -20.5893  -11.4894 C   0  0  0  0  0  0  0  0  0  0  0  0
   22.2487  -21.6313  -10.8359 O   0  0  0  0  0  0  0  0  0  0  0  0
   25.1381  -22.4573  -12.8994 C   0  0  0  0  0  0  0  0  0  0  0  0
   25.8840  -21.5299  -11.9526 C   0  0  2  0  0  0  0  0  0  0  0  0
   27.0882  -22.2860  -11.4754 C   0  0  0  0  0  0  0  0  0  0  0  0
   24.9650  -21.0625  -10.8383 C   0  0  2  0  0  0  0  0  0  0  0  0
   23.9277  -20.1923  -11.3992 N   0  0  0  0  0  0  0  0  0  0  0  0
   25.6510  -20.2735   -9.7998 C   0  0  0  0  0  0  0  0  0  0  0  0
   25.9820  -19.0613  -10.0464 O   0  0  0  0  0  0  0  0  0  0  0  0
   28.0325  -20.5554   -4.0246 C   0  0  0  0  0  0  0  0  0  0  0  0
   27.9175  -19.8739   -5.3404 C   0  0  2  0  0  0  0  0  0  0  0  0
   27.8094  -18.3599   -5.1248 C   0  0  0  0  0  0  0  0  0  0  0  0
   26.8964  -20.3808   -6.2809 C   0  0  0  0  0  0  0  0  0  0  0  0
   27.0551  -20.0746   -7.7192 C   0  0  2  0  0  0  0  0  0  0  0  0
   25.9974  -20.7284   -8.5011 N   0  0  0  0  0  0  0  0  0  0  0  0
   28.3645  -20.6879   -8.1515 C   0  0  0  0  0  0  0  0  0  0  0  0
   28.4644  -21.9030   -8.4269 O   0  0  0  0  0  0  0  0  0  0  0  0
   29.5123  -19.9151   -8.2584 O   0  0  0  0  0  0  0  0  0  0  0  0
  2  1  1  0
  3  2  1  0
  3  4  1  1
  5  3  1  0
  5  6  2  0
  8  7  1  6
  8 10  1  0
  9  8  1  0
 10 11  1  6
 10 12  1  0
 11  5  1  0
 12 19  1  0
 13 12  2  0
 15 14  1  1
 16 15  1  0
 17 15  1  0
 18 17  1  1
 19 18  1  0
 20 22  1  0
 20 18  1  0
 21 20  2  0
M  END
$$$$
