SVL.pdb
     RDKit          3D

 22 21  0  0  1  0  0  0  0  0999 V2000
   12.7289  -10.1055  -13.6363 O   0  0  0  0  0  0  0  0  0  0  0  0
   13.9984   -9.8653  -14.1542 C   0  0  0  0  0  0  0  0  0  0  0  0
   13.8165   -9.5057  -15.6166 C   0  0  2  0  0  0  0  0  0  0  0  0
   13.3904  -10.6886  -16.3371 N   0  0  0  0  0  0  0  0  0  0  0  0
   15.1440   -9.1176  -16.1556 C   0  0  0  0  0  0  0  0  0  0  0  0
   15.7995   -9.9677  -16.8397 O   0  0  0  0  0  0  0  0  0  0  0  0
   15.8181   -6.2171  -18.5332 C   0  0  0  0  0  0  0  0  0  0  0  0
   16.7375   -6.0956  -17.3278 C   0  0  2  0  0  0  0  0  0  0  0  0
   17.9924   -5.4330  -17.8135 C   0  0  0  0  0  0  0  0  0  0  0  0
   16.9616   -7.4574  -16.6953 C   0  0  2  0  0  0  0  0  0  0  0  0
   15.7535   -7.8588  -15.9694 N   0  0  0  0  0  0  0  0  0  0  0  0
   18.0610   -7.4784  -15.7141 C   0  0  0  0  0  0  0  0  0  0  0  0
   17.9282   -6.8491  -14.6068 O   0  0  0  0  0  0  0  0  0  0  0  0
   23.4523  -10.3129  -14.3806 C   0  0  0  0  0  0  0  0  0  0  0  0
   22.3514   -9.3958  -13.9857 C   0  0  2  0  0  0  0  0  0  0  0  0
   21.9543   -9.6697  -12.5304 C   0  0  0  0  0  0  0  0  0  0  0  0
   21.1786   -9.3171  -14.8816 C   0  0  0  0  0  0  0  0  0  0  0  0
   20.3275   -8.1092  -14.8172 C   0  0  2  0  0  0  0  0  0  0  0  0
   19.3016   -8.1497  -15.8676 N   0  0  0  0  0  0  0  0  0  0  0  0
   21.2215   -6.9317  -15.1205 C   0  0  0  0  0  0  0  0  0  0  0  0
   21.4926   -6.5947  -16.2932 O   0  0  0  0  0  0  0  0  0  0  0  0
   21.7774   -6.1771  -14.0972 O   0  0  0  0  0  0  0  0  0  0  0  0
  2  1  1  0
  3  2  1  0
  3  4  1  6
  5  3  1  0
  5  6  2  0
  8  7  1  6
  8 10  1  0
  9  8  1  0
 10 11  1  1
 10 12  1  0
 11  5  1  0
 12 19  1  0
 13 12  2  0
 15 14  1  6
 16 15  1  0
 17 15  1  0
 18 17  1  6
 19 18  1  0
 20 22  1  0
 20 18  1  0
 21 20  2  0
M  END
$$$$
