SVL.pdb
     RDKit          3D

 22 21  0  0  1  0  0  0  0  0999 V2000
   26.2255  -24.4382  -15.2736 O   0  0  0  0  0  0  0  0  0  0  0  0
   26.2333  -25.6840  -15.8943 C   0  0  0  0  0  0  0  0  0  0  0  0
   26.8668  -25.4918  -17.2592 C   0  0  2  0  0  0  0  0  0  0  0  0
   25.9148  -24.8243  -18.1241 N   0  0  0  0  0  0  0  0  0  0  0  0
   27.1160  -26.8368  -17.8357 C   0  0  0  0  0  0  0  0  0  0  0  0
   26.1859  -27.4020  -18.4960 O   0  0  0  0  0  0  0  0  0  0  0  0
   29.4059  -28.1212  -20.4389 C   0  0  0  0  0  0  0  0  0  0  0  0
   29.6925  -28.9285  -19.1823 C   0  0  2  0  0  0  0  0  0  0  0  0
   30.0888  -30.3013  -19.6382 C   0  0  0  0  0  0  0  0  0  0  0  0
   28.4904  -28.9071  -18.2554 C   0  0  2  0  0  0  0  0  0  0  0  0
   28.3228  -27.5569  -17.7108 N   0  0  0  0  0  0  0  0  0  0  0  0
   28.6228  -29.8080  -17.0966 C   0  0  0  0  0  0  0  0  0  0  0  0
   29.5150  -29.5663  -16.2105 O   0  0  0  0  0  0  0  0  0  0  0  0
   27.4814  -34.5000  -14.1816 C   0  0  0  0  0  0  0  0  0  0  0  0
   26.7651  -33.2129  -13.9839 C   0  0  2  0  0  0  0  0  0  0  0  0
   25.3595  -33.4883  -13.4370 C   0  0  0  0  0  0  0  0  0  0  0  0
   26.7501  -32.2630  -15.1160 C   0  0  0  0  0  0  0  0  0  0  0  0
   28.0452  -31.7816  -15.6438 C   0  0  2  0  0  0  0  0  0  0  0  0
   27.8353  -30.9609  -16.8437 N   0  0  0  0  0  0  0  0  0  0  0  0
   28.8187  -33.0033  -16.0761 C   0  0  0  0  0  0  0  0  0  0  0  0
   29.6524  -33.5553  -15.3262 O   0  0  0  0  0  0  0  0  0  0  0  0
   28.6278  -33.5593  -17.3332 O   0  0  0  0  0  0  0  0  0  0  0  0
  2  1  1  0
  3  2  1  0
  3  4  1  6
  5  3  1  0
  5  6  2  0
  8  7  1  6
  8 10  1  0
  9  8  1  0
 10 11  1  1
 10 12  1  0
 11  5  1  0
 12 19  1  0
 13 12  2  0
 15 14  1  6
 16 15  1  0
 17 15  1  0
 18 17  1  6
 19 18  1  0
 20 22  1  0
 20 18  1  0
 21 20  2  0
M  END
$$$$
