SVL.pdb
     RDKit          3D

 22 21  0  0  1  0  0  0  0  0999 V2000
   16.0629  -14.5038  -14.1308 O   0  0  0  0  0  0  0  0  0  0  0  0
   16.9336  -13.8283  -14.9811 C   0  0  0  0  0  0  0  0  0  0  0  0
   16.0767  -13.0763  -15.9819 C   0  0  2  0  0  0  0  0  0  0  0  0
   15.5899  -14.0133  -16.9744 N   0  0  0  0  0  0  0  0  0  0  0  0
   16.9508  -12.1050  -16.6862 C   0  0  0  0  0  0  0  0  0  0  0  0
   17.6480  -12.5107  -17.6710 O   0  0  0  0  0  0  0  0  0  0  0  0
   16.2668   -8.0567  -16.8997 C   0  0  0  0  0  0  0  0  0  0  0  0
   17.2083   -8.8111  -17.8257 C   0  0  2  0  0  0  0  0  0  0  0  0
   16.3589   -9.3911  -18.9174 C   0  0  0  0  0  0  0  0  0  0  0  0
   18.0023   -9.8430  -17.0450 C   0  0  2  0  0  0  0  0  0  0  0  0
   17.0766  -10.7409  -16.3488 N   0  0  0  0  0  0  0  0  0  0  0  0
   18.8709   -9.2580  -16.0081 C   0  0  0  0  0  0  0  0  0  0  0  0
   18.3831   -8.9941  -14.8540 O   0  0  0  0  0  0  0  0  0  0  0  0
   22.4596  -10.7830  -13.6211 C   0  0  0  0  0  0  0  0  0  0  0  0
   22.8309  -10.1913  -14.9330 C   0  0  2  0  0  0  0  0  0  0  0  0
   24.3163  -10.4516  -15.2096 C   0  0  0  0  0  0  0  0  0  0  0  0
   22.4540   -8.7828  -15.1739 C   0  0  0  0  0  0  0  0  0  0  0  0
   21.0308   -8.4048  -15.0353 C   0  0  2  0  0  0  0  0  0  0  0  0
   20.2470   -8.9441  -16.1543 N   0  0  0  0  0  0  0  0  0  0  0  0
   20.9692   -6.9005  -15.1398 C   0  0  0  0  0  0  0  0  0  0  0  0
   20.7411   -6.3237  -16.2250 O   0  0  0  0  0  0  0  0  0  0  0  0
   21.1658   -6.1001  -14.0232 O   0  0  0  0  0  0  0  0  0  0  0  0
  2  1  1  0
  3  2  1  0
  3  4  1  6
  5  3  1  0
  5  6  2  0
  8  7  1  1
  8 10  1  0
  9  8  1  0
 10 11  1  1
 10 12  1  0
 11  5  1  0
 12 19  1  0
 13 12  2  0
 15 14  1  1
 16 15  1  0
 17 15  1  0
 18 17  1  6
 19 18  1  0
 20 22  1  0
 20 18  1  0
 21 20  2  0
M  END
$$$$
