LGR.pdb
     RDKit          3D

 24 23  0  0  1  0  0  0  0  0999 V2000
   28.0855  -19.6192  -12.9510 C   0  0  0  0  0  0  0  0  0  0  0  0
   27.5124  -20.5711  -13.9440 C   0  0  2  0  0  0  0  0  0  0  0  0
   28.2097  -20.3450  -15.2921 C   0  0  0  0  0  0  0  0  0  0  0  0
   26.0526  -20.4684  -14.1910 C   0  0  0  0  0  0  0  0  0  0  0  0
   25.1645  -20.6310  -12.9989 C   0  0  2  0  0  0  0  0  0  0  0  0
   25.2224  -21.8899  -12.3409 N   0  0  0  0  0  0  0  0  0  0  0  0
   23.7495  -20.2914  -13.2935 C   0  0  0  0  0  0  0  0  0  0  0  0
   23.4700  -19.3296  -14.0780 O   0  0  0  0  0  0  0  0  0  0  0  0
   22.6696  -21.0056  -12.7269 N   0  0  0  0  0  0  0  0  0  0  0  0
   21.9170  -22.0063  -13.4431 C   0  0  0  0  0  0  0  0  0  0  0  0
   20.8511  -22.6475  -12.6686 C   0  0  0  0  0  0  0  0  0  0  0  0
   20.0647  -23.4708  -13.2541 O   0  0  0  0  0  0  0  0  0  0  0  0
   17.0833  -25.0480   -5.7777 N   0  0  0  0  0  0  0  0  0  0  0  0
   17.8194  -26.0492   -6.4905 C   0  0  0  0  0  0  0  0  0  0  0  0
   17.4621  -27.2806   -6.4187 N   0  0  0  0  0  0  0  0  0  0  0  0
   18.9411  -25.6456   -7.2685 N   0  0  0  0  0  0  0  0  0  0  0  0
   19.2996  -24.2430   -7.3203 C   0  0  0  0  0  0  0  0  0  0  0  0
   18.5025  -23.5772   -8.4415 C   0  0  0  0  0  0  0  0  0  0  0  0
   19.3498  -22.5912   -9.1931 C   0  0  0  0  0  0  0  0  0  0  0  0
   19.3270  -22.8558  -10.6482 C   0  0  2  0  0  0  0  0  0  0  0  0
   20.5767  -22.4606  -11.2950 N   0  0  0  0  0  0  0  0  0  0  0  0
   18.2333  -22.1348  -11.3133 C   0  0  0  0  0  0  0  0  0  0  0  0
   18.2719  -20.8384  -11.7912 O   0  0  0  0  0  0  0  0  0  0  0  0
   17.1099  -22.7290  -11.4872 O   0  0  0  0  0  0  0  0  0  0  0  0
  2  1  1  1
  2  4  1  0
  3  2  1  0
  4  5  1  0
  5  6  1  6
  7  5  1  0
  7  9  1  0
  8  7  2  0
  9 10  1  0
 11 12  2  0
 11 10  1  0
 13 14  1  0
 14 15  2  0
 16 14  1  0
 16 17  1  0
 17 18  1  0
 19 18  1  0
 20 19  1  1
 20 22  1  0
 20 21  1  0
 21 11  1  0
 22 23  1  0
 24 22  2  0
M  END
$$$$
