LGR.pdb
     RDKit          3D

 24 23  0  0  1  0  0  0  0  0999 V2000
   31.8978  -22.0176   -8.7856 C   0  0  0  0  0  0  0  0  0  0  0  0
   31.3027  -22.1162  -10.1482 C   0  0  2  0  0  0  0  0  0  0  0  0
   32.3894  -21.7803  -11.1783 C   0  0  0  0  0  0  0  0  0  0  0  0
   30.1498  -21.2256  -10.4314 C   0  0  0  0  0  0  0  0  0  0  0  0
   28.9790  -21.3413   -9.5085 C   0  0  2  0  0  0  0  0  0  0  0  0
   28.6097  -22.6598   -9.1263 N   0  0  0  0  0  0  0  0  0  0  0  0
   27.7837  -20.6195  -10.0130 C   0  0  0  0  0  0  0  0  0  0  0  0
   27.9182  -19.5667  -10.7147 O   0  0  0  0  0  0  0  0  0  0  0  0
   26.4681  -21.0588   -9.7420 N   0  0  0  0  0  0  0  0  0  0  0  0
   25.2928  -20.4373  -10.3016 C   0  0  0  0  0  0  0  0  0  0  0  0
   24.6513  -21.1920  -11.3814 C   0  0  0  0  0  0  0  0  0  0  0  0
   25.2556  -22.2061  -11.8769 O   0  0  0  0  0  0  0  0  0  0  0  0
   17.6890  -18.4019  -15.4849 N   0  0  0  0  0  0  0  0  0  0  0  0
   18.9493  -18.0024  -16.0365 C   0  0  0  0  0  0  0  0  0  0  0  0
   18.9981  -17.0610  -16.9085 N   0  0  0  0  0  0  0  0  0  0  0  0
   20.1276  -18.6691  -15.5968 N   0  0  0  0  0  0  0  0  0  0  0  0
   20.0157  -19.7415  -14.6293 C   0  0  0  0  0  0  0  0  0  0  0  0
   21.4221  -20.1912  -14.2352 C   0  0  0  0  0  0  0  0  0  0  0  0
   21.3697  -21.3340  -13.2624 C   0  0  0  0  0  0  0  0  0  0  0  0
   22.7257  -21.8129  -12.9159 C   0  0  2  0  0  0  0  0  0  0  0  0
   23.3919  -20.9256  -11.9645 N   0  0  0  0  0  0  0  0  0  0  0  0
   23.5836  -21.9179  -14.1039 C   0  0  0  0  0  0  0  0  0  0  0  0
   23.6259  -22.9702  -14.9991 O   0  0  0  0  0  0  0  0  0  0  0  0
   24.3928  -20.9604  -14.3752 O   0  0  0  0  0  0  0  0  0  0  0  0
  2  1  1  1
  2  4  1  0
  3  2  1  0
  4  5  1  0
  5  6  1  6
  7  5  1  0
  7  9  1  0
  8  7  2  0
  9 10  1  0
 11 12  2  0
 11 10  1  0
 13 14  1  0
 14 15  2  0
 16 14  1  0
 16 17  1  0
 17 18  1  0
 19 18  1  0
 20 19  1  6
 20 22  1  0
 20 21  1  0
 21 11  1  0
 22 23  1  0
 24 22  2  0
M  END
$$$$
