LGR.pdb
     RDKit          3D

 24 23  0  0  1  0  0  0  0  0999 V2000
    9.5383  -15.2519    3.6830 C   0  0  0  0  0  0  0  0  0  0  0  0
   10.8800  -14.9978    3.0863 C   0  0  2  0  0  0  0  0  0  0  0  0
   10.8750  -13.5977    2.4584 C   0  0  0  0  0  0  0  0  0  0  0  0
   11.3230  -15.9424    2.0309 C   0  0  0  0  0  0  0  0  0  0  0  0
   11.3685  -17.3881    2.4102 C   0  0  2  0  0  0  0  0  0  0  0  0
   12.4894  -17.7989    3.1820 N   0  0  0  0  0  0  0  0  0  0  0  0
   11.2176  -18.2882    1.2391 C   0  0  0  0  0  0  0  0  0  0  0  0
   10.3231  -18.0587    0.3640 O   0  0  0  0  0  0  0  0  0  0  0  0
   12.0431  -19.4191    1.0468 N   0  0  0  0  0  0  0  0  0  0  0  0
   11.9814  -20.2563   -0.1263 C   0  0  0  0  0  0  0  0  0  0  0  0
   12.9986  -21.3094   -0.1862 C   0  0  0  0  0  0  0  0  0  0  0  0
   13.7740  -21.4842    0.8174 O   0  0  0  0  0  0  0  0  0  0  0  0
   17.0433  -26.7577   -5.8108 N   0  0  0  0  0  0  0  0  0  0  0  0
   16.9881  -27.5218   -4.6003 C   0  0  0  0  0  0  0  0  0  0  0  0
   17.5084  -28.6951   -4.5583 N   0  0  0  0  0  0  0  0  0  0  0  0
   16.3496  -26.9515   -3.4630 N   0  0  0  0  0  0  0  0  0  0  0  0
   15.4959  -25.7939   -3.6359 C   0  0  0  0  0  0  0  0  0  0  0  0
   14.9057  -25.4163   -2.2778 C   0  0  0  0  0  0  0  0  0  0  0  0
   14.0259  -24.2045   -2.3907 C   0  0  0  0  0  0  0  0  0  0  0  0
   14.1459  -23.3353   -1.1999 C   0  0  2  0  0  0  0  0  0  0  0  0
   13.2350  -22.1939   -1.2626 N   0  0  0  0  0  0  0  0  0  0  0  0
   15.5094  -22.8098   -1.0474 C   0  0  0  0  0  0  0  0  0  0  0  0
   16.4899  -23.2958   -0.2031 O   0  0  0  0  0  0  0  0  0  0  0  0
   15.8690  -21.7966   -1.7470 O   0  0  0  0  0  0  0  0  0  0  0  0
  2  1  1  6
  2  4  1  0
  3  2  1  0
  4  5  1  0
  5  6  1  6
  7  5  1  0
  7  9  1  0
  8  7  2  0
  9 10  1  0
 11 12  2  0
 11 10  1  0
 13 14  1  0
 14 15  2  0
 16 14  1  0
 16 17  1  0
 17 18  1  0
 19 18  1  0
 20 19  1  6
 20 22  1  0
 20 21  1  0
 21 11  1  0
 22 23  1  0
 24 22  2  0
M  END
$$$$
