LGR.pdb
     RDKit          3D

 24 23  0  0  1  0  0  0  0  0999 V2000
   16.3440  -25.6186   -7.3986 C   0  0  0  0  0  0  0  0  0  0  0  0
   16.2890  -24.1372   -7.5501 C   0  0  2  0  0  0  0  0  0  0  0  0
   14.9427  -23.7636   -8.1847 C   0  0  0  0  0  0  0  0  0  0  0  0
   17.3469  -23.5191   -8.3875 C   0  0  0  0  0  0  0  0  0  0  0  0
   18.7598  -23.7940   -7.9821 C   0  0  2  0  0  0  0  0  0  0  0  0
   19.1028  -23.4657   -6.6421 N   0  0  0  0  0  0  0  0  0  0  0  0
   19.7462  -23.1838   -8.9088 C   0  0  0  0  0  0  0  0  0  0  0  0
   19.7923  -23.5469  -10.1274 O   0  0  0  0  0  0  0  0  0  0  0  0
   20.6617  -22.1924   -8.4888 N   0  0  0  0  0  0  0  0  0  0  0  0
   21.6873  -21.6462   -9.3435 C   0  0  0  0  0  0  0  0  0  0  0  0
   21.1909  -20.8992  -10.5022 C   0  0  0  0  0  0  0  0  0  0  0  0
   19.9560  -20.5641  -10.5448 O   0  0  0  0  0  0  0  0  0  0  0  0
   26.1181  -19.0547  -15.8302 N   0  0  0  0  0  0  0  0  0  0  0  0
   26.0014  -20.4538  -15.5449 C   0  0  0  0  0  0  0  0  0  0  0  0
   27.0523  -21.1457  -15.2885 N   0  0  0  0  0  0  0  0  0  0  0  0
   24.7067  -21.0454  -15.5540 N   0  0  0  0  0  0  0  0  0  0  0  0
   23.5470  -20.2086  -15.7848 C   0  0  0  0  0  0  0  0  0  0  0  0
   22.5199  -20.4854  -14.6875 C   0  0  0  0  0  0  0  0  0  0  0  0
   22.4463  -19.3414  -13.7173 C   0  0  0  0  0  0  0  0  0  0  0  0
   21.4384  -19.5891  -12.6634 C   0  0  2  0  0  0  0  0  0  0  0  0
   21.9433  -20.4844  -11.6243 N   0  0  0  0  0  0  0  0  0  0  0  0
   20.2152  -20.1891  -13.2133 C   0  0  0  0  0  0  0  0  0  0  0  0
   19.8839  -21.5310  -13.2131 O   0  0  0  0  0  0  0  0  0  0  0  0
   19.3392  -19.4285  -13.7605 O   0  0  0  0  0  0  0  0  0  0  0  0
  2  1  1  6
  2  4  1  0
  3  2  1  0
  4  5  1  0
  5  6  1  1
  7  5  1  0
  7  9  1  0
  8  7  2  0
  9 10  1  0
 11 12  2  0
 11 10  1  0
 13 14  1  0
 14 15  2  0
 16 14  1  0
 16 17  1  0
 17 18  1  0
 19 18  1  0
 20 19  1  6
 20 22  1  0
 20 21  1  0
 21 11  1  0
 22 23  1  0
 24 22  2  0
M  END
$$$$
