LGR.pdb
     RDKit          3D

 24 23  0  0  1  0  0  0  0  0999 V2000
   32.5182  -22.2910   -9.7079 C   0  0  0  0  0  0  0  0  0  0  0  0
   31.0847  -21.9009   -9.5923 C   0  0  2  0  0  0  0  0  0  0  0  0
   30.3995  -22.8558   -8.6057 C   0  0  0  0  0  0  0  0  0  0  0  0
   30.2890  -21.9308  -10.8446 C   0  0  0  0  0  0  0  0  0  0  0  0
   30.6544  -20.9235  -11.8877 C   0  0  2  0  0  0  0  0  0  0  0  0
   30.9835  -19.6234  -11.4158 N   0  0  0  0  0  0  0  0  0  0  0  0
   29.6313  -20.8167  -12.9582 C   0  0  0  0  0  0  0  0  0  0  0  0
   29.2512  -21.8544  -13.5888 O   0  0  0  0  0  0  0  0  0  0  0  0
   29.0449  -19.5827  -13.3198 N   0  0  0  0  0  0  0  0  0  0  0  0
   28.0392  -19.4523  -14.3457 C   0  0  0  0  0  0  0  0  0  0  0  0
   26.7351  -20.0286  -14.0072 C   0  0  0  0  0  0  0  0  0  0  0  0
   26.5465  -20.4936  -12.8294 O   0  0  0  0  0  0  0  0  0  0  0  0
   19.4017  -20.8521  -11.9479 N   0  0  0  0  0  0  0  0  0  0  0  0
   19.6780  -22.0678  -12.6537 C   0  0  0  0  0  0  0  0  0  0  0  0
   18.7120  -22.8308  -13.0193 N   0  0  0  0  0  0  0  0  0  0  0  0
   21.0336  -22.4001  -12.9335 N   0  0  0  0  0  0  0  0  0  0  0  0
   22.0847  -21.4899  -12.5271 C   0  0  0  0  0  0  0  0  0  0  0  0
   22.1108  -20.3105  -13.4986 C   0  0  0  0  0  0  0  0  0  0  0  0
   23.5084  -19.7914  -13.6787 C   0  0  0  0  0  0  0  0  0  0  0  0
   24.3380  -20.7309  -14.4641 C   0  0  2  0  0  0  0  0  0  0  0  0
   25.6128  -20.1349  -14.8593 N   0  0  0  0  0  0  0  0  0  0  0  0
   23.6518  -21.1679  -15.6875 C   0  0  0  0  0  0  0  0  0  0  0  0
   23.2440  -22.4538  -15.9887 O   0  0  0  0  0  0  0  0  0  0  0  0
   23.3863  -20.3026  -16.5963 O   0  0  0  0  0  0  0  0  0  0  0  0
  2  1  1  6
  2  4  1  0
  3  2  1  0
  4  5  1  0
  5  6  1  1
  7  5  1  0
  7  9  1  0
  8  7  2  0
  9 10  1  0
 11 12  2  0
 11 10  1  0
 13 14  1  0
 14 15  2  0
 16 14  1  0
 16 17  1  0
 17 18  1  0
 19 18  1  0
 20 19  1  6
 20 22  1  0
 20 21  1  0
 21 11  1  0
 22 23  1  0
 24 22  2  0
M  END
$$$$
