LGR.pdb
     RDKit          3D

 24 23  0  0  1  0  0  0  0  0999 V2000
   21.0918  -19.5846  -19.2512 C   0  0  0  0  0  0  0  0  0  0  0  0
   20.9883  -20.7012  -18.2698 C   0  0  2  0  0  0  0  0  0  0  0  0
   20.1815  -21.8382  -18.9109 C   0  0  0  0  0  0  0  0  0  0  0  0
   20.3343  -20.3846  -16.9757 C   0  0  0  0  0  0  0  0  0  0  0  0
   21.1024  -19.5058  -16.0410 C   0  0  2  0  0  0  0  0  0  0  0  0
   22.5065  -19.4401  -16.2534 N   0  0  0  0  0  0  0  0  0  0  0  0
   20.8319  -19.8185  -14.6151 C   0  0  0  0  0  0  0  0  0  0  0  0
   19.6401  -19.8058  -14.1699 O   0  0  0  0  0  0  0  0  0  0  0  0
   21.8647  -20.1371  -13.7045 N   0  0  0  0  0  0  0  0  0  0  0  0
   21.6352  -20.4026  -12.3054 C   0  0  0  0  0  0  0  0  0  0  0  0
   21.0363  -21.7083  -12.0159 C   0  0  0  0  0  0  0  0  0  0  0  0
   21.5576  -22.7598  -12.5273 O   0  0  0  0  0  0  0  0  0  0  0  0
   17.3061  -25.2780   -4.8761 N   0  0  0  0  0  0  0  0  0  0  0  0
   17.6154  -26.3827   -5.7342 C   0  0  0  0  0  0  0  0  0  0  0  0
   17.4525  -27.5855   -5.3149 N   0  0  0  0  0  0  0  0  0  0  0  0
   18.1013  -26.1124   -7.0445 N   0  0  0  0  0  0  0  0  0  0  0  0
   18.3941  -24.7452   -7.4237 C   0  0  0  0  0  0  0  0  0  0  0  0
   18.8100  -24.7256   -8.8942 C   0  0  0  0  0  0  0  0  0  0  0  0
   19.1542  -23.3329   -9.3383 C   0  0  0  0  0  0  0  0  0  0  0  0
   19.4799  -23.2893  -10.7805 C   0  0  2  0  0  0  0  0  0  0  0  0
   19.9066  -21.9571  -11.2041 N   0  0  0  0  0  0  0  0  0  0  0  0
   18.3284  -23.6730  -11.6083 C   0  0  0  0  0  0  0  0  0  0  0  0
   18.0795  -24.9222  -12.1450 O   0  0  0  0  0  0  0  0  0  0  0  0
   17.4405  -22.7908  -11.8886 O   0  0  0  0  0  0  0  0  0  0  0  0
  2  1  1  6
  2  4  1  0
  3  2  1  0
  4  5  1  0
  5  6  1  6
  7  5  1  0
  7  9  1  0
  8  7  2  0
  9 10  1  0
 11 12  2  0
 11 10  1  0
 13 14  1  0
 14 15  2  0
 16 14  1  0
 16 17  1  0
 17 18  1  0
 19 18  1  0
 20 19  1  1
 20 22  1  0
 20 21  1  0
 21 11  1  0
 22 23  1  0
 24 22  2  0
M  END
$$$$
