LGR.pdb
     RDKit          3D

 24 23  0  0  1  0  0  0  0  0999 V2000
   15.8292  -23.0900    4.6323 C   0  0  0  0  0  0  0  0  0  0  0  0
   16.4877  -22.2116    3.6246 C   0  0  2  0  0  0  0  0  0  0  0  0
   17.3124  -21.1526    4.3684 C   0  0  0  0  0  0  0  0  0  0  0  0
   15.5887  -21.4836    2.6950 C   0  0  0  0  0  0  0  0  0  0  0  0
   14.6458  -22.3208    1.8911 C   0  0  2  0  0  0  0  0  0  0  0  0
   15.2406  -23.2357    0.9800 N   0  0  0  0  0  0  0  0  0  0  0  0
   13.6271  -21.5071    1.1809 C   0  0  0  0  0  0  0  0  0  0  0  0
   13.0233  -20.5642    1.7851 O   0  0  0  0  0  0  0  0  0  0  0  0
   13.2871  -21.7383   -0.1713 N   0  0  0  0  0  0  0  0  0  0  0  0
   12.3697  -20.9074   -0.9121 C   0  0  0  0  0  0  0  0  0  0  0  0
   12.2777  -21.2139   -2.3421 C   0  0  0  0  0  0  0  0  0  0  0  0
   12.8731  -22.2523   -2.7961 O   0  0  0  0  0  0  0  0  0  0  0  0
    8.0473  -17.9482   -9.5851 N   0  0  0  0  0  0  0  0  0  0  0  0
    8.5928  -19.2148   -9.9730 C   0  0  0  0  0  0  0  0  0  0  0  0
    8.3210  -19.7030  -11.1292 N   0  0  0  0  0  0  0  0  0  0  0  0
    9.4316  -19.9058   -9.0536 N   0  0  0  0  0  0  0  0  0  0  0  0
    9.4973  -19.4558   -7.6783 C   0  0  0  0  0  0  0  0  0  0  0  0
   10.3315  -20.4552   -6.8777 C   0  0  0  0  0  0  0  0  0  0  0  0
   10.5484  -19.9725   -5.4723 C   0  0  0  0  0  0  0  0  0  0  0  0
   11.4109  -20.8998   -4.7082 C   0  0  2  0  0  0  0  0  0  0  0  0
   11.5795  -20.4713   -3.3210 N   0  0  0  0  0  0  0  0  0  0  0  0
   12.7484  -21.0131   -5.3056 C   0  0  0  0  0  0  0  0  0  0  0  0
   13.1493  -21.9287   -6.2603 O   0  0  0  0  0  0  0  0  0  0  0  0
   13.6691  -20.2023   -4.9313 O   0  0  0  0  0  0  0  0  0  0  0  0
  2  1  1  1
  2  4  1  0
  3  2  1  0
  4  5  1  0
  5  6  1  6
  7  5  1  0
  7  9  1  0
  8  7  2  0
  9 10  1  0
 11 12  2  0
 11 10  1  0
 13 14  1  0
 14 15  2  0
 16 14  1  0
 16 17  1  0
 17 18  1  0
 19 18  1  0
 20 19  1  6
 20 22  1  0
 20 21  1  0
 21 11  1  0
 22 23  1  0
 24 22  2  0
M  END
$$$$
