LGR.pdb
     RDKit          3D

 24 23  0  0  1  0  0  0  0  0999 V2000
   16.1303  -18.2305  -17.8905 C   0  0  0  0  0  0  0  0  0  0  0  0
   17.1789  -19.2886  -17.9300 C   0  0  2  0  0  0  0  0  0  0  0  0
   16.5712  -20.5945  -17.4005 C   0  0  0  0  0  0  0  0  0  0  0  0
   18.4067  -19.0316  -17.1370 C   0  0  0  0  0  0  0  0  0  0  0  0
   19.1825  -17.8040  -17.4935 C   0  0  2  0  0  0  0  0  0  0  0  0
   19.6250  -17.7112  -18.8413 N   0  0  0  0  0  0  0  0  0  0  0  0
   20.3288  -17.5703  -16.5793 C   0  0  0  0  0  0  0  0  0  0  0  0
   20.1344  -17.4231  -15.3306 O   0  0  0  0  0  0  0  0  0  0  0  0
   21.6615  -17.5008  -17.0445 N   0  0  0  0  0  0  0  0  0  0  0  0
   22.7937  -17.2797  -16.1785 C   0  0  0  0  0  0  0  0  0  0  0  0
   23.2035  -18.4449  -15.3901 C   0  0  0  0  0  0  0  0  0  0  0  0
   24.3019  -18.3981  -14.7340 O   0  0  0  0  0  0  0  0  0  0  0  0
   26.5976  -21.3094  -10.6815 N   0  0  0  0  0  0  0  0  0  0  0  0
   25.5124  -20.9425   -9.8214 C   0  0  0  0  0  0  0  0  0  0  0  0
   25.6912  -20.8884   -8.5509 N   0  0  0  0  0  0  0  0  0  0  0  0
   24.2496  -20.6444  -10.4070 N   0  0  0  0  0  0  0  0  0  0  0  0
   23.9384  -21.1642  -11.7228 C   0  0  0  0  0  0  0  0  0  0  0  0
   22.5633  -20.6439  -12.1398 C   0  0  0  0  0  0  0  0  0  0  0  0
   22.1311  -21.2488  -13.4446 C   0  0  0  0  0  0  0  0  0  0  0  0
   23.0183  -20.8353  -14.5535 C   0  0  2  0  0  0  0  0  0  0  0  0
   22.5014  -19.6644  -15.2591 N   0  0  0  0  0  0  0  0  0  0  0  0
   23.1904  -21.9104  -15.5399 C   0  0  0  0  0  0  0  0  0  0  0  0
   22.7260  -21.9160  -16.8418 O   0  0  0  0  0  0  0  0  0  0  0  0
   23.8276  -22.9710  -15.2015 O   0  0  0  0  0  0  0  0  0  0  0  0
  2  1  1  1
  2  4  1  0
  3  2  1  0
  4  5  1  0
  5  6  1  6
  7  5  1  0
  7  9  1  0
  8  7  2  0
  9 10  1  0
 11 12  2  0
 11 10  1  0
 13 14  1  0
 14 15  2  0
 16 14  1  0
 16 17  1  0
 17 18  1  0
 19 18  1  0
 20 19  1  1
 20 22  1  0
 20 21  1  0
 21 11  1  0
 22 23  1  0
 24 22  2  0
M  END
$$$$
