PDQ.pdb
     RDKit          3D

 25 25  0  0  1  0  0  0  0  0999 V2000
    9.4823  -14.2248   18.6570 N   0  0  0  0  0  0  0  0  0  0  0  0
    8.5640  -13.9379   17.5775 C   0  0  0  0  0  0  0  0  0  0  0  0
    7.2087  -13.8159   18.2886 C   0  0  0  0  0  0  0  0  0  0  0  0
    7.6128  -12.9976   19.4938 C   0  0  0  0  0  0  0  0  0  0  0  0
    8.9586  -13.6321   19.8428 C   0  0  1  0  0  0  0  0  0  0  0  0
    8.6639  -14.6209   20.9281 C   0  0  0  0  0  0  0  0  0  0  0  0
    7.6550  -14.4567   21.6573 O   0  0  0  0  0  0  0  0  0  0  0  0
    9.5351  -15.7100   21.0959 N   0  0  0  0  0  0  0  0  0  0  0  0
    9.3550  -16.6934   22.1673 C   0  0  1  0  0  0  0  0  0  0  0  0
   10.1827  -17.8975   21.8863 C   0  0  0  0  0  0  0  0  0  0  0  0
    9.8039  -18.6807   20.6987 C   0  0  0  0  0  0  0  0  0  0  0  0
   10.7099  -19.1549   19.9393 O   0  0  0  0  0  0  0  0  0  0  0  0
    9.6205  -16.0135   23.4412 C   0  0  0  0  0  0  0  0  0  0  0  0
   10.7111  -15.3772   23.5792 O   0  0  0  0  0  0  0  0  0  0  0  0
    8.4937  -18.9484   20.3365 O   0  0  0  0  0  0  0  0  0  0  0  0
    6.3348  -11.2043   25.7399 N   0  0  0  0  0  0  0  0  0  0  0  0
    6.5374  -12.5586   26.0871 C   0  0  0  0  0  0  0  0  0  0  0  0
    5.7331  -13.0943   26.8901 O   0  0  0  0  0  0  0  0  0  0  0  0
    7.6837  -13.3453   25.5143 C   0  0  0  0  0  0  0  0  0  0  0  0
    7.8985  -14.6130   26.3006 C   0  0  0  0  0  0  0  0  0  0  0  0
    9.0958  -15.3936   25.8164 C   0  0  2  0  0  0  0  0  0  0  0  0
    8.7325  -16.0182   24.5351 N   0  0  0  0  0  0  0  0  0  0  0  0
    9.5515  -16.3903   26.8069 C   0  0  0  0  0  0  0  0  0  0  0  0
    9.4189  -17.6220   26.6135 O   0  0  0  0  0  0  0  0  0  0  0  0
   10.1447  -15.9778   27.9899 O   0  0  0  0  0  0  0  0  0  0  0  0
  1  5  1  0
  2  1  1  0
  3  4  1  0
  3  2  1  0
  4  5  1  0
  6  7  2  0
  5  6  1  1
  8  6  1  0
  9  8  1  0
  9 13  1  0
  9 10  1  6
 11 10  1  0
 11 15  1  0
 12 11  2  0
 13 14  2  0
 13 22  1  0
 16 17  1  0
 17 19  1  0
 18 17  2  0
 19 20  1  0
 21 20  1  1
 21 23  1  0
 22 21  1  0
 23 24  2  0
 23 25  1  0
M  END
$$$$
