PDQ.pdb
     RDKit          3D

 25 25  0  0  1  0  0  0  0  0999 V2000
    9.5459  -14.3129   18.5913 N   0  0  0  0  0  0  0  0  0  0  0  0
    8.6230  -14.0487   17.5099 C   0  0  0  0  0  0  0  0  0  0  0  0
    7.2629  -13.9651   18.2176 C   0  0  0  0  0  0  0  0  0  0  0  0
    7.6415  -13.1387   19.4256 C   0  0  0  0  0  0  0  0  0  0  0  0
    9.0030  -13.7372   19.7769 C   0  0  1  0  0  0  0  0  0  0  0  0
    8.7324  -14.7359   20.8594 C   0  0  0  0  0  0  0  0  0  0  0  0
    7.7267  -14.5914   21.5970 O   0  0  0  0  0  0  0  0  0  0  0  0
    9.6221  -15.8118   21.0150 N   0  0  0  0  0  0  0  0  0  0  0  0
    9.5182  -16.7526   22.1337 C   0  0  1  0  0  0  0  0  0  0  0  0
   10.4705  -17.8778   21.9320 C   0  0  0  0  0  0  0  0  0  0  0  0
   10.2281  -18.7279   20.7548 C   0  0  0  0  0  0  0  0  0  0  0  0
    9.0561  -19.1715   20.5263 O   0  0  0  0  0  0  0  0  0  0  0  0
    9.6833  -15.9849   23.3743 C   0  0  0  0  0  0  0  0  0  0  0  0
   10.6503  -15.1661   23.4627 O   0  0  0  0  0  0  0  0  0  0  0  0
   11.2118  -19.0909   19.8493 O   0  0  0  0  0  0  0  0  0  0  0  0
    5.4514  -12.7208   25.8405 N   0  0  0  0  0  0  0  0  0  0  0  0
    6.4884  -12.4736   26.7675 C   0  0  0  0  0  0  0  0  0  0  0  0
    6.3536  -11.5171   27.5711 O   0  0  0  0  0  0  0  0  0  0  0  0
    7.7247  -13.3290   26.7979 C   0  0  0  0  0  0  0  0  0  0  0  0
    7.7011  -14.3305   25.6719 C   0  0  0  0  0  0  0  0  0  0  0  0
    8.9450  -15.1842   25.6360 C   0  0  2  0  0  0  0  0  0  0  0  0
    8.8271  -16.0961   24.4878 N   0  0  0  0  0  0  0  0  0  0  0  0
    9.1586  -15.9150   26.9018 C   0  0  0  0  0  0  0  0  0  0  0  0
    8.8909  -17.1349   27.0134 O   0  0  0  0  0  0  0  0  0  0  0  0
    9.6675  -15.2567   28.0104 O   0  0  0  0  0  0  0  0  0  0  0  0
  1  5  1  0
  2  1  1  0
  3  4  1  0
  3  2  1  0
  4  5  1  0
  6  7  2  0
  5  6  1  1
  8  6  1  0
  9  8  1  0
  9 13  1  0
  9 10  1  6
 11 10  1  0
 11 15  1  0
 12 11  2  0
 13 14  2  0
 13 22  1  0
 16 17  1  0
 17 19  1  0
 18 17  2  0
 19 20  1  0
 21 20  1  1
 21 23  1  0
 22 21  1  0
 23 24  2  0
 23 25  1  0
M  END
$$$$
