PDQ.pdb
     RDKit          3D

 25 25  0  0  1  0  0  0  0  0999 V2000
    9.3172  -13.7319   19.0693 N   0  0  0  0  0  0  0  0  0  0  0  0
    8.6151  -13.8161   17.8080 C   0  0  0  0  0  0  0  0  0  0  0  0
    7.2896  -14.4931   18.1851 C   0  0  0  0  0  0  0  0  0  0  0  0
    6.9612  -13.7455   19.4574 C   0  0  0  0  0  0  0  0  0  0  0  0
    8.3417  -13.6460   20.1052 C   0  0  1  0  0  0  0  0  0  0  0  0
    8.4052  -14.7770   21.0846 C   0  0  0  0  0  0  0  0  0  0  0  0
    7.3804  -15.0850   21.7411 O   0  0  0  0  0  0  0  0  0  0  0  0
    9.6219  -15.4622   21.2376 N   0  0  0  0  0  0  0  0  0  0  0  0
    9.7887  -16.5453   22.2105 C   0  0  1  0  0  0  0  0  0  0  0  0
   11.0692  -17.2576   21.9524 C   0  0  0  0  0  0  0  0  0  0  0  0
   11.0669  -18.2060   20.8264 C   0  0  0  0  0  0  0  0  0  0  0  0
   12.1648  -18.7102   20.4228 O   0  0  0  0  0  0  0  0  0  0  0  0
    9.6346  -15.9644   23.5501 C   0  0  0  0  0  0  0  0  0  0  0  0
   10.3610  -14.9742   23.8746 O   0  0  0  0  0  0  0  0  0  0  0  0
    9.9224  -18.6026   20.1538 O   0  0  0  0  0  0  0  0  0  0  0  0
    6.9522  -12.4003   25.3522 N   0  0  0  0  0  0  0  0  0  0  0  0
    6.7590  -12.8787   26.6672 C   0  0  0  0  0  0  0  0  0  0  0  0
    6.5827  -12.0402   27.5862 O   0  0  0  0  0  0  0  0  0  0  0  0
    6.7627  -14.3522   26.9673 C   0  0  0  0  0  0  0  0  0  0  0  0
    7.0988  -15.1420   25.7285 C   0  0  0  0  0  0  0  0  0  0  0  0
    8.4947  -15.7135   25.7725 C   0  0  2  0  0  0  0  0  0  0  0  0
    8.7202  -16.4375   24.5120 N   0  0  0  0  0  0  0  0  0  0  0  0
    8.7085  -16.5776   26.9513 C   0  0  0  0  0  0  0  0  0  0  0  0
    8.6100  -17.8257   26.8819 O   0  0  0  0  0  0  0  0  0  0  0  0
    9.0272  -16.0176   28.1786 O   0  0  0  0  0  0  0  0  0  0  0  0
  1  5  1  0
  2  1  1  0
  3  4  1  0
  3  2  1  0
  4  5  1  0
  6  7  2  0
  5  6  1  1
  8  6  1  0
  9  8  1  0
  9 13  1  0
  9 10  1  1
 11 10  1  0
 11 15  1  0
 12 11  2  0
 13 14  2  0
 13 22  1  0
 16 17  1  0
 17 19  1  0
 18 17  2  0
 19 20  1  0
 21 20  1  6
 21 23  1  0
 22 21  1  0
 23 24  2  0
 23 25  1  0
M  END
$$$$
