PDQ.pdb
     RDKit          3D

 25 25  0  0  1  0  0  0  0  0999 V2000
    4.3157  -18.7250   22.3561 N   0  0  0  0  0  0  0  0  0  0  0  0
    3.0054  -18.3311   21.8881 C   0  0  0  0  0  0  0  0  0  0  0  0
    3.2082  -18.1524   20.3767 C   0  0  0  0  0  0  0  0  0  0  0  0
    4.0459  -19.3739   20.0740 C   0  0  0  0  0  0  0  0  0  0  0  0
    4.9730  -19.4035   21.2886 C   0  0  1  0  0  0  0  0  0  0  0  0
    6.2371  -18.7367   20.8418 C   0  0  0  0  0  0  0  0  0  0  0  0
    7.0623  -19.3780   20.1460 O   0  0  0  0  0  0  0  0  0  0  0  0
    6.4598  -17.4023   21.2204 N   0  0  0  0  0  0  0  0  0  0  0  0
    7.6884  -16.6868   20.8654 C   0  0  1  0  0  0  0  0  0  0  0  0
    7.4005  -15.7006   19.7892 C   0  0  0  0  0  0  0  0  0  0  0  0
    7.7370  -16.1210   18.4190 C   0  0  0  0  0  0  0  0  0  0  0  0
    6.8067  -16.3085   17.5693 O   0  0  0  0  0  0  0  0  0  0  0  0
    8.2553  -16.1396   22.1042 C   0  0  0  0  0  0  0  0  0  0  0  0
    7.4942  -15.5006   22.8952 O   0  0  0  0  0  0  0  0  0  0  0  0
    9.0313  -16.3329   17.9726 O   0  0  0  0  0  0  0  0  0  0  0  0
    9.9159  -19.3523   26.2327 N   0  0  0  0  0  0  0  0  0  0  0  0
    9.6637  -18.1491   26.9287 C   0  0  0  0  0  0  0  0  0  0  0  0
    9.4857  -18.2057   28.1712 O   0  0  0  0  0  0  0  0  0  0  0  0
    9.6082  -16.8305   26.2079 C   0  0  0  0  0  0  0  0  0  0  0  0
    9.3181  -17.0413   24.7441 C   0  0  0  0  0  0  0  0  0  0  0  0
   10.0409  -16.0491   23.8663 C   0  0  2  0  0  0  0  0  0  0  0  0
    9.6059  -16.2802   22.4802 N   0  0  0  0  0  0  0  0  0  0  0  0
   11.5084  -16.1427   24.0073 C   0  0  0  0  0  0  0  0  0  0  0  0
   12.1882  -16.9422   23.3211 O   0  0  0  0  0  0  0  0  0  0  0  0
   12.1750  -15.3357   24.9160 O   0  0  0  0  0  0  0  0  0  0  0  0
  1  5  1  0
  2  1  1  0
  3  4  1  0
  3  2  1  0
  4  5  1  0
  6  7  2  0
  5  6  1  6
  8  6  1  0
  9  8  1  0
  9 13  1  0
  9 10  1  6
 11 10  1  0
 11 15  1  0
 12 11  2  0
 13 14  2  0
 13 22  1  0
 16 17  1  0
 17 19  1  0
 18 17  2  0
 19 20  1  0
 21 20  1  1
 21 23  1  0
 22 21  1  0
 23 24  2  0
 23 25  1  0
M  END
$$$$
