PDQ.pdb
     RDKit          3D

 25 25  0  0  1  0  0  0  0  0999 V2000
    7.9176  -14.6315   18.4074 N   0  0  0  0  0  0  0  0  0  0  0  0
    7.2470  -13.3741   18.1623 C   0  0  0  0  0  0  0  0  0  0  0  0
    7.4111  -12.6206   19.4900 C   0  0  0  0  0  0  0  0  0  0  0  0
    8.8584  -12.9320   19.7960 C   0  0  0  0  0  0  0  0  0  0  0  0
    8.9400  -14.3982   19.3729 C   0  0  1  0  0  0  0  0  0  0  0  0
    8.7661  -15.1874   20.6336 C   0  0  0  0  0  0  0  0  0  0  0  0
    7.6259  -15.2845   21.1503 O   0  0  0  0  0  0  0  0  0  0  0  0
    9.8961  -15.7986   21.2018 N   0  0  0  0  0  0  0  0  0  0  0  0
    9.8010  -16.6782   22.3699 C   0  0  1  0  0  0  0  0  0  0  0  0
   10.8178  -17.7596   22.2668 C   0  0  0  0  0  0  0  0  0  0  0  0
   10.9311  -18.6547   23.4301 C   0  0  0  0  0  0  0  0  0  0  0  0
    9.8881  -19.2145   23.9004 O   0  0  0  0  0  0  0  0  0  0  0  0
    9.8803  -15.8330   23.5678 C   0  0  0  0  0  0  0  0  0  0  0  0
   10.7947  -14.9541   23.6368 O   0  0  0  0  0  0  0  0  0  0  0  0
   12.1262  -18.9420   24.0692 O   0  0  0  0  0  0  0  0  0  0  0  0
    5.4237  -12.7067   25.8931 N   0  0  0  0  0  0  0  0  0  0  0  0
    6.4765  -12.3181   26.7512 C   0  0  0  0  0  0  0  0  0  0  0  0
    6.3246  -11.2853   27.4505 O   0  0  0  0  0  0  0  0  0  0  0  0
    7.7490  -13.1151   26.8315 C   0  0  0  0  0  0  0  0  0  0  0  0
    7.7721  -14.1808   25.7661 C   0  0  0  0  0  0  0  0  0  0  0  0
    9.0533  -14.9781   25.7784 C   0  0  2  0  0  0  0  0  0  0  0  0
    8.9958  -15.9321   24.6601 N   0  0  0  0  0  0  0  0  0  0  0  0
    9.2777  -15.6562   27.0715 C   0  0  0  0  0  0  0  0  0  0  0  0
    9.1226  -16.8933   27.2041 O   0  0  0  0  0  0  0  0  0  0  0  0
    9.6705  -14.9269   28.1829 O   0  0  0  0  0  0  0  0  0  0  0  0
  1  5  1  0
  2  1  1  0
  3  4  1  0
  3  2  1  0
  4  5  1  0
  6  7  2  0
  5  6  1  1
  8  6  1  0
  9  8  1  0
  9 13  1  0
  9 10  1  1
 11 10  1  0
 11 15  1  0
 12 11  2  0
 13 14  2  0
 13 22  1  0
 16 17  1  0
 17 19  1  0
 18 17  2  0
 19 20  1  0
 21 20  1  1
 21 23  1  0
 22 21  1  0
 23 24  2  0
 23 25  1  0
M  END
$$$$
