PDQ.pdb
     RDKit          3D

 25 25  0  0  1  0  0  0  0  0999 V2000
    9.3323  -14.1614   18.8036 N   0  0  0  0  0  0  0  0  0  0  0  0
    8.2659  -13.8342   17.8835 C   0  0  0  0  0  0  0  0  0  0  0  0
    7.0385  -13.7020   18.7965 C   0  0  0  0  0  0  0  0  0  0  0  0
    7.6403  -12.9174   19.9400 C   0  0  0  0  0  0  0  0  0  0  0  0
    9.0095  -13.5844   20.0664 C   0  0  1  0  0  0  0  0  0  0  0  0
    8.8630  -14.5905   21.1659 C   0  0  0  0  0  0  0  0  0  0  0  0
    8.2584  -14.2721   22.2192 O   0  0  0  0  0  0  0  0  0  0  0  0
    9.4130  -15.8697   20.9802 N   0  0  0  0  0  0  0  0  0  0  0  0
    9.3083  -16.9178   21.9990 C   0  0  1  0  0  0  0  0  0  0  0  0
    9.5652  -18.2459   21.3795 C   0  0  0  0  0  0  0  0  0  0  0  0
    8.4752  -18.7995   20.5594 C   0  0  0  0  0  0  0  0  0  0  0  0
    7.2649  -18.6262   20.9169 O   0  0  0  0  0  0  0  0  0  0  0  0
   10.1924  -16.5445   23.1101 C   0  0  0  0  0  0  0  0  0  0  0  0
   11.3789  -16.1735   22.8496 O   0  0  0  0  0  0  0  0  0  0  0  0
    8.6760  -19.5163   19.3910 O   0  0  0  0  0  0  0  0  0  0  0  0
    9.6057  -13.1353   28.7376 N   0  0  0  0  0  0  0  0  0  0  0  0
    9.0679  -13.4608   27.4726 C   0  0  0  0  0  0  0  0  0  0  0  0
    8.4396  -12.5715   26.8456 O   0  0  0  0  0  0  0  0  0  0  0  0
    9.2390  -14.8343   26.8847 C   0  0  0  0  0  0  0  0  0  0  0  0
   10.4952  -14.9001   26.0547 C   0  0  0  0  0  0  0  0  0  0  0  0
   10.7714  -16.2913   25.5396 C   0  0  2  0  0  0  0  0  0  0  0  0
    9.8060  -16.5689   24.4649 N   0  0  0  0  0  0  0  0  0  0  0  0
   10.7117  -17.3065   26.6109 C   0  0  0  0  0  0  0  0  0  0  0  0
    9.7683  -18.1287   26.6900 O   0  0  0  0  0  0  0  0  0  0  0  0
   11.7137  -17.3723   27.5666 O   0  0  0  0  0  0  0  0  0  0  0  0
  1  5  1  0
  2  1  1  0
  3  4  1  0
  3  2  1  0
  4  5  1  0
  6  7  2  0
  5  6  1  1
  8  6  1  0
  9  8  1  0
  9 13  1  0
  9 10  1  6
 11 10  1  0
 11 15  1  0
 12 11  2  0
 13 14  2  0
 13 22  1  0
 16 17  1  0
 17 19  1  0
 18 17  2  0
 19 20  1  0
 21 20  1  1
 21 23  1  0
 22 21  1  0
 23 24  2  0
 23 25  1  0
M  END
$$$$
