EIS.pdb
     RDKit          3D

 24 23  0  0  1  0  0  0  0  0999 V2000
   21.6694  -11.5278  -20.1221 N   0  0  0  0  0  0  0  0  0  0  0  0
   22.1720  -10.1927  -19.8066 C   0  0  1  0  0  0  0  0  0  0  0  0
   21.5749   -9.2208  -20.7842 C   0  0  0  0  0  0  0  0  0  0  0  0
   22.1485   -9.5134  -22.1553 C   0  0  0  0  0  0  0  0  0  0  0  0
   21.6397   -8.5589  -23.1541 C   0  0  0  0  0  0  0  0  0  0  0  0
   21.6864   -8.7480  -24.4035 O   0  0  0  0  0  0  0  0  0  0  0  0
   21.9087   -9.8412  -18.3987 C   0  0  0  0  0  0  0  0  0  0  0  0
   20.8294  -10.1781  -17.8743 O   0  0  0  0  0  0  0  0  0  0  0  0
   21.0694   -7.3721  -22.7288 O   0  0  0  0  0  0  0  0  0  0  0  0
   24.9961  -11.4794  -14.9156 C   0  0  0  0  0  0  0  0  0  0  0  0
   23.7531  -10.9092  -15.5864 C   0  0  0  0  0  0  0  0  0  0  0  0
   23.7666   -9.4003  -15.4530 C   0  0  2  0  0  0  0  0  0  0  0  0
   23.5872   -9.0726  -13.9851 C   0  0  0  0  0  0  0  0  0  0  0  0
   22.6840   -8.7738  -16.2539 C   0  0  2  0  0  0  0  0  0  0  0  0
   22.8586   -9.1338  -17.6471 N   0  0  0  0  0  0  0  0  0  0  0  0
   22.5003   -7.3388  -16.0742 C   0  0  0  0  0  0  0  0  0  0  0  0
   23.4089   -6.5702  -16.4823 O   0  0  0  0  0  0  0  0  0  0  0  0
   19.3822   -3.8741  -14.5399 O   0  0  0  0  0  0  0  0  0  0  0  0
   19.7146   -5.1925  -14.7586 C   0  0  0  0  0  0  0  0  0  0  0  0
   21.1635   -5.3543  -15.2423 C   0  0  2  0  0  0  0  0  0  0  0  0
   21.3684   -6.7635  -15.4723 N   0  0  0  0  0  0  0  0  0  0  0  0
   22.0869   -4.7843  -14.2489 C   0  0  0  0  0  0  0  0  0  0  0  0
   22.6405   -3.5458  -14.4693 O   0  0  0  0  0  0  0  0  0  0  0  0
   22.3664   -5.4172  -13.2155 O   0  0  0  0  0  0  0  0  0  0  0  0
  2  1  1  6
  3  2  1  0
  4  3  1  0
  5  4  1  0
  6  5  2  0
  7  2  1  0
  7  8  2  0
  9  5  1  0
 10 11  1  0
 11 12  1  0
 12 13  1  1
 14 12  1  0
 14 15  1  6
 15  7  1  0
 16 14  1  0
 17 16  2  0
 19 18  1  0
 20 19  1  1
 20 22  1  0
 20 21  1  0
 21 16  1  0
 22 23  1  0
 24 22  2  0
M  END
$$$$
