EIS.pdb
     RDKit          3D

 24 23  0  0  1  0  0  0  0  0999 V2000
   20.8314  -12.6839  -18.5714 N   0  0  0  0  0  0  0  0  0  0  0  0
   21.2300  -11.2784  -18.5499 C   0  0  1  0  0  0  0  0  0  0  0  0
   20.8071  -10.6485  -19.8465 C   0  0  0  0  0  0  0  0  0  0  0  0
   21.6274  -11.2619  -20.9625 C   0  0  0  0  0  0  0  0  0  0  0  0
   21.3617  -10.5874  -22.2438 C   0  0  0  0  0  0  0  0  0  0  0  0
   21.8996  -10.9127  -23.3410 O   0  0  0  0  0  0  0  0  0  0  0  0
   20.6926  -10.5884  -17.3625 C   0  0  0  0  0  0  0  0  0  0  0  0
   19.5707  -10.9076  -16.9234 O   0  0  0  0  0  0  0  0  0  0  0  0
   20.4724   -9.5280  -22.2808 O   0  0  0  0  0  0  0  0  0  0  0  0
   23.3812  -10.3479  -13.0609 C   0  0  0  0  0  0  0  0  0  0  0  0
   22.2954  -10.3384  -14.1290 C   0  0  0  0  0  0  0  0  0  0  0  0
   21.9777   -8.9042  -14.4994 C   0  0  2  0  0  0  0  0  0  0  0  0
   21.4687   -8.2149  -13.2504 C   0  0  0  0  0  0  0  0  0  0  0  0
   20.9568   -8.8338  -15.5758 C   0  0  2  0  0  0  0  0  0  0  0  0
   21.4300   -9.5797  -16.7250 N   0  0  0  0  0  0  0  0  0  0  0  0
   20.4952   -7.4989  -15.9369 C   0  0  0  0  0  0  0  0  0  0  0  0
   21.3306   -6.6968  -16.4284 O   0  0  0  0  0  0  0  0  0  0  0  0
   17.2799   -6.6914  -17.8558 O   0  0  0  0  0  0  0  0  0  0  0  0
   17.2651   -5.9519  -16.6942 C   0  0  0  0  0  0  0  0  0  0  0  0
   18.6738   -5.7475  -16.1170 C   0  0  2  0  0  0  0  0  0  0  0  0
   19.1725   -7.0555  -15.7687 N   0  0  0  0  0  0  0  0  0  0  0  0
   18.6147   -4.8219  -14.9750 C   0  0  0  0  0  0  0  0  0  0  0  0
   18.7386   -3.4700  -15.1902 O   0  0  0  0  0  0  0  0  0  0  0  0
   18.4537   -5.2573  -13.8213 O   0  0  0  0  0  0  0  0  0  0  0  0
  2  1  1  6
  3  2  1  0
  4  3  1  0
  5  4  1  0
  6  5  2  0
  7  2  1  0
  7  8  2  0
  9  5  1  0
 10 11  1  0
 11 12  1  0
 12 13  1  1
 14 12  1  0
 14 15  1  6
 15  7  1  0
 16 14  1  0
 17 16  2  0
 19 18  1  0
 20 19  1  1
 20 22  1  0
 20 21  1  0
 21 16  1  0
 22 23  1  0
 24 22  2  0
M  END
$$$$
