EIS.pdb
     RDKit          3D

 24 23  0  0  1  0  0  0  0  0999 V2000
   16.7717  -11.2408  -16.0476 N   0  0  0  0  0  0  0  0  0  0  0  0
   17.7862  -10.4171  -16.7010 C   0  0  1  0  0  0  0  0  0  0  0  0
   17.0888   -9.4260  -17.5888 C   0  0  0  0  0  0  0  0  0  0  0  0
   16.4082  -10.1873  -18.7077 C   0  0  0  0  0  0  0  0  0  0  0  0
   17.3316  -10.4080  -19.8328 C   0  0  0  0  0  0  0  0  0  0  0  0
   18.5042   -9.9384  -19.8901 O   0  0  0  0  0  0  0  0  0  0  0  0
   18.6814   -9.7873  -15.7127 C   0  0  0  0  0  0  0  0  0  0  0  0
   18.2751   -9.6000  -14.5494 O   0  0  0  0  0  0  0  0  0  0  0  0
   16.9182  -11.1731  -20.9092 O   0  0  0  0  0  0  0  0  0  0  0  0
   23.1691  -11.7521  -14.4508 C   0  0  0  0  0  0  0  0  0  0  0  0
   21.8647  -10.9702  -14.5341 C   0  0  0  0  0  0  0  0  0  0  0  0
   22.1503   -9.5879  -15.0841 C   0  0  2  0  0  0  0  0  0  0  0  0
   23.1595   -8.9327  -14.1641 C   0  0  0  0  0  0  0  0  0  0  0  0
   20.9153   -8.7661  -15.1583 C   0  0  2  0  0  0  0  0  0  0  0  0
   19.9812   -9.3984  -16.0686 N   0  0  0  0  0  0  0  0  0  0  0  0
   21.1022   -7.3511  -15.4551 C   0  0  0  0  0  0  0  0  0  0  0  0
   21.6472   -7.0424  -16.5462 O   0  0  0  0  0  0  0  0  0  0  0  0
   19.8109   -2.8056  -14.3435 O   0  0  0  0  0  0  0  0  0  0  0  0
   19.7219   -4.1720  -14.1970 C   0  0  0  0  0  0  0  0  0  0  0  0
   20.9155   -4.9036  -14.8291 C   0  0  2  0  0  0  0  0  0  0  0  0
   20.7094   -6.3119  -14.5948 N   0  0  0  0  0  0  0  0  0  0  0  0
   22.1717   -4.3941  -14.2572 C   0  0  0  0  0  0  0  0  0  0  0  0
   22.9553   -3.5391  -14.9947 O   0  0  0  0  0  0  0  0  0  0  0  0
   22.5243   -4.7334  -13.1140 O   0  0  0  0  0  0  0  0  0  0  0  0
  2  1  1  1
  3  2  1  0
  4  3  1  0
  5  4  1  0
  6  5  2  0
  7  2  1  0
  7  8  2  0
  9  5  1  0
 10 11  1  0
 11 12  1  0
 12 13  1  1
 14 12  1  0
 14 15  1  6
 15  7  1  0
 16 14  1  0
 17 16  2  0
 19 18  1  0
 20 19  1  1
 20 22  1  0
 20 21  1  0
 21 16  1  0
 22 23  1  0
 24 22  2  0
M  END
$$$$
