EIS.pdb
     RDKit          3D

 24 23  0  0  1  0  0  0  0  0999 V2000
   22.1916  -11.7088  -20.4639 N   0  0  0  0  0  0  0  0  0  0  0  0
   22.7648  -10.3935  -20.1884 C   0  0  1  0  0  0  0  0  0  0  0  0
   22.3424   -9.4562  -21.2838 C   0  0  0  0  0  0  0  0  0  0  0  0
   23.0221   -9.8880  -22.5668 C   0  0  0  0  0  0  0  0  0  0  0  0
   24.3980   -9.3687  -22.6351 C   0  0  0  0  0  0  0  0  0  0  0  0
   24.8749   -8.5172  -21.8312 O   0  0  0  0  0  0  0  0  0  0  0  0
   22.3960   -9.9211  -18.8409 C   0  0  0  0  0  0  0  0  0  0  0  0
   21.3135  -10.2821  -18.3397 O   0  0  0  0  0  0  0  0  0  0  0  0
   25.2454   -9.8225  -23.6304 O   0  0  0  0  0  0  0  0  0  0  0  0
   25.6602  -10.6256  -14.9760 C   0  0  0  0  0  0  0  0  0  0  0  0
   24.4650  -10.3831  -15.8884 C   0  0  0  0  0  0  0  0  0  0  0  0
   24.1565   -8.9002  -15.9167 C   0  0  2  0  0  0  0  0  0  0  0  0
   23.8851   -8.4656  -14.4913 C   0  0  0  0  0  0  0  0  0  0  0  0
   22.9807   -8.6055  -16.7749 C   0  0  2  0  0  0  0  0  0  0  0  0
   23.2495   -9.0723  -18.1207 N   0  0  0  0  0  0  0  0  0  0  0  0
   22.4993   -7.2297  -16.7545 C   0  0  0  0  0  0  0  0  0  0  0  0
   23.3116   -6.3142  -17.0456 O   0  0  0  0  0  0  0  0  0  0  0  0
   18.5804   -6.3493  -17.2283 O   0  0  0  0  0  0  0  0  0  0  0  0
   19.5635   -5.4011  -17.4036 C   0  0  0  0  0  0  0  0  0  0  0  0
   20.6770   -5.5166  -16.3518 C   0  0  2  0  0  0  0  0  0  0  0  0
   21.1816   -6.8657  -16.4292 N   0  0  0  0  0  0  0  0  0  0  0  0
   20.1469   -5.1666  -15.0248 C   0  0  0  0  0  0  0  0  0  0  0  0
   19.7600   -3.8729  -14.7684 O   0  0  0  0  0  0  0  0  0  0  0  0
   20.0485   -6.0340  -14.1390 O   0  0  0  0  0  0  0  0  0  0  0  0
  2  1  1  6
  3  2  1  0
  4  3  1  0
  5  4  1  0
  6  5  2  0
  7  2  1  0
  7  8  2  0
  9  5  1  0
 10 11  1  0
 11 12  1  0
 12 13  1  1
 14 12  1  0
 14 15  1  6
 15  7  1  0
 16 14  1  0
 17 16  2  0
 19 18  1  0
 20 19  1  6
 20 22  1  0
 20 21  1  0
 21 16  1  0
 22 23  1  0
 24 22  2  0
M  END
$$$$
