EIS.pdb
     RDKit          3D

 24 23  0  0  1  0  0  0  0  0999 V2000
   44.0202  -11.0087   -6.6712 N   0  0  0  0  0  0  0  0  0  0  0  0
   42.9268  -10.2878   -6.0235 C   0  0  1  0  0  0  0  0  0  0  0  0
   43.5141   -9.1593   -5.2246 C   0  0  0  0  0  0  0  0  0  0  0  0
   44.3059   -9.7514   -4.0769 C   0  0  0  0  0  0  0  0  0  0  0  0
   44.7872   -8.6969   -3.1693 C   0  0  0  0  0  0  0  0  0  0  0  0
   45.9887   -8.3072   -3.1092 O   0  0  0  0  0  0  0  0  0  0  0  0
   41.9211   -9.8457   -7.0073 C   0  0  0  0  0  0  0  0  0  0  0  0
   42.2702   -9.6225   -8.1828 O   0  0  0  0  0  0  0  0  0  0  0  0
   43.8918   -8.0752   -2.3170 O   0  0  0  0  0  0  0  0  0  0  0  0
   37.4388  -11.7356   -5.9272 C   0  0  0  0  0  0  0  0  0  0  0  0
   38.1972  -11.2104   -7.1392 C   0  0  0  0  0  0  0  0  0  0  0  0
   38.2333   -9.6970   -7.0831 C   0  0  2  0  0  0  0  0  0  0  0  0
   37.1364   -9.1826   -7.9922 C   0  0  0  0  0  0  0  0  0  0  0  0
   39.5507   -9.1678   -7.5193 C   0  0  2  0  0  0  0  0  0  0  0  0
   40.5800   -9.6746   -6.6335 N   0  0  0  0  0  0  0  0  0  0  0  0
   39.6364   -7.7231   -7.6945 C   0  0  0  0  0  0  0  0  0  0  0  0
   39.3388   -6.9897   -6.7166 O   0  0  0  0  0  0  0  0  0  0  0  0
   41.4815   -6.2824  -11.0498 O   0  0  0  0  0  0  0  0  0  0  0  0
   41.4828   -5.5018   -9.9154 C   0  0  0  0  0  0  0  0  0  0  0  0
   40.2039   -5.6822   -9.0839 C   0  0  2  0  0  0  0  0  0  0  0  0
   40.0320   -7.1014   -8.8910 N   0  0  0  0  0  0  0  0  0  0  0  0
   39.0695   -5.0445   -9.7701 C   0  0  0  0  0  0  0  0  0  0  0  0
   38.0949   -5.8275  -10.3412 O   0  0  0  0  0  0  0  0  0  0  0  0
   38.9907   -3.8051   -9.8345 O   0  0  0  0  0  0  0  0  0  0  0  0
  2  1  1  6
  3  2  1  0
  4  3  1  0
  5  4  1  0
  6  5  2  0
  7  2  1  0
  7  8  2  0
  9  5  1  0
 10 11  1  0
 11 12  1  0
 12 13  1  6
 14 12  1  0
 14 15  1  1
 15  7  1  0
 16 14  1  0
 17 16  2  0
 19 18  1  0
 20 19  1  6
 20 22  1  0
 20 21  1  0
 21 16  1  0
 22 23  1  0
 24 22  2  0
M  END
$$$$
