ARV.pdb
     RDKit          3D

 24 23  0  0  1  0  0  0  0  0999 V2000
   43.1329   -9.3447   -9.4738 C   0  0  0  0  0  0  0  0  0  0  0  0
   42.1225  -10.2547   -8.8355 C   0  0  2  0  0  0  0  0  0  0  0  0
   41.3454   -9.5055   -7.8991 N   0  0  0  0  0  0  0  0  0  0  0  0
   42.8952  -11.3483   -8.1543 C   0  0  0  0  0  0  0  0  0  0  0  0
   43.4486  -11.1915   -7.0573 O   0  0  0  0  0  0  0  0  0  0  0  0
   45.8276  -17.9832  -10.7120 N   0  0  0  0  0  0  0  0  0  0  0  0
   45.3463  -18.8591   -9.6755 C   0  0  0  0  0  0  0  0  0  0  0  0
   46.0212  -19.9164   -9.3288 N   0  0  0  0  0  0  0  0  0  0  0  0
   44.1270  -18.6056   -8.9971 N   0  0  0  0  0  0  0  0  0  0  0  0
   43.3622  -17.4170   -9.3029 C   0  0  0  0  0  0  0  0  0  0  0  0
   43.9304  -16.1962   -8.6184 C   0  0  0  0  0  0  0  0  0  0  0  0
   43.0949  -14.9674   -8.9337 C   0  0  0  0  0  0  0  0  0  0  0  0
   43.7136  -13.7278   -8.2788 C   0  0  2  0  0  0  0  0  0  0  0  0
   42.9846  -12.5937   -8.8008 N   0  0  0  0  0  0  0  0  0  0  0  0
   45.1353  -13.5914   -8.6362 C   0  0  0  0  0  0  0  0  0  0  0  0
   45.4230  -13.2813   -9.8479 O   0  0  0  0  0  0  0  0  0  0  0  0
   45.6055  -20.5421   -8.6095 C   0  0  0  0  0  0  0  0  0  0  0  0
   48.0096  -11.5932   -6.6968 C   0  0  2  0  0  0  0  0  0  0  0  0
   48.4357  -12.9319   -7.1473 C   0  0  0  0  0  0  0  0  0  0  0  0
   48.5904  -13.8455   -5.9382 C   0  0  2  0  0  0  0  0  0  0  0  0
   47.5301  -13.6244   -8.1091 N   0  0  0  0  0  0  0  0  0  0  0  0
   46.1921  -13.7868   -7.7053 C   0  0  0  0  0  0  0  0  0  0  0  0
   48.1035  -14.9369   -8.5052 O   0  0  0  0  0  0  0  0  0  0  0  0
   49.2240  -14.9675   -9.3103 O   0  0  0  0  0  0  0  0  0  0  0  0
  2  1  1  1
  2  3  1  0
  4  5  2  0
  4  2  1  0
  6  7  1  0
  7  9  1  0
  8  7  2  0
  9 10  1  0
 10 11  1  0
 11 12  1  0
 13 12  1  6
 13 14  1  0
 14  4  1  0
 15 21  1  0
 15 13  1  0
 16 15  2  0
 18 20  1  0
 18 17  1  1
 19 18  1  0
 20 22  1  0
 20 21  1  6
 22 23  1  0
 24 22  2  0
M  END
$$$$
