ARV.pdb
     RDKit          3D

 24 23  0  0  1  0  0  0  0  0999 V2000
   31.2243  -21.2488  -19.3365 C   0  0  0  0  0  0  0  0  0  0  0  0
   30.0765  -22.0775  -18.8343 C   0  0  2  0  0  0  0  0  0  0  0  0
   29.9639  -23.2542  -19.6371 N   0  0  0  0  0  0  0  0  0  0  0  0
   28.8462  -21.2219  -18.9417 C   0  0  0  0  0  0  0  0  0  0  0  0
   28.2113  -21.0947  -19.9976 O   0  0  0  0  0  0  0  0  0  0  0  0
   23.0432  -23.3995  -14.9303 N   0  0  0  0  0  0  0  0  0  0  0  0
   24.3393  -23.9171  -14.5763 C   0  0  0  0  0  0  0  0  0  0  0  0
   24.5140  -25.1886  -14.3609 N   0  0  0  0  0  0  0  0  0  0  0  0
   25.4678  -23.0677  -14.4495 N   0  0  0  0  0  0  0  0  0  0  0  0
   25.3681  -21.6722  -14.8155 C   0  0  0  0  0  0  0  0  0  0  0  0
   25.9000  -21.4206  -16.2067 C   0  0  0  0  0  0  0  0  0  0  0  0
   26.6376  -20.0941  -16.2668 C   0  0  0  0  0  0  0  0  0  0  0  0
   27.1520  -19.8416  -17.6880 C   0  0  2  0  0  0  0  0  0  0  0  0
   28.4110  -20.5451  -17.7886 N   0  0  0  0  0  0  0  0  0  0  0  0
   27.3829  -18.4066  -17.9226 C   0  0  0  0  0  0  0  0  0  0  0  0
   28.2351  -17.8052  -17.1748 O   0  0  0  0  0  0  0  0  0  0  0  0
   25.4735  -25.5125  -14.1238 C   0  0  0  0  0  0  0  0  0  0  0  0
   26.8206  -16.2506  -21.6480 C   0  0  2  0  0  0  0  0  0  0  0  0
   27.6263  -15.9533  -20.4484 C   0  0  0  0  0  0  0  0  0  0  0  0
   27.9420  -14.4637  -20.4091 C   0  0  1  0  0  0  0  0  0  0  0  0
   27.0125  -16.3079  -19.1360 N   0  0  0  0  0  0  0  0  0  0  0  0
   26.7086  -17.6665  -18.9323 C   0  0  0  0  0  0  0  0  0  0  0  0
   25.8067  -15.4755  -18.8879 O   0  0  0  0  0  0  0  0  0  0  0  0
   25.9587  -14.1268  -18.6375 O   0  0  0  0  0  0  0  0  0  0  0  0
  2  1  1  6
  2  3  1  0
  4  5  2  0
  4  2  1  0
  6  7  1  0
  7  9  1  0
  8  7  2  0
  9 10  1  0
 10 11  1  0
 11 12  1  0
 13 12  1  1
 13 14  1  0
 14  4  1  0
 15 21  1  0
 15 13  1  0
 16 15  2  0
 18 20  1  0
 18 17  1  6
 19 18  1  0
 20 22  1  0
 20 21  1  6
 22 23  1  0
 24 22  2  0
M  END
$$$$
