ARV.pdb
     RDKit          3D

 24 23  0  0  1  0  0  0  0  0999 V2000
   20.3610  -16.1663  -16.1383 C   0  0  0  0  0  0  0  0  0  0  0  0
   19.6672  -15.5810  -17.3352 C   0  0  2  0  0  0  0  0  0  0  0  0
   20.1889  -16.1866  -18.5196 N   0  0  0  0  0  0  0  0  0  0  0  0
   19.9373  -14.1033  -17.3115 C   0  0  0  0  0  0  0  0  0  0  0  0
   21.0419  -13.6216  -17.5982 O   0  0  0  0  0  0  0  0  0  0  0  0
   13.4596   -7.9586  -17.2058 N   0  0  0  0  0  0  0  0  0  0  0  0
   14.6895   -7.2172  -17.1024 C   0  0  0  0  0  0  0  0  0  0  0  0
   14.6871   -5.9159  -17.1150 N   0  0  0  0  0  0  0  0  0  0  0  0
   15.9421   -7.8713  -16.9836 N   0  0  0  0  0  0  0  0  0  0  0  0
   16.0112   -9.3152  -17.0228 C   0  0  0  0  0  0  0  0  0  0  0  0
   17.4395   -9.8047  -17.0676 C   0  0  0  0  0  0  0  0  0  0  0  0
   17.4863  -11.3229  -17.0582 C   0  0  0  0  0  0  0  0  0  0  0  0
   18.9409  -11.8048  -17.0445 C   0  0  2  0  0  0  0  0  0  0  0  0
   18.8839  -13.2462  -16.9474 N   0  0  0  0  0  0  0  0  0  0  0  0
   19.6662  -11.2727  -15.8791 C   0  0  0  0  0  0  0  0  0  0  0  0
   19.3479  -11.7185  -14.7184 O   0  0  0  0  0  0  0  0  0  0  0  0
   15.6018   -5.4289  -17.0252 C   0  0  0  0  0  0  0  0  0  0  0  0
   23.7729   -9.9233  -15.9142 C   0  0  2  0  0  0  0  0  0  0  0  0
   22.8869  -10.4787  -14.8734 C   0  0  0  0  0  0  0  0  0  0  0  0
   23.4780  -10.1881  -13.4999 C   0  0  1  0  0  0  0  0  0  0  0  0
   21.4829   -9.9753  -14.8638 N   0  0  0  0  0  0  0  0  0  0  0  0
   20.6940  -10.2956  -15.9839 C   0  0  0  0  0  0  0  0  0  0  0  0
   21.4618   -8.5077  -14.6312 O   0  0  0  0  0  0  0  0  0  0  0  0
   21.8107   -8.0170  -13.3893 O   0  0  0  0  0  0  0  0  0  0  0  0
  2  1  1  1
  2  3  1  0
  4  5  2  0
  4  2  1  0
  6  7  1  0
  7  9  1  0
  8  7  2  0
  9 10  1  0
 10 11  1  0
 11 12  1  0
 13 12  1  1
 13 14  1  0
 14  4  1  0
 15 21  1  0
 15 13  1  0
 16 15  2  0
 18 20  1  0
 18 17  1  6
 19 18  1  0
 20 22  1  0
 20 21  1  6
 22 23  1  0
 24 22  2  0
M  END
$$$$
