ARV.pdb
     RDKit          3D

 24 23  0  0  1  0  0  0  0  0999 V2000
   23.4669  -15.7501  -16.7665 C   0  0  0  0  0  0  0  0  0  0  0  0
   24.7228  -16.3701  -17.3093 C   0  0  2  0  0  0  0  0  0  0  0  0
   24.6962  -16.3054  -18.7366 N   0  0  0  0  0  0  0  0  0  0  0  0
   24.7462  -17.7926  -16.8264 C   0  0  0  0  0  0  0  0  0  0  0  0
   23.7666  -18.5450  -16.9177 O   0  0  0  0  0  0  0  0  0  0  0  0
   30.2936  -23.1321  -16.9578 N   0  0  0  0  0  0  0  0  0  0  0  0
   29.1733  -24.0307  -17.0611 C   0  0  0  0  0  0  0  0  0  0  0  0
   29.2786  -25.1570  -17.7043 N   0  0  0  0  0  0  0  0  0  0  0  0
   27.9208  -23.7255  -16.4701 N   0  0  0  0  0  0  0  0  0  0  0  0
   27.6983  -22.4261  -15.8758 C   0  0  0  0  0  0  0  0  0  0  0  0
   27.6985  -21.3296  -16.9146 C   0  0  0  0  0  0  0  0  0  0  0  0
   27.6097  -19.9649  -16.2536 C   0  0  0  0  0  0  0  0  0  0  0  0
   26.1562  -19.6539  -15.8808 C   0  0  2  0  0  0  0  0  0  0  0  0
   25.9350  -18.2738  -16.2502 N   0  0  0  0  0  0  0  0  0  0  0  0
   25.9345  -19.8058  -14.4333 C   0  0  0  0  0  0  0  0  0  0  0  0
   26.6117  -19.0578  -13.6402 O   0  0  0  0  0  0  0  0  0  0  0  0
   28.4474  -25.7820  -17.7261 C   0  0  0  0  0  0  0  0  0  0  0  0
   23.1481  -20.9547  -10.5914 C   0  0  2  0  0  0  0  0  0  0  0  0
   23.3790  -20.9545  -12.0486 C   0  0  0  0  0  0  0  0  0  0  0  0
   22.5633  -19.8385  -12.6885 C   0  0  1  0  0  0  0  0  0  0  0  0
   24.7916  -20.7779  -12.4934 N   0  0  0  0  0  0  0  0  0  0  0  0
   25.0113  -20.7365  -13.8826 C   0  0  0  0  0  0  0  0  0  0  0  0
   25.6618  -21.8102  -11.8726 O   0  0  0  0  0  0  0  0  0  0  0  0
   26.3626  -21.4995  -10.7250 O   0  0  0  0  0  0  0  0  0  0  0  0
  2  1  1  1
  2  3  1  0
  4  5  2  0
  4  2  1  0
  6  7  1  0
  7  9  1  0
  8  7  2  0
  9 10  1  0
 10 11  1  0
 11 12  1  0
 13 12  1  1
 13 14  1  0
 14  4  1  0
 15 21  1  0
 15 13  1  0
 16 15  2  0
 18 20  1  0
 18 17  1  6
 19 18  1  0
 20 22  1  0
 20 21  1  6
 22 23  1  0
 24 22  2  0
M  END
$$$$
