VIA.pdb
     RDKit          3D

 21 20  0  0  1  0  0  0  0  0999 V2000
    7.5082  -18.5971   22.9532 C   0  0  0  0  0  0  0  0  0  0  0  0
    6.1967  -17.8636   22.9917 C   0  0  2  0  0  0  0  0  0  0  0  0
    5.1122  -18.5964   22.2388 C   0  0  0  0  0  0  0  0  0  0  0  0
    6.3561  -16.4560   22.4990 C   0  0  2  0  0  0  0  0  0  0  0  0
    6.7147  -16.4450   21.1097 N   0  0  0  0  0  0  0  0  0  0  0  0
    7.3644  -15.7758   23.3575 C   0  0  0  0  0  0  0  0  0  0  0  0
    8.5345  -15.6938   22.9029 O   0  0  0  0  0  0  0  0  0  0  0  0
    5.9813  -11.6964   26.4711 C   0  0  0  0  0  0  0  0  0  0  0  0
    6.9301  -12.5178   25.6456 C   0  0  0  0  0  0  0  0  0  0  0  0
    7.4674  -13.7062   26.4085 C   0  0  2  0  0  0  0  0  0  0  0  0
    8.4811  -13.2741   27.4322 C   0  0  0  0  0  0  0  0  0  0  0  0
    8.1118  -14.7243   25.5016 C   0  0  2  0  0  0  0  0  0  0  0  0
    7.0729  -15.2317   24.6286 N   0  0  0  0  0  0  0  0  0  0  0  0
    8.7261  -15.8415   26.2131 C   0  0  0  0  0  0  0  0  0  0  0  0
    8.0655  -16.5222   27.0215 O   0  0  0  0  0  0  0  0  0  0  0  0
   12.0561  -17.6270   25.9439 C   0  0  0  0  0  0  0  0  0  0  0  0
   10.7234  -17.3272   26.5740 C   0  0  2  0  0  0  0  0  0  0  0  0
   10.0788  -16.1714   25.9990 N   0  0  0  0  0  0  0  0  0  0  0  0
   10.9629  -17.0460   28.0152 C   0  0  0  0  0  0  0  0  0  0  0  0
   11.2808  -18.0270   28.9396 O   0  0  0  0  0  0  0  0  0  0  0  0
   10.8833  -15.8583   28.4712 O   0  0  0  0  0  0  0  0  0  0  0  0
  2  1  1  6
  2  4  1  0
  3  2  1  0
  4  5  1  6
  6  7  2  0
  6  4  1  0
  8  9  1  0
  9 10  1  0
 10 12  1  0
 10 11  1  1
 12 14  1  0
 12 13  1  6
 13  6  1  0
 14 18  1  0
 15 14  2  0
 17 16  1  6
 17 19  1  0
 18 17  1  0
 19 21  2  0
 19 20  1  0
M  END
$$$$
