VIA.pdb
     RDKit          3D

 21 20  0  0  1  0  0  0  0  0999 V2000
    6.6464  -16.3467   19.4044 C   0  0  0  0  0  0  0  0  0  0  0  0
    7.3246  -16.0550   20.7137 C   0  0  2  0  0  0  0  0  0  0  0  0
    6.8444  -16.9652   21.8189 C   0  0  0  0  0  0  0  0  0  0  0  0
    7.1736  -14.6096   21.0844 C   0  0  2  0  0  0  0  0  0  0  0  0
    7.6240  -13.7646   20.0157 N   0  0  0  0  0  0  0  0  0  0  0  0
    7.9172  -14.3762   22.3528 C   0  0  0  0  0  0  0  0  0  0  0  0
    9.1650  -14.2441   22.2635 O   0  0  0  0  0  0  0  0  0  0  0  0
    5.8707  -11.3128   26.1973 C   0  0  0  0  0  0  0  0  0  0  0  0
    6.8186  -12.0303   25.2791 C   0  0  0  0  0  0  0  0  0  0  0  0
    7.2140  -13.3866   25.8148 C   0  0  2  0  0  0  0  0  0  0  0  0
    7.9709  -13.2540   27.1078 C   0  0  0  0  0  0  0  0  0  0  0  0
    8.0679  -14.1594   24.8411 C   0  0  2  0  0  0  0  0  0  0  0  0
    7.2991  -14.2985   23.6212 N   0  0  0  0  0  0  0  0  0  0  0  0
    8.4520  -15.4849   25.3180 C   0  0  0  0  0  0  0  0  0  0  0  0
    7.5885  -16.3016   25.6931 O   0  0  0  0  0  0  0  0  0  0  0  0
   11.6155  -17.5208   25.2089 C   0  0  0  0  0  0  0  0  0  0  0  0
   10.2593  -17.1770   25.7617 C   0  0  2  0  0  0  0  0  0  0  0  0
    9.8074  -15.8659   25.3631 N   0  0  0  0  0  0  0  0  0  0  0  0
   10.3641  -17.1917   27.2458 C   0  0  0  0  0  0  0  0  0  0  0  0
   10.6888  -18.3235   27.9747 O   0  0  0  0  0  0  0  0  0  0  0  0
   10.1536  -16.1344   27.9261 O   0  0  0  0  0  0  0  0  0  0  0  0
  2  1  1  6
  2  4  1  0
  3  2  1  0
  4  5  1  6
  6  7  2  0
  6  4  1  0
  8  9  1  0
  9 10  1  0
 10 12  1  0
 10 11  1  1
 12 14  1  0
 12 13  1  6
 13  6  1  0
 14 18  1  0
 15 14  2  0
 17 16  1  6
 17 19  1  0
 18 17  1  0
 19 21  2  0
 19 20  1  0
M  END
$$$$
