VIA.pdb
     RDKit          3D

 21 20  0  0  1  0  0  0  0  0999 V2000
    6.5234  -17.0958   19.7665 C   0  0  0  0  0  0  0  0  0  0  0  0
    7.2447  -16.7475   21.0384 C   0  0  2  0  0  0  0  0  0  0  0  0
    6.7922  -17.5984   22.2009 C   0  0  0  0  0  0  0  0  0  0  0  0
    7.1170  -15.2844   21.3427 C   0  0  2  0  0  0  0  0  0  0  0  0
    7.5152  -14.4968   20.2114 N   0  0  0  0  0  0  0  0  0  0  0  0
    7.9243  -14.9917   22.5588 C   0  0  0  0  0  0  0  0  0  0  0  0
    9.1672  -14.8777   22.4012 O   0  0  0  0  0  0  0  0  0  0  0  0
    5.9347  -11.6735   26.1848 C   0  0  0  0  0  0  0  0  0  0  0  0
    6.9115  -12.4164   25.3185 C   0  0  0  0  0  0  0  0  0  0  0  0
    7.3542  -13.7178   25.9455 C   0  0  2  0  0  0  0  0  0  0  0  0
    8.1502  -13.4680   27.1971 C   0  0  0  0  0  0  0  0  0  0  0  0
    8.1925  -14.5489   25.0069 C   0  0  2  0  0  0  0  0  0  0  0  0
    7.3706  -14.8399   23.8499 N   0  0  0  0  0  0  0  0  0  0  0  0
    8.6597  -15.8037   25.5892 C   0  0  0  0  0  0  0  0  0  0  0  0
    7.8515  -16.6262   26.0620 O   0  0  0  0  0  0  0  0  0  0  0  0
   11.9216  -17.6657   25.4147 C   0  0  0  0  0  0  0  0  0  0  0  0
   10.5596  -17.4011   25.9960 C   0  0  2  0  0  0  0  0  0  0  0  0
   10.0345  -16.1086   25.6275 N   0  0  0  0  0  0  0  0  0  0  0  0
   10.6911  -17.4343   27.4776 C   0  0  0  0  0  0  0  0  0  0  0  0
   11.0604  -18.5670   28.1836 O   0  0  0  0  0  0  0  0  0  0  0  0
   10.4631  -16.3935   28.1773 O   0  0  0  0  0  0  0  0  0  0  0  0
  2  1  1  6
  2  4  1  0
  3  2  1  0
  4  5  1  6
  6  7  2  0
  6  4  1  0
  8  9  1  0
  9 10  1  0
 10 12  1  0
 10 11  1  1
 12 14  1  0
 12 13  1  6
 13  6  1  0
 14 18  1  0
 15 14  2  0
 17 16  1  6
 17 19  1  0
 18 17  1  0
 19 21  2  0
 19 20  1  0
M  END
$$$$
