VIA.pdb
     RDKit          3D

 21 20  0  0  1  0  0  0  0  0999 V2000
    6.6386  -16.8426   19.5896 C   0  0  0  0  0  0  0  0  0  0  0  0
    7.2988  -16.5308   20.9035 C   0  0  2  0  0  0  0  0  0  0  0  0
    6.7703  -17.3928   22.0250 C   0  0  0  0  0  0  0  0  0  0  0  0
    7.1827  -15.0710   21.2276 C   0  0  2  0  0  0  0  0  0  0  0  0
    7.6348  -14.2715   20.1252 N   0  0  0  0  0  0  0  0  0  0  0  0
    7.9489  -14.8113   22.4773 C   0  0  0  0  0  0  0  0  0  0  0  0
    9.1916  -14.6557   22.3594 O   0  0  0  0  0  0  0  0  0  0  0  0
    5.8837  -11.6034   26.1463 C   0  0  0  0  0  0  0  0  0  0  0  0
    6.8539  -12.3470   25.2734 C   0  0  0  0  0  0  0  0  0  0  0  0
    7.2715  -13.6662   25.8804 C   0  0  2  0  0  0  0  0  0  0  0  0
    8.0241  -13.4525   27.1650 C   0  0  0  0  0  0  0  0  0  0  0  0
    8.1397  -14.4749   24.9495 C   0  0  2  0  0  0  0  0  0  0  0  0
    7.3571  -14.7337   23.7581 N   0  0  0  0  0  0  0  0  0  0  0  0
    8.5847  -15.7455   25.5145 C   0  0  0  0  0  0  0  0  0  0  0  0
    7.7646  -16.5489   25.9994 O   0  0  0  0  0  0  0  0  0  0  0  0
   11.8336  -17.6579   25.3728 C   0  0  0  0  0  0  0  0  0  0  0  0
   10.4506  -17.3878   25.8994 C   0  0  2  0  0  0  0  0  0  0  0  0
    9.9512  -16.0876   25.5222 N   0  0  0  0  0  0  0  0  0  0  0  0
   10.5199  -17.4363   27.3848 C   0  0  0  0  0  0  0  0  0  0  0  0
   10.7744  -18.5962   28.0974 O   0  0  0  0  0  0  0  0  0  0  0  0
   10.3433  -16.3837   28.0819 O   0  0  0  0  0  0  0  0  0  0  0  0
  2  1  1  6
  2  4  1  0
  3  2  1  0
  4  5  1  6
  6  7  2  0
  6  4  1  0
  8  9  1  0
  9 10  1  0
 10 12  1  0
 10 11  1  1
 12 14  1  0
 12 13  1  6
 13  6  1  0
 14 18  1  0
 15 14  2  0
 17 16  1  6
 17 19  1  0
 18 17  1  0
 19 21  2  0
 19 20  1  0
M  END
$$$$
