VIA.pdb
     RDKit          3D

 21 20  0  0  1  0  0  0  0  0999 V2000
    7.5723  -17.2720   21.1783 C   0  0  0  0  0  0  0  0  0  0  0  0
    6.3987  -16.3364   21.2608 C   0  0  2  0  0  0  0  0  0  0  0  0
    5.3848  -16.5974   20.1727 C   0  0  0  0  0  0  0  0  0  0  0  0
    6.8528  -14.9070   21.2607 C   0  0  2  0  0  0  0  0  0  0  0  0
    7.5322  -14.5931   20.0365 N   0  0  0  0  0  0  0  0  0  0  0  0
    7.7055  -14.6914   22.4619 C   0  0  0  0  0  0  0  0  0  0  0  0
    8.9498  -14.6684   22.2782 O   0  0  0  0  0  0  0  0  0  0  0  0
    5.8061  -11.4648   26.3077 C   0  0  0  0  0  0  0  0  0  0  0  0
    6.7310  -12.1643   25.3530 C   0  0  0  0  0  0  0  0  0  0  0  0
    7.2326  -13.4783   25.9050 C   0  0  2  0  0  0  0  0  0  0  0  0
    8.0713  -13.2597   27.1343 C   0  0  0  0  0  0  0  0  0  0  0  0
    8.0541  -14.2450   24.8992 C   0  0  2  0  0  0  0  0  0  0  0  0
    7.1922  -14.5159   23.7667 N   0  0  0  0  0  0  0  0  0  0  0  0
    8.5830  -15.5065   25.4099 C   0  0  0  0  0  0  0  0  0  0  0  0
    7.8268  -16.3511   25.9276 O   0  0  0  0  0  0  0  0  0  0  0  0
   11.8849  -17.2822   24.9996 C   0  0  0  0  0  0  0  0  0  0  0  0
   10.5295  -17.0854   25.6218 C   0  0  2  0  0  0  0  0  0  0  0  0
    9.9598  -15.7929   25.3270 N   0  0  0  0  0  0  0  0  0  0  0  0
   10.6954  -17.1851   27.0969 C   0  0  0  0  0  0  0  0  0  0  0  0
   11.1068  -18.3405   27.7402 O   0  0  0  0  0  0  0  0  0  0  0  0
   10.4593  -16.1842   27.8501 O   0  0  0  0  0  0  0  0  0  0  0  0
  2  1  1  6
  2  4  1  0
  3  2  1  0
  4  5  1  6
  6  7  2  0
  6  4  1  0
  8  9  1  0
  9 10  1  0
 10 12  1  0
 10 11  1  1
 12 14  1  0
 12 13  1  6
 13  6  1  0
 14 18  1  0
 15 14  2  0
 17 16  1  6
 17 19  1  0
 18 17  1  0
 19 21  2  0
 19 20  1  0
M  END
$$$$
