VIA.pdb
     RDKit          3D

 21 20  0  0  1  0  0  0  0  0999 V2000
    7.9012  -17.4764   21.2840 C   0  0  0  0  0  0  0  0  0  0  0  0
    6.6371  -16.6664   21.3567 C   0  0  2  0  0  0  0  0  0  0  0  0
    5.6604  -17.0361   20.2660 C   0  0  0  0  0  0  0  0  0  0  0  0
    6.9414  -15.1977   21.3506 C   0  0  2  0  0  0  0  0  0  0  0  0
    7.5528  -14.8141   20.1105 N   0  0  0  0  0  0  0  0  0  0  0  0
    7.7983  -14.8970   22.5302 C   0  0  0  0  0  0  0  0  0  0  0  0
    9.0335  -14.7832   22.3206 O   0  0  0  0  0  0  0  0  0  0  0  0
    5.9695  -11.5192   26.1578 C   0  0  0  0  0  0  0  0  0  0  0  0
    6.8945  -12.2952   25.2643 C   0  0  0  0  0  0  0  0  0  0  0  0
    7.3752  -13.5724   25.9129 C   0  0  2  0  0  0  0  0  0  0  0  0
    8.2346  -13.2761   27.1112 C   0  0  0  0  0  0  0  0  0  0  0  0
    8.1667  -14.4343   24.9616 C   0  0  2  0  0  0  0  0  0  0  0  0
    7.2984  -14.7375   23.8422 N   0  0  0  0  0  0  0  0  0  0  0  0
    8.6387  -15.6833   25.5525 C   0  0  0  0  0  0  0  0  0  0  0  0
    7.8524  -16.4402   26.1542 O   0  0  0  0  0  0  0  0  0  0  0  0
   11.8545  -17.6549   25.3385 C   0  0  0  0  0  0  0  0  0  0  0  0
   10.5168  -17.3120   25.9353 C   0  0  2  0  0  0  0  0  0  0  0  0
    9.9934  -16.0566   25.4534 N   0  0  0  0  0  0  0  0  0  0  0  0
   10.7001  -17.1949   27.4071 C   0  0  0  0  0  0  0  0  0  0  0  0
   11.0874  -18.2528   28.2124 O   0  0  0  0  0  0  0  0  0  0  0  0
   10.5029  -16.0859   28.0038 O   0  0  0  0  0  0  0  0  0  0  0  0
  2  1  1  6
  2  4  1  0
  3  2  1  0
  4  5  1  6
  6  7  2  0
  6  4  1  0
  8  9  1  0
  9 10  1  0
 10 12  1  0
 10 11  1  1
 12 14  1  0
 12 13  1  6
 13  6  1  0
 14 18  1  0
 15 14  2  0
 17 16  1  6
 17 19  1  0
 18 17  1  0
 19 21  2  0
 19 20  1  0
M  END
$$$$
