FIH.pdb
     RDKit          3D

 30 31  0  0  1  0  0  0  0  0999 V2000
    4.9051  -15.7755   21.4261 N   0  0  0  0  0  0  0  0  0  0  0  0
    6.2197  -16.1459   21.8412 C   0  0  1  0  0  0  0  0  0  0  0  0
    7.2236  -16.1840   20.7012 C   0  0  0  0  0  0  0  0  0  0  0  0
    7.4788  -14.8327   20.1544 C   0  0  0  0  0  0  0  0  0  0  0  0
    6.6596  -14.2749   19.2022 C   0  0  0  0  0  0  0  0  0  0  0  0
    6.9497  -13.0129   18.7322 C   0  0  0  0  0  0  0  0  0  0  0  0
    8.0311  -12.2700   19.1710 C   0  0  0  0  0  0  0  0  0  0  0  0
    8.8337  -12.8662   20.1315 C   0  0  0  0  0  0  0  0  0  0  0  0
    8.5635  -14.1253   20.6155 C   0  0  0  0  0  0  0  0  0  0  0  0
    6.7641  -15.2652   22.9076 C   0  0  0  0  0  0  0  0  0  0  0  0
    6.5157  -14.0247   22.8203 O   0  0  0  0  0  0  0  0  0  0  0  0
    7.2487  -12.0309   26.9058 C   0  0  0  0  0  0  0  0  0  0  0  0
    7.8552  -13.4335   26.9918 C   0  0  0  0  0  0  0  0  0  0  0  0
    7.1952  -14.3556   25.9933 C   0  0  2  0  0  0  0  0  0  0  0  0
    6.3746  -15.4052   26.6892 C   0  0  0  0  0  0  0  0  0  0  0  0
    8.1652  -14.8696   24.9884 C   0  0  2  0  0  0  0  0  0  0  0  0
    7.5335  -15.7300   23.9991 N   0  0  0  0  0  0  0  0  0  0  0  0
    9.2763  -15.6300   25.6407 C   0  0  0  0  0  0  0  0  0  0  0  0
   10.0585  -15.1160   26.4793 O   0  0  0  0  0  0  0  0  0  0  0  0
    9.5089  -16.9960   25.3406 N   0  0  0  0  0  0  0  0  0  0  0  0
   10.5710  -17.7335   26.0320 C   0  0  1  0  0  0  0  0  0  0  0  0
   11.9259  -17.3006   25.5996 C   0  0  0  0  0  0  0  0  0  0  0  0
   12.0137  -17.2770   24.1369 C   0  0  0  0  0  0  0  0  0  0  0  0
   11.5373  -18.1587   23.2056 C   0  0  0  0  0  0  0  0  0  0  0  0
   11.8159  -17.6619   21.9641 N   0  0  0  0  0  0  0  0  0  0  0  0
   12.4485  -16.5005   22.1123 C   0  0  0  0  0  0  0  0  0  0  0  0
   12.5698  -16.2641   23.4194 N   0  0  0  0  0  0  0  0  0  0  0  0
   10.4231  -17.2185   27.4582 C   0  0  0  0  0  0  0  0  0  0  0  0
    9.5027  -16.3774   27.7535 O   0  0  0  0  0  0  0  0  0  0  0  0
   11.2203  -17.5849   28.5054 O   0  0  0  0  0  0  0  0  0  0  0  0
  2  1  1  6
  2 10  1  0
  3  2  1  0
  3  4  1  0
  4  9  1  0
  4  5  2  0
  5  6  1  0
  6  7  2  0
  8  7  1  0
  9  8  2  0
 10 11  2  0
 13 12  1  0
 14 13  1  0
 14 15  1  1
 16 14  1  0
 17 10  1  0
 16 17  1  6
 18 16  1  0
 18 19  2  0
 20 18  1  0
 21 20  1  0
 21 22  1  6
 23 24  2  0
 23 22  1  0
 25 24  1  0
 26 27  2  0
 26 25  1  0
 27 23  1  0
 28 30  1  0
 28 21  1  0
 29 28  2  0
M  END
$$$$
