FIH.pdb
     RDKit          3D

 30 31  0  0  1  0  0  0  0  0999 V2000
   10.3769  -16.6583   20.9154 N   0  0  0  0  0  0  0  0  0  0  0  0
    9.4949  -15.7930   21.6304 C   0  0  1  0  0  0  0  0  0  0  0  0
    8.0485  -15.8979   21.1767 C   0  0  0  0  0  0  0  0  0  0  0  0
    7.5721  -14.6315   20.5774 C   0  0  0  0  0  0  0  0  0  0  0  0
    7.1268  -13.5896   21.3552 C   0  0  0  0  0  0  0  0  0  0  0  0
    6.6957  -12.4360   20.7380 C   0  0  0  0  0  0  0  0  0  0  0  0
    6.6868  -12.2681   19.3648 C   0  0  0  0  0  0  0  0  0  0  0  0
    7.1432  -13.3409   18.6143 C   0  0  0  0  0  0  0  0  0  0  0  0
    7.5784  -14.5026   19.2087 C   0  0  0  0  0  0  0  0  0  0  0  0
    9.5350  -16.0055   23.1009 C   0  0  0  0  0  0  0  0  0  0  0  0
   10.4182  -16.7970   23.5501 O   0  0  0  0  0  0  0  0  0  0  0  0
    7.5598  -12.4543   27.8439 C   0  0  0  0  0  0  0  0  0  0  0  0
    8.4736  -13.5711   27.3336 C   0  0  0  0  0  0  0  0  0  0  0  0
    8.1143  -13.9386   25.9128 C   0  0  2  0  0  0  0  0  0  0  0  0
    6.6419  -14.2109   25.7822 C   0  0  0  0  0  0  0  0  0  0  0  0
    9.0076  -14.9992   25.3720 C   0  0  2  0  0  0  0  0  0  0  0  0
    8.6534  -15.3812   24.0132 N   0  0  0  0  0  0  0  0  0  0  0  0
    8.9852  -16.2232   26.2320 C   0  0  0  0  0  0  0  0  0  0  0  0
    7.9369  -16.8739   26.4708 O   0  0  0  0  0  0  0  0  0  0  0  0
   10.1681  -16.7219   26.8335 N   0  0  0  0  0  0  0  0  0  0  0  0
   10.1206  -17.9258   27.6693 C   0  0  1  0  0  0  0  0  0  0  0  0
   11.2310  -18.8651   27.3616 C   0  0  0  0  0  0  0  0  0  0  0  0
   11.0723  -19.4227   26.0156 C   0  0  0  0  0  0  0  0  0  0  0  0
    9.9491  -19.8400   25.3554 C   0  0  0  0  0  0  0  0  0  0  0  0
   10.3103  -20.2189   24.0938 N   0  0  0  0  0  0  0  0  0  0  0  0
   11.6231  -20.0431   23.9656 C   0  0  0  0  0  0  0  0  0  0  0  0
   12.0868  -19.5634   25.1206 N   0  0  0  0  0  0  0  0  0  0  0  0
   10.4476  -17.3572   29.0444 C   0  0  0  0  0  0  0  0  0  0  0  0
   10.7407  -16.1175   29.1823 O   0  0  0  0  0  0  0  0  0  0  0  0
   10.4611  -18.0804   30.2034 O   0  0  0  0  0  0  0  0  0  0  0  0
  2  1  1  6
  2 10  1  0
  3  2  1  0
  3  4  1  0
  4  9  1  0
  4  5  2  0
  5  6  1  0
  6  7  2  0
  8  7  1  0
  9  8  2  0
 10 11  2  0
 13 12  1  0
 14 13  1  0
 14 15  1  1
 16 14  1  0
 17 10  1  0
 16 17  1  6
 18 16  1  0
 18 19  2  0
 20 18  1  0
 21 20  1  0
 21 22  1  6
 23 24  2  0
 23 22  1  0
 25 24  1  0
 26 27  2  0
 26 25  1  0
 27 23  1  0
 28 30  1  0
 28 21  1  0
 29 28  2  0
M  END
$$$$
