FIH.pdb
     RDKit          3D

 30 31  0  0  1  0  0  0  0  0999 V2000
    5.4580  -18.0245   25.4021 N   0  0  0  0  0  0  0  0  0  0  0  0
    6.0784  -16.7404   25.3379 C   0  0  1  0  0  0  0  0  0  0  0  0
    6.6015  -16.2559   26.6798 C   0  0  0  0  0  0  0  0  0  0  0  0
    6.9068  -14.8081   26.6552 C   0  0  0  0  0  0  0  0  0  0  0  0
    8.2003  -14.3446   26.6811 C   0  0  0  0  0  0  0  0  0  0  0  0
    8.4201  -12.9850   26.6561 C   0  0  0  0  0  0  0  0  0  0  0  0
    7.3996  -12.0523   26.6060 C   0  0  0  0  0  0  0  0  0  0  0  0
    6.1090  -12.5584   26.5812 C   0  0  0  0  0  0  0  0  0  0  0  0
    5.8654  -13.9121   26.6053 C   0  0  0  0  0  0  0  0  0  0  0  0
    7.1940  -16.6803   24.3577 C   0  0  0  0  0  0  0  0  0  0  0  0
    8.0271  -17.6365   24.3657 O   0  0  0  0  0  0  0  0  0  0  0  0
    8.1273  -12.1136   20.8648 C   0  0  0  0  0  0  0  0  0  0  0  0
    8.3694  -13.1899   21.9258 C   0  0  0  0  0  0  0  0  0  0  0  0
    8.1055  -14.5631   21.3538 C   0  0  2  0  0  0  0  0  0  0  0  0
    6.7659  -14.6158   20.6741 C   0  0  0  0  0  0  0  0  0  0  0  0
    8.3538  -15.6371   22.3538 C   0  0  2  0  0  0  0  0  0  0  0  0
    7.3737  -15.6289   23.4296 N   0  0  0  0  0  0  0  0  0  0  0  0
    9.7197  -15.5204   22.9530 C   0  0  0  0  0  0  0  0  0  0  0  0
   10.0252  -14.6401   23.7963 O   0  0  0  0  0  0  0  0  0  0  0  0
   10.7600  -16.4140   22.5936 N   0  0  0  0  0  0  0  0  0  0  0  0
   12.1091  -16.2345   23.1393 C   0  0  1  0  0  0  0  0  0  0  0  0
   12.6782  -17.5072   23.6553 C   0  0  0  0  0  0  0  0  0  0  0  0
   11.9996  -17.9080   24.8909 C   0  0  0  0  0  0  0  0  0  0  0  0
   11.5138  -17.1509   25.9216 C   0  0  0  0  0  0  0  0  0  0  0  0
   10.9057  -17.9853   26.8159 N   0  0  0  0  0  0  0  0  0  0  0  0
   11.0062  -19.2309   26.3585 C   0  0  0  0  0  0  0  0  0  0  0  0
   11.6641  -19.1897   25.1990 N   0  0  0  0  0  0  0  0  0  0  0  0
   12.9090  -15.9201   21.8813 C   0  0  0  0  0  0  0  0  0  0  0  0
   12.3414  -15.9221   20.7325 O   0  0  0  0  0  0  0  0  0  0  0  0
   14.2424  -15.6234   21.8597 O   0  0  0  0  0  0  0  0  0  0  0  0
  2  1  1  1
  2 10  1  0
  3  2  1  0
  3  4  1  0
  4  9  1  0
  4  5  2  0
  5  6  1  0
  6  7  2  0
  8  7  1  0
  9  8  2  0
 10 11  2  0
 13 12  1  0
 14 13  1  0
 14 15  1  1
 16 14  1  0
 17 10  1  0
 16 17  1  1
 18 16  1  0
 18 19  2  0
 20 18  1  0
 21 20  1  0
 21 22  1  6
 23 24  2  0
 23 22  1  0
 25 24  1  0
 26 27  2  0
 26 25  1  0
 27 23  1  0
 28 30  1  0
 28 21  1  0
 29 28  2  0
M  END
$$$$
