FIH.pdb
     RDKit          3D

 30 31  0  0  1  0  0  0  0  0999 V2000
    7.4087  -15.5303   21.7366 N   0  0  0  0  0  0  0  0  0  0  0  0
    8.8184  -15.3679   21.8917 C   0  0  1  0  0  0  0  0  0  0  0  0
    9.3826  -14.2042   21.0939 C   0  0  0  0  0  0  0  0  0  0  0  0
    8.5163  -13.8609   19.9443 C   0  0  0  0  0  0  0  0  0  0  0  0
    7.6909  -12.7623   19.9676 C   0  0  0  0  0  0  0  0  0  0  0  0
    6.9080  -12.4952   18.8660 C   0  0  0  0  0  0  0  0  0  0  0  0
    6.9079  -13.2804   17.7271 C   0  0  0  0  0  0  0  0  0  0  0  0
    7.7534  -14.3793   17.7414 C   0  0  0  0  0  0  0  0  0  0  0  0
    8.5442  -14.6656   18.8300 C   0  0  0  0  0  0  0  0  0  0  0  0
    9.2335  -15.2013   23.3092 C   0  0  0  0  0  0  0  0  0  0  0  0
   10.4613  -14.9757   23.5328 O   0  0  0  0  0  0  0  0  0  0  0  0
    6.1227  -12.3148   26.4095 C   0  0  0  0  0  0  0  0  0  0  0  0
    7.2597  -13.0504   25.6962 C   0  0  0  0  0  0  0  0  0  0  0  0
    7.7307  -14.2229   26.5244 C   0  0  2  0  0  0  0  0  0  0  0  0
    8.1507  -13.7790   27.8977 C   0  0  0  0  0  0  0  0  0  0  0  0
    8.7253  -15.0541   25.7929 C   0  0  2  0  0  0  0  0  0  0  0  0
    8.3452  -15.2797   24.4064 N   0  0  0  0  0  0  0  0  0  0  0  0
    8.9209  -16.3813   26.4552 C   0  0  0  0  0  0  0  0  0  0  0  0
    7.9682  -17.1419   26.7604 O   0  0  0  0  0  0  0  0  0  0  0  0
   10.2159  -16.8587   26.7790 N   0  0  0  0  0  0  0  0  0  0  0  0
   10.3838  -18.1793   27.3938 C   0  0  1  0  0  0  0  0  0  0  0  0
   11.6394  -18.8446   26.9571 C   0  0  0  0  0  0  0  0  0  0  0  0
   11.6310  -19.0532   25.5065 C   0  0  0  0  0  0  0  0  0  0  0  0
   10.6046  -19.3822   24.6639 C   0  0  0  0  0  0  0  0  0  0  0  0
   11.0877  -19.3963   23.3863 N   0  0  0  0  0  0  0  0  0  0  0  0
   12.3807  -19.0838   23.4262 C   0  0  0  0  0  0  0  0  0  0  0  0
   12.7127  -18.8760   24.7012 N   0  0  0  0  0  0  0  0  0  0  0  0
   10.6139  -17.8104   28.8539 C   0  0  0  0  0  0  0  0  0  0  0  0
   10.7453  -16.5842   29.2017 O   0  0  0  0  0  0  0  0  0  0  0  0
   10.7001  -18.7082   29.8801 O   0  0  0  0  0  0  0  0  0  0  0  0
  2  1  1  1
  2 10  1  0
  3  2  1  0
  3  4  1  0
  4  9  1  0
  4  5  2  0
  5  6  1  0
  6  7  2  0
  8  7  1  0
  9  8  2  0
 10 11  2  0
 13 12  1  0
 14 13  1  0
 14 15  1  1
 16 14  1  0
 17 10  1  0
 16 17  1  6
 18 16  1  0
 18 19  2  0
 20 18  1  0
 21 20  1  0
 21 22  1  6
 23 24  2  0
 23 22  1  0
 25 24  1  0
 26 27  2  0
 26 25  1  0
 27 23  1  0
 28 30  1  0
 28 21  1  0
 29 28  2  0
M  END
$$$$
