FIH.pdb
     RDKit          3D

 30 31  0  0  1  0  0  0  0  0999 V2000
    6.0149  -16.6242   25.9309 N   0  0  0  0  0  0  0  0  0  0  0  0
    6.5300  -15.6831   24.9892 C   0  0  1  0  0  0  0  0  0  0  0  0
    7.5910  -14.7653   25.5730 C   0  0  0  0  0  0  0  0  0  0  0  0
    6.9961  -13.5312   26.1325 C   0  0  0  0  0  0  0  0  0  0  0  0
    7.7752  -12.5412   26.6817 C   0  0  0  0  0  0  0  0  0  0  0  0
    7.1622  -11.4156   27.1865 C   0  0  0  0  0  0  0  0  0  0  0  0
    5.7919  -11.2263   27.1703 C   0  0  0  0  0  0  0  0  0  0  0  0
    5.0398  -12.2466   26.6084 C   0  0  0  0  0  0  0  0  0  0  0  0
    5.6302  -13.3796   26.0981 C   0  0  0  0  0  0  0  0  0  0  0  0
    7.0925  -16.3247   23.7721 C   0  0  0  0  0  0  0  0  0  0  0  0
    6.3684  -17.1800   23.1783 O   0  0  0  0  0  0  0  0  0  0  0  0
    7.9598  -12.4398   19.8997 C   0  0  0  0  0  0  0  0  0  0  0  0
    8.1137  -13.9486   20.1059 C   0  0  0  0  0  0  0  0  0  0  0  0
    8.0032  -14.2944   21.5726 C   0  0  2  0  0  0  0  0  0  0  0  0
    8.4599  -13.1492   22.4324 C   0  0  0  0  0  0  0  0  0  0  0  0
    8.6284  -15.6095   21.8804 C   0  0  2  0  0  0  0  0  0  0  0  0
    8.3737  -16.0366   23.2482 N   0  0  0  0  0  0  0  0  0  0  0  0
   10.1077  -15.5763   21.6595 C   0  0  0  0  0  0  0  0  0  0  0  0
   10.6285  -15.4853   20.5194 O   0  0  0  0  0  0  0  0  0  0  0  0
   11.0160  -15.6471   22.7458 N   0  0  0  0  0  0  0  0  0  0  0  0
   12.1644  -16.5571   22.6900 C   0  0  1  0  0  0  0  0  0  0  0  0
   11.7466  -17.9815   22.6103 C   0  0  0  0  0  0  0  0  0  0  0  0
   11.1869  -18.4236   23.8906 C   0  0  0  0  0  0  0  0  0  0  0  0
   11.2428  -17.8462   25.1296 C   0  0  0  0  0  0  0  0  0  0  0  0
   10.5084  -18.6102   25.9913 N   0  0  0  0  0  0  0  0  0  0  0  0
   10.0047  -19.6376   25.3117 C   0  0  0  0  0  0  0  0  0  0  0  0
   10.4103  -19.5295   24.0457 N   0  0  0  0  0  0  0  0  0  0  0  0
   12.7452  -16.2337   21.3191 C   0  0  0  0  0  0  0  0  0  0  0  0
   12.1761  -15.3740   20.5583 O   0  0  0  0  0  0  0  0  0  0  0  0
   13.8711  -16.8037   20.7958 O   0  0  0  0  0  0  0  0  0  0  0  0
  2  1  1  1
  2 10  1  0
  3  2  1  0
  3  4  1  0
  4  9  1  0
  4  5  2  0
  5  6  1  0
  6  7  2  0
  8  7  1  0
  9  8  2  0
 10 11  2  0
 13 12  1  0
 14 13  1  0
 14 15  1  1
 16 14  1  0
 17 10  1  0
 16 17  1  1
 18 16  1  0
 18 19  2  0
 20 18  1  0
 21 20  1  0
 21 22  1  6
 23 24  2  0
 23 22  1  0
 25 24  1  0
 26 27  2  0
 26 25  1  0
 27 23  1  0
 28 30  1  0
 28 21  1  0
 29 28  2  0
M  END
$$$$
