FIH.pdb
     RDKit          3D

 30 31  0  0  1  0  0  0  0  0999 V2000
    8.0035  -19.2859   27.6292 N   0  0  0  0  0  0  0  0  0  0  0  0
    8.3470  -17.9010   27.5846 C   0  0  1  0  0  0  0  0  0  0  0  0
    9.8087  -17.6319   27.9009 C   0  0  0  0  0  0  0  0  0  0  0  0
    9.9797  -16.3701   28.6549 C   0  0  0  0  0  0  0  0  0  0  0  0
   10.9925  -15.4884   28.3625 C   0  0  0  0  0  0  0  0  0  0  0  0
   11.0996  -14.3301   29.1005 C   0  0  0  0  0  0  0  0  0  0  0  0
   10.2346  -14.0036   30.1296 C   0  0  0  0  0  0  0  0  0  0  0  0
    9.2262  -14.9177   30.3945 C   0  0  0  0  0  0  0  0  0  0  0  0
    9.0999  -16.0808   29.6708 C   0  0  0  0  0  0  0  0  0  0  0  0
    8.0314  -17.2640   26.2793 C   0  0  0  0  0  0  0  0  0  0  0  0
    7.8321  -18.0325   25.2904 O   0  0  0  0  0  0  0  0  0  0  0  0
    6.4009  -12.1584   26.6362 C   0  0  0  0  0  0  0  0  0  0  0  0
    6.1763  -13.4729   25.8849 C   0  0  0  0  0  0  0  0  0  0  0  0
    7.3475  -13.7684   24.9773 C   0  0  2  0  0  0  0  0  0  0  0  0
    7.2399  -12.9993   23.6904 C   0  0  0  0  0  0  0  0  0  0  0  0
    7.5765  -15.2313   24.8267 C   0  0  2  0  0  0  0  0  0  0  0  0
    7.9427  -15.8664   26.0838 N   0  0  0  0  0  0  0  0  0  0  0  0
    8.6460  -15.5160   23.8200 C   0  0  0  0  0  0  0  0  0  0  0  0
    8.4216  -15.5973   22.5861 O   0  0  0  0  0  0  0  0  0  0  0  0
    9.9937  -15.7126   24.2134 N   0  0  0  0  0  0  0  0  0  0  0  0
   11.0382  -15.9023   23.2018 C   0  0  1  0  0  0  0  0  0  0  0  0
   12.3329  -15.2994   23.6141 C   0  0  0  0  0  0  0  0  0  0  0  0
   13.3196  -15.4185   22.5370 C   0  0  0  0  0  0  0  0  0  0  0  0
   13.1468  -15.5998   21.1921 C   0  0  0  0  0  0  0  0  0  0  0  0
   14.3758  -15.5814   20.5964 N   0  0  0  0  0  0  0  0  0  0  0  0
   15.2940  -15.3926   21.5410 C   0  0  0  0  0  0  0  0  0  0  0  0
   14.6627  -15.2936   22.7118 N   0  0  0  0  0  0  0  0  0  0  0  0
   11.2593  -17.4082   23.2684 C   0  0  0  0  0  0  0  0  0  0  0  0
   10.8366  -18.0836   24.2720 O   0  0  0  0  0  0  0  0  0  0  0  0
   11.9000  -18.1446   22.3126 O   0  0  0  0  0  0  0  0  0  0  0  0
  2  1  1  6
  2 10  1  0
  3  2  1  0
  3  4  1  0
  4  9  1  0
  4  5  2  0
  5  6  1  0
  6  7  2  0
  8  7  1  0
  9  8  2  0
 10 11  2  0
 13 12  1  0
 14 13  1  0
 14 15  1  6
 16 14  1  0
 17 10  1  0
 16 17  1  1
 18 16  1  0
 18 19  2  0
 20 18  1  0
 21 20  1  0
 21 22  1  1
 23 24  2  0
 23 22  1  0
 25 24  1  0
 26 27  2  0
 26 25  1  0
 27 23  1  0
 28 30  1  0
 28 21  1  0
 29 28  2  0
M  END
$$$$
