FIH.pdb
     RDKit          3D

 30 31  0  0  1  0  0  0  0  0999 V2000
    5.7185  -16.2633   25.1611 N   0  0  0  0  0  0  0  0  0  0  0  0
    7.0141  -15.7406   24.8675 C   0  0  1  0  0  0  0  0  0  0  0  0
    7.5683  -14.8504   25.9672 C   0  0  0  0  0  0  0  0  0  0  0  0
    6.9202  -13.5201   25.9700 C   0  0  0  0  0  0  0  0  0  0  0  0
    5.9715  -13.1834   26.9057 C   0  0  0  0  0  0  0  0  0  0  0  0
    5.4043  -11.9290   26.8559 C   0  0  0  0  0  0  0  0  0  0  0  0
    5.7412  -10.9812   25.9061 C   0  0  0  0  0  0  0  0  0  0  0  0
    6.7016  -11.3579   24.9797 C   0  0  0  0  0  0  0  0  0  0  0  0
    7.2817  -12.6049   25.0099 C   0  0  0  0  0  0  0  0  0  0  0  0
    8.0177  -16.7983   24.5789 C   0  0  0  0  0  0  0  0  0  0  0  0
    7.8958  -17.8995   25.1961 O   0  0  0  0  0  0  0  0  0  0  0  0
   11.8961  -18.8107   20.2295 C   0  0  0  0  0  0  0  0  0  0  0  0
   11.6008  -18.7077   21.7278 C   0  0  0  0  0  0  0  0  0  0  0  0
   10.5529  -17.6506   21.9873 C   0  0  2  0  0  0  0  0  0  0  0  0
   10.9928  -16.3141   21.4586 C   0  0  0  0  0  0  0  0  0  0  0  0
   10.0999  -17.6558   23.4050 C   0  0  2  0  0  0  0  0  0  0  0  0
    9.0862  -16.6447   23.6657 N   0  0  0  0  0  0  0  0  0  0  0  0
   11.2433  -17.4372   24.3448 C   0  0  0  0  0  0  0  0  0  0  0  0
   11.9772  -16.4178   24.3058 O   0  0  0  0  0  0  0  0  0  0  0  0
   11.5642  -18.3871   25.3471 N   0  0  0  0  0  0  0  0  0  0  0  0
   12.7145  -18.1690   26.2300 C   0  0  1  0  0  0  0  0  0  0  0  0
   12.3197  -18.1213   27.6624 C   0  0  0  0  0  0  0  0  0  0  0  0
   11.7095  -16.8279   27.9828 C   0  0  0  0  0  0  0  0  0  0  0  0
   11.4121  -15.7636   27.1763 C   0  0  0  0  0  0  0  0  0  0  0  0
   10.7890  -14.8134   27.9343 N   0  0  0  0  0  0  0  0  0  0  0  0
   10.6969  -15.2693   29.1812 C   0  0  0  0  0  0  0  0  0  0  0  0
   11.2498  -16.4826   29.2154 N   0  0  0  0  0  0  0  0  0  0  0  0
   13.4768  -19.4783   26.0689 C   0  0  0  0  0  0  0  0  0  0  0  0
   12.9891  -20.4323   25.3662 O   0  0  0  0  0  0  0  0  0  0  0  0
   14.6917  -19.7469   26.6330 O   0  0  0  0  0  0  0  0  0  0  0  0
  2  1  1  1
  2 10  1  0
  3  2  1  0
  3  4  1  0
  4  9  1  0
  4  5  2  0
  5  6  1  0
  6  7  2  0
  8  7  1  0
  9  8  2  0
 10 11  2  0
 13 12  1  0
 14 13  1  0
 14 15  1  1
 16 14  1  0
 17 10  1  0
 16 17  1  6
 18 16  1  0
 18 19  2  0
 20 18  1  0
 21 20  1  0
 21 22  1  1
 23 24  2  0
 23 22  1  0
 25 24  1  0
 26 27  2  0
 26 25  1  0
 27 23  1  0
 28 30  1  0
 28 21  1  0
 29 28  2  0
M  END
$$$$
