FIH.pdb
     RDKit          3D

 30 31  0  0  1  0  0  0  0  0999 V2000
    6.0675  -16.2271   24.8609 N   0  0  0  0  0  0  0  0  0  0  0  0
    6.9475  -15.2606   24.2870 C   0  0  1  0  0  0  0  0  0  0  0  0
    7.9952  -14.7463   25.2601 C   0  0  0  0  0  0  0  0  0  0  0  0
    7.4651  -13.6517   26.1032 C   0  0  0  0  0  0  0  0  0  0  0  0
    6.3423  -13.8188   26.8779 C   0  0  0  0  0  0  0  0  0  0  0  0
    5.8979  -12.7618   27.6414 C   0  0  0  0  0  0  0  0  0  0  0  0
    6.5266  -11.5298   27.6706 C   0  0  0  0  0  0  0  0  0  0  0  0
    7.6555  -11.4000   26.8762 C   0  0  0  0  0  0  0  0  0  0  0  0
    8.1177  -12.4417   26.1056 C   0  0  0  0  0  0  0  0  0  0  0  0
    7.6477  -15.7576   23.0737 C   0  0  0  0  0  0  0  0  0  0  0  0
    7.9598  -16.9864   23.0449 O   0  0  0  0  0  0  0  0  0  0  0  0
    8.2636  -12.0963   20.3298 C   0  0  0  0  0  0  0  0  0  0  0  0
    7.4285  -13.3314   19.9834 C   0  0  0  0  0  0  0  0  0  0  0  0
    8.3259  -14.4812   19.5893 C   0  0  2  0  0  0  0  0  0  0  0  0
    7.8841  -15.0882   18.2871 C   0  0  0  0  0  0  0  0  0  0  0  0
    8.5158  -15.4444   20.7079 C   0  0  2  0  0  0  0  0  0  0  0  0
    7.9798  -14.9450   21.9653 N   0  0  0  0  0  0  0  0  0  0  0  0
    9.9616  -15.7752   20.9044 C   0  0  0  0  0  0  0  0  0  0  0  0
   10.8650  -15.3931   20.1188 O   0  0  0  0  0  0  0  0  0  0  0  0
   10.3956  -16.5517   22.0083 N   0  0  0  0  0  0  0  0  0  0  0  0
   11.7810  -17.0270   22.0777 C   0  0  1  0  0  0  0  0  0  0  0  0
   12.7606  -15.9132   21.9783 C   0  0  0  0  0  0  0  0  0  0  0  0
   13.2585  -15.7898   20.6055 C   0  0  0  0  0  0  0  0  0  0  0  0
   13.5931  -16.7531   19.6935 C   0  0  0  0  0  0  0  0  0  0  0  0
   13.9422  -16.1348   18.5267 N   0  0  0  0  0  0  0  0  0  0  0  0
   13.8288  -14.8205   18.7013 C   0  0  0  0  0  0  0  0  0  0  0  0
   13.4169  -14.6075   19.9519 N   0  0  0  0  0  0  0  0  0  0  0  0
   11.8679  -17.5081   23.5206 C   0  0  0  0  0  0  0  0  0  0  0  0
   10.8568  -17.4082   24.3012 O   0  0  0  0  0  0  0  0  0  0  0  0
   12.9786  -18.0621   24.0916 O   0  0  0  0  0  0  0  0  0  0  0  0
  2  1  1  1
  2 10  1  0
  3  2  1  0
  3  4  1  0
  4  9  1  0
  4  5  2  0
  5  6  1  0
  6  7  2  0
  8  7  1  0
  9  8  2  0
 10 11  2  0
 13 12  1  0
 14 13  1  0
 14 15  1  6
 16 14  1  0
 17 10  1  0
 16 17  1  1
 18 16  1  0
 18 19  2  0
 20 18  1  0
 21 20  1  0
 21 22  1  1
 23 24  2  0
 23 22  1  0
 25 24  1  0
 26 27  2  0
 26 25  1  0
 27 23  1  0
 28 30  1  0
 28 21  1  0
 29 28  2  0
M  END
$$$$
