FIH.pdb
     RDKit          3D

 30 31  0  0  1  0  0  0  0  0999 V2000
    6.4076  -17.3720   22.5669 N   0  0  0  0  0  0  0  0  0  0  0  0
    7.1040  -16.2563   22.0119 C   0  0  1  0  0  0  0  0  0  0  0  0
    6.1850  -15.2317   21.3679 C   0  0  0  0  0  0  0  0  0  0  0  0
    6.9496  -14.1997   20.6328 C   0  0  0  0  0  0  0  0  0  0  0  0
    7.5582  -14.4739   19.4315 C   0  0  0  0  0  0  0  0  0  0  0  0
    8.2559  -13.4709   18.7953 C   0  0  0  0  0  0  0  0  0  0  0  0
    8.3782  -12.1907   19.3051 C   0  0  0  0  0  0  0  0  0  0  0  0
    7.7508  -11.9528   20.5185 C   0  0  0  0  0  0  0  0  0  0  0  0
    7.0486  -12.9389   21.1718 C   0  0  0  0  0  0  0  0  0  0  0  0
    7.9598  -15.5520   23.0023 C   0  0  0  0  0  0  0  0  0  0  0  0
    9.1113  -15.1843   22.6184 O   0  0  0  0  0  0  0  0  0  0  0  0
    6.2371  -11.8958   26.4021 C   0  0  0  0  0  0  0  0  0  0  0  0
    7.2196  -12.6695   25.5196 C   0  0  0  0  0  0  0  0  0  0  0  0
    7.8183  -13.8261   26.2854 C   0  0  2  0  0  0  0  0  0  0  0  0
    8.6773  -13.3363   27.4175 C   0  0  0  0  0  0  0  0  0  0  0  0
    8.4632  -14.8157   25.3800 C   0  0  2  0  0  0  0  0  0  0  0  0
    7.5645  -15.2738   24.3310 N   0  0  0  0  0  0  0  0  0  0  0  0
    8.9583  -16.0074   26.1370 C   0  0  0  0  0  0  0  0  0  0  0  0
    8.2028  -16.7575   26.8048 O   0  0  0  0  0  0  0  0  0  0  0  0
   10.3318  -16.3589   26.1401 N   0  0  0  0  0  0  0  0  0  0  0  0
   10.7401  -17.7440   25.8856 C   0  0  1  0  0  0  0  0  0  0  0  0
   10.6202  -18.1080   24.4493 C   0  0  0  0  0  0  0  0  0  0  0  0
   10.9385  -19.5249   24.2515 C   0  0  0  0  0  0  0  0  0  0  0  0
   11.2437  -20.5005   25.1607 C   0  0  0  0  0  0  0  0  0  0  0  0
   11.3969  -21.6794   24.4880 N   0  0  0  0  0  0  0  0  0  0  0  0
   11.1925  -21.4501   23.1932 C   0  0  0  0  0  0  0  0  0  0  0  0
   10.9158  -20.1536   23.0456 N   0  0  0  0  0  0  0  0  0  0  0  0
   12.2377  -17.6766   26.1571 C   0  0  0  0  0  0  0  0  0  0  0  0
   12.8200  -18.6033   26.8235 O   0  0  0  0  0  0  0  0  0  0  0  0
   13.0608  -16.6698   25.7384 O   0  0  0  0  0  0  0  0  0  0  0  0
  2  1  1  1
  2 10  1  0
  3  2  1  0
  3  4  1  0
  4  9  1  0
  4  5  2  0
  5  6  1  0
  6  7  2  0
  8  7  1  0
  9  8  2  0
 10 11  2  0
 13 12  1  0
 14 13  1  0
 14 15  1  1
 16 14  1  0
 17 10  1  0
 16 17  1  6
 18 16  1  0
 18 19  2  0
 20 18  1  0
 21 20  1  0
 21 22  1  6
 23 24  2  0
 23 22  1  0
 25 24  1  0
 26 27  2  0
 26 25  1  0
 27 23  1  0
 28 30  1  0
 28 21  1  0
 29 28  2  0
M  END
$$$$
