FIH.pdb
     RDKit          3D

 30 31  0  0  1  0  0  0  0  0999 V2000
    5.3957  -17.3576   25.2626 N   0  0  0  0  0  0  0  0  0  0  0  0
    6.1771  -16.1809   25.0563 C   0  0  1  0  0  0  0  0  0  0  0  0
    6.8325  -15.6623   26.3253 C   0  0  0  0  0  0  0  0  0  0  0  0
    6.7911  -14.1847   26.3954 C   0  0  0  0  0  0  0  0  0  0  0  0
    7.9366  -13.4284   26.3279 C   0  0  0  0  0  0  0  0  0  0  0  0
    7.8328  -12.0566   26.3988 C   0  0  0  0  0  0  0  0  0  0  0  0
    6.6266  -11.3931   26.5356 C   0  0  0  0  0  0  0  0  0  0  0  0
    5.4938  -12.1900   26.6002 C   0  0  0  0  0  0  0  0  0  0  0  0
    5.5732  -13.5617   26.5314 C   0  0  0  0  0  0  0  0  0  0  0  0
    7.2356  -16.3571   24.0278 C   0  0  0  0  0  0  0  0  0  0  0  0
    7.8085  -17.4871   23.9707 O   0  0  0  0  0  0  0  0  0  0  0  0
    7.0796  -12.7500   19.9934 C   0  0  0  0  0  0  0  0  0  0  0  0
    7.1922  -14.1678   20.5591 C   0  0  0  0  0  0  0  0  0  0  0  0
    8.5908  -14.4218   21.0711 C   0  0  2  0  0  0  0  0  0  0  0  0
    9.5649  -14.5572   19.9344 C   0  0  0  0  0  0  0  0  0  0  0  0
    8.6232  -15.5237   22.0710 C   0  0  2  0  0  0  0  0  0  0  0  0
    7.6326  -15.3463   23.1223 N   0  0  0  0  0  0  0  0  0  0  0  0
    9.9730  -15.6471   22.7045 C   0  0  0  0  0  0  0  0  0  0  0  0
   10.4666  -14.7592   23.4443 O   0  0  0  0  0  0  0  0  0  0  0  0
   10.7805  -16.7941   22.4988 N   0  0  0  0  0  0  0  0  0  0  0  0
   12.0905  -16.9011   23.1490 C   0  0  1  0  0  0  0  0  0  0  0  0
   12.4598  -18.3124   23.4349 C   0  0  0  0  0  0  0  0  0  0  0  0
   11.6036  -18.8625   24.4896 C   0  0  0  0  0  0  0  0  0  0  0  0
   11.0743  -18.2680   25.6022 C   0  0  0  0  0  0  0  0  0  0  0  0
   10.2865  -19.1822   26.2420 N   0  0  0  0  0  0  0  0  0  0  0  0
   10.3196  -20.3181   25.5495 C   0  0  0  0  0  0  0  0  0  0  0  0
   11.1116  -20.1305   24.4927 N   0  0  0  0  0  0  0  0  0  0  0  0
   13.0252  -16.4626   22.0287 C   0  0  0  0  0  0  0  0  0  0  0  0
   12.5782  -16.2851   20.8410 O   0  0  0  0  0  0  0  0  0  0  0  0
   14.3634  -16.2308   22.1765 O   0  0  0  0  0  0  0  0  0  0  0  0
  2  1  1  1
  2 10  1  0
  3  2  1  0
  3  4  1  0
  4  9  1  0
  4  5  2  0
  5  6  1  0
  6  7  2  0
  8  7  1  0
  9  8  2  0
 10 11  2  0
 13 12  1  0
 14 13  1  0
 14 15  1  6
 16 14  1  0
 17 10  1  0
 16 17  1  1
 18 16  1  0
 18 19  2  0
 20 18  1  0
 21 20  1  0
 21 22  1  6
 23 24  2  0
 23 22  1  0
 25 24  1  0
 26 27  2  0
 26 25  1  0
 27 23  1  0
 28 30  1  0
 28 21  1  0
 29 28  2  0
M  END
$$$$
