YEL.pdb
     RDKit          3D

 30 30  0  0  1  0  0  0  0  0999 V2000
    7.3499  -11.9334   25.7418 O   0  0  0  0  0  0  0  0  0  0  0  0
    7.0971  -13.1629   25.1280 C   0  0  0  0  0  0  0  0  0  0  0  0
    7.3725  -13.3326   23.7933 C   0  0  0  0  0  0  0  0  0  0  0  0
    7.1332  -14.5465   23.1459 C   0  0  0  0  0  0  0  0  0  0  0  0
    6.6090  -15.6193   23.8339 C   0  0  0  0  0  0  0  0  0  0  0  0
    6.3342  -16.9337   23.1954 C   0  0  0  0  0  0  0  0  0  0  0  0
    7.3741  -17.2729   22.1471 C   0  0  2  0  0  0  0  0  0  0  0  0
    6.9489  -18.5034   21.5009 N   0  0  0  0  0  0  0  0  0  0  0  0
    8.6533  -17.5433   22.8365 C   0  0  0  0  0  0  0  0  0  0  0  0
    8.7337  -18.6540   23.4601 O   0  0  0  0  0  0  0  0  0  0  0  0
    6.3356  -15.4340   25.1813 C   0  0  0  0  0  0  0  0  0  0  0  0
    6.5720  -14.2375   25.8172 C   0  0  0  0  0  0  0  0  0  0  0  0
    9.7684  -16.6970   22.8635 N   0  0  0  0  0  0  0  0  0  0  0  0
   11.0603  -17.1040   23.3441 C   0  0  1  0  0  0  0  0  0  0  0  0
   12.1320  -16.6117   22.4387 C   0  0  0  0  0  0  0  0  0  0  0  0
   13.5337  -17.0027   22.7369 C   0  0  0  0  0  0  0  0  0  0  0  0
   14.6147  -16.5069   21.9229 C   0  0  0  0  0  0  0  0  0  0  0  0
   15.8115  -16.6401   22.1828 O   0  0  0  0  0  0  0  0  0  0  0  0
   11.2904  -16.9240   24.7777 C   0  0  0  0  0  0  0  0  0  0  0  0
   12.4438  -17.0315   25.3184 O   0  0  0  0  0  0  0  0  0  0  0  0
   14.3224  -15.8097   20.7283 O   0  0  0  0  0  0  0  0  0  0  0  0
   10.7717  -13.4148   28.0408 C   0  0  0  0  0  0  0  0  0  0  0  0
    9.5406  -14.1091   27.5749 C   0  0  2  0  0  0  0  0  0  0  0  0
    8.3369  -13.4768   28.2811 C   0  0  0  0  0  0  0  0  0  0  0  0
    9.4612  -15.5697   27.8219 C   0  0  0  0  0  0  0  0  0  0  0  0
   10.4391  -16.4364   27.1090 C   0  0  2  0  0  0  0  0  0  0  0  0
   10.2241  -16.6022   25.6970 N   0  0  0  0  0  0  0  0  0  0  0  0
   10.4404  -17.7685   27.7665 C   0  0  0  0  0  0  0  0  0  0  0  0
   10.0210  -18.7814   27.1250 O   0  0  0  0  0  0  0  0  0  0  0  0
   10.8757  -17.9912   29.0572 O   0  0  0  0  0  0  0  0  0  0  0  0
  2  1  1  0
  3  2  2  0
  4  3  1  0
  5  4  2  0
  5 11  1  0
  6  5  1  0
  7  8  1  1
  7  6  1  0
  9  7  1  0
  9 13  1  0
 10  9  2  0
 11 12  2  0
 12  2  1  0
 14 13  1  0
 14 15  1  6
 15 16  1  0
 16 17  1  0
 17 18  2  0
 17 21  1  0
 19 14  1  0
 20 19  2  0
 23 22  1  1
 23 24  1  0
 25 23  1  0
 26 25  1  1
 26 28  1  0
 26 27  1  0
 27 19  1  0
 28 30  1  0
 29 28  2  0
M  END
$$$$
