YEL.pdb
     RDKit          3D

 30 30  0  0  1  0  0  0  0  0999 V2000
    8.7635  -11.3586   19.8733 O   0  0  0  0  0  0  0  0  0  0  0  0
    8.1073  -12.5195   20.2905 C   0  0  0  0  0  0  0  0  0  0  0  0
    7.6480  -13.4196   19.3604 C   0  0  0  0  0  0  0  0  0  0  0  0
    6.9879  -14.5902   19.7396 C   0  0  0  0  0  0  0  0  0  0  0  0
    6.7763  -14.8790   21.0703 C   0  0  0  0  0  0  0  0  0  0  0  0
    6.0800  -16.1095   21.5303 C   0  0  0  0  0  0  0  0  0  0  0  0
    6.9308  -17.3448   21.3169 C   0  0  2  0  0  0  0  0  0  0  0  0
    6.0773  -18.4998   21.5417 N   0  0  0  0  0  0  0  0  0  0  0  0
    7.9906  -17.3589   22.3470 C   0  0  0  0  0  0  0  0  0  0  0  0
    7.6714  -17.8585   23.4773 O   0  0  0  0  0  0  0  0  0  0  0  0
    7.2454  -13.9613   21.9990 C   0  0  0  0  0  0  0  0  0  0  0  0
    7.8954  -12.8088   21.6235 C   0  0  0  0  0  0  0  0  0  0  0  0
    9.2962  -16.8778   22.1909 N   0  0  0  0  0  0  0  0  0  0  0  0
   10.3266  -17.0482   23.1782 C   0  0  1  0  0  0  0  0  0  0  0  0
   11.6522  -17.2129   22.5252 C   0  0  0  0  0  0  0  0  0  0  0  0
   11.7602  -18.1688   21.3934 C   0  0  0  0  0  0  0  0  0  0  0  0
   12.8911  -19.0572   21.2987 C   0  0  0  0  0  0  0  0  0  0  0  0
   14.0083  -18.7356   20.8913 O   0  0  0  0  0  0  0  0  0  0  0  0
   10.2748  -16.1292   24.3155 C   0  0  0  0  0  0  0  0  0  0  0  0
   11.0866  -15.1524   24.4612 O   0  0  0  0  0  0  0  0  0  0  0  0
   12.7494  -20.4075   21.6928 O   0  0  0  0  0  0  0  0  0  0  0  0
    8.4217  -12.3718   26.0706 C   0  0  0  0  0  0  0  0  0  0  0  0
    7.5796  -13.5962   25.9900 C   0  0  2  0  0  0  0  0  0  0  0  0
    6.1514  -13.2240   26.4014 C   0  0  0  0  0  0  0  0  0  0  0  0
    7.9829  -14.7436   26.8396 C   0  0  0  0  0  0  0  0  0  0  0  0
    9.2796  -15.4032   26.5245 C   0  0  2  0  0  0  0  0  0  0  0  0
    9.2904  -16.2533   25.3649 N   0  0  0  0  0  0  0  0  0  0  0  0
    9.6993  -16.1879   27.7141 C   0  0  0  0  0  0  0  0  0  0  0  0
    9.8930  -15.5912   28.8185 O   0  0  0  0  0  0  0  0  0  0  0  0
    9.8989  -17.5535   27.7061 O   0  0  0  0  0  0  0  0  0  0  0  0
  2  1  1  0
  3  2  2  0
  4  3  1  0
  5  4  2  0
  5 11  1  0
  6  5  1  0
  7  8  1  1
  7  6  1  0
  9  7  1  0
  9 13  1  0
 10  9  2  0
 11 12  2  0
 12  2  1  0
 14 13  1  0
 14 15  1  6
 15 16  1  0
 16 17  1  0
 17 18  2  0
 17 21  1  0
 19 14  1  0
 20 19  2  0
 23 22  1  1
 23 24  1  0
 25 23  1  0
 26 25  1  1
 26 28  1  0
 26 27  1  0
 27 19  1  0
 28 30  1  0
 29 28  2  0
M  END
$$$$
