YEL.pdb
     RDKit          3D

 30 30  0  0  1  0  0  0  0  0999 V2000
    8.4805  -12.3015   20.0673 O   0  0  0  0  0  0  0  0  0  0  0  0
    7.9150  -13.3033   20.8603 C   0  0  0  0  0  0  0  0  0  0  0  0
    7.4341  -14.4500   20.2771 C   0  0  0  0  0  0  0  0  0  0  0  0
    6.8624  -15.4725   21.0370 C   0  0  0  0  0  0  0  0  0  0  0  0
    6.7633  -15.3597   22.4069 C   0  0  0  0  0  0  0  0  0  0  0  0
    6.1644  -16.4163   23.2645 C   0  0  0  0  0  0  0  0  0  0  0  0
    6.8409  -17.7555   23.0540 C   0  0  2  0  0  0  0  0  0  0  0  0
    6.0193  -18.7607   23.7077 N   0  0  0  0  0  0  0  0  0  0  0  0
    8.1492  -17.7247   23.7411 C   0  0  0  0  0  0  0  0  0  0  0  0
    8.1505  -18.0798   24.9671 O   0  0  0  0  0  0  0  0  0  0  0  0
    7.2530  -14.1964   22.9828 C   0  0  0  0  0  0  0  0  0  0  0  0
    7.8157  -13.1903   22.2325 C   0  0  0  0  0  0  0  0  0  0  0  0
    9.3697  -17.3446   23.1701 N   0  0  0  0  0  0  0  0  0  0  0  0
   10.6233  -17.3994   23.8708 C   0  0  1  0  0  0  0  0  0  0  0  0
   11.7515  -17.1197   22.9435 C   0  0  0  0  0  0  0  0  0  0  0  0
   13.1345  -17.2087   23.4779 C   0  0  0  0  0  0  0  0  0  0  0  0
   14.2065  -16.4844   22.8428 C   0  0  0  0  0  0  0  0  0  0  0  0
   14.3999  -16.4338   21.6272 O   0  0  0  0  0  0  0  0  0  0  0  0
   10.6603  -16.7113   25.1614 C   0  0  0  0  0  0  0  0  0  0  0  0
   11.7043  -16.6640   25.8977 O   0  0  0  0  0  0  0  0  0  0  0  0
   15.1270  -15.7651   23.6389 O   0  0  0  0  0  0  0  0  0  0  0  0
    9.4187  -12.1067   26.7225 C   0  0  0  0  0  0  0  0  0  0  0  0
    8.3927  -13.1383   26.4094 C   0  0  2  0  0  0  0  0  0  0  0  0
    7.0080  -12.5157   26.6155 C   0  0  0  0  0  0  0  0  0  0  0  0
    8.4256  -14.3823   27.2171 C   0  0  0  0  0  0  0  0  0  0  0  0
    9.5440  -15.3312   26.9633 C   0  0  2  0  0  0  0  0  0  0  0  0
    9.5123  -16.0221   25.7027 N   0  0  0  0  0  0  0  0  0  0  0  0
    9.5668  -16.3238   28.0683 C   0  0  0  0  0  0  0  0  0  0  0  0
    9.6777  -15.9201   29.2674 O   0  0  0  0  0  0  0  0  0  0  0  0
    9.4737  -17.6882   27.8816 O   0  0  0  0  0  0  0  0  0  0  0  0
  2  1  1  0
  3  2  2  0
  4  3  1  0
  5  4  2  0
  5 11  1  0
  6  5  1  0
  7  8  1  1
  7  6  1  0
  9  7  1  0
  9 13  1  0
 10  9  2  0
 11 12  2  0
 12  2  1  0
 14 13  1  0
 14 15  1  6
 15 16  1  0
 16 17  1  0
 17 18  2  0
 17 21  1  0
 19 14  1  0
 20 19  2  0
 23 22  1  1
 23 24  1  0
 25 23  1  0
 26 25  1  1
 26 28  1  0
 26 27  1  0
 27 19  1  0
 28 30  1  0
 29 28  2  0
M  END
$$$$
