YEL.pdb
     RDKit          3D

 30 30  0  0  1  0  0  0  0  0999 V2000
    9.3439  -12.2517   18.9549 O   0  0  0  0  0  0  0  0  0  0  0  0
    8.4921  -13.1029   19.6636 C   0  0  0  0  0  0  0  0  0  0  0  0
    8.1940  -12.8364   20.9775 C   0  0  0  0  0  0  0  0  0  0  0  0
    7.3471  -13.6641   21.7174 C   0  0  0  0  0  0  0  0  0  0  0  0
    6.7806  -14.7826   21.1455 C   0  0  0  0  0  0  0  0  0  0  0  0
    5.8726  -15.6980   21.8859 C   0  0  0  0  0  0  0  0  0  0  0  0
    6.4239  -17.1083   21.9386 C   0  0  2  0  0  0  0  0  0  0  0  0
    5.4007  -17.9487   22.5383 N   0  0  0  0  0  0  0  0  0  0  0  0
    7.5964  -17.1121   22.8385 C   0  0  0  0  0  0  0  0  0  0  0  0
    7.3522  -17.2674   24.0817 O   0  0  0  0  0  0  0  0  0  0  0  0
    7.0902  -15.0397   19.8178 C   0  0  0  0  0  0  0  0  0  0  0  0
    7.9247  -14.2233   19.0907 C   0  0  0  0  0  0  0  0  0  0  0  0
    8.9329  -16.9621   22.4492 N   0  0  0  0  0  0  0  0  0  0  0  0
   10.0371  -17.0250   23.3670 C   0  0  1  0  0  0  0  0  0  0  0  0
   11.3214  -17.1550   22.6292 C   0  0  0  0  0  0  0  0  0  0  0  0
   12.5686  -17.3168   23.4195 C   0  0  0  0  0  0  0  0  0  0  0  0
   13.8246  -17.5537   22.7536 C   0  0  0  0  0  0  0  0  0  0  0  0
   14.2897  -18.6661   22.5006 O   0  0  0  0  0  0  0  0  0  0  0  0
   10.0129  -16.0501   24.4577 C   0  0  0  0  0  0  0  0  0  0  0  0
   10.3203  -14.8192   24.3008 O   0  0  0  0  0  0  0  0  0  0  0  0
   14.6127  -16.4539   22.3439 O   0  0  0  0  0  0  0  0  0  0  0  0
    8.0751  -12.6711   26.4330 C   0  0  0  0  0  0  0  0  0  0  0  0
    7.5019  -14.0436   26.4836 C   0  0  2  0  0  0  0  0  0  0  0  0
    6.0763  -13.9480   27.0368 C   0  0  0  0  0  0  0  0  0  0  0  0
    8.2182  -15.0381   27.3195 C   0  0  0  0  0  0  0  0  0  0  0  0
    9.5782  -15.4493   26.8759 C   0  0  2  0  0  0  0  0  0  0  0  0
    9.6304  -16.4063   25.8040 N   0  0  0  0  0  0  0  0  0  0  0  0
   10.3043  -15.9895   28.0540 C   0  0  0  0  0  0  0  0  0  0  0  0
   10.4914  -15.2458   29.0664 O   0  0  0  0  0  0  0  0  0  0  0  0
   10.8030  -17.2742   28.1301 O   0  0  0  0  0  0  0  0  0  0  0  0
  2  1  1  0
  3  2  2  0
  4  3  1  0
  5  4  2  0
  5 11  1  0
  6  5  1  0
  7  8  1  1
  7  6  1  0
  9  7  1  0
  9 13  1  0
 10  9  2  0
 11 12  2  0
 12  2  1  0
 14 13  1  0
 14 15  1  6
 15 16  1  0
 16 17  1  0
 17 18  2  0
 17 21  1  0
 19 14  1  0
 20 19  2  0
 23 22  1  1
 23 24  1  0
 25 23  1  0
 26 25  1  1
 26 28  1  0
 26 27  1  0
 27 19  1  0
 28 30  1  0
 29 28  2  0
M  END
$$$$
