YEL.pdb
     RDKit          3D

 30 30  0  0  1  0  0  0  0  0999 V2000
    8.5208  -11.7757   18.0416 O   0  0  0  0  0  0  0  0  0  0  0  0
    8.1034  -12.6642   19.0359 C   0  0  0  0  0  0  0  0  0  0  0  0
    8.9536  -12.9922   20.0634 C   0  0  0  0  0  0  0  0  0  0  0  0
    8.5716  -13.8762   21.0745 C   0  0  0  0  0  0  0  0  0  0  0  0
    7.3189  -14.4505   21.0707 C   0  0  0  0  0  0  0  0  0  0  0  0
    6.8598  -15.3976   22.1210 C   0  0  0  0  0  0  0  0  0  0  0  0
    7.3383  -16.8088   21.8473 C   0  0  2  0  0  0  0  0  0  0  0  0
    6.1922  -17.6895   22.0003 N   0  0  0  0  0  0  0  0  0  0  0  0
    8.3274  -17.1700   22.8846 C   0  0  0  0  0  0  0  0  0  0  0  0
    7.8595  -17.6860   23.9541 O   0  0  0  0  0  0  0  0  0  0  0  0
    6.4704  -14.1104   20.0271 C   0  0  0  0  0  0  0  0  0  0  0  0
    6.8486  -13.2394   19.0320 C   0  0  0  0  0  0  0  0  0  0  0  0
    9.7139  -16.9970   22.7952 N   0  0  0  0  0  0  0  0  0  0  0  0
   10.6307  -17.4021   23.8252 C   0  0  1  0  0  0  0  0  0  0  0  0
   11.9084  -17.8746   23.2294 C   0  0  0  0  0  0  0  0  0  0  0  0
   12.9330  -18.4502   24.1378 C   0  0  0  0  0  0  0  0  0  0  0  0
   14.1707  -18.9616   23.6052 C   0  0  0  0  0  0  0  0  0  0  0  0
   14.2903  -19.5247   22.5161 O   0  0  0  0  0  0  0  0  0  0  0  0
   10.7454  -16.4941   24.9666 C   0  0  0  0  0  0  0  0  0  0  0  0
   11.5688  -15.5168   25.0012 O   0  0  0  0  0  0  0  0  0  0  0  0
   15.3598  -18.8270   24.3578 O   0  0  0  0  0  0  0  0  0  0  0  0
    9.4031  -12.5259   27.0016 C   0  0  0  0  0  0  0  0  0  0  0  0
    8.6309  -13.7725   26.7472 C   0  0  2  0  0  0  0  0  0  0  0  0
    7.1399  -13.4513   26.8932 C   0  0  0  0  0  0  0  0  0  0  0  0
    8.9082  -14.9257   27.6383 C   0  0  0  0  0  0  0  0  0  0  0  0
   10.0764  -15.7839   27.3002 C   0  0  2  0  0  0  0  0  0  0  0  0
    9.9257  -16.6305   26.1479 N   0  0  0  0  0  0  0  0  0  0  0  0
   10.3942  -16.6193   28.4867 C   0  0  0  0  0  0  0  0  0  0  0  0
   10.6825  -16.0554   29.5877 O   0  0  0  0  0  0  0  0  0  0  0  0
   10.3987  -17.9995   28.4794 O   0  0  0  0  0  0  0  0  0  0  0  0
  2  1  1  0
  3  2  2  0
  4  3  1  0
  5  4  2  0
  5 11  1  0
  6  5  1  0
  7  8  1  1
  7  6  1  0
  9  7  1  0
  9 13  1  0
 10  9  2  0
 11 12  2  0
 12  2  1  0
 14 13  1  0
 14 15  1  6
 15 16  1  0
 16 17  1  0
 17 18  2  0
 17 21  1  0
 19 14  1  0
 20 19  2  0
 23 22  1  1
 23 24  1  0
 25 23  1  0
 26 25  1  1
 26 28  1  0
 26 27  1  0
 27 19  1  0
 28 30  1  0
 29 28  2  0
M  END
$$$$
