YEL.pdb
     RDKit          3D

 30 30  0  0  1  0  0  0  0  0999 V2000
    8.8011  -12.8205   18.5998 O   0  0  0  0  0  0  0  0  0  0  0  0
    8.1186  -13.6594   19.4845 C   0  0  0  0  0  0  0  0  0  0  0  0
    8.2825  -13.5061   20.8394 C   0  0  0  0  0  0  0  0  0  0  0  0
    7.6172  -14.3255   21.7537 C   0  0  0  0  0  0  0  0  0  0  0  0
    6.7691  -15.3208   21.3189 C   0  0  0  0  0  0  0  0  0  0  0  0
    6.0358  -16.2216   22.2472 C   0  0  0  0  0  0  0  0  0  0  0  0
    6.5419  -16.0889   23.6691 C   0  0  2  0  0  0  0  0  0  0  0  0
    6.8230  -14.6812   23.8968 N   0  0  0  0  0  0  0  0  0  0  0  0
    7.8177  -16.8275   23.7757 C   0  0  0  0  0  0  0  0  0  0  0  0
    7.7331  -18.0502   24.1320 O   0  0  0  0  0  0  0  0  0  0  0  0
    6.6128  -15.4645   19.9480 C   0  0  0  0  0  0  0  0  0  0  0  0
    7.2690  -14.6564   19.0490 C   0  0  0  0  0  0  0  0  0  0  0  0
    9.0929  -16.3077   23.5227 N   0  0  0  0  0  0  0  0  0  0  0  0
   10.3015  -17.0739   23.6565 C   0  0  1  0  0  0  0  0  0  0  0  0
   11.2372  -16.7705   22.5415 C   0  0  0  0  0  0  0  0  0  0  0  0
   12.5076  -17.5366   22.4666 C   0  0  0  0  0  0  0  0  0  0  0  0
   13.5157  -17.1783   21.5011 C   0  0  0  0  0  0  0  0  0  0  0  0
   13.2879  -16.8020   20.3504 O   0  0  0  0  0  0  0  0  0  0  0  0
   10.8839  -17.1124   24.9981 C   0  0  0  0  0  0  0  0  0  0  0  0
   12.0168  -17.6476   25.2523 O   0  0  0  0  0  0  0  0  0  0  0  0
   14.8808  -17.2504   21.8617 O   0  0  0  0  0  0  0  0  0  0  0  0
   10.9927  -13.2773   27.5669 C   0  0  0  0  0  0  0  0  0  0  0  0
    9.8836  -14.2219   27.8708 C   0  0  2  0  0  0  0  0  0  0  0  0
    8.9625  -13.5639   28.9034 C   0  0  0  0  0  0  0  0  0  0  0  0
   10.2635  -15.5463   28.4207 C   0  0  0  0  0  0  0  0  0  0  0  0
   10.7937  -16.5557   27.4638 C   0  0  2  0  0  0  0  0  0  0  0  0
   10.2204  -16.5383   26.1453 N   0  0  0  0  0  0  0  0  0  0  0  0
   10.6082  -17.9022   28.0634 C   0  0  0  0  0  0  0  0  0  0  0  0
    9.8431  -18.7396   27.4920 O   0  0  0  0  0  0  0  0  0  0  0  0
   11.2231  -18.3200   29.2263 O   0  0  0  0  0  0  0  0  0  0  0  0
  2  1  1  0
  3  2  2  0
  4  3  1  0
  5  4  2  0
  5 11  1  0
  6  5  1  0
  7  8  1  6
  7  6  1  0
  9  7  1  0
  9 13  1  0
 10  9  2  0
 11 12  2  0
 12  2  1  0
 14 13  1  0
 14 15  1  6
 15 16  1  0
 16 17  1  0
 17 18  2  0
 17 21  1  0
 19 14  1  0
 20 19  2  0
 23 22  1  1
 23 24  1  0
 25 23  1  0
 26 25  1  1
 26 28  1  0
 26 27  1  0
 27 19  1  0
 28 30  1  0
 29 28  2  0
M  END
$$$$
