YEL.pdb
     RDKit          3D

 30 30  0  0  1  0  0  0  0  0999 V2000
    7.2469  -11.2049   25.7327 O   0  0  0  0  0  0  0  0  0  0  0  0
    7.0138  -12.4661   25.1783 C   0  0  0  0  0  0  0  0  0  0  0  0
    6.2457  -13.3815   25.8552 C   0  0  0  0  0  0  0  0  0  0  0  0
    5.9911  -14.6512   25.3328 C   0  0  0  0  0  0  0  0  0  0  0  0
    6.5079  -15.0259   24.1115 C   0  0  0  0  0  0  0  0  0  0  0  0
    6.2692  -16.3637   23.5082 C   0  0  0  0  0  0  0  0  0  0  0  0
    6.7518  -17.4783   24.4138 C   0  0  2  0  0  0  0  0  0  0  0  0
    6.6792  -16.9857   25.7794 N   0  0  0  0  0  0  0  0  0  0  0  0
    8.1726  -17.7424   24.1037 C   0  0  0  0  0  0  0  0  0  0  0  0
    8.5912  -18.9244   24.3419 O   0  0  0  0  0  0  0  0  0  0  0  0
    7.2818  -14.0916   23.4386 C   0  0  0  0  0  0  0  0  0  0  0  0
    7.5314  -12.8414   23.9549 C   0  0  0  0  0  0  0  0  0  0  0  0
    9.0854  -16.8198   23.5784 N   0  0  0  0  0  0  0  0  0  0  0  0
   10.5101  -17.0048   23.6177 C   0  0  1  0  0  0  0  0  0  0  0  0
   11.1765  -16.1367   22.6113 C   0  0  0  0  0  0  0  0  0  0  0  0
   12.6551  -16.2129   22.4914 C   0  0  0  0  0  0  0  0  0  0  0  0
   13.2665  -16.5041   21.2192 C   0  0  0  0  0  0  0  0  0  0  0  0
   13.0362  -15.8987   20.1713 O   0  0  0  0  0  0  0  0  0  0  0  0
   11.1110  -17.0286   24.9515 C   0  0  0  0  0  0  0  0  0  0  0  0
   12.3741  -17.0406   25.1480 O   0  0  0  0  0  0  0  0  0  0  0  0
   14.2063  -17.5558   21.1240 O   0  0  0  0  0  0  0  0  0  0  0  0
   10.3363  -13.7139   27.9405 C   0  0  0  0  0  0  0  0  0  0  0  0
    9.4180  -14.8781   28.0678 C   0  0  2  0  0  0  0  0  0  0  0  0
    8.3623  -14.5429   29.1264 C   0  0  0  0  0  0  0  0  0  0  0  0
   10.0268  -16.1707   28.4670 C   0  0  0  0  0  0  0  0  0  0  0  0
   10.8867  -16.8582   27.4651 C   0  0  2  0  0  0  0  0  0  0  0  0
   10.3158  -17.0336   26.1572 N   0  0  0  0  0  0  0  0  0  0  0  0
   11.2694  -18.1832   28.0170 C   0  0  0  0  0  0  0  0  0  0  0  0
   10.8340  -19.2396   27.4621 O   0  0  0  0  0  0  0  0  0  0  0  0
   12.0849  -18.3542   29.1173 O   0  0  0  0  0  0  0  0  0  0  0  0
  2  1  1  0
  3  2  2  0
  4  3  1  0
  5  4  2  0
  5 11  1  0
  6  5  1  0
  7  8  1  1
  7  6  1  0
  9  7  1  0
  9 13  1  0
 10  9  2  0
 11 12  2  0
 12  2  1  0
 14 13  1  0
 14 15  1  6
 15 16  1  0
 16 17  1  0
 17 18  2  0
 17 21  1  0
 19 14  1  0
 20 19  2  0
 23 22  1  1
 23 24  1  0
 25 23  1  0
 26 25  1  1
 26 28  1  0
 26 27  1  0
 27 19  1  0
 28 30  1  0
 29 28  2  0
M  END
$$$$
