YEL.pdb
     RDKit          3D

 30 30  0  0  1  0  0  0  0  0999 V2000
    5.0815   -9.9905   26.2373 O   0  0  0  0  0  0  0  0  0  0  0  0
    5.7569  -11.1956   26.0278 C   0  0  0  0  0  0  0  0  0  0  0  0
    5.4287  -12.3036   26.7699 C   0  0  0  0  0  0  0  0  0  0  0  0
    6.0815  -13.5246   26.5887 C   0  0  0  0  0  0  0  0  0  0  0  0
    7.0831  -13.6544   25.6512 C   0  0  0  0  0  0  0  0  0  0  0  0
    7.8111  -14.9294   25.4163 C   0  0  0  0  0  0  0  0  0  0  0  0
    7.2120  -15.7099   24.2642 C   0  0  2  0  0  0  0  0  0  0  0  0
    5.9472  -16.2573   24.7262 N   0  0  0  0  0  0  0  0  0  0  0  0
    8.1100  -16.8432   23.9581 C   0  0  0  0  0  0  0  0  0  0  0  0
    8.0887  -17.8177   24.7821 O   0  0  0  0  0  0  0  0  0  0  0  0
    7.4043  -12.5275   24.9086 C   0  0  0  0  0  0  0  0  0  0  0  0
    6.7602  -11.3256   25.0887 C   0  0  0  0  0  0  0  0  0  0  0  0
    8.9697  -16.9377   22.8570 N   0  0  0  0  0  0  0  0  0  0  0  0
   10.3406  -17.3575   22.9562 C   0  0  1  0  0  0  0  0  0  0  0  0
   11.0218  -17.2282   21.6409 C   0  0  0  0  0  0  0  0  0  0  0  0
   12.4501  -17.6263   21.5509 C   0  0  0  0  0  0  0  0  0  0  0  0
   13.1358  -17.5888   20.2838 C   0  0  0  0  0  0  0  0  0  0  0  0
   12.6595  -17.1471   19.2371 O   0  0  0  0  0  0  0  0  0  0  0  0
   11.0758  -16.8572   24.1180 C   0  0  0  0  0  0  0  0  0  0  0  0
   11.5577  -15.6749   24.1830 O   0  0  0  0  0  0  0  0  0  0  0  0
   14.4558  -18.0867   20.1927 O   0  0  0  0  0  0  0  0  0  0  0  0
   10.1504  -15.1044   29.3368 C   0  0  0  0  0  0  0  0  0  0  0  0
   11.2647  -15.4517   28.4135 C   0  0  2  0  0  0  0  0  0  0  0  0
   12.0785  -14.1816   28.1447 C   0  0  0  0  0  0  0  0  0  0  0  0
   10.8895  -16.0060   27.0896 C   0  0  0  0  0  0  0  0  0  0  0  0
   11.7307  -17.1082   26.5481 C   0  0  2  0  0  0  0  0  0  0  0  0
   11.3089  -17.6658   25.2917 N   0  0  0  0  0  0  0  0  0  0  0  0
   11.7927  -18.1857   27.5689 C   0  0  0  0  0  0  0  0  0  0  0  0
   10.8083  -18.9775   27.7009 O   0  0  0  0  0  0  0  0  0  0  0  0
   12.8702  -18.3944   28.4057 O   0  0  0  0  0  0  0  0  0  0  0  0
  2  1  1  0
  3  2  2  0
  4  3  1  0
  5  4  2  0
  5 11  1  0
  6  5  1  0
  7  8  1  1
  7  6  1  0
  9  7  1  0
  9 13  1  0
 10  9  2  0
 11 12  2  0
 12  2  1  0
 14 13  1  0
 14 15  1  6
 15 16  1  0
 16 17  1  0
 17 18  2  0
 17 21  1  0
 19 14  1  0
 20 19  2  0
 23 22  1  1
 23 24  1  0
 25 23  1  0
 26 25  1  1
 26 28  1  0
 26 27  1  0
 27 19  1  0
 28 30  1  0
 29 28  2  0
M  END
$$$$
