FSP.pdb
     RDKit          3D

 25 26  0  0  1  0  0  0  0  0999 V2000
    6.0304  -18.3696   24.9680 N   0  0  0  0  0  0  0  0  0  0  0  0
    6.4092  -17.0128   25.2062 C   0  0  1  0  0  0  0  0  0  0  0  0
    7.5417  -16.9873   26.2008 C   0  0  0  0  0  0  0  0  0  0  0  0
    7.7670  -15.5837   26.5920 C   0  0  0  0  0  0  0  0  0  0  0  0
    6.7343  -14.7760   26.9935 C   0  0  0  0  0  0  0  0  0  0  0  0
    6.9515  -13.4430   27.3645 C   0  0  0  0  0  0  0  0  0  0  0  0
    8.2389  -12.9339   27.3233 C   0  0  0  0  0  0  0  0  0  0  0  0
    9.2825  -13.7407   26.9204 C   0  0  0  0  0  0  0  0  0  0  0  0
    9.0376  -15.0702   26.5547 C   0  0  0  0  0  0  0  0  0  0  0  0
    6.7120  -16.2641   23.9668 C   0  0  0  0  0  0  0  0  0  0  0  0
    7.0806  -16.9187   22.9584 O   0  0  0  0  0  0  0  0  0  0  0  0
    7.6805  -12.3170   23.9473 O   0  0  0  0  0  0  0  0  0  0  0  0
    6.8221  -12.6395   22.8960 C   0  0  0  0  0  0  0  0  0  0  0  0
    6.8420  -14.1297   22.6066 C   0  0  2  0  0  0  0  0  0  0  0  0
    6.6079  -14.8538   23.8598 N   0  0  0  0  0  0  0  0  0  0  0  0
    8.1146  -14.5676   21.9960 C   0  0  0  0  0  0  0  0  0  0  0  0
    9.0624  -15.0126   22.7345 O   0  0  0  0  0  0  0  0  0  0  0  0
    8.3724  -14.5322   20.5946 N   0  0  0  0  0  0  0  0  0  0  0  0
    7.4718  -14.1484   19.5452 C   0  0  0  0  0  0  0  0  0  0  0  0
    8.3958  -13.3461   18.6133 C   0  0  0  0  0  0  0  0  0  0  0  0
    9.5267  -14.3759   18.5249 C   0  0  0  0  0  0  0  0  0  0  0  0
    9.6491  -14.8902   19.9602 C   0  0  1  0  0  0  0  0  0  0  0  0
   10.7594  -14.1760   20.6490 C   0  0  0  0  0  0  0  0  0  0  0  0
   10.5028  -13.2027   21.5819 O   0  0  0  0  0  0  0  0  0  0  0  0
   11.9421  -14.4720   20.3662 O   0  0  0  0  0  0  0  0  0  0  0  0
  2  1  1  6
  2 10  1  0
  3  2  1  0
  4  5  2  0
  4  3  1  0
  6  5  1  0
  7  6  2  0
  8  7  1  0
  8  9  2  0
  9  4  1  0
 10 15  1  0
 10 11  2  0
 13 12  1  0
 14 13  1  1
 15 14  1  0
 16 14  1  0
 16 17  2  0
 18 16  1  0
 19 18  1  0
 20 19  1  0
 20 21  1  0
 21 22  1  0
 22 18  1  0
 22 23  1  1
 24 23  1  0
 25 23  2  0
M  END
$$$$
