FSP.pdb
     RDKit          3D

 25 26  0  0  1  0  0  0  0  0999 V2000
    5.7394  -17.8867   25.8507 N   0  0  0  0  0  0  0  0  0  0  0  0
    6.3747  -16.6529   25.5117 C   0  0  1  0  0  0  0  0  0  0  0  0
    7.0658  -16.1050   26.7343 C   0  0  0  0  0  0  0  0  0  0  0  0
    7.1612  -14.6417   26.5809 C   0  0  0  0  0  0  0  0  0  0  0  0
    8.3196  -14.0378   26.1643 C   0  0  0  0  0  0  0  0  0  0  0  0
    8.4071  -12.6475   26.0196 C   0  0  0  0  0  0  0  0  0  0  0  0
    7.2971  -11.8697   26.3046 C   0  0  0  0  0  0  0  0  0  0  0  0
    6.1286  -12.4704   26.7241 C   0  0  0  0  0  0  0  0  0  0  0  0
    6.0681  -13.8629   26.8605 C   0  0  0  0  0  0  0  0  0  0  0  0
    7.2720  -16.7598   24.3404 C   0  0  0  0  0  0  0  0  0  0  0  0
    8.1386  -17.6710   24.3434 O   0  0  0  0  0  0  0  0  0  0  0  0
    6.4372  -15.2195   20.4897 O   0  0  0  0  0  0  0  0  0  0  0  0
    7.6965  -14.9674   21.0345 C   0  0  0  0  0  0  0  0  0  0  0  0
    8.0781  -16.0275   22.0520 C   0  0  2  0  0  0  0  0  0  0  0  0
    7.2041  -15.8914   23.2213 N   0  0  0  0  0  0  0  0  0  0  0  0
    9.4947  -15.9305   22.4617 C   0  0  0  0  0  0  0  0  0  0  0  0
    9.9808  -14.8049   22.8336 O   0  0  0  0  0  0  0  0  0  0  0  0
   10.3911  -17.0387   22.4762 N   0  0  0  0  0  0  0  0  0  0  0  0
   10.0734  -18.4278   22.3058 C   0  0  0  0  0  0  0  0  0  0  0  0
   11.2409  -18.9141   21.4304 C   0  0  0  0  0  0  0  0  0  0  0  0
   12.3764  -18.3264   22.2744 C   0  0  0  0  0  0  0  0  0  0  0  0
   11.8453  -16.9478   22.6704 C   0  0  1  0  0  0  0  0  0  0  0  0
   12.4025  -15.9193   21.7489 C   0  0  0  0  0  0  0  0  0  0  0  0
   13.6182  -15.3324   21.9963 O   0  0  0  0  0  0  0  0  0  0  0  0
   11.7454  -15.5888   20.7362 O   0  0  0  0  0  0  0  0  0  0  0  0
  2  1  1  1
  2 10  1  0
  3  2  1  0
  4  5  2  0
  4  3  1  0
  6  5  1  0
  7  6  2  0
  8  7  1  0
  8  9  2  0
  9  4  1  0
 10 15  1  0
 10 11  2  0
 13 12  1  0
 14 13  1  6
 15 14  1  0
 16 14  1  0
 16 17  2  0
 18 16  1  0
 19 18  1  0
 20 19  1  0
 20 21  1  0
 21 22  1  0
 22 18  1  0
 22 23  1  6
 24 23  1  0
 25 23  2  0
M  END
$$$$
