FSP.pdb
     RDKit          3D

 25 26  0  0  1  0  0  0  0  0999 V2000
    8.1686  -15.8402   26.4357 N   0  0  0  0  0  0  0  0  0  0  0  0
    7.8573  -15.4421   25.0995 C   0  0  1  0  0  0  0  0  0  0  0  0
    8.2143  -13.9879   24.9253 C   0  0  0  0  0  0  0  0  0  0  0  0
    7.4555  -13.2142   25.9250 C   0  0  0  0  0  0  0  0  0  0  0  0
    6.0851  -13.1697   25.9089 C   0  0  0  0  0  0  0  0  0  0  0  0
    5.3671  -12.4338   26.8599 C   0  0  0  0  0  0  0  0  0  0  0  0
    6.0604  -11.7374   27.8360 C   0  0  0  0  0  0  0  0  0  0  0  0
    7.4389  -11.7777   27.8583 C   0  0  0  0  0  0  0  0  0  0  0  0
    8.1323  -12.5214   26.8953 C   0  0  0  0  0  0  0  0  0  0  0  0
    8.4683  -16.3138   24.0723 C   0  0  0  0  0  0  0  0  0  0  0  0
    9.2492  -17.2209   24.4582 O   0  0  0  0  0  0  0  0  0  0  0  0
   11.1890  -17.2044   20.7932 O   0  0  0  0  0  0  0  0  0  0  0  0
   10.1790  -17.2620   21.7537 C   0  0  0  0  0  0  0  0  0  0  0  0
    9.2891  -16.0337   21.6909 C   0  0  2  0  0  0  0  0  0  0  0  0
    8.2191  -16.1786   22.6828 N   0  0  0  0  0  0  0  0  0  0  0  0
    8.7118  -15.8248   20.3466 C   0  0  0  0  0  0  0  0  0  0  0  0
    8.3845  -16.8310   19.6241 O   0  0  0  0  0  0  0  0  0  0  0  0
    8.4819  -14.5390   19.7761 N   0  0  0  0  0  0  0  0  0  0  0  0
    8.6196  -13.2591   20.4104 C   0  0  0  0  0  0  0  0  0  0  0  0
    9.2576  -12.4186   19.2913 C   0  0  0  0  0  0  0  0  0  0  0  0
    8.2727  -12.7935   18.1793 C   0  0  0  0  0  0  0  0  0  0  0  0
    8.0538  -14.2923   18.3916 C   0  0  1  0  0  0  0  0  0  0  0  0
    8.9293  -15.0571   17.4611 C   0  0  0  0  0  0  0  0  0  0  0  0
   10.2026  -15.4182   17.8243 O   0  0  0  0  0  0  0  0  0  0  0  0
    8.4909  -15.3704   16.3314 O   0  0  0  0  0  0  0  0  0  0  0  0
  2  1  1  1
  2 10  1  0
  3  2  1  0
  4  5  2  0
  4  3  1  0
  6  5  1  0
  7  6  2  0
  8  7  1  0
  8  9  2  0
  9  4  1  0
 10 15  1  0
 10 11  2  0
 13 12  1  0
 14 13  1  6
 15 14  1  0
 16 14  1  0
 16 17  2  0
 18 16  1  0
 19 18  1  0
 20 19  1  0
 20 21  1  0
 21 22  1  0
 22 18  1  0
 22 23  1  6
 24 23  1  0
 25 23  2  0
M  END
$$$$
