FSP.pdb
     RDKit          3D

 25 26  0  0  1  0  0  0  0  0999 V2000
    8.4115  -16.4620   26.6774 N   0  0  0  0  0  0  0  0  0  0  0  0
    8.4957  -15.4704   25.6523 C   0  0  1  0  0  0  0  0  0  0  0  0
    9.0237  -14.1910   26.2498 C   0  0  0  0  0  0  0  0  0  0  0  0
    7.8670  -13.3600   26.6308 C   0  0  0  0  0  0  0  0  0  0  0  0
    7.9306  -12.4788   27.6794 C   0  0  0  0  0  0  0  0  0  0  0  0
    6.8301  -11.6908   28.0390 C   0  0  0  0  0  0  0  0  0  0  0  0
    5.6539  -11.8074   27.3169 C   0  0  0  0  0  0  0  0  0  0  0  0
    5.5826  -12.6917   26.2609 C   0  0  0  0  0  0  0  0  0  0  0  0
    6.6981  -13.4679   25.9225 C   0  0  0  0  0  0  0  0  0  0  0  0
    9.2645  -15.9159   24.4697 C   0  0  0  0  0  0  0  0  0  0  0  0
   10.4397  -16.3253   24.6510 O   0  0  0  0  0  0  0  0  0  0  0  0
   10.3403  -17.7781   21.9744 O   0  0  0  0  0  0  0  0  0  0  0  0
   10.7327  -16.4436   21.8691 C   0  0  0  0  0  0  0  0  0  0  0  0
    9.5417  -15.5091   21.9836 C   0  0  2  0  0  0  0  0  0  0  0  0
    8.7459  -15.9044   23.1498 N   0  0  0  0  0  0  0  0  0  0  0  0
    8.7013  -15.5167   20.7680 C   0  0  0  0  0  0  0  0  0  0  0  0
    8.1661  -16.6082   20.3632 O   0  0  0  0  0  0  0  0  0  0  0  0
    8.4310  -14.3557   19.9865 N   0  0  0  0  0  0  0  0  0  0  0  0
    8.7557  -12.9927   20.2971 C   0  0  0  0  0  0  0  0  0  0  0  0
    9.2054  -12.4549   18.9279 C   0  0  0  0  0  0  0  0  0  0  0  0
    8.0044  -12.9534   18.1178 C   0  0  0  0  0  0  0  0  0  0  0  0
    7.7543  -14.3531   18.6816 C   0  0  1  0  0  0  0  0  0  0  0  0
    8.3907  -15.3653   17.7941 C   0  0  0  0  0  0  0  0  0  0  0  0
    9.6854  -15.7716   17.9996 O   0  0  0  0  0  0  0  0  0  0  0  0
    7.7291  -15.8471   16.8472 O   0  0  0  0  0  0  0  0  0  0  0  0
  2  1  1  1
  2 10  1  0
  3  2  1  0
  4  5  2  0
  4  3  1  0
  6  5  1  0
  7  6  2  0
  8  7  1  0
  8  9  2  0
  9  4  1  0
 10 15  1  0
 10 11  2  0
 13 12  1  0
 14 13  1  6
 15 14  1  0
 16 14  1  0
 16 17  2  0
 18 16  1  0
 19 18  1  0
 20 19  1  0
 20 21  1  0
 21 22  1  0
 22 18  1  0
 22 23  1  6
 24 23  1  0
 25 23  2  0
M  END
$$$$
