FSP.pdb
     RDKit          3D

 25 26  0  0  1  0  0  0  0  0999 V2000
    8.5528  -16.7988   27.0684 N   0  0  0  0  0  0  0  0  0  0  0  0
    7.8616  -16.5618   25.8408 C   0  0  1  0  0  0  0  0  0  0  0  0
    6.5565  -15.8685   26.1388 C   0  0  0  0  0  0  0  0  0  0  0  0
    6.8544  -14.4562   26.4399 C   0  0  0  0  0  0  0  0  0  0  0  0
    7.6116  -14.0981   27.5256 C   0  0  0  0  0  0  0  0  0  0  0  0
    7.8928  -12.7557   27.8090 C   0  0  0  0  0  0  0  0  0  0  0  0
    7.3933  -11.7719   26.9718 C   0  0  0  0  0  0  0  0  0  0  0  0
    6.6310  -12.1248   25.8778 C   0  0  0  0  0  0  0  0  0  0  0  0
    6.3648  -13.4748   25.6174 C   0  0  0  0  0  0  0  0  0  0  0  0
    8.6799  -15.8459   24.8377 C   0  0  0  0  0  0  0  0  0  0  0  0
    9.7063  -15.2400   25.2388 O   0  0  0  0  0  0  0  0  0  0  0  0
   10.7022  -16.9142   22.3416 O   0  0  0  0  0  0  0  0  0  0  0  0
   10.6065  -15.5408   22.5663 C   0  0  0  0  0  0  0  0  0  0  0  0
    9.1669  -15.0673   22.4756 C   0  0  2  0  0  0  0  0  0  0  0  0
    8.3668  -15.8090   23.4551 N   0  0  0  0  0  0  0  0  0  0  0  0
    8.6016  -15.2403   21.1212 C   0  0  0  0  0  0  0  0  0  0  0  0
    8.4587  -16.4147   20.6294 O   0  0  0  0  0  0  0  0  0  0  0  0
    8.1863  -14.1567   20.2936 N   0  0  0  0  0  0  0  0  0  0  0  0
    8.1388  -12.7624   20.6301 C   0  0  0  0  0  0  0  0  0  0  0  0
    8.6452  -12.1068   19.3341 C   0  0  0  0  0  0  0  0  0  0  0  0
    7.7220  -12.8516   18.3644 C   0  0  0  0  0  0  0  0  0  0  0  0
    7.7233  -14.2827   18.9042 C   0  0  1  0  0  0  0  0  0  0  0  0
    8.6978  -15.1022   18.1321 C   0  0  0  0  0  0  0  0  0  0  0  0
    8.3266  -15.7367   16.9732 O   0  0  0  0  0  0  0  0  0  0  0  0
    9.8712  -15.2108   18.5538 O   0  0  0  0  0  0  0  0  0  0  0  0
  2  1  1  1
  2 10  1  0
  3  2  1  0
  4  5  2  0
  4  3  1  0
  6  5  1  0
  7  6  2  0
  8  7  1  0
  8  9  2  0
  9  4  1  0
 10 15  1  0
 10 11  2  0
 13 12  1  0
 14 13  1  6
 15 14  1  0
 16 14  1  0
 16 17  2  0
 18 16  1  0
 19 18  1  0
 20 19  1  0
 20 21  1  0
 21 22  1  0
 22 18  1  0
 22 23  1  6
 24 23  1  0
 25 23  2  0
M  END
$$$$
