FSP.pdb
     RDKit          3D

 25 26  0  0  1  0  0  0  0  0999 V2000
    5.6523  -17.5569   25.8247 N   0  0  0  0  0  0  0  0  0  0  0  0
    6.3551  -16.3719   25.4466 C   0  0  1  0  0  0  0  0  0  0  0  0
    7.1644  -15.8857   26.6218 C   0  0  0  0  0  0  0  0  0  0  0  0
    7.0986  -14.4129   26.6365 C   0  0  0  0  0  0  0  0  0  0  0  0
    8.2125  -13.6425   26.4218 C   0  0  0  0  0  0  0  0  0  0  0  0
    8.1468  -12.2436   26.4364 C   0  0  0  0  0  0  0  0  0  0  0  0
    6.9283  -11.6292   26.6732 C   0  0  0  0  0  0  0  0  0  0  0  0
    5.8037  -12.3978   26.8900 C   0  0  0  0  0  0  0  0  0  0  0  0
    5.8972  -13.7950   26.8700 C   0  0  0  0  0  0  0  0  0  0  0  0
    7.1627  -16.5379   24.2184 C   0  0  0  0  0  0  0  0  0  0  0  0
    7.7930  -17.6158   24.0690 O   0  0  0  0  0  0  0  0  0  0  0  0
    8.7445  -14.5552   20.0043 O   0  0  0  0  0  0  0  0  0  0  0  0
    7.9423  -14.4751   21.1427 C   0  0  0  0  0  0  0  0  0  0  0  0
    8.1174  -15.6970   22.0265 C   0  0  2  0  0  0  0  0  0  0  0  0
    7.2612  -15.5484   23.2073 N   0  0  0  0  0  0  0  0  0  0  0  0
    9.5224  -15.8969   22.4388 C   0  0  0  0  0  0  0  0  0  0  0  0
   10.1051  -15.0281   23.1787 O   0  0  0  0  0  0  0  0  0  0  0  0
   10.3037  -17.0279   22.0620 N   0  0  0  0  0  0  0  0  0  0  0  0
    9.8560  -18.2291   21.4168 C   0  0  0  0  0  0  0  0  0  0  0  0
   10.9988  -18.4992   20.4233 C   0  0  0  0  0  0  0  0  0  0  0  0
   12.1575  -18.3649   21.4166 C   0  0  0  0  0  0  0  0  0  0  0  0
   11.7523  -17.1632   22.2717 C   0  0  1  0  0  0  0  0  0  0  0  0
   12.4396  -15.9423   21.7672 C   0  0  0  0  0  0  0  0  0  0  0  0
   11.8789  -15.1726   20.7789 O   0  0  0  0  0  0  0  0  0  0  0  0
   13.5462  -15.6206   22.2556 O   0  0  0  0  0  0  0  0  0  0  0  0
  2  1  1  1
  2 10  1  0
  3  2  1  0
  4  5  2  0
  4  3  1  0
  6  5  1  0
  7  6  2  0
  8  7  1  0
  8  9  2  0
  9  4  1  0
 10 15  1  0
 10 11  2  0
 13 12  1  0
 14 13  1  6
 15 14  1  0
 16 14  1  0
 16 17  2  0
 18 16  1  0
 19 18  1  0
 20 19  1  0
 20 21  1  0
 21 22  1  0
 22 18  1  0
 22 23  1  6
 24 23  1  0
 25 23  2  0
M  END
$$$$
