FSP.pdb
     RDKit          3D

 25 26  0  0  1  0  0  0  0  0999 V2000
    6.9934  -17.4195   20.0992 N   0  0  0  0  0  0  0  0  0  0  0  0
    8.0481  -17.1321   21.0191 C   0  0  1  0  0  0  0  0  0  0  0  0
    9.0367  -16.2060   20.3577 C   0  0  0  0  0  0  0  0  0  0  0  0
    8.3793  -14.8987   20.1774 C   0  0  0  0  0  0  0  0  0  0  0  0
    8.2426  -14.0146   21.2166 C   0  0  0  0  0  0  0  0  0  0  0  0
    7.6176  -12.7735   21.0421 C   0  0  0  0  0  0  0  0  0  0  0  0
    7.1284  -12.4359   19.7911 C   0  0  0  0  0  0  0  0  0  0  0  0
    7.2624  -13.3203   18.7412 C   0  0  0  0  0  0  0  0  0  0  0  0
    7.8917  -14.5550   18.9430 C   0  0  0  0  0  0  0  0  0  0  0  0
    7.5653  -16.6260   22.3226 C   0  0  0  0  0  0  0  0  0  0  0  0
    6.3944  -16.1710   22.3808 O   0  0  0  0  0  0  0  0  0  0  0  0
    7.2716  -18.3348   25.3746 O   0  0  0  0  0  0  0  0  0  0  0  0
    6.8179  -17.0161   25.3393 C   0  0  0  0  0  0  0  0  0  0  0  0
    7.8773  -16.0844   24.7786 C   0  0  2  0  0  0  0  0  0  0  0  0
    8.3520  -16.6282   23.5025 N   0  0  0  0  0  0  0  0  0  0  0  0
    9.0125  -15.8994   25.7066 C   0  0  0  0  0  0  0  0  0  0  0  0
    9.8827  -16.8286   25.8511 O   0  0  0  0  0  0  0  0  0  0  0  0
    9.2184  -14.7188   26.4783 N   0  0  0  0  0  0  0  0  0  0  0  0
    8.4670  -13.4970   26.4321 C   0  0  0  0  0  0  0  0  0  0  0  0
    8.3793  -13.1232   27.9216 C   0  0  0  0  0  0  0  0  0  0  0  0
    9.8680  -13.2764   28.2497 C   0  0  0  0  0  0  0  0  0  0  0  0
   10.2682  -14.5434   27.4921 C   0  0  1  0  0  0  0  0  0  0  0  0
   10.2516  -15.7040   28.4249 C   0  0  0  0  0  0  0  0  0  0  0  0
   11.3088  -15.9516   29.2644 O   0  0  0  0  0  0  0  0  0  0  0  0
    9.2557  -16.4619   28.4366 O   0  0  0  0  0  0  0  0  0  0  0  0
  2  1  1  6
  2 10  1  0
  3  2  1  0
  4  5  2  0
  4  3  1  0
  6  5  1  0
  7  6  2  0
  8  7  1  0
  8  9  2  0
  9  4  1  0
 10 15  1  0
 10 11  2  0
 13 12  1  0
 14 13  1  1
 15 14  1  0
 16 14  1  0
 16 17  2  0
 18 16  1  0
 19 18  1  0
 20 19  1  0
 20 21  1  0
 21 22  1  0
 22 18  1  0
 22 23  1  1
 24 23  1  0
 25 23  2  0
M  END
$$$$
