FSP.pdb
     RDKit          3D

 25 26  0  0  1  0  0  0  0  0999 V2000
    8.4598  -16.7195   27.1825 N   0  0  0  0  0  0  0  0  0  0  0  0
    7.8163  -16.5884   25.9138 C   0  0  1  0  0  0  0  0  0  0  0  0
    6.4580  -15.9662   26.1148 C   0  0  0  0  0  0  0  0  0  0  0  0
    6.6560  -14.5340   26.4034 C   0  0  0  0  0  0  0  0  0  0  0  0
    6.0550  -13.5599   25.6483 C   0  0  0  0  0  0  0  0  0  0  0  0
    6.2451  -12.2002   25.9250 C   0  0  0  0  0  0  0  0  0  0  0  0
    7.0587  -11.8361   26.9851 C   0  0  0  0  0  0  0  0  0  0  0  0
    7.6665  -12.8106   27.7489 C   0  0  0  0  0  0  0  0  0  0  0  0
    7.4595  -14.1632   27.4505 C   0  0  0  0  0  0  0  0  0  0  0  0
    8.6372  -15.8721   24.9130 C   0  0  0  0  0  0  0  0  0  0  0  0
    9.6678  -15.2744   25.3155 O   0  0  0  0  0  0  0  0  0  0  0  0
   10.5534  -17.0625   22.6136 O   0  0  0  0  0  0  0  0  0  0  0  0
   10.5572  -15.6676   22.6053 C   0  0  0  0  0  0  0  0  0  0  0  0
    9.1448  -15.1137   22.5487 C   0  0  2  0  0  0  0  0  0  0  0  0
    8.3220  -15.8261   23.5311 N   0  0  0  0  0  0  0  0  0  0  0  0
    8.5469  -15.2328   21.2025 C   0  0  0  0  0  0  0  0  0  0  0  0
    8.2061  -16.3819   20.7497 O   0  0  0  0  0  0  0  0  0  0  0  0
    8.3109  -14.1218   20.3412 N   0  0  0  0  0  0  0  0  0  0  0  0
    8.5820  -12.7365   20.6002 C   0  0  0  0  0  0  0  0  0  0  0  0
    9.1211  -12.2603   19.2405 C   0  0  0  0  0  0  0  0  0  0  0  0
    7.9951  -12.8313   18.3726 C   0  0  0  0  0  0  0  0  0  0  0  0
    7.7337  -14.2052   18.9919 C   0  0  1  0  0  0  0  0  0  0  0  0
    8.4563  -15.2462   18.2100 C   0  0  0  0  0  0  0  0  0  0  0  0
    9.7472  -15.5943   18.5199 O   0  0  0  0  0  0  0  0  0  0  0  0
    7.8716  -15.8068   17.2559 O   0  0  0  0  0  0  0  0  0  0  0  0
  2  1  1  1
  2 10  1  0
  3  2  1  0
  4  5  2  0
  4  3  1  0
  6  5  1  0
  7  6  2  0
  8  7  1  0
  8  9  2  0
  9  4  1  0
 10 15  1  0
 10 11  2  0
 13 12  1  0
 14 13  1  6
 15 14  1  0
 16 14  1  0
 16 17  2  0
 18 16  1  0
 19 18  1  0
 20 19  1  0
 20 21  1  0
 21 22  1  0
 22 18  1  0
 22 23  1  6
 24 23  1  0
 25 23  2  0
M  END
$$$$
