FSP.pdb
     RDKit          3D

 25 26  0  0  1  0  0  0  0  0999 V2000
   10.1068  -17.6620   21.5244 N   0  0  0  0  0  0  0  0  0  0  0  0
    9.6204  -16.3252   21.3928 C   0  0  1  0  0  0  0  0  0  0  0  0
    8.5481  -16.2956   20.3336 C   0  0  0  0  0  0  0  0  0  0  0  0
    8.2030  -14.8848   20.0803 C   0  0  0  0  0  0  0  0  0  0  0  0
    8.8519  -14.1479   19.1231 C   0  0  0  0  0  0  0  0  0  0  0  0
    8.5218  -12.8079   18.8849 C   0  0  0  0  0  0  0  0  0  0  0  0
    7.5176  -12.2182   19.6345 C   0  0  0  0  0  0  0  0  0  0  0  0
    6.8605  -12.9534   20.5990 C   0  0  0  0  0  0  0  0  0  0  0  0
    7.2104  -14.2919   20.8169 C   0  0  0  0  0  0  0  0  0  0  0  0
    9.1814  -15.7337   22.6757 C   0  0  0  0  0  0  0  0  0  0  0  0
    9.5913  -14.5802   22.9634 O   0  0  0  0  0  0  0  0  0  0  0  0
    7.0479  -17.4726   26.4359 O   0  0  0  0  0  0  0  0  0  0  0  0
    6.7632  -16.5390   25.4393 C   0  0  0  0  0  0  0  0  0  0  0  0
    8.0297  -15.8755   24.9288 C   0  0  2  0  0  0  0  0  0  0  0  0
    8.3268  -16.3984   23.5916 N   0  0  0  0  0  0  0  0  0  0  0  0
    9.1818  -16.0945   25.8282 C   0  0  0  0  0  0  0  0  0  0  0  0
    9.8841  -17.1612   25.7252 O   0  0  0  0  0  0  0  0  0  0  0  0
    9.5845  -15.1708   26.8363 N   0  0  0  0  0  0  0  0  0  0  0  0
    9.0415  -13.8694   27.1027 C   0  0  0  0  0  0  0  0  0  0  0  0
    9.0301  -13.8402   28.6405 C   0  0  0  0  0  0  0  0  0  0  0  0
   10.4771  -14.2955   28.8556 C   0  0  0  0  0  0  0  0  0  0  0  0
   10.6585  -15.4002   27.8133 C   0  0  1  0  0  0  0  0  0  0  0  0
   10.4623  -16.7274   28.4593 C   0  0  0  0  0  0  0  0  0  0  0  0
   11.4181  -17.2583   29.2888 O   0  0  0  0  0  0  0  0  0  0  0  0
    9.4077  -17.3634   28.2362 O   0  0  0  0  0  0  0  0  0  0  0  0
  2  1  1  1
  2 10  1  0
  3  2  1  0
  4  5  2  0
  4  3  1  0
  6  5  1  0
  7  6  2  0
  8  7  1  0
  8  9  2  0
  9  4  1  0
 10 15  1  0
 10 11  2  0
 13 12  1  0
 14 13  1  1
 15 14  1  0
 16 14  1  0
 16 17  2  0
 18 16  1  0
 19 18  1  0
 20 19  1  0
 20 21  1  0
 21 22  1  0
 22 18  1  0
 22 23  1  1
 24 23  1  0
 25 23  2  0
M  END
$$$$
