KRE.pdb
     RDKit          3D

 30 29  0  0  1  0  0  0  0  0999 V2000
    8.8304  -19.3242   18.4980 N   0  0  0  0  0  0  0  0  0  0  0  0
    8.1943  -19.1095   19.7791 C   0  0  1  0  0  0  0  0  0  0  0  0
    7.9693  -20.4700   20.4121 C   0  0  0  0  0  0  0  0  0  0  0  0
    7.2406  -21.2955   19.3742 C   0  0  0  0  0  0  0  0  0  0  0  0
    6.9526  -22.6944   19.8377 C   0  0  0  0  0  0  0  0  0  0  0  0
    6.2257  -23.5212   18.8300 C   0  0  0  0  0  0  0  0  0  0  0  0
    6.0324  -24.8473   19.3964 N   0  0  0  0  0  0  0  0  0  0  0  0
    8.9956  -18.2044   20.6167 C   0  0  0  0  0  0  0  0  0  0  0  0
   10.2515  -18.1757   20.6035 O   0  0  0  0  0  0  0  0  0  0  0  0
    7.7360  -13.1801   17.2067 N   0  0  0  0  0  0  0  0  0  0  0  0
    7.7668  -12.9859   18.6053 C   0  0  0  0  0  0  0  0  0  0  0  0
    7.6935  -11.7857   19.0619 N   0  0  0  0  0  0  0  0  0  0  0  0
    7.8768  -14.1163   19.4730 N   0  0  0  0  0  0  0  0  0  0  0  0
    7.1822  -14.1780   20.7193 C   0  0  0  0  0  0  0  0  0  0  0  0
    8.1068  -14.0849   21.9263 C   0  0  0  0  0  0  0  0  0  0  0  0
    8.0609  -15.3177   22.7522 C   0  0  0  0  0  0  0  0  0  0  0  0
    9.0298  -16.4003   22.4067 C   0  0  2  0  0  0  0  0  0  0  0  0
    8.3170  -17.3130   21.4893 N   0  0  0  0  0  0  0  0  0  0  0  0
    9.5232  -17.2089   23.5287 C   0  0  0  0  0  0  0  0  0  0  0  0
    8.7108  -17.9014   24.1934 O   0  0  0  0  0  0  0  0  0  0  0  0
    7.7369  -11.6127   20.0728 N   0  0  0  0  0  0  0  0  0  0  0  0
   10.8782  -17.2848   23.9418 C   0  0  1  0  0  0  0  0  0  0  0  0
   11.3040  -18.2387   24.9864 C   0  0  0  0  0  0  0  0  0  0  0  0
   12.1321  -19.3209   24.3801 C   0  0  0  0  0  0  0  0  0  0  0  0
   12.7046  -20.3130   25.3324 C   0  0  0  0  0  0  0  0  0  0  0  0
   13.5883  -21.3258   24.7343 O   0  0  0  0  0  0  0  0  0  0  0  0
   13.7982  -21.3425   23.5134 C   0  0  0  0  0  0  0  0  0  0  0  0
   12.0167  -17.4852   26.0370 O   0  0  0  0  0  0  0  0  0  0  0  0
   12.3633  -16.1515   25.9178 O   0  0  0  0  0  0  0  0  0  0  0  0
   14.1890  -22.2667   25.5431 O   0  0  0  0  0  0  0  0  0  0  0  0
  2  1  1  6
  3  4  1  0
  3  2  1  0
  4  5  1  0
  6  5  1  0
  7  6  1  0
  8  2  1  0
  8  9  2  0
 10 11  1  0
 11 13  1  0
 12 11  2  0
 13 14  1  0
 14 15  1  0
 16 15  1  0
 17 16  1  1
 17 18  1  0
 18  8  1  0
 19 20  2  0
 19 17  1  0
 21 19  1  0
 22 21  1  0
 22 23  1  6
 23 24  1  0
 24 25  1  0
 25 26  2  0
 25 29  1  0
 27 22  1  0
 28 27  1  0
 30 27  2  0
M  END
$$$$
