KRE.pdb
     RDKit          3D

 30 29  0  0  1  0  0  0  0  0999 V2000
    7.5604  -16.0596   18.9953 N   0  0  0  0  0  0  0  0  0  0  0  0
    8.8879  -15.5135   18.8180 C   0  0  1  0  0  0  0  0  0  0  0  0
    8.7708  -14.3172   17.8920 C   0  0  0  0  0  0  0  0  0  0  0  0
    7.7298  -14.6916   16.8595 C   0  0  0  0  0  0  0  0  0  0  0  0
    8.0491  -14.1639   15.4905 C   0  0  0  0  0  0  0  0  0  0  0  0
    7.0564  -14.5612   14.4493 C   0  0  0  0  0  0  0  0  0  0  0  0
    7.4622  -13.9541   13.1910 N   0  0  0  0  0  0  0  0  0  0  0  0
    9.4973  -15.1861   20.1158 C   0  0  0  0  0  0  0  0  0  0  0  0
   10.6705  -14.7552   20.2432 O   0  0  0  0  0  0  0  0  0  0  0  0
    8.9888  -14.8096   27.8981 N   0  0  0  0  0  0  0  0  0  0  0  0
    8.3168  -13.5730   27.7802 C   0  0  0  0  0  0  0  0  0  0  0  0
    8.6190  -12.6277   28.5985 N   0  0  0  0  0  0  0  0  0  0  0  0
    7.3266  -13.4013   26.7640 N   0  0  0  0  0  0  0  0  0  0  0  0
    7.1018  -14.3902   25.7584 C   0  0  0  0  0  0  0  0  0  0  0  0
    8.3612  -14.7534   24.9822 C   0  0  0  0  0  0  0  0  0  0  0  0
    8.1066  -14.8259   23.5214 C   0  0  0  0  0  0  0  0  0  0  0  0
    9.2705  -15.1595   22.6472 C   0  0  2  0  0  0  0  0  0  0  0  0
    8.7210  -15.3653   21.2913 N   0  0  0  0  0  0  0  0  0  0  0  0
   10.0193  -16.3717   23.0019 C   0  0  0  0  0  0  0  0  0  0  0  0
    9.4843  -17.4975   22.8351 O   0  0  0  0  0  0  0  0  0  0  0  0
    8.1364  -11.7232   28.5458 N   0  0  0  0  0  0  0  0  0  0  0  0
   11.3360  -16.3885   23.5296 C   0  0  2  0  0  0  0  0  0  0  0  0
   12.0185  -17.6627   23.8347 C   0  0  0  0  0  0  0  0  0  0  0  0
   13.3359  -17.7138   23.1372 C   0  0  0  0  0  0  0  0  0  0  0  0
   14.5193  -17.3209   23.9523 C   0  0  0  0  0  0  0  0  0  0  0  0
   15.6824  -16.8436   23.1884 O   0  0  0  0  0  0  0  0  0  0  0  0
   16.4969  -17.6440   22.7078 C   0  0  0  0  0  0  0  0  0  0  0  0
   12.1356  -17.7842   25.3013 O   0  0  0  0  0  0  0  0  0  0  0  0
   12.6769  -18.8880   25.9349 O   0  0  0  0  0  0  0  0  0  0  0  0
   15.8669  -15.4898   23.0060 O   0  0  0  0  0  0  0  0  0  0  0  0
  2  1  1  1
  3  4  1  0
  3  2  1  0
  4  5  1  0
  6  5  1  0
  7  6  1  0
  8  2  1  0
  8  9  2  0
 10 11  1  0
 11 13  1  0
 12 11  2  0
 13 14  1  0
 14 15  1  0
 16 15  1  0
 17 16  1  1
 17 18  1  0
 18  8  1  0
 19 20  2  0
 19 17  1  0
 21 19  1  0
 22 21  1  0
 22 23  1  6
 23 24  1  0
 24 25  1  0
 25 26  2  0
 25 29  1  0
 27 22  1  0
 28 27  1  0
 30 27  2  0
M  END
$$$$
