KRE.pdb
     RDKit          3D

 30 29  0  0  1  0  0  0  0  0999 V2000
    9.3583  -16.8260   18.3529 N   0  0  0  0  0  0  0  0  0  0  0  0
    9.7862  -17.7674   19.3641 C   0  0  1  0  0  0  0  0  0  0  0  0
   10.5122  -18.8979   18.6591 C   0  0  0  0  0  0  0  0  0  0  0  0
    9.4875  -19.9952   18.4698 C   0  0  0  0  0  0  0  0  0  0  0  0
   10.0631  -21.2286   17.8359 C   0  0  0  0  0  0  0  0  0  0  0  0
    9.0906  -22.3555   17.7276 C   0  0  0  0  0  0  0  0  0  0  0  0
    9.7838  -23.4877   17.1325 N   0  0  0  0  0  0  0  0  0  0  0  0
   10.6049  -17.1003   20.3877 C   0  0  0  0  0  0  0  0  0  0  0  0
   11.5627  -16.3328   20.1193 O   0  0  0  0  0  0  0  0  0  0  0  0
    8.2879  -13.8494   27.9912 N   0  0  0  0  0  0  0  0  0  0  0  0
    9.6045  -14.2472   28.3123 C   0  0  0  0  0  0  0  0  0  0  0  0
   10.1103  -13.8575   29.4288 N   0  0  0  0  0  0  0  0  0  0  0  0
   10.3373  -15.0663   27.3987 N   0  0  0  0  0  0  0  0  0  0  0  0
    9.7624  -15.5293   26.1761 C   0  0  0  0  0  0  0  0  0  0  0  0
   10.7010  -16.4188   25.3710 C   0  0  0  0  0  0  0  0  0  0  0  0
   10.1135  -16.7969   24.0611 C   0  0  0  0  0  0  0  0  0  0  0  0
   10.9752  -16.6152   22.8550 C   0  0  2  0  0  0  0  0  0  0  0  0
   10.2999  -17.3337   21.7548 N   0  0  0  0  0  0  0  0  0  0  0  0
   12.3404  -17.1477   22.9493 C   0  0  0  0  0  0  0  0  0  0  0  0
   12.5273  -18.3866   22.8421 O   0  0  0  0  0  0  0  0  0  0  0  0
   11.0633  -14.1352   29.6905 N   0  0  0  0  0  0  0  0  0  0  0  0
   13.5058  -16.3650   23.1533 C   0  0  2  0  0  0  0  0  0  0  0  0
   14.8299  -16.9988   23.3194 C   0  0  0  0  0  0  0  0  0  0  0  0
   15.9071  -16.0172   23.0026 C   0  0  0  0  0  0  0  0  0  0  0  0
   17.2989  -16.4626   23.2916 C   0  0  0  0  0  0  0  0  0  0  0  0
   18.3568  -15.5083   22.9250 O   0  0  0  0  0  0  0  0  0  0  0  0
   19.0187  -14.9296   23.7980 C   0  0  0  0  0  0  0  0  0  0  0  0
   14.9181  -17.5305   24.6938 O   0  0  0  0  0  0  0  0  0  0  0  0
   14.1185  -17.0933   25.7341 O   0  0  0  0  0  0  0  0  0  0  0  0
   18.6135  -15.2560   21.5944 O   0  0  0  0  0  0  0  0  0  0  0  0
  2  1  1  6
  3  4  1  0
  3  2  1  0
  4  5  1  0
  6  5  1  0
  7  6  1  0
  8  2  1  0
  8  9  2  0
 10 11  1  0
 11 13  1  0
 12 11  2  0
 13 14  1  0
 14 15  1  0
 16 15  1  0
 17 16  1  1
 17 18  1  0
 18  8  1  0
 19 20  2  0
 19 17  1  0
 21 19  1  0
 22 21  1  0
 22 23  1  6
 23 24  1  0
 24 25  1  0
 25 26  2  0
 25 29  1  0
 27 22  1  0
 28 27  1  0
 30 27  2  0
M  END
$$$$
