KRE.pdb
     RDKit          3D

 30 29  0  0  1  0  0  0  0  0999 V2000
    9.3831  -19.1378   17.6374 N   0  0  0  0  0  0  0  0  0  0  0  0
    8.6274  -19.1231   18.8705 C   0  0  1  0  0  0  0  0  0  0  0  0
    8.6595  -20.5276   19.4438 C   0  0  0  0  0  0  0  0  0  0  0  0
    8.6059  -21.4626   18.2553 C   0  0  0  0  0  0  0  0  0  0  0  0
    8.6614  -22.9107   18.6485 C   0  0  0  0  0  0  0  0  0  0  0  0
    8.5205  -23.8495   17.4969 C   0  0  0  0  0  0  0  0  0  0  0  0
    8.5989  -25.2066   18.0153 N   0  0  0  0  0  0  0  0  0  0  0  0
    9.1523  -18.1064   19.7944 C   0  0  0  0  0  0  0  0  0  0  0  0
   10.3629  -17.7746   19.8469 O   0  0  0  0  0  0  0  0  0  0  0  0
    7.7014  -12.3691   18.2821 N   0  0  0  0  0  0  0  0  0  0  0  0
    8.7009  -12.6381   19.2430 C   0  0  0  0  0  0  0  0  0  0  0  0
    9.9237  -12.3647   18.9522 N   0  0  0  0  0  0  0  0  0  0  0  0
    8.3348  -13.2015   20.5043 N   0  0  0  0  0  0  0  0  0  0  0  0
    6.9722  -13.4592   20.8457 C   0  0  0  0  0  0  0  0  0  0  0  0
    6.6337  -14.9440   20.8827 C   0  0  0  0  0  0  0  0  0  0  0  0
    7.3816  -15.6533   21.9511 C   0  0  0  0  0  0  0  0  0  0  0  0
    8.6457  -16.3404   21.5507 C   0  0  2  0  0  0  0  0  0  0  0  0
    8.2452  -17.4624   20.6769 N   0  0  0  0  0  0  0  0  0  0  0  0
    9.4491  -16.9044   22.6426 C   0  0  0  0  0  0  0  0  0  0  0  0
    9.1972  -18.0646   23.0573 O   0  0  0  0  0  0  0  0  0  0  0  0
   10.6803  -12.6312   19.5927 N   0  0  0  0  0  0  0  0  0  0  0  0
   10.5210  -16.2386   23.2909 C   0  0  1  0  0  0  0  0  0  0  0  0
   11.6328  -16.9976   23.8995 C   0  0  0  0  0  0  0  0  0  0  0  0
   12.9373  -16.4877   23.3869 C   0  0  0  0  0  0  0  0  0  0  0  0
   14.1558  -17.0688   24.0168 C   0  0  0  0  0  0  0  0  0  0  0  0
   15.4356  -16.5230   23.5390 O   0  0  0  0  0  0  0  0  0  0  0  0
   15.4628  -15.5569   22.7638 C   0  0  0  0  0  0  0  0  0  0  0  0
   11.5100  -16.8991   25.3673 O   0  0  0  0  0  0  0  0  0  0  0  0
   12.2545  -17.6621   26.2485 O   0  0  0  0  0  0  0  0  0  0  0  0
   16.6176  -17.0940   23.9597 O   0  0  0  0  0  0  0  0  0  0  0  0
  2  1  1  6
  3  4  1  0
  3  2  1  0
  4  5  1  0
  6  5  1  0
  7  6  1  0
  8  2  1  0
  8  9  2  0
 10 11  1  0
 11 13  1  0
 12 11  2  0
 13 14  1  0
 14 15  1  0
 16 15  1  0
 17 16  1  1
 17 18  1  0
 18  8  1  0
 19 20  2  0
 19 17  1  0
 21 19  1  0
 22 21  1  0
 22 23  1  6
 23 24  1  0
 24 25  1  0
 25 26  2  0
 25 29  1  0
 27 22  1  0
 28 27  1  0
 30 27  2  0
M  END
$$$$
