KRE.pdb
     RDKit          3D

 30 29  0  0  1  0  0  0  0  0999 V2000
    9.1294  -21.2256   19.4245 N   0  0  0  0  0  0  0  0  0  0  0  0
   10.2284  -20.6239   18.7019 C   0  0  1  0  0  0  0  0  0  0  0  0
    9.7926  -20.4621   17.2576 C   0  0  0  0  0  0  0  0  0  0  0  0
   10.2427  -21.7187   16.5448 C   0  0  0  0  0  0  0  0  0  0  0  0
    9.4817  -22.9392   16.9759 C   0  0  0  0  0  0  0  0  0  0  0  0
    9.8581  -24.1746   16.2281 C   0  0  0  0  0  0  0  0  0  0  0  0
    8.9736  -24.2874   15.0785 N   0  0  0  0  0  0  0  0  0  0  0  0
   10.6381  -19.3589   19.3302 C   0  0  0  0  0  0  0  0  0  0  0  0
   11.5072  -18.5921   18.8453 O   0  0  0  0  0  0  0  0  0  0  0  0
    7.2554  -13.7627   19.2985 N   0  0  0  0  0  0  0  0  0  0  0  0
    7.4817  -13.0079   20.4705 C   0  0  0  0  0  0  0  0  0  0  0  0
    7.6956  -11.7446   20.3573 N   0  0  0  0  0  0  0  0  0  0  0  0
    7.4672  -13.6581   21.7431 N   0  0  0  0  0  0  0  0  0  0  0  0
    7.4417  -15.0812   21.8603 C   0  0  0  0  0  0  0  0  0  0  0  0
    8.8304  -15.6999   21.9569 C   0  0  0  0  0  0  0  0  0  0  0  0
    8.9039  -17.0025   21.2485 C   0  0  0  0  0  0  0  0  0  0  0  0
   10.2424  -17.6611   21.1798 C   0  0  2  0  0  0  0  0  0  0  0  0
   10.0204  -18.9797   20.5513 N   0  0  0  0  0  0  0  0  0  0  0  0
   10.9130  -17.8986   22.4643 C   0  0  0  0  0  0  0  0  0  0  0  0
   10.5193  -18.8392   23.2004 O   0  0  0  0  0  0  0  0  0  0  0  0
    7.8053  -11.1609   21.1946 N   0  0  0  0  0  0  0  0  0  0  0  0
   12.0028  -17.1406   22.9647 C   0  0  2  0  0  0  0  0  0  0  0  0
   12.6034  -17.4459   24.2794 C   0  0  0  0  0  0  0  0  0  0  0  0
   13.9205  -16.7581   24.4090 C   0  0  0  0  0  0  0  0  0  0  0  0
   14.8999  -17.0168   23.3168 C   0  0  0  0  0  0  0  0  0  0  0  0
   16.1881  -16.3180   23.4446 O   0  0  0  0  0  0  0  0  0  0  0  0
   16.3209  -15.1544   23.0402 C   0  0  0  0  0  0  0  0  0  0  0  0
   11.6413  -17.0551   25.3286 O   0  0  0  0  0  0  0  0  0  0  0  0
   11.8032  -17.3654   26.6667 O   0  0  0  0  0  0  0  0  0  0  0  0
   17.2590  -16.9666   24.0212 O   0  0  0  0  0  0  0  0  0  0  0  0
  2  1  1  1
  3  4  1  0
  3  2  1  0
  4  5  1  0
  6  5  1  0
  7  6  1  0
  8  2  1  0
  8  9  2  0
 10 11  1  0
 11 13  1  0
 12 11  2  0
 13 14  1  0
 14 15  1  0
 16 15  1  0
 17 16  1  1
 17 18  1  0
 18  8  1  0
 19 20  2  0
 19 17  1  0
 21 19  1  0
 22 21  1  0
 22 23  1  6
 23 24  1  0
 24 25  1  0
 25 26  2  0
 25 29  1  0
 27 22  1  0
 28 27  1  0
 30 27  2  0
M  END
$$$$
