KRE.pdb
     RDKit          3D

 30 29  0  0  1  0  0  0  0  0999 V2000
   10.2780  -16.8834   18.2123 N   0  0  0  0  0  0  0  0  0  0  0  0
    9.1221  -17.0957   19.0554 C   0  0  1  0  0  0  0  0  0  0  0  0
    8.8489  -18.5878   19.0902 C   0  0  0  0  0  0  0  0  0  0  0  0
    8.5870  -18.9956   17.6566 C   0  0  0  0  0  0  0  0  0  0  0  0
    8.2290  -20.4472   17.5185 C   0  0  0  0  0  0  0  0  0  0  0  0
    8.0533  -20.8885   16.1037 C   0  0  0  0  0  0  0  0  0  0  0  0
    7.7725  -22.3160   16.1130 N   0  0  0  0  0  0  0  0  0  0  0  0
    9.3322  -16.5124   20.3889 C   0  0  0  0  0  0  0  0  0  0  0  0
   10.4477  -16.4830   20.9662 O   0  0  0  0  0  0  0  0  0  0  0  0
    8.9709  -14.4338   26.9295 N   0  0  0  0  0  0  0  0  0  0  0  0
    8.2850  -13.2002   26.9797 C   0  0  0  0  0  0  0  0  0  0  0  0
    8.1315  -12.6273   28.1211 N   0  0  0  0  0  0  0  0  0  0  0  0
    7.7825  -12.6219   25.7732 N   0  0  0  0  0  0  0  0  0  0  0  0
    8.0295  -13.2123   24.4965 C   0  0  0  0  0  0  0  0  0  0  0  0
    6.8360  -13.9877   23.9534 C   0  0  0  0  0  0  0  0  0  0  0  0
    7.0963  -14.5168   22.5910 C   0  0  0  0  0  0  0  0  0  0  0  0
    8.3194  -15.3549   22.4124 C   0  0  2  0  0  0  0  0  0  0  0  0
    8.2164  -15.9510   21.0644 N   0  0  0  0  0  0  0  0  0  0  0  0
    8.4913  -16.4592   23.3647 C   0  0  0  0  0  0  0  0  0  0  0  0
    7.6947  -17.4317   23.3309 O   0  0  0  0  0  0  0  0  0  0  0  0
    7.5648  -11.7751   28.2006 N   0  0  0  0  0  0  0  0  0  0  0  0
    9.5102  -16.5325   24.3491 C   0  0  2  0  0  0  0  0  0  0  0  0
    9.5919  -17.6787   25.2774 C   0  0  0  0  0  0  0  0  0  0  0  0
   10.8430  -17.5915   26.0845 C   0  0  0  0  0  0  0  0  0  0  0  0
   11.0194  -18.6411   27.1268 C   0  0  0  0  0  0  0  0  0  0  0  0
   12.2591  -18.5485   27.9133 O   0  0  0  0  0  0  0  0  0  0  0  0
   12.5753  -19.4464   28.7063 C   0  0  0  0  0  0  0  0  0  0  0  0
    8.3695  -17.6905   26.1051 O   0  0  0  0  0  0  0  0  0  0  0  0
    7.6062  -16.5646   26.3552 O   0  0  0  0  0  0  0  0  0  0  0  0
   13.0776  -17.4493   27.7653 O   0  0  0  0  0  0  0  0  0  0  0  0
  2  1  1  6
  3  4  1  0
  3  2  1  0
  4  5  1  0
  6  5  1  0
  7  6  1  0
  8  2  1  0
  8  9  2  0
 10 11  1  0
 11 13  1  0
 12 11  2  0
 13 14  1  0
 14 15  1  0
 16 15  1  0
 17 16  1  1
 17 18  1  0
 18  8  1  0
 19 20  2  0
 19 17  1  0
 21 19  1  0
 22 21  1  0
 22 23  1  6
 23 24  1  0
 24 25  1  0
 25 26  2  0
 25 29  1  0
 27 22  1  0
 28 27  1  0
 30 27  2  0
M  END
$$$$
