KRE.pdb
     RDKit          3D

 30 29  0  0  1  0  0  0  0  0999 V2000
    6.7829  -19.0510   22.0315 N   0  0  0  0  0  0  0  0  0  0  0  0
    7.9218  -19.6939   21.4137 C   0  0  1  0  0  0  0  0  0  0  0  0
    7.4592  -20.2694   20.0882 C   0  0  0  0  0  0  0  0  0  0  0  0
    6.7495  -21.5635   20.4224 C   0  0  0  0  0  0  0  0  0  0  0  0
    6.3139  -22.3225   19.2023 C   0  0  0  0  0  0  0  0  0  0  0  0
    5.5200  -23.5479   19.5113 C   0  0  0  0  0  0  0  0  0  0  0  0
    5.2282  -24.2195   18.2541 N   0  0  0  0  0  0  0  0  0  0  0  0
    9.0445  -18.7536   21.2786 C   0  0  0  0  0  0  0  0  0  0  0  0
   10.2184  -19.1083   21.0056 O   0  0  0  0  0  0  0  0  0  0  0  0
    7.0161  -12.4993   18.1937 N   0  0  0  0  0  0  0  0  0  0  0  0
    7.3458  -13.4182   17.1732 C   0  0  0  0  0  0  0  0  0  0  0  0
    6.8901  -13.2117   15.9882 N   0  0  0  0  0  0  0  0  0  0  0  0
    8.1708  -14.5450   17.4770 N   0  0  0  0  0  0  0  0  0  0  0  0
    9.0022  -14.5772   18.6377 C   0  0  0  0  0  0  0  0  0  0  0  0
    8.2615  -15.0169   19.8940 C   0  0  0  0  0  0  0  0  0  0  0  0
    9.1571  -15.0541   21.0774 C   0  0  0  0  0  0  0  0  0  0  0  0
    9.8525  -16.3452   21.3598 C   0  0  2  0  0  0  0  0  0  0  0  0
    8.7924  -17.3688   21.4661 N   0  0  0  0  0  0  0  0  0  0  0  0
   10.6363  -16.3998   22.6002 C   0  0  0  0  0  0  0  0  0  0  0  0
   10.0674  -16.1758   23.6991 O   0  0  0  0  0  0  0  0  0  0  0  0
    7.0895  -13.8783   15.2334 N   0  0  0  0  0  0  0  0  0  0  0  0
   12.0218  -16.6958   22.6739 C   0  0  1  0  0  0  0  0  0  0  0  0
   12.7286  -16.7167   23.9710 C   0  0  0  0  0  0  0  0  0  0  0  0
   12.6085  -18.0665   24.5940 C   0  0  0  0  0  0  0  0  0  0  0  0
   13.3296  -18.2542   25.8839 C   0  0  0  0  0  0  0  0  0  0  0  0
   13.2760  -19.6126   26.4459 O   0  0  0  0  0  0  0  0  0  0  0  0
   13.8029  -20.5649   25.8536 C   0  0  0  0  0  0  0  0  0  0  0  0
   14.1285  -16.3087   23.7406 O   0  0  0  0  0  0  0  0  0  0  0  0
   15.0048  -15.9789   24.7585 O   0  0  0  0  0  0  0  0  0  0  0  0
   12.6319  -19.8271   27.6455 O   0  0  0  0  0  0  0  0  0  0  0  0
  2  1  1  6
  3  4  1  0
  3  2  1  0
  4  5  1  0
  6  5  1  0
  7  6  1  0
  8  2  1  0
  8  9  2  0
 10 11  1  0
 11 13  1  0
 12 11  2  0
 13 14  1  0
 14 15  1  0
 16 15  1  0
 17 16  1  1
 17 18  1  0
 18  8  1  0
 19 20  2  0
 19 17  1  0
 21 19  1  0
 22 21  1  0
 22 23  1  1
 23 24  1  0
 24 25  1  0
 25 26  2  0
 25 29  1  0
 27 22  1  0
 28 27  1  0
 30 27  2  0
M  END
$$$$
