KRE.pdb
     RDKit          3D

 30 29  0  0  1  0  0  0  0  0999 V2000
    8.4814  -21.8663   18.3070 N   0  0  0  0  0  0  0  0  0  0  0  0
    8.1800  -21.2329   19.5720 C   0  0  1  0  0  0  0  0  0  0  0  0
    8.5060  -22.2272   20.6708 C   0  0  0  0  0  0  0  0  0  0  0  0
    7.5063  -23.3534   20.5218 C   0  0  0  0  0  0  0  0  0  0  0  0
    7.7254  -24.4632   21.5092 C   0  0  0  0  0  0  0  0  0  0  0  0
    6.7914  -25.6138   21.3335 C   0  0  0  0  0  0  0  0  0  0  0  0
    7.1414  -26.6271   22.3172 N   0  0  0  0  0  0  0  0  0  0  0  0
    8.9047  -19.9604   19.7063 C   0  0  0  0  0  0  0  0  0  0  0  0
   10.0733  -19.7785   19.2823 O   0  0  0  0  0  0  0  0  0  0  0  0
    9.2494  -12.1767   19.2118 N   0  0  0  0  0  0  0  0  0  0  0  0
    8.0691  -12.1661   19.9873 C   0  0  0  0  0  0  0  0  0  0  0  0
    8.0017  -11.3695   20.9949 N   0  0  0  0  0  0  0  0  0  0  0  0
    6.9867  -13.0315   19.6378 N   0  0  0  0  0  0  0  0  0  0  0  0
    6.7529  -14.2597   20.3281 C   0  0  0  0  0  0  0  0  0  0  0  0
    8.0020  -15.1220   20.4576 C   0  0  0  0  0  0  0  0  0  0  0  0
    7.6832  -16.5697   20.3766 C   0  0  0  0  0  0  0  0  0  0  0  0
    8.8351  -17.5195   20.4117 C   0  0  2  0  0  0  0  0  0  0  0  0
    8.2521  -18.8757   20.3498 N   0  0  0  0  0  0  0  0  0  0  0  0
    9.6826  -17.4643   21.6094 C   0  0  0  0  0  0  0  0  0  0  0  0
    9.3372  -18.0992   22.6386 O   0  0  0  0  0  0  0  0  0  0  0  0
    7.1847  -11.3885   21.6162 N   0  0  0  0  0  0  0  0  0  0  0  0
   10.8974  -16.7389   21.7129 C   0  0  2  0  0  0  0  0  0  0  0  0
   11.8310  -16.9720   22.8338 C   0  0  0  0  0  0  0  0  0  0  0  0
   13.1988  -16.5085   22.4614 C   0  0  0  0  0  0  0  0  0  0  0  0
   14.2409  -16.6415   23.5175 C   0  0  0  0  0  0  0  0  0  0  0  0
   15.5967  -16.2288   23.1230 O   0  0  0  0  0  0  0  0  0  0  0  0
   16.0158  -16.4419   21.9768 C   0  0  0  0  0  0  0  0  0  0  0  0
   11.2956  -16.2918   24.0297 O   0  0  0  0  0  0  0  0  0  0  0  0
   11.6700  -16.6124   25.3219 O   0  0  0  0  0  0  0  0  0  0  0  0
   16.4091  -15.5976   24.0405 O   0  0  0  0  0  0  0  0  0  0  0  0
  2  1  1  6
  3  4  1  0
  3  2  1  0
  4  5  1  0
  6  5  1  0
  7  6  1  0
  8  2  1  0
  8  9  2  0
 10 11  1  0
 11 13  1  0
 12 11  2  0
 13 14  1  0
 14 15  1  0
 16 15  1  0
 17 16  1  1
 17 18  1  0
 18  8  1  0
 19 20  2  0
 19 17  1  0
 21 19  1  0
 22 21  1  0
 22 23  1  6
 23 24  1  0
 24 25  1  0
 25 26  2  0
 25 29  1  0
 27 22  1  0
 28 27  1  0
 30 27  2  0
M  END
$$$$
