KRE.pdb
     RDKit          3D

 30 29  0  0  1  0  0  0  0  0999 V2000
    9.4256  -16.6213   16.9637 N   0  0  0  0  0  0  0  0  0  0  0  0
   10.2614  -15.5441   17.4465 C   0  0  1  0  0  0  0  0  0  0  0  0
    9.5182  -14.8604   18.5789 C   0  0  0  0  0  0  0  0  0  0  0  0
    8.2256  -14.3507   17.9793 C   0  0  0  0  0  0  0  0  0  0  0  0
    7.4128  -13.5399   18.9470 C   0  0  0  0  0  0  0  0  0  0  0  0
    6.1328  -13.0301   18.3734 C   0  0  0  0  0  0  0  0  0  0  0  0
    5.4804  -12.2184   19.3895 N   0  0  0  0  0  0  0  0  0  0  0  0
   11.5865  -16.0456   17.8407 C   0  0  0  0  0  0  0  0  0  0  0  0
   12.0511  -17.1505   17.4641 O   0  0  0  0  0  0  0  0  0  0  0  0
   16.4207  -12.5615   17.4582 N   0  0  0  0  0  0  0  0  0  0  0  0
   17.4473  -12.9496   16.5692 C   0  0  0  0  0  0  0  0  0  0  0  0
   18.3735  -12.1016   16.2907 N   0  0  0  0  0  0  0  0  0  0  0  0
   17.4344  -14.2628   16.0055 N   0  0  0  0  0  0  0  0  0  0  0  0
   16.4089  -15.2059   16.3193 C   0  0  0  0  0  0  0  0  0  0  0  0
   15.6111  -14.8329   17.5622 C   0  0  0  0  0  0  0  0  0  0  0  0
   14.5282  -15.8108   17.8361 C   0  0  0  0  0  0  0  0  0  0  0  0
   13.7542  -15.6274   19.1001 C   0  0  2  0  0  0  0  0  0  0  0  0
   12.3876  -15.2407   18.6932 N   0  0  0  0  0  0  0  0  0  0  0  0
   14.2461  -14.5896   20.0149 C   0  0  0  0  0  0  0  0  0  0  0  0
   15.3327  -14.0093   19.7614 O   0  0  0  0  0  0  0  0  0  0  0  0
   19.1637  -12.3748   15.6951 N   0  0  0  0  0  0  0  0  0  0  0  0
   13.5831  -14.1657   21.1952 C   0  0  2  0  0  0  0  0  0  0  0  0
   13.6223  -14.9818   22.4261 C   0  0  0  0  0  0  0  0  0  0  0  0
   12.4110  -15.8489   22.5002 C   0  0  0  0  0  0  0  0  0  0  0  0
   12.3784  -16.8263   23.6239 C   0  0  0  0  0  0  0  0  0  0  0  0
   11.1548  -16.8098   24.4404 O   0  0  0  0  0  0  0  0  0  0  0  0
   10.0370  -16.8588   23.9083 C   0  0  0  0  0  0  0  0  0  0  0  0
   14.8836  -15.7488   22.4315 O   0  0  0  0  0  0  0  0  0  0  0  0
   15.6767  -15.9056   23.5537 O   0  0  0  0  0  0  0  0  0  0  0  0
   11.2546  -16.7389   25.8134 O   0  0  0  0  0  0  0  0  0  0  0  0
  2  1  1  1
  3  4  1  0
  3  2  1  0
  4  5  1  0
  6  5  1  0
  7  6  1  0
  8  2  1  0
  8  9  2  0
 10 11  1  0
 11 13  1  0
 12 11  2  0
 13 14  1  0
 14 15  1  0
 16 15  1  0
 17 16  1  6
 17 18  1  0
 18  8  1  0
 19 20  2  0
 19 17  1  0
 21 19  1  0
 22 21  1  0
 22 23  1  6
 23 24  1  0
 24 25  1  0
 25 26  2  0
 25 29  1  0
 27 22  1  0
 28 27  1  0
 30 27  2  0
M  END
$$$$
