KRE.pdb
     RDKit          3D

 30 29  0  0  1  0  0  0  0  0999 V2000
    9.6559  -18.3383   17.9487 N   0  0  0  0  0  0  0  0  0  0  0  0
    9.6846  -17.7140   19.2530 C   0  0  1  0  0  0  0  0  0  0  0  0
    8.4475  -16.8434   19.3710 C   0  0  0  0  0  0  0  0  0  0  0  0
    8.4182  -15.9917   18.1205 C   0  0  0  0  0  0  0  0  0  0  0  0
    8.1309  -14.5458   18.4054 C   0  0  0  0  0  0  0  0  0  0  0  0
    8.0836  -13.6925   17.1819 C   0  0  0  0  0  0  0  0  0  0  0  0
    7.8560  -12.3189   17.6042 N   0  0  0  0  0  0  0  0  0  0  0  0
    9.7866  -18.7254   20.3157 C   0  0  0  0  0  0  0  0  0  0  0  0
    9.6819  -18.4602   21.5393 O   0  0  0  0  0  0  0  0  0  0  0  0
    7.0699  -26.8247   19.7208 N   0  0  0  0  0  0  0  0  0  0  0  0
    7.7566  -26.8643   20.9543 C   0  0  0  0  0  0  0  0  0  0  0  0
    7.5148  -27.8353   21.7624 N   0  0  0  0  0  0  0  0  0  0  0  0
    8.6958  -25.8353   21.2731 N   0  0  0  0  0  0  0  0  0  0  0  0
    8.6650  -24.5624   20.6263 C   0  0  0  0  0  0  0  0  0  0  0  0
    9.8884  -23.7065   20.9284 C   0  0  0  0  0  0  0  0  0  0  0  0
    9.8776  -22.4379   20.1574 C   0  0  0  0  0  0  0  0  0  0  0  0
   10.0760  -21.1749   20.9293 C   0  0  2  0  0  0  0  0  0  0  0  0
   10.0160  -20.0764   19.9431 N   0  0  0  0  0  0  0  0  0  0  0  0
   11.3517  -21.0480   21.6451 C   0  0  0  0  0  0  0  0  0  0  0  0
   12.4230  -21.3297   21.0498 O   0  0  0  0  0  0  0  0  0  0  0  0
    7.8869  -27.8177   22.7190 N   0  0  0  0  0  0  0  0  0  0  0  0
   11.4898  -20.6190   22.9902 C   0  0  2  0  0  0  0  0  0  0  0  0
   12.8165  -20.5537   23.6368 C   0  0  0  0  0  0  0  0  0  0  0  0
   13.2424  -19.1317   23.7816 C   0  0  0  0  0  0  0  0  0  0  0  0
   13.5600  -18.4154   22.5147 C   0  0  0  0  0  0  0  0  0  0  0  0
   14.0993  -17.0561   22.6755 O   0  0  0  0  0  0  0  0  0  0  0  0
   14.2032  -16.5442   23.7990 C   0  0  0  0  0  0  0  0  0  0  0  0
   12.7372  -21.2678   24.9264 O   0  0  0  0  0  0  0  0  0  0  0  0
   13.8475  -21.6410   25.6618 O   0  0  0  0  0  0  0  0  0  0  0  0
   14.4931  -16.3449   21.5623 O   0  0  0  0  0  0  0  0  0  0  0  0
  2  1  1  6
  3  4  1  0
  3  2  1  0
  4  5  1  0
  6  5  1  0
  7  6  1  0
  8  2  1  0
  8  9  2  0
 10 11  1  0
 11 13  1  0
 12 11  2  0
 13 14  1  0
 14 15  1  0
 16 15  1  0
 17 16  1  6
 17 18  1  0
 18  8  1  0
 19 20  2  0
 19 17  1  0
 21 19  1  0
 22 21  1  0
 22 23  1  1
 23 24  1  0
 24 25  1  0
 25 26  2  0
 25 29  1  0
 27 22  1  0
 28 27  1  0
 30 27  2  0
M  END
$$$$
