YCK.pdb
     RDKit          3D

 28 28  0  0  1  0  0  0  0  0999 V2000
   29.4564  -24.3998  -17.5641 O   0  0  0  0  0  0  0  0  0  0  0  0
   28.5258  -23.7199  -16.7706 C   0  0  0  0  0  0  0  0  0  0  0  0
   27.3070  -24.2741  -16.5096 C   0  0  0  0  0  0  0  0  0  0  0  0
   26.3662  -23.6060  -15.7177 C   0  0  0  0  0  0  0  0  0  0  0  0
   26.6450  -22.3639  -15.1764 C   0  0  0  0  0  0  0  0  0  0  0  0
   25.6742  -21.6498  -14.3456 C   0  0  0  0  0  0  0  0  0  0  0  0
   24.6088  -20.9301  -15.1213 C   0  0  2  0  0  0  0  0  0  0  0  0
   25.1003  -19.8232  -15.8798 N   0  0  0  0  0  0  0  0  0  0  0  0
   23.5783  -20.5017  -14.1253 C   0  0  0  0  0  0  0  0  0  0  0  0
   23.7298  -19.4181  -13.5168 O   0  0  0  0  0  0  0  0  0  0  0  0
   27.8840  -21.8271  -15.4559 C   0  0  0  0  0  0  0  0  0  0  0  0
   28.8217  -22.4747  -16.2354 C   0  0  0  0  0  0  0  0  0  0  0  0
   22.4229  -21.2770  -13.8352 N   0  0  0  0  0  0  0  0  0  0  0  0
   21.3467  -20.8173  -12.9819 C   0  0  1  0  0  0  0  0  0  0  0  0
   20.6793  -19.6397  -13.7057 C   0  0  0  0  0  0  0  0  0  0  0  0
   20.0297  -20.1739  -15.2913 S   0  0  0  0  0  0  0  0  0  0  0  0
   20.3652  -21.8853  -12.7004 C   0  0  0  0  0  0  0  0  0  0  0  0
   20.1845  -22.8193  -13.5199 O   0  0  0  0  0  0  0  0  0  0  0  0
   19.5931  -21.9062  -11.5109 N   0  0  0  0  0  0  0  0  0  0  0  0
   18.6458  -22.9817  -11.2066 C   0  0  1  0  0  0  0  0  0  0  0  0
   18.7057  -23.2045   -9.7264 C   0  0  0  0  0  0  0  0  0  0  0  0
   17.7866  -24.2573   -9.2078 C   0  0  0  0  0  0  0  0  0  0  0  0
   17.8959  -24.4656   -7.7203 C   0  0  0  0  0  0  0  0  0  0  0  0
   17.4156  -25.8376   -7.3013 C   0  0  0  0  0  0  0  0  0  0  0  0
   17.4959  -26.0288   -5.8754 N   0  0  0  0  0  0  0  0  0  0  0  0
   17.2891  -22.6350  -11.6794 C   0  0  0  0  0  0  0  0  0  0  0  0
   16.9638  -21.4127  -11.8042 O   0  0  0  0  0  0  0  0  0  0  0  0
   16.3162  -23.5568  -12.0072 O   0  0  0  0  0  0  0  0  0  0  0  0
  2  1  1  0
  2 12  2  0
  3  2  1  0
  4  3  2  0
  4  5  1  0
  5 11  2  0
  6  5  1  0
  7  9  1  0
  7  6  1  0
  7  8  1  1
  9 10  2  0
 11 12  1  0
 13  9  1  0
 13 14  1  0
 14 17  1  0
 15 16  1  0
 14 15  1  6
 17 18  2  0
 19 17  1  0
 19 20  1  0
 20 26  1  0
 20 21  1  1
 22 21  1  0
 23 22  1  0
 24 23  1  0
 25 24  1  0
 26 27  2  0
 26 28  1  0
M  END
$$$$
