YCK.pdb
     RDKit          3D

 28 28  0  0  1  0  0  0  0  0999 V2000
   23.1982  -16.7502  -21.8898 O   0  0  0  0  0  0  0  0  0  0  0  0
   22.5187  -15.6393  -21.3778 C   0  0  0  0  0  0  0  0  0  0  0  0
   23.1696  -14.7364  -20.5893 C   0  0  0  0  0  0  0  0  0  0  0  0
   22.5032  -13.6207  -20.0701 C   0  0  0  0  0  0  0  0  0  0  0  0
   21.1646  -13.4009  -20.3415 C   0  0  0  0  0  0  0  0  0  0  0  0
   20.4505  -12.2399  -19.8078 C   0  0  0  0  0  0  0  0  0  0  0  0
   19.6308  -12.5284  -18.5833 C   0  0  2  0  0  0  0  0  0  0  0  0
   18.5819  -13.4733  -18.8047 N   0  0  0  0  0  0  0  0  0  0  0  0
   19.0973  -11.2125  -18.1130 C   0  0  0  0  0  0  0  0  0  0  0  0
   17.8966  -10.9287  -18.3258 O   0  0  0  0  0  0  0  0  0  0  0  0
   20.5313  -14.3290  -21.1409 C   0  0  0  0  0  0  0  0  0  0  0  0
   21.1761  -15.4341  -21.6599 C   0  0  0  0  0  0  0  0  0  0  0  0
   19.8997  -10.2598  -17.4285 N   0  0  0  0  0  0  0  0  0  0  0  0
   19.3789   -9.0249  -16.8794 C   0  0  1  0  0  0  0  0  0  0  0  0
   18.3851   -9.4146  -15.7763 C   0  0  0  0  0  0  0  0  0  0  0  0
   19.2269  -10.3184  -14.4740 S   0  0  0  0  0  0  0  0  0  0  0  0
   20.4495   -8.1607  -16.3407 C   0  0  0  0  0  0  0  0  0  0  0  0
   21.3828   -8.6499  -15.6579 O   0  0  0  0  0  0  0  0  0  0  0  0
   20.4737   -6.7605  -16.5652 N   0  0  0  0  0  0  0  0  0  0  0  0
   21.5003   -5.8888  -15.9884 C   0  0  1  0  0  0  0  0  0  0  0  0
   21.4461   -4.5973  -16.7456 C   0  0  0  0  0  0  0  0  0  0  0  0
   22.4462   -3.5753  -16.3248 C   0  0  0  0  0  0  0  0  0  0  0  0
   22.4119   -2.3251  -17.1639 C   0  0  0  0  0  0  0  0  0  0  0  0
   23.5808   -1.4108  -16.8704 C   0  0  0  0  0  0  0  0  0  0  0  0
   23.5853   -0.2461  -17.7186 N   0  0  0  0  0  0  0  0  0  0  0  0
   21.2832   -5.7117  -14.5373 C   0  0  0  0  0  0  0  0  0  0  0  0
   20.0979   -5.7089  -14.0782 O   0  0  0  0  0  0  0  0  0  0  0  0
   22.2916   -5.5445  -13.6106 O   0  0  0  0  0  0  0  0  0  0  0  0
  2  1  1  0
  2 12  2  0
  3  2  1  0
  4  3  2  0
  4  5  1  0
  5 11  2  0
  6  5  1  0
  7  9  1  0
  7  6  1  0
  7  8  1  6
  9 10  2  0
 11 12  1  0
 13  9  1  0
 13 14  1  0
 14 17  1  0
 15 16  1  0
 14 15  1  1
 17 18  2  0
 19 17  1  0
 19 20  1  0
 20 26  1  0
 20 21  1  6
 22 21  1  0
 23 22  1  0
 24 23  1  0
 25 24  1  0
 26 27  2  0
 26 28  1  0
M  END
$$$$
