YCK.pdb
     RDKit          3D

 28 28  0  0  1  0  0  0  0  0999 V2000
   20.0571  -13.1992  -22.4994 O   0  0  0  0  0  0  0  0  0  0  0  0
   19.8805  -12.3044  -21.4383 C   0  0  0  0  0  0  0  0  0  0  0  0
   18.6571  -11.7499  -21.2005 C   0  0  0  0  0  0  0  0  0  0  0  0
   18.4654  -10.8536  -20.1430 C   0  0  0  0  0  0  0  0  0  0  0  0
   19.5112  -10.5037  -19.3078 C   0  0  0  0  0  0  0  0  0  0  0  0
   19.3302   -9.5682  -18.1966 C   0  0  0  0  0  0  0  0  0  0  0  0
   19.4708  -10.1898  -16.8370 C   0  0  2  0  0  0  0  0  0  0  0  0
   18.5349  -11.2404  -16.5870 N   0  0  0  0  0  0  0  0  0  0  0  0
   19.3279   -9.0771  -15.8476 C   0  0  0  0  0  0  0  0  0  0  0  0
   18.1889   -8.7833  -15.4188 O   0  0  0  0  0  0  0  0  0  0  0  0
   20.7365  -11.0787  -19.5707 C   0  0  0  0  0  0  0  0  0  0  0  0
   20.9402  -11.9643  -20.6102 C   0  0  0  0  0  0  0  0  0  0  0  0
   20.4378   -8.3307  -15.3671 N   0  0  0  0  0  0  0  0  0  0  0  0
   20.3350   -7.3265  -14.3283 C   0  0  1  0  0  0  0  0  0  0  0  0
   21.3271   -7.7249  -13.2269 C   0  0  0  0  0  0  0  0  0  0  0  0
   20.5533   -8.8667  -12.0784 S   0  0  0  0  0  0  0  0  0  0  0  0
   20.6291   -5.9700  -14.8349 C   0  0  0  0  0  0  0  0  0  0  0  0
   21.6048   -5.7713  -15.5998 O   0  0  0  0  0  0  0  0  0  0  0  0
   19.8368   -4.8464  -14.4871 N   0  0  0  0  0  0  0  0  0  0  0  0
   20.1024   -3.5040  -15.0106 C   0  0  1  0  0  0  0  0  0  0  0  0
   18.8826   -2.6811  -14.7293 C   0  0  0  0  0  0  0  0  0  0  0  0
   18.9695   -1.2556  -15.1562 C   0  0  0  0  0  0  0  0  0  0  0  0
   17.6877   -0.4917  -14.9519 C   0  0  0  0  0  0  0  0  0  0  0  0
   17.7884    0.9326  -15.4517 C   0  0  0  0  0  0  0  0  0  0  0  0
   16.5567    1.6586  -15.2738 N   0  0  0  0  0  0  0  0  0  0  0  0
   21.3270   -2.9383  -14.4067 C   0  0  0  0  0  0  0  0  0  0  0  0
   21.6463   -3.2630  -13.2200 O   0  0  0  0  0  0  0  0  0  0  0  0
   22.1792   -2.0602  -15.0441 O   0  0  0  0  0  0  0  0  0  0  0  0
  2  1  1  0
  2 12  2  0
  3  2  1  0
  4  3  2  0
  4  5  1  0
  5 11  2  0
  6  5  1  0
  7  9  1  0
  7  6  1  0
  7  8  1  1
  9 10  2  0
 11 12  1  0
 13  9  1  0
 13 14  1  0
 14 17  1  0
 15 16  1  0
 14 15  1  1
 17 18  2  0
 19 17  1  0
 19 20  1  0
 20 26  1  0
 20 21  1  1
 22 21  1  0
 23 22  1  0
 24 23  1  0
 25 24  1  0
 26 27  2  0
 26 28  1  0
M  END
$$$$
