YCK.pdb
     RDKit          3D

 28 28  0  0  1  0  0  0  0  0999 V2000
   28.7426  -14.5458  -17.8046 O   0  0  0  0  0  0  0  0  0  0  0  0
   28.1319  -15.6127  -17.1362 C   0  0  0  0  0  0  0  0  0  0  0  0
   27.7301  -16.7188  -17.8260 C   0  0  0  0  0  0  0  0  0  0  0  0
   27.1180  -17.7936  -17.1711 C   0  0  0  0  0  0  0  0  0  0  0  0
   26.9026  -17.7655  -15.8050 C   0  0  0  0  0  0  0  0  0  0  0  0
   26.2642  -18.8797  -15.1024 C   0  0  0  0  0  0  0  0  0  0  0  0
   27.2230  -19.9092  -14.5775 C   0  0  2  0  0  0  0  0  0  0  0  0
   27.9708  -20.5707  -15.6000 N   0  0  0  0  0  0  0  0  0  0  0  0
   26.4083  -20.8756  -13.7776 C   0  0  0  0  0  0  0  0  0  0  0  0
   25.8415  -21.8270  -14.3616 O   0  0  0  0  0  0  0  0  0  0  0  0
   27.3183  -16.6357  -15.1326 C   0  0  0  0  0  0  0  0  0  0  0  0
   27.9234  -15.5681  -15.7655 C   0  0  0  0  0  0  0  0  0  0  0  0
   26.2466  -20.7616  -12.3702 N   0  0  0  0  0  0  0  0  0  0  0  0
   25.1347  -21.3408  -11.6449 C   0  0  1  0  0  0  0  0  0  0  0  0
   25.4643  -21.2117  -10.1513 C   0  0  0  0  0  0  0  0  0  0  0  0
   25.4193  -19.4879   -9.6529 S   0  0  0  0  0  0  0  0  0  0  0  0
   23.8558  -20.6715  -11.9605 C   0  0  0  0  0  0  0  0  0  0  0  0
   23.7946  -19.4207  -12.0515 O   0  0  0  0  0  0  0  0  0  0  0  0
   22.6561  -21.3978  -12.1721 N   0  0  0  0  0  0  0  0  0  0  0  0
   21.3627  -20.7394  -12.3725 C   0  0  1  0  0  0  0  0  0  0  0  0
   21.0231  -20.8863  -13.8242 C   0  0  0  0  0  0  0  0  0  0  0  0
   19.7324  -20.2658  -14.2374 C   0  0  0  0  0  0  0  0  0  0  0  0
   19.4325  -20.4315  -15.7039 C   0  0  0  0  0  0  0  0  0  0  0  0
   18.2174  -19.6371  -16.1294 C   0  0  0  0  0  0  0  0  0  0  0  0
   18.0229  -19.6655  -17.5568 N   0  0  0  0  0  0  0  0  0  0  0  0
   20.3354  -21.3194  -11.4822 C   0  0  0  0  0  0  0  0  0  0  0  0
   19.1980  -20.7593  -11.3918 O   0  0  0  0  0  0  0  0  0  0  0  0
   20.5140  -22.4539  -10.7176 O   0  0  0  0  0  0  0  0  0  0  0  0
  2  1  1  0
  2 12  2  0
  3  2  1  0
  4  3  2  0
  4  5  1  0
  5 11  2  0
  6  5  1  0
  7  9  1  0
  7  6  1  0
  7  8  1  6
  9 10  2  0
 11 12  1  0
 13  9  1  0
 13 14  1  0
 14 17  1  0
 15 16  1  0
 14 15  1  1
 17 18  2  0
 19 17  1  0
 19 20  1  0
 20 26  1  0
 20 21  1  6
 22 21  1  0
 23 22  1  0
 24 23  1  0
 25 24  1  0
 26 27  2  0
 26 28  1  0
M  END
$$$$
