YCK.pdb
     RDKit          3D

 28 28  0  0  1  0  0  0  0  0999 V2000
   23.0232  -17.4387  -22.1900 O   0  0  0  0  0  0  0  0  0  0  0  0
   23.1474  -16.3712  -21.2940 C   0  0  0  0  0  0  0  0  0  0  0  0
   23.6104  -15.1618  -21.7227 C   0  0  0  0  0  0  0  0  0  0  0  0
   23.7399  -14.0851  -20.8381 C   0  0  0  0  0  0  0  0  0  0  0  0
   23.4021  -14.2159  -19.5030 C   0  0  0  0  0  0  0  0  0  0  0  0
   23.5305  -13.1014  -18.5628 C   0  0  0  0  0  0  0  0  0  0  0  0
   24.9470  -12.6889  -18.2838 C   0  0  2  0  0  0  0  0  0  0  0  0
   25.7761  -13.7586  -17.8248 N   0  0  0  0  0  0  0  0  0  0  0  0
   24.8742  -11.5795  -17.2831 C   0  0  0  0  0  0  0  0  0  0  0  0
   25.4531  -11.7118  -16.1809 O   0  0  0  0  0  0  0  0  0  0  0  0
   22.9370  -15.4488  -19.0968 C   0  0  0  0  0  0  0  0  0  0  0  0
   22.8041  -16.5196  -19.9582 C   0  0  0  0  0  0  0  0  0  0  0  0
   24.1704  -10.3695  -17.5292 N   0  0  0  0  0  0  0  0  0  0  0  0
   24.1851   -9.2391  -16.6238 C   0  0  1  0  0  0  0  0  0  0  0  0
   25.6058   -8.6592  -16.6619 C   0  0  0  0  0  0  0  0  0  0  0  0
   26.0036   -8.1007  -18.3207 S   0  0  0  0  0  0  0  0  0  0  0  0
   23.1890   -8.2139  -16.9978 C   0  0  0  0  0  0  0  0  0  0  0  0
   22.9251   -7.9896  -18.2047 O   0  0  0  0  0  0  0  0  0  0  0  0
   22.4948   -7.4470  -16.0275 N   0  0  0  0  0  0  0  0  0  0  0  0
   21.0327   -7.3576  -15.9941 C   0  0  1  0  0  0  0  0  0  0  0  0
   20.5198   -8.7471  -15.7695 C   0  0  0  0  0  0  0  0  0  0  0  0
   19.0398   -8.8601  -15.6322 C   0  0  0  0  0  0  0  0  0  0  0  0
   18.3542   -9.2988  -16.8994 C   0  0  0  0  0  0  0  0  0  0  0  0
   16.8604   -9.4502  -16.7147 C   0  0  0  0  0  0  0  0  0  0  0  0
   16.1792   -8.1808  -16.7371 N   0  0  0  0  0  0  0  0  0  0  0  0
   20.5890   -6.4076  -14.9525 C   0  0  0  0  0  0  0  0  0  0  0  0
   21.2558   -6.3044  -13.8754 O   0  0  0  0  0  0  0  0  0  0  0  0
   19.4765   -5.5980  -15.0558 O   0  0  0  0  0  0  0  0  0  0  0  0
  2  1  1  0
  2 12  2  0
  3  2  1  0
  4  3  2  0
  4  5  1  0
  5 11  2  0
  6  5  1  0
  7  9  1  0
  7  6  1  0
  7  8  1  1
  9 10  2  0
 11 12  1  0
 13  9  1  0
 13 14  1  0
 14 17  1  0
 15 16  1  0
 14 15  1  6
 17 18  2  0
 19 17  1  0
 19 20  1  0
 20 26  1  0
 20 21  1  1
 22 21  1  0
 23 22  1  0
 24 23  1  0
 25 24  1  0
 26 27  2  0
 26 28  1  0
M  END
$$$$
