YCK.pdb
     RDKit          3D

 28 28  0  0  1  0  0  0  0  0999 V2000
   18.5522  -24.7382   -8.9062 O   0  0  0  0  0  0  0  0  0  0  0  0
   19.2265  -25.1766  -10.0512 C   0  0  0  0  0  0  0  0  0  0  0  0
   19.5491  -26.4937  -10.1993 C   0  0  0  0  0  0  0  0  0  0  0  0
   20.2233  -26.9467  -11.3390 C   0  0  0  0  0  0  0  0  0  0  0  0
   20.5822  -26.0719  -12.3486 C   0  0  0  0  0  0  0  0  0  0  0  0
   21.2874  -26.5269  -13.5480 C   0  0  0  0  0  0  0  0  0  0  0  0
   20.5480  -26.2777  -14.8309 C   0  0  2  0  0  0  0  0  0  0  0  0
   19.2802  -26.9335  -14.8989 N   0  0  0  0  0  0  0  0  0  0  0  0
   21.4568  -26.7188  -15.9341 C   0  0  0  0  0  0  0  0  0  0  0  0
   20.9694  -27.2919  -16.9349 O   0  0  0  0  0  0  0  0  0  0  0  0
   20.2440  -24.7467  -12.1732 C   0  0  0  0  0  0  0  0  0  0  0  0
   19.5791  -24.2857  -11.0544 C   0  0  0  0  0  0  0  0  0  0  0  0
   22.8628  -26.5147  -15.8976 N   0  0  0  0  0  0  0  0  0  0  0  0
   23.7371  -26.7780  -17.0219 C   0  0  1  0  0  0  0  0  0  0  0  0
   23.3007  -25.8364  -18.1528 C   0  0  0  0  0  0  0  0  0  0  0  0
   23.2196  -24.1457  -17.5557 S   0  0  0  0  0  0  0  0  0  0  0  0
   25.1594  -26.5668  -16.6818 C   0  0  0  0  0  0  0  0  0  0  0  0
   25.5017  -25.6305  -15.9184 O   0  0  0  0  0  0  0  0  0  0  0  0
   26.1889  -27.3977  -17.1929 N   0  0  0  0  0  0  0  0  0  0  0  0
   27.5894  -27.2553  -16.7868 C   0  0  1  0  0  0  0  0  0  0  0  0
   28.2587  -28.5639  -17.0763 C   0  0  0  0  0  0  0  0  0  0  0  0
   27.8664  -29.6869  -16.1780 C   0  0  0  0  0  0  0  0  0  0  0  0
   28.5886  -30.9735  -16.4800 C   0  0  0  0  0  0  0  0  0  0  0  0
   27.9827  -32.1511  -15.7488 C   0  0  0  0  0  0  0  0  0  0  0  0
   28.6248  -33.3936  -16.0948 N   0  0  0  0  0  0  0  0  0  0  0  0
   28.2254  -26.1193  -17.4864 C   0  0  0  0  0  0  0  0  0  0  0  0
   29.3751  -25.7223  -17.1173 O   0  0  0  0  0  0  0  0  0  0  0  0
   27.6573  -25.4330  -18.5398 O   0  0  0  0  0  0  0  0  0  0  0  0
  2  1  1  0
  2 12  2  0
  3  2  1  0
  4  3  2  0
  4  5  1  0
  5 11  2  0
  6  5  1  0
  7  9  1  0
  7  6  1  0
  7  8  1  1
  9 10  2  0
 11 12  1  0
 13  9  1  0
 13 14  1  0
 14 17  1  0
 15 16  1  0
 14 15  1  6
 17 18  2  0
 19 17  1  0
 19 20  1  0
 20 26  1  0
 20 21  1  6
 22 21  1  0
 23 22  1  0
 24 23  1  0
 25 24  1  0
 26 27  2  0
 26 28  1  0
M  END
$$$$
