YCK.pdb
     RDKit          3D

 28 28  0  0  1  0  0  0  0  0999 V2000
   17.1313  -11.1650  -20.5650 O   0  0  0  0  0  0  0  0  0  0  0  0
   17.5946  -10.7754  -19.3034 C   0  0  0  0  0  0  0  0  0  0  0  0
   18.8851  -11.0218  -18.9367 C   0  0  0  0  0  0  0  0  0  0  0  0
   19.3625  -10.6379  -17.6784 C   0  0  0  0  0  0  0  0  0  0  0  0
   18.5393   -9.9974  -16.7696 C   0  0  0  0  0  0  0  0  0  0  0  0
   19.0204   -9.5882  -15.4491 C   0  0  0  0  0  0  0  0  0  0  0  0
   20.5032   -9.3640  -15.3743 C   0  0  2  0  0  0  0  0  0  0  0  0
   21.2727  -10.5570  -15.5377 N   0  0  0  0  0  0  0  0  0  0  0  0
   20.7657   -8.7154  -14.0522 C   0  0  0  0  0  0  0  0  0  0  0  0
   21.8382   -8.9592  -13.4542 O   0  0  0  0  0  0  0  0  0  0  0  0
   17.2400   -9.7609  -17.1661 C   0  0  0  0  0  0  0  0  0  0  0  0
   16.7555  -10.1339  -18.4041 C   0  0  0  0  0  0  0  0  0  0  0  0
   19.8433   -7.8257  -13.4377 N   0  0  0  0  0  0  0  0  0  0  0  0
   20.2032   -6.9137  -12.3716 C   0  0  1  0  0  0  0  0  0  0  0  0
   21.2973   -5.9918  -12.9275 C   0  0  0  0  0  0  0  0  0  0  0  0
   21.6664   -4.6876  -11.7509 S   0  0  0  0  0  0  0  0  0  0  0  0
   19.0453   -6.1281  -11.8970 C   0  0  0  0  0  0  0  0  0  0  0  0
   18.5584   -5.2147  -12.6078 O   0  0  0  0  0  0  0  0  0  0  0  0
   18.4385   -6.3643  -10.6371 N   0  0  0  0  0  0  0  0  0  0  0  0
   17.1756   -5.7354  -10.2417 C   0  0  1  0  0  0  0  0  0  0  0  0
   16.4455   -6.7291   -9.3910 C   0  0  0  0  0  0  0  0  0  0  0  0
   15.1051   -6.2870   -8.9118 C   0  0  0  0  0  0  0  0  0  0  0  0
   14.3936   -7.3260   -8.0856 C   0  0  0  0  0  0  0  0  0  0  0  0
   13.0295   -6.8554   -7.6316 C   0  0  0  0  0  0  0  0  0  0  0  0
   12.2883   -7.8983   -6.9690 N   0  0  0  0  0  0  0  0  0  0  0  0
   17.4226   -4.4559   -9.5443 C   0  0  0  0  0  0  0  0  0  0  0  0
   16.5290   -3.5521   -9.5610 O   0  0  0  0  0  0  0  0  0  0  0  0
   18.5783   -4.1519   -8.8549 O   0  0  0  0  0  0  0  0  0  0  0  0
  2  1  1  0
  2 12  2  0
  3  2  1  0
  4  3  2  0
  4  5  1  0
  5 11  2  0
  6  5  1  0
  7  9  1  0
  7  6  1  0
  7  8  1  1
  9 10  2  0
 11 12  1  0
 13  9  1  0
 13 14  1  0
 14 17  1  0
 15 16  1  0
 14 15  1  6
 17 18  2  0
 19 17  1  0
 19 20  1  0
 20 26  1  0
 20 21  1  1
 22 21  1  0
 23 22  1  0
 24 23  1  0
 25 24  1  0
 26 27  2  0
 26 28  1  0
M  END
$$$$
