YCK.pdb
     RDKit          3D

 28 28  0  0  1  0  0  0  0  0999 V2000
   24.9006  -23.5658  -15.5131 O   0  0  0  0  0  0  0  0  0  0  0  0
   25.6807  -24.6937  -15.7910 C   0  0  0  0  0  0  0  0  0  0  0  0
   25.1995  -25.9444  -15.5365 C   0  0  0  0  0  0  0  0  0  0  0  0
   25.9681  -27.0816  -15.8092 C   0  0  0  0  0  0  0  0  0  0  0  0
   27.2387  -26.9705  -16.3449 C   0  0  0  0  0  0  0  0  0  0  0  0
   28.0576  -28.1480  -16.6371 C   0  0  0  0  0  0  0  0  0  0  0  0
   27.9186  -28.6642  -18.0403 C   0  0  2  0  0  0  0  0  0  0  0  0
   26.6306  -29.2144  -18.3240 N   0  0  0  0  0  0  0  0  0  0  0  0
   29.0039  -29.6764  -18.2270 C   0  0  0  0  0  0  0  0  0  0  0  0
   28.6971  -30.8815  -18.3724 O   0  0  0  0  0  0  0  0  0  0  0  0
   27.7003  -25.6949  -16.5922 C   0  0  0  0  0  0  0  0  0  0  0  0
   26.9531  -24.5642  -16.3282 C   0  0  0  0  0  0  0  0  0  0  0  0
   30.3818  -29.3287  -18.2472 N   0  0  0  0  0  0  0  0  0  0  0  0
   31.4182  -30.2027  -18.7568 C   0  0  1  0  0  0  0  0  0  0  0  0
   31.0375  -30.5449  -20.2039 C   0  0  0  0  0  0  0  0  0  0  0  0
   32.2934  -31.5916  -20.9448 S   0  0  0  0  0  0  0  0  0  0  0  0
   32.7541  -29.5738  -18.6997 C   0  0  0  0  0  0  0  0  0  0  0  0
   32.8987  -28.3556  -18.9672 O   0  0  0  0  0  0  0  0  0  0  0  0
   33.9173  -30.3039  -18.3458 N   0  0  0  0  0  0  0  0  0  0  0  0
   35.2218  -29.6634  -18.1593 C   0  0  1  0  0  0  0  0  0  0  0  0
   36.1032  -30.6671  -17.4811 C   0  0  0  0  0  0  0  0  0  0  0  0
   37.4789  -30.1886  -17.1645 C   0  0  0  0  0  0  0  0  0  0  0  0
   38.3282  -31.2250  -16.4768 C   0  0  0  0  0  0  0  0  0  0  0  0
   39.7310  -30.7252  -16.2103 C   0  0  0  0  0  0  0  0  0  0  0  0
   40.5542  -31.7275  -15.5829 N   0  0  0  0  0  0  0  0  0  0  0  0
   35.7689  -29.2013  -19.4522 C   0  0  0  0  0  0  0  0  0  0  0  0
   35.6490  -29.9381  -20.4810 O   0  0  0  0  0  0  0  0  0  0  0  0
   36.4189  -27.9991  -19.6410 O   0  0  0  0  0  0  0  0  0  0  0  0
  2  1  1  0
  2 12  2  0
  3  2  1  0
  4  3  2  0
  4  5  1  0
  5 11  2  0
  6  5  1  0
  7  9  1  0
  7  6  1  0
  7  8  1  1
  9 10  2  0
 11 12  1  0
 13  9  1  0
 13 14  1  0
 14 17  1  0
 15 16  1  0
 14 15  1  6
 17 18  2  0
 19 17  1  0
 19 20  1  0
 20 26  1  0
 20 21  1  6
 22 21  1  0
 23 22  1  0
 24 23  1  0
 25 24  1  0
 26 27  2  0
 26 28  1  0
M  END
$$$$
