NIY.pdb
     RDKit          3D

 29 29  0  0  1  0  0  0  0  0999 V2000
    7.3761  -18.1348   20.1969 N   0  0  0  0  0  0  0  0  0  0  0  0
    6.8545  -16.8480   19.9654 C   0  0  0  0  0  0  0  0  0  0  0  0
    6.3053  -16.5845   18.8754 O   0  0  0  0  0  0  0  0  0  0  0  0
    6.9508  -15.7989   21.0062 C   0  0  0  0  0  0  0  0  0  0  0  0
    7.6675  -16.4532   22.1891 C   0  0  2  0  0  0  0  0  0  0  0  0
    6.7293  -17.1340   23.0451 N   0  0  0  0  0  0  0  0  0  0  0  0
    8.4419  -15.4139   22.9088 C   0  0  0  0  0  0  0  0  0  0  0  0
    9.3074  -14.7671   22.3114 O   0  0  0  0  0  0  0  0  0  0  0  0
    5.7542  -12.3611   26.1798 C   0  0  0  0  0  0  0  0  0  0  0  0
    6.9120  -12.8405   25.3929 C   0  0  0  0  0  0  0  0  0  0  0  0
    7.8576  -13.7432   26.1477 C   0  0  2  0  0  0  0  0  0  0  0  0
    8.5746  -13.0695   27.2491 C   0  0  0  0  0  0  0  0  0  0  0  0
    8.8811  -14.1899   25.0883 C   0  0  2  0  0  0  0  0  0  0  0  0
    8.1648  -15.1914   24.2681 N   0  0  0  0  0  0  0  0  0  0  0  0
   10.0352  -14.9057   25.6745 C   0  0  0  0  0  0  0  0  0  0  0  0
   10.7734  -14.2921   26.5322 O   0  0  0  0  0  0  0  0  0  0  0  0
   10.9603  -21.0155   31.4308 O   0  0  0  0  0  0  0  0  0  0  0  0
   10.6249  -20.0830   30.4559 C   0  0  0  0  0  0  0  0  0  0  0  0
    9.5865  -20.3026   29.5640 C   0  0  0  0  0  0  0  0  0  0  0  0
    9.2463  -19.3879   28.5981 C   0  0  0  0  0  0  0  0  0  0  0  0
    9.9422  -18.2057   28.4893 C   0  0  0  0  0  0  0  0  0  0  0  0
    9.6079  -17.2273   27.4482 C   0  0  0  0  0  0  0  0  0  0  0  0
   10.7454  -17.1353   26.4592 C   0  0  2  0  0  0  0  0  0  0  0  0
   10.3978  -16.2349   25.3653 N   0  0  0  0  0  0  0  0  0  0  0  0
   11.0972  -18.4260   25.8813 C   0  0  0  0  0  0  0  0  0  0  0  0
   12.1526  -19.1820   26.3219 O   0  0  0  0  0  0  0  0  0  0  0  0
   10.9743  -17.9608   29.3569 C   0  0  0  0  0  0  0  0  0  0  0  0
   11.3163  -18.8957   30.3386 C   0  0  0  0  0  0  0  0  0  0  0  0
   10.4203  -18.9078   24.9206 O   0  0  0  0  0  0  0  0  0  0  0  0
  2  1  1  0
  2  3  2  0
  4  5  1  0
  4  2  1  0
  5  6  1  1
  7  5  1  0
  8  7  2  0
 10  9  1  0
 11 10  1  0
 11 13  1  0
 11 12  1  1
 13 14  1  6
 14  7  1  0
 15 24  1  0
 15 13  1  0
 16 15  2  0
 17 18  1  0
 18 28  2  0
 19 18  1  0
 19 20  2  0
 20 21  1  0
 21 27  2  0
 21 22  1  0
 23 22  1  1
 23 24  1  0
 23 25  1  0
 25 26  1  0
 28 27  1  0
 29 25  2  0
M  END
$$$$
