NIY.pdb
     RDKit          3D

 29 29  0  0  1  0  0  0  0  0999 V2000
   13.7278  -18.2591   16.9920 N   0  0  0  0  0  0  0  0  0  0  0  0
   12.5430  -17.5108   17.1264 C   0  0  0  0  0  0  0  0  0  0  0  0
   11.6484  -17.5986   16.2598 O   0  0  0  0  0  0  0  0  0  0  0  0
   12.3461  -16.6166   18.2903 C   0  0  0  0  0  0  0  0  0  0  0  0
   11.2554  -17.2741   19.1382 C   0  0  2  0  0  0  0  0  0  0  0  0
   10.1351  -17.6649   18.3207 N   0  0  0  0  0  0  0  0  0  0  0  0
   10.8686  -16.3395   20.2221 C   0  0  0  0  0  0  0  0  0  0  0  0
   11.7306  -15.8869   20.9813 O   0  0  0  0  0  0  0  0  0  0  0  0
    7.1797  -12.8760   18.9393 C   0  0  0  0  0  0  0  0  0  0  0  0
    8.2392  -13.5677   19.7065 C   0  0  0  0  0  0  0  0  0  0  0  0
    7.7354  -14.4583   20.8164 C   0  0  2  0  0  0  0  0  0  0  0  0
    7.0180  -13.7331   21.8844 C   0  0  0  0  0  0  0  0  0  0  0  0
    9.0112  -15.0823   21.4098 C   0  0  2  0  0  0  0  0  0  0  0  0
    9.5142  -15.9905   20.3558 N   0  0  0  0  0  0  0  0  0  0  0  0
    8.7353  -15.9434   22.5804 C   0  0  0  0  0  0  0  0  0  0  0  0
    8.7699  -17.2214   22.4305 O   0  0  0  0  0  0  0  0  0  0  0  0
   10.9670  -15.9539   31.0731 O   0  0  0  0  0  0  0  0  0  0  0  0
   10.6339  -15.5946   29.7722 C   0  0  0  0  0  0  0  0  0  0  0  0
   10.9489  -14.3465   29.2576 C   0  0  0  0  0  0  0  0  0  0  0  0
   10.6254  -13.9817   27.9740 C   0  0  0  0  0  0  0  0  0  0  0  0
    9.9669  -14.8647   27.1491 C   0  0  0  0  0  0  0  0  0  0  0  0
    9.5923  -14.4838   25.7826 C   0  0  0  0  0  0  0  0  0  0  0  0
    9.3830  -15.7275   24.9521 C   0  0  2  0  0  0  0  0  0  0  0  0
    8.4340  -15.4672   23.8751 N   0  0  0  0  0  0  0  0  0  0  0  0
    8.8769  -16.8493   25.7326 C   0  0  0  0  0  0  0  0  0  0  0  0
    9.6878  -17.6884   26.4522 O   0  0  0  0  0  0  0  0  0  0  0  0
    9.6418  -16.1061   27.6303 C   0  0  0  0  0  0  0  0  0  0  0  0
    9.9738  -16.4721   28.9382 C   0  0  0  0  0  0  0  0  0  0  0  0
    7.6317  -17.0968   25.7723 O   0  0  0  0  0  0  0  0  0  0  0  0
  2  1  1  0
  2  3  2  0
  4  5  1  0
  4  2  1  0
  5  6  1  6
  7  5  1  0
  8  7  2  0
 10  9  1  0
 11 10  1  0
 11 13  1  0
 11 12  1  1
 13 14  1  6
 14  7  1  0
 15 24  1  0
 15 13  1  0
 16 15  2  0
 17 18  1  0
 18 28  2  0
 19 18  1  0
 19 20  2  0
 20 21  1  0
 21 27  2  0
 21 22  1  0
 23 22  1  1
 23 24  1  0
 23 25  1  0
 25 26  1  0
 28 27  1  0
 29 25  2  0
M  END
$$$$
