NIY.pdb
     RDKit          3D

 29 29  0  0  1  0  0  0  0  0999 V2000
    8.0701  -21.6632   17.9201 N   0  0  0  0  0  0  0  0  0  0  0  0
    7.9290  -20.2631   17.8841 C   0  0  0  0  0  0  0  0  0  0  0  0
    7.1175  -19.7383   17.0935 O   0  0  0  0  0  0  0  0  0  0  0  0
    8.7367  -19.4025   18.7785 C   0  0  0  0  0  0  0  0  0  0  0  0
    8.8354  -18.0486   18.0728 C   0  0  2  0  0  0  0  0  0  0  0  0
    9.5593  -18.1675   16.8326 N   0  0  0  0  0  0  0  0  0  0  0  0
    9.4561  -17.0735   19.0012 C   0  0  0  0  0  0  0  0  0  0  0  0
   10.6725  -17.1102   19.2094 O   0  0  0  0  0  0  0  0  0  0  0  0
    6.7698  -12.3854   19.6731 C   0  0  0  0  0  0  0  0  0  0  0  0
    7.8576  -13.3885   19.6748 C   0  0  0  0  0  0  0  0  0  0  0  0
    7.9315  -14.2369   20.9212 C   0  0  2  0  0  0  0  0  0  0  0  0
    8.1974  -13.4665   22.1528 C   0  0  0  0  0  0  0  0  0  0  0  0
    9.1156  -15.1861   20.6635 C   0  0  2  0  0  0  0  0  0  0  0  0
    8.6314  -16.1225   19.6254 N   0  0  0  0  0  0  0  0  0  0  0  0
    9.4417  -16.0251   21.8371 C   0  0  0  0  0  0  0  0  0  0  0  0
    8.5584  -16.8563   22.2684 O   0  0  0  0  0  0  0  0  0  0  0  0
   12.1168  -22.1608   27.0281 O   0  0  0  0  0  0  0  0  0  0  0  0
   11.8049  -21.2268   26.0468 C   0  0  0  0  0  0  0  0  0  0  0  0
   10.5456  -20.6533   25.9605 C   0  0  0  0  0  0  0  0  0  0  0  0
   10.2273  -19.7294   24.9960 C   0  0  0  0  0  0  0  0  0  0  0  0
   11.1702  -19.3414   24.0718 C   0  0  0  0  0  0  0  0  0  0  0  0
   10.8408  -18.3732   23.0198 C   0  0  0  0  0  0  0  0  0  0  0  0
   10.9031  -16.9742   23.5849 C   0  0  2  0  0  0  0  0  0  0  0  0
   10.6691  -15.9894   22.5343 N   0  0  0  0  0  0  0  0  0  0  0  0
   12.1875  -16.6715   24.2034 C   0  0  0  0  0  0  0  0  0  0  0  0
   13.1259  -15.8581   23.6228 O   0  0  0  0  0  0  0  0  0  0  0  0
   12.4239  -19.8915   24.1317 C   0  0  0  0  0  0  0  0  0  0  0  0
   12.7426  -20.8319   25.1161 C   0  0  0  0  0  0  0  0  0  0  0  0
   12.4913  -17.1668   25.3329 O   0  0  0  0  0  0  0  0  0  0  0  0
  2  1  1  0
  2  3  2  0
  4  5  1  0
  4  2  1  0
  5  6  1  6
  7  5  1  0
  8  7  2  0
 10  9  1  0
 11 10  1  0
 11 13  1  0
 11 12  1  1
 13 14  1  6
 14  7  1  0
 15 24  1  0
 15 13  1  0
 16 15  2  0
 17 18  1  0
 18 28  2  0
 19 18  1  0
 19 20  2  0
 20 21  1  0
 21 27  2  0
 21 22  1  0
 23 22  1  6
 23 24  1  0
 23 25  1  0
 25 26  1  0
 28 27  1  0
 29 25  2  0
M  END
$$$$
