NIY.pdb
     RDKit          3D

 29 29  0  0  1  0  0  0  0  0999 V2000
    8.9675  -19.7592   16.1564 N   0  0  0  0  0  0  0  0  0  0  0  0
    9.3760  -18.5853   15.4955 C   0  0  0  0  0  0  0  0  0  0  0  0
    9.6861  -18.6259   14.2867 O   0  0  0  0  0  0  0  0  0  0  0  0
    9.4421  -17.2970   16.2228 C   0  0  0  0  0  0  0  0  0  0  0  0
    9.1022  -17.6247   17.6781 C   0  0  2  0  0  0  0  0  0  0  0  0
    7.6796  -17.7738   17.8522 N   0  0  0  0  0  0  0  0  0  0  0  0
    9.6730  -16.5689   18.5484 C   0  0  0  0  0  0  0  0  0  0  0  0
   10.8952  -16.3982   18.5882 O   0  0  0  0  0  0  0  0  0  0  0  0
    6.5755  -12.3455   19.1044 C   0  0  0  0  0  0  0  0  0  0  0  0
    7.7509  -13.2431   19.1500 C   0  0  0  0  0  0  0  0  0  0  0  0
    8.0260  -13.8542   20.5028 C   0  0  2  0  0  0  0  0  0  0  0  0
    8.3500  -12.8646   21.5500 C   0  0  0  0  0  0  0  0  0  0  0  0
    9.2546  -14.7517   20.2700 C   0  0  2  0  0  0  0  0  0  0  0  0
    8.7953  -15.7820   19.3127 N   0  0  0  0  0  0  0  0  0  0  0  0
    9.6621  -15.4895   21.4854 C   0  0  0  0  0  0  0  0  0  0  0  0
    8.7477  -15.9457   22.2683 O   0  0  0  0  0  0  0  0  0  0  0  0
   12.3665  -20.4077   27.8872 O   0  0  0  0  0  0  0  0  0  0  0  0
   11.9226  -19.7393   26.7520 C   0  0  0  0  0  0  0  0  0  0  0  0
   10.7995  -20.1554   26.0538 C   0  0  0  0  0  0  0  0  0  0  0  0
   10.3520  -19.5021   24.9322 C   0  0  0  0  0  0  0  0  0  0  0  0
   11.0211  -18.3947   24.4634 C   0  0  0  0  0  0  0  0  0  0  0  0
   10.5711  -17.6984   23.2529 C   0  0  0  0  0  0  0  0  0  0  0  0
   11.2544  -16.3548   23.1610 C   0  0  2  0  0  0  0  0  0  0  0  0
   10.9995  -15.7415   21.8620 N   0  0  0  0  0  0  0  0  0  0  0  0
   12.6982  -16.4420   23.3386 C   0  0  0  0  0  0  0  0  0  0  0  0
   13.5962  -15.8996   22.4561 O   0  0  0  0  0  0  0  0  0  0  0  0
   12.1353  -17.9600   25.1325 C   0  0  0  0  0  0  0  0  0  0  0  0
   12.5864  -18.6291   26.2743 C   0  0  0  0  0  0  0  0  0  0  0  0
   13.1884  -17.0426   24.3448 O   0  0  0  0  0  0  0  0  0  0  0  0
  2  1  1  0
  2  3  2  0
  4  5  1  0
  4  2  1  0
  5  6  1  6
  7  5  1  0
  8  7  2  0
 10  9  1  0
 11 10  1  0
 11 13  1  0
 11 12  1  1
 13 14  1  6
 14  7  1  0
 15 24  1  0
 15 13  1  0
 16 15  2  0
 17 18  1  0
 18 28  2  0
 19 18  1  0
 19 20  2  0
 20 21  1  0
 21 27  2  0
 21 22  1  0
 23 22  1  6
 23 24  1  0
 23 25  1  0
 25 26  1  0
 28 27  1  0
 29 25  2  0
M  END
$$$$
