NIY.pdb
     RDKit          3D

 29 29  0  0  1  0  0  0  0  0999 V2000
   10.0948  -20.0075   16.3220 N   0  0  0  0  0  0  0  0  0  0  0  0
    9.1357  -19.3845   17.1427 C   0  0  0  0  0  0  0  0  0  0  0  0
    8.1089  -20.0071   17.4850 O   0  0  0  0  0  0  0  0  0  0  0  0
    9.3330  -17.9919   17.6062 C   0  0  0  0  0  0  0  0  0  0  0  0
    9.1461  -18.0300   19.1243 C   0  0  2  0  0  0  0  0  0  0  0  0
    7.7826  -18.3468   19.4660 N   0  0  0  0  0  0  0  0  0  0  0  0
    9.5862  -16.7321   19.6896 C   0  0  0  0  0  0  0  0  0  0  0  0
   10.7564  -16.3645   19.5490 O   0  0  0  0  0  0  0  0  0  0  0  0
    6.9212  -12.4241   19.0005 C   0  0  0  0  0  0  0  0  0  0  0  0
    7.9585  -13.3682   19.4719 C   0  0  0  0  0  0  0  0  0  0  0  0
    7.8406  -13.7612   20.9247 C   0  0  2  0  0  0  0  0  0  0  0  0
    7.9787  -12.6286   21.8624 C   0  0  0  0  0  0  0  0  0  0  0  0
    9.0094  -14.7373   21.1489 C   0  0  2  0  0  0  0  0  0  0  0  0
    8.6463  -15.9466   20.3778 N   0  0  0  0  0  0  0  0  0  0  0  0
    9.1227  -15.1800   22.5556 C   0  0  0  0  0  0  0  0  0  0  0  0
    8.0925  -15.0797   23.3210 O   0  0  0  0  0  0  0  0  0  0  0  0
   10.5475  -15.2678   30.8899 O   0  0  0  0  0  0  0  0  0  0  0  0
   10.2632  -15.4198   29.5376 C   0  0  0  0  0  0  0  0  0  0  0  0
    9.9352  -14.3375   28.7358 C   0  0  0  0  0  0  0  0  0  0  0  0
    9.6535  -14.4763   27.3991 C   0  0  0  0  0  0  0  0  0  0  0  0
    9.6908  -15.7193   26.8099 C   0  0  0  0  0  0  0  0  0  0  0  0
    9.3696  -15.8897   25.3884 C   0  0  0  0  0  0  0  0  0  0  0  0
   10.5496  -15.4594   24.5500 C   0  0  2  0  0  0  0  0  0  0  0  0
   10.2919  -15.7172   23.1374 N   0  0  0  0  0  0  0  0  0  0  0  0
   11.7814  -16.1484   24.9128 C   0  0  0  0  0  0  0  0  0  0  0  0
   12.6177  -15.7145   25.9086 O   0  0  0  0  0  0  0  0  0  0  0  0
   10.0115  -16.8084   27.5774 C   0  0  0  0  0  0  0  0  0  0  0  0
   10.2975  -16.6611   28.9381 C   0  0  0  0  0  0  0  0  0  0  0  0
   12.1339  -17.2036   24.2998 O   0  0  0  0  0  0  0  0  0  0  0  0
  2  1  1  0
  2  3  2  0
  4  5  1  0
  4  2  1  0
  5  6  1  6
  7  5  1  0
  8  7  2  0
 10  9  1  0
 11 10  1  0
 11 13  1  0
 11 12  1  1
 13 14  1  6
 14  7  1  0
 15 24  1  0
 15 13  1  0
 16 15  2  0
 17 18  1  0
 18 28  2  0
 19 18  1  0
 19 20  2  0
 20 21  1  0
 21 27  2  0
 21 22  1  0
 23 22  1  1
 23 24  1  0
 23 25  1  0
 25 26  1  0
 28 27  1  0
 29 25  2  0
M  END
$$$$
