NIY.pdb
     RDKit          3D

 29 29  0  0  1  0  0  0  0  0999 V2000
    5.2781  -21.0823   22.5947 N   0  0  0  0  0  0  0  0  0  0  0  0
    5.8407  -19.9388   23.1927 C   0  0  0  0  0  0  0  0  0  0  0  0
    5.3189  -19.4496   24.2161 O   0  0  0  0  0  0  0  0  0  0  0  0
    7.0505  -19.3074   22.6176 C   0  0  0  0  0  0  0  0  0  0  0  0
    6.5556  -18.4484   21.4523 C   0  0  2  0  0  0  0  0  0  0  0  0
    6.0813  -19.2741   20.3708 N   0  0  0  0  0  0  0  0  0  0  0  0
    7.6495  -17.5390   21.0347 C   0  0  0  0  0  0  0  0  0  0  0  0
    8.5403  -17.9511   20.2857 O   0  0  0  0  0  0  0  0  0  0  0  0
    6.2791  -12.7328   19.5048 C   0  0  0  0  0  0  0  0  0  0  0  0
    7.1902  -13.8757   19.7354 C   0  0  0  0  0  0  0  0  0  0  0  0
    7.8760  -13.8745   21.0802 C   0  0  2  0  0  0  0  0  0  0  0  0
    8.8337  -12.7649   21.2609 C   0  0  0  0  0  0  0  0  0  0  0  0
    8.6467  -15.2065   21.1134 C   0  0  2  0  0  0  0  0  0  0  0  0
    7.6407  -16.2166   21.5091 N   0  0  0  0  0  0  0  0  0  0  0  0
    9.6833  -15.2412   22.1678 C   0  0  0  0  0  0  0  0  0  0  0  0
   10.3984  -14.1896   22.3676 O   0  0  0  0  0  0  0  0  0  0  0  0
   10.5444  -14.7910   30.5769 O   0  0  0  0  0  0  0  0  0  0  0  0
   10.2316  -14.9272   29.2293 C   0  0  0  0  0  0  0  0  0  0  0  0
   10.3997  -13.8830   28.3330 C   0  0  0  0  0  0  0  0  0  0  0  0
   10.0948  -14.0071   27.0000 C   0  0  0  0  0  0  0  0  0  0  0  0
    9.6046  -15.1961   26.5103 C   0  0  0  0  0  0  0  0  0  0  0  0
    9.2511  -15.3395   25.0936 C   0  0  0  0  0  0  0  0  0  0  0  0
   10.3297  -16.1205   24.3815 C   0  0  2  0  0  0  0  0  0  0  0  0
    9.9550  -16.3556   22.9913 N   0  0  0  0  0  0  0  0  0  0  0  0
   10.5913  -17.4143   24.9990 C   0  0  0  0  0  0  0  0  0  0  0  0
   11.6821  -17.6594   25.7925 O   0  0  0  0  0  0  0  0  0  0  0  0
    9.4273  -16.2463   27.3727 C   0  0  0  0  0  0  0  0  0  0  0  0
    9.7396  -16.1143   28.7292 C   0  0  0  0  0  0  0  0  0  0  0  0
    9.7962  -18.3879   24.8163 O   0  0  0  0  0  0  0  0  0  0  0  0
  2  1  1  0
  2  3  2  0
  4  5  1  0
  4  2  1  0
  5  6  1  6
  7  5  1  0
  8  7  2  0
 10  9  1  0
 11 10  1  0
 11 13  1  0
 11 12  1  6
 13 14  1  1
 14  7  1  0
 15 24  1  0
 15 13  1  0
 16 15  2  0
 17 18  1  0
 18 28  2  0
 19 18  1  0
 19 20  2  0
 20 21  1  0
 21 27  2  0
 21 22  1  0
 23 22  1  1
 23 24  1  0
 23 25  1  0
 25 26  1  0
 28 27  1  0
 29 25  2  0
M  END
$$$$
