NIY.pdb
     RDKit          3D

 29 29  0  0  1  0  0  0  0  0999 V2000
    7.6385  -18.9743   15.3471 N   0  0  0  0  0  0  0  0  0  0  0  0
    8.8221  -19.5423   15.8549 C   0  0  0  0  0  0  0  0  0  0  0  0
    9.1214  -20.7202   15.5685 O   0  0  0  0  0  0  0  0  0  0  0  0
    9.7199  -18.7535   16.7294 C   0  0  0  0  0  0  0  0  0  0  0  0
    9.1320  -17.3413   16.7611 C   0  0  2  0  0  0  0  0  0  0  0  0
    9.3763  -16.6554   15.5176 N   0  0  0  0  0  0  0  0  0  0  0  0
    9.6938  -16.6192   17.9276 C   0  0  0  0  0  0  0  0  0  0  0  0
   10.9108  -16.6371   18.1348 O   0  0  0  0  0  0  0  0  0  0  0  0
    6.8979  -12.2930   19.5983 C   0  0  0  0  0  0  0  0  0  0  0  0
    8.0409  -13.2217   19.4548 C   0  0  0  0  0  0  0  0  0  0  0  0
    8.0414  -14.3766   20.4269 C   0  0  2  0  0  0  0  0  0  0  0  0
    8.2136  -13.9704   21.8363 C   0  0  0  0  0  0  0  0  0  0  0  0
    9.2522  -15.2275   20.0035 C   0  0  2  0  0  0  0  0  0  0  0  0
    8.8136  -15.9255   18.7750 N   0  0  0  0  0  0  0  0  0  0  0  0
    9.5696  -16.2946   20.9772 C   0  0  0  0  0  0  0  0  0  0  0  0
    8.6703  -17.1759   21.2447 O   0  0  0  0  0  0  0  0  0  0  0  0
   12.8988  -21.9817   26.6669 O   0  0  0  0  0  0  0  0  0  0  0  0
   12.7579  -21.0115   25.6813 C   0  0  0  0  0  0  0  0  0  0  0  0
   12.0594  -21.2591   24.5097 C   0  0  0  0  0  0  0  0  0  0  0  0
   11.9134  -20.3078   23.5304 C   0  0  0  0  0  0  0  0  0  0  0  0
   12.4684  -19.0589   23.6909 C   0  0  0  0  0  0  0  0  0  0  0  0
   12.3428  -18.0379   22.6448 C   0  0  0  0  0  0  0  0  0  0  0  0
   10.9413  -17.4756   22.6551 C   0  0  2  0  0  0  0  0  0  0  0  0
   10.8049  -16.4290   21.6479 N   0  0  0  0  0  0  0  0  0  0  0  0
   10.5705  -16.9065   23.9444 C   0  0  0  0  0  0  0  0  0  0  0  0
   10.9500  -15.6522   24.3472 O   0  0  0  0  0  0  0  0  0  0  0  0
   13.1653  -18.7849   24.8387 C   0  0  0  0  0  0  0  0  0  0  0  0
   13.3106  -19.7573   25.8328 C   0  0  0  0  0  0  0  0  0  0  0  0
    9.8645  -17.5728   24.7636 O   0  0  0  0  0  0  0  0  0  0  0  0
  2  1  1  0
  2  3  2  0
  4  5  1  0
  4  2  1  0
  5  6  1  6
  7  5  1  0
  8  7  2  0
 10  9  1  0
 11 10  1  0
 11 13  1  0
 11 12  1  1
 13 14  1  6
 14  7  1  0
 15 24  1  0
 15 13  1  0
 16 15  2  0
 17 18  1  0
 18 28  2  0
 19 18  1  0
 19 20  2  0
 20 21  1  0
 21 27  2  0
 21 22  1  0
 23 22  1  1
 23 24  1  0
 23 25  1  0
 25 26  1  0
 28 27  1  0
 29 25  2  0
M  END
$$$$
