ITS.pdb
     RDKit          3D

 22 21  0  0  1  0  0  0  0  0999 V2000
   26.4210  -19.5285   -7.9050 C   0  0  0  0  0  0  0  0  0  0  0  0
   26.2025  -20.8602   -8.6457 C   0  0  0  0  0  0  0  0  0  0  0  0
   25.7353  -20.4915  -10.0186 C   0  0  2  0  0  0  0  0  0  0  0  0
   24.5235  -19.5809   -9.9621 C   0  0  0  0  0  0  0  0  0  0  0  0
   25.5571  -21.6226  -10.9753 C   0  0  2  0  0  0  0  0  0  0  0  0
   26.8862  -22.2948  -11.0072 N   0  0  0  0  0  0  0  0  0  0  0  0
   25.2003  -21.2273  -12.3574 C   0  0  0  0  0  0  0  0  0  0  0  0
   26.0905  -20.8078  -13.1785 O   0  0  0  0  0  0  0  0  0  0  0  0
   23.7552  -23.3608  -14.9144 C   0  0  0  0  0  0  0  0  0  0  0  0
   22.8547  -22.1614  -14.8367 C   0  0  1  0  0  0  0  0  0  0  0  0
   21.8027  -22.4353  -13.9937 O   0  0  0  0  0  0  0  0  0  0  0  0
   23.6084  -20.9334  -14.2784 C   0  0  2  0  0  0  0  0  0  0  0  0
   23.8878  -21.2717  -12.9043 N   0  0  0  0  0  0  0  0  0  0  0  0
   22.7961  -19.7477  -14.4982 C   0  0  0  0  0  0  0  0  0  0  0  0
   22.0150  -19.4304  -13.5343 O   0  0  0  0  0  0  0  0  0  0  0  0
   21.2840  -15.8538  -17.0810 O   0  0  0  0  0  0  0  0  0  0  0  0
   22.1077  -16.9543  -16.9788 C   0  0  0  0  0  0  0  0  0  0  0  0
   21.8999  -17.7536  -15.7366 C   0  0  2  0  0  0  0  0  0  0  0  0
   22.7634  -18.9134  -15.6290 N   0  0  0  0  0  0  0  0  0  0  0  0
   20.4831  -18.2673  -15.7644 C   0  0  0  0  0  0  0  0  0  0  0  0
   20.1554  -19.2939  -16.3943 O   0  0  0  0  0  0  0  0  0  0  0  0
   19.4723  -17.5999  -15.0742 O   0  0  0  0  0  0  0  0  0  0  0  0
  2  1  1  0
  3  5  1  0
  3  2  1  0
  3  4  1  1
  5  7  1  0
  5  6  1  6
  7  8  2  0
 10  9  1  1
 10 12  1  0
 11 10  1  0
 12 13  1  1
 13  7  1  0
 14 12  1  0
 14 15  2  0
 16 17  1  0
 18 17  1  6
 18 19  1  0
 18 20  1  0
 19 14  1  0
 20 21  2  0
 20 22  1  0
M  END
$$$$
