ITS.pdb
     RDKit          3D

 22 21  0  0  1  0  0  0  0  0999 V2000
   18.0336  -15.4736  -17.4837 C   0  0  0  0  0  0  0  0  0  0  0  0
   17.5630  -14.2145  -16.7335 C   0  0  0  0  0  0  0  0  0  0  0  0
   18.7538  -13.3108  -16.6663 C   0  0  2  0  0  0  0  0  0  0  0  0
   19.9575  -14.0279  -16.0852 C   0  0  0  0  0  0  0  0  0  0  0  0
   18.5273  -11.9746  -16.0420 C   0  0  2  0  0  0  0  0  0  0  0  0
   17.4448  -11.3608  -16.8609 N   0  0  0  0  0  0  0  0  0  0  0  0
   19.6971  -11.0663  -16.0579 C   0  0  0  0  0  0  0  0  0  0  0  0
   20.7543  -11.3339  -15.3846 O   0  0  0  0  0  0  0  0  0  0  0  0
   21.7983   -9.8308  -18.8802 C   0  0  0  0  0  0  0  0  0  0  0  0
   21.2610   -8.6245  -18.1649 C   0  0  1  0  0  0  0  0  0  0  0  0
   20.1163   -8.1937  -18.7946 O   0  0  0  0  0  0  0  0  0  0  0  0
   20.9042   -8.9585  -16.6989 C   0  0  2  0  0  0  0  0  0  0  0  0
   19.7751   -9.8512  -16.7935 N   0  0  0  0  0  0  0  0  0  0  0  0
   20.6846   -7.7154  -15.9773 C   0  0  0  0  0  0  0  0  0  0  0  0
   19.4652   -7.4597  -15.6818 O   0  0  0  0  0  0  0  0  0  0  0  0
   20.5697   -4.7287  -12.6804 O   0  0  0  0  0  0  0  0  0  0  0  0
   20.7487   -5.8555  -13.4539 C   0  0  0  0  0  0  0  0  0  0  0  0
   21.3024   -5.5775  -14.8109 C   0  0  2  0  0  0  0  0  0  0  0  0
   21.6386   -6.7681  -15.5670 N   0  0  0  0  0  0  0  0  0  0  0  0
   22.5830   -4.8047  -14.6241 C   0  0  0  0  0  0  0  0  0  0  0  0
   23.6975   -5.2692  -14.9408 O   0  0  0  0  0  0  0  0  0  0  0  0
   22.5647   -3.5209  -14.0810 O   0  0  0  0  0  0  0  0  0  0  0  0
  2  1  1  0
  3  5  1  0
  3  2  1  0
  3  4  1  1
  5  7  1  0
  5  6  1  6
  7  8  2  0
 10  9  1  6
 10 12  1  0
 11 10  1  0
 12 13  1  6
 13  7  1  0
 14 12  1  0
 14 15  2  0
 16 17  1  0
 18 17  1  1
 18 19  1  0
 18 20  1  0
 19 14  1  0
 20 21  2  0
 20 22  1  0
M  END
$$$$
