ITS.pdb
     RDKit          3D

 22 21  0  0  1  0  0  0  0  0999 V2000
   11.5707  -12.4103  -10.3302 C   0  0  0  0  0  0  0  0  0  0  0  0
   12.6815  -12.1902  -11.3730 C   0  0  0  0  0  0  0  0  0  0  0  0
   13.6072  -11.1776  -10.7755 C   0  0  2  0  0  0  0  0  0  0  0  0
   12.8456   -9.9707  -10.2615 C   0  0  0  0  0  0  0  0  0  0  0  0
   14.7872  -10.7985  -11.6063 C   0  0  2  0  0  0  0  0  0  0  0  0
   15.5487  -12.0683  -11.7709 N   0  0  0  0  0  0  0  0  0  0  0  0
   15.6862   -9.7901  -10.9992 C   0  0  0  0  0  0  0  0  0  0  0  0
   16.8390  -10.1167  -10.5445 O   0  0  0  0  0  0  0  0  0  0  0  0
   17.9558   -8.7077  -11.8882 C   0  0  0  0  0  0  0  0  0  0  0  0
   17.3811   -7.3563  -11.5734 C   0  0  1  0  0  0  0  0  0  0  0  0
   16.7309   -6.8680  -12.6830 O   0  0  0  0  0  0  0  0  0  0  0  0
   16.3587   -7.4405  -10.4178 C   0  0  2  0  0  0  0  0  0  0  0  0
   15.3846   -8.4065  -10.8634 N   0  0  0  0  0  0  0  0  0  0  0  0
   15.8599   -6.1038  -10.1378 C   0  0  0  0  0  0  0  0  0  0  0  0
   14.9997   -5.6524  -10.9721 O   0  0  0  0  0  0  0  0  0  0  0  0
   14.6682   -4.6155   -6.6918 O   0  0  0  0  0  0  0  0  0  0  0  0
   15.3619   -3.6525   -7.3927 C   0  0  0  0  0  0  0  0  0  0  0  0
   15.5579   -3.9763   -8.8356 C   0  0  2  0  0  0  0  0  0  0  0  0
   16.2024   -5.2533   -9.0722 N   0  0  0  0  0  0  0  0  0  0  0  0
   16.4623   -2.9187   -9.4148 C   0  0  0  0  0  0  0  0  0  0  0  0
   17.5797   -3.1871   -9.9025 O   0  0  0  0  0  0  0  0  0  0  0  0
   16.0735   -1.5800   -9.4252 O   0  0  0  0  0  0  0  0  0  0  0  0
  2  1  1  0
  3  5  1  0
  3  2  1  0
  3  4  1  6
  5  7  1  0
  5  6  1  1
  7  8  2  0
 10  9  1  6
 10 12  1  0
 11 10  1  0
 12 13  1  6
 13  7  1  0
 14 12  1  0
 14 15  2  0
 16 17  1  0
 18 17  1  1
 18 19  1  0
 18 20  1  0
 19 14  1  0
 20 21  2  0
 20 22  1  0
M  END
$$$$
