ITS.pdb
     RDKit          3D

 22 21  0  0  1  0  0  0  0  0999 V2000
   23.6967  -15.3982  -19.0187 C   0  0  0  0  0  0  0  0  0  0  0  0
   24.5068  -14.7514  -17.8806 C   0  0  0  0  0  0  0  0  0  0  0  0
   24.4249  -13.2749  -18.1096 C   0  0  2  0  0  0  0  0  0  0  0  0
   25.5978  -12.7795  -18.9339 C   0  0  0  0  0  0  0  0  0  0  0  0
   24.1817  -12.4371  -16.8990 C   0  0  2  0  0  0  0  0  0  0  0  0
   23.0061  -13.0708  -16.2389 N   0  0  0  0  0  0  0  0  0  0  0  0
   23.8559  -11.0181  -17.1711 C   0  0  0  0  0  0  0  0  0  0  0  0
   24.7571  -10.1924  -17.5568 O   0  0  0  0  0  0  0  0  0  0  0  0
   21.5412   -9.5155  -19.6557 C   0  0  0  0  0  0  0  0  0  0  0  0
   21.1161   -9.0472  -18.2935 C   0  0  1  0  0  0  0  0  0  0  0  0
   20.1544   -9.8974  -17.7990 O   0  0  0  0  0  0  0  0  0  0  0  0
   22.3063   -9.0456  -17.3080 C   0  0  2  0  0  0  0  0  0  0  0  0
   22.5621  -10.4404  -17.0440 N   0  0  0  0  0  0  0  0  0  0  0  0
   21.9594   -8.2250  -16.1588 C   0  0  0  0  0  0  0  0  0  0  0  0
   21.4157   -8.8494  -15.1819 O   0  0  0  0  0  0  0  0  0  0  0  0
   22.5496   -4.7756  -12.9524 O   0  0  0  0  0  0  0  0  0  0  0  0
   22.9092   -5.4541  -14.0971 C   0  0  0  0  0  0  0  0  0  0  0  0
   21.7707   -6.1309  -14.7834 C   0  0  2  0  0  0  0  0  0  0  0  0
   22.1466   -6.8422  -15.9896 N   0  0  0  0  0  0  0  0  0  0  0  0
   20.7941   -5.0596  -15.1966 C   0  0  0  0  0  0  0  0  0  0  0  0
   20.1552   -4.3800  -14.3670 O   0  0  0  0  0  0  0  0  0  0  0  0
   20.5677   -4.7871  -16.5449 O   0  0  0  0  0  0  0  0  0  0  0  0
  2  1  1  0
  3  5  1  0
  3  2  1  0
  3  4  1  1
  5  7  1  0
  5  6  1  6
  7  8  2  0
 10  9  1  6
 10 12  1  0
 11 10  1  0
 12 13  1  1
 13  7  1  0
 14 12  1  0
 14 15  2  0
 16 17  1  0
 18 17  1  6
 18 19  1  0
 18 20  1  0
 19 14  1  0
 20 21  2  0
 20 22  1  0
M  END
$$$$
