ITS.pdb
     RDKit          3D

 22 21  0  0  1  0  0  0  0  0999 V2000
   16.2265  -11.1701  -19.9843 C   0  0  0  0  0  0  0  0  0  0  0  0
   17.6608  -11.1021  -19.4293 C   0  0  0  0  0  0  0  0  0  0  0  0
   17.6258  -10.0854  -18.3319 C   0  0  2  0  0  0  0  0  0  0  0  0
   16.9813   -8.7938  -18.7980 C   0  0  0  0  0  0  0  0  0  0  0  0
   18.9118   -9.8556  -17.6110 C   0  0  2  0  0  0  0  0  0  0  0  0
   19.2634  -11.1880  -17.0450 N   0  0  0  0  0  0  0  0  0  0  0  0
   18.8442   -8.8791  -16.4995 C   0  0  0  0  0  0  0  0  0  0  0  0
   18.1003   -9.0878  -15.4769 O   0  0  0  0  0  0  0  0  0  0  0  0
   21.3942   -7.9066  -14.2370 C   0  0  0  0  0  0  0  0  0  0  0  0
   20.9006   -6.6035  -14.7972 C   0  0  1  0  0  0  0  0  0  0  0  0
   21.7116   -6.2195  -15.8399 O   0  0  0  0  0  0  0  0  0  0  0  0
   19.4589   -6.7388  -15.3366 C   0  0  2  0  0  0  0  0  0  0  0  0
   19.5693   -7.6564  -16.4441 N   0  0  0  0  0  0  0  0  0  0  0  0
   18.9503   -5.4124  -15.6465 C   0  0  0  0  0  0  0  0  0  0  0  0
   19.1981   -4.9917  -16.8302 O   0  0  0  0  0  0  0  0  0  0  0  0
   15.9362   -1.6498  -15.0352 O   0  0  0  0  0  0  0  0  0  0  0  0
   16.4221   -2.8696  -14.6156 C   0  0  0  0  0  0  0  0  0  0  0  0
   17.7103   -3.2620  -15.2573 C   0  0  2  0  0  0  0  0  0  0  0  0
   18.2253   -4.5426  -14.8134 N   0  0  0  0  0  0  0  0  0  0  0  0
   18.7361   -2.2251  -14.8770 C   0  0  0  0  0  0  0  0  0  0  0  0
   19.7407   -2.4983  -14.1882 O   0  0  0  0  0  0  0  0  0  0  0  0
   18.5941   -0.9012  -15.2899 O   0  0  0  0  0  0  0  0  0  0  0  0
  2  1  1  0
  3  5  1  0
  3  2  1  0
  3  4  1  6
  5  7  1  0
  5  6  1  1
  7  8  2  0
 10  9  1  6
 10 12  1  0
 11 10  1  0
 12 13  1  6
 13  7  1  0
 14 12  1  0
 14 15  2  0
 16 17  1  0
 18 17  1  1
 18 19  1  0
 18 20  1  0
 19 14  1  0
 20 21  2  0
 20 22  1  0
M  END
$$$$
