YPQ.pdb
     RDKit          3D

 29 30  0  0  1  0  0  0  0  0999 V2000
   30.7314  -16.6015  -18.2808 O   0  0  0  0  0  0  0  0  0  0  0  0
   29.7232  -17.2207  -17.5364 C   0  0  0  0  0  0  0  0  0  0  0  0
   29.9875  -17.7129  -16.2724 C   0  0  0  0  0  0  0  0  0  0  0  0
   29.0164  -18.3266  -15.5171 C   0  0  0  0  0  0  0  0  0  0  0  0
   27.7320  -18.4755  -15.9957 C   0  0  0  0  0  0  0  0  0  0  0  0
   26.6791  -19.1419  -15.1706 C   0  0  0  0  0  0  0  0  0  0  0  0
   27.0475  -20.5815  -14.8853 C   0  0  2  0  0  0  0  0  0  0  0  0
   27.3969  -21.3064  -16.0666 N   0  0  0  0  0  0  0  0  0  0  0  0
   26.0102  -21.2473  -14.0579 C   0  0  0  0  0  0  0  0  0  0  0  0
   25.2220  -22.0893  -14.6117 O   0  0  0  0  0  0  0  0  0  0  0  0
   27.4583  -17.9879  -17.2553 C   0  0  0  0  0  0  0  0  0  0  0  0
   28.4437  -17.3765  -17.9966 C   0  0  0  0  0  0  0  0  0  0  0  0
   25.8210  -21.0167  -12.6675 N   0  0  0  0  0  0  0  0  0  0  0  0
   26.7165  -20.2608  -11.8061 C   0  0  0  0  0  0  0  0  0  0  0  0
   25.9253  -20.1115  -10.5382 C   0  0  0  0  0  0  0  0  0  0  0  0
   25.1447  -21.3867  -10.4607 C   0  0  0  0  0  0  0  0  0  0  0  0
   24.6858  -21.5163  -11.9194 C   0  0  1  0  0  0  0  0  0  0  0  0
   23.5043  -20.6137  -12.0642 C   0  0  0  0  0  0  0  0  0  0  0  0
   23.6151  -19.3754  -12.2680 O   0  0  0  0  0  0  0  0  0  0  0  0
   22.6503  -21.4272  -16.1358 N   0  0  0  0  0  0  0  0  0  0  0  0
   22.1426  -20.1099  -16.0585 C   0  0  0  0  0  0  0  0  0  0  0  0
   22.4777  -19.2864  -16.9673 O   0  0  0  0  0  0  0  0  0  0  0  0
   21.2372  -19.6943  -14.9411 C   0  0  0  0  0  0  0  0  0  0  0  0
   21.0431  -20.8724  -14.0488 C   0  0  0  0  0  0  0  0  0  0  0  0
   21.0347  -20.4973  -12.5771 C   0  0  2  0  0  0  0  0  0  0  0  0
   22.1960  -21.1618  -11.9703 N   0  0  0  0  0  0  0  0  0  0  0  0
   19.7694  -21.0239  -12.0168 C   0  0  0  0  0  0  0  0  0  0  0  0
   19.7216  -22.2390  -11.7215 O   0  0  0  0  0  0  0  0  0  0  0  0
   18.6866  -20.2235  -11.8241 O   0  0  0  0  0  0  0  0  0  0  0  0
  2  1  1  0
  3  2  2  0
  4  3  1  0
  5 11  1  0
  5  4  2  0
  6  5  1  0
  7  6  1  0
  7  8  1  6
  9  7  1  0
 10  9  2  0
 11 12  2  0
 12  2  1  0
 13  9  1  0
 13 17  1  0
 14 15  1  0
 14 13  1  0
 15 16  1  0
 16 17  1  0
 18 26  1  0
 17 18  1  1
 19 18  2  0
 20 21  1  0
 21 22  2  0
 23 24  1  0
 23 21  1  0
 25 24  1  6
 25 27  1  0
 25 26  1  0
 27 29  1  0
 28 27  2  0
M  END
$$$$
