YPQ.pdb
     RDKit          3D

 29 30  0  0  1  0  0  0  0  0999 V2000
   17.9100  -23.8317   -8.5485 O   0  0  0  0  0  0  0  0  0  0  0  0
   18.9414  -23.3044   -9.3308 C   0  0  0  0  0  0  0  0  0  0  0  0
   18.8008  -23.2067  -10.7022 C   0  0  0  0  0  0  0  0  0  0  0  0
   19.7978  -22.6927  -11.4971 C   0  0  0  0  0  0  0  0  0  0  0  0
   20.9850  -22.2517  -10.9522 C   0  0  0  0  0  0  0  0  0  0  0  0
   22.0654  -21.6922  -11.8200 C   0  0  0  0  0  0  0  0  0  0  0  0
   22.4075  -20.2762  -11.4110 C   0  0  2  0  0  0  0  0  0  0  0  0
   21.2681  -19.4133  -11.4032 N   0  0  0  0  0  0  0  0  0  0  0  0
   23.5516  -19.7515  -12.1982 C   0  0  0  0  0  0  0  0  0  0  0  0
   23.3764  -18.7194  -12.9338 O   0  0  0  0  0  0  0  0  0  0  0  0
   21.1350  -22.3448   -9.5854 C   0  0  0  0  0  0  0  0  0  0  0  0
   20.1257  -22.8624   -8.8059 C   0  0  0  0  0  0  0  0  0  0  0  0
   24.8553  -20.3196  -12.1977 N   0  0  0  0  0  0  0  0  0  0  0  0
   25.2519  -21.5258  -11.4886 C   0  0  0  0  0  0  0  0  0  0  0  0
   26.6233  -21.8066  -12.0330 C   0  0  0  0  0  0  0  0  0  0  0  0
   27.1883  -20.4421  -12.2787 C   0  0  0  0  0  0  0  0  0  0  0  0
   25.9758  -19.7550  -12.9213 C   0  0  1  0  0  0  0  0  0  0  0  0
   25.9660  -20.1843  -14.3522 C   0  0  0  0  0  0  0  0  0  0  0  0
   25.5330  -21.3081  -14.7222 O   0  0  0  0  0  0  0  0  0  0  0  0
   24.0215  -19.6701  -20.3518 N   0  0  0  0  0  0  0  0  0  0  0  0
   24.3657  -18.9806  -19.1663 C   0  0  0  0  0  0  0  0  0  0  0  0
   23.4558  -18.7944  -18.2983 O   0  0  0  0  0  0  0  0  0  0  0  0
   25.7591  -18.4836  -18.9375 C   0  0  0  0  0  0  0  0  0  0  0  0
   25.9483  -18.3156  -17.4686 C   0  0  0  0  0  0  0  0  0  0  0  0
   26.3551  -19.6062  -16.7790 C   0  0  2  0  0  0  0  0  0  0  0  0
   26.4627  -19.2982  -15.3466 N   0  0  0  0  0  0  0  0  0  0  0  0
   27.6715  -19.9855  -17.3405 C   0  0  0  0  0  0  0  0  0  0  0  0
   28.6954  -19.6766  -16.6906 O   0  0  0  0  0  0  0  0  0  0  0  0
   27.7787  -20.6483  -18.5235 O   0  0  0  0  0  0  0  0  0  0  0  0
  2  1  1  0
  3  2  2  0
  4  3  1  0
  5 11  1  0
  5  4  2  0
  6  5  1  0
  7  6  1  0
  7  8  1  6
  9  7  1  0
 10  9  2  0
 11 12  2  0
 12  2  1  0
 13  9  1  0
 13 17  1  0
 14 15  1  0
 14 13  1  0
 15 16  1  0
 16 17  1  0
 18 26  1  0
 17 18  1  6
 19 18  2  0
 20 21  1  0
 21 22  2  0
 23 24  1  0
 23 21  1  0
 25 24  1  6
 25 27  1  0
 25 26  1  0
 27 29  1  0
 28 27  2  0
M  END
$$$$
