YPQ.pdb
     RDKit          3D

 29 30  0  0  1  0  0  0  0  0999 V2000
   30.5134  -15.9340  -18.7501 O   0  0  0  0  0  0  0  0  0  0  0  0
   29.5704  -16.6224  -17.9815 C   0  0  0  0  0  0  0  0  0  0  0  0
   28.2271  -16.5611  -18.3005 C   0  0  0  0  0  0  0  0  0  0  0  0
   27.2770  -17.2273  -17.5631 C   0  0  0  0  0  0  0  0  0  0  0  0
   27.6310  -17.9879  -16.4690 C   0  0  0  0  0  0  0  0  0  0  0  0
   26.5950  -18.7117  -15.6713 C   0  0  0  0  0  0  0  0  0  0  0  0
   26.8325  -20.2056  -15.7069 C   0  0  2  0  0  0  0  0  0  0  0  0
   26.9324  -20.7171  -17.0378 N   0  0  0  0  0  0  0  0  0  0  0  0
   25.8487  -20.9259  -14.8600 C   0  0  0  0  0  0  0  0  0  0  0  0
   24.8373  -21.4771  -15.4171 O   0  0  0  0  0  0  0  0  0  0  0  0
   28.9683  -18.0555  -16.1426 C   0  0  0  0  0  0  0  0  0  0  0  0
   29.9049  -17.3815  -16.8928 C   0  0  0  0  0  0  0  0  0  0  0  0
   25.9458  -21.0536  -13.4470 N   0  0  0  0  0  0  0  0  0  0  0  0
   27.0444  -20.5672  -12.6275 C   0  0  0  0  0  0  0  0  0  0  0  0
   26.5227  -20.7260  -11.2280 C   0  0  0  0  0  0  0  0  0  0  0  0
   25.6749  -21.9574  -11.3083 C   0  0  0  0  0  0  0  0  0  0  0  0
   24.9384  -21.6974  -12.6293 C   0  0  1  0  0  0  0  0  0  0  0  0
   23.8243  -20.7566  -12.3048 C   0  0  0  0  0  0  0  0  0  0  0  0
   24.0228  -19.5678  -11.9381 O   0  0  0  0  0  0  0  0  0  0  0  0
   20.7900  -18.0573  -15.8040 N   0  0  0  0  0  0  0  0  0  0  0  0
   20.8639  -19.4610  -15.9561 C   0  0  0  0  0  0  0  0  0  0  0  0
   20.7458  -19.9418  -17.1270 O   0  0  0  0  0  0  0  0  0  0  0  0
   21.0749  -20.3568  -14.7754 C   0  0  0  0  0  0  0  0  0  0  0  0
   21.2884  -19.4931  -13.5796 C   0  0  0  0  0  0  0  0  0  0  0  0
   21.3435  -20.2869  -12.2860 C   0  0  2  0  0  0  0  0  0  0  0  0
   22.4806  -21.2087  -12.4100 N   0  0  0  0  0  0  0  0  0  0  0  0
   20.0659  -21.0297  -12.1943 C   0  0  0  0  0  0  0  0  0  0  0  0
   20.0791  -22.2514  -12.4647 O   0  0  0  0  0  0  0  0  0  0  0  0
   18.9082  -20.4160  -11.8292 O   0  0  0  0  0  0  0  0  0  0  0  0
  2  1  1  0
  3  2  2  0
  4  3  1  0
  5 11  1  0
  5  4  2  0
  6  5  1  0
  7  6  1  0
  7  8  1  6
  9  7  1  0
 10  9  2  0
 11 12  2  0
 12  2  1  0
 13  9  1  0
 13 17  1  0
 14 15  1  0
 14 13  1  0
 15 16  1  0
 16 17  1  0
 18 26  1  0
 17 18  1  1
 19 18  2  0
 20 21  1  0
 21 22  2  0
 23 24  1  0
 23 21  1  0
 25 24  1  6
 25 27  1  0
 25 26  1  0
 27 29  1  0
 28 27  2  0
M  END
$$$$
