YPQ.pdb
     RDKit          3D

 29 30  0  0  1  0  0  0  0  0999 V2000
   27.3501  -13.7334  -21.1017 O   0  0  0  0  0  0  0  0  0  0  0  0
   26.9842  -14.6273  -20.0912 C   0  0  0  0  0  0  0  0  0  0  0  0
   27.9006  -15.0127  -19.1313 C   0  0  0  0  0  0  0  0  0  0  0  0
   27.5697  -15.8901  -18.1258 C   0  0  0  0  0  0  0  0  0  0  0  0
   26.3012  -16.4227  -18.0362 C   0  0  0  0  0  0  0  0  0  0  0  0
   25.9455  -17.3749  -16.9406 C   0  0  0  0  0  0  0  0  0  0  0  0
   26.4658  -18.7634  -17.2419 C   0  0  2  0  0  0  0  0  0  0  0  0
   25.9507  -19.2924  -18.4658 N   0  0  0  0  0  0  0  0  0  0  0  0
   26.2903  -19.6670  -16.0772 C   0  0  0  0  0  0  0  0  0  0  0  0
   25.2164  -20.3560  -15.9835 O   0  0  0  0  0  0  0  0  0  0  0  0
   25.3799  -16.0445  -18.9889 C   0  0  0  0  0  0  0  0  0  0  0  0
   25.7298  -15.1650  -19.9880 C   0  0  0  0  0  0  0  0  0  0  0  0
   27.2444  -19.8295  -15.0352 N   0  0  0  0  0  0  0  0  0  0  0  0
   28.5268  -19.1490  -14.9491 C   0  0  0  0  0  0  0  0  0  0  0  0
   28.9948  -19.4770  -13.5601 C   0  0  0  0  0  0  0  0  0  0  0  0
   28.4686  -20.8599  -13.3311 C   0  0  0  0  0  0  0  0  0  0  0  0
   27.0522  -20.7124  -13.9032 C   0  0  1  0  0  0  0  0  0  0  0  0
   26.2405  -20.0533  -12.8362 C   0  0  0  0  0  0  0  0  0  0  0  0
   26.2696  -18.8110  -12.6290 O   0  0  0  0  0  0  0  0  0  0  0  0
   20.6258  -21.5681  -12.2844 N   0  0  0  0  0  0  0  0  0  0  0  0
   20.6701  -20.7034  -11.1666 C   0  0  0  0  0  0  0  0  0  0  0  0
   19.5694  -20.3743  -10.6223 O   0  0  0  0  0  0  0  0  0  0  0  0
   21.9727  -20.1892  -10.6377 C   0  0  0  0  0  0  0  0  0  0  0  0
   23.0588  -20.7070  -11.5174 C   0  0  0  0  0  0  0  0  0  0  0  0
   24.4378  -20.2460  -11.0788 C   0  0  2  0  0  0  0  0  0  0  0  0
   25.3968  -20.8491  -12.0141 N   0  0  0  0  0  0  0  0  0  0  0  0
   24.6372  -20.7647   -9.7064 C   0  0  0  0  0  0  0  0  0  0  0  0
   25.0475  -21.9401   -9.5795 O   0  0  0  0  0  0  0  0  0  0  0  0
   24.3863  -19.9990   -8.6105 O   0  0  0  0  0  0  0  0  0  0  0  0
  2  1  1  0
  3  2  2  0
  4  3  1  0
  5 11  1  0
  5  4  2  0
  6  5  1  0
  7  6  1  0
  7  8  1  6
  9  7  1  0
 10  9  2  0
 11 12  2  0
 12  2  1  0
 13  9  1  0
 13 17  1  0
 14 15  1  0
 14 13  1  0
 15 16  1  0
 16 17  1  0
 18 26  1  0
 17 18  1  1
 19 18  2  0
 20 21  1  0
 21 22  2  0
 23 24  1  0
 23 21  1  0
 25 24  1  6
 25 27  1  0
 25 26  1  0
 27 29  1  0
 28 27  2  0
M  END
$$$$
