YPQ.pdb
     RDKit          3D

 29 30  0  0  1  0  0  0  0  0999 V2000
   27.3890  -23.1585  -24.1992 O   0  0  0  0  0  0  0  0  0  0  0  0
   27.2261  -23.0258  -22.8172 C   0  0  0  0  0  0  0  0  0  0  0  0
   26.7944  -24.0960  -22.0568 C   0  0  0  0  0  0  0  0  0  0  0  0
   26.6250  -23.9955  -20.6961 C   0  0  0  0  0  0  0  0  0  0  0  0
   26.8814  -22.8140  -20.0334 C   0  0  0  0  0  0  0  0  0  0  0  0
   26.6973  -22.7096  -18.5540 C   0  0  0  0  0  0  0  0  0  0  0  0
   28.0335  -22.6744  -17.8448 C   0  0  2  0  0  0  0  0  0  0  0  0
   28.6838  -23.9471  -17.8291 N   0  0  0  0  0  0  0  0  0  0  0  0
   27.9140  -22.0455  -16.5054 C   0  0  0  0  0  0  0  0  0  0  0  0
   27.9115  -22.7935  -15.4674 O   0  0  0  0  0  0  0  0  0  0  0  0
   27.3125  -21.7407  -20.7829 C   0  0  0  0  0  0  0  0  0  0  0  0
   27.4761  -21.8606  -22.1441 C   0  0  0  0  0  0  0  0  0  0  0  0
   27.7997  -20.6457  -16.2821 N   0  0  0  0  0  0  0  0  0  0  0  0
   27.7566  -19.6249  -17.3172 C   0  0  0  0  0  0  0  0  0  0  0  0
   27.3734  -18.3861  -16.5592 C   0  0  0  0  0  0  0  0  0  0  0  0
   28.0331  -18.5722  -15.2282 C   0  0  0  0  0  0  0  0  0  0  0  0
   27.7084  -20.0490  -14.9654 C   0  0  1  0  0  0  0  0  0  0  0  0
   26.3050  -20.0805  -14.4545 C   0  0  0  0  0  0  0  0  0  0  0  0
   25.3033  -20.1009  -15.2183 O   0  0  0  0  0  0  0  0  0  0  0  0
   24.7678  -21.7135   -9.1314 N   0  0  0  0  0  0  0  0  0  0  0  0
   23.5335  -21.0793   -9.4024 C   0  0  0  0  0  0  0  0  0  0  0  0
   22.5028  -21.4885   -8.7807 O   0  0  0  0  0  0  0  0  0  0  0  0
   23.4401  -19.9594  -10.3914 C   0  0  0  0  0  0  0  0  0  0  0  0
   24.7636  -19.8341  -11.0654 C   0  0  0  0  0  0  0  0  0  0  0  0
   24.7505  -20.3709  -12.4860 C   0  0  2  0  0  0  0  0  0  0  0  0
   26.0767  -20.0881  -13.0514 N   0  0  0  0  0  0  0  0  0  0  0  0
   23.6958  -19.6234  -13.2077 C   0  0  0  0  0  0  0  0  0  0  0  0
   23.9644  -18.4663  -13.6017 O   0  0  0  0  0  0  0  0  0  0  0  0
   22.4701  -20.1650  -13.4417 O   0  0  0  0  0  0  0  0  0  0  0  0
  2  1  1  0
  3  2  2  0
  4  3  1  0
  5 11  1  0
  5  4  2  0
  6  5  1  0
  7  6  1  0
  7  8  1  1
  9  7  1  0
 10  9  2  0
 11 12  2  0
 12  2  1  0
 13  9  1  0
 13 17  1  0
 14 15  1  0
 14 13  1  0
 15 16  1  0
 16 17  1  0
 18 26  1  0
 17 18  1  6
 19 18  2  0
 20 21  1  0
 21 22  2  0
 23 24  1  0
 23 21  1  0
 25 24  1  1
 25 27  1  0
 25 26  1  0
 27 29  1  0
 28 27  2  0
M  END
$$$$
