YPQ.pdb
     RDKit          3D

 29 30  0  0  1  0  0  0  0  0999 V2000
   29.2761  -19.9469   -3.8943 O   0  0  0  0  0  0  0  0  0  0  0  0
   28.5563  -20.1962   -5.0664 C   0  0  0  0  0  0  0  0  0  0  0  0
   27.2277  -20.5717   -5.0061 C   0  0  0  0  0  0  0  0  0  0  0  0
   26.4945  -20.8234   -6.1416 C   0  0  0  0  0  0  0  0  0  0  0  0
   27.0613  -20.7099   -7.3933 C   0  0  0  0  0  0  0  0  0  0  0  0
   26.2602  -20.9831   -8.6250 C   0  0  0  0  0  0  0  0  0  0  0  0
   26.0430  -19.7143   -9.4202 C   0  0  2  0  0  0  0  0  0  0  0  0
   25.4733  -18.6628   -8.6373 N   0  0  0  0  0  0  0  0  0  0  0  0
   25.3078  -19.9895  -10.6802 C   0  0  0  0  0  0  0  0  0  0  0  0
   24.0686  -19.6800  -10.7550 O   0  0  0  0  0  0  0  0  0  0  0  0
   28.3859  -20.3360   -7.4641 C   0  0  0  0  0  0  0  0  0  0  0  0
   29.1037  -20.0882   -6.3162 C   0  0  0  0  0  0  0  0  0  0  0  0
   25.8869  -20.5833  -11.8354 N   0  0  0  0  0  0  0  0  0  0  0  0
   27.1759  -21.2550  -11.8849 C   0  0  0  0  0  0  0  0  0  0  0  0
   27.1709  -21.9039  -13.2395 C   0  0  0  0  0  0  0  0  0  0  0  0
   26.4036  -20.9376  -14.0874 C   0  0  0  0  0  0  0  0  0  0  0  0
   25.2495  -20.5944  -13.1359 C   0  0  1  0  0  0  0  0  0  0  0  0
   24.2713  -21.7179  -13.2482 C   0  0  0  0  0  0  0  0  0  0  0  0
   24.3885  -22.7895  -12.5962 O   0  0  0  0  0  0  0  0  0  0  0  0
   21.3459  -21.5155   -9.8456 N   0  0  0  0  0  0  0  0  0  0  0  0
   20.1366  -21.7742  -10.5310 C   0  0  0  0  0  0  0  0  0  0  0  0
   19.1183  -22.1002   -9.8431 O   0  0  0  0  0  0  0  0  0  0  0  0
   20.0547  -21.6683  -12.0220 C   0  0  0  0  0  0  0  0  0  0  0  0
   21.4013  -21.2758  -12.5262 C   0  0  0  0  0  0  0  0  0  0  0  0
   21.8220  -22.0687  -13.7513 C   0  0  2  0  0  0  0  0  0  0  0  0
   23.1586  -21.5852  -14.1229 N   0  0  0  0  0  0  0  0  0  0  0  0
   20.8335  -21.7618  -14.8100 C   0  0  0  0  0  0  0  0  0  0  0  0
   19.9768  -22.6331  -15.0804 O   0  0  0  0  0  0  0  0  0  0  0  0
   20.8451  -20.5753  -15.4750 O   0  0  0  0  0  0  0  0  0  0  0  0
  2  1  1  0
  3  2  2  0
  4  3  1  0
  5 11  1  0
  5  4  2  0
  6  5  1  0
  7  6  1  0
  7  8  1  1
  9  7  1  0
 10  9  2  0
 11 12  2  0
 12  2  1  0
 13  9  1  0
 13 17  1  0
 14 15  1  0
 14 13  1  0
 15 16  1  0
 16 17  1  0
 18 26  1  0
 17 18  1  1
 19 18  2  0
 20 21  1  0
 21 22  2  0
 23 24  1  0
 23 21  1  0
 25 24  1  1
 25 27  1  0
 25 26  1  0
 27 29  1  0
 28 27  2  0
M  END
$$$$
