MIT.pdb
     RDKit          3D

 24 23  0  0  1  0  0  0  0  0999 V2000
    5.9765  -19.8323   27.3285 C   0  0  0  0  0  0  0  0  0  0  0  0
    6.2251  -20.6963   25.7814 S   0  0  0  0  0  0  0  0  0  0  0  0
    6.4412  -19.5580   24.4036 C   0  0  0  0  0  0  0  0  0  0  0  0
    5.4808  -18.3879   24.5679 C   0  0  0  0  0  0  0  0  0  0  0  0
    5.6636  -17.3863   23.4530 C   0  0  2  0  0  0  0  0  0  0  0  0
    5.8441  -17.9716   22.1670 N   0  0  0  0  0  0  0  0  0  0  0  0
    6.8721  -16.5373   23.7768 C   0  0  0  0  0  0  0  0  0  0  0  0
    7.8829  -16.7221   23.0591 O   0  0  0  0  0  0  0  0  0  0  0  0
    5.8494  -11.8530   26.3042 C   0  0  0  0  0  0  0  0  0  0  0  0
    6.5990  -12.8691   25.4852 C   0  0  0  0  0  0  0  0  0  0  0  0
    7.3958  -13.8274   26.3258 C   0  0  2  0  0  0  0  0  0  0  0  0
    8.4820  -12.9630   26.9852 C   0  0  0  0  0  0  0  0  0  0  0  0
    7.9353  -14.9475   25.4924 C   0  0  2  0  0  0  0  0  0  0  0  0
    6.8361  -15.6079   24.8218 N   0  0  0  0  0  0  0  0  0  0  0  0
    8.7695  -15.9296   26.2053 C   0  0  0  0  0  0  0  0  0  0  0  0
    8.2912  -16.5286   27.2419 O   0  0  0  0  0  0  0  0  0  0  0  0
   11.0412  -18.4035   24.0325 C   0  0  0  0  0  0  0  0  0  0  0  0
   11.7756  -17.9481   25.2752 C   0  0  1  0  0  0  0  0  0  0  0  0
   12.8409  -17.1463   24.9175 O   0  0  0  0  0  0  0  0  0  0  0  0
   10.8615  -17.3214   26.2705 C   0  0  2  0  0  0  0  0  0  0  0  0
   10.0758  -16.2197   25.7633 N   0  0  0  0  0  0  0  0  0  0  0  0
   11.5362  -17.0098   27.5797 C   0  0  0  0  0  0  0  0  0  0  0  0
   12.2338  -17.9210   28.3349 O   0  0  0  0  0  0  0  0  0  0  0  0
   11.4149  -15.7970   27.9532 O   0  0  0  0  0  0  0  0  0  0  0  0
  1  2  1  0
  2  3  1  0
  4  3  1  0
  5  4  1  0
  5  6  1  6
  7 14  1  0
  7  5  1  0
  8  7  2  0
 10  9  1  0
 10 11  1  0
 11 12  1  6
 11 13  1  0
 13 14  1  1
 15 13  1  0
 15 21  1  0
 16 15  2  0
 18 17  1  6
 18 20  1  0
 19 18  1  0
 20 21  1  6
 20 22  1  0
 22 23  1  0
 24 22  2  0
M  END
$$$$
