MIT.pdb
     RDKit          3D

 24 23  0  0  1  0  0  0  0  0999 V2000
    9.5073  -13.8804   29.3688 C   0  0  0  0  0  0  0  0  0  0  0  0
   10.9183  -14.9648   29.5565 S   0  0  0  0  0  0  0  0  0  0  0  0
   10.6494  -16.5598   28.7663 C   0  0  0  0  0  0  0  0  0  0  0  0
    9.1702  -16.7109   28.4380 C   0  0  0  0  0  0  0  0  0  0  0  0
    8.9852  -17.2214   27.0292 C   0  0  2  0  0  0  0  0  0  0  0  0
   10.0834  -16.9532   26.1627 N   0  0  0  0  0  0  0  0  0  0  0  0
    7.7426  -16.5787   26.4555 C   0  0  0  0  0  0  0  0  0  0  0  0
    6.7724  -16.4591   27.2401 O   0  0  0  0  0  0  0  0  0  0  0  0
    6.8126  -12.0436   26.9627 C   0  0  0  0  0  0  0  0  0  0  0  0
    6.4397  -13.3213   26.2602 C   0  0  0  0  0  0  0  0  0  0  0  0
    7.4778  -13.7703   25.2699 C   0  0  2  0  0  0  0  0  0  0  0  0
    7.6930  -12.5590   24.3489 C   0  0  0  0  0  0  0  0  0  0  0  0
    7.0320  -15.0059   24.5522 C   0  0  2  0  0  0  0  0  0  0  0  0
    7.7058  -16.1519   25.1237 N   0  0  0  0  0  0  0  0  0  0  0  0
    7.1950  -14.9884   23.0888 C   0  0  0  0  0  0  0  0  0  0  0  0
    6.6246  -14.0582   22.4021 O   0  0  0  0  0  0  0  0  0  0  0  0
    8.4820  -13.2957   21.0988 C   0  0  0  0  0  0  0  0  0  0  0  0
    8.0852  -14.5782   20.3997 C   0  0  1  0  0  0  0  0  0  0  0  0
    8.4926  -14.5340   19.0816 O   0  0  0  0  0  0  0  0  0  0  0  0
    8.5561  -15.7868   21.1324 C   0  0  2  0  0  0  0  0  0  0  0  0
    7.9674  -15.9718   22.4391 N   0  0  0  0  0  0  0  0  0  0  0  0
   10.0547  -15.9302   21.1360 C   0  0  0  0  0  0  0  0  0  0  0  0
   10.8247  -16.1082   20.0123 O   0  0  0  0  0  0  0  0  0  0  0  0
   10.5815  -15.8700   22.2953 O   0  0  0  0  0  0  0  0  0  0  0  0
  1  2  1  0
  2  3  1  0
  4  3  1  0
  5  4  1  0
  5  6  1  6
  7 14  1  0
  7  5  1  0
  8  7  2  0
 10  9  1  0
 10 11  1  0
 11 12  1  6
 11 13  1  0
 13 14  1  1
 15 13  1  0
 15 21  1  0
 16 15  2  0
 18 17  1  1
 18 20  1  0
 19 18  1  0
 20 21  1  1
 20 22  1  0
 22 23  1  0
 24 22  2  0
M  END
$$$$
