MIT.pdb
     RDKit          3D

 24 23  0  0  1  0  0  0  0  0999 V2000
    8.4746  -11.4059   19.6691 C   0  0  0  0  0  0  0  0  0  0  0  0
    7.5549  -12.6217   18.7322 S   0  0  0  0  0  0  0  0  0  0  0  0
    7.4767  -14.2064   19.5826 C   0  0  0  0  0  0  0  0  0  0  0  0
    8.1268  -14.0700   20.9527 C   0  0  0  0  0  0  0  0  0  0  0  0
    8.1819  -15.4064   21.6532 C   0  0  2  0  0  0  0  0  0  0  0  0
    6.9085  -16.0113   21.8564 N   0  0  0  0  0  0  0  0  0  0  0  0
    8.8470  -15.2063   22.9963 C   0  0  0  0  0  0  0  0  0  0  0  0
   10.0956  -15.0960   22.9812 O   0  0  0  0  0  0  0  0  0  0  0  0
    6.3054  -11.9189   25.9853 C   0  0  0  0  0  0  0  0  0  0  0  0
    7.3682  -12.8151   25.4089 C   0  0  0  0  0  0  0  0  0  0  0  0
    7.6160  -14.0417   26.2420 C   0  0  2  0  0  0  0  0  0  0  0  0
    8.1712  -13.5083   27.5721 C   0  0  0  0  0  0  0  0  0  0  0  0
    8.5361  -14.9890   25.5373 C   0  0  2  0  0  0  0  0  0  0  0  0
    8.0889  -15.1513   24.1707 N   0  0  0  0  0  0  0  0  0  0  0  0
    8.7165  -16.3013   26.1805 C   0  0  0  0  0  0  0  0  0  0  0  0
    7.6805  -17.0224   26.4430 O   0  0  0  0  0  0  0  0  0  0  0  0
   10.5146  -19.1708   24.8315 C   0  0  0  0  0  0  0  0  0  0  0  0
   11.1029  -18.9684   26.2113 C   0  0  1  0  0  0  0  0  0  0  0  0
   12.4121  -18.5449   26.1007 O   0  0  0  0  0  0  0  0  0  0  0  0
   10.2563  -18.0831   27.0591 C   0  0  2  0  0  0  0  0  0  0  0  0
   10.0044  -16.7725   26.5050 N   0  0  0  0  0  0  0  0  0  0  0  0
   10.7005  -18.0392   28.4968 C   0  0  0  0  0  0  0  0  0  0  0  0
   10.7716  -19.1323   29.3258 O   0  0  0  0  0  0  0  0  0  0  0  0
   11.0214  -16.8760   28.9081 O   0  0  0  0  0  0  0  0  0  0  0  0
  1  2  1  0
  2  3  1  0
  4  3  1  0
  5  4  1  0
  5  6  1  1
  7 14  1  0
  7  5  1  0
  8  7  2  0
 10  9  1  0
 10 11  1  0
 11 12  1  1
 11 13  1  0
 13 14  1  6
 15 13  1  0
 15 21  1  0
 16 15  2  0
 18 17  1  6
 18 20  1  0
 19 18  1  0
 20 21  1  6
 20 22  1  0
 22 23  1  0
 24 22  2  0
M  END
$$$$
