MIT.pdb
     RDKit          3D

 24 23  0  0  1  0  0  0  0  0999 V2000
    5.9829  -19.3364   21.9129 C   0  0  0  0  0  0  0  0  0  0  0  0
    6.2027  -18.7649   20.2315 S   0  0  0  0  0  0  0  0  0  0  0  0
    6.9131  -17.1119   20.1715 C   0  0  0  0  0  0  0  0  0  0  0  0
    6.5481  -16.3654   21.4474 C   0  0  0  0  0  0  0  0  0  0  0  0
    7.1138  -14.9657   21.4278 C   0  0  2  0  0  0  0  0  0  0  0  0
    7.8909  -14.6669   20.2721 N   0  0  0  0  0  0  0  0  0  0  0  0
    7.9783  -14.7904   22.6559 C   0  0  0  0  0  0  0  0  0  0  0  0
    9.2103  -14.9498   22.4890 O   0  0  0  0  0  0  0  0  0  0  0  0
    6.1621  -11.2070   26.1592 C   0  0  0  0  0  0  0  0  0  0  0  0
    7.0711  -12.1296   25.3927 C   0  0  0  0  0  0  0  0  0  0  0  0
    7.2539  -13.4628   26.0629 C   0  0  2  0  0  0  0  0  0  0  0  0
    7.9335  -13.1398   27.4029 C   0  0  0  0  0  0  0  0  0  0  0  0
    8.0397  -14.3941   25.1936 C   0  0  2  0  0  0  0  0  0  0  0  0
    7.4097  -14.4694   23.8930 N   0  0  0  0  0  0  0  0  0  0  0  0
    8.2597  -15.7441   25.7391 C   0  0  0  0  0  0  0  0  0  0  0  0
    7.2428  -16.4950   25.9928 O   0  0  0  0  0  0  0  0  0  0  0  0
    9.9252  -18.5347   24.1519 C   0  0  0  0  0  0  0  0  0  0  0  0
   10.6250  -18.3976   25.4870 C   0  0  1  0  0  0  0  0  0  0  0  0
   11.9210  -17.9649   25.2899 O   0  0  0  0  0  0  0  0  0  0  0  0
    9.8516  -17.5572   26.4435 C   0  0  2  0  0  0  0  0  0  0  0  0
    9.5645  -16.2189   25.9804 N   0  0  0  0  0  0  0  0  0  0  0  0
   10.4065  -17.5898   27.8425 C   0  0  0  0  0  0  0  0  0  0  0  0
   10.6061  -18.7336   28.5769 O   0  0  0  0  0  0  0  0  0  0  0  0
   10.6925  -16.4416   28.3170 O   0  0  0  0  0  0  0  0  0  0  0  0
  1  2  1  0
  2  3  1  0
  4  3  1  0
  5  4  1  0
  5  6  1  6
  7 14  1  0
  7  5  1  0
  8  7  2  0
 10  9  1  0
 10 11  1  0
 11 12  1  1
 11 13  1  0
 13 14  1  6
 15 13  1  0
 15 21  1  0
 16 15  2  0
 18 17  1  6
 18 20  1  0
 19 18  1  0
 20 21  1  6
 20 22  1  0
 22 23  1  0
 24 22  2  0
M  END
$$$$
