MIT.pdb
     RDKit          3D

 24 23  0  0  1  0  0  0  0  0999 V2000
    8.7570  -11.5217   19.3632 C   0  0  0  0  0  0  0  0  0  0  0  0
    7.5127  -12.5650   18.6116 S   0  0  0  0  0  0  0  0  0  0  0  0
    7.4061  -14.1709   19.4181 C   0  0  0  0  0  0  0  0  0  0  0  0
    8.0632  -14.0853   20.7890 C   0  0  0  0  0  0  0  0  0  0  0  0
    7.9027  -15.3849   21.5404 C   0  0  2  0  0  0  0  0  0  0  0  0
    6.5485  -15.7690   21.7585 N   0  0  0  0  0  0  0  0  0  0  0  0
    8.5912  -15.2424   22.8791 C   0  0  0  0  0  0  0  0  0  0  0  0
    9.8440  -15.2129   22.8532 O   0  0  0  0  0  0  0  0  0  0  0  0
    6.0164  -11.9483   25.9584 C   0  0  0  0  0  0  0  0  0  0  0  0
    7.1091  -12.7971   25.3663 C   0  0  0  0  0  0  0  0  0  0  0  0
    7.3510  -14.0640   26.1387 C   0  0  2  0  0  0  0  0  0  0  0  0
    7.8475  -13.5965   27.5159 C   0  0  0  0  0  0  0  0  0  0  0  0
    8.3142  -14.9537   25.4169 C   0  0  2  0  0  0  0  0  0  0  0  0
    7.8486  -15.1509   24.0611 N   0  0  0  0  0  0  0  0  0  0  0  0
    8.5926  -16.2487   26.0603 C   0  0  0  0  0  0  0  0  0  0  0  0
    7.6314  -17.0932   26.2190 O   0  0  0  0  0  0  0  0  0  0  0  0
   12.3039  -17.7759   25.3010 C   0  0  0  0  0  0  0  0  0  0  0  0
   11.0978  -18.5869   25.7238 C   0  0  1  0  0  0  0  0  0  0  0  0
   11.4897  -19.8727   26.0381 O   0  0  0  0  0  0  0  0  0  0  0  0
   10.3200  -17.9166   26.8031 C   0  0  2  0  0  0  0  0  0  0  0  0
    9.8933  -16.5704   26.4970 N   0  0  0  0  0  0  0  0  0  0  0  0
   10.9641  -18.0363   28.1585 C   0  0  0  0  0  0  0  0  0  0  0  0
   11.1942  -16.9827   29.0095 O   0  0  0  0  0  0  0  0  0  0  0  0
   11.2915  -19.2266   28.4770 O   0  0  0  0  0  0  0  0  0  0  0  0
  1  2  1  0
  2  3  1  0
  4  3  1  0
  5  4  1  0
  5  6  1  1
  7 14  1  0
  7  5  1  0
  8  7  2  0
 10  9  1  0
 10 11  1  0
 11 12  1  1
 11 13  1  0
 13 14  1  6
 15 13  1  0
 15 21  1  0
 16 15  2  0
 18 17  1  1
 18 20  1  0
 19 18  1  0
 20 21  1  6
 20 22  1  0
 22 23  1  0
 24 22  2  0
M  END
$$$$
