MIT.pdb
     RDKit          3D

 24 23  0  0  1  0  0  0  0  0999 V2000
    8.5689  -11.4741   19.6489 C   0  0  0  0  0  0  0  0  0  0  0  0
    7.7075  -12.6856   18.6530 S   0  0  0  0  0  0  0  0  0  0  0  0
    7.5064  -14.2492   19.5222 C   0  0  0  0  0  0  0  0  0  0  0  0
    8.2318  -14.1738   20.8589 C   0  0  0  0  0  0  0  0  0  0  0  0
    8.1137  -15.4810   21.6052 C   0  0  2  0  0  0  0  0  0  0  0  0
    6.7728  -15.9100   21.8214 N   0  0  0  0  0  0  0  0  0  0  0  0
    8.7970  -15.3213   22.9445 C   0  0  0  0  0  0  0  0  0  0  0  0
   10.0439  -15.1959   22.9148 O   0  0  0  0  0  0  0  0  0  0  0  0
    6.1198  -12.1436   25.8925 C   0  0  0  0  0  0  0  0  0  0  0  0
    7.2209  -12.9961   25.3217 C   0  0  0  0  0  0  0  0  0  0  0  0
    7.5477  -14.1849   26.1818 C   0  0  2  0  0  0  0  0  0  0  0  0
    8.0898  -13.5872   27.4897 C   0  0  0  0  0  0  0  0  0  0  0  0
    8.5099  -15.0977   25.4878 C   0  0  2  0  0  0  0  0  0  0  0  0
    8.0564  -15.3173   24.1313 N   0  0  0  0  0  0  0  0  0  0  0  0
    8.7692  -16.3823   26.1594 C   0  0  0  0  0  0  0  0  0  0  0  0
    7.7774  -17.1532   26.4499 O   0  0  0  0  0  0  0  0  0  0  0  0
   10.7524  -19.2383   24.9447 C   0  0  0  0  0  0  0  0  0  0  0  0
   11.3214  -18.9076   26.3078 C   0  0  1  0  0  0  0  0  0  0  0  0
   12.5955  -18.3952   26.1674 O   0  0  0  0  0  0  0  0  0  0  0  0
   10.4095  -18.0373   27.1016 C   0  0  2  0  0  0  0  0  0  0  0  0
   10.0843  -16.7735   26.4809 N   0  0  0  0  0  0  0  0  0  0  0  0
   10.8300  -17.8959   28.5402 C   0  0  0  0  0  0  0  0  0  0  0  0
   10.9759  -18.9429   29.4175 O   0  0  0  0  0  0  0  0  0  0  0  0
   11.0530  -16.6942   28.9026 O   0  0  0  0  0  0  0  0  0  0  0  0
  1  2  1  0
  2  3  1  0
  4  3  1  0
  5  4  1  0
  5  6  1  1
  7 14  1  0
  7  5  1  0
  8  7  2  0
 10  9  1  0
 10 11  1  0
 11 12  1  1
 11 13  1  0
 13 14  1  6
 15 13  1  0
 15 21  1  0
 16 15  2  0
 18 17  1  6
 18 20  1  0
 19 18  1  0
 20 21  1  6
 20 22  1  0
 22 23  1  0
 24 22  2  0
M  END
$$$$
