NDE.pdb
     RDKit          3D

 26 25  0  0  1  0  0  0  0  0999 V2000
    8.0562  -14.2409   13.2526 N   0  0  0  0  0  0  0  0  0  0  0  0
    7.2929  -15.1560   14.0272 C   0  0  0  0  0  0  0  0  0  0  0  0
    6.3043  -15.7351   13.5245 O   0  0  0  0  0  0  0  0  0  0  0  0
    7.6793  -15.4207   15.4451 C   0  0  0  0  0  0  0  0  0  0  0  0
    8.9380  -14.6041   15.6863 C   0  0  2  0  0  0  0  0  0  0  0  0
    9.6676  -14.5009   14.4677 N   0  0  0  0  0  0  0  0  0  0  0  0
    9.7398  -15.2872   16.7686 C   0  0  0  0  0  0  0  0  0  0  0  0
    9.2153  -15.5198   17.8775 O   0  0  0  0  0  0  0  0  0  0  0  0
   11.0752  -15.6716   16.5561 N   0  0  0  0  0  0  0  0  0  0  0  0
   12.0255  -16.3103   17.3704 C   0  0  1  0  0  0  0  0  0  0  0  0
   13.0248  -17.2446   16.7246 C   0  0  0  0  0  0  0  0  0  0  0  0
   13.8299  -18.0050   17.7069 C   0  0  0  0  0  0  0  0  0  0  0  0
   13.2196  -18.8211   18.4804 O   0  0  0  0  0  0  0  0  0  0  0  0
   12.5812  -15.5360   18.4937 C   0  0  0  0  0  0  0  0  0  0  0  0
   13.1185  -14.4015   18.2189 O   0  0  0  0  0  0  0  0  0  0  0  0
   15.1929  -17.8831   17.8322 O   0  0  0  0  0  0  0  0  0  0  0  0
   12.5720  -15.9316   19.8336 N   0  0  0  0  0  0  0  0  0  0  0  0
   13.0504  -15.0028   20.8593 C   0  0  1  0  0  0  0  0  0  0  0  0
   12.1364  -15.0701   22.0653 C   0  0  0  0  0  0  0  0  0  0  0  0
   12.1539  -16.3759   22.7641 C   0  0  0  0  0  0  0  0  0  0  0  0
   11.2671  -16.4571   23.9395 C   0  0  0  0  0  0  0  0  0  0  0  0
   11.7406  -16.0558   25.0491 O   0  0  0  0  0  0  0  0  0  0  0  0
   14.4503  -15.3530   21.1582 C   0  0  0  0  0  0  0  0  0  0  0  0
   14.9357  -16.4121   20.7152 O   0  0  0  0  0  0  0  0  0  0  0  0
    9.9692  -16.9303   23.9379 O   0  0  0  0  0  0  0  0  0  0  0  0
   15.2265  -14.5181   21.9230 O   0  0  0  0  0  0  0  0  0  0  0  0
  2  1  1  0
  2  3  2  0
  4  2  1  0
  5  4  1  0
  5  7  1  0
  5  6  1  6
  7  8  2  0
  9 10  1  0
  9  7  1  0
 10 11  1  6
 11 12  1  0
 12 16  1  0
 13 12  2  0
 14 10  1  0
 14 17  1  0
 15 14  2  0
 18 17  1  0
 18 19  1  1
 20 19  1  0
 20 21  1  0
 21 25  1  0
 21 22  2  0
 23 18  1  0
 24 23  2  0
 26 23  1  0
M  END
$$$$
