NDE.pdb
     RDKit          3D

 26 25  0  0  1  0  0  0  0  0999 V2000
    6.2369  -12.3236   18.6140 N   0  0  0  0  0  0  0  0  0  0  0  0
    7.2426  -13.1914   18.1084 C   0  0  0  0  0  0  0  0  0  0  0  0
    7.3711  -13.3552   16.8746 O   0  0  0  0  0  0  0  0  0  0  0  0
    8.1442  -13.9062   19.0603 C   0  0  0  0  0  0  0  0  0  0  0  0
    8.8650  -14.9567   18.2320 C   0  0  2  0  0  0  0  0  0  0  0  0
    7.9040  -15.8312   17.6492 N   0  0  0  0  0  0  0  0  0  0  0  0
    9.8222  -15.6931   19.1388 C   0  0  0  0  0  0  0  0  0  0  0  0
    9.5964  -15.7508   20.3653 O   0  0  0  0  0  0  0  0  0  0  0  0
   10.9725  -16.3217   18.6307 N   0  0  0  0  0  0  0  0  0  0  0  0
   12.0116  -17.0460   19.2388 C   0  0  1  0  0  0  0  0  0  0  0  0
   12.9102  -17.8965   18.3685 C   0  0  0  0  0  0  0  0  0  0  0  0
   13.7973  -18.7906   19.1463 C   0  0  0  0  0  0  0  0  0  0  0  0
   14.9980  -18.9517   18.7346 O   0  0  0  0  0  0  0  0  0  0  0  0
   12.7141  -16.4035   20.3630 C   0  0  0  0  0  0  0  0  0  0  0  0
   13.4297  -15.3697   20.0972 O   0  0  0  0  0  0  0  0  0  0  0  0
   13.4030  -19.4543   20.2830 O   0  0  0  0  0  0  0  0  0  0  0  0
   12.6667  -16.8235   21.6946 N   0  0  0  0  0  0  0  0  0  0  0  0
   13.4046  -16.0711   22.7110 C   0  0  1  0  0  0  0  0  0  0  0  0
   12.5814  -15.9987   23.9805 C   0  0  0  0  0  0  0  0  0  0  0  0
   12.1323  -17.3170   24.4847 C   0  0  0  0  0  0  0  0  0  0  0  0
   11.3122  -17.2610   25.7089 C   0  0  0  0  0  0  0  0  0  0  0  0
   10.0534  -17.3695   25.5664 O   0  0  0  0  0  0  0  0  0  0  0  0
   14.7111  -16.7289   22.8902 C   0  0  0  0  0  0  0  0  0  0  0  0
   15.5770  -16.2063   23.6186 O   0  0  0  0  0  0  0  0  0  0  0  0
   11.7934  -17.1017   26.9940 O   0  0  0  0  0  0  0  0  0  0  0  0
   14.9821  -17.9174   22.2590 O   0  0  0  0  0  0  0  0  0  0  0  0
  2  1  1  0
  2  3  2  0
  4  2  1  0
  5  4  1  0
  5  7  1  0
  5  6  1  1
  7  8  2  0
  9 10  1  0
  9  7  1  0
 10 11  1  6
 11 12  1  0
 12 16  1  0
 13 12  2  0
 14 10  1  0
 14 17  1  0
 15 14  2  0
 18 17  1  0
 18 19  1  1
 20 19  1  0
 20 21  1  0
 21 25  1  0
 21 22  2  0
 23 18  1  0
 24 23  2  0
 26 23  1  0
M  END
$$$$
