NDE.pdb
     RDKit          3D

 26 25  0  0  1  0  0  0  0  0999 V2000
    7.1152  -13.8112   16.4142 N   0  0  0  0  0  0  0  0  0  0  0  0
    8.3725  -14.4677   16.3229 C   0  0  0  0  0  0  0  0  0  0  0  0
    8.7398  -14.9772   15.2408 O   0  0  0  0  0  0  0  0  0  0  0  0
    9.2513  -14.5449   17.5277 C   0  0  0  0  0  0  0  0  0  0  0  0
    8.4935  -13.8306   18.6345 C   0  0  2  0  0  0  0  0  0  0  0  0
    8.3731  -12.4512   18.3021 N   0  0  0  0  0  0  0  0  0  0  0  0
    9.2468  -14.0366   19.9271 C   0  0  0  0  0  0  0  0  0  0  0  0
   10.2273  -13.3123   20.1970 O   0  0  0  0  0  0  0  0  0  0  0  0
    8.8674  -15.0333   20.8430 N   0  0  0  0  0  0  0  0  0  0  0  0
    9.4178  -15.4711   22.0593 C   0  0  1  0  0  0  0  0  0  0  0  0
    8.5081  -16.1293   23.0730 C   0  0  0  0  0  0  0  0  0  0  0  0
    7.5773  -15.1796   23.7232 C   0  0  0  0  0  0  0  0  0  0  0  0
    7.7253  -13.9321   23.4802 O   0  0  0  0  0  0  0  0  0  0  0  0
   10.7722  -16.0490   22.0180 C   0  0  0  0  0  0  0  0  0  0  0  0
   10.8927  -17.2343   21.5364 O   0  0  0  0  0  0  0  0  0  0  0  0
    6.5657  -15.5634   24.5703 O   0  0  0  0  0  0  0  0  0  0  0  0
   11.9372  -15.4157   22.4577 N   0  0  0  0  0  0  0  0  0  0  0  0
   13.2270  -16.0875   22.2879 C   0  0  1  0  0  0  0  0  0  0  0  0
   14.2740  -15.0717   21.8798 C   0  0  0  0  0  0  0  0  0  0  0  0
   15.6549  -15.6065   21.8506 C   0  0  0  0  0  0  0  0  0  0  0  0
   16.6847  -14.6304   21.4490 C   0  0  0  0  0  0  0  0  0  0  0  0
   17.4856  -14.2312   22.3522 O   0  0  0  0  0  0  0  0  0  0  0  0
   13.5368  -16.7812   23.5506 C   0  0  0  0  0  0  0  0  0  0  0  0
   14.4451  -17.6341   23.5862 O   0  0  0  0  0  0  0  0  0  0  0  0
   16.8534  -14.1146   20.1787 O   0  0  0  0  0  0  0  0  0  0  0  0
   12.8304  -16.4937   24.6919 O   0  0  0  0  0  0  0  0  0  0  0  0
  2  1  1  0
  2  3  2  0
  4  2  1  0
  5  4  1  0
  5  7  1  0
  5  6  1  6
  7  8  2  0
  9 10  1  0
  9  7  1  0
 10 11  1  6
 11 12  1  0
 12 16  1  0
 13 12  2  0
 14 10  1  0
 14 17  1  0
 15 14  2  0
 18 17  1  0
 18 19  1  1
 20 19  1  0
 20 21  1  0
 21 25  1  0
 21 22  2  0
 23 18  1  0
 24 23  2  0
 26 23  1  0
M  END
$$$$
