NDE.pdb
     RDKit          3D

 26 25  0  0  1  0  0  0  0  0999 V2000
    8.8477  -19.6502   17.7715 N   0  0  0  0  0  0  0  0  0  0  0  0
    8.3946  -18.3783   18.2156 C   0  0  0  0  0  0  0  0  0  0  0  0
    7.3067  -17.9181   17.8031 O   0  0  0  0  0  0  0  0  0  0  0  0
    9.2264  -17.5958   19.1777 C   0  0  0  0  0  0  0  0  0  0  0  0
   10.4828  -18.4215   19.3994 C   0  0  2  0  0  0  0  0  0  0  0  0
   10.2481  -19.7552   18.9590 N   0  0  0  0  0  0  0  0  0  0  0  0
   10.8284  -18.3642   20.8684 C   0  0  0  0  0  0  0  0  0  0  0  0
   11.1652  -17.2789   21.3857 O   0  0  0  0  0  0  0  0  0  0  0  0
   10.7794  -19.5139   21.6758 N   0  0  0  0  0  0  0  0  0  0  0  0
   11.1855  -19.7709   22.9961 C   0  0  1  0  0  0  0  0  0  0  0  0
   10.4124  -20.7854   23.8094 C   0  0  0  0  0  0  0  0  0  0  0  0
    9.3900  -20.1714   24.6863 C   0  0  0  0  0  0  0  0  0  0  0  0
    9.3801  -18.8967   24.7961 O   0  0  0  0  0  0  0  0  0  0  0  0
   12.6332  -19.7752   23.2682 C   0  0  0  0  0  0  0  0  0  0  0  0
   13.2951  -20.8204   22.9203 O   0  0  0  0  0  0  0  0  0  0  0  0
    8.4535  -20.8935   25.3861 O   0  0  0  0  0  0  0  0  0  0  0  0
   13.3474  -18.7375   23.8721 N   0  0  0  0  0  0  0  0  0  0  0  0
   14.8051  -18.8326   23.9717 C   0  0  1  0  0  0  0  0  0  0  0  0
   15.4327  -17.5898   23.3749 C   0  0  0  0  0  0  0  0  0  0  0  0
   16.9016  -17.5123   23.5488 C   0  0  0  0  0  0  0  0  0  0  0  0
   17.5181  -16.2759   23.0334 C   0  0  0  0  0  0  0  0  0  0  0  0
   17.4666  -15.2493   23.7818 O   0  0  0  0  0  0  0  0  0  0  0  0
   15.1412  -19.0413   25.3912 C   0  0  0  0  0  0  0  0  0  0  0  0
   14.3529  -18.6638   26.2800 O   0  0  0  0  0  0  0  0  0  0  0  0
   18.1457  -16.1382   21.8105 O   0  0  0  0  0  0  0  0  0  0  0  0
   16.3197  -19.6509   25.7431 O   0  0  0  0  0  0  0  0  0  0  0  0
  2  1  1  0
  2  3  2  0
  4  2  1  0
  5  4  1  0
  5  7  1  0
  5  6  1  1
  7  8  2  0
  9 10  1  0
  9  7  1  0
 10 11  1  6
 11 12  1  0
 12 16  1  0
 13 12  2  0
 14 10  1  0
 14 17  1  0
 15 14  2  0
 18 17  1  0
 18 19  1  1
 20 19  1  0
 20 21  1  0
 21 25  1  0
 21 22  2  0
 23 18  1  0
 24 23  2  0
 26 23  1  0
M  END
$$$$
