NDE.pdb
     RDKit          3D

 26 25  0  0  1  0  0  0  0  0999 V2000
    7.4244  -12.3771   17.8058 N   0  0  0  0  0  0  0  0  0  0  0  0
    7.1838  -13.4353   18.7238 C   0  0  0  0  0  0  0  0  0  0  0  0
    6.0165  -13.6985   19.0895 O   0  0  0  0  0  0  0  0  0  0  0  0
    8.3340  -14.2299   19.2484 C   0  0  0  0  0  0  0  0  0  0  0  0
    9.5810  -13.5621   18.6931 C   0  0  2  0  0  0  0  0  0  0  0  0
    9.4975  -13.5267   17.2719 N   0  0  0  0  0  0  0  0  0  0  0  0
   10.7827  -14.3432   19.1691 C   0  0  0  0  0  0  0  0  0  0  0  0
   10.7228  -14.9853   20.2381 O   0  0  0  0  0  0  0  0  0  0  0  0
   11.9788  -14.3655   18.4307 N   0  0  0  0  0  0  0  0  0  0  0  0
   13.2413  -14.9310   18.6761 C   0  0  1  0  0  0  0  0  0  0  0  0
   14.3123  -14.8050   17.6151 C   0  0  0  0  0  0  0  0  0  0  0  0
   15.4497  -15.7291   17.8234 C   0  0  0  0  0  0  0  0  0  0  0  0
   16.6218  -15.3175   17.5169 O   0  0  0  0  0  0  0  0  0  0  0  0
   13.7608  -14.8508   20.0522 C   0  0  0  0  0  0  0  0  0  0  0  0
   14.3284  -13.7531   20.4048 O   0  0  0  0  0  0  0  0  0  0  0  0
   15.3160  -17.0005   18.3271 O   0  0  0  0  0  0  0  0  0  0  0  0
   13.6873  -15.8683   21.0067 N   0  0  0  0  0  0  0  0  0  0  0  0
   14.0993  -15.5912   22.3841 C   0  0  1  0  0  0  0  0  0  0  0  0
   13.2278  -16.3807   23.3389 C   0  0  0  0  0  0  0  0  0  0  0  0
   13.6479  -16.2887   24.7562 C   0  0  0  0  0  0  0  0  0  0  0  0
   12.8688  -17.1282   25.6850 C   0  0  0  0  0  0  0  0  0  0  0  0
   12.6088  -18.3153   25.3110 O   0  0  0  0  0  0  0  0  0  0  0  0
   15.5340  -15.9102   22.4918 C   0  0  0  0  0  0  0  0  0  0  0  0
   16.0849  -16.6058   21.6164 O   0  0  0  0  0  0  0  0  0  0  0  0
   12.3990  -16.7364   26.9236 O   0  0  0  0  0  0  0  0  0  0  0  0
   16.2707  -15.4448   23.5525 O   0  0  0  0  0  0  0  0  0  0  0  0
  2  1  1  0
  2  3  2  0
  4  2  1  0
  5  4  1  0
  5  7  1  0
  5  6  1  6
  7  8  2  0
  9 10  1  0
  9  7  1  0
 10 11  1  6
 11 12  1  0
 12 16  1  0
 13 12  2  0
 14 10  1  0
 14 17  1  0
 15 14  2  0
 18 17  1  0
 18 19  1  1
 20 19  1  0
 20 21  1  0
 21 25  1  0
 21 22  2  0
 23 18  1  0
 24 23  2  0
 26 23  1  0
M  END
$$$$
