NDE.pdb
     RDKit          3D

 26 25  0  0  1  0  0  0  0  0999 V2000
    6.9083  -12.6576   19.0420 N   0  0  0  0  0  0  0  0  0  0  0  0
    8.0370  -13.0962   18.2977 C   0  0  0  0  0  0  0  0  0  0  0  0
    8.0373  -13.0173   17.0490 O   0  0  0  0  0  0  0  0  0  0  0  0
    9.2218  -13.6518   19.0170 C   0  0  0  0  0  0  0  0  0  0  0  0
    9.9513  -14.5142   18.0003 C   0  0  2  0  0  0  0  0  0  0  0  0
    9.0585  -15.5067   17.5045 N   0  0  0  0  0  0  0  0  0  0  0  0
   11.1536  -15.1248   18.6802 C   0  0  0  0  0  0  0  0  0  0  0  0
   11.0349  -16.1982   19.3066 O   0  0  0  0  0  0  0  0  0  0  0  0
   12.4159  -14.5084   18.6243 N   0  0  0  0  0  0  0  0  0  0  0  0
   13.6616  -14.8317   19.1879 C   0  0  1  0  0  0  0  0  0  0  0  0
   14.9112  -14.2350   18.5789 C   0  0  0  0  0  0  0  0  0  0  0  0
   15.0960  -14.5983   17.1559 C   0  0  0  0  0  0  0  0  0  0  0  0
   15.0655  -15.8388   16.8439 O   0  0  0  0  0  0  0  0  0  0  0  0
   13.7249  -14.9659   20.6535 C   0  0  0  0  0  0  0  0  0  0  0  0
   14.0046  -13.9101   21.3304 O   0  0  0  0  0  0  0  0  0  0  0  0
   15.2972  -13.6789   16.1547 O   0  0  0  0  0  0  0  0  0  0  0  0
   13.5051  -16.1453   21.3695 N   0  0  0  0  0  0  0  0  0  0  0  0
   13.5721  -16.1200   22.8319 C   0  0  1  0  0  0  0  0  0  0  0  0
   12.3515  -16.8110   23.4039 C   0  0  0  0  0  0  0  0  0  0  0  0
   12.3639  -16.9346   24.8798 C   0  0  0  0  0  0  0  0  0  0  0  0
   11.1778  -17.5981   25.4520 C   0  0  0  0  0  0  0  0  0  0  0  0
   10.2550  -17.9302   24.6427 O   0  0  0  0  0  0  0  0  0  0  0  0
   14.8459  -16.7449   23.2297 C   0  0  0  0  0  0  0  0  0  0  0  0
   15.4641  -17.4670   22.4233 O   0  0  0  0  0  0  0  0  0  0  0  0
   10.9843  -17.8894   26.7884 O   0  0  0  0  0  0  0  0  0  0  0  0
   15.3589  -16.5365   24.4858 O   0  0  0  0  0  0  0  0  0  0  0  0
  2  1  1  0
  2  3  2  0
  4  2  1  0
  5  4  1  0
  5  7  1  0
  5  6  1  1
  7  8  2  0
  9 10  1  0
  9  7  1  0
 10 11  1  1
 11 12  1  0
 12 16  1  0
 13 12  2  0
 14 10  1  0
 14 17  1  0
 15 14  2  0
 18 17  1  0
 18 19  1  1
 20 19  1  0
 20 21  1  0
 21 25  1  0
 21 22  2  0
 23 18  1  0
 24 23  2  0
 26 23  1  0
M  END
$$$$
