NDE.pdb
     RDKit          3D

 26 25  0  0  1  0  0  0  0  0999 V2000
    7.5910  -12.4850   19.7337 N   0  0  0  0  0  0  0  0  0  0  0  0
    7.7383  -13.6031   18.8686 C   0  0  0  0  0  0  0  0  0  0  0  0
    6.9026  -14.5340   18.8946 O   0  0  0  0  0  0  0  0  0  0  0  0
    8.8976  -13.6587   17.9291 C   0  0  0  0  0  0  0  0  0  0  0  0
    9.7485  -14.8278   18.3965 C   0  0  2  0  0  0  0  0  0  0  0  0
    8.8949  -15.8908   18.8080 N   0  0  0  0  0  0  0  0  0  0  0  0
   10.6316  -14.3445   19.5222 C   0  0  0  0  0  0  0  0  0  0  0  0
   11.4754  -13.4492   19.3095 O   0  0  0  0  0  0  0  0  0  0  0  0
   10.5257  -14.8828   20.8165 N   0  0  0  0  0  0  0  0  0  0  0  0
   11.4493  -15.0387   21.8637 C   0  0  1  0  0  0  0  0  0  0  0  0
   10.9383  -15.4444   23.2286 C   0  0  0  0  0  0  0  0  0  0  0  0
   10.1562  -16.7010   23.2075 C   0  0  0  0  0  0  0  0  0  0  0  0
    9.6733  -17.1265   24.3133 O   0  0  0  0  0  0  0  0  0  0  0  0
   12.7599  -15.6208   21.5267 C   0  0  0  0  0  0  0  0  0  0  0  0
   12.7719  -16.8243   21.0763 O   0  0  0  0  0  0  0  0  0  0  0  0
    9.9207  -17.4328   22.0686 O   0  0  0  0  0  0  0  0  0  0  0  0
   13.9913  -14.9734   21.6548 N   0  0  0  0  0  0  0  0  0  0  0  0
   15.2167  -15.6814   21.2794 C   0  0  1  0  0  0  0  0  0  0  0  0
   16.0137  -14.8304   20.3124 C   0  0  0  0  0  0  0  0  0  0  0  0
   15.3666  -14.6497   18.9924 C   0  0  0  0  0  0  0  0  0  0  0  0
   16.1572  -13.8721   18.0205 C   0  0  0  0  0  0  0  0  0  0  0  0
   16.6311  -12.7614   18.4182 O   0  0  0  0  0  0  0  0  0  0  0  0
   15.9426  -16.0029   22.5209 C   0  0  0  0  0  0  0  0  0  0  0  0
   15.5479  -15.5431   23.6102 O   0  0  0  0  0  0  0  0  0  0  0  0
   16.4268  -14.2466   16.7184 O   0  0  0  0  0  0  0  0  0  0  0  0
   17.0537  -16.8083   22.4865 O   0  0  0  0  0  0  0  0  0  0  0  0
  2  1  1  0
  2  3  2  0
  4  2  1  0
  5  4  1  0
  5  7  1  0
  5  6  1  1
  7  8  2  0
  9 10  1  0
  9  7  1  0
 10 11  1  1
 11 12  1  0
 12 16  1  0
 13 12  2  0
 14 10  1  0
 14 17  1  0
 15 14  2  0
 18 17  1  0
 18 19  1  6
 20 19  1  0
 20 21  1  0
 21 25  1  0
 21 22  2  0
 23 18  1  0
 24 23  2  0
 26 23  1  0
M  END
$$$$
