NDE.pdb
     RDKit          3D

 26 25  0  0  1  0  0  0  0  0999 V2000
    4.7190  -22.5803   21.9131 N   0  0  0  0  0  0  0  0  0  0  0  0
    5.9345  -21.8683   21.7240 C   0  0  0  0  0  0  0  0  0  0  0  0
    6.0157  -20.9838   20.8428 O   0  0  0  0  0  0  0  0  0  0  0  0
    7.1135  -22.1840   22.5843 C   0  0  0  0  0  0  0  0  0  0  0  0
    8.2318  -21.2784   22.0958 C   0  0  2  0  0  0  0  0  0  0  0  0
    8.3040  -21.3513   20.6754 N   0  0  0  0  0  0  0  0  0  0  0  0
    9.5172  -21.7257   22.7504 C   0  0  0  0  0  0  0  0  0  0  0  0
    9.5531  -22.8057   23.3757 O   0  0  0  0  0  0  0  0  0  0  0  0
   10.6859  -20.9483   22.6721 N   0  0  0  0  0  0  0  0  0  0  0  0
   11.9918  -21.1374   23.1546 C   0  0  1  0  0  0  0  0  0  0  0  0
   13.1472  -21.0323   22.1837 C   0  0  0  0  0  0  0  0  0  0  0  0
   14.4401  -21.4520   22.7697 C   0  0  0  0  0  0  0  0  0  0  0  0
   15.3904  -20.5959   22.8032 O   0  0  0  0  0  0  0  0  0  0  0  0
   12.2982  -20.6122   24.4964 C   0  0  0  0  0  0  0  0  0  0  0  0
   13.5155  -20.6985   24.8992 O   0  0  0  0  0  0  0  0  0  0  0  0
   14.6744  -22.7067   23.2787 O   0  0  0  0  0  0  0  0  0  0  0  0
   11.3761  -20.0270   25.3676 N   0  0  0  0  0  0  0  0  0  0  0  0
   11.6421  -20.0381   26.8073 C   0  0  1  0  0  0  0  0  0  0  0  0
   10.3423  -20.2414   27.5580 C   0  0  0  0  0  0  0  0  0  0  0  0
    9.1831  -19.5407   26.9589 C   0  0  0  0  0  0  0  0  0  0  0  0
    7.8996  -19.7751   27.6461 C   0  0  0  0  0  0  0  0  0  0  0  0
    7.0234  -18.8576   27.5618 O   0  0  0  0  0  0  0  0  0  0  0  0
   12.6447  -21.0867   27.0662 C   0  0  0  0  0  0  0  0  0  0  0  0
   13.4990  -20.9247   27.9594 O   0  0  0  0  0  0  0  0  0  0  0  0
    7.5687  -20.9034   28.3712 O   0  0  0  0  0  0  0  0  0  0  0  0
   12.6444  -22.2445   26.3289 O   0  0  0  0  0  0  0  0  0  0  0  0
  2  1  1  0
  2  3  2  0
  4  2  1  0
  5  4  1  0
  5  7  1  0
  5  6  1  6
  7  8  2  0
  9 10  1  0
  9  7  1  0
 10 11  1  6
 11 12  1  0
 12 16  1  0
 13 12  2  0
 14 10  1  0
 14 17  1  0
 15 14  2  0
 18 17  1  0
 18 19  1  1
 20 19  1  0
 20 21  1  0
 21 25  1  0
 21 22  2  0
 23 18  1  0
 24 23  2  0
 26 23  1  0
M  END
$$$$
