NDE.pdb
     RDKit          3D

 26 25  0  0  1  0  0  0  0  0999 V2000
    8.3728  -12.2587   18.1679 N   0  0  0  0  0  0  0  0  0  0  0  0
    7.4781  -13.3586   18.0672 C   0  0  0  0  0  0  0  0  0  0  0  0
    6.5962  -13.3738   17.1798 O   0  0  0  0  0  0  0  0  0  0  0  0
    7.5984  -14.4951   19.0282 C   0  0  0  0  0  0  0  0  0  0  0  0
    8.6222  -14.0527   20.0603 C   0  0  2  0  0  0  0  0  0  0  0  0
    9.8397  -13.7245   19.3986 N   0  0  0  0  0  0  0  0  0  0  0  0
    8.8038  -15.1768   21.0524 C   0  0  0  0  0  0  0  0  0  0  0  0
    7.8978  -15.4349   21.8718 O   0  0  0  0  0  0  0  0  0  0  0  0
    9.9792  -15.9476   21.0760 N   0  0  0  0  0  0  0  0  0  0  0  0
   10.4363  -16.9648   21.9307 C   0  0  1  0  0  0  0  0  0  0  0  0
   11.1844  -18.1353   21.3316 C   0  0  0  0  0  0  0  0  0  0  0  0
   10.4861  -19.4276   21.5143 C   0  0  0  0  0  0  0  0  0  0  0  0
    9.5378  -19.4819   22.3714 O   0  0  0  0  0  0  0  0  0  0  0  0
   10.9374  -16.5591   23.2552 C   0  0  0  0  0  0  0  0  0  0  0  0
   12.0025  -15.8409   23.2877 O   0  0  0  0  0  0  0  0  0  0  0  0
   10.7994  -20.5684   20.8152 O   0  0  0  0  0  0  0  0  0  0  0  0
   10.3507  -16.8890   24.4794 N   0  0  0  0  0  0  0  0  0  0  0  0
   10.9745  -16.4283   25.7214 C   0  0  1  0  0  0  0  0  0  0  0  0
   10.0221  -15.5031   26.4502 C   0  0  0  0  0  0  0  0  0  0  0  0
   10.5023  -15.0699   27.7827 C   0  0  0  0  0  0  0  0  0  0  0  0
    9.5529  -14.2302   28.5363 C   0  0  0  0  0  0  0  0  0  0  0  0
    8.4134  -14.0308   28.0087 O   0  0  0  0  0  0  0  0  0  0  0  0
   11.3508  -17.6219   26.4994 C   0  0  0  0  0  0  0  0  0  0  0  0
   10.8125  -18.7195   26.2558 O   0  0  0  0  0  0  0  0  0  0  0  0
    9.7950  -13.6436   29.7633 O   0  0  0  0  0  0  0  0  0  0  0  0
   12.2933  -17.5337   27.4935 O   0  0  0  0  0  0  0  0  0  0  0  0
  2  1  1  0
  2  3  2  0
  4  2  1  0
  5  4  1  0
  5  7  1  0
  5  6  1  6
  7  8  2  0
  9 10  1  0
  9  7  1  0
 10 11  1  6
 11 12  1  0
 12 16  1  0
 13 12  2  0
 14 10  1  0
 14 17  1  0
 15 14  2  0
 18 17  1  0
 18 19  1  1
 20 19  1  0
 20 21  1  0
 21 25  1  0
 21 22  2  0
 23 18  1  0
 24 23  2  0
 26 23  1  0
M  END
$$$$
