HSD.pdb
     RDKit          3D

 25 25  0  0  1  0  0  0  0  0999 V2000
    7.3315  -15.7759   20.0261 N   0  0  0  0  0  0  0  0  0  0  0  0
    8.6367  -15.1422   20.0104 C   0  0  1  0  0  0  0  0  0  0  0  0
    8.3907  -13.6607   19.6989 C   0  0  0  0  0  0  0  0  0  0  0  0
    7.9716  -13.5003   18.2826 C   0  0  0  0  0  0  0  0  0  0  0  0
    6.8462  -12.8625   17.7928 C   0  0  0  0  0  0  0  0  0  0  0  0
    6.8126  -12.9264   16.4497 N   0  0  0  0  0  0  0  0  0  0  0  0
    7.9243  -13.6090   16.0896 C   0  0  0  0  0  0  0  0  0  0  0  0
    8.6239  -13.9563   17.1825 N   0  0  0  0  0  0  0  0  0  0  0  0
    9.2436  -15.2965   21.3557 C   0  0  0  0  0  0  0  0  0  0  0  0
    8.6638  -14.8608   22.3812 O   0  0  0  0  0  0  0  0  0  0  0  0
    9.9594  -18.2058   23.1685 O   0  0  0  0  0  0  0  0  0  0  0  0
   10.1523  -16.9582   23.7116 C   0  0  0  0  0  0  0  0  0  0  0  0
   11.0943  -16.0956   22.8625 C   0  0  2  0  0  0  0  0  0  0  0  0
   10.4995  -15.9385   21.5529 N   0  0  0  0  0  0  0  0  0  0  0  0
   12.4382  -16.7166   22.7862 C   0  0  0  0  0  0  0  0  0  0  0  0
   12.9252  -17.0738   21.6796 O   0  0  0  0  0  0  0  0  0  0  0  0
   13.1892  -16.9146   23.9604 N   0  0  0  0  0  0  0  0  0  0  0  0
   14.6351  -17.1199   23.9764 C   0  0  1  0  0  0  0  0  0  0  0  0
   15.3301  -15.9334   23.3573 C   0  0  0  0  0  0  0  0  0  0  0  0
   16.3084  -16.3905   22.3403 C   0  0  0  0  0  0  0  0  0  0  0  0
   16.5296  -17.5639   22.0163 O   0  0  0  0  0  0  0  0  0  0  0  0
   15.1272  -17.2612   25.3799 C   0  0  0  0  0  0  0  0  0  0  0  0
   14.5454  -16.6654   26.4663 O   0  0  0  0  0  0  0  0  0  0  0  0
   17.0545  -15.3986   21.6824 O   0  0  0  0  0  0  0  0  0  0  0  0
   16.1446  -17.9794   25.5530 O   0  0  0  0  0  0  0  0  0  0  0  0
  2  1  1  1
  3  2  1  0
  4  3  1  0
  5  4  2  0
  6  7  1  0
  6  5  1  0
  7  8  2  0
  8  4  1  0
  9 10  2  0
  9  2  1  0
 11 12  1  0
 13 12  1  1
 13 14  1  0
 14  9  1  0
 15 13  1  0
 15 17  1  0
 16 15  2  0
 18 17  1  0
 18 22  1  0
 18 19  1  1
 19 20  1  0
 20 21  2  0
 22 25  2  0
 22 23  1  0
 24 20  1  0
M  END
$$$$
