HSD.pdb
     RDKit          3D

 25 25  0  0  1  0  0  0  0  0999 V2000
   11.5057  -13.7439   19.1864 N   0  0  0  0  0  0  0  0  0  0  0  0
   10.1968  -14.0242   19.7461 C   0  0  1  0  0  0  0  0  0  0  0  0
    9.6400  -15.2170   18.9589 C   0  0  0  0  0  0  0  0  0  0  0  0
    9.1729  -14.7715   17.6208 C   0  0  0  0  0  0  0  0  0  0  0  0
    8.5713  -15.5283   16.6315 C   0  0  0  0  0  0  0  0  0  0  0  0
    8.2916  -14.7678   15.5579 N   0  0  0  0  0  0  0  0  0  0  0  0
    8.7194  -13.5229   15.8719 C   0  0  0  0  0  0  0  0  0  0  0  0
    9.2487  -13.5171   17.1065 N   0  0  0  0  0  0  0  0  0  0  0  0
   10.3702  -14.3808   21.1760 C   0  0  0  0  0  0  0  0  0  0  0  0
   11.4927  -14.7177   21.6276 O   0  0  0  0  0  0  0  0  0  0  0  0
    7.1115  -15.1614   23.8699 O   0  0  0  0  0  0  0  0  0  0  0  0
    8.1516  -14.3380   24.2290 C   0  0  0  0  0  0  0  0  0  0  0  0
    9.4522  -14.6944   23.4983 C   0  0  2  0  0  0  0  0  0  0  0  0
    9.2868  -14.3600   22.1003 N   0  0  0  0  0  0  0  0  0  0  0  0
    9.7763  -16.1286   23.6870 C   0  0  0  0  0  0  0  0  0  0  0  0
    9.4761  -16.9819   22.8088 O   0  0  0  0  0  0  0  0  0  0  0  0
   10.4286  -16.5539   24.8599 N   0  0  0  0  0  0  0  0  0  0  0  0
   10.7258  -17.9510   25.1645 C   0  0  1  0  0  0  0  0  0  0  0  0
   12.1504  -18.2684   24.7850 C   0  0  0  0  0  0  0  0  0  0  0  0
   12.4461  -19.6945   25.0663 C   0  0  0  0  0  0  0  0  0  0  0  0
   12.9905  -20.1398   26.0842 O   0  0  0  0  0  0  0  0  0  0  0  0
   10.5698  -18.2114   26.6272 C   0  0  0  0  0  0  0  0  0  0  0  0
   11.0243  -17.3778   27.6133 O   0  0  0  0  0  0  0  0  0  0  0  0
   12.0733  -20.6284   24.0853 O   0  0  0  0  0  0  0  0  0  0  0  0
    9.9789  -19.2723   26.9531 O   0  0  0  0  0  0  0  0  0  0  0  0
  2  1  1  6
  3  2  1  0
  4  3  1  0
  5  4  2  0
  6  7  1  0
  6  5  1  0
  7  8  2  0
  8  4  1  0
  9 10  2  0
  9  2  1  0
 11 12  1  0
 13 12  1  1
 13 14  1  0
 14  9  1  0
 15 13  1  0
 15 17  1  0
 16 15  2  0
 18 17  1  0
 18 22  1  0
 18 19  1  1
 19 20  1  0
 20 21  2  0
 22 25  2  0
 22 23  1  0
 24 20  1  0
M  END
$$$$
