HSD.pdb
     RDKit          3D

 25 25  0  0  1  0  0  0  0  0999 V2000
    8.3027  -16.6873   10.7289 N   0  0  0  0  0  0  0  0  0  0  0  0
    7.7025  -17.9006   11.2511 C   0  0  1  0  0  0  0  0  0  0  0  0
    8.1335  -19.0322   10.3097 C   0  0  0  0  0  0  0  0  0  0  0  0
    7.4669  -18.8799    8.9908 C   0  0  0  0  0  0  0  0  0  0  0  0
    6.1164  -18.9616    8.7026 C   0  0  0  0  0  0  0  0  0  0  0  0
    5.8999  -18.7673    7.3895 N   0  0  0  0  0  0  0  0  0  0  0  0
    7.1218  -18.5616    6.8452 C   0  0  0  0  0  0  0  0  0  0  0  0
    8.0659  -18.6275    7.7986 N   0  0  0  0  0  0  0  0  0  0  0  0
    8.2341  -18.1305   12.6173 C   0  0  0  0  0  0  0  0  0  0  0  0
    9.4346  -17.8860   12.8944 O   0  0  0  0  0  0  0  0  0  0  0  0
    5.9802  -20.0579   15.8042 O   0  0  0  0  0  0  0  0  0  0  0  0
    6.7737  -18.9490   15.9756 C   0  0  0  0  0  0  0  0  0  0  0  0
    7.9487  -18.9189   14.9903 C   0  0  2  0  0  0  0  0  0  0  0  0
    7.4218  -18.6342   13.6732 N   0  0  0  0  0  0  0  0  0  0  0  0
    8.6854  -20.2048   15.0227 C   0  0  0  0  0  0  0  0  0  0  0  0
    8.7504  -20.9404   14.0008 O   0  0  0  0  0  0  0  0  0  0  0  0
    9.3247  -20.6196   16.2064 N   0  0  0  0  0  0  0  0  0  0  0  0
   10.5784  -21.3684   16.2345 C   0  0  1  0  0  0  0  0  0  0  0  0
   11.6849  -20.5419   15.6290 C   0  0  0  0  0  0  0  0  0  0  0  0
   12.9293  -21.3444   15.5406 C   0  0  0  0  0  0  0  0  0  0  0  0
   13.0910  -22.3678   14.8644 O   0  0  0  0  0  0  0  0  0  0  0  0
   10.9622  -21.6919   17.6415 C   0  0  0  0  0  0  0  0  0  0  0  0
   11.4962  -22.8873   18.0414 O   0  0  0  0  0  0  0  0  0  0  0  0
   14.0283  -20.9018   16.2953 O   0  0  0  0  0  0  0  0  0  0  0  0
   10.7742  -20.7929   18.5002 O   0  0  0  0  0  0  0  0  0  0  0  0
  2  1  1  6
  3  2  1  0
  4  3  1  0
  5  4  2  0
  6  7  1  0
  6  5  1  0
  7  8  2  0
  8  4  1  0
  9 10  2  0
  9  2  1  0
 11 12  1  0
 13 12  1  1
 13 14  1  0
 14  9  1  0
 15 13  1  0
 15 17  1  0
 16 15  2  0
 18 17  1  0
 18 22  1  0
 18 19  1  1
 19 20  1  0
 20 21  2  0
 22 25  2  0
 22 23  1  0
 24 20  1  0
M  END
$$$$
