HSD.pdb
     RDKit          3D

 25 25  0  0  1  0  0  0  0  0999 V2000
   10.2918  -22.1988   18.6785 N   0  0  0  0  0  0  0  0  0  0  0  0
   10.0823  -23.0622   19.8255 C   0  0  1  0  0  0  0  0  0  0  0  0
   11.1958  -24.1160   19.7784 C   0  0  0  0  0  0  0  0  0  0  0  0
   11.0164  -24.9947   18.5941 C   0  0  0  0  0  0  0  0  0  0  0  0
   10.2490  -26.1409   18.4903 C   0  0  0  0  0  0  0  0  0  0  0  0
   10.3406  -26.6617   17.2536 N   0  0  0  0  0  0  0  0  0  0  0  0
   11.1714  -25.8387   16.5724 C   0  0  0  0  0  0  0  0  0  0  0  0
   11.5805  -24.8374   17.3689 N   0  0  0  0  0  0  0  0  0  0  0  0
   10.1984  -22.2382   21.0541 C   0  0  0  0  0  0  0  0  0  0  0  0
   11.0107  -21.2822   21.1180 O   0  0  0  0  0  0  0  0  0  0  0  0
    7.5429  -22.7218   24.3798 O   0  0  0  0  0  0  0  0  0  0  0  0
    8.0353  -21.5149   23.9444 C   0  0  0  0  0  0  0  0  0  0  0  0
    9.4575  -21.6374   23.3831 C   0  0  2  0  0  0  0  0  0  0  0  0
    9.4052  -22.4843   22.2111 N   0  0  0  0  0  0  0  0  0  0  0  0
   10.3763  -22.1783   24.4130 C   0  0  0  0  0  0  0  0  0  0  0  0
   10.8884  -23.3236   24.2875 O   0  0  0  0  0  0  0  0  0  0  0  0
   10.6879  -21.4102   25.5509 N   0  0  0  0  0  0  0  0  0  0  0  0
   11.8454  -21.6566   26.4069 C   0  0  1  0  0  0  0  0  0  0  0  0
   13.1135  -21.5654   25.5960 C   0  0  0  0  0  0  0  0  0  0  0  0
   14.2885  -21.8498   26.4555 C   0  0  0  0  0  0  0  0  0  0  0  0
   14.3852  -22.7685   27.2785 O   0  0  0  0  0  0  0  0  0  0  0  0
   11.9188  -20.6339   27.4933 C   0  0  0  0  0  0  0  0  0  0  0  0
   11.1072  -19.5347   27.5760 O   0  0  0  0  0  0  0  0  0  0  0  0
   15.3964  -20.9962   26.3235 O   0  0  0  0  0  0  0  0  0  0  0  0
   12.7909  -20.8133   28.3811 O   0  0  0  0  0  0  0  0  0  0  0  0
  2  1  1  6
  3  2  1  0
  4  3  1  0
  5  4  2  0
  6  7  1  0
  6  5  1  0
  7  8  2  0
  8  4  1  0
  9 10  2  0
  9  2  1  0
 11 12  1  0
 13 12  1  1
 13 14  1  0
 14  9  1  0
 15 13  1  0
 15 17  1  0
 16 15  2  0
 18 17  1  0
 18 22  1  0
 18 19  1  6
 19 20  1  0
 20 21  2  0
 22 25  2  0
 22 23  1  0
 24 20  1  0
M  END
$$$$
