HSD.pdb
     RDKit          3D

 25 25  0  0  1  0  0  0  0  0999 V2000
    6.5201  -13.6697   19.4673 N   0  0  0  0  0  0  0  0  0  0  0  0
    7.8155  -14.3035   19.6259 C   0  0  1  0  0  0  0  0  0  0  0  0
    8.7934  -13.5051   18.7548 C   0  0  0  0  0  0  0  0  0  0  0  0
    8.5491  -13.7937   17.3181 C   0  0  0  0  0  0  0  0  0  0  0  0
    7.9938  -12.9613   16.3630 C   0  0  0  0  0  0  0  0  0  0  0  0
    7.9368  -13.5809   15.1706 N   0  0  0  0  0  0  0  0  0  0  0  0
    8.4597  -14.8124   15.3745 C   0  0  0  0  0  0  0  0  0  0  0  0
    8.8289  -14.9474   16.6590 N   0  0  0  0  0  0  0  0  0  0  0  0
    8.2029  -14.2164   21.0556 C   0  0  0  0  0  0  0  0  0  0  0  0
    7.9071  -13.2098   21.7462 O   0  0  0  0  0  0  0  0  0  0  0  0
    7.2196  -16.4295   23.8366 O   0  0  0  0  0  0  0  0  0  0  0  0
    7.8548  -15.2114   23.8756 C   0  0  0  0  0  0  0  0  0  0  0  0
    9.1964  -15.2330   23.1326 C   0  0  2  0  0  0  0  0  0  0  0  0
    8.9215  -15.2561   21.7122 N   0  0  0  0  0  0  0  0  0  0  0  0
   10.0048  -16.4011   23.5562 C   0  0  0  0  0  0  0  0  0  0  0  0
    9.7371  -17.5602   23.1389 O   0  0  0  0  0  0  0  0  0  0  0  0
   11.0889  -16.2241   24.4367 N   0  0  0  0  0  0  0  0  0  0  0  0
   11.9773  -17.3031   24.8606 C   0  0  1  0  0  0  0  0  0  0  0  0
   13.3960  -16.7985   24.9442 C   0  0  0  0  0  0  0  0  0  0  0  0
   13.9611  -16.6414   23.5818 C   0  0  0  0  0  0  0  0  0  0  0  0
   13.8451  -17.4432   22.6468 O   0  0  0  0  0  0  0  0  0  0  0  0
   11.5853  -17.8017   26.2132 C   0  0  0  0  0  0  0  0  0  0  0  0
   10.6177  -17.2320   26.9961 O   0  0  0  0  0  0  0  0  0  0  0  0
   14.6976  -15.4724   23.3281 O   0  0  0  0  0  0  0  0  0  0  0  0
   12.1969  -18.8129   26.6425 O   0  0  0  0  0  0  0  0  0  0  0  0
  2  1  1  1
  3  2  1  0
  4  3  1  0
  5  4  2  0
  6  7  1  0
  6  5  1  0
  7  8  2  0
  8  4  1  0
  9 10  2  0
  9  2  1  0
 11 12  1  0
 13 12  1  1
 13 14  1  0
 14  9  1  0
 15 13  1  0
 15 17  1  0
 16 15  2  0
 18 17  1  0
 18 22  1  0
 18 19  1  1
 19 20  1  0
 20 21  2  0
 22 25  2  0
 22 23  1  0
 24 20  1  0
M  END
$$$$
