HSD.pdb
     RDKit          3D

 25 25  0  0  1  0  0  0  0  0999 V2000
   11.8704  -13.1601   19.1155 N   0  0  0  0  0  0  0  0  0  0  0  0
   10.6450  -13.8417   19.4882 C   0  0  1  0  0  0  0  0  0  0  0  0
   10.6103  -15.1393   18.6712 C   0  0  0  0  0  0  0  0  0  0  0  0
    9.8935  -14.9157   17.3893 C   0  0  0  0  0  0  0  0  0  0  0  0
    9.4166  -13.7235   16.8750 C   0  0  0  0  0  0  0  0  0  0  0  0
    8.8218  -13.9252   15.6856 N   0  0  0  0  0  0  0  0  0  0  0  0
    8.9241  -15.2535   15.4477 C   0  0  0  0  0  0  0  0  0  0  0  0
    9.5651  -15.8539   16.4641 N   0  0  0  0  0  0  0  0  0  0  0  0
   10.7047  -14.1432   20.9399 C   0  0  0  0  0  0  0  0  0  0  0  0
   11.7885  -14.4572   21.4917 O   0  0  0  0  0  0  0  0  0  0  0  0
    8.0679  -14.7931   25.0262 O   0  0  0  0  0  0  0  0  0  0  0  0
    8.1529  -14.3774   23.7191 C   0  0  0  0  0  0  0  0  0  0  0  0
    9.5692  -14.5344   23.1516 C   0  0  2  0  0  0  0  0  0  0  0  0
    9.5512  -14.0930   21.7738 N   0  0  0  0  0  0  0  0  0  0  0  0
   10.0235  -15.9402   23.2737 C   0  0  0  0  0  0  0  0  0  0  0  0
    9.6337  -16.8204   22.4597 O   0  0  0  0  0  0  0  0  0  0  0  0
   10.9029  -16.3076   24.3100 N   0  0  0  0  0  0  0  0  0  0  0  0
   11.3088  -17.6838   24.5828 C   0  0  1  0  0  0  0  0  0  0  0  0
   12.8104  -17.8015   24.5088 C   0  0  0  0  0  0  0  0  0  0  0  0
   13.2009  -18.5832   23.3101 C   0  0  0  0  0  0  0  0  0  0  0  0
   12.4350  -19.0179   22.4412 O   0  0  0  0  0  0  0  0  0  0  0  0
   10.8819  -18.0921   25.9550 C   0  0  0  0  0  0  0  0  0  0  0  0
   10.9398  -19.3736   26.4329 O   0  0  0  0  0  0  0  0  0  0  0  0
   14.5689  -18.8563   23.1450 O   0  0  0  0  0  0  0  0  0  0  0  0
   10.4432  -17.1832   26.7049 O   0  0  0  0  0  0  0  0  0  0  0  0
  2  1  1  6
  3  2  1  0
  4  3  1  0
  5  4  2  0
  6  7  1  0
  6  5  1  0
  7  8  2  0
  8  4  1  0
  9 10  2  0
  9  2  1  0
 11 12  1  0
 13 12  1  6
 13 14  1  0
 14  9  1  0
 15 13  1  0
 15 17  1  0
 16 15  2  0
 18 17  1  0
 18 22  1  0
 18 19  1  1
 19 20  1  0
 20 21  2  0
 22 25  2  0
 22 23  1  0
 24 20  1  0
M  END
$$$$
