HSD.pdb
     RDKit          3D

 25 25  0  0  1  0  0  0  0  0999 V2000
   10.2409  -15.7025   17.9375 N   0  0  0  0  0  0  0  0  0  0  0  0
   11.1070  -14.6191   18.3630 C   0  0  1  0  0  0  0  0  0  0  0  0
   10.5037  -14.0726   19.6629 C   0  0  0  0  0  0  0  0  0  0  0  0
    9.1455  -13.5284   19.4054 C   0  0  0  0  0  0  0  0  0  0  0  0
    8.7626  -12.2032   19.3026 C   0  0  0  0  0  0  0  0  0  0  0  0
    7.4424  -12.1091   19.0635 N   0  0  0  0  0  0  0  0  0  0  0  0
    6.9891  -13.3833   19.0150 C   0  0  0  0  0  0  0  0  0  0  0  0
    8.0039  -14.2396   19.2190 N   0  0  0  0  0  0  0  0  0  0  0  0
   12.4594  -15.1766   18.6120 C   0  0  0  0  0  0  0  0  0  0  0  0
   12.6137  -16.2219   19.2912 O   0  0  0  0  0  0  0  0  0  0  0  0
   16.1884  -13.2086   17.4822 O   0  0  0  0  0  0  0  0  0  0  0  0
   15.9042  -14.5364   17.2704 C   0  0  0  0  0  0  0  0  0  0  0  0
   14.9602  -15.1047   18.3374 C   0  0  2  0  0  0  0  0  0  0  0  0
   13.6392  -14.5640   18.1007 N   0  0  0  0  0  0  0  0  0  0  0  0
   15.4548  -14.7755   19.6954 C   0  0  0  0  0  0  0  0  0  0  0  0
   15.0445  -13.7504   20.3039 O   0  0  0  0  0  0  0  0  0  0  0  0
   16.3963  -15.6130   20.3234 N   0  0  0  0  0  0  0  0  0  0  0  0
   16.9314  -15.3759   21.6615 C   0  0  1  0  0  0  0  0  0  0  0  0
   16.6527  -16.5657   22.5452 C   0  0  0  0  0  0  0  0  0  0  0  0
   17.0816  -16.2780   23.9357 C   0  0  0  0  0  0  0  0  0  0  0  0
   17.5632  -15.2146   24.3456 O   0  0  0  0  0  0  0  0  0  0  0  0
   18.4114  -15.1806   21.6052 C   0  0  0  0  0  0  0  0  0  0  0  0
   19.1240  -14.4158   22.4890 O   0  0  0  0  0  0  0  0  0  0  0  0
   16.9271  -17.3095   24.8768 O   0  0  0  0  0  0  0  0  0  0  0  0
   19.0244  -15.7662   20.6767 O   0  0  0  0  0  0  0  0  0  0  0  0
  2  1  1  1
  3  2  1  0
  4  3  1  0
  5  4  2  0
  6  7  1  0
  6  5  1  0
  7  8  2  0
  8  4  1  0
  9 10  2  0
  9  2  1  0
 11 12  1  0
 13 12  1  6
 13 14  1  0
 14  9  1  0
 15 13  1  0
 15 17  1  0
 16 15  2  0
 18 17  1  0
 18 22  1  0
 18 19  1  1
 19 20  1  0
 20 21  2  0
 22 25  2  0
 22 23  1  0
 24 20  1  0
M  END
$$$$
