MRA.pdb
     RDKit          3D

 25 24  0  0  1  0  0  0  0  0999 V2000
    6.6276  -12.5737   26.9007 C   0  0  0  0  0  0  0  0  0  0  0  0
    7.6732  -11.9300   25.5576 S   0  0  0  0  0  0  0  0  0  0  0  0
    8.1043  -13.2351   24.4118 C   0  0  0  0  0  0  0  0  0  0  0  0
    7.0222  -13.4598   23.4119 C   0  0  0  0  0  0  0  0  0  0  0  0
    7.4720  -14.0938   22.1214 C   0  0  2  0  0  0  0  0  0  0  0  0
    6.4131  -14.3198   21.1946 N   0  0  0  0  0  0  0  0  0  0  0  0
    8.2275  -15.3324   22.4527 C   0  0  0  0  0  0  0  0  0  0  0  0
    7.5749  -16.3749   22.6894 O   0  0  0  0  0  0  0  0  0  0  0  0
   12.4314  -19.9246   19.1275 N   0  0  0  0  0  0  0  0  0  0  0  0
   13.4830  -20.2975   20.0121 C   0  0  0  0  0  0  0  0  0  0  0  0
   13.8954  -21.5301   20.0429 N   0  0  0  0  0  0  0  0  0  0  0  0
   14.0599  -19.3172   20.8405 N   0  0  0  0  0  0  0  0  0  0  0  0
   13.5141  -17.9195   20.6839 C   0  0  0  0  0  0  0  0  0  0  0  0
   12.3576  -17.8531   21.6014 C   0  0  0  0  0  0  0  0  0  0  0  0
   11.5468  -16.6545   21.7969 C   0  0  0  0  0  0  0  0  0  0  0  0
   10.3537  -16.7137   22.6503 C   0  0  2  0  0  0  0  0  0  0  0  0
    9.6333  -15.3929   22.5139 N   0  0  0  0  0  0  0  0  0  0  0  0
   10.7123  -16.7359   24.0901 C   0  0  0  0  0  0  0  0  0  0  0  0
   11.3356  -15.8831   24.7328 O   0  0  0  0  0  0  0  0  0  0  0  0
   14.6149  -21.8098   20.7366 C   0  0  0  0  0  0  0  0  0  0  0  0
    9.3863  -18.3342   27.0574 C   0  0  1  0  0  0  0  0  0  0  0  0
   10.6560  -17.9589   26.3004 N   0  0  0  0  0  0  0  0  0  0  0  0
   10.3058  -17.8734   24.8851 C   0  0  0  0  0  0  0  0  0  0  0  0
   11.6180  -19.0556   26.4719 O   0  0  0  0  0  0  0  0  0  0  0  0
   12.2101  -19.2684   27.7183 O   0  0  0  0  0  0  0  0  0  0  0  0
  1  2  1  0
  2  3  1  0
  4  3  1  0
  5  4  1  0
  5  6  1  6
  7 17  1  0
  7  5  1  0
  8  7  2  0
  9 10  1  0
 10 12  1  0
 10 11  2  0
 12 13  1  0
 14 15  1  0
 14 13  1  0
 16 15  1  6
 16 17  1  0
 18 22  1  0
 18 16  1  0
 19 18  2  0
 21 20  1  1
 21 23  1  0
 21 22  1  0
 23 24  1  0
 25 23  2  0
M  END
$$$$
