MRA.pdb
     RDKit          3D

 25 24  0  0  1  0  0  0  0  0999 V2000
    7.2683  -11.5393   19.6702 C   0  0  0  0  0  0  0  0  0  0  0  0
    7.5656  -12.8863   18.4833 S   0  0  0  0  0  0  0  0  0  0  0  0
    8.3051  -14.2963   19.3001 C   0  0  0  0  0  0  0  0  0  0  0  0
    8.3046  -14.1283   20.7810 C   0  0  0  0  0  0  0  0  0  0  0  0
    8.9510  -15.2527   21.5476 C   0  0  2  0  0  0  0  0  0  0  0  0
    8.7608  -16.5344   20.9540 N   0  0  0  0  0  0  0  0  0  0  0  0
    8.4726  -15.1883   22.9553 C   0  0  0  0  0  0  0  0  0  0  0  0
    8.5196  -14.0836   23.5435 O   0  0  0  0  0  0  0  0  0  0  0  0
    9.5050  -21.1707   24.6733 N   0  0  0  0  0  0  0  0  0  0  0  0
    9.2496  -21.1661   26.0741 C   0  0  0  0  0  0  0  0  0  0  0  0
   10.1315  -21.6569   26.8937 N   0  0  0  0  0  0  0  0  0  0  0  0
    8.0395  -20.6255   26.5470 N   0  0  0  0  0  0  0  0  0  0  0  0
    7.1197  -20.0538   25.4968 C   0  0  0  0  0  0  0  0  0  0  0  0
    7.6585  -18.7092   25.2043 C   0  0  0  0  0  0  0  0  0  0  0  0
    6.9386  -17.4699   25.4841 C   0  0  0  0  0  0  0  0  0  0  0  0
    7.5281  -16.1823   25.0972 C   0  0  2  0  0  0  0  0  0  0  0  0
    7.9716  -16.3014   23.6581 N   0  0  0  0  0  0  0  0  0  0  0  0
    8.8070  -15.9315   25.8069 C   0  0  0  0  0  0  0  0  0  0  0  0
    9.9178  -16.4202   25.5700 O   0  0  0  0  0  0  0  0  0  0  0  0
    9.9247  -21.6812   27.9104 C   0  0  0  0  0  0  0  0  0  0  0  0
    9.8583  -13.4098   28.3757 C   0  0  1  0  0  0  0  0  0  0  0  0
   10.0318  -14.7546   27.6774 N   0  0  0  0  0  0  0  0  0  0  0  0
    8.8088  -15.0094   26.9209 C   0  0  0  0  0  0  0  0  0  0  0  0
   10.1538  -15.7846   28.7175 O   0  0  0  0  0  0  0  0  0  0  0  0
   11.3066  -15.8421   29.5030 O   0  0  0  0  0  0  0  0  0  0  0  0
  1  2  1  0
  2  3  1  0
  4  3  1  0
  5  4  1  0
  5  6  1  6
  7 17  1  0
  7  5  1  0
  8  7  2  0
  9 10  1  0
 10 12  1  0
 10 11  2  0
 12 13  1  0
 14 15  1  0
 14 13  1  0
 16 15  1  1
 16 17  1  0
 18 22  1  0
 18 16  1  0
 19 18  2  0
 21 20  1  6
 21 23  1  0
 21 22  1  0
 23 24  1  0
 25 23  2  0
M  END
$$$$
