MRA.pdb
     RDKit          3D

 25 24  0  0  1  0  0  0  0  0999 V2000
    6.0894  -11.3139   26.8675 C   0  0  0  0  0  0  0  0  0  0  0  0
    6.1905  -13.1283   26.7725 S   0  0  0  0  0  0  0  0  0  0  0  0
    7.8438  -13.6903   27.1634 C   0  0  0  0  0  0  0  0  0  0  0  0
    7.9241  -15.1784   27.1716 C   0  0  0  0  0  0  0  0  0  0  0  0
    6.9087  -15.8738   26.3026 C   0  0  2  0  0  0  0  0  0  0  0  0
    6.3063  -17.0079   26.9207 N   0  0  0  0  0  0  0  0  0  0  0  0
    7.5563  -16.1972   25.0022 C   0  0  0  0  0  0  0  0  0  0  0  0
    8.1796  -17.2794   24.9076 O   0  0  0  0  0  0  0  0  0  0  0  0
    7.7387  -12.5606   16.7195 N   0  0  0  0  0  0  0  0  0  0  0  0
    8.0083  -13.9568   16.6448 C   0  0  0  0  0  0  0  0  0  0  0  0
    8.1064  -14.5352   15.4846 N   0  0  0  0  0  0  0  0  0  0  0  0
    8.1655  -14.6878   17.8369 N   0  0  0  0  0  0  0  0  0  0  0  0
    7.9030  -13.9283   19.1137 C   0  0  0  0  0  0  0  0  0  0  0  0
    8.2620  -14.8646   20.1990 C   0  0  0  0  0  0  0  0  0  0  0  0
    7.7553  -14.7545   21.5641 C   0  0  0  0  0  0  0  0  0  0  0  0
    8.1388  -15.7565   22.5662 C   0  0  2  0  0  0  0  0  0  0  0  0
    7.5048  -15.3524   23.8764 N   0  0  0  0  0  0  0  0  0  0  0  0
    9.5881  -15.6908   22.8778 C   0  0  0  0  0  0  0  0  0  0  0  0
   10.2169  -14.7529   23.3817 O   0  0  0  0  0  0  0  0  0  0  0  0
    8.3035  -15.5530   15.4373 C   0  0  0  0  0  0  0  0  0  0  0  0
   12.2882  -18.3153   22.8564 C   0  0  1  0  0  0  0  0  0  0  0  0
   11.8243  -16.8652   22.9455 N   0  0  0  0  0  0  0  0  0  0  0  0
   10.4121  -16.8398   22.5741 C   0  0  0  0  0  0  0  0  0  0  0  0
   12.5775  -16.0939   21.9477 O   0  0  0  0  0  0  0  0  0  0  0  0
   13.9165  -15.7770   22.1844 O   0  0  0  0  0  0  0  0  0  0  0  0
  1  2  1  0
  2  3  1  0
  4  3  1  0
  5  4  1  0
  5  6  1  1
  7 17  1  0
  7  5  1  0
  8  7  2  0
  9 10  1  0
 10 12  1  0
 10 11  2  0
 12 13  1  0
 14 15  1  0
 14 13  1  0
 16 15  1  6
 16 17  1  0
 18 22  1  0
 18 16  1  0
 19 18  2  0
 21 20  1  1
 21 23  1  0
 21 22  1  0
 23 24  1  0
 25 23  2  0
M  END
$$$$
