MRA.pdb
     RDKit          3D

 25 24  0  0  1  0  0  0  0  0999 V2000
    7.6868  -11.1343   26.8624 C   0  0  0  0  0  0  0  0  0  0  0  0
    6.0560  -11.1221   26.0552 S   0  0  0  0  0  0  0  0  0  0  0  0
    5.5245  -12.7889   25.6794 C   0  0  0  0  0  0  0  0  0  0  0  0
    6.6870  -13.6833   25.4148 C   0  0  0  0  0  0  0  0  0  0  0  0
    6.3284  -15.0628   24.9267 C   0  0  2  0  0  0  0  0  0  0  0  0
    5.4934  -15.7891   25.8247 N   0  0  0  0  0  0  0  0  0  0  0  0
    7.5903  -15.7804   24.5989 C   0  0  0  0  0  0  0  0  0  0  0  0
    7.9147  -16.7575   25.3120 O   0  0  0  0  0  0  0  0  0  0  0  0
    8.5085  -12.5479   19.0410 N   0  0  0  0  0  0  0  0  0  0  0  0
    8.2479  -13.6476   18.1747 C   0  0  0  0  0  0  0  0  0  0  0  0
    7.5116  -13.4770   17.1169 N   0  0  0  0  0  0  0  0  0  0  0  0
    8.7974  -14.9059   18.4825 N   0  0  0  0  0  0  0  0  0  0  0  0
    9.9466  -14.9006   19.4599 C   0  0  0  0  0  0  0  0  0  0  0  0
    9.4119  -15.5296   20.6856 C   0  0  0  0  0  0  0  0  0  0  0  0
   10.1861  -15.7003   21.9119 C   0  0  0  0  0  0  0  0  0  0  0  0
    9.5619  -16.3219   23.0864 C   0  0  2  0  0  0  0  0  0  0  0  0
    8.4359  -15.4188   23.5321 N   0  0  0  0  0  0  0  0  0  0  0  0
   10.4694  -16.3055   24.2603 C   0  0  0  0  0  0  0  0  0  0  0  0
   11.2670  -15.4216   24.5940 O   0  0  0  0  0  0  0  0  0  0  0  0
    7.4039  -14.2559   16.4396 C   0  0  0  0  0  0  0  0  0  0  0  0
   10.6563  -17.7062   27.5375 C   0  0  2  0  0  0  0  0  0  0  0  0
   11.4362  -17.5486   26.2363 N   0  0  0  0  0  0  0  0  0  0  0  0
   10.4584  -17.4401   25.1570 C   0  0  0  0  0  0  0  0  0  0  0  0
   12.2148  -18.7772   26.0315 O   0  0  0  0  0  0  0  0  0  0  0  0
   13.2719  -19.0785   26.8924 O   0  0  0  0  0  0  0  0  0  0  0  0
  1  2  1  0
  2  3  1  0
  4  3  1  0
  5  4  1  0
  5  6  1  1
  7 17  1  0
  7  5  1  0
  8  7  2  0
  9 10  1  0
 10 12  1  0
 10 11  2  0
 12 13  1  0
 14 15  1  0
 14 13  1  0
 16 15  1  6
 16 17  1  0
 18 22  1  0
 18 16  1  0
 19 18  2  0
 21 20  1  1
 21 23  1  0
 21 22  1  0
 23 24  1  0
 25 23  2  0
M  END
$$$$
