MRA.pdb
     RDKit          3D

 25 24  0  0  1  0  0  0  0  0999 V2000
    7.5875  -11.2916   20.0312 C   0  0  0  0  0  0  0  0  0  0  0  0
    7.2205  -12.7627   19.0249 S   0  0  0  0  0  0  0  0  0  0  0  0
    8.0830  -14.1952   19.6621 C   0  0  0  0  0  0  0  0  0  0  0  0
    7.8308  -14.3775   21.1196 C   0  0  0  0  0  0  0  0  0  0  0  0
    8.7235  -15.3842   21.7973 C   0  0  2  0  0  0  0  0  0  0  0  0
    8.7619  -16.6490   21.1415 N   0  0  0  0  0  0  0  0  0  0  0  0
    8.3111  -15.4825   23.2239 C   0  0  0  0  0  0  0  0  0  0  0  0
    7.9458  -14.4349   23.8050 O   0  0  0  0  0  0  0  0  0  0  0  0
    5.3268  -21.9122   21.8751 N   0  0  0  0  0  0  0  0  0  0  0  0
    6.1271  -21.5519   22.9964 C   0  0  0  0  0  0  0  0  0  0  0  0
    7.3719  -21.9233   23.0483 N   0  0  0  0  0  0  0  0  0  0  0  0
    5.5508  -20.7945   24.0329 N   0  0  0  0  0  0  0  0  0  0  0  0
    6.4854  -20.3791   25.1419 C   0  0  0  0  0  0  0  0  0  0  0  0
    6.7575  -18.9470   24.8994 C   0  0  0  0  0  0  0  0  0  0  0  0
    7.6280  -18.1338   25.7440 C   0  0  0  0  0  0  0  0  0  0  0  0
    7.8730  -16.7285   25.3973 C   0  0  2  0  0  0  0  0  0  0  0  0
    8.3103  -16.6883   23.9519 N   0  0  0  0  0  0  0  0  0  0  0  0
    9.0601  -16.1897   26.1062 C   0  0  0  0  0  0  0  0  0  0  0  0
   10.2534  -16.4135   25.8720 O   0  0  0  0  0  0  0  0  0  0  0  0
    7.9624  -21.6175   23.8451 C   0  0  0  0  0  0  0  0  0  0  0  0
    9.4617  -13.4005   28.5746 C   0  0  1  0  0  0  0  0  0  0  0  0
    9.9824  -14.6634   27.8962 N   0  0  0  0  0  0  0  0  0  0  0  0
    8.8502  -15.2865   27.2159 C   0  0  0  0  0  0  0  0  0  0  0  0
   10.4468  -15.5761   28.9492 O   0  0  0  0  0  0  0  0  0  0  0  0
   11.6054  -15.2727   29.6669 O   0  0  0  0  0  0  0  0  0  0  0  0
  1  2  1  0
  2  3  1  0
  4  3  1  0
  5  4  1  0
  5  6  1  6
  7 17  1  0
  7  5  1  0
  8  7  2  0
  9 10  1  0
 10 12  1  0
 10 11  2  0
 12 13  1  0
 14 15  1  0
 14 13  1  0
 16 15  1  1
 16 17  1  0
 18 22  1  0
 18 16  1  0
 19 18  2  0
 21 20  1  6
 21 23  1  0
 21 22  1  0
 23 24  1  0
 25 23  2  0
M  END
$$$$
