MRA.pdb
     RDKit          3D

 25 24  0  0  1  0  0  0  0  0999 V2000
    8.3664  -11.9017   26.6425 C   0  0  0  0  0  0  0  0  0  0  0  0
    6.9182  -12.2565   27.6857 S   0  0  0  0  0  0  0  0  0  0  0  0
    6.2720  -13.8881   27.3358 C   0  0  0  0  0  0  0  0  0  0  0  0
    7.0732  -14.5758   26.2841 C   0  0  0  0  0  0  0  0  0  0  0  0
    6.5854  -15.9520   25.9127 C   0  0  2  0  0  0  0  0  0  0  0  0
    6.5164  -16.8523   27.0154 N   0  0  0  0  0  0  0  0  0  0  0  0
    7.4346  -16.4599   24.8011 C   0  0  0  0  0  0  0  0  0  0  0  0
    8.1277  -17.4822   25.0091 O   0  0  0  0  0  0  0  0  0  0  0  0
    7.9402  -13.6557   16.5763 N   0  0  0  0  0  0  0  0  0  0  0  0
    8.4710  -13.1027   17.7763 C   0  0  0  0  0  0  0  0  0  0  0  0
    8.8116  -11.8486   17.8149 N   0  0  0  0  0  0  0  0  0  0  0  0
    8.6163  -13.9303   18.9051 N   0  0  0  0  0  0  0  0  0  0  0  0
    8.4635  -15.4109   18.6591 C   0  0  0  0  0  0  0  0  0  0  0  0
    8.7459  -16.0484   19.9620 C   0  0  0  0  0  0  0  0  0  0  0  0
    8.0508  -15.7045   21.1993 C   0  0  0  0  0  0  0  0  0  0  0  0
    8.3836  -16.4116   22.4421 C   0  0  2  0  0  0  0  0  0  0  0  0
    7.4992  -15.8528   23.5319 N   0  0  0  0  0  0  0  0  0  0  0  0
    9.7435  -16.0619   22.9223 C   0  0  0  0  0  0  0  0  0  0  0  0
   10.1408  -14.9756   23.3594 O   0  0  0  0  0  0  0  0  0  0  0  0
    9.2927  -11.4766   18.6558 C   0  0  0  0  0  0  0  0  0  0  0  0
   12.7729  -18.1654   23.6611 C   0  0  1  0  0  0  0  0  0  0  0  0
   12.1009  -16.8157   23.4308 N   0  0  0  0  0  0  0  0  0  0  0  0
   10.7679  -17.0824   22.8971 C   0  0  0  0  0  0  0  0  0  0  0  0
   12.8738  -16.1019   22.4057 O   0  0  0  0  0  0  0  0  0  0  0  0
   14.1203  -15.5627   22.7292 O   0  0  0  0  0  0  0  0  0  0  0  0
  1  2  1  0
  2  3  1  0
  4  3  1  0
  5  4  1  0
  5  6  1  1
  7 17  1  0
  7  5  1  0
  8  7  2  0
  9 10  1  0
 10 12  1  0
 10 11  2  0
 12 13  1  0
 14 15  1  0
 14 13  1  0
 16 15  1  6
 16 17  1  0
 18 22  1  0
 18 16  1  0
 19 18  2  0
 21 20  1  1
 21 23  1  0
 21 22  1  0
 23 24  1  0
 25 23  2  0
M  END
$$$$
