MRA.pdb
     RDKit          3D

 25 24  0  0  1  0  0  0  0  0999 V2000
    7.7055  -11.6212   28.2861 C   0  0  0  0  0  0  0  0  0  0  0  0
    6.8828  -10.9183   26.8231 S   0  0  0  0  0  0  0  0  0  0  0  0
    5.8909  -12.1589   25.9991 C   0  0  0  0  0  0  0  0  0  0  0  0
    6.7141  -13.3348   25.5983 C   0  0  0  0  0  0  0  0  0  0  0  0
    5.9473  -14.4516   24.9393 C   0  0  2  0  0  0  0  0  0  0  0  0
    4.9833  -15.0652   25.7911 N   0  0  0  0  0  0  0  0  0  0  0  0
    6.9290  -15.4209   24.3812 C   0  0  0  0  0  0  0  0  0  0  0  0
    7.2856  -16.3800   25.1035 O   0  0  0  0  0  0  0  0  0  0  0  0
    8.2547  -20.3759   17.4824 N   0  0  0  0  0  0  0  0  0  0  0  0
    8.3337  -18.9824   17.7643 C   0  0  0  0  0  0  0  0  0  0  0  0
    7.3402  -18.2029   17.4553 N   0  0  0  0  0  0  0  0  0  0  0  0
    9.4936  -18.4732   18.3772 N   0  0  0  0  0  0  0  0  0  0  0  0
    9.4211  -17.0362   18.8306 C   0  0  0  0  0  0  0  0  0  0  0  0
    9.3175  -17.1023   20.3033 C   0  0  0  0  0  0  0  0  0  0  0  0
    8.4967  -16.1936   21.0989 C   0  0  0  0  0  0  0  0  0  0  0  0
    8.4321  -16.3580   22.5563 C   0  0  2  0  0  0  0  0  0  0  0  0
    7.4761  -15.3160   23.0876 N   0  0  0  0  0  0  0  0  0  0  0  0
    9.7115  -15.9801   23.2061 C   0  0  0  0  0  0  0  0  0  0  0  0
   10.3890  -14.9627   23.0194 O   0  0  0  0  0  0  0  0  0  0  0  0
    7.3949  -17.1921   17.6841 C   0  0  0  0  0  0  0  0  0  0  0  0
   11.6506  -17.3188   26.1110 C   0  0  1  0  0  0  0  0  0  0  0  0
   11.6020  -16.6273   24.7525 N   0  0  0  0  0  0  0  0  0  0  0  0
   10.2791  -16.8784   24.1870 C   0  0  0  0  0  0  0  0  0  0  0  0
   12.6020  -17.2696   23.8893 O   0  0  0  0  0  0  0  0  0  0  0  0
   12.1855  -18.0399   22.8019 O   0  0  0  0  0  0  0  0  0  0  0  0
  1  2  1  0
  2  3  1  0
  4  3  1  0
  5  4  1  0
  5  6  1  1
  7 17  1  0
  7  5  1  0
  8  7  2  0
  9 10  1  0
 10 12  1  0
 10 11  2  0
 12 13  1  0
 14 15  1  0
 14 13  1  0
 16 15  1  6
 16 17  1  0
 18 22  1  0
 18 16  1  0
 19 18  2  0
 21 20  1  1
 21 23  1  0
 21 22  1  0
 23 24  1  0
 25 23  2  0
M  END
$$$$
