MRA.pdb
     RDKit          3D

 25 24  0  0  1  0  0  0  0  0999 V2000
    7.2668  -10.8098   27.5357 C   0  0  0  0  0  0  0  0  0  0  0  0
    6.4694  -11.0511   25.9179 S   0  0  0  0  0  0  0  0  0  0  0  0
    5.2898  -12.3947   25.9890 C   0  0  0  0  0  0  0  0  0  0  0  0
    5.8236  -13.6218   25.3328 C   0  0  0  0  0  0  0  0  0  0  0  0
    7.2611  -13.5312   24.8910 C   0  0  2  0  0  0  0  0  0  0  0  0
    7.4347  -12.8780   23.6363 N   0  0  0  0  0  0  0  0  0  0  0  0
    7.8406  -14.9017   24.9168 C   0  0  0  0  0  0  0  0  0  0  0  0
    7.6611  -15.5979   25.9423 O   0  0  0  0  0  0  0  0  0  0  0  0
   13.6397  -19.3617   20.9576 N   0  0  0  0  0  0  0  0  0  0  0  0
   12.8314  -20.4859   21.2897 C   0  0  0  0  0  0  0  0  0  0  0  0
   13.3857  -21.6456   21.4852 N   0  0  0  0  0  0  0  0  0  0  0  0
   11.4388  -20.3179   21.4018 N   0  0  0  0  0  0  0  0  0  0  0  0
   10.9215  -18.9245   21.1435 C   0  0  0  0  0  0  0  0  0  0  0  0
   10.4122  -18.4552   22.4489 C   0  0  0  0  0  0  0  0  0  0  0  0
    9.7384  -17.1742   22.6421 C   0  0  0  0  0  0  0  0  0  0  0  0
    9.2135  -16.8201   23.9666 C   0  0  2  0  0  0  0  0  0  0  0  0
    8.5780  -15.4545   23.8517 N   0  0  0  0  0  0  0  0  0  0  0  0
   10.3063  -16.5838   24.9422 C   0  0  0  0  0  0  0  0  0  0  0  0
   11.2551  -15.7966   24.8470 O   0  0  0  0  0  0  0  0  0  0  0  0
   12.7857  -22.4770   21.6453 C   0  0  0  0  0  0  0  0  0  0  0  0
   11.0443  -16.3683   28.2436 C   0  0  1  0  0  0  0  0  0  0  0  0
   11.4454  -17.2790   27.0879 N   0  0  0  0  0  0  0  0  0  0  0  0
   10.3085  -17.3426   26.1734 C   0  0  0  0  0  0  0  0  0  0  0  0
   11.6715  -18.6227   27.6367 O   0  0  0  0  0  0  0  0  0  0  0  0
   12.7306  -18.8405   28.5198 O   0  0  0  0  0  0  0  0  0  0  0  0
  1  2  1  0
  2  3  1  0
  4  3  1  0
  5  4  1  0
  5  6  1  6
  7 17  1  0
  7  5  1  0
  8  7  2  0
  9 10  1  0
 10 12  1  0
 10 11  2  0
 12 13  1  0
 14 15  1  0
 14 13  1  0
 16 15  1  6
 16 17  1  0
 18 22  1  0
 18 16  1  0
 19 18  2  0
 21 20  1  6
 21 23  1  0
 21 22  1  0
 23 24  1  0
 25 23  2  0
M  END
$$$$
