HTP.pdb
     RDKit          3D

 25 26  0  0  1  0  0  0  0  0999 V2000
   17.1628  -21.7411  -14.8909 N   0  0  0  0  0  0  0  0  0  0  0  0
   17.3251  -23.0142  -14.2194 C   0  0  1  0  0  0  0  0  0  0  0  0
   18.6253  -23.6424  -14.6721 C   0  0  0  0  0  0  0  0  0  0  0  0
   18.4944  -24.1507  -16.0435 C   0  0  0  0  0  0  0  0  0  0  0  0
   18.6145  -25.4309  -16.5434 C   0  0  0  0  0  0  0  0  0  0  0  0
   18.4084  -25.3944  -17.8605 N   0  0  0  0  0  0  0  0  0  0  0  0
   18.1616  -24.1277  -18.2062 C   0  0  0  0  0  0  0  0  0  0  0  0
   18.2115  -23.3633  -17.1091 N   0  0  0  0  0  0  0  0  0  0  0  0
   17.3463  -22.8319  -12.7294 C   0  0  0  0  0  0  0  0  0  0  0  0
   18.1184  -21.9815  -12.2595 O   0  0  0  0  0  0  0  0  0  0  0  0
   14.8752  -21.7872  -10.6491 C   0  0  0  0  0  0  0  0  0  0  0  0
   15.1343  -23.1795   -9.9904 C   0  0  1  0  0  0  0  0  0  0  0  0
   14.1474  -23.9985  -10.5184 O   0  0  0  0  0  0  0  0  0  0  0  0
   16.4931  -23.5669  -10.4535 C   0  0  2  0  0  0  0  0  0  0  0  0
   16.4993  -23.6217  -11.9123 N   0  0  0  0  0  0  0  0  0  0  0  0
   17.0670  -24.7938   -9.8926 C   0  0  0  0  0  0  0  0  0  0  0  0
   17.0455  -25.8182  -10.6907 O   0  0  0  0  0  0  0  0  0  0  0  0
   17.6213  -24.9522   -8.6114 N   0  0  0  0  0  0  0  0  0  0  0  0
   17.8046  -23.8284   -7.7113 C   0  0  0  0  0  0  0  0  0  0  0  0
   19.0698  -24.2138   -6.9821 C   0  0  0  0  0  0  0  0  0  0  0  0
   18.6681  -25.6503   -6.5965 C   0  0  0  0  0  0  0  0  0  0  0  0
   18.0843  -26.1286   -7.9520 C   0  0  1  0  0  0  0  0  0  0  0  0
   17.0421  -27.1000   -7.5847 C   0  0  0  0  0  0  0  0  0  0  0  0
   17.2780  -28.4268   -7.2893 O   0  0  0  0  0  0  0  0  0  0  0  0
   15.8544  -26.6873   -7.5391 O   0  0  0  0  0  0  0  0  0  0  0  0
  2  1  1  6
  3  4  1  0
  3  2  1  0
  4  8  1  0
  5  6  1  0
  5  4  2  0
  6  7  1  0
  7  8  2  0
  9 10  2  0
  9  2  1  0
 12 11  1  6
 12 14  1  0
 13 12  1  0
 14 15  1  6
 15  9  1  0
 16 17  2  0
 16 14  1  0
 18 19  1  0
 18 16  1  0
 19 20  1  0
 20 21  1  0
 22 18  1  0
 22 21  1  0
 22 23  1  1
 24 23  1  0
 25 23  2  0
M  END
$$$$
