HTP.pdb
     RDKit          3D

 25 26  0  0  1  0  0  0  0  0999 V2000
   19.5211  -15.8861  -16.9312 N   0  0  0  0  0  0  0  0  0  0  0  0
   18.8167  -14.6641  -16.6017 C   0  0  1  0  0  0  0  0  0  0  0  0
   18.1300  -14.8421  -15.2649 C   0  0  0  0  0  0  0  0  0  0  0  0
   17.0039  -15.7758  -15.3916 C   0  0  0  0  0  0  0  0  0  0  0  0
   16.9242  -17.1289  -15.1346 C   0  0  0  0  0  0  0  0  0  0  0  0
   15.6840  -17.5404  -15.4015 N   0  0  0  0  0  0  0  0  0  0  0  0
   14.9787  -16.4856  -15.8197 C   0  0  0  0  0  0  0  0  0  0  0  0
   15.7715  -15.4077  -15.8174 N   0  0  0  0  0  0  0  0  0  0  0  0
   19.7669  -13.5041  -16.5288 C   0  0  0  0  0  0  0  0  0  0  0  0
   20.9152  -13.7197  -16.1104 O   0  0  0  0  0  0  0  0  0  0  0  0
   21.0172  -11.6481  -19.1348 C   0  0  0  0  0  0  0  0  0  0  0  0
   20.2832  -10.5210  -18.3409 C   0  0  1  0  0  0  0  0  0  0  0  0
   19.0376  -10.4310  -18.9442 O   0  0  0  0  0  0  0  0  0  0  0  0
   20.1972  -11.0371  -16.9491 C   0  0  2  0  0  0  0  0  0  0  0  0
   19.3358  -12.2157  -16.9326 N   0  0  0  0  0  0  0  0  0  0  0  0
   19.7883  -10.0895  -15.9078 C   0  0  0  0  0  0  0  0  0  0  0  0
   18.5262  -10.1277  -15.6035 O   0  0  0  0  0  0  0  0  0  0  0  0
   20.6148   -9.1765  -15.2319 N   0  0  0  0  0  0  0  0  0  0  0  0
   22.0618   -9.2340  -15.3305 C   0  0  0  0  0  0  0  0  0  0  0  0
   22.4882   -8.7805  -13.9544 C   0  0  0  0  0  0  0  0  0  0  0  0
   21.6179   -7.5123  -13.8654 C   0  0  0  0  0  0  0  0  0  0  0  0
   20.2714   -8.0856  -14.3803 C   0  0  1  0  0  0  0  0  0  0  0  0
   19.6134   -6.9485  -15.0426 C   0  0  0  0  0  0  0  0  0  0  0  0
   18.9581   -5.9301  -14.3817 O   0  0  0  0  0  0  0  0  0  0  0  0
   19.6530   -6.9069  -16.2995 O   0  0  0  0  0  0  0  0  0  0  0  0
  2  1  1  1
  3  4  1  0
  3  2  1  0
  4  8  1  0
  5  6  1  0
  5  4  2  0
  6  7  1  0
  7  8  2  0
  9 10  2  0
  9  2  1  0
 12 11  1  6
 12 14  1  0
 13 12  1  0
 14 15  1  6
 15  9  1  0
 16 17  2  0
 16 14  1  0
 18 19  1  0
 18 16  1  0
 19 20  1  0
 20 21  1  0
 22 18  1  0
 22 21  1  0
 22 23  1  6
 24 23  1  0
 25 23  2  0
M  END
$$$$
