HTP.pdb
     RDKit          3D

 25 26  0  0  1  0  0  0  0  0999 V2000
   24.0412  -12.4216  -15.4212 N   0  0  0  0  0  0  0  0  0  0  0  0
   24.3343  -11.0630  -15.8290 C   0  0  1  0  0  0  0  0  0  0  0  0
   25.2379  -11.1020  -17.0423 C   0  0  0  0  0  0  0  0  0  0  0  0
   26.5604  -11.6240  -16.6754 C   0  0  0  0  0  0  0  0  0  0  0  0
   27.7834  -10.9921  -16.5853 C   0  0  0  0  0  0  0  0  0  0  0  0
   28.6985  -11.8875  -16.2119 N   0  0  0  0  0  0  0  0  0  0  0  0
   28.0880  -13.0666  -16.0639 C   0  0  0  0  0  0  0  0  0  0  0  0
   26.7879  -12.9176  -16.3433 N   0  0  0  0  0  0  0  0  0  0  0  0
   23.0720  -10.3232  -16.1652 C   0  0  0  0  0  0  0  0  0  0  0  0
   22.1706  -10.9474  -16.7464 O   0  0  0  0  0  0  0  0  0  0  0  0
   20.6372  -10.3557  -15.7481 C   0  0  0  0  0  0  0  0  0  0  0  0
   20.6341   -8.9030  -15.1746 C   0  0  1  0  0  0  0  0  0  0  0  0
   20.9589   -9.0614  -13.8356 O   0  0  0  0  0  0  0  0  0  0  0  0
   21.7019   -8.1980  -15.9320 C   0  0  2  0  0  0  0  0  0  0  0  0
   22.9446   -8.9554  -15.8163 N   0  0  0  0  0  0  0  0  0  0  0  0
   21.9308   -6.7863  -15.6096 C   0  0  0  0  0  0  0  0  0  0  0  0
   22.8273   -6.5765  -14.6935 O   0  0  0  0  0  0  0  0  0  0  0  0
   21.2886   -5.6783  -16.1871 N   0  0  0  0  0  0  0  0  0  0  0  0
   20.3271   -5.8252  -17.2645 C   0  0  0  0  0  0  0  0  0  0  0  0
   20.5718   -4.5751  -18.0758 C   0  0  0  0  0  0  0  0  0  0  0  0
   20.5183   -3.5549  -16.9225 C   0  0  0  0  0  0  0  0  0  0  0  0
   21.4076   -4.2898  -15.8853 C   0  0  1  0  0  0  0  0  0  0  0  0
   20.8710   -3.8778  -14.5788 C   0  0  0  0  0  0  0  0  0  0  0  0
   21.1754   -2.6898  -13.9470 O   0  0  0  0  0  0  0  0  0  0  0  0
   20.0803   -4.6679  -14.0010 O   0  0  0  0  0  0  0  0  0  0  0  0
  2  1  1  6
  3  4  1  0
  3  2  1  0
  4  8  1  0
  5  6  1  0
  5  4  2  0
  6  7  1  0
  7  8  2  0
  9 10  2  0
  9  2  1  0
 12 11  1  6
 12 14  1  0
 13 12  1  0
 14 15  1  1
 15  9  1  0
 16 17  2  0
 16 14  1  0
 18 19  1  0
 18 16  1  0
 19 20  1  0
 20 21  1  0
 22 18  1  0
 22 21  1  0
 22 23  1  1
 24 23  1  0
 25 23  2  0
M  END
$$$$
