HTP.pdb
     RDKit          3D

 25 26  0  0  1  0  0  0  0  0999 V2000
   25.1006  -35.6896  -13.3875 N   0  0  0  0  0  0  0  0  0  0  0  0
   24.2492  -35.4588  -12.2387 C   0  0  1  0  0  0  0  0  0  0  0  0
   23.6987  -36.7864  -11.7648 C   0  0  0  0  0  0  0  0  0  0  0  0
   22.7658  -37.3341  -12.7577 C   0  0  0  0  0  0  0  0  0  0  0  0
   21.5237  -36.8925  -13.1643 C   0  0  0  0  0  0  0  0  0  0  0  0
   21.0600  -37.7259  -14.0966 N   0  0  0  0  0  0  0  0  0  0  0  0
   21.9740  -38.6809  -14.2900 C   0  0  0  0  0  0  0  0  0  0  0  0
   23.0151  -38.4522  -13.4810 N   0  0  0  0  0  0  0  0  0  0  0  0
   25.0193  -34.8076  -11.1266 C   0  0  0  0  0  0  0  0  0  0  0  0
   26.2436  -35.0040  -11.0758 O   0  0  0  0  0  0  0  0  0  0  0  0
   24.2260  -31.1770  -10.0237 C   0  0  0  0  0  0  0  0  0  0  0  0
   24.1869  -32.0804   -8.7503 C   0  0  1  0  0  0  0  0  0  0  0  0
   22.8457  -32.3974   -8.5949 O   0  0  0  0  0  0  0  0  0  0  0  0
   25.0071  -33.2681   -9.1072 C   0  0  2  0  0  0  0  0  0  0  0  0
   24.3404  -33.9999  -10.1803 N   0  0  0  0  0  0  0  0  0  0  0  0
   25.3758  -34.1787   -8.0190 C   0  0  0  0  0  0  0  0  0  0  0  0
   24.5489  -35.1622   -7.8295 O   0  0  0  0  0  0  0  0  0  0  0  0
   26.5081  -34.0846   -7.1927 N   0  0  0  0  0  0  0  0  0  0  0  0
   27.5149  -33.0571   -7.3862 C   0  0  0  0  0  0  0  0  0  0  0  0
   28.7798  -33.7779   -6.9843 C   0  0  0  0  0  0  0  0  0  0  0  0
   28.2868  -34.3467   -5.6400 C   0  0  0  0  0  0  0  0  0  0  0  0
   26.9000  -34.8854   -6.0799 C   0  0  1  0  0  0  0  0  0  0  0  0
   26.0562  -34.7596   -4.8813 C   0  0  0  0  0  0  0  0  0  0  0  0
   26.1617  -35.5595   -3.7623 O   0  0  0  0  0  0  0  0  0  0  0  0
   25.1777  -33.8587   -4.8821 O   0  0  0  0  0  0  0  0  0  0  0  0
  2  1  1  6
  3  4  1  0
  3  2  1  0
  4  8  1  0
  5  6  1  0
  5  4  2  0
  6  7  1  0
  7  8  2  0
  9 10  2  0
  9  2  1  0
 12 11  1  6
 12 14  1  0
 13 12  1  0
 14 15  1  6
 15  9  1  0
 16 17  2  0
 16 14  1  0
 18 19  1  0
 18 16  1  0
 19 20  1  0
 20 21  1  0
 22 18  1  0
 22 21  1  0
 22 23  1  1
 24 23  1  0
 25 23  2  0
M  END
$$$$
