HTP.pdb
     RDKit          3D

 25 26  0  0  1  0  0  0  0  0999 V2000
   20.1868  -13.2329  -17.8130 N   0  0  0  0  0  0  0  0  0  0  0  0
   19.6256  -12.1767  -16.9960 C   0  0  1  0  0  0  0  0  0  0  0  0
   19.5396  -12.6604  -15.5646 C   0  0  0  0  0  0  0  0  0  0  0  0
   18.5161  -13.7060  -15.4414 C   0  0  0  0  0  0  0  0  0  0  0  0
   17.1453  -13.6439  -15.5839 C   0  0  0  0  0  0  0  0  0  0  0  0
   16.6404  -14.8606  -15.3757 N   0  0  0  0  0  0  0  0  0  0  0  0
   17.6534  -15.6889  -15.1059 C   0  0  0  0  0  0  0  0  0  0  0  0
   18.7982  -14.9971  -15.1432 N   0  0  0  0  0  0  0  0  0  0  0  0
   20.4786  -10.9430  -17.0599 C   0  0  0  0  0  0  0  0  0  0  0  0
   21.6991  -11.0709  -16.8755 O   0  0  0  0  0  0  0  0  0  0  0  0
   20.9431   -8.8042  -19.7557 C   0  0  0  0  0  0  0  0  0  0  0  0
   20.3665   -7.7933  -18.7141 C   0  0  1  0  0  0  0  0  0  0  0  0
   19.0140   -7.7253  -19.0134 O   0  0  0  0  0  0  0  0  0  0  0  0
   20.6183   -8.4296  -17.3941 C   0  0  2  0  0  0  0  0  0  0  0  0
   19.8787   -9.6864  -17.3245 N   0  0  0  0  0  0  0  0  0  0  0  0
   20.3626   -7.6183  -16.2000 C   0  0  0  0  0  0  0  0  0  0  0  0
   19.2155   -7.8352  -15.6310 O   0  0  0  0  0  0  0  0  0  0  0  0
   21.2219   -6.6608  -15.6357 N   0  0  0  0  0  0  0  0  0  0  0  0
   22.5677   -6.4489  -16.1362 C   0  0  0  0  0  0  0  0  0  0  0  0
   23.3193   -6.0950  -14.8749 C   0  0  0  0  0  0  0  0  0  0  0  0
   22.3523   -5.0208  -14.3412 C   0  0  0  0  0  0  0  0  0  0  0  0
   21.0038   -5.7578  -14.5539 C   0  0  1  0  0  0  0  0  0  0  0  0
   20.0314   -4.6843  -14.8118 C   0  0  0  0  0  0  0  0  0  0  0  0
   19.3866   -3.9599  -13.8306 O   0  0  0  0  0  0  0  0  0  0  0  0
   19.7724   -4.4122  -16.0127 O   0  0  0  0  0  0  0  0  0  0  0  0
  2  1  1  6
  3  4  1  0
  3  2  1  0
  4  8  1  0
  5  6  1  0
  5  4  2  0
  6  7  1  0
  7  8  2  0
  9 10  2  0
  9  2  1  0
 12 11  1  6
 12 14  1  0
 13 12  1  0
 14 15  1  1
 15  9  1  0
 16 17  2  0
 16 14  1  0
 18 19  1  0
 18 16  1  0
 19 20  1  0
 20 21  1  0
 22 18  1  0
 22 21  1  0
 22 23  1  6
 24 23  1  0
 25 23  2  0
M  END
$$$$
