HTP.pdb
     RDKit          3D

 25 26  0  0  1  0  0  0  0  0999 V2000
   16.9426  -13.3908  -16.9077 N   0  0  0  0  0  0  0  0  0  0  0  0
   16.9728  -12.0466  -16.3689 C   0  0  1  0  0  0  0  0  0  0  0  0
   16.4912  -12.0849  -14.9348 C   0  0  0  0  0  0  0  0  0  0  0  0
   15.0410  -12.3110  -14.8908 C   0  0  0  0  0  0  0  0  0  0  0  0
   13.9895  -11.4203  -14.9552 C   0  0  0  0  0  0  0  0  0  0  0  0
   12.8472  -12.1039  -14.8745 N   0  0  0  0  0  0  0  0  0  0  0  0
   13.1477  -13.4007  -14.7610 C   0  0  0  0  0  0  0  0  0  0  0  0
   14.4787  -13.5377  -14.7698 N   0  0  0  0  0  0  0  0  0  0  0  0
   18.3637  -11.4839  -16.4178 C   0  0  0  0  0  0  0  0  0  0  0  0
   19.3088  -12.2497  -16.1721 O   0  0  0  0  0  0  0  0  0  0  0  0
   20.1069  -10.2200  -19.1300 C   0  0  0  0  0  0  0  0  0  0  0  0
   20.0383   -8.9511  -18.2219 C   0  0  1  0  0  0  0  0  0  0  0  0
   18.9117   -8.2732  -18.6630 O   0  0  0  0  0  0  0  0  0  0  0  0
   19.8696   -9.4842  -16.8441 C   0  0  2  0  0  0  0  0  0  0  0  0
   18.5582  -10.1168  -16.7376 N   0  0  0  0  0  0  0  0  0  0  0  0
   20.0787   -8.5494  -15.7343 C   0  0  0  0  0  0  0  0  0  0  0  0
   18.9978   -7.9822  -15.2904 O   0  0  0  0  0  0  0  0  0  0  0  0
   21.3042   -8.2262  -15.1283 N   0  0  0  0  0  0  0  0  0  0  0  0
   22.5469   -8.8624  -15.5252 C   0  0  0  0  0  0  0  0  0  0  0  0
   23.3004   -8.9220  -14.2176 C   0  0  0  0  0  0  0  0  0  0  0  0
   23.1092   -7.4539  -13.7908 C   0  0  0  0  0  0  0  0  0  0  0  0
   21.5958   -7.2920  -14.0912 C   0  0  1  0  0  0  0  0  0  0  0  0
   21.4394   -5.8747  -14.4537 C   0  0  0  0  0  0  0  0  0  0  0  0
   21.3930   -4.8355  -13.5475 O   0  0  0  0  0  0  0  0  0  0  0  0
   21.3405   -5.5961  -15.6768 O   0  0  0  0  0  0  0  0  0  0  0  0
  2  1  1  1
  3  4  1  0
  3  2  1  0
  4  8  1  0
  5  6  1  0
  5  4  2  0
  6  7  1  0
  7  8  2  0
  9 10  2  0
  9  2  1  0
 12 11  1  6
 12 14  1  0
 13 12  1  0
 14 15  1  6
 15  9  1  0
 16 17  2  0
 16 14  1  0
 18 19  1  0
 18 16  1  0
 19 20  1  0
 20 21  1  0
 22 18  1  0
 22 21  1  0
 22 23  1  6
 24 23  1  0
 25 23  2  0
M  END
$$$$
