HTP.pdb
     RDKit          3D

 25 26  0  0  1  0  0  0  0  0999 V2000
   22.7689  -17.2219  -17.0652 N   0  0  0  0  0  0  0  0  0  0  0  0
   21.8994  -16.3102  -16.3505 C   0  0  1  0  0  0  0  0  0  0  0  0
   21.5801  -16.9023  -14.9949 C   0  0  0  0  0  0  0  0  0  0  0  0
   20.6473  -18.0273  -15.1379 C   0  0  0  0  0  0  0  0  0  0  0  0
   20.8781  -19.3552  -15.4319 C   0  0  0  0  0  0  0  0  0  0  0  0
   19.7085  -19.9958  -15.4532 N   0  0  0  0  0  0  0  0  0  0  0  0
   18.7461  -19.1100  -15.1811 C   0  0  0  0  0  0  0  0  0  0  0  0
   19.3059  -17.9101  -14.9877 N   0  0  0  0  0  0  0  0  0  0  0  0
   22.5591  -14.9734  -16.1729 C   0  0  0  0  0  0  0  0  0  0  0  0
   23.7377  -14.9546  -15.7850 O   0  0  0  0  0  0  0  0  0  0  0  0
   23.6142  -12.8657  -18.4235 C   0  0  0  0  0  0  0  0  0  0  0  0
   22.5656  -11.9184  -17.7585 C   0  0  1  0  0  0  0  0  0  0  0  0
   21.4193  -12.0853  -18.5211 O   0  0  0  0  0  0  0  0  0  0  0  0
   22.4040  -12.4472  -16.3782 C   0  0  2  0  0  0  0  0  0  0  0  0
   21.8317  -13.7884  -16.4481 N   0  0  0  0  0  0  0  0  0  0  0  0
   21.6547  -11.6197  -15.4278 C   0  0  0  0  0  0  0  0  0  0  0  0
   20.3976  -11.9256  -15.3142 O   0  0  0  0  0  0  0  0  0  0  0  0
   22.1613  -10.5623  -14.6539 N   0  0  0  0  0  0  0  0  0  0  0  0
   23.5819  -10.2720  -14.5890 C   0  0  0  0  0  0  0  0  0  0  0  0
   23.7371   -9.7811  -13.1691 C   0  0  0  0  0  0  0  0  0  0  0  0
   22.5842   -8.7591  -13.1664 C   0  0  0  0  0  0  0  0  0  0  0  0
   21.4774   -9.6156  -13.8358 C   0  0  1  0  0  0  0  0  0  0  0  0
   20.6413   -8.6432  -14.5569 C   0  0  0  0  0  0  0  0  0  0  0  0
   19.6737   -7.8549  -13.9690 O   0  0  0  0  0  0  0  0  0  0  0  0
   20.8247   -8.5268  -15.7962 O   0  0  0  0  0  0  0  0  0  0  0  0
  2  1  1  1
  3  4  1  0
  3  2  1  0
  4  8  1  0
  5  6  1  0
  5  4  2  0
  6  7  1  0
  7  8  2  0
  9 10  2  0
  9  2  1  0
 12 11  1  6
 12 14  1  0
 13 12  1  0
 14 15  1  6
 15  9  1  0
 16 17  2  0
 16 14  1  0
 18 19  1  0
 18 16  1  0
 19 20  1  0
 20 21  1  0
 22 18  1  0
 22 21  1  0
 22 23  1  6
 24 23  1  0
 25 23  2  0
M  END
$$$$
