HTP.pdb
     RDKit          3D

 25 26  0  0  1  0  0  0  0  0999 V2000
   28.1405  -26.5278  -16.3169 N   0  0  0  0  0  0  0  0  0  0  0  0
   28.0066  -27.5566  -17.3276 C   0  0  1  0  0  0  0  0  0  0  0  0
   28.5298  -27.0200  -18.6423 C   0  0  0  0  0  0  0  0  0  0  0  0
   27.6525  -25.9538  -19.1420 C   0  0  0  0  0  0  0  0  0  0  0  0
   26.3134  -25.9723  -19.4734 C   0  0  0  0  0  0  0  0  0  0  0  0
   25.9593  -24.7531  -19.8818 N   0  0  0  0  0  0  0  0  0  0  0  0
   27.0366  -23.9656  -19.8176 C   0  0  0  0  0  0  0  0  0  0  0  0
   28.0715  -24.6856  -19.3691 N   0  0  0  0  0  0  0  0  0  0  0  0
   28.7783  -28.7855  -16.9429 C   0  0  0  0  0  0  0  0  0  0  0  0
   29.8311  -28.6335  -16.3036 O   0  0  0  0  0  0  0  0  0  0  0  0
   28.1088  -31.1133  -14.6171 C   0  0  0  0  0  0  0  0  0  0  0  0
   28.0022  -31.9865  -15.9076 C   0  0  1  0  0  0  0  0  0  0  0  0
   26.6682  -31.8944  -16.2758 O   0  0  0  0  0  0  0  0  0  0  0  0
   28.9023  -31.3212  -16.8864 C   0  0  2  0  0  0  0  0  0  0  0  0
   28.2933  -30.0648  -17.3131 N   0  0  0  0  0  0  0  0  0  0  0  0
   29.3236  -32.1071  -18.0502 C   0  0  0  0  0  0  0  0  0  0  0  0
   28.7234  -31.7993  -19.1601 O   0  0  0  0  0  0  0  0  0  0  0  0
   30.2888  -33.1277  -18.0692 N   0  0  0  0  0  0  0  0  0  0  0  0
   31.1698  -33.3708  -16.9417 C   0  0  0  0  0  0  0  0  0  0  0  0
   32.4388  -33.8202  -17.6263 C   0  0  0  0  0  0  0  0  0  0  0  0
   31.8183  -34.8782  -18.5588 C   0  0  0  0  0  0  0  0  0  0  0  0
   30.6014  -34.0747  -19.0884 C   0  0  1  0  0  0  0  0  0  0  0  0
   29.5696  -35.0914  -19.3458 C   0  0  0  0  0  0  0  0  0  0  0  0
   29.5759  -35.9590  -20.4184 O   0  0  0  0  0  0  0  0  0  0  0  0
   28.6164  -35.1706  -18.5282 O   0  0  0  0  0  0  0  0  0  0  0  0
  2  1  1  1
  3  4  1  0
  3  2  1  0
  4  8  1  0
  5  6  1  0
  5  4  2  0
  6  7  1  0
  7  8  2  0
  9 10  2  0
  9  2  1  0
 12 11  1  1
 12 14  1  0
 13 12  1  0
 14 15  1  6
 15  9  1  0
 16 17  2  0
 16 14  1  0
 18 19  1  0
 18 16  1  0
 19 20  1  0
 20 21  1  0
 22 18  1  0
 22 21  1  0
 22 23  1  1
 24 23  1  0
 25 23  2  0
M  END
$$$$
