QSK.pdb
     RDKit          3D

 25 24  0  0  1  0  0  0  0  0999 V2000
   10.8768  -21.5088   21.4304 N   0  0  0  0  0  0  0  0  0  0  0  0
    9.8724  -20.9548   20.6190 C   0  0  0  0  0  0  0  0  0  0  0  0
    8.8586  -21.5836   20.3205 O   0  0  0  0  0  0  0  0  0  0  0  0
   10.0560  -19.5550   20.1099 C   0  0  0  0  0  0  0  0  0  0  0  0
    8.9482  -18.6832   20.6258 C   0  0  0  0  0  0  0  0  0  0  0  0
    9.0599  -17.2624   20.1067 C   0  0  2  0  0  0  0  0  0  0  0  0
   10.2255  -17.2437   19.1852 N   0  0  0  0  0  0  0  0  0  0  0  0
    9.3128  -16.3233   21.2171 C   0  0  0  0  0  0  0  0  0  0  0  0
   10.4344  -16.3930   21.8093 O   0  0  0  0  0  0  0  0  0  0  0  0
    6.4040  -13.8115   22.9182 O   0  0  0  0  0  0  0  0  0  0  0  0
    7.6877  -13.3275   22.8630 C   0  0  0  0  0  0  0  0  0  0  0  0
    8.7017  -14.4810   22.7837 C   0  0  2  0  0  0  0  0  0  0  0  0
    8.3826  -15.3429   21.6649 N   0  0  0  0  0  0  0  0  0  0  0  0
    8.7852  -15.1958   24.0662 C   0  0  0  0  0  0  0  0  0  0  0  0
    8.1311  -16.2519   24.2207 O   0  0  0  0  0  0  0  0  0  0  0  0
    9.5879  -14.7213   25.1355 N   0  0  0  0  0  0  0  0  0  0  0  0
    9.5203  -15.3176   26.4732 C   0  0  1  0  0  0  0  0  0  0  0  0
   10.7690  -16.2202   26.5827 C   0  0  0  0  0  0  0  0  0  0  0  0
   10.8412  -16.8642   27.9176 C   0  0  0  0  0  0  0  0  0  0  0  0
   12.0499  -17.7321   28.0588 C   0  0  0  0  0  0  0  0  0  0  0  0
   12.2206  -18.4396   29.3476 C   0  0  0  0  0  0  0  0  0  0  0  0
   13.4372  -19.1890   29.5104 N   0  0  0  0  0  0  0  0  0  0  0  0
    9.6729  -14.2658   27.4962 C   0  0  0  0  0  0  0  0  0  0  0  0
    9.3784  -14.5323   28.8147 O   0  0  0  0  0  0  0  0  0  0  0  0
   10.0706  -13.1329   27.1590 O   0  0  0  0  0  0  0  0  0  0  0  0
  1  2  1  0
  2  4  1  0
  2  3  2  0
  4  5  1  0
  6  5  1  0
  6  8  1  0
  6  7  1  6
  8  9  2  0
 11 10  1  0
 12 11  1  1
 13  8  1  0
 13 12  1  0
 14 15  2  0
 14 12  1  0
 16 14  1  0
 17 16  1  0
 17 18  1  6
 19 18  1  0
 20 19  1  0
 21 22  1  0
 21 20  1  0
 23 17  1  0
 23 24  1  0
 25 23  2  0
M  END
$$$$
