QSK.pdb
     RDKit          3D

 25 24  0  0  1  0  0  0  0  0999 V2000
   14.4448  -17.3174   17.1101 N   0  0  0  0  0  0  0  0  0  0  0  0
   15.3265  -17.9909   17.9723 C   0  0  0  0  0  0  0  0  0  0  0  0
   16.5156  -17.6875   18.0513 O   0  0  0  0  0  0  0  0  0  0  0  0
   14.7871  -19.1101   18.8143 C   0  0  0  0  0  0  0  0  0  0  0  0
   14.6333  -18.6428   20.2325 C   0  0  0  0  0  0  0  0  0  0  0  0
   13.9889  -19.7004   21.1084 C   0  0  2  0  0  0  0  0  0  0  0  0
   12.6734  -20.0107   20.4908 N   0  0  0  0  0  0  0  0  0  0  0  0
   13.7665  -19.1793   22.4714 C   0  0  0  0  0  0  0  0  0  0  0  0
   14.7868  -18.8722   23.1630 O   0  0  0  0  0  0  0  0  0  0  0  0
    9.9747  -18.4858   24.2101 O   0  0  0  0  0  0  0  0  0  0  0  0
   11.0696  -17.7775   24.6401 C   0  0  0  0  0  0  0  0  0  0  0  0
   12.3578  -18.5946   24.4450 C   0  0  2  0  0  0  0  0  0  0  0  0
   12.4829  -18.9957   23.0594 N   0  0  0  0  0  0  0  0  0  0  0  0
   12.4116  -19.7230   25.3867 C   0  0  0  0  0  0  0  0  0  0  0  0
   11.9428  -20.8308   25.0401 O   0  0  0  0  0  0  0  0  0  0  0  0
   12.9809  -19.5912   26.6794 N   0  0  0  0  0  0  0  0  0  0  0  0
   12.9760  -20.6986   27.6401 C   0  0  1  0  0  0  0  0  0  0  0  0
   13.8030  -20.1989   28.8452 C   0  0  0  0  0  0  0  0  0  0  0  0
   14.0007  -21.2839   29.8380 C   0  0  0  0  0  0  0  0  0  0  0  0
   14.8439  -20.8444   30.9913 C   0  0  0  0  0  0  0  0  0  0  0  0
   15.0280  -21.8132   32.0950 C   0  0  0  0  0  0  0  0  0  0  0  0
   16.0214  -21.4802   33.0802 N   0  0  0  0  0  0  0  0  0  0  0  0
   11.6050  -20.9219   28.1368 C   0  0  0  0  0  0  0  0  0  0  0  0
   10.7245  -19.8683   28.2408 O   0  0  0  0  0  0  0  0  0  0  0  0
   11.2484  -22.0718   28.4622 O   0  0  0  0  0  0  0  0  0  0  0  0
  1  2  1  0
  2  4  1  0
  2  3  2  0
  4  5  1  0
  6  5  1  0
  6  8  1  0
  6  7  1  6
  8  9  2  0
 11 10  1  0
 12 11  1  6
 13  8  1  0
 13 12  1  0
 14 15  2  0
 14 12  1  0
 16 14  1  0
 17 16  1  0
 17 18  1  1
 19 18  1  0
 20 19  1  0
 21 22  1  0
 21 20  1  0
 23 17  1  0
 23 24  1  0
 25 23  2  0
M  END
$$$$
