QSK.pdb
     RDKit          3D

 25 24  0  0  1  0  0  0  0  0999 V2000
    7.4578  -17.7186   18.1039 N   0  0  0  0  0  0  0  0  0  0  0  0
    8.1293  -16.9285   19.0522 C   0  0  0  0  0  0  0  0  0  0  0  0
    8.9349  -17.4114   19.8459 O   0  0  0  0  0  0  0  0  0  0  0  0
    7.8448  -15.4553   19.0851 C   0  0  0  0  0  0  0  0  0  0  0  0
    6.9224  -15.1470   20.2286 C   0  0  0  0  0  0  0  0  0  0  0  0
    7.1978  -13.7788   20.8227 C   0  0  2  0  0  0  0  0  0  0  0  0
    8.0997  -13.0822   19.8692 N   0  0  0  0  0  0  0  0  0  0  0  0
    7.8838  -13.9071   22.1234 C   0  0  0  0  0  0  0  0  0  0  0  0
    9.1477  -14.0345   22.1176 O   0  0  0  0  0  0  0  0  0  0  0  0
    5.9265  -13.8269   25.8450 O   0  0  0  0  0  0  0  0  0  0  0  0
    7.2013  -13.3236   25.7613 C   0  0  0  0  0  0  0  0  0  0  0  0
    7.9769  -13.9931   24.6145 C   0  0  2  0  0  0  0  0  0  0  0  0
    7.2211  -13.8941   23.3834 N   0  0  0  0  0  0  0  0  0  0  0  0
    8.3443  -15.3734   24.9646 C   0  0  0  0  0  0  0  0  0  0  0  0
    7.5442  -16.3019   24.7100 O   0  0  0  0  0  0  0  0  0  0  0  0
    9.5825  -15.6831   25.5840 N   0  0  0  0  0  0  0  0  0  0  0  0
    9.8909  -17.0365   26.0560 C   0  0  1  0  0  0  0  0  0  0  0  0
   11.2506  -17.3934   25.4160 C   0  0  0  0  0  0  0  0  0  0  0  0
   11.0945  -17.6853   23.9695 C   0  0  0  0  0  0  0  0  0  0  0  0
   12.3940  -18.0460   23.3249 C   0  0  0  0  0  0  0  0  0  0  0  0
   12.3956  -18.1862   21.8515 C   0  0  0  0  0  0  0  0  0  0  0  0
   13.6745  -18.4022   21.2302 N   0  0  0  0  0  0  0  0  0  0  0  0
   10.1067  -17.0187   27.5152 C   0  0  0  0  0  0  0  0  0  0  0  0
   10.2693  -18.1981   28.2070 O   0  0  0  0  0  0  0  0  0  0  0  0
   10.1409  -15.9278   28.1186 O   0  0  0  0  0  0  0  0  0  0  0  0
  1  2  1  0
  2  4  1  0
  2  3  2  0
  4  5  1  0
  6  5  1  0
  6  8  1  0
  6  7  1  6
  8  9  2  0
 11 10  1  0
 12 11  1  1
 13  8  1  0
 13 12  1  0
 14 15  2  0
 14 12  1  0
 16 14  1  0
 17 16  1  0
 17 18  1  6
 19 18  1  0
 20 19  1  0
 21 22  1  0
 21 20  1  0
 23 17  1  0
 23 24  1  0
 25 23  2  0
M  END
$$$$
