QSK.pdb
     RDKit          3D

 25 24  0  0  1  0  0  0  0  0999 V2000
    5.9353  -18.7307   14.6076 N   0  0  0  0  0  0  0  0  0  0  0  0
    6.0492  -19.3713   15.8529 C   0  0  0  0  0  0  0  0  0  0  0  0
    5.0964  -19.4640   16.6248 O   0  0  0  0  0  0  0  0  0  0  0  0
    7.3775  -19.9540   16.2380 C   0  0  0  0  0  0  0  0  0  0  0  0
    7.9030  -19.2471   17.4537 C   0  0  0  0  0  0  0  0  0  0  0  0
    7.9766  -17.7464   17.2461 C   0  0  2  0  0  0  0  0  0  0  0  0
    8.9620  -17.5223   16.1567 N   0  0  0  0  0  0  0  0  0  0  0  0
    8.4567  -17.0768   18.4708 C   0  0  0  0  0  0  0  0  0  0  0  0
    9.6496  -17.3051   18.8431 O   0  0  0  0  0  0  0  0  0  0  0  0
    6.0651  -15.1972   21.4017 O   0  0  0  0  0  0  0  0  0  0  0  0
    7.2203  -14.5580   21.0246 C   0  0  0  0  0  0  0  0  0  0  0  0
    8.2294  -15.5588   20.4369 C   0  0  2  0  0  0  0  0  0  0  0  0
    7.6707  -16.1895   19.2594 N   0  0  0  0  0  0  0  0  0  0  0  0
    8.6726  -16.5190   21.4589 C   0  0  0  0  0  0  0  0  0  0  0  0
    8.1362  -17.6490   21.5090 O   0  0  0  0  0  0  0  0  0  0  0  0
    9.6930  -16.2001   22.3915 N   0  0  0  0  0  0  0  0  0  0  0  0
   10.0645  -17.1194   23.4716 C   0  0  1  0  0  0  0  0  0  0  0  0
   11.4800  -17.6225   23.1123 C   0  0  0  0  0  0  0  0  0  0  0  0
   11.9907  -18.5519   24.1502 C   0  0  0  0  0  0  0  0  0  0  0  0
   13.3538  -19.0692   23.8206 C   0  0  0  0  0  0  0  0  0  0  0  0
   13.9520  -20.0352   24.7691 C   0  0  0  0  0  0  0  0  0  0  0  0
   15.2837  -20.4873   24.4681 N   0  0  0  0  0  0  0  0  0  0  0  0
   10.1939  -16.3742   24.7382 C   0  0  0  0  0  0  0  0  0  0  0  0
   10.0959  -17.0326   25.9436 O   0  0  0  0  0  0  0  0  0  0  0  0
   10.3928  -15.1434   24.7100 O   0  0  0  0  0  0  0  0  0  0  0  0
  1  2  1  0
  2  4  1  0
  2  3  2  0
  4  5  1  0
  6  5  1  0
  6  8  1  0
  6  7  1  6
  8  9  2  0
 11 10  1  0
 12 11  1  1
 13  8  1  0
 13 12  1  0
 14 15  2  0
 14 12  1  0
 16 14  1  0
 17 16  1  0
 17 18  1  6
 19 18  1  0
 20 19  1  0
 21 22  1  0
 21 20  1  0
 23 17  1  0
 23 24  1  0
 25 23  2  0
M  END
$$$$
