QSK.pdb
     RDKit          3D

 25 24  0  0  1  0  0  0  0  0999 V2000
   15.1280  -14.3422   20.3741 N   0  0  0  0  0  0  0  0  0  0  0  0
   14.9461  -14.0780   19.0062 C   0  0  0  0  0  0  0  0  0  0  0  0
   15.7801  -13.4585   18.3482 O   0  0  0  0  0  0  0  0  0  0  0  0
   13.6937  -14.5723   18.3432 C   0  0  0  0  0  0  0  0  0  0  0  0
   12.9325  -15.4476   19.2960 C   0  0  0  0  0  0  0  0  0  0  0  0
   11.6951  -16.0418   18.6507 C   0  0  2  0  0  0  0  0  0  0  0  0
   11.4093  -15.2127   17.4511 N   0  0  0  0  0  0  0  0  0  0  0  0
   10.5433  -15.9652   19.5707 C   0  0  0  0  0  0  0  0  0  0  0  0
    9.8419  -14.9062   19.5564 O   0  0  0  0  0  0  0  0  0  0  0  0
    9.3390  -18.9593   22.4198 O   0  0  0  0  0  0  0  0  0  0  0  0
    8.4361  -18.2095   21.7073 C   0  0  0  0  0  0  0  0  0  0  0  0
    9.0294  -16.8359   21.3515 C   0  0  2  0  0  0  0  0  0  0  0  0
   10.1660  -17.0024   20.4701 N   0  0  0  0  0  0  0  0  0  0  0  0
    9.3401  -16.0676   22.5664 C   0  0  0  0  0  0  0  0  0  0  0  0
   10.5066  -16.0878   23.0204 O   0  0  0  0  0  0  0  0  0  0  0  0
    8.3533  -15.3025   23.2398 N   0  0  0  0  0  0  0  0  0  0  0  0
    8.6632  -14.5436   24.4553 C   0  0  1  0  0  0  0  0  0  0  0  0
    7.3502  -13.8237   24.8345 C   0  0  0  0  0  0  0  0  0  0  0  0
    7.5286  -13.0092   26.0620 C   0  0  0  0  0  0  0  0  0  0  0  0
    6.2714  -12.3035   26.4565 C   0  0  0  0  0  0  0  0  0  0  0  0
    6.3490  -11.3976   27.6243 C   0  0  0  0  0  0  0  0  0  0  0  0
    5.1234  -10.7587   28.0218 N   0  0  0  0  0  0  0  0  0  0  0  0
    8.9652  -15.4733   25.5602 C   0  0  0  0  0  0  0  0  0  0  0  0
    9.8763  -15.1237   26.5317 O   0  0  0  0  0  0  0  0  0  0  0  0
    8.3897  -16.5786   25.6085 O   0  0  0  0  0  0  0  0  0  0  0  0
  1  2  1  0
  2  4  1  0
  2  3  2  0
  4  5  1  0
  6  5  1  0
  6  8  1  0
  6  7  1  6
  8  9  2  0
 11 10  1  0
 12 11  1  1
 13  8  1  0
 13 12  1  0
 14 15  2  0
 14 12  1  0
 16 14  1  0
 17 16  1  0
 17 18  1  1
 19 18  1  0
 20 19  1  0
 21 22  1  0
 21 20  1  0
 23 17  1  0
 23 24  1  0
 25 23  2  0
M  END
$$$$
