QSK.pdb
     RDKit          3D

 25 24  0  0  1  0  0  0  0  0999 V2000
   11.7954  -14.4639   17.4160 N   0  0  0  0  0  0  0  0  0  0  0  0
   12.2201  -14.4389   18.7551 C   0  0  0  0  0  0  0  0  0  0  0  0
   13.2118  -15.0599   19.1333 O   0  0  0  0  0  0  0  0  0  0  0  0
   11.4309  -13.6268   19.7401 C   0  0  0  0  0  0  0  0  0  0  0  0
   10.2115  -13.0668   19.0672 C   0  0  0  0  0  0  0  0  0  0  0  0
    9.1280  -14.1150   18.8994 C   0  0  2  0  0  0  0  0  0  0  0  0
    7.9536  -13.4138   18.3186 N   0  0  0  0  0  0  0  0  0  0  0  0
    8.7479  -14.6815   20.2083 C   0  0  0  0  0  0  0  0  0  0  0  0
    8.3594  -13.8781   21.1124 O   0  0  0  0  0  0  0  0  0  0  0  0
    9.0848  -18.7970   21.4072 O   0  0  0  0  0  0  0  0  0  0  0  0
    8.0119  -18.0227   21.7741 C   0  0  0  0  0  0  0  0  0  0  0  0
    8.4084  -16.5382   21.8389 C   0  0  2  0  0  0  0  0  0  0  0  0
    8.7852  -16.0698   20.5217 N   0  0  0  0  0  0  0  0  0  0  0  0
    9.4464  -16.3160   22.8568 C   0  0  0  0  0  0  0  0  0  0  0  0
   10.6502  -16.3227   22.5133 O   0  0  0  0  0  0  0  0  0  0  0  0
    9.1213  -16.0937   24.2197 N   0  0  0  0  0  0  0  0  0  0  0  0
   10.1588  -15.9128   25.2398 C   0  0  1  0  0  0  0  0  0  0  0  0
    9.4016  -15.5301   26.5305 C   0  0  0  0  0  0  0  0  0  0  0  0
   10.3431  -15.3523   27.6636 C   0  0  0  0  0  0  0  0  0  0  0  0
    9.6353  -15.0097   28.9347 C   0  0  0  0  0  0  0  0  0  0  0  0
   10.4791  -14.7370   30.1197 C   0  0  0  0  0  0  0  0  0  0  0  0
    9.7978  -14.2709   31.2974 N   0  0  0  0  0  0  0  0  0  0  0  0
   10.8224  -17.2023   25.5103 C   0  0  0  0  0  0  0  0  0  0  0  0
   10.1091  -18.3780   25.4395 O   0  0  0  0  0  0  0  0  0  0  0  0
   12.0343  -17.2207   25.8037 O   0  0  0  0  0  0  0  0  0  0  0  0
  1  2  1  0
  2  4  1  0
  2  3  2  0
  4  5  1  0
  6  5  1  0
  6  8  1  0
  6  7  1  1
  8  9  2  0
 11 10  1  0
 12 11  1  6
 13  8  1  0
 13 12  1  0
 14 15  2  0
 14 12  1  0
 16 14  1  0
 17 16  1  0
 17 18  1  1
 19 18  1  0
 20 19  1  0
 21 22  1  0
 21 20  1  0
 23 17  1  0
 23 24  1  0
 25 23  2  0
M  END
$$$$
