QSK.pdb
     RDKit          3D

 25 24  0  0  1  0  0  0  0  0999 V2000
    7.7377  -12.6803   17.5818 N   0  0  0  0  0  0  0  0  0  0  0  0
    8.0985  -13.4433   16.4585 C   0  0  0  0  0  0  0  0  0  0  0  0
    8.0113  -12.9976   15.3157 O   0  0  0  0  0  0  0  0  0  0  0  0
    8.6028  -14.8401   16.6754 C   0  0  0  0  0  0  0  0  0  0  0  0
    8.5853  -15.1587   18.1423 C   0  0  0  0  0  0  0  0  0  0  0  0
    9.1791  -16.5243   18.4303 C   0  0  2  0  0  0  0  0  0  0  0  0
    8.4377  -17.4911   17.5796 N   0  0  0  0  0  0  0  0  0  0  0  0
    8.9832  -16.8861   19.8479 C   0  0  0  0  0  0  0  0  0  0  0  0
    7.8957  -16.5376   20.4044 O   0  0  0  0  0  0  0  0  0  0  0  0
   10.7057  -20.0709   21.6673 O   0  0  0  0  0  0  0  0  0  0  0  0
    9.5679  -19.4784   22.1569 C   0  0  0  0  0  0  0  0  0  0  0  0
    9.6417  -17.9497   22.0058 C   0  0  2  0  0  0  0  0  0  0  0  0
    9.9323  -17.6030   20.6304 N   0  0  0  0  0  0  0  0  0  0  0  0
   10.5933  -17.3724   22.9671 C   0  0  0  0  0  0  0  0  0  0  0  0
   11.8091  -17.3286   22.6719 O   0  0  0  0  0  0  0  0  0  0  0  0
   10.1715  -16.8627   24.2221 N   0  0  0  0  0  0  0  0  0  0  0  0
   11.1326  -16.4852   25.2629 C   0  0  1  0  0  0  0  0  0  0  0  0
   10.3171  -15.6847   26.3022 C   0  0  0  0  0  0  0  0  0  0  0  0
   11.1744  -15.2654   27.4385 C   0  0  0  0  0  0  0  0  0  0  0  0
   10.4014  -14.5289   28.4846 C   0  0  0  0  0  0  0  0  0  0  0  0
   11.1674  -13.9946   29.6328 C   0  0  0  0  0  0  0  0  0  0  0  0
   10.4256  -13.2253   30.5952 N   0  0  0  0  0  0  0  0  0  0  0  0
   11.6199  -17.6940   25.9539 C   0  0  0  0  0  0  0  0  0  0  0  0
   12.9125  -17.7503   26.4251 O   0  0  0  0  0  0  0  0  0  0  0  0
   10.8530  -18.6652   26.1086 O   0  0  0  0  0  0  0  0  0  0  0  0
  1  2  1  0
  2  4  1  0
  2  3  2  0
  4  5  1  0
  6  5  1  0
  6  8  1  0
  6  7  1  6
  8  9  2  0
 11 10  1  0
 12 11  1  6
 13  8  1  0
 13 12  1  0
 14 15  2  0
 14 12  1  0
 16 14  1  0
 17 16  1  0
 17 18  1  1
 19 18  1  0
 20 19  1  0
 21 22  1  0
 21 20  1  0
 23 17  1  0
 23 24  1  0
 25 23  2  0
M  END
$$$$
