HKY.pdb
     RDKit          3D

 32 33  0  0  1  0  0  0  0  0999 V2000
   20.0083   -6.1535  -17.0981 N   0  0  0  0  0  0  0  0  0  0  0  0
   20.9103   -7.2705  -16.9243 C   0  0  1  0  0  0  0  0  0  0  0  0
   21.3406   -7.3550  -15.4770 C   0  0  0  0  0  0  0  0  0  0  0  0
   22.0806   -6.1242  -15.1088 C   0  0  0  0  0  0  0  0  0  0  0  0
   23.3083   -5.6712  -15.5854 C   0  0  0  0  0  0  0  0  0  0  0  0
   23.5734   -4.5101  -14.9610 N   0  0  0  0  0  0  0  0  0  0  0  0
   22.5469   -4.2572  -14.1304 C   0  0  0  0  0  0  0  0  0  0  0  0
   21.6332   -5.2364  -14.2149 N   0  0  0  0  0  0  0  0  0  0  0  0
   20.1889   -8.5078  -17.3167 C   0  0  0  0  0  0  0  0  0  0  0  0
   19.0698   -8.7364  -16.8130 O   0  0  0  0  0  0  0  0  0  0  0  0
   20.7305   -9.4186  -18.2325 N   0  0  0  0  0  0  0  0  0  0  0  0
   20.0481  -10.6050  -18.7323 C   0  0  1  0  0  0  0  0  0  0  0  0
   20.3230  -10.7193  -20.1771 C   0  0  0  0  0  0  0  0  0  0  0  0
   21.7529  -10.9697  -20.5500 C   0  0  0  0  0  0  0  0  0  0  0  0
   21.8597  -11.1340  -22.0437 C   0  0  0  0  0  0  0  0  0  0  0  0
   23.3009  -11.3419  -22.4787 C   0  0  0  0  0  0  0  0  0  0  0  0
   23.2993  -11.5665  -23.9123 N   0  0  0  0  0  0  0  0  0  0  0  0
   20.4589  -11.7989  -17.9509 C   0  0  0  0  0  0  0  0  0  0  0  0
   21.6376  -11.8353  -17.5194 O   0  0  0  0  0  0  0  0  0  0  0  0
   19.8584  -19.1336  -12.9467 O   0  0  0  0  0  0  0  0  0  0  0  0
   19.6892  -17.9271  -13.6486 C   0  0  0  0  0  0  0  0  0  0  0  0
   20.4856  -16.8489  -13.3318 C   0  0  0  0  0  0  0  0  0  0  0  0
   20.3286  -15.6561  -14.0156 C   0  0  0  0  0  0  0  0  0  0  0  0
   19.3947  -15.4972  -15.0163 C   0  0  0  0  0  0  0  0  0  0  0  0
   19.2412  -14.2273  -15.7281 C   0  0  0  0  0  0  0  0  0  0  0  0
   20.0836  -14.0959  -16.9735 C   0  0  2  0  0  0  0  0  0  0  0  0
   19.6201  -12.8823  -17.6652 N   0  0  0  0  0  0  0  0  0  0  0  0
   19.8870  -15.2181  -17.9249 C   0  0  0  0  0  0  0  0  0  0  0  0
   20.6857  -16.3331  -17.9455 O   0  0  0  0  0  0  0  0  0  0  0  0
   18.6049  -16.5868  -15.3215 C   0  0  0  0  0  0  0  0  0  0  0  0
   18.7436  -17.7977  -14.6481 C   0  0  0  0  0  0  0  0  0  0  0  0
   18.9291  -15.1489  -18.7685 O   0  0  0  0  0  0  0  0  0  0  0  0
  2  1  1  1
  2  9  1  0
  2  3  1  0
  4  3  1  0
  4  5  2  0
  6  5  1  0
  7  6  1  0
  8  7  2  0
  8  4  1  0
  9 10  2  0
 11 12  1  0
 11  9  1  0
 12 13  1  6
 13 14  1  0
 15 16  1  0
 15 14  1  0
 16 17  1  0
 18 19  2  0
 18 12  1  0
 20 21  1  0
 21 31  2  0
 21 22  1  0
 22 23  2  0
 23 24  1  0
 24 25  1  0
 26 25  1  1
 26 28  1  0
 26 27  1  0
 27 18  1  0
 28 29  1  0
 30 24  2  0
 31 30  1  0
 32 28  2  0
M  END
$$$$
