HKY.pdb
     RDKit          3D

 32 33  0  0  1  0  0  0  0  0999 V2000
   20.7822  -11.8764  -22.2269 N   0  0  0  0  0  0  0  0  0  0  0  0
   21.0543  -12.2065  -20.8454 C   0  0  1  0  0  0  0  0  0  0  0  0
   20.5615  -11.0913  -19.9507 C   0  0  0  0  0  0  0  0  0  0  0  0
   21.3768   -9.8749  -20.1823 C   0  0  0  0  0  0  0  0  0  0  0  0
   21.0257   -8.7063  -20.8536 C   0  0  0  0  0  0  0  0  0  0  0  0
   22.0897   -7.8854  -20.8062 N   0  0  0  0  0  0  0  0  0  0  0  0
   23.0605   -8.5248  -20.1307 C   0  0  0  0  0  0  0  0  0  0  0  0
   22.6336   -9.7378  -19.7473 N   0  0  0  0  0  0  0  0  0  0  0  0
   20.3424  -13.4702  -20.5271 C   0  0  0  0  0  0  0  0  0  0  0  0
   19.1636  -13.6098  -20.9135 O   0  0  0  0  0  0  0  0  0  0  0  0
   20.9580  -14.5029  -19.8085 N   0  0  0  0  0  0  0  0  0  0  0  0
   20.3318  -15.7752  -19.4740 C   0  0  1  0  0  0  0  0  0  0  0  0
   21.3722  -16.8207  -19.4997 C   0  0  0  0  0  0  0  0  0  0  0  0
   20.9004  -18.2157  -19.2212 C   0  0  0  0  0  0  0  0  0  0  0  0
   22.0587  -19.1707  -19.3469 C   0  0  0  0  0  0  0  0  0  0  0  0
   21.6065  -20.6148  -19.2077 C   0  0  0  0  0  0  0  0  0  0  0  0
   22.7788  -21.4582  -19.3492 N   0  0  0  0  0  0  0  0  0  0  0  0
   19.6234  -15.6707  -18.1732 C   0  0  0  0  0  0  0  0  0  0  0  0
   20.2160  -15.0868  -17.2327 O   0  0  0  0  0  0  0  0  0  0  0  0
   12.8958  -12.8765  -19.6998 O   0  0  0  0  0  0  0  0  0  0  0  0
   13.9744  -13.2916  -18.8992 C   0  0  0  0  0  0  0  0  0  0  0  0
   15.2466  -13.2769  -19.4268 C   0  0  0  0  0  0  0  0  0  0  0  0
   16.3165  -13.6831  -18.6487 C   0  0  0  0  0  0  0  0  0  0  0  0
   16.1620  -14.1089  -17.3472 C   0  0  0  0  0  0  0  0  0  0  0  0
   17.3051  -14.5368  -16.5390 C   0  0  0  0  0  0  0  0  0  0  0  0
   17.6405  -16.0044  -16.6471 C   0  0  2  0  0  0  0  0  0  0  0  0
   18.3425  -16.1791  -17.9288 N   0  0  0  0  0  0  0  0  0  0  0  0
   16.4358  -16.8691  -16.7111 C   0  0  0  0  0  0  0  0  0  0  0  0
   15.6107  -17.0871  -15.6370 O   0  0  0  0  0  0  0  0  0  0  0  0
   14.8812  -14.1176  -16.8338 C   0  0  0  0  0  0  0  0  0  0  0  0
   13.7884  -13.7137  -17.5965 C   0  0  0  0  0  0  0  0  0  0  0  0
   16.1471  -17.4414  -17.8170 O   0  0  0  0  0  0  0  0  0  0  0  0
  2  1  1  6
  2  9  1  0
  2  3  1  0
  4  3  1  0
  4  5  2  0
  6  5  1  0
  7  6  1  0
  8  7  2  0
  8  4  1  0
  9 10  2  0
 11 12  1  0
 11  9  1  0
 12 13  1  1
 13 14  1  0
 15 16  1  0
 15 14  1  0
 16 17  1  0
 18 19  2  0
 18 12  1  0
 20 21  1  0
 21 31  2  0
 21 22  1  0
 22 23  2  0
 23 24  1  0
 24 25  1  0
 26 25  1  6
 26 28  1  0
 26 27  1  0
 27 18  1  0
 28 29  1  0
 30 24  2  0
 31 30  1  0
 32 28  2  0
M  END
$$$$
