HKY.pdb
     RDKit          3D

 32 33  0  0  1  0  0  0  0  0999 V2000
   23.9856  -15.5167  -21.2049 N   0  0  0  0  0  0  0  0  0  0  0  0
   23.8510  -15.6820  -19.7744 C   0  0  1  0  0  0  0  0  0  0  0  0
   22.6686  -14.8794  -19.2799 C   0  0  0  0  0  0  0  0  0  0  0  0
   22.9714  -13.4325  -19.3929 C   0  0  0  0  0  0  0  0  0  0  0  0
   24.1939  -12.8163  -19.6486 C   0  0  0  0  0  0  0  0  0  0  0  0
   23.9761  -11.4894  -19.6587 N   0  0  0  0  0  0  0  0  0  0  0  0
   22.6677  -11.2953  -19.4180 C   0  0  0  0  0  0  0  0  0  0  0  0
   22.0487  -12.4748  -19.2550 N   0  0  0  0  0  0  0  0  0  0  0  0
   23.6412  -17.1258  -19.4974 C   0  0  0  0  0  0  0  0  0  0  0  0
   22.6238  -17.6845  -19.9572 O   0  0  0  0  0  0  0  0  0  0  0  0
   24.5515  -17.8711  -18.7375 N   0  0  0  0  0  0  0  0  0  0  0  0
   24.4282  -19.2934  -18.4467 C   0  0  1  0  0  0  0  0  0  0  0  0
   25.7424  -19.9245  -18.6720 C   0  0  0  0  0  0  0  0  0  0  0  0
   26.1551  -20.0757  -20.1048 C   0  0  0  0  0  0  0  0  0  0  0  0
   27.5325  -20.6823  -20.1681 C   0  0  0  0  0  0  0  0  0  0  0  0
   28.0734  -20.6870  -21.5883 C   0  0  0  0  0  0  0  0  0  0  0  0
   29.4095  -21.2517  -21.5480 N   0  0  0  0  0  0  0  0  0  0  0  0
   23.8993  -19.4911  -17.0734 C   0  0  0  0  0  0  0  0  0  0  0  0
   24.4881  -18.9040  -16.1325 O   0  0  0  0  0  0  0  0  0  0  0  0
   19.6773  -19.4236   -9.6212 O   0  0  0  0  0  0  0  0  0  0  0  0
   20.2635  -19.3697  -10.8980 C   0  0  0  0  0  0  0  0  0  0  0  0
   21.6345  -19.4387  -11.0106 C   0  0  0  0  0  0  0  0  0  0  0  0
   22.2233  -19.3867  -12.2619 C   0  0  0  0  0  0  0  0  0  0  0  0
   21.4854  -19.2667  -13.4196 C   0  0  0  0  0  0  0  0  0  0  0  0
   22.1253  -19.2114  -14.7350 C   0  0  0  0  0  0  0  0  0  0  0  0
   22.3590  -20.5556  -15.3803 C   0  0  2  0  0  0  0  0  0  0  0  0
   22.7908  -20.2866  -16.7613 N   0  0  0  0  0  0  0  0  0  0  0  0
   21.1225  -21.3704  -15.4819 C   0  0  0  0  0  0  0  0  0  0  0  0
   20.3807  -21.4683  -16.6317 O   0  0  0  0  0  0  0  0  0  0  0  0
   20.1133  -19.1987  -13.2894 C   0  0  0  0  0  0  0  0  0  0  0  0
   19.4971  -19.2491  -12.0417 C   0  0  0  0  0  0  0  0  0  0  0  0
   20.7238  -22.0146  -14.4524 O   0  0  0  0  0  0  0  0  0  0  0  0
  2  1  1  6
  2  9  1  0
  2  3  1  0
  4  3  1  0
  4  5  2  0
  6  5  1  0
  7  6  1  0
  8  7  2  0
  8  4  1  0
  9 10  2  0
 11 12  1  0
 11  9  1  0
 12 13  1  1
 13 14  1  0
 15 16  1  0
 15 14  1  0
 16 17  1  0
 18 19  2  0
 18 12  1  0
 20 21  1  0
 21 31  2  0
 21 22  1  0
 22 23  2  0
 23 24  1  0
 24 25  1  0
 26 25  1  6
 26 28  1  0
 26 27  1  0
 27 18  1  0
 28 29  1  0
 30 24  2  0
 31 30  1  0
 32 28  2  0
M  END
$$$$
