HKY.pdb
     RDKit          3D

 32 33  0  0  1  0  0  0  0  0999 V2000
   25.1781  -19.4817  -21.0766 N   0  0  0  0  0  0  0  0  0  0  0  0
   24.0010  -20.0522  -20.4596 C   0  0  1  0  0  0  0  0  0  0  0  0
   24.1946  -21.5408  -20.2772 C   0  0  0  0  0  0  0  0  0  0  0  0
   23.6973  -22.2547  -21.4776 C   0  0  0  0  0  0  0  0  0  0  0  0
   24.3100  -23.2764  -22.1990 C   0  0  0  0  0  0  0  0  0  0  0  0
   23.4803  -23.6062  -23.2045 N   0  0  0  0  0  0  0  0  0  0  0  0
   22.3964  -22.8168  -23.1062 C   0  0  0  0  0  0  0  0  0  0  0  0
   22.5213  -21.9905  -22.0562 N   0  0  0  0  0  0  0  0  0  0  0  0
   23.8104  -19.3956  -19.1413 C   0  0  0  0  0  0  0  0  0  0  0  0
   24.7868  -18.8345  -18.6025 O   0  0  0  0  0  0  0  0  0  0  0  0
   22.5694  -19.3908  -18.4921 N   0  0  0  0  0  0  0  0  0  0  0  0
   22.2800  -18.6858  -17.2503 C   0  0  1  0  0  0  0  0  0  0  0  0
   20.8819  -18.2181  -17.3020 C   0  0  0  0  0  0  0  0  0  0  0  0
   20.6801  -16.7461  -17.1058 C   0  0  0  0  0  0  0  0  0  0  0  0
   19.2152  -16.4195  -17.2358 C   0  0  0  0  0  0  0  0  0  0  0  0
   18.9694  -14.9223  -17.1496 C   0  0  0  0  0  0  0  0  0  0  0  0
   17.5625  -14.6915  -17.4199 N   0  0  0  0  0  0  0  0  0  0  0  0
   22.5741  -19.5587  -16.0857 C   0  0  0  0  0  0  0  0  0  0  0  0
   22.2005  -20.7560  -16.1462 O   0  0  0  0  0  0  0  0  0  0  0  0
   25.6081  -21.7853   -7.9433 O   0  0  0  0  0  0  0  0  0  0  0  0
   25.3359  -21.1746   -9.1801 C   0  0  0  0  0  0  0  0  0  0  0  0
   26.1801  -21.4063  -10.2434 C   0  0  0  0  0  0  0  0  0  0  0  0
   25.9227  -20.8109  -11.4658 C   0  0  0  0  0  0  0  0  0  0  0  0
   24.8406  -19.9823  -11.6691 C   0  0  0  0  0  0  0  0  0  0  0  0
   24.5845  -19.3595  -12.9689 C   0  0  0  0  0  0  0  0  0  0  0  0
   23.4977  -20.0194  -13.7820 C   0  0  2  0  0  0  0  0  0  0  0  0
   23.2386  -19.1346  -14.9291 N   0  0  0  0  0  0  0  0  0  0  0  0
   22.2140  -20.1334  -13.0458 C   0  0  0  0  0  0  0  0  0  0  0  0
   21.2851  -19.1252  -12.9965 O   0  0  0  0  0  0  0  0  0  0  0  0
   24.0046  -19.7605  -10.5938 C   0  0  0  0  0  0  0  0  0  0  0  0
   24.2421  -20.3479   -9.3539 C   0  0  0  0  0  0  0  0  0  0  0  0
   21.9548  -21.2206  -12.4255 O   0  0  0  0  0  0  0  0  0  0  0  0
  2  1  1  1
  2  9  1  0
  2  3  1  0
  4  3  1  0
  4  5  2  0
  6  5  1  0
  7  6  1  0
  8  7  2  0
  8  4  1  0
  9 10  2  0
 11 12  1  0
 11  9  1  0
 12 13  1  6
 13 14  1  0
 15 16  1  0
 15 14  1  0
 16 17  1  0
 18 19  2  0
 18 12  1  0
 20 21  1  0
 21 31  2  0
 21 22  1  0
 22 23  2  0
 23 24  1  0
 24 25  1  0
 26 25  1  1
 26 28  1  0
 26 27  1  0
 27 18  1  0
 28 29  1  0
 30 24  2  0
 31 30  1  0
 32 28  2  0
M  END
$$$$
