HKY.pdb
     RDKit          3D

 32 33  0  0  1  0  0  0  0  0999 V2000
   23.0887  -31.5685  -16.5041 N   0  0  0  0  0  0  0  0  0  0  0  0
   22.2669  -32.0981  -15.4384 C   0  0  1  0  0  0  0  0  0  0  0  0
   22.4203  -33.6014  -15.3784 C   0  0  0  0  0  0  0  0  0  0  0  0
   21.7568  -34.2132  -16.5546 C   0  0  0  0  0  0  0  0  0  0  0  0
   22.3324  -34.9098  -17.6143 C   0  0  0  0  0  0  0  0  0  0  0  0
   21.3351  -35.2737  -18.4396 N   0  0  0  0  0  0  0  0  0  0  0  0
   20.1874  -34.8180  -17.9079 C   0  0  0  0  0  0  0  0  0  0  0  0
   20.4362  -34.1707  -16.7591 N   0  0  0  0  0  0  0  0  0  0  0  0
   22.7193  -31.4863  -14.1632 C   0  0  0  0  0  0  0  0  0  0  0  0
   23.9304  -31.2191  -14.0211 O   0  0  0  0  0  0  0  0  0  0  0  0
   21.8254  -31.2036  -13.1226 N   0  0  0  0  0  0  0  0  0  0  0  0
   22.1895  -30.5845  -11.8549 C   0  0  1  0  0  0  0  0  0  0  0  0
   20.9853  -29.9430  -11.2939 C   0  0  0  0  0  0  0  0  0  0  0  0
   20.6981  -28.5562  -11.7843 C   0  0  0  0  0  0  0  0  0  0  0  0
   19.4641  -28.0284  -11.1000 C   0  0  0  0  0  0  0  0  0  0  0  0
   19.1574  -26.6029  -11.5281 C   0  0  0  0  0  0  0  0  0  0  0  0
   18.0596  -26.1243  -10.7087 N   0  0  0  0  0  0  0  0  0  0  0  0
   22.8048  -31.5901  -10.9523 C   0  0  0  0  0  0  0  0  0  0  0  0
   22.3912  -32.7732  -11.0304 O   0  0  0  0  0  0  0  0  0  0  0  0
   28.3256  -35.0141   -4.7858 O   0  0  0  0  0  0  0  0  0  0  0  0
   27.6767  -34.2095   -5.7390 C   0  0  0  0  0  0  0  0  0  0  0  0
   26.6990  -33.3329   -5.3234 C   0  0  0  0  0  0  0  0  0  0  0  0
   26.0531  -32.5357   -6.2520 C   0  0  0  0  0  0  0  0  0  0  0  0
   26.3503  -32.5814   -7.5968 C   0  0  0  0  0  0  0  0  0  0  0  0
   25.6556  -31.7318   -8.5656 C   0  0  0  0  0  0  0  0  0  0  0  0
   24.3799  -32.3183   -9.1190 C   0  0  2  0  0  0  0  0  0  0  0  0
   23.8125  -31.3056  -10.0236 N   0  0  0  0  0  0  0  0  0  0  0  0
   23.3555  -32.5632   -8.0732 C   0  0  0  0  0  0  0  0  0  0  0  0
   23.3004  -33.7161   -7.3319 O   0  0  0  0  0  0  0  0  0  0  0  0
   27.3322  -33.4648   -7.9966 C   0  0  0  0  0  0  0  0  0  0  0  0
   27.9965  -34.2775   -7.0817 C   0  0  0  0  0  0  0  0  0  0  0  0
   22.4791  -31.6605   -7.8470 O   0  0  0  0  0  0  0  0  0  0  0  0
  2  1  1  6
  2  9  1  0
  2  3  1  0
  4  3  1  0
  4  5  2  0
  6  5  1  0
  7  6  1  0
  8  7  2  0
  8  4  1  0
  9 10  2  0
 11 12  1  0
 11  9  1  0
 12 13  1  1
 13 14  1  0
 15 16  1  0
 15 14  1  0
 16 17  1  0
 18 19  2  0
 18 12  1  0
 20 21  1  0
 21 31  2  0
 21 22  1  0
 22 23  2  0
 23 24  1  0
 24 25  1  0
 26 25  1  1
 26 28  1  0
 26 27  1  0
 27 18  1  0
 28 29  1  0
 30 24  2  0
 31 30  1  0
 32 28  2  0
M  END
$$$$
