HKY.pdb
     RDKit          3D

 32 33  0  0  1  0  0  0  0  0999 V2000
   18.1747  -14.2399  -18.7256 N   0  0  0  0  0  0  0  0  0  0  0  0
   18.4763  -12.9459  -19.2969 C   0  0  1  0  0  0  0  0  0  0  0  0
   17.3924  -11.9604  -18.9215 C   0  0  0  0  0  0  0  0  0  0  0  0
   16.1630  -12.2598  -19.6942 C   0  0  0  0  0  0  0  0  0  0  0  0
   15.7694  -11.7585  -20.9324 C   0  0  0  0  0  0  0  0  0  0  0  0
   14.5833  -12.3182  -21.2293 N   0  0  0  0  0  0  0  0  0  0  0  0
   14.2582  -13.1342  -20.2114 C   0  0  0  0  0  0  0  0  0  0  0  0
   15.2161  -13.1040  -19.2720 N   0  0  0  0  0  0  0  0  0  0  0  0
   19.7845  -12.4989  -18.7547 C   0  0  0  0  0  0  0  0  0  0  0  0
   20.0560  -12.7442  -17.5611 O   0  0  0  0  0  0  0  0  0  0  0  0
   20.7151  -11.8129  -19.5452 N   0  0  0  0  0  0  0  0  0  0  0  0
   22.0171  -11.3467  -19.0864 C   0  0  1  0  0  0  0  0  0  0  0  0
   23.0167  -11.6872  -20.1165 C   0  0  0  0  0  0  0  0  0  0  0  0
   24.4259  -11.2735  -19.8181 C   0  0  0  0  0  0  0  0  0  0  0  0
   25.3016  -11.5866  -21.0033 C   0  0  0  0  0  0  0  0  0  0  0  0
   26.7599  -11.2697  -20.7164 C   0  0  0  0  0  0  0  0  0  0  0  0
   27.5034  -11.4695  -21.9464 N   0  0  0  0  0  0  0  0  0  0  0  0
   21.9587   -9.8976  -18.7679 C   0  0  0  0  0  0  0  0  0  0  0  0
   21.3307   -9.1522  -19.5595 O   0  0  0  0  0  0  0  0  0  0  0  0
   22.9946   -2.3405  -14.0713 O   0  0  0  0  0  0  0  0  0  0  0  0
   23.0081   -3.6667  -14.5382 C   0  0  0  0  0  0  0  0  0  0  0  0
   24.0204   -4.0716  -15.3799 C   0  0  0  0  0  0  0  0  0  0  0  0
   24.0446   -5.3744  -15.8461 C   0  0  0  0  0  0  0  0  0  0  0  0
   23.0840   -6.2996  -15.4993 C   0  0  0  0  0  0  0  0  0  0  0  0
   23.1244   -7.6734  -16.0033 C   0  0  0  0  0  0  0  0  0  0  0  0
   22.4499   -7.8760  -17.3382 C   0  0  2  0  0  0  0  0  0  0  0  0
   22.5564   -9.3111  -17.6464 N   0  0  0  0  0  0  0  0  0  0  0  0
   23.1329   -7.1607  -18.4450 C   0  0  0  0  0  0  0  0  0  0  0  0
   24.3629   -7.5272  -18.9293 O   0  0  0  0  0  0  0  0  0  0  0  0
   22.0770   -5.8779  -14.6553 C   0  0  0  0  0  0  0  0  0  0  0  0
   22.0306   -4.5725  -14.1728 C   0  0  0  0  0  0  0  0  0  0  0  0
   22.5528   -6.1536  -18.9773 O   0  0  0  0  0  0  0  0  0  0  0  0
  2  1  1  1
  2  9  1  0
  2  3  1  0
  4  3  1  0
  4  5  2  0
  6  5  1  0
  7  6  1  0
  8  7  2  0
  8  4  1  0
  9 10  2  0
 11 12  1  0
 11  9  1  0
 12 13  1  6
 13 14  1  0
 15 16  1  0
 15 14  1  0
 16 17  1  0
 18 19  2  0
 18 12  1  0
 20 21  1  0
 21 31  2  0
 21 22  1  0
 22 23  2  0
 23 24  1  0
 24 25  1  0
 26 25  1  1
 26 28  1  0
 26 27  1  0
 27 18  1  0
 28 29  1  0
 30 24  2  0
 31 30  1  0
 32 28  2  0
M  END
$$$$
