HKY.pdb
     RDKit          3D

 32 33  0  0  1  0  0  0  0  0999 V2000
   21.0864  -13.4886  -20.1089 N   0  0  0  0  0  0  0  0  0  0  0  0
   21.5655  -12.9495  -18.8553 C   0  0  1  0  0  0  0  0  0  0  0  0
   22.9947  -12.4823  -19.0171 C   0  0  0  0  0  0  0  0  0  0  0  0
   23.8653  -13.6464  -19.3082 C   0  0  0  0  0  0  0  0  0  0  0  0
   24.3984  -14.0510  -20.5295 C   0  0  0  0  0  0  0  0  0  0  0  0
   25.1236  -15.1597  -20.2993 N   0  0  0  0  0  0  0  0  0  0  0  0
   25.0403  -15.4282  -18.9845 C   0  0  0  0  0  0  0  0  0  0  0  0
   24.2752  -14.5104  -18.3738 N   0  0  0  0  0  0  0  0  0  0  0  0
   20.6926  -11.8070  -18.4840 C   0  0  0  0  0  0  0  0  0  0  0  0
   20.4769  -10.9153  -19.3306 O   0  0  0  0  0  0  0  0  0  0  0  0
   20.1091  -11.7065  -17.2147 N   0  0  0  0  0  0  0  0  0  0  0  0
   19.1757  -10.6653  -16.8055 C   0  0  1  0  0  0  0  0  0  0  0  0
   18.0932  -11.2977  -16.0280 C   0  0  0  0  0  0  0  0  0  0  0  0
   17.0637  -10.3643  -15.4667 C   0  0  0  0  0  0  0  0  0  0  0  0
   15.9869  -11.1616  -14.7782 C   0  0  0  0  0  0  0  0  0  0  0  0
   14.9837  -10.2566  -14.0824 C   0  0  0  0  0  0  0  0  0  0  0  0
   14.0175  -11.1058  -13.4108 N   0  0  0  0  0  0  0  0  0  0  0  0
   19.8937   -9.5957  -16.0672 C   0  0  0  0  0  0  0  0  0  0  0  0
   20.6748   -9.9457  -15.1484 O   0  0  0  0  0  0  0  0  0  0  0  0
   22.3807   -1.1976  -14.1351 O   0  0  0  0  0  0  0  0  0  0  0  0
   21.9913   -2.4142  -14.7226 C   0  0  0  0  0  0  0  0  0  0  0  0
   22.9388   -3.3916  -14.9329 C   0  0  0  0  0  0  0  0  0  0  0  0
   22.5680   -4.5933  -15.5104 C   0  0  0  0  0  0  0  0  0  0  0  0
   21.2704   -4.8591  -15.8907 C   0  0  0  0  0  0  0  0  0  0  0  0
   20.8962   -6.1356  -16.5020 C   0  0  0  0  0  0  0  0  0  0  0  0
   20.4220   -7.1867  -15.5283 C   0  0  2  0  0  0  0  0  0  0  0  0
   19.7567   -8.2275  -16.3284 N   0  0  0  0  0  0  0  0  0  0  0  0
   19.4022   -6.6762  -14.5784 C   0  0  0  0  0  0  0  0  0  0  0  0
   19.7163   -6.1511  -13.3507 O   0  0  0  0  0  0  0  0  0  0  0  0
   20.3335   -3.8696  -15.6732 C   0  0  0  0  0  0  0  0  0  0  0  0
   20.6816   -2.6522  -15.0938 C   0  0  0  0  0  0  0  0  0  0  0  0
   18.1697   -6.7251  -14.9139 O   0  0  0  0  0  0  0  0  0  0  0  0
  2  1  1  6
  2  9  1  0
  2  3  1  0
  4  3  1  0
  4  5  2  0
  6  5  1  0
  7  6  1  0
  8  7  2  0
  8  4  1  0
  9 10  2  0
 11 12  1  0
 11  9  1  0
 12 13  1  1
 13 14  1  0
 15 16  1  0
 15 14  1  0
 16 17  1  0
 18 19  2  0
 18 12  1  0
 20 21  1  0
 21 31  2  0
 21 22  1  0
 22 23  2  0
 23 24  1  0
 24 25  1  0
 26 25  1  6
 26 28  1  0
 26 27  1  0
 27 18  1  0
 28 29  1  0
 30 24  2  0
 31 30  1  0
 32 28  2  0
M  END
$$$$
