HKY.pdb
     RDKit          3D

 32 33  0  0  1  0  0  0  0  0999 V2000
   27.5389  -20.6863  -17.5663 N   0  0  0  0  0  0  0  0  0  0  0  0
   27.3552  -21.6358  -16.4910 C   0  0  1  0  0  0  0  0  0  0  0  0
   28.7029  -22.1239  -16.0092 C   0  0  0  0  0  0  0  0  0  0  0  0
   29.3140  -22.9906  -17.0453 C   0  0  0  0  0  0  0  0  0  0  0  0
   28.7966  -23.3650  -18.2829 C   0  0  0  0  0  0  0  0  0  0  0  0
   29.7094  -24.1571  -18.8724 N   0  0  0  0  0  0  0  0  0  0  0  0
   30.7507  -24.2668  -18.0289 C   0  0  0  0  0  0  0  0  0  0  0  0
   30.5171  -23.5586  -16.9133 N   0  0  0  0  0  0  0  0  0  0  0  0
   26.6365  -20.9471  -15.3890 C   0  0  0  0  0  0  0  0  0  0  0  0
   27.1267  -19.9028  -14.9119 O   0  0  0  0  0  0  0  0  0  0  0  0
   25.4295  -21.4379  -14.8753 N   0  0  0  0  0  0  0  0  0  0  0  0
   24.6745  -20.8261  -13.7897 C   0  0  1  0  0  0  0  0  0  0  0  0
   23.2574  -21.2060  -13.9439 C   0  0  0  0  0  0  0  0  0  0  0  0
   22.3310  -20.7130  -12.8739 C   0  0  0  0  0  0  0  0  0  0  0  0
   20.9367  -21.2128  -13.1490 C   0  0  0  0  0  0  0  0  0  0  0  0
   20.2311  -21.6258  -11.8680 C   0  0  0  0  0  0  0  0  0  0  0  0
   20.2161  -23.0761  -11.8224 N   0  0  0  0  0  0  0  0  0  0  0  0
   25.2565  -21.2133  -12.4798 C   0  0  0  0  0  0  0  0  0  0  0  0
   25.4786  -22.4328  -12.2788 O   0  0  0  0  0  0  0  0  0  0  0  0
   29.1885  -20.0990   -4.5217 O   0  0  0  0  0  0  0  0  0  0  0  0
   28.7307  -20.0493   -5.8501 C   0  0  0  0  0  0  0  0  0  0  0  0
   27.7289  -19.1642   -6.1821 C   0  0  0  0  0  0  0  0  0  0  0  0
   27.2698  -19.1059   -7.4863 C   0  0  0  0  0  0  0  0  0  0  0  0
   27.7796  -19.9082   -8.4840 C   0  0  0  0  0  0  0  0  0  0  0  0
   27.2807  -19.8343   -9.8583 C   0  0  0  0  0  0  0  0  0  0  0  0
   26.1016  -20.7298  -10.1507 C   0  0  2  0  0  0  0  0  0  0  0  0
   25.5725  -20.3101  -11.4583 N   0  0  0  0  0  0  0  0  0  0  0  0
   24.9925  -20.5604   -9.1790 C   0  0  0  0  0  0  0  0  0  0  0  0
   23.9014  -19.7638   -9.4170 O   0  0  0  0  0  0  0  0  0  0  0  0
   28.7827  -20.7893   -8.1349 C   0  0  0  0  0  0  0  0  0  0  0  0
   29.2617  -20.8668   -6.8297 C   0  0  0  0  0  0  0  0  0  0  0  0
   25.0502  -21.1839   -8.0645 O   0  0  0  0  0  0  0  0  0  0  0  0
  2  1  1  6
  2  9  1  0
  2  3  1  0
  4  3  1  0
  4  5  2  0
  6  5  1  0
  7  6  1  0
  8  7  2  0
  8  4  1  0
  9 10  2  0
 11 12  1  0
 11  9  1  0
 12 13  1  1
 13 14  1  0
 15 16  1  0
 15 14  1  0
 16 17  1  0
 18 19  2  0
 18 12  1  0
 20 21  1  0
 21 31  2  0
 21 22  1  0
 22 23  2  0
 23 24  1  0
 24 25  1  0
 26 25  1  1
 26 28  1  0
 26 27  1  0
 27 18  1  0
 28 29  1  0
 30 24  2  0
 31 30  1  0
 32 28  2  0
M  END
$$$$
