HKY.pdb
     RDKit          3D

 32 33  0  0  1  0  0  0  0  0999 V2000
   24.4818  -32.2470  -11.6245 N   0  0  0  0  0  0  0  0  0  0  0  0
   24.9553  -33.3888  -10.8737 C   0  0  1  0  0  0  0  0  0  0  0  0
   26.2086  -33.9362  -11.5191 C   0  0  0  0  0  0  0  0  0  0  0  0
   25.8631  -34.5602  -12.8189 C   0  0  0  0  0  0  0  0  0  0  0  0
   24.9636  -35.5914  -13.0777 C   0  0  0  0  0  0  0  0  0  0  0  0
   24.9874  -35.8166  -14.4032 N   0  0  0  0  0  0  0  0  0  0  0  0
   25.8691  -34.9558  -14.9411 C   0  0  0  0  0  0  0  0  0  0  0  0
   26.4069  -34.1869  -13.9818 N   0  0  0  0  0  0  0  0  0  0  0  0
   25.2477  -32.9380   -9.4893 C   0  0  0  0  0  0  0  0  0  0  0  0
   25.9209  -31.8997   -9.3248 O   0  0  0  0  0  0  0  0  0  0  0  0
   24.7891  -33.6454   -8.3708 N   0  0  0  0  0  0  0  0  0  0  0  0
   25.0960  -33.3083   -6.9870 C   0  0  1  0  0  0  0  0  0  0  0  0
   23.8966  -33.5776   -6.1713 C   0  0  0  0  0  0  0  0  0  0  0  0
   24.0569  -33.3829   -4.6939 C   0  0  0  0  0  0  0  0  0  0  0  0
   22.7355  -33.6212   -4.0109 C   0  0  0  0  0  0  0  0  0  0  0  0
   22.8559  -33.4813   -2.5025 C   0  0  0  0  0  0  0  0  0  0  0  0
   21.5641  -33.8055   -1.9264 N   0  0  0  0  0  0  0  0  0  0  0  0
   26.3023  -34.0472   -6.5357 C   0  0  0  0  0  0  0  0  0  0  0  0
   26.4119  -35.2495   -6.8810 O   0  0  0  0  0  0  0  0  0  0  0  0
   34.5153  -35.7178   -3.5422 O   0  0  0  0  0  0  0  0  0  0  0  0
   33.3145  -35.1428   -3.9942 C   0  0  0  0  0  0  0  0  0  0  0  0
   32.9837  -35.2408   -5.3277 C   0  0  0  0  0  0  0  0  0  0  0  0
   31.8044  -34.6790   -5.7847 C   0  0  0  0  0  0  0  0  0  0  0  0
   30.9321  -34.0146   -4.9500 C   0  0  0  0  0  0  0  0  0  0  0  0
   29.6896  -33.4248   -5.4511 C   0  0  0  0  0  0  0  0  0  0  0  0
   28.4593  -34.2741   -5.2441 C   0  0  2  0  0  0  0  0  0  0  0  0
   27.3213  -33.4919   -5.7531 N   0  0  0  0  0  0  0  0  0  0  0  0
   28.1747  -34.5392   -3.8117 C   0  0  0  0  0  0  0  0  0  0  0  0
   28.6290  -35.6516   -3.1497 O   0  0  0  0  0  0  0  0  0  0  0  0
   31.2783  -33.9254   -3.6172 C   0  0  0  0  0  0  0  0  0  0  0  0
   32.4591  -34.4823   -3.1329 C   0  0  0  0  0  0  0  0  0  0  0  0
   27.4732  -33.6946   -3.1571 O   0  0  0  0  0  0  0  0  0  0  0  0
  2  1  1  6
  2  9  1  0
  2  3  1  0
  4  3  1  0
  4  5  2  0
  6  5  1  0
  7  6  1  0
  8  7  2  0
  8  4  1  0
  9 10  2  0
 11 12  1  0
 11  9  1  0
 12 13  1  1
 13 14  1  0
 15 16  1  0
 15 14  1  0
 16 17  1  0
 18 19  2  0
 18 12  1  0
 20 21  1  0
 21 31  2  0
 21 22  1  0
 22 23  2  0
 23 24  1  0
 24 25  1  0
 26 25  1  1
 26 28  1  0
 26 27  1  0
 27 18  1  0
 28 29  1  0
 30 24  2  0
 31 30  1  0
 32 28  2  0
M  END
$$$$
