HKY.pdb
     RDKit          3D

 32 33  0  0  1  0  0  0  0  0999 V2000
   22.6180  -15.0250  -20.0993 N   0  0  0  0  0  0  0  0  0  0  0  0
   23.0757  -13.9199  -20.9124 C   0  0  1  0  0  0  0  0  0  0  0  0
   21.8952  -13.0676  -21.3211 C   0  0  0  0  0  0  0  0  0  0  0  0
   21.0184  -13.8418  -22.2320 C   0  0  0  0  0  0  0  0  0  0  0  0
   21.2068  -14.1362  -23.5801 C   0  0  0  0  0  0  0  0  0  0  0  0
   20.1483  -14.8626  -23.9803 N   0  0  0  0  0  0  0  0  0  0  0  0
   19.3377  -15.0102  -22.9179 C   0  0  0  0  0  0  0  0  0  0  0  0
   19.8612  -14.3909  -21.8487 N   0  0  0  0  0  0  0  0  0  0  0  0
   24.0291  -13.1192  -20.1030 C   0  0  0  0  0  0  0  0  0  0  0  0
   23.6834  -12.7447  -18.9634 O   0  0  0  0  0  0  0  0  0  0  0  0
   25.2989  -12.7763  -20.5845 N   0  0  0  0  0  0  0  0  0  0  0  0
   26.2663  -11.9514  -19.8729 C   0  0  1  0  0  0  0  0  0  0  0  0
   27.6178  -12.3389  -20.3195 C   0  0  0  0  0  0  0  0  0  0  0  0
   28.7468  -11.5317  -19.7538 C   0  0  0  0  0  0  0  0  0  0  0  0
   30.0455  -11.9901  -20.3644 C   0  0  0  0  0  0  0  0  0  0  0  0
   31.2132  -11.1408  -19.8904 C   0  0  0  0  0  0  0  0  0  0  0  0
   32.4159  -11.6589  -20.5156 N   0  0  0  0  0  0  0  0  0  0  0  0
   25.9605  -10.5128  -20.0770 C   0  0  0  0  0  0  0  0  0  0  0  0
   25.9116  -10.0897  -21.2583 O   0  0  0  0  0  0  0  0  0  0  0  0
   21.4911   -8.9688  -14.2266 O   0  0  0  0  0  0  0  0  0  0  0  0
   22.0968   -8.7185  -15.4705 C   0  0  0  0  0  0  0  0  0  0  0  0
   22.2317   -9.7517  -16.3713 C   0  0  0  0  0  0  0  0  0  0  0  0
   22.8261   -9.5179  -17.5990 C   0  0  0  0  0  0  0  0  0  0  0  0
   23.2970   -8.2758  -17.9656 C   0  0  0  0  0  0  0  0  0  0  0  0
   23.9248   -8.0469  -19.2681 C   0  0  0  0  0  0  0  0  0  0  0  0
   25.4282   -8.1788  -19.2760 C   0  0  2  0  0  0  0  0  0  0  0  0
   25.7240   -9.6013  -19.0415 N   0  0  0  0  0  0  0  0  0  0  0  0
   26.0795   -7.4307  -18.1719 C   0  0  0  0  0  0  0  0  0  0  0  0
   26.7839   -8.0408  -17.1652 O   0  0  0  0  0  0  0  0  0  0  0  0
   23.1542   -7.2516  -17.0519 C   0  0  0  0  0  0  0  0  0  0  0  0
   22.5596   -7.4615  -15.8103 C   0  0  0  0  0  0  0  0  0  0  0  0
   25.9836   -6.1561  -18.1517 O   0  0  0  0  0  0  0  0  0  0  0  0
  2  1  1  1
  2  9  1  0
  2  3  1  0
  4  3  1  0
  4  5  2  0
  6  5  1  0
  7  6  1  0
  8  7  2  0
  8  4  1  0
  9 10  2  0
 11 12  1  0
 11  9  1  0
 12 13  1  6
 13 14  1  0
 15 16  1  0
 15 14  1  0
 16 17  1  0
 18 19  2  0
 18 12  1  0
 20 21  1  0
 21 31  2  0
 21 22  1  0
 22 23  2  0
 23 24  1  0
 24 25  1  0
 26 25  1  1
 26 28  1  0
 26 27  1  0
 27 18  1  0
 28 29  1  0
 30 24  2  0
 31 30  1  0
 32 28  2  0
M  END
$$$$
