DCE.pdb
     RDKit          3D

 24 23  0  0  1  0  0  0  0  0999 V2000
    8.7354  -14.8928   20.6066 N   0  0  0  0  0  0  0  0  0  0  0  0
    8.2733  -15.7024   21.7380 C   0  0  1  0  0  0  0  0  0  0  0  0
    9.0762  -16.9820   21.7152 C   0  0  0  0  0  0  0  0  0  0  0  0
    8.9542  -17.6620   20.4272 C   0  0  0  0  0  0  0  0  0  0  0  0
    9.5781  -18.6984   20.0695 O   0  0  0  0  0  0  0  0  0  0  0  0
    8.6395  -14.9601   22.9695 C   0  0  0  0  0  0  0  0  0  0  0  0
    9.8108  -14.9811   23.3479 O   0  0  0  0  0  0  0  0  0  0  0  0
    8.0671  -17.1439   19.4655 O   0  0  0  0  0  0  0  0  0  0  0  0
    7.6964  -14.2248   23.7322 N   0  0  0  0  0  0  0  0  0  0  0  0
    7.8751  -13.7228   25.0360 C   0  0  1  0  0  0  0  0  0  0  0  0
    6.7618  -12.9212   25.6019 C   0  0  0  0  0  0  0  0  0  0  0  0
    7.2205  -12.4284   27.2884 S   0  0  0  0  0  0  0  0  0  0  0  0
    8.1957  -14.8249   25.9705 C   0  0  0  0  0  0  0  0  0  0  0  0
    7.3030  -15.6832   26.2057 O   0  0  0  0  0  0  0  0  0  0  0  0
    9.4234  -14.9856   26.6154 N   0  0  0  0  0  0  0  0  0  0  0  0
    9.6572  -16.0986   27.5671 C   0  0  1  0  0  0  0  0  0  0  0  0
   10.7235  -16.9950   27.0025 C   0  0  0  0  0  0  0  0  0  0  0  0
   11.9693  -16.3201   26.5809 C   0  0  0  0  0  0  0  0  0  0  0  0
   12.5994  -16.9470   25.4172 C   0  0  0  0  0  0  0  0  0  0  0  0
   12.0437  -17.9482   24.8822 O   0  0  0  0  0  0  0  0  0  0  0  0
   10.1058  -15.5494   28.8628 C   0  0  0  0  0  0  0  0  0  0  0  0
   10.2162  -14.2956   28.9858 O   0  0  0  0  0  0  0  0  0  0  0  0
   13.7835  -16.5386   24.8262 O   0  0  0  0  0  0  0  0  0  0  0  0
   10.4017  -16.3534   29.9290 O   0  0  0  0  0  0  0  0  0  0  0  0
  2  1  1  6
  2  3  1  0
  3  4  1  0
  4  8  1  0
  5  4  2  0
  6  2  1  0
  7  6  2  0
  9  6  1  0
 10 13  1  0
 10  9  1  0
 10 11  1  1
 12 11  1  0
 13 15  1  0
 14 13  2  0
 15 16  1  0
 16 17  1  6
 16 21  1  0
 17 18  1  0
 19 18  1  0
 20 19  2  0
 21 22  2  0
 21 24  1  0
 23 19  1  0
M  END
$$$$
