DCE.pdb
     RDKit          3D

 24 23  0  0  1  0  0  0  0  0999 V2000
    6.4259  -15.3925   21.2068 N   0  0  0  0  0  0  0  0  0  0  0  0
    7.8657  -15.1375   21.1030 C   0  0  1  0  0  0  0  0  0  0  0  0
    8.0472  -14.0948   20.0249 C   0  0  0  0  0  0  0  0  0  0  0  0
    7.8186  -14.6598   18.6964 C   0  0  0  0  0  0  0  0  0  0  0  0
    7.7436  -15.8861   18.4108 O   0  0  0  0  0  0  0  0  0  0  0  0
    8.2847  -14.5336   22.3919 C   0  0  0  0  0  0  0  0  0  0  0  0
    9.4266  -14.0850   22.4927 O   0  0  0  0  0  0  0  0  0  0  0  0
    7.6618  -13.7872   17.6036 O   0  0  0  0  0  0  0  0  0  0  0  0
    7.4244  -14.4499   23.5165 N   0  0  0  0  0  0  0  0  0  0  0  0
    7.8028  -14.2001   24.8500 C   0  0  1  0  0  0  0  0  0  0  0  0
    6.7158  -13.8560   25.7998 C   0  0  0  0  0  0  0  0  0  0  0  0
    6.9778  -12.1501   26.3645 S   0  0  0  0  0  0  0  0  0  0  0  0
    8.5662  -15.3474   25.3901 C   0  0  0  0  0  0  0  0  0  0  0  0
    8.0180  -16.4824   25.3822 O   0  0  0  0  0  0  0  0  0  0  0  0
    9.8586  -15.2649   25.9112 N   0  0  0  0  0  0  0  0  0  0  0  0
   10.5939  -16.4752   26.3512 C   0  0  1  0  0  0  0  0  0  0  0  0
   11.9595  -16.4603   25.7234 C   0  0  0  0  0  0  0  0  0  0  0  0
   12.8651  -17.5534   26.1360 C   0  0  0  0  0  0  0  0  0  0  0  0
   14.2012  -17.4490   25.5461 C   0  0  0  0  0  0  0  0  0  0  0  0
   15.0511  -18.3534   25.7852 O   0  0  0  0  0  0  0  0  0  0  0  0
   10.7242  -16.4617   27.8225 C   0  0  0  0  0  0  0  0  0  0  0  0
   11.2057  -17.4791   28.3991 O   0  0  0  0  0  0  0  0  0  0  0  0
   14.6405  -16.4229   24.7261 O   0  0  0  0  0  0  0  0  0  0  0  0
   10.3430  -15.3854   28.5755 O   0  0  0  0  0  0  0  0  0  0  0  0
  2  1  1  1
  2  3  1  0
  3  4  1  0
  4  8  1  0
  5  4  2  0
  6  2  1  0
  7  6  2  0
  9  6  1  0
 10 13  1  0
 10  9  1  0
 10 11  1  1
 12 11  1  0
 13 15  1  0
 14 13  2  0
 15 16  1  0
 16 17  1  6
 16 21  1  0
 17 18  1  0
 19 18  1  0
 20 19  2  0
 21 22  2  0
 21 24  1  0
 23 19  1  0
M  END
$$$$
