DCE.pdb
     RDKit          3D

 24 23  0  0  1  0  0  0  0  0999 V2000
    8.6505  -14.7877   19.9515 N   0  0  0  0  0  0  0  0  0  0  0  0
    7.8178  -15.3731   21.0065 C   0  0  1  0  0  0  0  0  0  0  0  0
    8.0025  -16.8704   20.9272 C   0  0  0  0  0  0  0  0  0  0  0  0
    7.4139  -17.4137   19.7046 C   0  0  0  0  0  0  0  0  0  0  0  0
    6.1828  -17.4956   19.4426 O   0  0  0  0  0  0  0  0  0  0  0  0
    8.3846  -14.9148   22.2989 C   0  0  0  0  0  0  0  0  0  0  0  0
    9.6068  -14.9225   22.4459 O   0  0  0  0  0  0  0  0  0  0  0  0
    8.2668  -17.9029   18.6979 O   0  0  0  0  0  0  0  0  0  0  0  0
    7.5775  -14.4666   23.3757 N   0  0  0  0  0  0  0  0  0  0  0  0
    8.0253  -14.0040   24.6285 C   0  0  1  0  0  0  0  0  0  0  0  0
    7.0745  -13.1799   25.4153 C   0  0  0  0  0  0  0  0  0  0  0  0
    7.9130  -12.6457   26.9349 S   0  0  0  0  0  0  0  0  0  0  0  0
    8.4794  -15.1396   25.4622 C   0  0  0  0  0  0  0  0  0  0  0  0
    7.7032  -16.1232   25.6002 O   0  0  0  0  0  0  0  0  0  0  0  0
    9.7135  -15.2025   26.1117 N   0  0  0  0  0  0  0  0  0  0  0  0
   10.1207  -16.4011   26.8842 C   0  0  1  0  0  0  0  0  0  0  0  0
   11.4493  -16.8758   26.3660 C   0  0  0  0  0  0  0  0  0  0  0  0
   12.0411  -18.0259   27.0818 C   0  0  0  0  0  0  0  0  0  0  0  0
   13.3551  -18.4131   26.5643 C   0  0  0  0  0  0  0  0  0  0  0  0
   14.2977  -18.6272   27.3785 O   0  0  0  0  0  0  0  0  0  0  0  0
   10.2438  -16.0452   28.3124 C   0  0  0  0  0  0  0  0  0  0  0  0
   10.2293  -14.8231   28.6375 O   0  0  0  0  0  0  0  0  0  0  0  0
   13.6778  -18.5722   25.2269 O   0  0  0  0  0  0  0  0  0  0  0  0
   10.3701  -16.9944   29.2891 O   0  0  0  0  0  0  0  0  0  0  0  0
  2  1  1  6
  2  3  1  0
  3  4  1  0
  4  8  1  0
  5  4  2  0
  6  2  1  0
  7  6  2  0
  9  6  1  0
 10 13  1  0
 10  9  1  0
 10 11  1  1
 12 11  1  0
 13 15  1  0
 14 13  2  0
 15 16  1  0
 16 17  1  6
 16 21  1  0
 17 18  1  0
 19 18  1  0
 20 19  2  0
 21 22  2  0
 21 24  1  0
 23 19  1  0
M  END
$$$$
