DCE.pdb
     RDKit          3D

 24 23  0  0  1  0  0  0  0  0999 V2000
    7.9766  -17.7015   18.5492 N   0  0  0  0  0  0  0  0  0  0  0  0
    9.4415  -17.6815   18.5985 C   0  0  1  0  0  0  0  0  0  0  0  0
    9.9111  -17.0020   17.3334 C   0  0  0  0  0  0  0  0  0  0  0  0
    9.8869  -17.9211   16.1971 C   0  0  0  0  0  0  0  0  0  0  0  0
    9.4598  -19.1080   16.2074 O   0  0  0  0  0  0  0  0  0  0  0  0
    9.8167  -16.8155   19.7434 C   0  0  0  0  0  0  0  0  0  0  0  0
   10.9746  -16.4047   19.8212 O   0  0  0  0  0  0  0  0  0  0  0  0
   10.3777  -17.4797   14.9543 O   0  0  0  0  0  0  0  0  0  0  0  0
    8.8969  -16.4386   20.7552 N   0  0  0  0  0  0  0  0  0  0  0  0
    9.1901  -15.7405   21.9428 C   0  0  1  0  0  0  0  0  0  0  0  0
    8.0333  -15.2692   22.7439 C   0  0  0  0  0  0  0  0  0  0  0  0
    6.9406  -14.3151   21.6515 S   0  0  0  0  0  0  0  0  0  0  0  0
   10.0749  -16.5512   22.8092 C   0  0  0  0  0  0  0  0  0  0  0  0
    9.7734  -17.7600   23.0013 O   0  0  0  0  0  0  0  0  0  0  0  0
   11.2280  -16.0725   23.4339 N   0  0  0  0  0  0  0  0  0  0  0  0
   12.1174  -16.9710   24.2089 C   0  0  1  0  0  0  0  0  0  0  0  0
   13.5293  -16.4703   24.0848 C   0  0  0  0  0  0  0  0  0  0  0  0
   14.0125  -16.2551   22.7045 C   0  0  0  0  0  0  0  0  0  0  0  0
   15.4047  -15.8052   22.6444 C   0  0  0  0  0  0  0  0  0  0  0  0
   15.9335  -15.3030   23.6766 O   0  0  0  0  0  0  0  0  0  0  0  0
   11.7099  -16.9589   25.6286 C   0  0  0  0  0  0  0  0  0  0  0  0
   12.2950  -17.7375   26.4353 O   0  0  0  0  0  0  0  0  0  0  0  0
   16.2259  -15.8770   21.5314 O   0  0  0  0  0  0  0  0  0  0  0  0
   10.7243  -16.1326   26.0942 O   0  0  0  0  0  0  0  0  0  0  0  0
  2  1  1  6
  2  3  1  0
  3  4  1  0
  4  8  1  0
  5  4  2  0
  6  2  1  0
  7  6  2  0
  9  6  1  0
 10 13  1  0
 10  9  1  0
 10 11  1  1
 12 11  1  0
 13 15  1  0
 14 13  2  0
 15 16  1  0
 16 17  1  1
 16 21  1  0
 17 18  1  0
 19 18  1  0
 20 19  2  0
 21 22  2  0
 21 24  1  0
 23 19  1  0
M  END
$$$$
