DCE.pdb
     RDKit          3D

 24 23  0  0  1  0  0  0  0  0999 V2000
    7.6869  -14.4015   20.2137 N   0  0  0  0  0  0  0  0  0  0  0  0
    7.3652  -15.2752   21.3460 C   0  0  1  0  0  0  0  0  0  0  0  0
    8.1281  -16.5620   21.1342 C   0  0  0  0  0  0  0  0  0  0  0  0
    7.9255  -17.0828   19.7836 C   0  0  0  0  0  0  0  0  0  0  0  0
    8.4828  -18.0987   19.2851 O   0  0  0  0  0  0  0  0  0  0  0  0
    7.9129  -14.6187   22.5587 C   0  0  0  0  0  0  0  0  0  0  0  0
    9.1301  -14.4569   22.6464 O   0  0  0  0  0  0  0  0  0  0  0  0
    7.0316  -16.4171   18.9246 O   0  0  0  0  0  0  0  0  0  0  0  0
    7.0930  -14.1676   23.6246 N   0  0  0  0  0  0  0  0  0  0  0  0
    7.5257  -13.5897   24.8339 C   0  0  1  0  0  0  0  0  0  0  0  0
    6.5464  -12.7410   25.5569 C   0  0  0  0  0  0  0  0  0  0  0  0
    7.3444  -12.1153   27.0634 S   0  0  0  0  0  0  0  0  0  0  0  0
    8.0237  -14.6370   25.7536 C   0  0  0  0  0  0  0  0  0  0  0  0
    7.2745  -15.6218   25.9942 O   0  0  0  0  0  0  0  0  0  0  0  0
    9.2717  -14.6149   26.3789 N   0  0  0  0  0  0  0  0  0  0  0  0
    9.7111  -15.7177   27.2676 C   0  0  1  0  0  0  0  0  0  0  0  0
   10.8902  -16.4018   26.6341 C   0  0  0  0  0  0  0  0  0  0  0  0
   12.0722  -15.5473   26.3937 C   0  0  0  0  0  0  0  0  0  0  0  0
   13.1415  -16.2335   25.6659 C   0  0  0  0  0  0  0  0  0  0  0  0
   13.9060  -15.5604   24.9177 O   0  0  0  0  0  0  0  0  0  0  0  0
   10.1049  -15.1634   28.5788 C   0  0  0  0  0  0  0  0  0  0  0  0
   10.0595  -13.9107   28.7472 O   0  0  0  0  0  0  0  0  0  0  0  0
   13.4059  -17.5921   25.7171 O   0  0  0  0  0  0  0  0  0  0  0  0
   10.5131  -15.9616   29.6117 O   0  0  0  0  0  0  0  0  0  0  0  0
  2  1  1  6
  2  3  1  0
  3  4  1  0
  4  8  1  0
  5  4  2  0
  6  2  1  0
  7  6  2  0
  9  6  1  0
 10 13  1  0
 10  9  1  0
 10 11  1  1
 12 11  1  0
 13 15  1  0
 14 13  2  0
 15 16  1  0
 16 17  1  6
 16 21  1  0
 17 18  1  0
 19 18  1  0
 20 19  2  0
 21 22  2  0
 21 24  1  0
 23 19  1  0
M  END
$$$$
