DCE.pdb
     RDKit          3D

 24 23  0  0  1  0  0  0  0  0999 V2000
    8.6236  -14.6996   19.7021 N   0  0  0  0  0  0  0  0  0  0  0  0
    7.7988  -15.3318   20.7360 C   0  0  1  0  0  0  0  0  0  0  0  0
    7.7813  -16.8122   20.4349 C   0  0  0  0  0  0  0  0  0  0  0  0
    7.2262  -17.0775   19.1090 C   0  0  0  0  0  0  0  0  0  0  0  0
    6.0622  -16.7902   18.7172 O   0  0  0  0  0  0  0  0  0  0  0  0
    8.5104  -15.1403   22.0238 C   0  0  0  0  0  0  0  0  0  0  0  0
    9.7269  -15.3251   22.0618 O   0  0  0  0  0  0  0  0  0  0  0  0
    8.0342  -17.7125   18.1477 O   0  0  0  0  0  0  0  0  0  0  0  0
    7.8487  -14.7519   23.2167 N   0  0  0  0  0  0  0  0  0  0  0  0
    8.4328  -14.5815   24.4870 C   0  0  1  0  0  0  0  0  0  0  0  0
    7.7112  -13.7043   25.4420 C   0  0  0  0  0  0  0  0  0  0  0  0
    5.9811  -14.2511   25.5152 S   0  0  0  0  0  0  0  0  0  0  0  0
    8.6651  -15.8965   25.1253 C   0  0  0  0  0  0  0  0  0  0  0  0
    7.8114  -16.8055   24.9413 O   0  0  0  0  0  0  0  0  0  0  0  0
    9.7686  -16.2072   25.9219 N   0  0  0  0  0  0  0  0  0  0  0  0
    9.9453  -17.5590   26.5053 C   0  0  1  0  0  0  0  0  0  0  0  0
   10.9072  -18.3296   25.6449 C   0  0  0  0  0  0  0  0  0  0  0  0
   12.2695  -17.7647   25.5445 C   0  0  0  0  0  0  0  0  0  0  0  0
   13.1503  -18.5358   24.6650 C   0  0  0  0  0  0  0  0  0  0  0  0
   14.2259  -18.0112   24.2587 O   0  0  0  0  0  0  0  0  0  0  0  0
   10.4918  -17.4355   27.8720 C   0  0  0  0  0  0  0  0  0  0  0  0
   10.8160  -16.2887   28.2953 O   0  0  0  0  0  0  0  0  0  0  0  0
   12.9129  -19.8253   24.2188 O   0  0  0  0  0  0  0  0  0  0  0  0
   10.6545  -18.5197   28.6898 O   0  0  0  0  0  0  0  0  0  0  0  0
  2  1  1  6
  2  3  1  0
  3  4  1  0
  4  8  1  0
  5  4  2  0
  6  2  1  0
  7  6  2  0
  9  6  1  0
 10 13  1  0
 10  9  1  0
 10 11  1  1
 12 11  1  0
 13 15  1  0
 14 13  2  0
 15 16  1  0
 16 17  1  6
 16 21  1  0
 17 18  1  0
 19 18  1  0
 20 19  2  0
 21 22  2  0
 21 24  1  0
 23 19  1  0
M  END
$$$$
