DCE.pdb
     RDKit          3D

 24 23  0  0  1  0  0  0  0  0999 V2000
    9.2425  -17.8093   18.1232 N   0  0  0  0  0  0  0  0  0  0  0  0
   10.4774  -18.4080   18.6385 C   0  0  1  0  0  0  0  0  0  0  0  0
   11.3695  -18.6618   17.4460 C   0  0  0  0  0  0  0  0  0  0  0  0
   10.7953  -19.6718   16.5592 C   0  0  0  0  0  0  0  0  0  0  0  0
   10.1568  -20.6998   16.9151 O   0  0  0  0  0  0  0  0  0  0  0  0
   11.1307  -17.3761   19.4811 C   0  0  0  0  0  0  0  0  0  0  0  0
   12.0263  -16.6895   18.9893 O   0  0  0  0  0  0  0  0  0  0  0  0
   10.9466  -19.5213   15.1683 O   0  0  0  0  0  0  0  0  0  0  0  0
   10.7674  -17.1451   20.8326 N   0  0  0  0  0  0  0  0  0  0  0  0
   11.3112  -16.1753   21.6973 C   0  0  1  0  0  0  0  0  0  0  0  0
   10.3709  -15.5146   22.6361 C   0  0  0  0  0  0  0  0  0  0  0  0
    9.4859  -16.8081   23.5533 S   0  0  0  0  0  0  0  0  0  0  0  0
   12.4356  -16.7497   22.4697 C   0  0  0  0  0  0  0  0  0  0  0  0
   12.3863  -17.9728   22.7705 O   0  0  0  0  0  0  0  0  0  0  0  0
   13.5555  -16.0315   22.8926 N   0  0  0  0  0  0  0  0  0  0  0  0
   14.7249  -16.7103   23.5016 C   0  0  1  0  0  0  0  0  0  0  0  0
   15.9358  -15.8402   23.3115 C   0  0  0  0  0  0  0  0  0  0  0  0
   17.1777  -16.3242   23.9506 C   0  0  0  0  0  0  0  0  0  0  0  0
   18.3249  -15.4432   23.7224 C   0  0  0  0  0  0  0  0  0  0  0  0
   18.9077  -15.4707   22.6013 O   0  0  0  0  0  0  0  0  0  0  0  0
   14.4792  -16.9102   24.9442 C   0  0  0  0  0  0  0  0  0  0  0  0
   15.1609  -17.7779   25.5622 O   0  0  0  0  0  0  0  0  0  0  0  0
   18.8523  -14.5543   24.6444 O   0  0  0  0  0  0  0  0  0  0  0  0
   13.5420  -16.1861   25.6285 O   0  0  0  0  0  0  0  0  0  0  0  0
  2  1  1  6
  2  3  1  0
  3  4  1  0
  4  8  1  0
  5  4  2  0
  6  2  1  0
  7  6  2  0
  9  6  1  0
 10 13  1  0
 10  9  1  0
 10 11  1  1
 12 11  1  0
 13 15  1  0
 14 13  2  0
 15 16  1  0
 16 17  1  1
 16 21  1  0
 17 18  1  0
 19 18  1  0
 20 19  2  0
 21 22  2  0
 21 24  1  0
 23 19  1  0
M  END
$$$$
