IVH.pdb
     RDKit          3D

 26 26  0  0  1  0  0  0  0  0999 V2000
    6.4621  -11.2491   27.6939 C   0  0  0  0  0  0  0  0  0  0  0  0
    5.8231  -12.4496   27.0491 C   0  0  0  0  0  0  0  0  0  0  0  0
    6.8103  -13.2390   26.2771 C   0  0  2  0  0  0  0  0  0  0  0  0
    7.6250  -12.3078   25.4060 C   0  0  0  0  0  0  0  0  0  0  0  0
    6.2859  -14.3830   25.4733 C   0  0  2  0  0  0  0  0  0  0  0  0
    5.6170  -15.2622   26.4661 N   0  0  0  0  0  0  0  0  0  0  0  0
    7.3601  -15.1993   24.8200 C   0  0  0  0  0  0  0  0  0  0  0  0
    7.9158  -16.1364   25.4501 O   0  0  0  0  0  0  0  0  0  0  0  0
    7.4673  -15.7250   20.8065 C   0  0  0  0  0  0  0  0  0  0  0  0
    8.7903  -15.4334   21.4137 C   0  0  2  0  0  0  0  0  0  0  0  0
    9.8546  -16.1697   20.6213 C   0  0  0  0  0  0  0  0  0  0  0  0
    8.8557  -15.7740   22.8820 C   0  0  2  0  0  0  0  0  0  0  0  0
    7.7884  -14.9610   23.4944 N   0  0  0  0  0  0  0  0  0  0  0  0
   10.1491  -15.4209   23.5165 C   0  0  0  0  0  0  0  0  0  0  0  0
   10.2241  -14.3648   24.2278 O   0  0  0  0  0  0  0  0  0  0  0  0
   11.3464  -16.1537   23.4156 N   0  0  0  0  0  0  0  0  0  0  0  0
   12.2414  -16.3385   24.5435 C   0  0  1  0  0  0  0  0  0  0  0  0
   11.5434  -16.9974   25.7110 C   0  0  0  0  0  0  0  0  0  0  0  0
   11.0637  -16.0376   26.7070 C   0  0  0  0  0  0  0  0  0  0  0  0
   10.9986  -14.6674   26.5757 C   0  0  0  0  0  0  0  0  0  0  0  0
   10.5001  -14.1235   27.7083 N   0  0  0  0  0  0  0  0  0  0  0  0
   10.2618  -15.1577   28.5278 C   0  0  0  0  0  0  0  0  0  0  0  0
   10.6011  -16.3145   27.9260 N   0  0  0  0  0  0  0  0  0  0  0  0
   13.4228  -17.1009   24.0907 C   0  0  0  0  0  0  0  0  0  0  0  0
   14.6489  -16.8845   24.7018 O   0  0  0  0  0  0  0  0  0  0  0  0
   13.3764  -17.9499   23.1655 O   0  0  0  0  0  0  0  0  0  0  0  0
  2  1  1  0
  3  5  1  0
  3  2  1  0
  3  4  1  6
  5  6  1  1
  7  5  1  0
  7  8  2  0
 10  9  1  6
 10 12  1  0
 11 10  1  0
 12 13  1  1
 13  7  1  0
 14 12  1  0
 15 14  2  0
 16 14  1  0
 17 16  1  0
 17 24  1  0
 17 18  1  1
 19 18  1  0
 20 19  2  0
 21 22  1  0
 21 20  1  0
 22 23  2  0
 23 19  1  0
 24 25  1  0
 26 24  2  0
M  END
$$$$
