IVH.pdb
     RDKit          3D

 26 26  0  0  1  0  0  0  0  0999 V2000
    7.7362  -11.5185   27.1366 C   0  0  0  0  0  0  0  0  0  0  0  0
    7.4250  -12.9833   26.9854 C   0  0  0  0  0  0  0  0  0  0  0  0
    6.3565  -13.2092   25.9849 C   0  0  2  0  0  0  0  0  0  0  0  0
    5.1181  -12.4414   26.3928 C   0  0  0  0  0  0  0  0  0  0  0  0
    6.0126  -14.6270   25.6669 C   0  0  2  0  0  0  0  0  0  0  0  0
    6.4409  -15.3936   26.8649 N   0  0  0  0  0  0  0  0  0  0  0  0
    6.7716  -15.1810   24.4990 C   0  0  0  0  0  0  0  0  0  0  0  0
    6.1552  -15.6726   23.5180 O   0  0  0  0  0  0  0  0  0  0  0  0
    6.8638  -15.3105   21.8950 C   0  0  0  0  0  0  0  0  0  0  0  0
    8.3008  -14.9973   22.0978 C   0  0  2  0  0  0  0  0  0  0  0  0
    9.0457  -15.3087   20.8129 C   0  0  0  0  0  0  0  0  0  0  0  0
    8.9030  -15.7189   23.2779 C   0  0  2  0  0  0  0  0  0  0  0  0
    8.1839  -15.1756   24.4454 N   0  0  0  0  0  0  0  0  0  0  0  0
   10.3544  -15.4666   23.4508 C   0  0  0  0  0  0  0  0  0  0  0  0
   10.7456  -14.3027   23.7963 O   0  0  0  0  0  0  0  0  0  0  0  0
   11.3844  -16.4084   23.2694 N   0  0  0  0  0  0  0  0  0  0  0  0
   12.1682  -16.9251   24.3766 C   0  0  1  0  0  0  0  0  0  0  0  0
   11.2922  -17.5276   25.4507 C   0  0  0  0  0  0  0  0  0  0  0  0
   10.9187  -16.5669   26.4904 C   0  0  0  0  0  0  0  0  0  0  0  0
   11.4666  -16.4511   27.7495 C   0  0  0  0  0  0  0  0  0  0  0  0
   10.8594  -15.4475   28.4210 N   0  0  0  0  0  0  0  0  0  0  0  0
    9.9443  -14.9524   27.5751 C   0  0  0  0  0  0  0  0  0  0  0  0
    9.9778  -15.6263   26.4088 N   0  0  0  0  0  0  0  0  0  0  0  0
   13.1553  -17.8890   23.8487 C   0  0  0  0  0  0  0  0  0  0  0  0
   14.5036  -17.6963   24.1107 O   0  0  0  0  0  0  0  0  0  0  0  0
   12.8341  -18.8919   23.1632 O   0  0  0  0  0  0  0  0  0  0  0  0
  2  1  1  0
  3  5  1  0
  3  2  1  0
  3  4  1  1
  5  6  1  1
  7  5  1  0
  7  8  2  0
 10  9  1  6
 10 12  1  0
 11 10  1  0
 12 13  1  1
 13  7  1  0
 14 12  1  0
 15 14  2  0
 16 14  1  0
 17 16  1  0
 17 24  1  0
 17 18  1  1
 19 18  1  0
 20 19  2  0
 21 22  1  0
 21 20  1  0
 22 23  2  0
 23 19  1  0
 24 25  1  0
 26 24  2  0
M  END
$$$$
