IVH.pdb
     RDKit          3D

 26 26  0  0  1  0  0  0  0  0999 V2000
    7.3327  -15.7941   17.5490 C   0  0  0  0  0  0  0  0  0  0  0  0
    7.2791  -14.4598   18.2433 C   0  0  0  0  0  0  0  0  0  0  0  0
    7.5940  -14.5870   19.6850 C   0  0  2  0  0  0  0  0  0  0  0  0
    6.7576  -15.6965   20.2843 C   0  0  0  0  0  0  0  0  0  0  0  0
    7.4931  -13.3490   20.5139 C   0  0  2  0  0  0  0  0  0  0  0  0
    8.3464  -12.3573   19.8106 N   0  0  0  0  0  0  0  0  0  0  0  0
    8.0525  -13.5051   21.8958 C   0  0  0  0  0  0  0  0  0  0  0  0
    9.2933  -13.6286   22.0672 O   0  0  0  0  0  0  0  0  0  0  0  0
    6.4115  -11.7932   25.1056 C   0  0  0  0  0  0  0  0  0  0  0  0
    6.7487  -13.2210   25.3337 C   0  0  2  0  0  0  0  0  0  0  0  0
    7.1671  -13.3896   26.7826 C   0  0  0  0  0  0  0  0  0  0  0  0
    7.8033  -13.7385   24.3871 C   0  0  2  0  0  0  0  0  0  0  0  0
    7.2309  -13.5190   23.0457 N   0  0  0  0  0  0  0  0  0  0  0  0
    8.0922  -15.1839   24.5527 C   0  0  0  0  0  0  0  0  0  0  0  0
    7.7710  -15.9924   23.6199 O   0  0  0  0  0  0  0  0  0  0  0  0
    8.7067  -15.7813   25.6691 N   0  0  0  0  0  0  0  0  0  0  0  0
    9.7650  -16.7664   25.5388 C   0  0  1  0  0  0  0  0  0  0  0  0
   10.8624  -16.2914   24.6144 C   0  0  0  0  0  0  0  0  0  0  0  0
   10.8761  -16.9973   23.3320 C   0  0  0  0  0  0  0  0  0  0  0  0
    9.7901  -17.5024   22.6505 C   0  0  0  0  0  0  0  0  0  0  0  0
   10.2023  -18.0864   21.5033 N   0  0  0  0  0  0  0  0  0  0  0  0
   11.5349  -17.9384   21.4845 C   0  0  0  0  0  0  0  0  0  0  0  0
   11.9445  -17.2812   22.5872 N   0  0  0  0  0  0  0  0  0  0  0  0
   10.2693  -17.1007   26.8863 C   0  0  0  0  0  0  0  0  0  0  0  0
   10.9451  -18.2957   27.0840 O   0  0  0  0  0  0  0  0  0  0  0  0
   10.1167  -16.3480   27.8808 O   0  0  0  0  0  0  0  0  0  0  0  0
  2  1  1  0
  3  5  1  0
  3  2  1  0
  3  4  1  1
  5  6  1  6
  7  5  1  0
  7  8  2  0
 10  9  1  6
 10 12  1  0
 11 10  1  0
 12 13  1  6
 13  7  1  0
 14 12  1  0
 15 14  2  0
 16 14  1  0
 17 16  1  0
 17 24  1  0
 17 18  1  6
 19 18  1  0
 20 19  2  0
 21 22  1  0
 21 20  1  0
 22 23  2  0
 23 19  1  0
 24 25  1  0
 26 24  2  0
M  END
$$$$
