IVH.pdb
     RDKit          3D

 26 26  0  0  1  0  0  0  0  0999 V2000
   15.3316  -18.1469   18.4792 C   0  0  0  0  0  0  0  0  0  0  0  0
   14.5076  -17.0517   17.8571 C   0  0  0  0  0  0  0  0  0  0  0  0
   13.6622  -16.3714   18.8652 C   0  0  2  0  0  0  0  0  0  0  0  0
   12.9422  -17.4096   19.6978 C   0  0  0  0  0  0  0  0  0  0  0  0
   12.7017  -15.3439   18.3639 C   0  0  2  0  0  0  0  0  0  0  0  0
   13.5615  -14.2525   17.8387 N   0  0  0  0  0  0  0  0  0  0  0  0
   11.8461  -14.7468   19.4403 C   0  0  0  0  0  0  0  0  0  0  0  0
   12.3722  -14.0946   20.3794 O   0  0  0  0  0  0  0  0  0  0  0  0
    8.1274  -13.0969   18.9393 C   0  0  0  0  0  0  0  0  0  0  0  0
    8.2425  -14.1859   19.9418 C   0  0  2  0  0  0  0  0  0  0  0  0
    7.1928  -13.9632   21.0149 C   0  0  0  0  0  0  0  0  0  0  0  0
    9.6256  -14.3021   20.5332 C   0  0  2  0  0  0  0  0  0  0  0  0
   10.4395  -14.8840   19.4497 N   0  0  0  0  0  0  0  0  0  0  0  0
    9.6931  -15.1965   21.7146 C   0  0  0  0  0  0  0  0  0  0  0  0
    9.4896  -16.4461   21.5600 O   0  0  0  0  0  0  0  0  0  0  0  0
    9.9692  -14.8001   23.0366 N   0  0  0  0  0  0  0  0  0  0  0  0
    9.9821  -15.7400   24.1427 C   0  0  1  0  0  0  0  0  0  0  0  0
   10.6837  -15.1705   25.3542 C   0  0  0  0  0  0  0  0  0  0  0  0
   10.6636  -16.0750   26.5052 C   0  0  0  0  0  0  0  0  0  0  0  0
   10.5474  -17.4479   26.4805 C   0  0  0  0  0  0  0  0  0  0  0  0
   10.5679  -17.9306   27.7428 N   0  0  0  0  0  0  0  0  0  0  0  0
   10.6961  -16.8565   28.5352 C   0  0  0  0  0  0  0  0  0  0  0  0
   10.7541  -15.7349   27.7908 N   0  0  0  0  0  0  0  0  0  0  0  0
    8.5922  -16.1455   24.4358 C   0  0  0  0  0  0  0  0  0  0  0  0
    8.3470  -17.4016   24.9704 O   0  0  0  0  0  0  0  0  0  0  0  0
    7.6025  -15.4011   24.2234 O   0  0  0  0  0  0  0  0  0  0  0  0
  2  1  1  0
  3  5  1  0
  3  2  1  0
  3  4  1  6
  5  6  1  1
  7  5  1  0
  7  8  2  0
 10  9  1  6
 10 12  1  0
 11 10  1  0
 12 13  1  6
 13  7  1  0
 14 12  1  0
 15 14  2  0
 16 14  1  0
 17 16  1  0
 17 24  1  0
 17 18  1  1
 19 18  1  0
 20 19  2  0
 21 22  1  0
 21 20  1  0
 22 23  2  0
 23 19  1  0
 24 25  1  0
 26 24  2  0
M  END
$$$$
