IVH.pdb
     RDKit          3D

 26 26  0  0  1  0  0  0  0  0999 V2000
    6.8474  -18.2067   19.6345 C   0  0  0  0  0  0  0  0  0  0  0  0
    6.6746  -16.7261   19.8425 C   0  0  0  0  0  0  0  0  0  0  0  0
    7.2769  -16.2854   21.1219 C   0  0  2  0  0  0  0  0  0  0  0  0
    6.8272  -17.2101   22.2319 C   0  0  0  0  0  0  0  0  0  0  0  0
    7.0719  -14.8590   21.5132 C   0  0  2  0  0  0  0  0  0  0  0  0
    7.6895  -14.0765   20.4121 N   0  0  0  0  0  0  0  0  0  0  0  0
    7.7838  -14.4749   22.7752 C   0  0  0  0  0  0  0  0  0  0  0  0
    9.0415  -14.4425   22.8088 O   0  0  0  0  0  0  0  0  0  0  0  0
    6.2925  -11.8350   25.4717 C   0  0  0  0  0  0  0  0  0  0  0  0
    6.7895  -13.1053   26.0576 C   0  0  2  0  0  0  0  0  0  0  0  0
    7.3279  -12.8148   27.4464 C   0  0  0  0  0  0  0  0  0  0  0  0
    7.8193  -13.7920   25.1950 C   0  0  2  0  0  0  0  0  0  0  0  0
    7.0910  -14.1372   23.9598 N   0  0  0  0  0  0  0  0  0  0  0  0
    8.3613  -15.0361   25.7937 C   0  0  0  0  0  0  0  0  0  0  0  0
    7.5772  -16.0219   25.9938 O   0  0  0  0  0  0  0  0  0  0  0  0
    9.6977  -15.2545   26.1776 N   0  0  0  0  0  0  0  0  0  0  0  0
   10.1565  -16.5270   26.7043 C   0  0  1  0  0  0  0  0  0  0  0  0
   11.4398  -16.9768   26.0446 C   0  0  0  0  0  0  0  0  0  0  0  0
   12.0002  -18.1870   26.6485 C   0  0  0  0  0  0  0  0  0  0  0  0
   11.5462  -18.8402   27.7738 C   0  0  0  0  0  0  0  0  0  0  0  0
   12.3225  -19.9190   28.0198 N   0  0  0  0  0  0  0  0  0  0  0  0
   13.2469  -19.9244   27.0484 C   0  0  0  0  0  0  0  0  0  0  0  0
   13.0548  -18.8800   26.2191 N   0  0  0  0  0  0  0  0  0  0  0  0
   10.2876  -16.4128   28.1713 C   0  0  0  0  0  0  0  0  0  0  0  0
   10.3644  -17.5644   28.9404 O   0  0  0  0  0  0  0  0  0  0  0  0
   10.3340  -15.3095   28.7708 O   0  0  0  0  0  0  0  0  0  0  0  0
  2  1  1  0
  3  5  1  0
  3  2  1  0
  3  4  1  1
  5  6  1  6
  7  5  1  0
  7  8  2  0
 10  9  1  6
 10 12  1  0
 11 10  1  0
 12 13  1  6
 13  7  1  0
 14 12  1  0
 15 14  2  0
 16 14  1  0
 17 16  1  0
 17 24  1  0
 17 18  1  6
 19 18  1  0
 20 19  2  0
 21 22  1  0
 21 20  1  0
 22 23  2  0
 23 19  1  0
 24 25  1  0
 26 24  2  0
M  END
$$$$
