IVH.pdb
     RDKit          3D

 26 26  0  0  1  0  0  0  0  0999 V2000
    8.0942  -13.2424   28.4879 C   0  0  0  0  0  0  0  0  0  0  0  0
    7.0453  -13.9057   27.6363 C   0  0  0  0  0  0  0  0  0  0  0  0
    7.6245  -14.4391   26.3818 C   0  0  2  0  0  0  0  0  0  0  0  0
    8.5519  -13.4062   25.7796 C   0  0  0  0  0  0  0  0  0  0  0  0
    6.6674  -14.9463   25.3539 C   0  0  2  0  0  0  0  0  0  0  0  0
    6.0141  -16.1157   25.9957 N   0  0  0  0  0  0  0  0  0  0  0  0
    7.3345  -15.4471   24.1085 C   0  0  0  0  0  0  0  0  0  0  0  0
    7.7021  -16.6480   24.0254 O   0  0  0  0  0  0  0  0  0  0  0  0
    6.4779  -13.7674   20.5228 C   0  0  0  0  0  0  0  0  0  0  0  0
    7.9167  -14.0727   20.7245 C   0  0  2  0  0  0  0  0  0  0  0  0
    8.5235  -14.4332   19.3810 C   0  0  0  0  0  0  0  0  0  0  0  0
    8.1544  -15.1538   21.7495 C   0  0  2  0  0  0  0  0  0  0  0  0
    7.5752  -14.6129   22.9934 N   0  0  0  0  0  0  0  0  0  0  0  0
    9.5897  -15.4489   21.9796 C   0  0  0  0  0  0  0  0  0  0  0  0
   10.3150  -14.5820   22.5707 O   0  0  0  0  0  0  0  0  0  0  0  0
   10.2620  -16.6267   21.6033 N   0  0  0  0  0  0  0  0  0  0  0  0
   11.6686  -16.8434   21.8892 C   0  0  1  0  0  0  0  0  0  0  0  0
   11.9689  -18.3008   22.1536 C   0  0  0  0  0  0  0  0  0  0  0  0
   11.3696  -18.7926   23.3955 C   0  0  0  0  0  0  0  0  0  0  0  0
   11.2325  -18.1038   24.5811 C   0  0  0  0  0  0  0  0  0  0  0  0
   10.6301  -18.8913   25.4996 N   0  0  0  0  0  0  0  0  0  0  0  0
   10.4002  -20.0566   24.8772 C   0  0  0  0  0  0  0  0  0  0  0  0
   10.8456  -19.9999   23.6068 N   0  0  0  0  0  0  0  0  0  0  0  0
   12.4682  -16.2971   20.7737 C   0  0  0  0  0  0  0  0  0  0  0  0
   13.6875  -15.6926   21.0412 O   0  0  0  0  0  0  0  0  0  0  0  0
   12.0972  -16.3514   19.5744 O   0  0  0  0  0  0  0  0  0  0  0  0
  2  1  1  0
  3  5  1  0
  3  2  1  0
  3  4  1  6
  5  6  1  1
  7  5  1  0
  7  8  2  0
 10  9  1  6
 10 12  1  0
 11 10  1  0
 12 13  1  1
 13  7  1  0
 14 12  1  0
 15 14  2  0
 16 14  1  0
 17 16  1  0
 17 24  1  0
 17 18  1  6
 19 18  1  0
 20 19  2  0
 21 22  1  0
 21 20  1  0
 22 23  2  0
 23 19  1  0
 24 25  1  0
 26 24  2  0
M  END
$$$$
