IVH.pdb
     RDKit          3D

 26 26  0  0  1  0  0  0  0  0999 V2000
    8.0130  -18.4741   21.8409 C   0  0  0  0  0  0  0  0  0  0  0  0
    8.2094  -16.9862   21.7268 C   0  0  0  0  0  0  0  0  0  0  0  0
    6.9163  -16.2651   21.7638 C   0  0  2  0  0  0  0  0  0  0  0  0
    6.0657  -16.7018   20.5910 C   0  0  0  0  0  0  0  0  0  0  0  0
    6.9717  -14.7751   21.8444 C   0  0  2  0  0  0  0  0  0  0  0  0
    7.6969  -14.3607   20.6163 N   0  0  0  0  0  0  0  0  0  0  0  0
    7.7626  -14.2666   23.0119 C   0  0  0  0  0  0  0  0  0  0  0  0
    8.9956  -14.0437   22.8934 O   0  0  0  0  0  0  0  0  0  0  0  0
    6.5285  -11.7040   25.7794 C   0  0  0  0  0  0  0  0  0  0  0  0
    7.0660  -12.9541   26.3730 C   0  0  2  0  0  0  0  0  0  0  0  0
    7.7378  -12.6100   27.6894 C   0  0  0  0  0  0  0  0  0  0  0  0
    8.0013  -13.6937   25.4486 C   0  0  2  0  0  0  0  0  0  0  0  0
    7.1731  -14.0176   24.2720 N   0  0  0  0  0  0  0  0  0  0  0  0
    8.5295  -14.9551   26.0231 C   0  0  0  0  0  0  0  0  0  0  0  0
    7.7110  -15.8675   26.3760 O   0  0  0  0  0  0  0  0  0  0  0  0
    9.8871  -15.2658   26.2268 N   0  0  0  0  0  0  0  0  0  0  0  0
   10.3166  -16.5192   26.8196 C   0  0  1  0  0  0  0  0  0  0  0  0
   11.6787  -16.9393   26.3172 C   0  0  0  0  0  0  0  0  0  0  0  0
   11.7332  -17.0807   24.8611 C   0  0  0  0  0  0  0  0  0  0  0  0
   10.7717  -17.6346   24.0440 C   0  0  0  0  0  0  0  0  0  0  0  0
   11.1828  -17.5860   22.7573 N   0  0  0  0  0  0  0  0  0  0  0  0
   12.3907  -17.0046   22.7887 C   0  0  0  0  0  0  0  0  0  0  0  0
   12.7255  -16.6984   24.0574 N   0  0  0  0  0  0  0  0  0  0  0  0
   10.2754  -16.3862   28.2902 C   0  0  0  0  0  0  0  0  0  0  0  0
   10.2754  -17.5277   29.0781 O   0  0  0  0  0  0  0  0  0  0  0  0
   10.2395  -15.2755   28.8766 O   0  0  0  0  0  0  0  0  0  0  0  0
  2  1  1  0
  3  5  1  0
  3  2  1  0
  3  4  1  6
  5  6  1  6
  7  5  1  0
  7  8  2  0
 10  9  1  6
 10 12  1  0
 11 10  1  0
 12 13  1  6
 13  7  1  0
 14 12  1  0
 15 14  2  0
 16 14  1  0
 17 16  1  0
 17 24  1  0
 17 18  1  6
 19 18  1  0
 20 19  2  0
 21 22  1  0
 21 20  1  0
 22 23  2  0
 23 19  1  0
 24 25  1  0
 26 24  2  0
M  END
$$$$
