IVH.pdb
     RDKit          3D

 26 26  0  0  1  0  0  0  0  0999 V2000
    6.6038  -12.0604   28.1318 C   0  0  0  0  0  0  0  0  0  0  0  0
    5.8722  -13.0166   27.2286 C   0  0  0  0  0  0  0  0  0  0  0  0
    6.8002  -13.6998   26.2982 C   0  0  2  0  0  0  0  0  0  0  0  0
    7.6594  -12.6680   25.6004 C   0  0  0  0  0  0  0  0  0  0  0  0
    6.1977  -14.6378   25.3049 C   0  0  2  0  0  0  0  0  0  0  0  0
    5.4802  -15.6445   26.1283 N   0  0  0  0  0  0  0  0  0  0  0  0
    7.2124  -15.3821   24.4905 C   0  0  0  0  0  0  0  0  0  0  0  0
    7.7353  -16.4358   24.9382 O   0  0  0  0  0  0  0  0  0  0  0  0
    7.1413  -15.1305   20.5001 C   0  0  0  0  0  0  0  0  0  0  0  0
    8.5243  -15.1234   21.0399 C   0  0  2  0  0  0  0  0  0  0  0  0
    9.4233  -15.8623   20.0659 C   0  0  0  0  0  0  0  0  0  0  0  0
    8.6196  -15.6999   22.4309 C   0  0  2  0  0  0  0  0  0  0  0  0
    7.6192  -14.9458   23.2092 N   0  0  0  0  0  0  0  0  0  0  0  0
    9.9506  -15.5175   23.0594 C   0  0  0  0  0  0  0  0  0  0  0  0
   10.0535  -14.7762   24.0922 O   0  0  0  0  0  0  0  0  0  0  0  0
   11.1569  -16.0970   22.6235 N   0  0  0  0  0  0  0  0  0  0  0  0
   12.0949  -16.7202   23.5395 C   0  0  1  0  0  0  0  0  0  0  0  0
   11.4627  -17.8660   24.2957 C   0  0  0  0  0  0  0  0  0  0  0  0
   11.0324  -17.4934   25.6445 C   0  0  0  0  0  0  0  0  0  0  0  0
   11.2320  -16.2849   26.2757 C   0  0  0  0  0  0  0  0  0  0  0  0
   10.6904  -16.3213   27.5135 N   0  0  0  0  0  0  0  0  0  0  0  0
   10.1621  -17.5475   27.6376 C   0  0  0  0  0  0  0  0  0  0  0  0
   10.3670  -18.2574   26.5108 N   0  0  0  0  0  0  0  0  0  0  0  0
   13.2912  -17.1384   22.7805 C   0  0  0  0  0  0  0  0  0  0  0  0
   13.1520  -18.0256   21.7235 O   0  0  0  0  0  0  0  0  0  0  0  0
   14.4485  -16.7268   23.0451 O   0  0  0  0  0  0  0  0  0  0  0  0
  2  1  1  0
  3  5  1  0
  3  2  1  0
  3  4  1  6
  5  6  1  1
  7  5  1  0
  7  8  2  0
 10  9  1  6
 10 12  1  0
 11 10  1  0
 12 13  1  1
 13  7  1  0
 14 12  1  0
 15 14  2  0
 16 14  1  0
 17 16  1  0
 17 24  1  0
 17 18  1  6
 19 18  1  0
 20 19  2  0
 21 22  1  0
 21 20  1  0
 22 23  2  0
 23 19  1  0
 24 25  1  0
 26 24  2  0
M  END
$$$$
