IVH.pdb
     RDKit          3D

 26 26  0  0  1  0  0  0  0  0999 V2000
    9.7863  -20.0175   16.7645 C   0  0  0  0  0  0  0  0  0  0  0  0
    9.8828  -18.5447   16.4699 C   0  0  0  0  0  0  0  0  0  0  0  0
    8.5423  -17.9376   16.3012 C   0  0  2  0  0  0  0  0  0  0  0  0
    7.7965  -18.6672   15.2052 C   0  0  0  0  0  0  0  0  0  0  0  0
    8.4883  -16.4620   16.0788 C   0  0  2  0  0  0  0  0  0  0  0  0
    9.3393  -16.2324   14.8833 N   0  0  0  0  0  0  0  0  0  0  0  0
    9.0841  -15.6643   17.1993 C   0  0  0  0  0  0  0  0  0  0  0  0
   10.2980  -15.3336   17.1665 O   0  0  0  0  0  0  0  0  0  0  0  0
    7.3136  -12.7007   19.1886 C   0  0  0  0  0  0  0  0  0  0  0  0
    7.8433  -13.7629   20.0804 C   0  0  2  0  0  0  0  0  0  0  0  0
    8.2762  -13.1216   21.3859 C   0  0  0  0  0  0  0  0  0  0  0  0
    8.9622  -14.5579   19.4541 C   0  0  2  0  0  0  0  0  0  0  0  0
    8.3267  -15.2539   18.3197 N   0  0  0  0  0  0  0  0  0  0  0  0
    9.5540  -15.5689   20.3640 C   0  0  0  0  0  0  0  0  0  0  0  0
    9.1461  -16.7757   20.3009 O   0  0  0  0  0  0  0  0  0  0  0  0
   10.5552  -15.3312   21.3242 N   0  0  0  0  0  0  0  0  0  0  0  0
   11.3815  -16.3954   21.8646 C   0  0  1  0  0  0  0  0  0  0  0  0
   12.1372  -17.1252   20.7781 C   0  0  0  0  0  0  0  0  0  0  0  0
   11.5189  -18.3994   20.4075 C   0  0  0  0  0  0  0  0  0  0  0  0
   10.8418  -19.2662   21.2376 C   0  0  0  0  0  0  0  0  0  0  0  0
   10.4162  -20.3367   20.5305 N   0  0  0  0  0  0  0  0  0  0  0  0
   10.8319  -20.1242   19.2735 C   0  0  0  0  0  0  0  0  0  0  0  0
   11.4979  -18.9554   19.1963 N   0  0  0  0  0  0  0  0  0  0  0  0
   12.2797  -15.8239   22.8887 C   0  0  0  0  0  0  0  0  0  0  0  0
   12.5894  -16.5698   24.0164 O   0  0  0  0  0  0  0  0  0  0  0  0
   12.7873  -14.6786   22.7921 O   0  0  0  0  0  0  0  0  0  0  0  0
  2  1  1  0
  3  5  1  0
  3  2  1  0
  3  4  1  6
  5  6  1  6
  7  5  1  0
  7  8  2  0
 10  9  1  6
 10 12  1  0
 11 10  1  0
 12 13  1  6
 13  7  1  0
 14 12  1  0
 15 14  2  0
 16 14  1  0
 17 16  1  0
 17 24  1  0
 17 18  1  6
 19 18  1  0
 20 19  2  0
 21 22  1  0
 21 20  1  0
 22 23  2  0
 23 19  1  0
 24 25  1  0
 26 24  2  0
M  END
$$$$
