IVH.pdb
     RDKit          3D

 26 26  0  0  1  0  0  0  0  0999 V2000
    6.9929  -16.5096   18.4876 C   0  0  0  0  0  0  0  0  0  0  0  0
    6.8979  -15.0977   19.0001 C   0  0  0  0  0  0  0  0  0  0  0  0
    7.3745  -14.9964   20.3988 C   0  0  2  0  0  0  0  0  0  0  0  0
    6.8061  -16.1432   21.2059 C   0  0  0  0  0  0  0  0  0  0  0  0
    7.1473  -13.6985   21.1013 C   0  0  2  0  0  0  0  0  0  0  0  0
    7.8034  -12.6849   20.2362 N   0  0  0  0  0  0  0  0  0  0  0  0
    7.8076  -13.6199   22.4448 C   0  0  0  0  0  0  0  0  0  0  0  0
    9.0602  -13.5328   22.5313 O   0  0  0  0  0  0  0  0  0  0  0  0
    6.3767  -11.5850   25.4775 C   0  0  0  0  0  0  0  0  0  0  0  0
    6.7486  -12.9631   25.8859 C   0  0  2  0  0  0  0  0  0  0  0  0
    7.2577  -12.9191   27.3148 C   0  0  0  0  0  0  0  0  0  0  0  0
    7.7507  -13.6051   24.9587 C   0  0  2  0  0  0  0  0  0  0  0  0
    7.0705  -13.6380   23.6505 N   0  0  0  0  0  0  0  0  0  0  0  0
    8.1133  -14.9909   25.3437 C   0  0  0  0  0  0  0  0  0  0  0  0
    7.2067  -15.8879   25.3615 O   0  0  0  0  0  0  0  0  0  0  0  0
    9.3979  -15.4395   25.7034 N   0  0  0  0  0  0  0  0  0  0  0  0
    9.6626  -16.8159   26.0808 C   0  0  1  0  0  0  0  0  0  0  0  0
   10.8861  -17.3634   25.3826 C   0  0  0  0  0  0  0  0  0  0  0  0
   10.7396  -17.4145   23.9268 C   0  0  0  0  0  0  0  0  0  0  0  0
    9.9881  -18.3114   23.1989 C   0  0  0  0  0  0  0  0  0  0  0  0
   10.1035  -18.0391   21.8800 N   0  0  0  0  0  0  0  0  0  0  0  0
   10.9222  -16.9800   21.8030 C   0  0  0  0  0  0  0  0  0  0  0  0
   11.3078  -16.6007   23.0371 N   0  0  0  0  0  0  0  0  0  0  0  0
    9.7733  -16.8907   27.5520 C   0  0  0  0  0  0  0  0  0  0  0  0
    9.9538  -15.7253   28.2820 O   0  0  0  0  0  0  0  0  0  0  0  0
    9.7116  -17.9718   28.1892 O   0  0  0  0  0  0  0  0  0  0  0  0
  2  1  1  0
  3  5  1  0
  3  2  1  0
  3  4  1  1
  5  6  1  6
  7  5  1  0
  7  8  2  0
 10  9  1  6
 10 12  1  0
 11 10  1  0
 12 13  1  6
 13  7  1  0
 14 12  1  0
 15 14  2  0
 16 14  1  0
 17 16  1  0
 17 24  1  0
 17 18  1  6
 19 18  1  0
 20 19  2  0
 21 22  1  0
 21 20  1  0
 22 23  2  0
 23 19  1  0
 24 25  1  0
 26 24  2  0
M  END
$$$$
