TYE.pdb
     RDKit          3D

 29 29  0  0  1  0  0  0  0  0999 V2000
    7.0570  -18.1066   20.0795 C   0  0  0  0  0  0  0  0  0  0  0  0
    8.3241  -17.8831   19.3266 C   0  0  1  0  0  0  0  0  0  0  0  0
    8.2494  -18.4656   18.0796 O   0  0  0  0  0  0  0  0  0  0  0  0
    8.7257  -16.4147   19.2466 C   0  0  2  0  0  0  0  0  0  0  0  0
    9.8411  -16.2606   18.3642 N   0  0  0  0  0  0  0  0  0  0  0  0
    8.9429  -15.8328   20.5958 C   0  0  0  0  0  0  0  0  0  0  0  0
   10.0249  -16.0468   21.1592 O   0  0  0  0  0  0  0  0  0  0  0  0
    7.1992  -12.2965   28.5538 O   0  0  0  0  0  0  0  0  0  0  0  0
    7.1510  -12.6135   27.1864 C   0  0  0  0  0  0  0  0  0  0  0  0
    6.4179  -13.6977   26.7603 C   0  0  0  0  0  0  0  0  0  0  0  0
    6.3706  -14.0099   25.4136 C   0  0  0  0  0  0  0  0  0  0  0  0
    7.0303  -13.2813   24.4508 C   0  0  0  0  0  0  0  0  0  0  0  0
    6.9630  -13.6376   23.0148 C   0  0  0  0  0  0  0  0  0  0  0  0
    8.0664  -14.5512   22.5889 C   0  0  2  0  0  0  0  0  0  0  0  0
    7.9774  -15.0509   21.2624 N   0  0  0  0  0  0  0  0  0  0  0  0
    8.1952  -15.6803   23.5419 C   0  0  0  0  0  0  0  0  0  0  0  0
    7.5575  -16.7647   23.3153 O   0  0  0  0  0  0  0  0  0  0  0  0
    7.7617  -12.1939   24.9067 C   0  0  0  0  0  0  0  0  0  0  0  0
    7.8183  -11.8706   26.2452 C   0  0  0  0  0  0  0  0  0  0  0  0
    8.9879  -15.6375   24.7006 N   0  0  0  0  0  0  0  0  0  0  0  0
    9.5405  -16.8677   25.3181 C   0  0  1  0  0  0  0  0  0  0  0  0
   10.3610  -17.5549   24.2695 C   0  0  0  0  0  0  0  0  0  0  0  0
   11.0239  -18.7729   24.8250 C   0  0  0  0  0  0  0  0  0  0  0  0
   11.8907  -19.4386   23.8001 C   0  0  0  0  0  0  0  0  0  0  0  0
   11.4489  -20.3762   23.1022 O   0  0  0  0  0  0  0  0  0  0  0  0
   10.2572  -16.5428   26.5517 C   0  0  0  0  0  0  0  0  0  0  0  0
   10.4002  -17.5740   27.5018 O   0  0  0  0  0  0  0  0  0  0  0  0
   13.1913  -19.0079   23.6284 O   0  0  0  0  0  0  0  0  0  0  0  0
   10.7354  -15.4070   26.7846 O   0  0  0  0  0  0  0  0  0  0  0  0
  2  1  1  6
  2  4  1  0
  3  2  1  0
  4  5  1  6
  6  4  1  0
  6  7  2  0
  9  8  1  0
 10  9  2  0
 11 10  1  0
 12 11  2  0
 12 18  1  0
 14 13  1  1
 13 12  1  0
 14 15  1  0
 15  6  1  0
 16 14  1  0
 17 16  2  0
 18 19  2  0
 19  9  1  0
 20 16  1  0
 21 22  1  6
 21 20  1  0
 22 23  1  0
 23 24  1  0
 24 28  1  0
 25 24  2  0
 26 27  1  0
 26 21  1  0
 29 26  2  0
M  END
$$$$
