TYE.pdb
     RDKit          3D

 29 29  0  0  1  0  0  0  0  0999 V2000
    6.9503  -17.0759   19.1416 C   0  0  0  0  0  0  0  0  0  0  0  0
    7.7364  -16.8346   20.3850 C   0  0  1  0  0  0  0  0  0  0  0  0
    8.8146  -17.6913   20.4438 O   0  0  0  0  0  0  0  0  0  0  0  0
    8.1548  -15.3791   20.5596 C   0  0  2  0  0  0  0  0  0  0  0  0
    8.8654  -14.9327   19.4011 N   0  0  0  0  0  0  0  0  0  0  0  0
    8.8911  -15.1707   21.8326 C   0  0  0  0  0  0  0  0  0  0  0  0
   10.1289  -15.1462   21.7966 O   0  0  0  0  0  0  0  0  0  0  0  0
   10.6587  -14.8327   30.5317 O   0  0  0  0  0  0  0  0  0  0  0  0
    9.9964  -14.7898   29.2939 C   0  0  0  0  0  0  0  0  0  0  0  0
   10.0134  -13.6330   28.5481 C   0  0  0  0  0  0  0  0  0  0  0  0
    9.3610  -13.5909   27.3291 C   0  0  0  0  0  0  0  0  0  0  0  0
    8.6788  -14.6649   26.8055 C   0  0  0  0  0  0  0  0  0  0  0  0
    7.9883  -14.5927   25.4973 C   0  0  0  0  0  0  0  0  0  0  0  0
    8.8740  -14.9571   24.3500 C   0  0  2  0  0  0  0  0  0  0  0  0
    8.2481  -15.0002   23.0758 N   0  0  0  0  0  0  0  0  0  0  0  0
    9.5561  -16.2468   24.6170 C   0  0  0  0  0  0  0  0  0  0  0  0
    8.8791  -17.3303   24.5816 O   0  0  0  0  0  0  0  0  0  0  0  0
    8.6771  -15.8181   27.5770 C   0  0  0  0  0  0  0  0  0  0  0  0
    9.3225  -15.8752   28.7933 C   0  0  0  0  0  0  0  0  0  0  0  0
   10.9247  -16.3598   24.9117 N   0  0  0  0  0  0  0  0  0  0  0  0
   11.5675  -17.6736   25.1580 C   0  0  1  0  0  0  0  0  0  0  0  0
   12.6907  -17.8040   24.1749 C   0  0  0  0  0  0  0  0  0  0  0  0
   13.8083  -16.8734   24.5160 C   0  0  0  0  0  0  0  0  0  0  0  0
   14.7156  -16.6562   23.3436 C   0  0  0  0  0  0  0  0  0  0  0  0
   15.0758  -15.5043   23.0199 O   0  0  0  0  0  0  0  0  0  0  0  0
   11.9562  -17.7970   26.5632 C   0  0  0  0  0  0  0  0  0  0  0  0
   12.4616  -19.0441   26.9824 O   0  0  0  0  0  0  0  0  0  0  0  0
   15.1558  -17.7438   22.6156 O   0  0  0  0  0  0  0  0  0  0  0  0
   11.8568  -16.8544   27.3844 O   0  0  0  0  0  0  0  0  0  0  0  0
  2  1  1  6
  2  4  1  0
  3  2  1  0
  4  5  1  6
  6  4  1  0
  6  7  2  0
  9  8  1  0
 10  9  2  0
 11 10  1  0
 12 11  2  0
 12 18  1  0
 14 13  1  1
 13 12  1  0
 14 15  1  0
 15  6  1  0
 16 14  1  0
 17 16  2  0
 18 19  2  0
 19  9  1  0
 20 16  1  0
 21 22  1  6
 21 20  1  0
 22 23  1  0
 23 24  1  0
 24 28  1  0
 25 24  2  0
 26 27  1  0
 26 21  1  0
 29 26  2  0
M  END
$$$$
