TYE.pdb
     RDKit          3D

 29 29  0  0  1  0  0  0  0  0999 V2000
    6.1515  -22.6847   18.1878 C   0  0  0  0  0  0  0  0  0  0  0  0
    6.6100  -21.2663   18.2006 C   0  0  1  0  0  0  0  0  0  0  0  0
    5.5905  -20.4297   17.7999 O   0  0  0  0  0  0  0  0  0  0  0  0
    7.2065  -20.8385   19.5367 C   0  0  2  0  0  0  0  0  0  0  0  0
    6.2226  -20.9500   20.5691 N   0  0  0  0  0  0  0  0  0  0  0  0
    7.8358  -19.4959   19.4498 C   0  0  0  0  0  0  0  0  0  0  0  0
    8.7173  -19.3157   18.5985 O   0  0  0  0  0  0  0  0  0  0  0  0
    9.4160  -10.8413   19.8068 O   0  0  0  0  0  0  0  0  0  0  0  0
    8.8329  -12.1124   19.9361 C   0  0  0  0  0  0  0  0  0  0  0  0
    8.4198  -12.5535   21.1727 C   0  0  0  0  0  0  0  0  0  0  0  0
    7.8456  -13.8055   21.3000 C   0  0  0  0  0  0  0  0  0  0  0  0
    7.6585  -14.6570   20.2356 C   0  0  0  0  0  0  0  0  0  0  0  0
    7.0410  -15.9931   20.3997 C   0  0  0  0  0  0  0  0  0  0  0  0
    8.0238  -17.1103   20.2602 C   0  0  2  0  0  0  0  0  0  0  0  0
    7.4773  -18.4210   20.2888 N   0  0  0  0  0  0  0  0  0  0  0  0
    9.0885  -16.9890   21.2856 C   0  0  0  0  0  0  0  0  0  0  0  0
    8.8473  -16.3451   22.3631 O   0  0  0  0  0  0  0  0  0  0  0  0
    8.0835  -14.1884   19.0007 C   0  0  0  0  0  0  0  0  0  0  0  0
    8.6574  -12.9434   18.8583 C   0  0  0  0  0  0  0  0  0  0  0  0
   10.3706  -17.5462   21.1496 N   0  0  0  0  0  0  0  0  0  0  0  0
   11.5993  -16.7610   21.4212 C   0  0  1  0  0  0  0  0  0  0  0  0
   11.8369  -15.8898   20.2256 C   0  0  0  0  0  0  0  0  0  0  0  0
   12.9820  -14.9603   20.4627 C   0  0  0  0  0  0  0  0  0  0  0  0
   13.8082  -14.7846   19.2252 C   0  0  0  0  0  0  0  0  0  0  0  0
   14.3961  -13.7056   18.9980 O   0  0  0  0  0  0  0  0  0  0  0  0
   11.4797  -16.0484   22.6936 C   0  0  0  0  0  0  0  0  0  0  0  0
   10.1869  -15.6463   23.0853 O   0  0  0  0  0  0  0  0  0  0  0  0
   13.9182  -15.8290   18.3287 O   0  0  0  0  0  0  0  0  0  0  0  0
   12.4639  -15.7908   23.4270 O   0  0  0  0  0  0  0  0  0  0  0  0
  2  1  1  1
  2  4  1  0
  3  2  1  0
  4  5  1  1
  6  4  1  0
  6  7  2  0
  9  8  1  0
 10  9  2  0
 11 10  1  0
 12 11  2  0
 12 18  1  0
 14 13  1  1
 13 12  1  0
 14 15  1  0
 15  6  1  0
 16 14  1  0
 17 16  2  0
 18 19  2  0
 19  9  1  0
 20 16  1  0
 21 22  1  6
 21 20  1  0
 22 23  1  0
 23 24  1  0
 24 28  1  0
 25 24  2  0
 26 27  1  0
 26 21  1  0
 29 26  2  0
M  END
$$$$
