TYE.pdb
     RDKit          3D

 29 29  0  0  1  0  0  0  0  0999 V2000
    6.6623  -17.0525   19.1465 C   0  0  0  0  0  0  0  0  0  0  0  0
    7.5202  -16.8724   20.3522 C   0  0  1  0  0  0  0  0  0  0  0  0
    8.5350  -17.8052   20.3618 O   0  0  0  0  0  0  0  0  0  0  0  0
    8.0506  -15.4516   20.5067 C   0  0  2  0  0  0  0  0  0  0  0  0
    8.7539  -15.0613   19.3237 N   0  0  0  0  0  0  0  0  0  0  0  0
    8.8417  -15.2958   21.7541 C   0  0  0  0  0  0  0  0  0  0  0  0
   10.0771  -15.3307   21.6730 O   0  0  0  0  0  0  0  0  0  0  0  0
   10.9442  -14.9515   30.3783 O   0  0  0  0  0  0  0  0  0  0  0  0
   10.2481  -14.8614   29.1618 C   0  0  0  0  0  0  0  0  0  0  0  0
    9.5974  -15.9665   28.6618 C   0  0  0  0  0  0  0  0  0  0  0  0
    8.9120  -15.8777   27.4637 C   0  0  0  0  0  0  0  0  0  0  0  0
    8.8408  -14.7198   26.7239 C   0  0  0  0  0  0  0  0  0  0  0  0
    8.0998  -14.6521   25.4433 C   0  0  0  0  0  0  0  0  0  0  0  0
    8.9350  -15.0385   24.2658 C   0  0  2  0  0  0  0  0  0  0  0  0
    8.2531  -15.1108   23.0219 N   0  0  0  0  0  0  0  0  0  0  0  0
    9.6333  -16.3201   24.5295 C   0  0  0  0  0  0  0  0  0  0  0  0
    9.0317  -17.4209   24.2844 O   0  0  0  0  0  0  0  0  0  0  0  0
    9.5050  -13.6210   27.2499 C   0  0  0  0  0  0  0  0  0  0  0  0
   10.1921  -13.6943   28.4424 C   0  0  0  0  0  0  0  0  0  0  0  0
   10.9387  -16.4072   25.0406 N   0  0  0  0  0  0  0  0  0  0  0  0
   11.6866  -17.6878   25.0660 C   0  0  1  0  0  0  0  0  0  0  0  0
   12.7375  -17.6037   24.0014 C   0  0  0  0  0  0  0  0  0  0  0  0
   12.4571  -18.5710   22.8982 C   0  0  0  0  0  0  0  0  0  0  0  0
   13.6055  -18.6542   21.9395 C   0  0  0  0  0  0  0  0  0  0  0  0
   14.6468  -19.2747   22.2429 O   0  0  0  0  0  0  0  0  0  0  0  0
   12.1891  -17.9595   26.4130 C   0  0  0  0  0  0  0  0  0  0  0  0
   12.2152  -16.8799   27.3187 O   0  0  0  0  0  0  0  0  0  0  0  0
   13.5077  -18.0368   20.7083 O   0  0  0  0  0  0  0  0  0  0  0  0
   12.5869  -19.0917   26.7779 O   0  0  0  0  0  0  0  0  0  0  0  0
  2  1  1  6
  2  4  1  0
  3  2  1  0
  4  5  1  6
  6  4  1  0
  6  7  2  0
  9  8  1  0
 10  9  2  0
 11 10  1  0
 12 11  2  0
 12 18  1  0
 14 13  1  1
 13 12  1  0
 14 15  1  0
 15  6  1  0
 16 14  1  0
 17 16  2  0
 18 19  2  0
 19  9  1  0
 20 16  1  0
 21 22  1  6
 21 20  1  0
 22 23  1  0
 23 24  1  0
 24 28  1  0
 25 24  2  0
 26 27  1  0
 26 21  1  0
 29 26  2  0
M  END
$$$$
