TYE.pdb
     RDKit          3D

 29 29  0  0  1  0  0  0  0  0999 V2000
    9.0653  -18.7611   18.4986 C   0  0  0  0  0  0  0  0  0  0  0  0
    9.1741  -18.0617   19.8106 C   0  0  1  0  0  0  0  0  0  0  0  0
    9.8893  -18.8292   20.7047 O   0  0  0  0  0  0  0  0  0  0  0  0
    9.7360  -16.6493   19.6949 C   0  0  2  0  0  0  0  0  0  0  0  0
   11.0197  -16.6843   19.0647 N   0  0  0  0  0  0  0  0  0  0  0  0
    9.7293  -15.9491   21.0048 C   0  0  0  0  0  0  0  0  0  0  0  0
   10.7421  -16.0227   21.7140 O   0  0  0  0  0  0  0  0  0  0  0  0
    6.8033  -11.8686   28.3292 O   0  0  0  0  0  0  0  0  0  0  0  0
    6.9303  -12.3229   27.0063 C   0  0  0  0  0  0  0  0  0  0  0  0
    7.9255  -11.8169   26.2013 C   0  0  0  0  0  0  0  0  0  0  0  0
    8.0504  -12.2643   24.8984 C   0  0  0  0  0  0  0  0  0  0  0  0
    7.2169  -13.2096   24.3463 C   0  0  0  0  0  0  0  0  0  0  0  0
    7.3727  -13.6711   22.9477 C   0  0  0  0  0  0  0  0  0  0  0  0
    8.4630  -14.6803   22.7852 C   0  0  2  0  0  0  0  0  0  0  0  0
    8.6270  -15.2072   21.4765 N   0  0  0  0  0  0  0  0  0  0  0  0
    8.2847  -15.7897   23.7533 C   0  0  0  0  0  0  0  0  0  0  0  0
    7.3356  -16.6272   23.5754 O   0  0  0  0  0  0  0  0  0  0  0  0
    6.2226  -13.7032   25.1787 C   0  0  0  0  0  0  0  0  0  0  0  0
    6.0857  -13.2670   26.4789 C   0  0  0  0  0  0  0  0  0  0  0  0
    9.1062  -15.9864   24.8754 N   0  0  0  0  0  0  0  0  0  0  0  0
    8.9323  -17.1488   25.7801 C   0  0  1  0  0  0  0  0  0  0  0  0
    9.0928  -18.3827   24.9453 C   0  0  0  0  0  0  0  0  0  0  0  0
   10.4950  -18.5096   24.4461 C   0  0  0  0  0  0  0  0  0  0  0  0
   10.7237  -19.8377   23.7914 C   0  0  0  0  0  0  0  0  0  0  0  0
    9.7863  -20.6530   23.6567 O   0  0  0  0  0  0  0  0  0  0  0  0
    9.8429  -17.0494   26.9210 C   0  0  0  0  0  0  0  0  0  0  0  0
   10.7002  -15.9315   26.9628 O   0  0  0  0  0  0  0  0  0  0  0  0
   11.9858  -20.1602   23.3335 O   0  0  0  0  0  0  0  0  0  0  0  0
    9.8843  -17.9039   27.8381 O   0  0  0  0  0  0  0  0  0  0  0  0
  2  1  1  6
  2  4  1  0
  3  2  1  0
  4  5  1  1
  6  4  1  0
  6  7  2  0
  9  8  1  0
 10  9  2  0
 11 10  1  0
 12 11  2  0
 12 18  1  0
 14 13  1  6
 13 12  1  0
 14 15  1  0
 15  6  1  0
 16 14  1  0
 17 16  2  0
 18 19  2  0
 19  9  1  0
 20 16  1  0
 21 22  1  6
 21 20  1  0
 22 23  1  0
 23 24  1  0
 24 28  1  0
 25 24  2  0
 26 27  1  0
 26 21  1  0
 29 26  2  0
M  END
$$$$
