TYE.pdb
     RDKit          3D

 29 29  0  0  1  0  0  0  0  0999 V2000
    7.2160  -14.9605   17.8294 C   0  0  0  0  0  0  0  0  0  0  0  0
    7.9542  -15.0002   19.1239 C   0  0  1  0  0  0  0  0  0  0  0  0
    9.3042  -15.1661   18.9005 O   0  0  0  0  0  0  0  0  0  0  0  0
    7.6677  -13.7987   20.0173 C   0  0  2  0  0  0  0  0  0  0  0  0
    7.9376  -12.5865   19.3074 N   0  0  0  0  0  0  0  0  0  0  0  0
    8.3770  -13.9031   21.3181 C   0  0  0  0  0  0  0  0  0  0  0  0
    9.4670  -13.3275   21.4393 O   0  0  0  0  0  0  0  0  0  0  0  0
    5.7794  -10.4989   27.5236 O   0  0  0  0  0  0  0  0  0  0  0  0
    6.2534  -11.6434   26.8618 C   0  0  0  0  0  0  0  0  0  0  0  0
    5.3711  -12.4652   26.1980 C   0  0  0  0  0  0  0  0  0  0  0  0
    5.8380  -13.5924   25.5463 C   0  0  0  0  0  0  0  0  0  0  0  0
    7.1667  -13.9490   25.5223 C   0  0  0  0  0  0  0  0  0  0  0  0
    7.6401  -15.1621   24.8168 C   0  0  0  0  0  0  0  0  0  0  0  0
    8.5275  -14.8514   23.6551 C   0  0  2  0  0  0  0  0  0  0  0  0
    7.8685  -14.6246   22.4176 N   0  0  0  0  0  0  0  0  0  0  0  0
    9.5499  -15.9132   23.4910 C   0  0  0  0  0  0  0  0  0  0  0  0
    9.2170  -17.0222   22.9494 O   0  0  0  0  0  0  0  0  0  0  0  0
    8.0348  -13.1041   26.1988 C   0  0  0  0  0  0  0  0  0  0  0  0
    7.5843  -11.9775   26.8527 C   0  0  0  0  0  0  0  0  0  0  0  0
   10.8872  -15.7792   23.8988 N   0  0  0  0  0  0  0  0  0  0  0  0
   11.8593  -16.8927   23.7762 C   0  0  1  0  0  0  0  0  0  0  0  0
   13.1789  -16.2851   23.4093 C   0  0  0  0  0  0  0  0  0  0  0  0
   14.2497  -17.3255   23.3614 C   0  0  0  0  0  0  0  0  0  0  0  0
   15.5834  -16.7226   23.0411 C   0  0  0  0  0  0  0  0  0  0  0  0
   16.2530  -16.1473   23.9254 O   0  0  0  0  0  0  0  0  0  0  0  0
   11.8668  -17.7013   24.9956 C   0  0  0  0  0  0  0  0  0  0  0  0
   12.3348  -19.0261   24.8848 O   0  0  0  0  0  0  0  0  0  0  0  0
   16.0739  -16.8058   21.7530 O   0  0  0  0  0  0  0  0  0  0  0  0
   11.4806  -17.2653   26.1064 O   0  0  0  0  0  0  0  0  0  0  0  0
  2  1  1  6
  2  4  1  0
  3  2  1  0
  4  5  1  6
  6  4  1  0
  6  7  2  0
  9  8  1  0
 10  9  2  0
 11 10  1  0
 12 11  2  0
 12 18  1  0
 14 13  1  1
 13 12  1  0
 14 15  1  0
 15  6  1  0
 16 14  1  0
 17 16  2  0
 18 19  2  0
 19  9  1  0
 20 16  1  0
 21 22  1  1
 21 20  1  0
 22 23  1  0
 23 24  1  0
 24 28  1  0
 25 24  2  0
 26 27  1  0
 26 21  1  0
 29 26  2  0
M  END
$$$$
