TYE.pdb
     RDKit          3D

 29 29  0  0  1  0  0  0  0  0999 V2000
    7.4659  -18.7719   18.0632 C   0  0  0  0  0  0  0  0  0  0  0  0
    7.9106  -18.1176   19.3266 C   0  0  1  0  0  0  0  0  0  0  0  0
    8.8510  -18.8976   19.9647 O   0  0  0  0  0  0  0  0  0  0  0  0
    8.3986  -16.6876   19.1244 C   0  0  2  0  0  0  0  0  0  0  0  0
    9.4780  -16.6678   18.1858 N   0  0  0  0  0  0  0  0  0  0  0  0
    8.7159  -16.0300   20.4179 C   0  0  0  0  0  0  0  0  0  0  0  0
    9.8609  -16.1547   20.8735 O   0  0  0  0  0  0  0  0  0  0  0  0
    7.5633  -12.3431   28.4152 O   0  0  0  0  0  0  0  0  0  0  0  0
    7.3879  -12.7249   27.0750 C   0  0  0  0  0  0  0  0  0  0  0  0
    6.6029  -13.8138   26.7704 C   0  0  0  0  0  0  0  0  0  0  0  0
    6.4304  -14.1897   25.4505 C   0  0  0  0  0  0  0  0  0  0  0  0
    7.0123  -13.5218   24.3977 C   0  0  0  0  0  0  0  0  0  0  0  0
    6.8112  -13.9459   22.9930 C   0  0  0  0  0  0  0  0  0  0  0  0
    7.9462  -14.7604   22.4621 C   0  0  2  0  0  0  0  0  0  0  0  0
    7.7770  -15.2732   21.1485 N   0  0  0  0  0  0  0  0  0  0  0  0
    8.2641  -15.8684   23.3954 C   0  0  0  0  0  0  0  0  0  0  0  0
    7.4391  -16.8367   23.5192 O   0  0  0  0  0  0  0  0  0  0  0  0
    7.7984  -12.4284   24.7320 C   0  0  0  0  0  0  0  0  0  0  0  0
    7.9796  -12.0419   26.0424 C   0  0  0  0  0  0  0  0  0  0  0  0
    9.4357  -15.9266   24.1680 N   0  0  0  0  0  0  0  0  0  0  0  0
    9.7226  -17.0670   25.0718 C   0  0  1  0  0  0  0  0  0  0  0  0
   10.8356  -17.8525   24.4479 C   0  0  0  0  0  0  0  0  0  0  0  0
   11.9802  -16.9623   24.0891 C   0  0  0  0  0  0  0  0  0  0  0  0
   13.0695  -17.7246   23.3983 C   0  0  0  0  0  0  0  0  0  0  0  0
   13.1262  -17.7678   22.1508 O   0  0  0  0  0  0  0  0  0  0  0  0
    9.9863  -16.5894   26.4295 C   0  0  0  0  0  0  0  0  0  0  0  0
    9.9847  -15.1945   26.6312 O   0  0  0  0  0  0  0  0  0  0  0  0
   14.0189  -18.3851   24.1525 O   0  0  0  0  0  0  0  0  0  0  0  0
   10.2078  -17.3605   27.3936 O   0  0  0  0  0  0  0  0  0  0  0  0
  2  1  1  6
  2  4  1  0
  3  2  1  0
  4  5  1  6
  6  4  1  0
  6  7  2  0
  9  8  1  0
 10  9  2  0
 11 10  1  0
 12 11  2  0
 12 18  1  0
 14 13  1  1
 13 12  1  0
 14 15  1  0
 15  6  1  0
 16 14  1  0
 17 16  2  0
 18 19  2  0
 19  9  1  0
 20 16  1  0
 21 22  1  6
 21 20  1  0
 22 23  1  0
 23 24  1  0
 24 28  1  0
 25 24  2  0
 26 27  1  0
 26 21  1  0
 29 26  2  0
M  END
$$$$
