TYE.pdb
     RDKit          3D

 29 29  0  0  1  0  0  0  0  0999 V2000
    9.2117  -19.6485   18.8808 C   0  0  0  0  0  0  0  0  0  0  0  0
    9.2706  -18.6404   19.9773 C   0  0  1  0  0  0  0  0  0  0  0  0
   10.3871  -18.8473   20.7587 O   0  0  0  0  0  0  0  0  0  0  0  0
    9.1826  -17.2025   19.4785 C   0  0  2  0  0  0  0  0  0  0  0  0
   10.1495  -16.9831   18.4474 N   0  0  0  0  0  0  0  0  0  0  0  0
    9.2670  -16.2294   20.5975 C   0  0  0  0  0  0  0  0  0  0  0  0
   10.3538  -15.6753   20.8117 O   0  0  0  0  0  0  0  0  0  0  0  0
    7.1052  -10.8915   27.3500 O   0  0  0  0  0  0  0  0  0  0  0  0
    7.0310  -11.8212   26.2999 C   0  0  0  0  0  0  0  0  0  0  0  0
    7.3318  -11.4286   25.0154 C   0  0  0  0  0  0  0  0  0  0  0  0
    7.2586  -12.3443   23.9813 C   0  0  0  0  0  0  0  0  0  0  0  0
    6.8934  -13.6578   24.1664 C   0  0  0  0  0  0  0  0  0  0  0  0
    6.8227  -14.6180   23.0410 C   0  0  0  0  0  0  0  0  0  0  0  0
    8.1673  -14.9772   22.4964 C   0  0  2  0  0  0  0  0  0  0  0  0
    8.1708  -15.9086   21.4241 N   0  0  0  0  0  0  0  0  0  0  0  0
    9.0496  -15.4632   23.5850 C   0  0  0  0  0  0  0  0  0  0  0  0
    9.2740  -14.7075   24.5912 O   0  0  0  0  0  0  0  0  0  0  0  0
    6.5953  -14.0275   25.4702 C   0  0  0  0  0  0  0  0  0  0  0  0
    6.6638  -13.1264   26.5108 C   0  0  0  0  0  0  0  0  0  0  0  0
    9.6674  -16.7245   23.5849 N   0  0  0  0  0  0  0  0  0  0  0  0
   10.5575  -17.1614   24.6880 C   0  0  1  0  0  0  0  0  0  0  0  0
   10.1766  -18.5701   25.0279 C   0  0  0  0  0  0  0  0  0  0  0  0
   11.0445  -19.1085   26.1180 C   0  0  0  0  0  0  0  0  0  0  0  0
   10.4944  -20.3869   26.6731 C   0  0  0  0  0  0  0  0  0  0  0  0
   11.0014  -21.4868   26.3657 O   0  0  0  0  0  0  0  0  0  0  0  0
   11.9605  -16.9705   24.3188 C   0  0  0  0  0  0  0  0  0  0  0  0
   12.8877  -16.8288   25.3707 O   0  0  0  0  0  0  0  0  0  0  0  0
    9.4152  -20.3442   27.5334 O   0  0  0  0  0  0  0  0  0  0  0  0
   12.3538  -16.9301   23.1285 O   0  0  0  0  0  0  0  0  0  0  0  0
  2  1  1  6
  2  4  1  0
  3  2  1  0
  4  5  1  6
  6  4  1  0
  6  7  2  0
  9  8  1  0
 10  9  2  0
 11 10  1  0
 12 11  2  0
 12 18  1  0
 14 13  1  1
 13 12  1  0
 14 15  1  0
 15  6  1  0
 16 14  1  0
 17 16  2  0
 18 19  2  0
 19  9  1  0
 20 16  1  0
 21 22  1  6
 21 20  1  0
 22 23  1  0
 23 24  1  0
 24 28  1  0
 25 24  2  0
 26 27  1  0
 26 21  1  0
 29 26  2  0
M  END
$$$$
