TYE.pdb
     RDKit          3D

 29 29  0  0  1  0  0  0  0  0999 V2000
    6.1954  -14.4764   18.7184 C   0  0  0  0  0  0  0  0  0  0  0  0
    7.0087  -14.7089   19.9459 C   0  0  1  0  0  0  0  0  0  0  0  0
    7.9619  -15.6768   19.7128 O   0  0  0  0  0  0  0  0  0  0  0  0
    7.6192  -13.4328   20.5141 C   0  0  2  0  0  0  0  0  0  0  0  0
    8.3838  -12.7660   19.5056 N   0  0  0  0  0  0  0  0  0  0  0  0
    8.3765  -13.6984   21.7640 C   0  0  0  0  0  0  0  0  0  0  0  0
    9.6034  -13.8484   21.6854 O   0  0  0  0  0  0  0  0  0  0  0  0
   10.3501  -15.3737   30.2595 O   0  0  0  0  0  0  0  0  0  0  0  0
    9.6952  -14.9599   29.0879 C   0  0  0  0  0  0  0  0  0  0  0  0
    8.8216  -15.8139   28.4539 C   0  0  0  0  0  0  0  0  0  0  0  0
    8.1768  -15.4063   27.3000 C   0  0  0  0  0  0  0  0  0  0  0  0
    8.3624  -14.1656   26.7349 C   0  0  0  0  0  0  0  0  0  0  0  0
    7.6591  -13.7544   25.4981 C   0  0  0  0  0  0  0  0  0  0  0  0
    8.4054  -14.1176   24.2553 C   0  0  2  0  0  0  0  0  0  0  0  0
    7.7650  -13.7874   23.0314 N   0  0  0  0  0  0  0  0  0  0  0  0
    8.7512  -15.5599   24.2666 C   0  0  0  0  0  0  0  0  0  0  0  0
    7.8215  -16.4259   24.1270 O   0  0  0  0  0  0  0  0  0  0  0  0
    9.2478  -13.3244   27.3935 C   0  0  0  0  0  0  0  0  0  0  0  0
    9.8977  -13.7166   28.5439 C   0  0  0  0  0  0  0  0  0  0  0  0
   10.0588  -16.0481   24.4230 N   0  0  0  0  0  0  0  0  0  0  0  0
   10.3519  -17.5011   24.4748 C   0  0  1  0  0  0  0  0  0  0  0  0
   11.0988  -17.8433   23.2218 C   0  0  0  0  0  0  0  0  0  0  0  0
   12.4630  -17.2348   23.2315 C   0  0  0  0  0  0  0  0  0  0  0  0
   13.1062  -17.3141   21.8806 C   0  0  0  0  0  0  0  0  0  0  0  0
   12.6778  -16.6278   20.9283 O   0  0  0  0  0  0  0  0  0  0  0  0
   11.0422  -17.8392   25.7198 C   0  0  0  0  0  0  0  0  0  0  0  0
   11.2864  -19.2050   25.9682 O   0  0  0  0  0  0  0  0  0  0  0  0
   14.1839  -18.1561   21.6905 O   0  0  0  0  0  0  0  0  0  0  0  0
   11.4137  -16.9763   26.5507 O   0  0  0  0  0  0  0  0  0  0  0  0
  2  1  1  6
  2  4  1  0
  3  2  1  0
  4  5  1  6
  6  4  1  0
  6  7  2  0
  9  8  1  0
 10  9  2  0
 11 10  1  0
 12 11  2  0
 12 18  1  0
 14 13  1  1
 13 12  1  0
 14 15  1  0
 15  6  1  0
 16 14  1  0
 17 16  2  0
 18 19  2  0
 19  9  1  0
 20 16  1  0
 21 22  1  6
 21 20  1  0
 22 23  1  0
 23 24  1  0
 24 28  1  0
 25 24  2  0
 26 27  1  0
 26 21  1  0
 29 26  2  0
M  END
$$$$
