TYE.pdb
     RDKit          3D

 29 29  0  0  1  0  0  0  0  0999 V2000
    8.6222  -19.4746   18.5180 C   0  0  0  0  0  0  0  0  0  0  0  0
    8.8218  -18.5757   19.6903 C   0  0  1  0  0  0  0  0  0  0  0  0
    9.8855  -19.0105   20.4515 O   0  0  0  0  0  0  0  0  0  0  0  0
    8.9586  -17.1068   19.3062 C   0  0  2  0  0  0  0  0  0  0  0  0
   10.0194  -16.9459   18.3601 N   0  0  0  0  0  0  0  0  0  0  0  0
    9.0857  -16.2379   20.5041 C   0  0  0  0  0  0  0  0  0  0  0  0
   10.2159  -15.8490   20.8289 O   0  0  0  0  0  0  0  0  0  0  0  0
    7.1928  -11.3094   27.6353 O   0  0  0  0  0  0  0  0  0  0  0  0
    7.0698  -12.1085   26.4868 C   0  0  0  0  0  0  0  0  0  0  0  0
    7.4189  -11.5981   25.2571 C   0  0  0  0  0  0  0  0  0  0  0  0
    7.2976  -12.3851   24.1260 C   0  0  0  0  0  0  0  0  0  0  0  0
    6.8369  -13.6812   24.1595 C   0  0  0  0  0  0  0  0  0  0  0  0
    6.7166  -14.5023   22.9328 C   0  0  0  0  0  0  0  0  0  0  0  0
    8.0279  -15.0444   22.4636 C   0  0  2  0  0  0  0  0  0  0  0  0
    7.9830  -15.8368   21.2858 N   0  0  0  0  0  0  0  0  0  0  0  0
    8.6895  -15.8031   23.5529 C   0  0  0  0  0  0  0  0  0  0  0  0
    7.9865  -16.5683   24.2971 O   0  0  0  0  0  0  0  0  0  0  0  0
    6.4920  -14.1712   25.4109 C   0  0  0  0  0  0  0  0  0  0  0  0
    6.6073  -13.3990   26.5467 C   0  0  0  0  0  0  0  0  0  0  0  0
   10.0655  -15.7363   23.8268 N   0  0  0  0  0  0  0  0  0  0  0  0
   10.6989  -16.5798   24.8695 C   0  0  1  0  0  0  0  0  0  0  0  0
   10.4465  -18.0077   24.4923 C   0  0  0  0  0  0  0  0  0  0  0  0
    9.8754  -18.7699   25.6431 C   0  0  0  0  0  0  0  0  0  0  0  0
   10.3686  -20.1846   25.6600 C   0  0  0  0  0  0  0  0  0  0  0  0
   11.1264  -20.6073   24.7609 O   0  0  0  0  0  0  0  0  0  0  0  0
   12.1082  -16.2210   25.0307 C   0  0  0  0  0  0  0  0  0  0  0  0
   12.6478  -15.3057   24.1046 O   0  0  0  0  0  0  0  0  0  0  0  0
    9.9789  -21.0269   26.6823 O   0  0  0  0  0  0  0  0  0  0  0  0
   12.8321  -16.6892   25.9416 O   0  0  0  0  0  0  0  0  0  0  0  0
  2  1  1  6
  2  4  1  0
  3  2  1  0
  4  5  1  6
  6  4  1  0
  6  7  2  0
  9  8  1  0
 10  9  2  0
 11 10  1  0
 12 11  2  0
 12 18  1  0
 14 13  1  1
 13 12  1  0
 14 15  1  0
 15  6  1  0
 16 14  1  0
 17 16  2  0
 18 19  2  0
 19  9  1  0
 20 16  1  0
 21 22  1  6
 21 20  1  0
 22 23  1  0
 23 24  1  0
 24 28  1  0
 25 24  2  0
 26 27  1  0
 26 21  1  0
 29 26  2  0
M  END
$$$$
