KFH.pdb
     RDKit          3D

 31 32  0  0  1  0  0  0  0  0999 V2000
    9.4771  -16.4535   19.2144 N   0  0  0  0  0  0  0  0  0  0  0  0
    9.0052  -17.0245   20.4276 C   0  0  1  0  0  0  0  0  0  0  0  0
    9.6466  -18.3583   20.7874 C   0  0  0  0  0  0  0  0  0  0  0  0
    9.8044  -19.3063   19.6514 C   0  0  0  0  0  0  0  0  0  0  0  0
   10.3040  -20.6669   19.9860 C   0  0  0  0  0  0  0  0  0  0  0  0
   10.4472  -21.5533   18.7586 C   0  0  0  0  0  0  0  0  0  0  0  0
   10.9992  -22.8328   19.1561 N   0  0  0  0  0  0  0  0  0  0  0  0
    9.0611  -16.0727   21.5315 C   0  0  0  0  0  0  0  0  0  0  0  0
   10.1946  -15.4723   21.6885 O   0  0  0  0  0  0  0  0  0  0  0  0
    8.0889  -15.6970   22.4573 N   0  0  0  0  0  0  0  0  0  0  0  0
    8.3334  -14.7582   23.5507 C   0  0  1  0  0  0  0  0  0  0  0  0
    6.9829  -14.3244   24.0751 C   0  0  0  0  0  0  0  0  0  0  0  0
    7.1043  -13.3378   25.1789 C   0  0  0  0  0  0  0  0  0  0  0  0
    7.8238  -12.1739   25.0161 C   0  0  0  0  0  0  0  0  0  0  0  0
    7.9295  -11.2636   26.0448 C   0  0  0  0  0  0  0  0  0  0  0  0
    7.2935  -11.5621   27.2290 C   0  0  0  0  0  0  0  0  0  0  0  0
    6.5646  -12.7377   27.3997 C   0  0  0  0  0  0  0  0  0  0  0  0
    6.4612  -13.6460   26.3675 C   0  0  0  0  0  0  0  0  0  0  0  0
    9.0639  -15.3864   24.6661 C   0  0  0  0  0  0  0  0  0  0  0  0
    9.2595  -14.6872   25.6921 O   0  0  0  0  0  0  0  0  0  0  0  0
    9.5552  -16.7196   24.6520 N   0  0  0  0  0  0  0  0  0  0  0  0
   10.2571  -17.3002   25.7849 C   0  0  1  0  0  0  0  0  0  0  0  0
    9.9739  -18.7815   25.7726 C   0  0  0  0  0  0  0  0  0  0  0  0
    8.6771  -19.1531   26.3520 C   0  0  0  0  0  0  0  0  0  0  0  0
    7.9341  -18.3649   27.2142 C   0  0  0  0  0  0  0  0  0  0  0  0
    6.8274  -19.0762   27.5016 N   0  0  0  0  0  0  0  0  0  0  0  0
    6.8924  -20.2436   26.8455 C   0  0  0  0  0  0  0  0  0  0  0  0
    8.0186  -20.3194   26.1305 N   0  0  0  0  0  0  0  0  0  0  0  0
   11.7009  -16.9740   25.7543 C   0  0  0  0  0  0  0  0  0  0  0  0
   12.4171  -16.8891   26.7853 O   0  0  0  0  0  0  0  0  0  0  0  0
   12.3324  -16.7435   24.5427 O   0  0  0  0  0  0  0  0  0  0  0  0
  2  1  1  6
  3  2  1  0
  3  4  1  0
  5  4  1  0
  6  5  1  0
  7  6  1  0
  8  9  2  0
  8  2  1  0
 10  8  1  0
 11 10  1  0
 11 12  1  1
 12 13  1  0
 13 18  1  0
 13 14  2  0
 14 15  1  0
 15 16  2  0
 17 16  1  0
 18 17  2  0
 19 11  1  0
 20 19  2  0
 21 19  1  0
 22 29  1  0
 22 21  1  0
 22 23  1  6
 23 24  1  0
 24 28  1  0
 24 25  2  0
 25 26  1  0
 27 26  1  0
 28 27  2  0
 29 31  1  0
 30 29  2  0
M  END
$$$$
