KFH.pdb
     RDKit          3D

 31 32  0  0  1  0  0  0  0  0999 V2000
   10.2375  -16.1511   19.0827 N   0  0  0  0  0  0  0  0  0  0  0  0
    9.1067  -16.4809   19.8786 C   0  0  1  0  0  0  0  0  0  0  0  0
    8.8586  -17.9759   20.0316 C   0  0  0  0  0  0  0  0  0  0  0  0
    8.6512  -18.7122   18.7553 C   0  0  0  0  0  0  0  0  0  0  0  0
    8.4263  -20.1787   18.8633 C   0  0  0  0  0  0  0  0  0  0  0  0
    8.0857  -20.8162   17.5253 C   0  0  0  0  0  0  0  0  0  0  0  0
    7.8167  -22.2263   17.7235 N   0  0  0  0  0  0  0  0  0  0  0  0
    9.1314  -15.7938   21.1650 C   0  0  0  0  0  0  0  0  0  0  0  0
   10.2794  -15.7685   21.7578 O   0  0  0  0  0  0  0  0  0  0  0  0
    8.1151  -15.1533   21.8724 N   0  0  0  0  0  0  0  0  0  0  0  0
    8.2950  -14.5794   23.2047 C   0  0  1  0  0  0  0  0  0  0  0  0
    6.9948  -13.9028   23.5769 C   0  0  0  0  0  0  0  0  0  0  0  0
    7.0463  -13.3061   24.9362 C   0  0  0  0  0  0  0  0  0  0  0  0
    6.1642  -13.6992   25.9192 C   0  0  0  0  0  0  0  0  0  0  0  0
    6.2206  -13.1416   27.1777 C   0  0  0  0  0  0  0  0  0  0  0  0
    7.1843  -12.1858   27.4097 C   0  0  0  0  0  0  0  0  0  0  0  0
    8.0790  -11.7840   26.4196 C   0  0  0  0  0  0  0  0  0  0  0  0
    8.0192  -12.3447   25.1613 C   0  0  0  0  0  0  0  0  0  0  0  0
    8.5664  -15.6129   24.2199 C   0  0  0  0  0  0  0  0  0  0  0  0
    7.6678  -16.4674   24.4254 O   0  0  0  0  0  0  0  0  0  0  0  0
    9.7685  -15.7007   24.9723 N   0  0  0  0  0  0  0  0  0  0  0  0
   10.0068  -16.7650   25.9333 C   0  0  1  0  0  0  0  0  0  0  0  0
   11.4390  -17.2062   25.7631 C   0  0  0  0  0  0  0  0  0  0  0  0
   11.6976  -17.9538   24.5263 C   0  0  0  0  0  0  0  0  0  0  0  0
   10.7396  -18.6242   23.7851 C   0  0  0  0  0  0  0  0  0  0  0  0
   11.3954  -19.1685   22.7425 N   0  0  0  0  0  0  0  0  0  0  0  0
   12.6927  -18.8454   22.8432 C   0  0  0  0  0  0  0  0  0  0  0  0
   12.9086  -18.0990   23.9302 N   0  0  0  0  0  0  0  0  0  0  0  0
    9.6803  -16.3351   27.3118 C   0  0  0  0  0  0  0  0  0  0  0  0
    9.3276  -17.1281   28.2229 O   0  0  0  0  0  0  0  0  0  0  0  0
    9.7564  -14.9948   27.6546 O   0  0  0  0  0  0  0  0  0  0  0  0
  2  1  1  1
  3  2  1  0
  3  4  1  0
  5  4  1  0
  6  5  1  0
  7  6  1  0
  8  9  2  0
  8  2  1  0
 10  8  1  0
 11 10  1  0
 11 12  1  1
 12 13  1  0
 13 18  1  0
 13 14  2  0
 14 15  1  0
 15 16  2  0
 17 16  1  0
 18 17  2  0
 19 11  1  0
 20 19  2  0
 21 19  1  0
 22 29  1  0
 22 21  1  0
 22 23  1  1
 23 24  1  0
 24 28  1  0
 24 25  2  0
 25 26  1  0
 27 26  1  0
 28 27  2  0
 29 31  1  0
 30 29  2  0
M  END
$$$$
