KFH.pdb
     RDKit          3D

 31 32  0  0  1  0  0  0  0  0999 V2000
    8.8693  -17.9376   20.6471 N   0  0  0  0  0  0  0  0  0  0  0  0
    9.8969  -16.9572   20.5874 C   0  0  1  0  0  0  0  0  0  0  0  0
   10.1414  -16.3848   19.1973 C   0  0  0  0  0  0  0  0  0  0  0  0
    9.9893  -17.3575   18.0816 C   0  0  0  0  0  0  0  0  0  0  0  0
    8.6253  -17.4996   17.5052 C   0  0  0  0  0  0  0  0  0  0  0  0
    8.5800  -18.4901   16.3522 C   0  0  0  0  0  0  0  0  0  0  0  0
    7.2017  -18.6982   15.9561 N   0  0  0  0  0  0  0  0  0  0  0  0
    9.7059  -15.9114   21.5861 C   0  0  0  0  0  0  0  0  0  0  0  0
   10.6978  -15.0959   21.7311 O   0  0  0  0  0  0  0  0  0  0  0  0
    8.6233  -15.6397   22.4213 N   0  0  0  0  0  0  0  0  0  0  0  0
    8.6345  -14.5978   23.4465 C   0  0  1  0  0  0  0  0  0  0  0  0
    7.1963  -14.3455   23.8402 C   0  0  0  0  0  0  0  0  0  0  0  0
    7.0873  -13.3816   24.9651 C   0  0  0  0  0  0  0  0  0  0  0  0
    6.4370  -13.7208   26.1316 C   0  0  0  0  0  0  0  0  0  0  0  0
    6.3424  -12.8209   27.1705 C   0  0  0  0  0  0  0  0  0  0  0  0
    6.9183  -11.5824   26.9965 C   0  0  0  0  0  0  0  0  0  0  0  0
    7.5772  -11.2334   25.8189 C   0  0  0  0  0  0  0  0  0  0  0  0
    7.6696  -12.1371   24.7816 C   0  0  0  0  0  0  0  0  0  0  0  0
    9.3604  -15.0213   24.6574 C   0  0  0  0  0  0  0  0  0  0  0  0
    9.1411  -14.3774   25.7143 O   0  0  0  0  0  0  0  0  0  0  0  0
   10.2830  -16.1010   24.7018 N   0  0  0  0  0  0  0  0  0  0  0  0
   10.8925  -16.5506   25.9425 C   0  0  1  0  0  0  0  0  0  0  0  0
    9.7717  -16.9380   26.8744 C   0  0  0  0  0  0  0  0  0  0  0  0
   10.2181  -17.5118   28.1499 C   0  0  0  0  0  0  0  0  0  0  0  0
   11.5346  -17.5907   28.5711 C   0  0  0  0  0  0  0  0  0  0  0  0
   11.4990  -18.1800   29.7815 N   0  0  0  0  0  0  0  0  0  0  0  0
   10.2208  -18.4480   30.0842 C   0  0  0  0  0  0  0  0  0  0  0  0
    9.4104  -18.0485   29.0998 N   0  0  0  0  0  0  0  0  0  0  0  0
   11.8673  -17.6393   25.7053 C   0  0  0  0  0  0  0  0  0  0  0  0
   13.1141  -17.4692   25.7050 O   0  0  0  0  0  0  0  0  0  0  0  0
   11.4198  -18.9288   25.4676 O   0  0  0  0  0  0  0  0  0  0  0  0
  2  1  1  6
  3  2  1  0
  3  4  1  0
  5  4  1  0
  6  5  1  0
  7  6  1  0
  8  9  2  0
  8  2  1  0
 10  8  1  0
 11 10  1  0
 11 12  1  1
 12 13  1  0
 13 18  1  0
 13 14  2  0
 14 15  1  0
 15 16  2  0
 17 16  1  0
 18 17  2  0
 19 11  1  0
 20 19  2  0
 21 19  1  0
 22 29  1  0
 22 21  1  0
 22 23  1  1
 23 24  1  0
 24 28  1  0
 24 25  2  0
 25 26  1  0
 27 26  1  0
 28 27  2  0
 29 31  1  0
 30 29  2  0
M  END
$$$$
