RFD.pdb
     RDKit          3D

 31 31  0  0  1  0  0  0  0  0999 V2000
   25.1777  -24.4851  -16.0430 N   0  0  0  0  0  0  0  0  0  0  0  0
   24.5192  -23.3494  -16.5857 C   0  0  0  0  0  0  0  0  0  0  0  0
   23.3754  -23.4755  -17.1376 N   0  0  0  0  0  0  0  0  0  0  0  0
   25.1239  -22.0236  -16.5281 N   0  0  0  0  0  0  0  0  0  0  0  0
   26.2658  -21.7976  -15.7058 C   0  0  0  0  0  0  0  0  0  0  0  0
   26.0177  -21.6023  -14.2734 C   0  0  0  0  0  0  0  0  0  0  0  0
   26.6168  -20.4768  -13.5483 C   0  0  0  0  0  0  0  0  0  0  0  0
   27.6179  -20.6933  -12.4932 C   0  0  2  0  0  0  0  0  0  0  0  0
   28.5264  -21.7699  -12.9396 N   0  0  0  0  0  0  0  0  0  0  0  0
   26.9937  -21.1376  -11.1943 C   0  0  0  0  0  0  0  0  0  0  0  0
   27.0198  -22.3119  -10.7791 O   0  0  0  0  0  0  0  0  0  0  0  0
   22.8439  -22.6525  -17.4869 N   0  0  0  0  0  0  0  0  0  0  0  0
   26.3234  -20.1982  -10.3562 C   0  0  1  0  0  0  0  0  0  0  0  0
   25.7345  -20.5438   -9.0651 C   0  0  0  0  0  0  0  0  0  0  0  0
   25.8392  -19.3687   -8.1285 C   0  0  0  0  0  0  0  0  0  0  0  0
   26.8884  -19.4238   -7.1273 C   0  0  0  0  0  0  0  0  0  0  0  0
   27.6503  -18.2899   -6.9055 C   0  0  0  0  0  0  0  0  0  0  0  0
   28.6587  -18.2727   -5.9520 C   0  0  0  0  0  0  0  0  0  0  0  0
   28.9211  -19.3857   -5.2066 C   0  0  0  0  0  0  0  0  0  0  0  0
   28.1851  -20.5152   -5.4056 C   0  0  0  0  0  0  0  0  0  0  0  0
   27.1870  -20.5240   -6.3529 C   0  0  0  0  0  0  0  0  0  0  0  0
   24.3002  -20.8848   -9.2103 O   0  0  0  0  0  0  0  0  0  0  0  0
   23.7779  -20.7444  -10.3420 N   0  0  0  0  0  0  0  0  0  0  0  0
   23.4960  -21.3566   -8.1489 C   0  0  1  0  0  0  0  0  0  0  0  0
   22.1308  -21.7358   -8.4415 C   0  0  0  0  0  0  0  0  0  0  0  0
   21.3837  -22.2882   -7.2644 C   0  0  0  0  0  0  0  0  0  0  0  0
   20.0100  -22.6785   -7.6102 O   0  0  0  0  0  0  0  0  0  0  0  0
   19.6025  -22.5463   -8.7814 C   0  0  0  0  0  0  0  0  0  0  0  0
   21.3399  -20.5576   -8.9220 O   0  0  0  0  0  0  0  0  0  0  0  0
   21.7133  -19.2537   -8.6998 O   0  0  0  0  0  0  0  0  0  0  0  0
   19.1545  -23.1927   -6.6577 O   0  0  0  0  0  0  0  0  0  0  0  0
  2  3  2  0
  2  1  1  0
  4  2  1  0
  5  4  1  0
  6  5  1  0
  7  6  1  0
  8  9  1  6
  8 10  1  0
  8  7  1  0
 10 11  2  0
 12 13  1  0
 12 10  1  0
 13 21  1  0
 13 14  1  1
 15 14  1  0
 16 15  2  0
 17 16  1  0
 18 17  2  0
 18 19  1  0
 19 20  2  0
 20 15  1  0
 21 23  1  0
 21 22  2  0
 23 24  1  0
 24 28  1  0
 24 25  1  1
 26 25  1  0
 26 27  2  0
 28 31  2  0
 28 29  1  0
 30 26  1  0
M  END
$$$$
