RFD.pdb
     RDKit          3D

 31 31  0  0  1  0  0  0  0  0999 V2000
   33.9799  -23.7761  -11.3109 N   0  0  0  0  0  0  0  0  0  0  0  0
   33.9168  -24.3020  -12.6290 C   0  0  0  0  0  0  0  0  0  0  0  0
   34.8407  -25.0719  -13.0561 N   0  0  0  0  0  0  0  0  0  0  0  0
   32.8081  -23.9811  -13.5205 N   0  0  0  0  0  0  0  0  0  0  0  0
   32.2190  -22.6839  -13.4848 C   0  0  0  0  0  0  0  0  0  0  0  0
   31.4023  -22.3635  -12.3093 C   0  0  0  0  0  0  0  0  0  0  0  0
   29.9817  -22.7247  -12.2537 C   0  0  0  0  0  0  0  0  0  0  0  0
   28.9334  -21.7624  -12.6242 C   0  0  2  0  0  0  0  0  0  0  0  0
   29.5386  -20.4145  -12.6487 N   0  0  0  0  0  0  0  0  0  0  0  0
   27.8042  -21.7332  -11.6251 C   0  0  0  0  0  0  0  0  0  0  0  0
   27.1358  -22.7348  -11.3054 O   0  0  0  0  0  0  0  0  0  0  0  0
   34.8252  -25.4607  -14.0207 N   0  0  0  0  0  0  0  0  0  0  0  0
   27.4409  -20.5138  -10.9806 C   0  0  1  0  0  0  0  0  0  0  0  0
   26.2853  -20.3797  -10.0977 C   0  0  0  0  0  0  0  0  0  0  0  0
   26.5340  -19.2795   -9.0994 C   0  0  0  0  0  0  0  0  0  0  0  0
   27.2053  -19.6548   -7.8686 C   0  0  0  0  0  0  0  0  0  0  0  0
   26.4380  -20.1046   -6.8082 C   0  0  0  0  0  0  0  0  0  0  0  0
   27.0198  -20.4928   -5.6094 C   0  0  0  0  0  0  0  0  0  0  0  0
   28.3746  -20.4379   -5.4515 C   0  0  0  0  0  0  0  0  0  0  0  0
   29.1526  -19.9987   -6.4806 C   0  0  0  0  0  0  0  0  0  0  0  0
   28.5679  -19.6157   -7.6659 C   0  0  0  0  0  0  0  0  0  0  0  0
   25.0677  -20.0314  -10.8663 O   0  0  0  0  0  0  0  0  0  0  0  0
   25.2135  -19.3784  -11.9273 N   0  0  0  0  0  0  0  0  0  0  0  0
   23.7609  -20.3935  -10.4700 C   0  0  1  0  0  0  0  0  0  0  0  0
   22.7289  -20.4458  -11.4826 C   0  0  0  0  0  0  0  0  0  0  0  0
   22.9442  -21.5059  -12.5212 C   0  0  0  0  0  0  0  0  0  0  0  0
   21.8472  -21.5600  -13.4972 O   0  0  0  0  0  0  0  0  0  0  0  0
   21.2153  -22.6222  -13.6638 C   0  0  0  0  0  0  0  0  0  0  0  0
   21.3917  -20.7282  -10.8692 O   0  0  0  0  0  0  0  0  0  0  0  0
   20.1996  -20.5025  -11.5151 O   0  0  0  0  0  0  0  0  0  0  0  0
   21.4988  -20.4503  -14.2393 O   0  0  0  0  0  0  0  0  0  0  0  0
  2  3  2  0
  2  1  1  0
  4  2  1  0
  5  4  1  0
  6  5  1  0
  7  6  1  0
  8  9  1  1
  8 10  1  0
  8  7  1  0
 10 11  2  0
 12 13  1  0
 12 10  1  0
 13 21  1  0
 13 14  1  1
 15 14  1  0
 16 15  2  0
 17 16  1  0
 18 17  2  0
 18 19  1  0
 19 20  2  0
 20 15  1  0
 21 23  1  0
 21 22  2  0
 23 24  1  0
 24 28  1  0
 24 25  1  6
 26 25  1  0
 26 27  2  0
 28 31  2  0
 28 29  1  0
 30 26  1  0
M  END
$$$$
