RFD.pdb
     RDKit          3D

 31 31  0  0  1  0  0  0  0  0999 V2000
   27.7753  -27.4450  -16.8404 N   0  0  0  0  0  0  0  0  0  0  0  0
   26.4114  -27.7995  -16.6610 C   0  0  0  0  0  0  0  0  0  0  0  0
   26.0843  -29.0217  -16.4932 N   0  0  0  0  0  0  0  0  0  0  0  0
   25.3595  -26.7894  -16.6632 N   0  0  0  0  0  0  0  0  0  0  0  0
   25.6801  -25.4290  -16.9415 C   0  0  0  0  0  0  0  0  0  0  0  0
   26.8021  -24.8506  -16.1945 C   0  0  0  0  0  0  0  0  0  0  0  0
   26.5869  -23.7824  -15.2125 C   0  0  0  0  0  0  0  0  0  0  0  0
   25.5783  -22.7350  -15.4311 C   0  0  2  0  0  0  0  0  0  0  0  0
   26.2645  -21.4266  -15.4006 N   0  0  0  0  0  0  0  0  0  0  0  0
   24.5259  -22.7193  -14.3512 C   0  0  0  0  0  0  0  0  0  0  0  0
   24.5371  -23.4762  -13.3618 O   0  0  0  0  0  0  0  0  0  0  0  0
   25.0966  -29.3054  -16.3320 N   0  0  0  0  0  0  0  0  0  0  0  0
   23.4343  -21.8039  -14.4192 C   0  0  1  0  0  0  0  0  0  0  0  0
   22.4317  -21.6623  -13.3666 C   0  0  0  0  0  0  0  0  0  0  0  0
   22.6838  -20.3949  -12.5927 C   0  0  0  0  0  0  0  0  0  0  0  0
   23.7271  -20.4422  -11.5849 C   0  0  0  0  0  0  0  0  0  0  0  0
   23.3586  -20.5873  -10.2588 C   0  0  0  0  0  0  0  0  0  0  0  0
   24.3082  -20.6544   -9.2488 C   0  0  0  0  0  0  0  0  0  0  0  0
   25.6380  -20.5778   -9.5472 C   0  0  0  0  0  0  0  0  0  0  0  0
   26.0270  -20.4349  -10.8453 C   0  0  0  0  0  0  0  0  0  0  0  0
   25.0793  -20.3693  -11.8409 C   0  0  0  0  0  0  0  0  0  0  0  0
   21.0680  -21.5832  -13.9397 O   0  0  0  0  0  0  0  0  0  0  0  0
   20.9192  -20.9417  -15.0073 N   0  0  0  0  0  0  0  0  0  0  0  0
   19.9348  -22.1880  -13.3515 C   0  0  1  0  0  0  0  0  0  0  0  0
   18.6420  -21.9518  -13.9564 C   0  0  0  0  0  0  0  0  0  0  0  0
   17.6145  -22.9941  -13.6302 C   0  0  0  0  0  0  0  0  0  0  0  0
   17.9508  -24.3054  -14.2016 O   0  0  0  0  0  0  0  0  0  0  0  0
   18.8887  -24.4057  -15.0175 C   0  0  0  0  0  0  0  0  0  0  0  0
   18.0694  -20.6445  -13.5008 O   0  0  0  0  0  0  0  0  0  0  0  0
   18.6372  -19.8712  -12.5166 O   0  0  0  0  0  0  0  0  0  0  0  0
   17.2444  -25.4375  -13.8511 O   0  0  0  0  0  0  0  0  0  0  0  0
  2  3  2  0
  2  1  1  0
  4  2  1  0
  5  4  1  0
  6  5  1  0
  7  6  1  0
  8  9  1  1
  8 10  1  0
  8  7  1  0
 10 11  2  0
 12 13  1  0
 12 10  1  0
 13 21  1  0
 13 14  1  1
 15 14  1  0
 16 15  2  0
 17 16  1  0
 18 17  2  0
 18 19  1  0
 19 20  2  0
 20 15  1  0
 21 23  1  0
 21 22  2  0
 23 24  1  0
 24 28  1  0
 24 25  1  6
 26 25  1  0
 26 27  2  0
 28 31  2  0
 28 29  1  0
 30 26  1  0
M  END
$$$$
