RFD.pdb
     RDKit          3D

 31 31  0  0  1  0  0  0  0  0999 V2000
   30.4305  -22.7871  -16.0214 N   0  0  0  0  0  0  0  0  0  0  0  0
   29.8221  -21.8121  -16.8564 C   0  0  0  0  0  0  0  0  0  0  0  0
   29.4210  -22.1306  -18.0254 N   0  0  0  0  0  0  0  0  0  0  0  0
   29.6406  -20.4366  -16.4070 N   0  0  0  0  0  0  0  0  0  0  0  0
   29.8414  -20.1038  -15.0358 C   0  0  0  0  0  0  0  0  0  0  0  0
   29.3879  -21.0870  -14.0463 C   0  0  0  0  0  0  0  0  0  0  0  0
   28.5488  -20.6868  -12.9116 C   0  0  0  0  0  0  0  0  0  0  0  0
   29.0380  -20.7818  -11.5282 C   0  0  2  0  0  0  0  0  0  0  0  0
   30.0651  -21.8432  -11.4788 N   0  0  0  0  0  0  0  0  0  0  0  0
   27.9466  -21.1629  -10.5599 C   0  0  0  0  0  0  0  0  0  0  0  0
   27.6021  -22.3382  -10.3319 O   0  0  0  0  0  0  0  0  0  0  0  0
   28.9975  -21.4301  -18.6671 N   0  0  0  0  0  0  0  0  0  0  0  0
   27.2375  -20.1577   -9.8381 C   0  0  2  0  0  0  0  0  0  0  0  0
   25.9560  -20.3900   -9.1771 C   0  0  0  0  0  0  0  0  0  0  0  0
   25.8171  -19.4621   -7.9988 C   0  0  0  0  0  0  0  0  0  0  0  0
   26.7679  -19.6354   -6.9161 C   0  0  0  0  0  0  0  0  0  0  0  0
   26.6673  -20.7651   -6.1229 C   0  0  0  0  0  0  0  0  0  0  0  0
   27.5546  -20.9973   -5.0812 C   0  0  0  0  0  0  0  0  0  0  0  0
   28.5541  -20.1063   -4.8160 C   0  0  0  0  0  0  0  0  0  0  0  0
   28.6748  -18.9860   -5.5825 C   0  0  0  0  0  0  0  0  0  0  0  0
   27.7912  -18.7633   -6.6136 C   0  0  0  0  0  0  0  0  0  0  0  0
   24.8275  -20.1272  -10.1001 O   0  0  0  0  0  0  0  0  0  0  0  0
   25.0957  -19.6591  -11.2325 N   0  0  0  0  0  0  0  0  0  0  0  0
   23.4752  -20.3746   -9.7743 C   0  0  1  0  0  0  0  0  0  0  0  0
   22.5130  -20.4404  -10.8526 C   0  0  0  0  0  0  0  0  0  0  0  0
   22.8115  -21.4959  -11.8752 C   0  0  0  0  0  0  0  0  0  0  0  0
   21.7570  -21.5986  -12.8933 O   0  0  0  0  0  0  0  0  0  0  0  0
   20.5859  -21.8571  -12.5513 C   0  0  0  0  0  0  0  0  0  0  0  0
   21.1425  -20.7431  -10.3285 O   0  0  0  0  0  0  0  0  0  0  0  0
   19.9868  -20.3975  -10.9872 O   0  0  0  0  0  0  0  0  0  0  0  0
   22.0383  -21.4133  -14.2312 O   0  0  0  0  0  0  0  0  0  0  0  0
  2  3  2  0
  2  1  1  0
  4  2  1  0
  5  4  1  0
  6  5  1  0
  7  6  1  0
  8  9  1  6
  8 10  1  0
  8  7  1  0
 10 11  2  0
 12 13  1  0
 12 10  1  0
 13 21  1  0
 13 14  1  1
 15 14  1  0
 16 15  2  0
 17 16  1  0
 18 17  2  0
 18 19  1  0
 19 20  2  0
 20 15  1  0
 21 23  1  0
 21 22  2  0
 23 24  1  0
 24 28  1  0
 24 25  1  6
 26 25  1  0
 26 27  2  0
 28 31  2  0
 28 29  1  0
 30 26  1  0
M  END
$$$$
