RFD.pdb
     RDKit          3D

 31 31  0  0  1  0  0  0  0  0999 V2000
   16.7856  -11.7378  -20.6762 N   0  0  0  0  0  0  0  0  0  0  0  0
   17.7762  -11.7876  -21.6933 C   0  0  0  0  0  0  0  0  0  0  0  0
   17.4800  -12.2263  -22.8546 N   0  0  0  0  0  0  0  0  0  0  0  0
   19.1426  -11.3440  -21.4424 N   0  0  0  0  0  0  0  0  0  0  0  0
   19.5447  -10.9907  -20.1216 C   0  0  0  0  0  0  0  0  0  0  0  0
   19.4260  -12.0327  -19.0961 C   0  0  0  0  0  0  0  0  0  0  0  0
   19.8481  -11.7851  -17.7133 C   0  0  0  0  0  0  0  0  0  0  0  0
   21.2453  -11.4637  -17.3865 C   0  0  2  0  0  0  0  0  0  0  0  0
   21.8785  -12.6821  -16.8402 N   0  0  0  0  0  0  0  0  0  0  0  0
   21.3545  -10.3872  -16.3361 C   0  0  0  0  0  0  0  0  0  0  0  0
   21.0390  -10.5499  -15.1420 O   0  0  0  0  0  0  0  0  0  0  0  0
   18.1844  -12.2676  -23.6188 N   0  0  0  0  0  0  0  0  0  0  0  0
   21.8414   -9.0909  -16.6778 C   0  0  2  0  0  0  0  0  0  0  0  0
   21.9612   -7.9946  -15.7203 C   0  0  0  0  0  0  0  0  0  0  0  0
   23.3743   -7.4730  -15.7199 C   0  0  0  0  0  0  0  0  0  0  0  0
   24.4295   -8.4478  -15.5138 C   0  0  0  0  0  0  0  0  0  0  0  0
   24.4541   -9.1531  -14.3233 C   0  0  0  0  0  0  0  0  0  0  0  0
   25.4277  -10.1096  -14.0706 C   0  0  0  0  0  0  0  0  0  0  0  0
   26.3900  -10.3757  -15.0015 C   0  0  0  0  0  0  0  0  0  0  0  0
   26.3878   -9.6950  -16.1820 C   0  0  0  0  0  0  0  0  0  0  0  0
   25.4190   -8.7484  -16.4248 C   0  0  0  0  0  0  0  0  0  0  0  0
   21.0616   -6.8743  -16.0811 O   0  0  0  0  0  0  0  0  0  0  0  0
   20.8109   -6.6946  -17.2969 N   0  0  0  0  0  0  0  0  0  0  0  0
   20.4756   -6.0043  -15.1347 C   0  0  1  0  0  0  0  0  0  0  0  0
   19.5219   -5.0236  -15.6056 C   0  0  0  0  0  0  0  0  0  0  0  0
   18.3135   -5.6147  -16.2683 C   0  0  0  0  0  0  0  0  0  0  0  0
   17.3412   -4.5889  -16.6699 O   0  0  0  0  0  0  0  0  0  0  0  0
   17.6944   -3.3956  -16.7510 C   0  0  0  0  0  0  0  0  0  0  0  0
   19.0096   -4.1886  -14.4722 O   0  0  0  0  0  0  0  0  0  0  0  0
   18.2750   -3.0406  -14.6494 O   0  0  0  0  0  0  0  0  0  0  0  0
   16.0344   -4.9215  -16.9616 O   0  0  0  0  0  0  0  0  0  0  0  0
  2  3  2  0
  2  1  1  0
  4  2  1  0
  5  4  1  0
  6  5  1  0
  7  6  1  0
  8  9  1  1
  8 10  1  0
  8  7  1  0
 10 11  2  0
 12 13  1  0
 12 10  1  0
 13 21  1  0
 13 14  1  1
 15 14  1  0
 16 15  2  0
 17 16  1  0
 18 17  2  0
 18 19  1  0
 19 20  2  0
 20 15  1  0
 21 23  1  0
 21 22  2  0
 23 24  1  0
 24 28  1  0
 24 25  1  6
 26 25  1  0
 26 27  2  0
 28 31  2  0
 28 29  1  0
 30 26  1  0
M  END
$$$$
