RFD.pdb
     RDKit          3D

 31 31  0  0  1  0  0  0  0  0999 V2000
   23.1294  -18.5367  -21.6890 N   0  0  0  0  0  0  0  0  0  0  0  0
   24.2458  -17.6587  -21.7183 C   0  0  0  0  0  0  0  0  0  0  0  0
   24.5343  -17.0252  -22.7880 N   0  0  0  0  0  0  0  0  0  0  0  0
   25.0834  -17.4587  -20.5412 N   0  0  0  0  0  0  0  0  0  0  0  0
   24.8633  -18.2406  -19.3702 C   0  0  0  0  0  0  0  0  0  0  0  0
   24.1491  -19.5091  -19.5500 C   0  0  0  0  0  0  0  0  0  0  0  0
   23.8853  -20.3967  -18.4123 C   0  0  0  0  0  0  0  0  0  0  0  0
   24.8785  -20.5870  -17.3449 C   0  0  2  0  0  0  0  0  0  0  0  0
   25.8841  -21.5579  -17.8244 N   0  0  0  0  0  0  0  0  0  0  0  0
   24.2668  -21.1526  -16.0879 C   0  0  0  0  0  0  0  0  0  0  0  0
   23.7869  -22.2994  -16.0064 O   0  0  0  0  0  0  0  0  0  0  0  0
   25.3441  -16.3741  -22.8355 N   0  0  0  0  0  0  0  0  0  0  0  0
   24.2102  -20.3706  -14.8966 C   0  0  2  0  0  0  0  0  0  0  0  0
   23.5929  -20.8317  -13.6559 C   0  0  0  0  0  0  0  0  0  0  0  0
   24.0656  -19.9806  -12.5066 C   0  0  0  0  0  0  0  0  0  0  0  0
   23.4884  -20.2625  -11.2052 C   0  0  0  0  0  0  0  0  0  0  0  0
   22.2949  -19.6499  -10.8651 C   0  0  0  0  0  0  0  0  0  0  0  0
   21.6835  -19.8889   -9.6422 C   0  0  0  0  0  0  0  0  0  0  0  0
   22.2538  -20.7419   -8.7418 C   0  0  0  0  0  0  0  0  0  0  0  0
   23.4289  -21.3579   -9.0527 C   0  0  0  0  0  0  0  0  0  0  0  0
   24.0286  -21.1157  -10.2673 C   0  0  0  0  0  0  0  0  0  0  0  0
   22.1170  -20.7248  -13.7258 O   0  0  0  0  0  0  0  0  0  0  0  0
   21.6288  -19.6554  -14.1632 N   0  0  0  0  0  0  0  0  0  0  0  0
   21.2372  -21.7564  -13.3287 C   0  0  1  0  0  0  0  0  0  0  0  0
   19.8142  -21.5272  -13.4526 C   0  0  0  0  0  0  0  0  0  0  0  0
   19.1399  -22.4011  -14.4676 C   0  0  0  0  0  0  0  0  0  0  0  0
   17.7050  -22.1086  -14.5886 O   0  0  0  0  0  0  0  0  0  0  0  0
   16.8827  -22.7304  -13.8869 C   0  0  0  0  0  0  0  0  0  0  0  0
   19.1161  -21.7833  -12.1520 O   0  0  0  0  0  0  0  0  0  0  0  0
   18.0038  -21.0888  -11.7403 O   0  0  0  0  0  0  0  0  0  0  0  0
   17.2449  -21.1521  -15.4700 O   0  0  0  0  0  0  0  0  0  0  0  0
  2  3  2  0
  2  1  1  0
  4  2  1  0
  5  4  1  0
  6  5  1  0
  7  6  1  0
  8  9  1  6
  8 10  1  0
  8  7  1  0
 10 11  2  0
 12 13  1  0
 12 10  1  0
 13 21  1  0
 13 14  1  6
 15 14  1  0
 16 15  2  0
 17 16  1  0
 18 17  2  0
 18 19  1  0
 19 20  2  0
 20 15  1  0
 21 23  1  0
 21 22  2  0
 23 24  1  0
 24 28  1  0
 24 25  1  1
 26 25  1  0
 26 27  2  0
 28 31  2  0
 28 29  1  0
 30 26  1  0
M  END
$$$$
