RFD.pdb
     RDKit          3D

 31 31  0  0  1  0  0  0  0  0999 V2000
   30.0502  -21.6748  -18.1886 N   0  0  0  0  0  0  0  0  0  0  0  0
   29.3166  -20.7619  -18.9927 C   0  0  0  0  0  0  0  0  0  0  0  0
   29.0073  -21.0704  -20.1918 N   0  0  0  0  0  0  0  0  0  0  0  0
   28.9013  -19.4626  -18.4770 N   0  0  0  0  0  0  0  0  0  0  0  0
   28.8660  -19.2334  -17.0708 C   0  0  0  0  0  0  0  0  0  0  0  0
   27.6310  -19.6076  -16.3734 C   0  0  0  0  0  0  0  0  0  0  0  0
   27.4716  -19.3671  -14.9352 C   0  0  0  0  0  0  0  0  0  0  0  0
   27.9593  -20.3334  -13.9400 C   0  0  2  0  0  0  0  0  0  0  0  0
   28.6621  -21.4156  -14.6603 N   0  0  0  0  0  0  0  0  0  0  0  0
   26.8358  -20.9659  -13.1577 C   0  0  0  0  0  0  0  0  0  0  0  0
   26.1963  -21.9620  -13.5461 O   0  0  0  0  0  0  0  0  0  0  0  0
   28.5404  -20.3919  -20.8271 N   0  0  0  0  0  0  0  0  0  0  0  0
   26.4443  -20.4313  -11.8948 C   0  0  1  0  0  0  0  0  0  0  0  0
   25.3511  -20.9731  -11.0920 C   0  0  0  0  0  0  0  0  0  0  0  0
   25.4790  -20.4928   -9.6700 C   0  0  0  0  0  0  0  0  0  0  0  0
   26.7703  -20.6758   -9.0333 C   0  0  0  0  0  0  0  0  0  0  0  0
   27.0572  -19.9388   -7.8975 C   0  0  0  0  0  0  0  0  0  0  0  0
   28.2678  -20.0782   -7.2331 C   0  0  0  0  0  0  0  0  0  0  0  0
   29.2088  -20.9542   -7.6920 C   0  0  0  0  0  0  0  0  0  0  0  0
   28.9507  -21.6918   -8.8083 C   0  0  0  0  0  0  0  0  0  0  0  0
   27.7479  -21.5478   -9.4613 C   0  0  0  0  0  0  0  0  0  0  0  0
   24.0385  -20.5217  -11.6094 O   0  0  0  0  0  0  0  0  0  0  0  0
   24.0351  -19.6760  -12.5358 N   0  0  0  0  0  0  0  0  0  0  0  0
   22.7996  -20.9904  -11.1180 C   0  0  1  0  0  0  0  0  0  0  0  0
   21.6903  -21.0881  -12.0416 C   0  0  0  0  0  0  0  0  0  0  0  0
   21.9081  -22.0654  -13.1580 C   0  0  0  0  0  0  0  0  0  0  0  0
   20.7916  -22.0774  -14.1131 O   0  0  0  0  0  0  0  0  0  0  0  0
   19.7840  -21.3741  -13.9002 C   0  0  0  0  0  0  0  0  0  0  0  0
   20.4449  -21.5311  -11.3365 O   0  0  0  0  0  0  0  0  0  0  0  0
   20.4233  -21.9440  -10.0257 O   0  0  0  0  0  0  0  0  0  0  0  0
   20.8355  -22.8573  -15.2503 O   0  0  0  0  0  0  0  0  0  0  0  0
  2  3  2  0
  2  1  1  0
  4  2  1  0
  5  4  1  0
  6  5  1  0
  7  6  1  0
  8  9  1  6
  8 10  1  0
  8  7  1  0
 10 11  2  0
 12 13  1  0
 12 10  1  0
 13 21  1  0
 13 14  1  6
 15 14  1  0
 16 15  2  0
 17 16  1  0
 18 17  2  0
 18 19  1  0
 19 20  2  0
 20 15  1  0
 21 23  1  0
 21 22  2  0
 23 24  1  0
 24 28  1  0
 24 25  1  1
 26 25  1  0
 26 27  2  0
 28 31  2  0
 28 29  1  0
 30 26  1  0
M  END
$$$$
