RFD.pdb
     RDKit          3D

 31 31  0  0  1  0  0  0  0  0999 V2000
   28.8536  -26.5964  -16.2074 N   0  0  0  0  0  0  0  0  0  0  0  0
   29.4953  -25.4426  -16.7319 C   0  0  0  0  0  0  0  0  0  0  0  0
   30.7140  -25.2000  -16.4411 N   0  0  0  0  0  0  0  0  0  0  0  0
   28.7884  -24.5145  -17.6069 N   0  0  0  0  0  0  0  0  0  0  0  0
   27.5018  -24.8562  -18.1158 C   0  0  0  0  0  0  0  0  0  0  0  0
   26.5278  -23.7655  -18.2301 C   0  0  0  0  0  0  0  0  0  0  0  0
   25.6647  -23.4003  -17.1016 C   0  0  0  0  0  0  0  0  0  0  0  0
   25.5058  -24.2900  -15.9418 C   0  0  2  0  0  0  0  0  0  0  0  0
   24.5444  -25.3509  -16.3082 N   0  0  0  0  0  0  0  0  0  0  0  0
   24.9483  -23.5697  -14.7399 C   0  0  0  0  0  0  0  0  0  0  0  0
   23.7344  -23.5183  -14.4645 O   0  0  0  0  0  0  0  0  0  0  0  0
   31.1964  -24.3433  -16.7810 N   0  0  0  0  0  0  0  0  0  0  0  0
   25.8187  -22.8930  -13.8351 C   0  0  2  0  0  0  0  0  0  0  0  0
   25.3486  -22.1026  -12.7005 C   0  0  0  0  0  0  0  0  0  0  0  0
   26.4512  -21.9693  -11.6830 C   0  0  0  0  0  0  0  0  0  0  0  0
   26.1396  -21.2246  -10.4769 C   0  0  0  0  0  0  0  0  0  0  0  0
   26.4203  -19.8697  -10.4459 C   0  0  0  0  0  0  0  0  0  0  0  0
   26.1329  -19.0982   -9.3286 C   0  0  0  0  0  0  0  0  0  0  0  0
   25.5616  -19.6669   -8.2270 C   0  0  0  0  0  0  0  0  0  0  0  0
   25.2751  -20.9992   -8.2322 C   0  0  0  0  0  0  0  0  0  0  0  0
   25.5632  -21.7572   -9.3441 C   0  0  0  0  0  0  0  0  0  0  0  0
   24.9563  -20.7399  -13.1291 O   0  0  0  0  0  0  0  0  0  0  0  0
   25.6635  -20.1742  -13.9969 N   0  0  0  0  0  0  0  0  0  0  0  0
   23.8357  -20.0495  -12.6157 C   0  0  1  0  0  0  0  0  0  0  0  0
   22.8627  -19.5322  -13.5531 C   0  0  0  0  0  0  0  0  0  0  0  0
   23.0691  -19.9924  -14.9653 C   0  0  0  0  0  0  0  0  0  0  0  0
   22.1052  -19.3871  -15.8946 O   0  0  0  0  0  0  0  0  0  0  0  0
   21.6646  -20.0519  -16.8533 C   0  0  0  0  0  0  0  0  0  0  0  0
   21.4768  -19.9571  -13.1743 O   0  0  0  0  0  0  0  0  0  0  0  0
   21.1575  -21.2350  -12.7820 O   0  0  0  0  0  0  0  0  0  0  0  0
   21.6737  -18.0874  -15.7267 O   0  0  0  0  0  0  0  0  0  0  0  0
  2  3  2  0
  2  1  1  0
  4  2  1  0
  5  4  1  0
  6  5  1  0
  7  6  1  0
  8  9  1  6
  8 10  1  0
  8  7  1  0
 10 11  2  0
 12 13  1  0
 12 10  1  0
 13 21  1  0
 13 14  1  1
 15 14  1  0
 16 15  2  0
 17 16  1  0
 18 17  2  0
 18 19  1  0
 19 20  2  0
 20 15  1  0
 21 23  1  0
 21 22  2  0
 23 24  1  0
 24 28  1  0
 24 25  1  6
 26 25  1  0
 26 27  2  0
 28 31  2  0
 28 29  1  0
 30 26  1  0
M  END
$$$$
