YET.pdb
     RDKit          3D

 29 29  0  0  1  0  0  0  0  0999 V2000
    7.2438  -12.4131   17.3405 O   0  0  0  0  0  0  0  0  0  0  0  0
    7.5467  -12.9813   18.5786 C   0  0  0  0  0  0  0  0  0  0  0  0
    8.8771  -13.0683   18.9471 C   0  0  0  0  0  0  0  0  0  0  0  0
    9.1630  -13.6332   20.1757 C   0  0  0  0  0  0  0  0  0  0  0  0
    8.1391  -14.0816   20.9766 C   0  0  0  0  0  0  0  0  0  0  0  0
    8.4909  -14.6804   22.2858 C   0  0  0  0  0  0  0  0  0  0  0  0
    9.0053  -16.1018   22.0179 C   0  0  2  0  0  0  0  0  0  0  0  0
    7.8821  -16.9032   21.6315 N   0  0  0  0  0  0  0  0  0  0  0  0
    9.6406  -16.5548   23.2719 C   0  0  0  0  0  0  0  0  0  0  0  0
    8.8916  -16.8598   24.2324 O   0  0  0  0  0  0  0  0  0  0  0  0
    6.8342  -13.9812   20.5833 C   0  0  0  0  0  0  0  0  0  0  0  0
    6.5165  -13.4264   19.3715 C   0  0  0  0  0  0  0  0  0  0  0  0
   11.0428  -16.6672   23.4599 N   0  0  0  0  0  0  0  0  0  0  0  0
   11.6347  -17.1560   24.6886 C   0  0  1  0  0  0  0  0  0  0  0  0
   13.0666  -17.5623   24.3489 C   0  0  0  0  0  0  0  0  0  0  0  0
   13.7689  -18.1153   25.5684 C   0  0  0  0  0  0  0  0  0  0  0  0
   15.1362  -18.5099   25.1928 C   0  0  0  0  0  0  0  0  0  0  0  0
   15.3688  -19.6912   24.8563 O   0  0  0  0  0  0  0  0  0  0  0  0
   11.6343  -16.1588   25.7624 C   0  0  0  0  0  0  0  0  0  0  0  0
   12.3214  -15.1121   25.6577 O   0  0  0  0  0  0  0  0  0  0  0  0
   16.2009  -17.6237   25.1922 O   0  0  0  0  0  0  0  0  0  0  0  0
    9.8215  -13.5457   27.0124 C   0  0  0  0  0  0  0  0  0  0  0  0
    9.7266  -14.5934   28.0823 C   0  0  1  0  0  0  0  0  0  0  0  0
    8.5497  -15.3066   27.8706 O   0  0  0  0  0  0  0  0  0  0  0  0
   10.9377  -15.5120   28.0771 C   0  0  2  0  0  0  0  0  0  0  0  0
   10.8510  -16.3809   26.9269 N   0  0  0  0  0  0  0  0  0  0  0  0
   10.8497  -16.3323   29.3347 C   0  0  0  0  0  0  0  0  0  0  0  0
   10.5879  -17.5517   29.2703 O   0  0  0  0  0  0  0  0  0  0  0  0
   11.0570  -15.7491   30.5764 O   0  0  0  0  0  0  0  0  0  0  0  0
  2  1  1  0
  2  3  2  0
  4  3  1  0
  5  4  2  0
  6  5  1  0
  7  8  1  1
  7  6  1  0
  9  7  1  0
 10  9  2  0
 11 12  2  0
 11  5  1  0
 12  2  1  0
 13  9  1  0
 14 13  1  0
 15 16  1  0
 14 15  1  6
 16 17  1  0
 17 21  1  0
 17 18  2  0
 19 14  1  0
 19 26  1  0
 20 19  2  0
 23 22  1  6
 23 24  1  0
 25 23  1  0
 25 27  1  0
 25 26  1  6
 27 29  1  0
 28 27  2  0
M  END
$$$$
