YET.pdb
     RDKit          3D

 29 29  0  0  1  0  0  0  0  0999 V2000
    8.5013  -12.2546   18.1828 O   0  0  0  0  0  0  0  0  0  0  0  0
    8.0158  -12.9739   19.2757 C   0  0  0  0  0  0  0  0  0  0  0  0
    7.0540  -13.9406   19.0435 C   0  0  0  0  0  0  0  0  0  0  0  0
    6.5818  -14.6456   20.1346 C   0  0  0  0  0  0  0  0  0  0  0  0
    7.0716  -14.3707   21.3898 C   0  0  0  0  0  0  0  0  0  0  0  0
    6.5374  -15.1505   22.5312 C   0  0  0  0  0  0  0  0  0  0  0  0
    7.0077  -16.6015   22.3571 C   0  0  2  0  0  0  0  0  0  0  0  0
    5.8519  -17.4443   22.4410 N   0  0  0  0  0  0  0  0  0  0  0  0
    7.9894  -16.8499   23.4321 C   0  0  0  0  0  0  0  0  0  0  0  0
    7.5573  -17.2553   24.5392 O   0  0  0  0  0  0  0  0  0  0  0  0
    8.0223  -13.4089   21.5859 C   0  0  0  0  0  0  0  0  0  0  0  0
    8.5115  -12.6919   20.5258 C   0  0  0  0  0  0  0  0  0  0  0  0
    9.3889  -16.6597   23.2933 N   0  0  0  0  0  0  0  0  0  0  0  0
   10.3418  -17.0639   24.3071 C   0  0  1  0  0  0  0  0  0  0  0  0
   11.6280  -17.4318   23.5716 C   0  0  0  0  0  0  0  0  0  0  0  0
   12.7163  -17.8058   24.5525 C   0  0  0  0  0  0  0  0  0  0  0  0
   13.9240  -18.1860   23.8019 C   0  0  0  0  0  0  0  0  0  0  0  0
   14.3433  -19.3623   23.8592 O   0  0  0  0  0  0  0  0  0  0  0  0
   10.6078  -16.0153   25.2955 C   0  0  0  0  0  0  0  0  0  0  0  0
   11.0463  -14.8955   24.9316 O   0  0  0  0  0  0  0  0  0  0  0  0
   14.6354  -17.2913   23.0194 O   0  0  0  0  0  0  0  0  0  0  0  0
    8.8025  -13.7028   26.8146 C   0  0  0  0  0  0  0  0  0  0  0  0
    9.2261  -14.5824   27.9541 C   0  0  1  0  0  0  0  0  0  0  0  0
    8.2200  -15.5233   28.1568 O   0  0  0  0  0  0  0  0  0  0  0  0
   10.5622  -15.2531   27.6784 C   0  0  2  0  0  0  0  0  0  0  0  0
   10.3672  -16.2706   26.6724 N   0  0  0  0  0  0  0  0  0  0  0  0
   10.9844  -15.8975   28.9702 C   0  0  0  0  0  0  0  0  0  0  0  0
   11.0051  -17.1420   29.0721 O   0  0  0  0  0  0  0  0  0  0  0  0
   11.3546  -15.1229   30.0600 O   0  0  0  0  0  0  0  0  0  0  0  0
  2  1  1  0
  2  3  2  0
  4  3  1  0
  5  4  2  0
  6  5  1  0
  7  8  1  1
  7  6  1  0
  9  7  1  0
 10  9  2  0
 11 12  2  0
 11  5  1  0
 12  2  1  0
 13  9  1  0
 14 13  1  0
 15 16  1  0
 14 15  1  6
 16 17  1  0
 17 21  1  0
 17 18  2  0
 19 14  1  0
 19 26  1  0
 20 19  2  0
 23 22  1  6
 23 24  1  0
 25 23  1  0
 25 27  1  0
 25 26  1  6
 27 29  1  0
 28 27  2  0
M  END
$$$$
