YET.pdb
     RDKit          3D

 29 29  0  0  1  0  0  0  0  0999 V2000
    6.9994  -11.8134   16.7322 O   0  0  0  0  0  0  0  0  0  0  0  0
    7.2733  -12.6906   17.7824 C   0  0  0  0  0  0  0  0  0  0  0  0
    6.2468  -13.4949   18.2436 C   0  0  0  0  0  0  0  0  0  0  0  0
    6.5317  -14.3590   19.2840 C   0  0  0  0  0  0  0  0  0  0  0  0
    7.7988  -14.3922   19.8172 C   0  0  0  0  0  0  0  0  0  0  0  0
    8.0603  -15.3336   20.9315 C   0  0  0  0  0  0  0  0  0  0  0  0
    8.7792  -16.5553   20.3422 C   0  0  2  0  0  0  0  0  0  0  0  0
    7.7932  -17.3653   19.6903 N   0  0  0  0  0  0  0  0  0  0  0  0
    9.4354  -17.2362   21.4767 C   0  0  0  0  0  0  0  0  0  0  0  0
    8.7308  -17.9823   22.2003 O   0  0  0  0  0  0  0  0  0  0  0  0
    8.7917  -13.5842   19.3388 C   0  0  0  0  0  0  0  0  0  0  0  0
    8.5425  -12.7163   18.3084 C   0  0  0  0  0  0  0  0  0  0  0  0
   10.8104  -17.1006   21.8008 N   0  0  0  0  0  0  0  0  0  0  0  0
   11.4311  -17.8037   22.9050 C   0  0  1  0  0  0  0  0  0  0  0  0
   12.9187  -17.9012   22.5762 C   0  0  0  0  0  0  0  0  0  0  0  0
   13.1434  -18.7909   21.3745 C   0  0  0  0  0  0  0  0  0  0  0  0
   14.5804  -18.8083   21.0565 C   0  0  0  0  0  0  0  0  0  0  0  0
   14.9699  -18.4246   19.9323 O   0  0  0  0  0  0  0  0  0  0  0  0
   11.2419  -17.1309   24.1930 C   0  0  0  0  0  0  0  0  0  0  0  0
   11.8667  -16.0727   24.4549 O   0  0  0  0  0  0  0  0  0  0  0  0
   15.5439  -19.2358   21.9551 O   0  0  0  0  0  0  0  0  0  0  0  0
    8.4701  -15.3708   25.5216 C   0  0  0  0  0  0  0  0  0  0  0  0
    8.6645  -16.5417   26.4396 C   0  0  1  0  0  0  0  0  0  0  0  0
    7.7776  -17.5393   26.0440 O   0  0  0  0  0  0  0  0  0  0  0  0
   10.1008  -17.0390   26.4180 C   0  0  2  0  0  0  0  0  0  0  0  0
   10.3459  -17.6818   25.1483 N   0  0  0  0  0  0  0  0  0  0  0  0
   10.2125  -18.0520   27.5242 C   0  0  0  0  0  0  0  0  0  0  0  0
   10.3407  -19.2642   27.2531 O   0  0  0  0  0  0  0  0  0  0  0  0
   10.1750  -17.6559   28.8534 O   0  0  0  0  0  0  0  0  0  0  0  0
  2  1  1  0
  2  3  2  0
  4  3  1  0
  5  4  2  0
  6  5  1  0
  7  8  1  1
  7  6  1  0
  9  7  1  0
 10  9  2  0
 11 12  2  0
 11  5  1  0
 12  2  1  0
 13  9  1  0
 14 13  1  0
 15 16  1  0
 14 15  1  6
 16 17  1  0
 17 21  1  0
 17 18  2  0
 19 14  1  0
 19 26  1  0
 20 19  2  0
 23 22  1  6
 23 24  1  0
 25 23  1  0
 25 27  1  0
 25 26  1  6
 27 29  1  0
 28 27  2  0
M  END
$$$$
