YET.pdb
     RDKit          3D

 29 29  0  0  1  0  0  0  0  0999 V2000
    8.0275  -12.4630   16.8457 O   0  0  0  0  0  0  0  0  0  0  0  0
    7.9959  -12.9699   18.1455 C   0  0  0  0  0  0  0  0  0  0  0  0
    6.7669  -13.0850   18.7698 C   0  0  0  0  0  0  0  0  0  0  0  0
    6.7499  -13.5885   20.0569 C   0  0  0  0  0  0  0  0  0  0  0  0
    7.9290  -13.9516   20.6642 C   0  0  0  0  0  0  0  0  0  0  0  0
    7.8646  -14.4867   22.0447 C   0  0  0  0  0  0  0  0  0  0  0  0
    7.9752  -16.0151   21.9510 C   0  0  2  0  0  0  0  0  0  0  0  0
    6.6552  -16.5329   21.7445 N   0  0  0  0  0  0  0  0  0  0  0  0
    8.5855  -16.4640   23.2188 C   0  0  0  0  0  0  0  0  0  0  0  0
    7.8206  -16.7094   24.1838 O   0  0  0  0  0  0  0  0  0  0  0  0
    9.1276  -13.8255   20.0200 C   0  0  0  0  0  0  0  0  0  0  0  0
    9.1794  -13.3299   18.7437 C   0  0  0  0  0  0  0  0  0  0  0  0
    9.9805  -16.6353   23.4153 N   0  0  0  0  0  0  0  0  0  0  0  0
   10.5439  -17.1483   24.6475 C   0  0  1  0  0  0  0  0  0  0  0  0
   11.8128  -17.9049   24.2627 C   0  0  0  0  0  0  0  0  0  0  0  0
   12.4933  -18.4670   25.4904 C   0  0  0  0  0  0  0  0  0  0  0  0
   13.6916  -19.2121   25.0720 C   0  0  0  0  0  0  0  0  0  0  0  0
   13.5757  -20.1831   24.2933 O   0  0  0  0  0  0  0  0  0  0  0  0
   10.8585  -16.0955   25.6170 C   0  0  0  0  0  0  0  0  0  0  0  0
   11.6754  -15.1866   25.3253 O   0  0  0  0  0  0  0  0  0  0  0  0
   14.9671  -18.8880   25.5041 O   0  0  0  0  0  0  0  0  0  0  0  0
    9.0668  -13.3226   26.8432 C   0  0  0  0  0  0  0  0  0  0  0  0
    9.2635  -14.2194   28.0299 C   0  0  1  0  0  0  0  0  0  0  0  0
    8.1164  -14.9966   28.1657 O   0  0  0  0  0  0  0  0  0  0  0  0
   10.5033  -15.0860   27.8789 C   0  0  2  0  0  0  0  0  0  0  0  0
   10.2338  -16.1064   26.8932 N   0  0  0  0  0  0  0  0  0  0  0  0
   10.7332  -15.7294   29.2188 C   0  0  0  0  0  0  0  0  0  0  0  0
   10.5280  -16.9519   29.3702 O   0  0  0  0  0  0  0  0  0  0  0  0
   11.1739  -14.9782   30.2987 O   0  0  0  0  0  0  0  0  0  0  0  0
  2  1  1  0
  2  3  2  0
  4  3  1  0
  5  4  2  0
  6  5  1  0
  7  8  1  1
  7  6  1  0
  9  7  1  0
 10  9  2  0
 11 12  2  0
 11  5  1  0
 12  2  1  0
 13  9  1  0
 14 13  1  0
 15 16  1  0
 14 15  1  6
 16 17  1  0
 17 21  1  0
 17 18  2  0
 19 14  1  0
 19 26  1  0
 20 19  2  0
 23 22  1  6
 23 24  1  0
 25 23  1  0
 25 27  1  0
 25 26  1  6
 27 29  1  0
 28 27  2  0
M  END
$$$$
