YET.pdb
     RDKit          3D

 29 29  0  0  1  0  0  0  0  0999 V2000
    6.9102  -12.9129   16.1864 O   0  0  0  0  0  0  0  0  0  0  0  0
    7.1519  -13.3962   17.4731 C   0  0  0  0  0  0  0  0  0  0  0  0
    6.4362  -14.5005   17.8990 C   0  0  0  0  0  0  0  0  0  0  0  0
    6.6853  -14.9687   19.1753 C   0  0  0  0  0  0  0  0  0  0  0  0
    7.6164  -14.3365   19.9655 C   0  0  0  0  0  0  0  0  0  0  0  0
    7.8520  -14.8718   21.3272 C   0  0  0  0  0  0  0  0  0  0  0  0
    9.1859  -15.6311   21.2984 C   0  0  2  0  0  0  0  0  0  0  0  0
    9.0421  -16.7247   20.3838 N   0  0  0  0  0  0  0  0  0  0  0  0
    9.4462  -16.0626   22.6866 C   0  0  0  0  0  0  0  0  0  0  0  0
    8.4583  -16.2383   23.4415 O   0  0  0  0  0  0  0  0  0  0  0  0
    8.3072  -13.2469   19.5150 C   0  0  0  0  0  0  0  0  0  0  0  0
    8.0842  -12.7575   18.2549 C   0  0  0  0  0  0  0  0  0  0  0  0
   10.7409  -16.2911   23.2211 N   0  0  0  0  0  0  0  0  0  0  0  0
   10.9606  -16.7948   24.5617 C   0  0  1  0  0  0  0  0  0  0  0  0
   12.2604  -17.5942   24.5173 C   0  0  0  0  0  0  0  0  0  0  0  0
   12.1592  -18.7244   23.5180 C   0  0  0  0  0  0  0  0  0  0  0  0
   13.4264  -19.4730   23.5153 C   0  0  0  0  0  0  0  0  0  0  0  0
   13.6328  -20.3432   24.3887 O   0  0  0  0  0  0  0  0  0  0  0  0
   11.0556  -15.7320   25.5659 C   0  0  0  0  0  0  0  0  0  0  0  0
   11.8728  -14.7891   25.4178 O   0  0  0  0  0  0  0  0  0  0  0  0
   14.4231  -19.2602   22.5772 O   0  0  0  0  0  0  0  0  0  0  0  0
    8.4898  -13.3090   26.4966 C   0  0  0  0  0  0  0  0  0  0  0  0
    8.7971  -14.1129   27.7257 C   0  0  1  0  0  0  0  0  0  0  0  0
    7.8347  -15.1140   27.8260 O   0  0  0  0  0  0  0  0  0  0  0  0
   10.1995  -14.6976   27.6774 C   0  0  2  0  0  0  0  0  0  0  0  0
   10.2170  -15.7716   26.7122 N   0  0  0  0  0  0  0  0  0  0  0  0
   10.4730  -15.2500   29.0494 C   0  0  0  0  0  0  0  0  0  0  0  0
   10.5842  -16.4824   29.2179 O   0  0  0  0  0  0  0  0  0  0  0  0
   10.6047  -14.4031   30.1403 O   0  0  0  0  0  0  0  0  0  0  0  0
  2  1  1  0
  2  3  2  0
  4  3  1  0
  5  4  2  0
  6  5  1  0
  7  8  1  6
  7  6  1  0
  9  7  1  0
 10  9  2  0
 11 12  2  0
 11  5  1  0
 12  2  1  0
 13  9  1  0
 14 13  1  0
 15 16  1  0
 14 15  1  6
 16 17  1  0
 17 21  1  0
 17 18  2  0
 19 14  1  0
 19 26  1  0
 20 19  2  0
 23 22  1  6
 23 24  1  0
 25 23  1  0
 25 27  1  0
 25 26  1  6
 27 29  1  0
 28 27  2  0
M  END
$$$$
