YET.pdb
     RDKit          3D

 29 29  0  0  1  0  0  0  0  0999 V2000
    8.9413  -11.9861   18.4747 O   0  0  0  0  0  0  0  0  0  0  0  0
    8.2856  -12.7860   19.4117 C   0  0  0  0  0  0  0  0  0  0  0  0
    7.3499  -13.6945   18.9510 C   0  0  0  0  0  0  0  0  0  0  0  0
    6.7080  -14.4804   19.8895 C   0  0  0  0  0  0  0  0  0  0  0  0
    7.0124  -14.3383   21.2230 C   0  0  0  0  0  0  0  0  0  0  0  0
    6.3003  -15.2012   22.1949 C   0  0  0  0  0  0  0  0  0  0  0  0
    6.8706  -16.6196   22.0548 C   0  0  2  0  0  0  0  0  0  0  0  0
    5.7693  -17.5352   22.0963 N   0  0  0  0  0  0  0  0  0  0  0  0
    7.8183  -16.7966   23.1736 C   0  0  0  0  0  0  0  0  0  0  0  0
    7.3460  -16.8925   24.3331 O   0  0  0  0  0  0  0  0  0  0  0  0
    7.9424  -13.4309   21.6461 C   0  0  0  0  0  0  0  0  0  0  0  0
    8.5967  -12.6365   20.7417 C   0  0  0  0  0  0  0  0  0  0  0  0
    9.2276  -16.8651   23.0215 N   0  0  0  0  0  0  0  0  0  0  0  0
   10.1273  -17.1093   24.1306 C   0  0  1  0  0  0  0  0  0  0  0  0
   11.4427  -17.5918   23.5243 C   0  0  0  0  0  0  0  0  0  0  0  0
   12.4835  -17.7990   24.6013 C   0  0  0  0  0  0  0  0  0  0  0  0
   13.7198  -18.2999   23.9791 C   0  0  0  0  0  0  0  0  0  0  0  0
   14.7551  -17.5998   24.0090 O   0  0  0  0  0  0  0  0  0  0  0  0
   10.3579  -15.9202   24.9553 C   0  0  0  0  0  0  0  0  0  0  0  0
   10.8346  -14.8756   24.4449 O   0  0  0  0  0  0  0  0  0  0  0  0
   13.7988  -19.5310   23.3491 O   0  0  0  0  0  0  0  0  0  0  0  0
    8.5427  -13.3362   26.2024 C   0  0  0  0  0  0  0  0  0  0  0  0
    8.9739  -14.0881   27.4272 C   0  0  1  0  0  0  0  0  0  0  0  0
    7.9512  -14.9720   27.7609 O   0  0  0  0  0  0  0  0  0  0  0  0
   10.2863  -14.8214   27.2023 C   0  0  2  0  0  0  0  0  0  0  0  0
   10.0390  -15.9528   26.3396 N   0  0  0  0  0  0  0  0  0  0  0  0
   10.7341  -15.3076   28.5533 C   0  0  0  0  0  0  0  0  0  0  0  0
   10.7469  -16.5305   28.8064 O   0  0  0  0  0  0  0  0  0  0  0  0
   11.1366  -14.4097   29.5313 O   0  0  0  0  0  0  0  0  0  0  0  0
  2  1  1  0
  2  3  2  0
  4  3  1  0
  5  4  2  0
  6  5  1  0
  7  8  1  1
  7  6  1  0
  9  7  1  0
 10  9  2  0
 11 12  2  0
 11  5  1  0
 12  2  1  0
 13  9  1  0
 14 13  1  0
 15 16  1  0
 14 15  1  6
 16 17  1  0
 17 21  1  0
 17 18  2  0
 19 14  1  0
 19 26  1  0
 20 19  2  0
 23 22  1  6
 23 24  1  0
 25 23  1  0
 25 27  1  0
 25 26  1  6
 27 29  1  0
 28 27  2  0
M  END
$$$$
