YET.pdb
     RDKit          3D

 29 29  0  0  1  0  0  0  0  0999 V2000
    8.1637  -12.3760   17.5086 O   0  0  0  0  0  0  0  0  0  0  0  0
    8.0064  -12.9710   18.7611 C   0  0  0  0  0  0  0  0  0  0  0  0
    6.7212  -13.2301   19.2021 C   0  0  0  0  0  0  0  0  0  0  0  0
    6.5797  -13.8196   20.4442 C   0  0  0  0  0  0  0  0  0  0  0  0
    7.6960  -14.1238   21.1874 C   0  0  0  0  0  0  0  0  0  0  0  0
    7.4982  -14.7551   22.5135 C   0  0  0  0  0  0  0  0  0  0  0  0
    7.7662  -16.2580   22.3520 C   0  0  2  0  0  0  0  0  0  0  0  0
    6.4971  -16.9210   22.2996 N   0  0  0  0  0  0  0  0  0  0  0  0
    8.5859  -16.6591   23.5133 C   0  0  0  0  0  0  0  0  0  0  0  0
    8.0189  -16.7437   24.6305 O   0  0  0  0  0  0  0  0  0  0  0  0
    8.9528  -13.8550   20.7230 C   0  0  0  0  0  0  0  0  0  0  0  0
    9.1280  -13.2712   19.4960 C   0  0  0  0  0  0  0  0  0  0  0  0
    9.9723  -16.9546   23.4467 N   0  0  0  0  0  0  0  0  0  0  0  0
   10.7422  -17.3784   24.5985 C   0  0  1  0  0  0  0  0  0  0  0  0
   12.0470  -17.9587   24.0587 C   0  0  0  0  0  0  0  0  0  0  0  0
   12.8936  -18.5086   25.1845 C   0  0  0  0  0  0  0  0  0  0  0  0
   14.1370  -19.0586   24.6207 C   0  0  0  0  0  0  0  0  0  0  0  0
   15.0302  -18.2822   24.2181 O   0  0  0  0  0  0  0  0  0  0  0  0
   11.0243  -16.2863   25.5339 C   0  0  0  0  0  0  0  0  0  0  0  0
   11.7829  -15.3424   25.1985 O   0  0  0  0  0  0  0  0  0  0  0  0
   14.3750  -20.4187   24.5102 O   0  0  0  0  0  0  0  0  0  0  0  0
    9.5617  -13.3949   26.8192 C   0  0  0  0  0  0  0  0  0  0  0  0
    9.6356  -14.3427   27.9801 C   0  0  1  0  0  0  0  0  0  0  0  0
    8.4141  -15.0059   28.0612 O   0  0  0  0  0  0  0  0  0  0  0  0
   10.7877  -15.3232   27.8312 C   0  0  2  0  0  0  0  0  0  0  0  0
   10.4346  -16.2986   26.8265 N   0  0  0  0  0  0  0  0  0  0  0  0
   10.9355  -16.0049   29.1638 C   0  0  0  0  0  0  0  0  0  0  0  0
   11.3220  -15.3575   30.1593 O   0  0  0  0  0  0  0  0  0  0  0  0
   10.6462  -17.3545   29.3047 O   0  0  0  0  0  0  0  0  0  0  0  0
  2  1  1  0
  2  3  2  0
  4  3  1  0
  5  4  2  0
  6  5  1  0
  7  8  1  1
  7  6  1  0
  9  7  1  0
 10  9  2  0
 11 12  2  0
 11  5  1  0
 12  2  1  0
 13  9  1  0
 14 13  1  0
 15 16  1  0
 14 15  1  6
 16 17  1  0
 17 21  1  0
 17 18  2  0
 19 14  1  0
 19 26  1  0
 20 19  2  0
 23 22  1  6
 23 24  1  0
 25 23  1  0
 25 27  1  0
 25 26  1  6
 27 29  1  0
 28 27  2  0
M  END
$$$$
