ATV.pdb
     RDKit          3D

 20 19  0  0  1  0  0  0  0  0999 V2000
   16.5743  -14.6013  -18.6439 C   0  0  0  0  0  0  0  0  0  0  0  0
   18.0448  -14.4755  -18.4512 C   0  0  2  0  0  0  0  0  0  0  0  0
   18.7065  -15.7087  -18.1475 N   0  0  0  0  0  0  0  0  0  0  0  0
   18.4365  -13.3807  -17.5026 C   0  0  0  0  0  0  0  0  0  0  0  0
   18.1692  -13.4825  -16.2870 O   0  0  0  0  0  0  0  0  0  0  0  0
   21.4949   -9.8939  -16.1492 C   0  0  0  0  0  0  0  0  0  0  0  0
   21.0453  -10.9244  -17.1387 C   0  0  1  0  0  0  0  0  0  0  0  0
   21.8255  -12.0662  -16.9551 O   0  0  0  0  0  0  0  0  0  0  0  0
   19.5728  -11.2264  -17.0422 C   0  0  2  0  0  0  0  0  0  0  0  0
   19.1089  -12.2164  -17.9497 N   0  0  0  0  0  0  0  0  0  0  0  0
   18.7482   -9.9784  -17.0739 C   0  0  0  0  0  0  0  0  0  0  0  0
   18.4501   -9.4226  -18.1633 O   0  0  0  0  0  0  0  0  0  0  0  0
   15.7211   -8.9964  -14.4099 C   0  0  0  0  0  0  0  0  0  0  0  0
   16.0427   -8.2588  -15.7140 C   0  0  2  0  0  0  0  0  0  0  0  0
   15.4917   -9.1168  -16.8350 C   0  0  0  0  0  0  0  0  0  0  0  0
   17.4927   -8.1484  -15.8551 C   0  0  2  0  0  0  0  0  0  0  0  0
   18.2583   -9.3501  -15.9268 N   0  0  0  0  0  0  0  0  0  0  0  0
   18.0448   -7.2044  -14.8301 C   0  0  0  0  0  0  0  0  0  0  0  0
   17.7773   -5.8527  -14.9402 O   0  0  0  0  0  0  0  0  0  0  0  0
   18.7467   -7.5821  -13.8659 O   0  0  0  0  0  0  0  0  0  0  0  0
  2  1  1  1
  2  4  1  0
  3  2  1  0
  4 10  1  0
  4  5  2  0
  7  6  1  1
  7  8  1  0
  9  7  1  0
  9 10  1  6
 11 12  2  0
 11  9  1  0
 14 13  1  1
 14 16  1  0
 14 15  1  0
 16 17  1  1
 17 11  1  0
 18 16  1  0
 19 18  1  0
 20 18  2  0
M  END
$$$$
