ATV.pdb
     RDKit          3D

 20 19  0  0  1  0  0  0  0  0999 V2000
   17.8248  -15.8658  -15.8068 C   0  0  0  0  0  0  0  0  0  0  0  0
   17.2373  -14.7983  -16.6616 C   0  0  2  0  0  0  0  0  0  0  0  0
   16.5153  -15.2850  -17.7985 N   0  0  0  0  0  0  0  0  0  0  0  0
   18.2129  -13.7214  -17.0360 C   0  0  0  0  0  0  0  0  0  0  0  0
   19.1129  -13.9564  -17.8692 O   0  0  0  0  0  0  0  0  0  0  0  0
   18.1120  -11.2998  -19.2366 C   0  0  0  0  0  0  0  0  0  0  0  0
   18.4299  -10.5188  -17.9988 C   0  0  1  0  0  0  0  0  0  0  0  0
   17.2704   -9.8532  -17.6006 O   0  0  0  0  0  0  0  0  0  0  0  0
   18.9961  -11.3738  -16.8955 C   0  0  2  0  0  0  0  0  0  0  0  0
   18.1452  -12.4268  -16.4641 N   0  0  0  0  0  0  0  0  0  0  0  0
   19.5134  -10.5449  -15.7624 C   0  0  0  0  0  0  0  0  0  0  0  0
   18.8284  -10.3649  -14.7217 O   0  0  0  0  0  0  0  0  0  0  0  0
   23.6494   -9.1757  -15.6167 C   0  0  0  0  0  0  0  0  0  0  0  0
   22.7857   -9.5140  -14.3971 C   0  0  2  0  0  0  0  0  0  0  0  0
   22.9417  -11.0034  -14.1652 C   0  0  0  0  0  0  0  0  0  0  0  0
   21.3889   -9.2141  -14.7031 C   0  0  2  0  0  0  0  0  0  0  0  0
   20.7639   -9.9229  -15.7719 N   0  0  0  0  0  0  0  0  0  0  0  0
   21.1911   -7.7342  -14.8343 C   0  0  0  0  0  0  0  0  0  0  0  0
   21.3419   -6.9292  -13.7207 O   0  0  0  0  0  0  0  0  0  0  0  0
   20.8912   -7.1814  -15.9156 O   0  0  0  0  0  0  0  0  0  0  0  0
  2  1  1  6
  2  4  1  0
  3  2  1  0
  4 10  1  0
  4  5  2  0
  7  6  1  6
  7  8  1  0
  9  7  1  0
  9 10  1  1
 11 12  2  0
 11  9  1  0
 14 13  1  6
 14 16  1  0
 14 15  1  0
 16 17  1  6
 17 11  1  0
 18 16  1  0
 19 18  1  0
 20 18  2  0
M  END
$$$$
