ATV.pdb
     RDKit          3D

 20 19  0  0  1  0  0  0  0  0999 V2000
   14.9364  -12.0051  -13.8676 C   0  0  0  0  0  0  0  0  0  0  0  0
   15.0204  -11.8780  -15.3482 C   0  0  2  0  0  0  0  0  0  0  0  0
   14.7262  -13.0850  -16.0605 N   0  0  0  0  0  0  0  0  0  0  0  0
   16.2915  -11.2400  -15.8268 C   0  0  0  0  0  0  0  0  0  0  0  0
   17.2260  -11.9517  -16.2509 O   0  0  0  0  0  0  0  0  0  0  0  0
   16.5257   -8.6658  -18.5333 C   0  0  0  0  0  0  0  0  0  0  0  0
   17.3542   -8.1627  -17.3916 C   0  0  1  0  0  0  0  0  0  0  0  0
   16.7069   -7.0538  -16.8463 O   0  0  0  0  0  0  0  0  0  0  0  0
   17.6287   -9.2210  -16.3555 C   0  0  2  0  0  0  0  0  0  0  0  0
   16.4683   -9.8343  -15.8112 N   0  0  0  0  0  0  0  0  0  0  0  0
   18.5750   -8.7342  -15.3038 C   0  0  0  0  0  0  0  0  0  0  0  0
   18.1892   -8.5368  -14.1219 O   0  0  0  0  0  0  0  0  0  0  0  0
   22.7986   -9.2172  -15.5085 C   0  0  0  0  0  0  0  0  0  0  0  0
   22.0005   -8.8618  -14.2497 C   0  0  2  0  0  0  0  0  0  0  0  0
   21.4490  -10.1672  -13.7130 C   0  0  0  0  0  0  0  0  0  0  0  0
   20.8936   -7.9824  -14.6186 C   0  0  2  0  0  0  0  0  0  0  0  0
   19.9245   -8.4682  -15.5461 N   0  0  0  0  0  0  0  0  0  0  0  0
   21.4114   -6.6341  -15.0193 C   0  0  0  0  0  0  0  0  0  0  0  0
   22.0122   -5.8295  -14.0694 O   0  0  0  0  0  0  0  0  0  0  0  0
   21.3260   -6.1922  -16.1864 O   0  0  0  0  0  0  0  0  0  0  0  0
  2  1  1  1
  2  4  1  0
  3  2  1  0
  4 10  1  0
  4  5  2  0
  7  6  1  6
  7  8  1  0
  9  7  1  0
  9 10  1  1
 11 12  2  0
 11  9  1  0
 14 13  1  6
 14 16  1  0
 14 15  1  0
 16 17  1  6
 17 11  1  0
 18 16  1  0
 19 18  1  0
 20 18  2  0
M  END
$$$$
