ATV.pdb
     RDKit          3D

 20 19  0  0  1  0  0  0  0  0999 V2000
   20.0197  -18.7657  -15.1680 C   0  0  0  0  0  0  0  0  0  0  0  0
   21.0344  -19.6689  -15.7763 C   0  0  2  0  0  0  0  0  0  0  0  0
   20.5238  -20.5149  -16.8127 N   0  0  0  0  0  0  0  0  0  0  0  0
   21.8368  -20.4386  -14.7686 C   0  0  0  0  0  0  0  0  0  0  0  0
   21.2715  -20.9497  -13.7792 O   0  0  0  0  0  0  0  0  0  0  0  0
   23.7747  -23.5102  -15.2864 C   0  0  0  0  0  0  0  0  0  0  0  0
   24.7036  -22.5618  -14.5929 C   0  0  1  0  0  0  0  0  0  0  0  0
   25.6782  -22.1669  -15.5096 O   0  0  0  0  0  0  0  0  0  0  0  0
   23.9908  -21.3824  -13.9851 C   0  0  2  0  0  0  0  0  0  0  0  0
   23.2372  -20.6052  -14.9054 N   0  0  0  0  0  0  0  0  0  0  0  0
   24.9088  -20.5546  -13.1421 C   0  0  0  0  0  0  0  0  0  0  0  0
   25.1306  -19.3460  -13.4152 O   0  0  0  0  0  0  0  0  0  0  0  0
   26.2825  -21.6776   -9.1738 C   0  0  0  0  0  0  0  0  0  0  0  0
   26.3036  -20.2698   -9.7785 C   0  0  2  0  0  0  0  0  0  0  0  0
   24.9277  -19.6824   -9.5367 C   0  0  0  0  0  0  0  0  0  0  0  0
   26.5422  -20.3712  -11.2163 C   0  0  2  0  0  0  0  0  0  0  0  0
   25.5731  -21.0465  -12.0164 N   0  0  0  0  0  0  0  0  0  0  0  0
   27.9262  -20.8830  -11.4792 C   0  0  0  0  0  0  0  0  0  0  0  0
   29.0143  -20.1295  -11.0804 O   0  0  0  0  0  0  0  0  0  0  0  0
   28.1511  -21.9730  -12.0504 O   0  0  0  0  0  0  0  0  0  0  0  0
  2  1  1  1
  2  4  1  0
  3  2  1  0
  4 10  1  0
  4  5  2  0
  7  6  1  6
  7  8  1  0
  9  7  1  0
  9 10  1  6
 11 12  2  0
 11  9  1  0
 14 13  1  6
 14 16  1  0
 14 15  1  0
 16 17  1  1
 17 11  1  0
 18 16  1  0
 19 18  1  0
 20 18  2  0
M  END
$$$$
