ATV.pdb
     RDKit          3D

 20 19  0  0  1  0  0  0  0  0999 V2000
   19.7447  -10.6784  -19.9734 C   0  0  0  0  0  0  0  0  0  0  0  0
   20.5521  -11.2623  -18.8678 C   0  0  2  0  0  0  0  0  0  0  0  0
   20.3586  -12.6682  -18.6762 N   0  0  0  0  0  0  0  0  0  0  0  0
   20.4476  -10.5011  -17.5788 C   0  0  0  0  0  0  0  0  0  0  0  0
   19.3759  -10.5032  -16.9376 O   0  0  0  0  0  0  0  0  0  0  0  0
   21.6187  -11.2007  -14.4842 C   0  0  0  0  0  0  0  0  0  0  0  0
   22.1182   -9.7999  -14.6621 C   0  0  1  0  0  0  0  0  0  0  0  0
   23.5052   -9.8523  -14.8016 O   0  0  0  0  0  0  0  0  0  0  0  0
   21.4624   -9.0859  -15.8148 C   0  0  2  0  0  0  0  0  0  0  0  0
   21.5427   -9.7677  -17.0589 N   0  0  0  0  0  0  0  0  0  0  0  0
   21.9036   -7.6591  -15.9058 C   0  0  0  0  0  0  0  0  0  0  0  0
   22.2651   -7.1581  -17.0025 O   0  0  0  0  0  0  0  0  0  0  0  0
   21.6154   -3.1215  -15.6131 C   0  0  0  0  0  0  0  0  0  0  0  0
   21.1764   -4.5894  -15.6358 C   0  0  2  0  0  0  0  0  0  0  0  0
   19.7981   -4.6309  -15.0072 C   0  0  0  0  0  0  0  0  0  0  0  0
   22.1028   -5.3775  -14.8264 C   0  0  2  0  0  0  0  0  0  0  0  0
   21.9472   -6.7955  -14.8090 N   0  0  0  0  0  0  0  0  0  0  0  0
   22.1891   -4.8162  -13.4393 C   0  0  0  0  0  0  0  0  0  0  0  0
   22.8775   -3.6363  -13.2275 O   0  0  0  0  0  0  0  0  0  0  0  0
   21.6631   -5.3690  -12.4481 O   0  0  0  0  0  0  0  0  0  0  0  0
  2  1  1  6
  2  4  1  0
  3  2  1  0
  4 10  1  0
  4  5  2  0
  7  6  1  6
  7  8  1  0
  9  7  1  0
  9 10  1  6
 11 12  2  0
 11  9  1  0
 14 13  1  1
 14 16  1  0
 14 15  1  0
 16 17  1  1
 17 11  1  0
 18 16  1  0
 19 18  1  0
 20 18  2  0
M  END
$$$$
