ATV.pdb
     RDKit          3D

 20 19  0  0  1  0  0  0  0  0999 V2000
   26.0113  -12.0083  -15.6083 C   0  0  0  0  0  0  0  0  0  0  0  0
   24.6781  -12.4376  -16.1118 C   0  0  2  0  0  0  0  0  0  0  0  0
   24.7281  -13.4597  -17.1136 N   0  0  0  0  0  0  0  0  0  0  0  0
   23.7919  -11.2969  -16.5183 C   0  0  0  0  0  0  0  0  0  0  0  0
   23.9593  -10.7393  -17.6231 O   0  0  0  0  0  0  0  0  0  0  0  0
   20.0492  -11.3779  -16.8418 C   0  0  0  0  0  0  0  0  0  0  0  0
   20.3978  -10.1867  -16.0036 C   0  0  1  0  0  0  0  0  0  0  0  0
   20.0104  -10.4563  -14.6908 O   0  0  0  0  0  0  0  0  0  0  0  0
   21.8535   -9.8109  -16.0956 C   0  0  2  0  0  0  0  0  0  0  0  0
   22.7562  -10.8243  -15.6748 N   0  0  0  0  0  0  0  0  0  0  0  0
   22.1258   -8.4878  -15.4523 C   0  0  0  0  0  0  0  0  0  0  0  0
   22.7188   -8.4124  -14.3445 O   0  0  0  0  0  0  0  0  0  0  0  0
   24.0444   -5.5787  -16.7637 C   0  0  0  0  0  0  0  0  0  0  0  0
   22.6901   -4.9953  -16.3473 C   0  0  2  0  0  0  0  0  0  0  0  0
   22.9936   -3.7453  -15.5462 C   0  0  0  0  0  0  0  0  0  0  0  0
   21.9956   -5.9597  -15.4975 C   0  0  2  0  0  0  0  0  0  0  0  0
   21.7524   -7.2661  -16.0167 N   0  0  0  0  0  0  0  0  0  0  0  0
   20.7480   -5.3512  -14.9320 C   0  0  0  0  0  0  0  0  0  0  0  0
   20.8372   -4.5283  -13.8249 O   0  0  0  0  0  0  0  0  0  0  0  0
   19.6127   -5.5533  -15.4169 O   0  0  0  0  0  0  0  0  0  0  0  0
  2  1  1  6
  2  4  1  0
  3  2  1  0
  4 10  1  0
  4  5  2  0
  7  6  1  6
  7  8  1  0
  9  7  1  0
  9 10  1  1
 11 12  2  0
 11  9  1  0
 14 13  1  1
 14 16  1  0
 14 15  1  0
 16 17  1  6
 17 11  1  0
 18 16  1  0
 19 18  1  0
 20 18  2  0
M  END
$$$$
