HEE.pdb
     RDKit          3D

 29 29  0  0  1  0  0  0  0  0999 V2000
   17.9886  -14.6149   14.3235 N   0  0  0  0  0  0  0  0  0  0  0  0
   19.0350  -14.9891   15.2452 C   0  0  1  0  0  0  0  0  0  0  0  0
   20.0338  -13.8531   15.3706 C   0  0  0  0  0  0  0  0  0  0  0  0
   20.9748  -13.9283   14.2432 C   0  0  0  0  0  0  0  0  0  0  0  0
   21.4850  -15.0533   13.6571 C   0  0  0  0  0  0  0  0  0  0  0  0
   22.3061  -14.6549   12.6638 N   0  0  0  0  0  0  0  0  0  0  0  0
   22.3143  -13.3073   12.6234 C   0  0  0  0  0  0  0  0  0  0  0  0
   21.4892  -12.8628   13.6024 N   0  0  0  0  0  0  0  0  0  0  0  0
   18.4396  -15.1845   16.5887 C   0  0  0  0  0  0  0  0  0  0  0  0
   17.6555  -14.3050   17.0297 O   0  0  0  0  0  0  0  0  0  0  0  0
   18.7520  -16.3536   17.3683 N   0  0  0  0  0  0  0  0  0  0  0  0
   18.1421  -16.4792   18.6474 C   0  0  1  0  0  0  0  0  0  0  0  0
   17.3528  -17.7963   18.6620 C   0  0  0  0  0  0  0  0  0  0  0  0
   16.1025  -17.6350   17.8345 C   0  0  0  0  0  0  0  0  0  0  0  0
   15.3253  -18.9059   17.8089 C   0  0  0  0  0  0  0  0  0  0  0  0
   15.8318  -19.9884   17.3716 O   0  0  0  0  0  0  0  0  0  0  0  0
   19.1480  -16.6209   19.7469 C   0  0  0  0  0  0  0  0  0  0  0  0
   20.2245  -17.2212   19.5020 O   0  0  0  0  0  0  0  0  0  0  0  0
   14.0193  -18.9639   18.2595 O   0  0  0  0  0  0  0  0  0  0  0  0
   18.9415  -16.1120   21.0413 N   0  0  0  0  0  0  0  0  0  0  0  0
   19.9033  -16.3298   22.1580 C   0  0  1  0  0  0  0  0  0  0  0  0
   20.0822  -15.0577   22.9107 C   0  0  0  0  0  0  0  0  0  0  0  0
   20.8969  -14.0653   22.1539 C   0  0  0  0  0  0  0  0  0  0  0  0
   21.0790  -12.8002   22.8879 C   0  0  0  0  0  0  0  0  0  0  0  0
   21.0429  -12.7137   24.1249 O   0  0  0  0  0  0  0  0  0  0  0  0
   19.2787  -17.3592   23.0041 C   0  0  0  0  0  0  0  0  0  0  0  0
   18.0909  -17.6877   22.8239 O   0  0  0  0  0  0  0  0  0  0  0  0
   21.3100  -11.5870   22.2116 O   0  0  0  0  0  0  0  0  0  0  0  0
   19.9935  -17.9753   24.0066 O   0  0  0  0  0  0  0  0  0  0  0  0
  2  1  1  6
  2  3  1  0
  3  4  1  0
  4  8  1  0
  4  5  2  0
  5  6  1  0
  7  6  1  0
  8  7  2  0
  9  2  1  0
 10  9  2  0
 11  9  1  0
 12 11  1  0
 12 13  1  6
 14 13  1  0
 15 16  2  0
 15 14  1  0
 17 12  1  0
 17 20  1  0
 18 17  2  0
 19 15  1  0
 21 20  1  0
 21 26  1  0
 21 22  1  1
 23 22  1  0
 24 28  1  0
 24 23  1  0
 25 24  2  0
 26 29  1  0
 27 26  2  0
M  END
$$$$
