HEE.pdb
     RDKit          3D

 29 29  0  0  1  0  0  0  0  0999 V2000
    8.8803  -16.9951   19.7898 N   0  0  0  0  0  0  0  0  0  0  0  0
    9.5927  -16.0511   20.6179 C   0  0  1  0  0  0  0  0  0  0  0  0
    8.6042  -15.1178   21.2928 C   0  0  0  0  0  0  0  0  0  0  0  0
    8.0068  -14.2467   20.2698 C   0  0  0  0  0  0  0  0  0  0  0  0
    8.4279  -13.0046   19.8836 C   0  0  0  0  0  0  0  0  0  0  0  0
    7.5878  -12.5742   18.9201 N   0  0  0  0  0  0  0  0  0  0  0  0
    6.6561  -13.5240   18.7024 C   0  0  0  0  0  0  0  0  0  0  0  0
    6.9198  -14.5565   19.5398 N   0  0  0  0  0  0  0  0  0  0  0  0
   10.2859  -16.7927   21.6983 C   0  0  0  0  0  0  0  0  0  0  0  0
    9.6392  -17.6615   22.3383 O   0  0  0  0  0  0  0  0  0  0  0  0
   11.6663  -16.5240   22.0059 N   0  0  0  0  0  0  0  0  0  0  0  0
   12.2768  -17.2915   23.0365 C   0  0  1  0  0  0  0  0  0  0  0  0
   13.7743  -16.9519   23.0480 C   0  0  0  0  0  0  0  0  0  0  0  0
   14.4745  -17.8285   24.0555 C   0  0  0  0  0  0  0  0  0  0  0  0
   15.9433  -17.5795   24.0334 C   0  0  0  0  0  0  0  0  0  0  0  0
   16.7689  -18.4171   24.5198 O   0  0  0  0  0  0  0  0  0  0  0  0
   11.7851  -16.9105   24.3981 C   0  0  0  0  0  0  0  0  0  0  0  0
   12.0558  -15.7639   24.8350 O   0  0  0  0  0  0  0  0  0  0  0  0
   16.4730  -16.4268   23.4832 O   0  0  0  0  0  0  0  0  0  0  0  0
   11.0338  -17.7791   25.2094 N   0  0  0  0  0  0  0  0  0  0  0  0
   10.5086  -17.3838   26.5464 C   0  0  1  0  0  0  0  0  0  0  0  0
    9.0604  -17.7202   26.6271 C   0  0  0  0  0  0  0  0  0  0  0  0
    8.3427  -17.4287   25.3538 C   0  0  0  0  0  0  0  0  0  0  0  0
    6.9332  -17.8586   25.3837 C   0  0  0  0  0  0  0  0  0  0  0  0
    6.4293  -18.4924   26.3237 O   0  0  0  0  0  0  0  0  0  0  0  0
   11.2879  -18.1754   27.5117 C   0  0  0  0  0  0  0  0  0  0  0  0
   11.2545  -17.8996   28.7258 O   0  0  0  0  0  0  0  0  0  0  0  0
    6.0554  -17.5679   24.3219 O   0  0  0  0  0  0  0  0  0  0  0  0
   12.0650  -19.2313   27.0915 O   0  0  0  0  0  0  0  0  0  0  0  0
  2  1  1  6
  2  3  1  0
  3  4  1  0
  4  8  1  0
  4  5  2  0
  5  6  1  0
  7  6  1  0
  8  7  2  0
  9  2  1  0
 10  9  2  0
 11  9  1  0
 12 11  1  0
 12 13  1  1
 14 13  1  0
 15 16  2  0
 15 14  1  0
 17 12  1  0
 17 20  1  0
 18 17  2  0
 19 15  1  0
 21 20  1  0
 21 26  1  0
 21 22  1  6
 23 22  1  0
 24 28  1  0
 24 23  1  0
 25 24  2  0
 26 29  1  0
 27 26  2  0
M  END
$$$$
