HEE.pdb
     RDKit          3D

 29 29  0  0  1  0  0  0  0  0999 V2000
   10.3466  -16.1695   20.8177 N   0  0  0  0  0  0  0  0  0  0  0  0
    9.3747  -15.5296   21.6722 C   0  0  1  0  0  0  0  0  0  0  0  0
    8.0119  -15.5582   21.0046 C   0  0  0  0  0  0  0  0  0  0  0  0
    7.9439  -14.4608   20.0282 C   0  0  0  0  0  0  0  0  0  0  0  0
    8.9363  -13.5830   19.6906 C   0  0  0  0  0  0  0  0  0  0  0  0
    8.4364  -12.7466   18.7578 N   0  0  0  0  0  0  0  0  0  0  0  0
    7.1558  -13.0889   18.5115 C   0  0  0  0  0  0  0  0  0  0  0  0
    6.8561  -14.1498   19.2998 N   0  0  0  0  0  0  0  0  0  0  0  0
    9.2528  -16.3122   22.9254 C   0  0  0  0  0  0  0  0  0  0  0  0
    8.3494  -15.9974   23.7423 O   0  0  0  0  0  0  0  0  0  0  0  0
   10.1476  -17.4062   23.1989 N   0  0  0  0  0  0  0  0  0  0  0  0
   10.0375  -18.0522   24.4616 C   0  0  1  0  0  0  0  0  0  0  0  0
   10.7092  -19.4280   24.3433 C   0  0  0  0  0  0  0  0  0  0  0  0
   11.8371  -19.5171   25.3402 C   0  0  0  0  0  0  0  0  0  0  0  0
   12.4435  -20.8780   25.3228 C   0  0  0  0  0  0  0  0  0  0  0  0
   11.7353  -21.9252   25.4693 O   0  0  0  0  0  0  0  0  0  0  0  0
   10.8023  -17.3411   25.5341 C   0  0  0  0  0  0  0  0  0  0  0  0
   11.9629  -16.9352   25.2752 O   0  0  0  0  0  0  0  0  0  0  0  0
   13.8026  -21.0617   25.1469 O   0  0  0  0  0  0  0  0  0  0  0  0
   10.2791  -17.1075   26.8182 N   0  0  0  0  0  0  0  0  0  0  0  0
   10.9840  -16.2838   27.8401 C   0  0  1  0  0  0  0  0  0  0  0  0
   10.1378  -15.1127   28.1995 C   0  0  0  0  0  0  0  0  0  0  0  0
    9.9127  -14.2034   27.0402 C   0  0  0  0  0  0  0  0  0  0  0  0
    9.0314  -13.0688   27.3693 C   0  0  0  0  0  0  0  0  0  0  0  0
    8.5155  -12.9024   28.4852 O   0  0  0  0  0  0  0  0  0  0  0  0
   11.1624  -17.1788   28.9946 C   0  0  0  0  0  0  0  0  0  0  0  0
   10.5869  -18.2828   29.0311 O   0  0  0  0  0  0  0  0  0  0  0  0
    8.7161  -12.0842   26.4136 O   0  0  0  0  0  0  0  0  0  0  0  0
   11.9659  -16.8133   30.0511 O   0  0  0  0  0  0  0  0  0  0  0  0
  2  1  1  6
  2  3  1  0
  3  4  1  0
  4  8  1  0
  4  5  2  0
  5  6  1  0
  7  6  1  0
  8  7  2  0
  9  2  1  0
 10  9  2  0
 11  9  1  0
 12 11  1  0
 12 13  1  6
 14 13  1  0
 15 16  2  0
 15 14  1  0
 17 12  1  0
 17 20  1  0
 18 17  2  0
 19 15  1  0
 21 20  1  0
 21 26  1  0
 21 22  1  1
 23 22  1  0
 24 28  1  0
 24 23  1  0
 25 24  2  0
 26 29  1  0
 27 26  2  0
M  END
$$$$
