HEE.pdb
     RDKit          3D

 29 29  0  0  1  0  0  0  0  0999 V2000
    9.3146  -15.9548   18.5045 N   0  0  0  0  0  0  0  0  0  0  0  0
   10.1949  -14.8184   18.6392 C   0  0  1  0  0  0  0  0  0  0  0  0
    9.7402  -13.9566   19.8029 C   0  0  0  0  0  0  0  0  0  0  0  0
    8.4444  -13.3513   19.4612 C   0  0  0  0  0  0  0  0  0  0  0  0
    8.1303  -12.0212   19.4223 C   0  0  0  0  0  0  0  0  0  0  0  0
    6.8341  -11.9221   19.0624 N   0  0  0  0  0  0  0  0  0  0  0  0
    6.3402  -13.1629   18.8778 C   0  0  0  0  0  0  0  0  0  0  0  0
    7.3403  -14.0434   19.1257 N   0  0  0  0  0  0  0  0  0  0  0  0
   11.5545  -15.3055   18.9742 C   0  0  0  0  0  0  0  0  0  0  0  0
   11.6635  -16.3818   19.6163 O   0  0  0  0  0  0  0  0  0  0  0  0
   12.7209  -14.5633   18.5730 N   0  0  0  0  0  0  0  0  0  0  0  0
   13.9954  -15.1105   18.8893 C   0  0  1  0  0  0  0  0  0  0  0  0
   15.0472  -14.3525   18.0664 C   0  0  0  0  0  0  0  0  0  0  0  0
   16.4055  -14.9560   18.3203 C   0  0  0  0  0  0  0  0  0  0  0  0
   17.4290  -14.3296   17.4370 C   0  0  0  0  0  0  0  0  0  0  0  0
   17.6765  -13.0821   17.4840 O   0  0  0  0  0  0  0  0  0  0  0  0
   14.3790  -14.8733   20.3167 C   0  0  0  0  0  0  0  0  0  0  0  0
   14.3722  -13.6946   20.7523 O   0  0  0  0  0  0  0  0  0  0  0  0
   18.1541  -15.0772   16.5275 O   0  0  0  0  0  0  0  0  0  0  0  0
   14.7464  -15.9112   21.1913 N   0  0  0  0  0  0  0  0  0  0  0  0
   15.1369  -15.6726   22.6092 C   0  0  1  0  0  0  0  0  0  0  0  0
   14.4879  -16.6926   23.4782 C   0  0  0  0  0  0  0  0  0  0  0  0
   13.0217  -16.4635   23.6171 C   0  0  0  0  0  0  0  0  0  0  0  0
   12.3437  -17.5459   24.3526 C   0  0  0  0  0  0  0  0  0  0  0  0
   12.8255  -18.6792   24.5032 O   0  0  0  0  0  0  0  0  0  0  0  0
   16.6013  -15.8168   22.6310 C   0  0  0  0  0  0  0  0  0  0  0  0
   17.2557  -15.4525   23.6261 O   0  0  0  0  0  0  0  0  0  0  0  0
   11.0794  -17.3522   24.9413 O   0  0  0  0  0  0  0  0  0  0  0  0
   17.2717  -16.3551   21.5557 O   0  0  0  0  0  0  0  0  0  0  0  0
  2  1  1  1
  2  3  1  0
  3  4  1  0
  4  8  1  0
  4  5  2  0
  5  6  1  0
  7  6  1  0
  8  7  2  0
  9  2  1  0
 10  9  2  0
 11  9  1  0
 12 11  1  0
 12 13  1  6
 14 13  1  0
 15 16  2  0
 15 14  1  0
 17 12  1  0
 17 20  1  0
 18 17  2  0
 19 15  1  0
 21 20  1  0
 21 26  1  0
 21 22  1  1
 23 22  1  0
 24 28  1  0
 24 23  1  0
 25 24  2  0
 26 29  1  0
 27 26  2  0
M  END
$$$$
