HEE.pdb
     RDKit          3D

 29 29  0  0  1  0  0  0  0  0999 V2000
    9.8081  -16.8064   17.2576 N   0  0  0  0  0  0  0  0  0  0  0  0
   10.2164  -16.2111   18.5079 C   0  0  1  0  0  0  0  0  0  0  0  0
    9.0145  -16.0772   19.4251 C   0  0  0  0  0  0  0  0  0  0  0  0
    8.2228  -14.9149   18.9955 C   0  0  0  0  0  0  0  0  0  0  0  0
    7.3162  -14.8559   17.9737 C   0  0  0  0  0  0  0  0  0  0  0  0
    6.8307  -13.5979   17.9361 N   0  0  0  0  0  0  0  0  0  0  0  0
    7.4179  -12.8781   18.9132 C   0  0  0  0  0  0  0  0  0  0  0  0
    8.2781  -13.6974   19.5656 N   0  0  0  0  0  0  0  0  0  0  0  0
   11.1688  -17.1251   19.1827 C   0  0  0  0  0  0  0  0  0  0  0  0
   11.1104  -18.3534   18.9167 O   0  0  0  0  0  0  0  0  0  0  0  0
   12.1369  -16.6174   20.1193 N   0  0  0  0  0  0  0  0  0  0  0  0
   13.3669  -17.3206   20.2472 C   0  0  1  0  0  0  0  0  0  0  0  0
   14.1089  -17.2128   18.9072 C   0  0  0  0  0  0  0  0  0  0  0  0
   15.4203  -17.9508   19.0050 C   0  0  0  0  0  0  0  0  0  0  0  0
   16.1673  -17.8615   17.7189 C   0  0  0  0  0  0  0  0  0  0  0  0
   17.3380  -17.3656   17.6611 O   0  0  0  0  0  0  0  0  0  0  0  0
   14.2837  -16.6879   21.2471 C   0  0  0  0  0  0  0  0  0  0  0  0
   14.7701  -15.5591   20.9855 O   0  0  0  0  0  0  0  0  0  0  0  0
   15.6204  -18.3137   16.5322 O   0  0  0  0  0  0  0  0  0  0  0  0
   14.6245  -17.3007   22.4659 N   0  0  0  0  0  0  0  0  0  0  0  0
   15.3526  -16.5879   23.5528 C   0  0  1  0  0  0  0  0  0  0  0  0
   15.2165  -17.3533   24.8226 C   0  0  0  0  0  0  0  0  0  0  0  0
   15.6182  -18.7801   24.6660 C   0  0  0  0  0  0  0  0  0  0  0  0
   15.3830  -19.5747   25.8849 C   0  0  0  0  0  0  0  0  0  0  0  0
   14.5313  -19.2845   26.7390 O   0  0  0  0  0  0  0  0  0  0  0  0
   16.7553  -16.5477   23.1097 C   0  0  0  0  0  0  0  0  0  0  0  0
   17.1089  -17.1542   22.0809 O   0  0  0  0  0  0  0  0  0  0  0  0
   16.1290  -20.7373   26.1575 O   0  0  0  0  0  0  0  0  0  0  0  0
   17.6985  -15.8416   23.8219 O   0  0  0  0  0  0  0  0  0  0  0  0
  2  1  1  6
  2  3  1  0
  3  4  1  0
  4  8  1  0
  4  5  2  0
  5  6  1  0
  7  6  1  0
  8  7  2  0
  9  2  1  0
 10  9  2  0
 11  9  1  0
 12 11  1  0
 12 13  1  6
 14 13  1  0
 15 16  2  0
 15 14  1  0
 17 12  1  0
 17 20  1  0
 18 17  2  0
 19 15  1  0
 21 20  1  0
 21 26  1  0
 21 22  1  1
 23 22  1  0
 24 28  1  0
 24 23  1  0
 25 24  2  0
 26 29  1  0
 27 26  2  0
M  END
$$$$
