HEE.pdb
     RDKit          3D

 29 29  0  0  1  0  0  0  0  0999 V2000
   10.1855  -15.7280   16.4553 N   0  0  0  0  0  0  0  0  0  0  0  0
   10.5510  -14.7126   17.4143 C   0  0  1  0  0  0  0  0  0  0  0  0
    9.4284  -14.5338   18.4201 C   0  0  0  0  0  0  0  0  0  0  0  0
    8.2578  -13.9795   17.7239 C   0  0  0  0  0  0  0  0  0  0  0  0
    8.0438  -12.6794   17.3587 C   0  0  0  0  0  0  0  0  0  0  0  0
    6.8427  -12.6237   16.7472 N   0  0  0  0  0  0  0  0  0  0  0  0
    6.3097  -13.8619   16.7265 C   0  0  0  0  0  0  0  0  0  0  0  0
    7.1890  -14.6969   17.3319 N   0  0  0  0  0  0  0  0  0  0  0  0
   11.7353  -15.1790   18.1746 C   0  0  0  0  0  0  0  0  0  0  0  0
   11.7097  -16.3335   18.6736 O   0  0  0  0  0  0  0  0  0  0  0  0
   12.8862  -14.3296   18.3364 N   0  0  0  0  0  0  0  0  0  0  0  0
   14.0612  -14.9055   18.8945 C   0  0  1  0  0  0  0  0  0  0  0  0
   15.2706  -14.1685   18.3010 C   0  0  0  0  0  0  0  0  0  0  0  0
   16.5372  -14.7445   18.8822 C   0  0  0  0  0  0  0  0  0  0  0  0
   17.7245  -13.9782   18.4099 C   0  0  0  0  0  0  0  0  0  0  0  0
   18.3443  -13.1713   19.1743 O   0  0  0  0  0  0  0  0  0  0  0  0
   14.1599  -14.6807   20.3711 C   0  0  0  0  0  0  0  0  0  0  0  0
   13.8352  -13.5571   20.8304 O   0  0  0  0  0  0  0  0  0  0  0  0
   18.2042  -14.1108   17.1198 O   0  0  0  0  0  0  0  0  0  0  0  0
   14.6000  -15.6715   21.2667 N   0  0  0  0  0  0  0  0  0  0  0  0
   14.4412  -15.5537   22.7434 C   0  0  1  0  0  0  0  0  0  0  0  0
   13.3982  -16.5103   23.2056 C   0  0  0  0  0  0  0  0  0  0  0  0
   13.3317  -16.5962   24.6921 C   0  0  0  0  0  0  0  0  0  0  0  0
   12.3162  -17.5556   25.1620 C   0  0  0  0  0  0  0  0  0  0  0  0
   12.3508  -18.7696   24.9091 O   0  0  0  0  0  0  0  0  0  0  0  0
   15.7590  -15.9028   23.2977 C   0  0  0  0  0  0  0  0  0  0  0  0
   16.6053  -16.4844   22.5929 O   0  0  0  0  0  0  0  0  0  0  0  0
   11.2215  -17.1402   25.9440 O   0  0  0  0  0  0  0  0  0  0  0  0
   16.0789  -15.5938   24.6007 O   0  0  0  0  0  0  0  0  0  0  0  0
  2  1  1  6
  2  3  1  0
  3  4  1  0
  4  8  1  0
  4  5  2  0
  5  6  1  0
  7  6  1  0
  8  7  2  0
  9  2  1  0
 10  9  2  0
 11  9  1  0
 12 11  1  0
 12 13  1  6
 14 13  1  0
 15 16  2  0
 15 14  1  0
 17 12  1  0
 17 20  1  0
 18 17  2  0
 19 15  1  0
 21 20  1  0
 21 26  1  0
 21 22  1  1
 23 22  1  0
 24 28  1  0
 24 23  1  0
 25 24  2  0
 26 29  1  0
 27 26  2  0
M  END
$$$$
