HEE.pdb
     RDKit          3D

 29 29  0  0  1  0  0  0  0  0999 V2000
    6.5844  -13.8969   21.3070 N   0  0  0  0  0  0  0  0  0  0  0  0
    7.6391  -14.8592   21.0930 C   0  0  1  0  0  0  0  0  0  0  0  0
    8.7092  -14.2532   20.2035 C   0  0  0  0  0  0  0  0  0  0  0  0
    8.1891  -14.1735   18.8304 C   0  0  0  0  0  0  0  0  0  0  0  0
    8.1037  -13.0648   18.0347 C   0  0  0  0  0  0  0  0  0  0  0  0
    7.5654  -13.4510   16.8597 N   0  0  0  0  0  0  0  0  0  0  0  0
    7.3163  -14.7749   16.9121 C   0  0  0  0  0  0  0  0  0  0  0  0
    7.7040  -15.2170   18.1332 N   0  0  0  0  0  0  0  0  0  0  0  0
    8.2839  -15.1573   22.3943 C   0  0  0  0  0  0  0  0  0  0  0  0
    8.9517  -14.2495   22.9534 O   0  0  0  0  0  0  0  0  0  0  0  0
    8.1475  -16.4551   23.0021 N   0  0  0  0  0  0  0  0  0  0  0  0
    8.9045  -16.7189   24.1774 C   0  0  1  0  0  0  0  0  0  0  0  0
    7.9784  -17.4181   25.1831 C   0  0  0  0  0  0  0  0  0  0  0  0
    8.7722  -17.7983   26.4076 C   0  0  0  0  0  0  0  0  0  0  0  0
    7.9320  -18.5895   27.3500 C   0  0  0  0  0  0  0  0  0  0  0  0
    6.7371  -18.9193   27.0618 O   0  0  0  0  0  0  0  0  0  0  0  0
   10.0142  -17.6935   23.9336 C   0  0  0  0  0  0  0  0  0  0  0  0
    9.7383  -18.7952   23.3958 O   0  0  0  0  0  0  0  0  0  0  0  0
    8.4147  -18.9996   28.5791 O   0  0  0  0  0  0  0  0  0  0  0  0
   11.3514  -17.4305   24.2798 N   0  0  0  0  0  0  0  0  0  0  0  0
   12.4478  -18.4186   24.0767 C   0  0  1  0  0  0  0  0  0  0  0  0
   13.5320  -17.7941   23.2698 C   0  0  0  0  0  0  0  0  0  0  0  0
   14.0247  -16.5244   23.8752 C   0  0  0  0  0  0  0  0  0  0  0  0
   15.1035  -15.8998   23.0888 C   0  0  0  0  0  0  0  0  0  0  0  0
   15.6916  -14.8633   23.4334 O   0  0  0  0  0  0  0  0  0  0  0  0
   12.9213  -18.7468   25.4309 C   0  0  0  0  0  0  0  0  0  0  0  0
   13.7382  -19.6704   25.6064 O   0  0  0  0  0  0  0  0  0  0  0  0
   15.5400  -16.4566   21.8714 O   0  0  0  0  0  0  0  0  0  0  0  0
   12.4714  -18.0412   26.5241 O   0  0  0  0  0  0  0  0  0  0  0  0
  2  1  1  1
  2  3  1  0
  3  4  1  0
  4  8  1  0
  4  5  2  0
  5  6  1  0
  7  6  1  0
  8  7  2  0
  9  2  1  0
 10  9  2  0
 11  9  1  0
 12 11  1  0
 12 13  1  1
 14 13  1  0
 15 16  2  0
 15 14  1  0
 17 12  1  0
 17 20  1  0
 18 17  2  0
 19 15  1  0
 21 20  1  0
 21 26  1  0
 21 22  1  6
 23 22  1  0
 24 28  1  0
 24 23  1  0
 25 24  2  0
 26 29  1  0
 27 26  2  0
M  END
$$$$
