HEE.pdb
     RDKit          3D

 29 29  0  0  1  0  0  0  0  0999 V2000
    7.4379  -16.8740   16.2226 N   0  0  0  0  0  0  0  0  0  0  0  0
    8.8610  -16.6363   16.2746 C   0  0  1  0  0  0  0  0  0  0  0  0
    9.1230  -15.1574   16.4936 C   0  0  0  0  0  0  0  0  0  0  0  0
    8.6877  -14.4209   15.2977 C   0  0  0  0  0  0  0  0  0  0  0  0
    7.6782  -13.5034   15.2056 C   0  0  0  0  0  0  0  0  0  0  0  0
    7.6291  -13.0835   13.9246 N   0  0  0  0  0  0  0  0  0  0  0  0
    8.5869  -13.7221   13.2228 C   0  0  0  0  0  0  0  0  0  0  0  0
    9.2389  -14.5481   14.0769 N   0  0  0  0  0  0  0  0  0  0  0  0
    9.4207  -17.3477   17.4487 C   0  0  0  0  0  0  0  0  0  0  0  0
    8.7075  -17.4553   18.4794 O   0  0  0  0  0  0  0  0  0  0  0  0
   10.7488  -17.9017   17.4082 N   0  0  0  0  0  0  0  0  0  0  0  0
   11.2059  -18.6108   18.5536 C   0  0  1  0  0  0  0  0  0  0  0  0
   11.7622  -19.9604   18.0771 C   0  0  0  0  0  0  0  0  0  0  0  0
   10.6181  -20.9149   17.8449 C   0  0  0  0  0  0  0  0  0  0  0  0
   11.1268  -22.2396   17.3908 C   0  0  0  0  0  0  0  0  0  0  0  0
   11.3967  -22.4665   16.1679 O   0  0  0  0  0  0  0  0  0  0  0  0
   12.3613  -17.9318   19.2205 C   0  0  0  0  0  0  0  0  0  0  0  0
   13.2974  -17.4970   18.5036 O   0  0  0  0  0  0  0  0  0  0  0  0
   11.3275  -23.2802   18.2790 O   0  0  0  0  0  0  0  0  0  0  0  0
   12.4454  -17.7591   20.6135 N   0  0  0  0  0  0  0  0  0  0  0  0
   13.5950  -17.0812   21.2756 C   0  0  1  0  0  0  0  0  0  0  0  0
   13.2536  -16.8073   22.6986 C   0  0  0  0  0  0  0  0  0  0  0  0
   12.7588  -18.0238   23.4034 C   0  0  0  0  0  0  0  0  0  0  0  0
   12.5018  -17.7870   24.8353 C   0  0  0  0  0  0  0  0  0  0  0  0
   11.8481  -16.8239   25.2647 O   0  0  0  0  0  0  0  0  0  0  0  0
   14.7100  -18.0364   21.1758 C   0  0  0  0  0  0  0  0  0  0  0  0
   15.8687  -17.6855   21.4682 O   0  0  0  0  0  0  0  0  0  0  0  0
   12.9948  -18.6611   25.8230 O   0  0  0  0  0  0  0  0  0  0  0  0
   14.4932  -19.3306   20.7591 O   0  0  0  0  0  0  0  0  0  0  0  0
  2  1  1  1
  2  3  1  0
  3  4  1  0
  4  8  1  0
  4  5  2  0
  5  6  1  0
  7  6  1  0
  8  7  2  0
  9  2  1  0
 10  9  2  0
 11  9  1  0
 12 11  1  0
 12 13  1  6
 14 13  1  0
 15 16  2  0
 15 14  1  0
 17 12  1  0
 17 20  1  0
 18 17  2  0
 19 15  1  0
 21 20  1  0
 21 26  1  0
 21 22  1  1
 23 22  1  0
 24 28  1  0
 24 23  1  0
 25 24  2  0
 26 29  1  0
 27 26  2  0
M  END
$$$$
