HEE.pdb
     RDKit          3D

 29 29  0  0  1  0  0  0  0  0999 V2000
    6.6147  -17.8501   20.8061 N   0  0  0  0  0  0  0  0  0  0  0  0
    7.7354  -16.9713   21.0428 C   0  0  1  0  0  0  0  0  0  0  0  0
    7.2841  -15.7811   21.8696 C   0  0  0  0  0  0  0  0  0  0  0  0
    7.7154  -14.5486   21.1936 C   0  0  0  0  0  0  0  0  0  0  0  0
    8.4402  -14.4413   20.0392 C   0  0  0  0  0  0  0  0  0  0  0  0
    8.6069  -13.1267   19.7872 N   0  0  0  0  0  0  0  0  0  0  0  0
    8.0004  -12.4190   20.7613 C   0  0  0  0  0  0  0  0  0  0  0  0
    7.4505  -13.3033   21.6287 N   0  0  0  0  0  0  0  0  0  0  0  0
    8.7460  -17.6943   21.8514 C   0  0  0  0  0  0  0  0  0  0  0  0
    8.3509  -18.5888   22.6429 O   0  0  0  0  0  0  0  0  0  0  0  0
   10.1455  -17.3793   21.7319 N   0  0  0  0  0  0  0  0  0  0  0  0
   11.0768  -18.2510   22.3616 C   0  0  1  0  0  0  0  0  0  0  0  0
   12.4441  -18.0334   21.6974 C   0  0  0  0  0  0  0  0  0  0  0  0
   12.4718  -18.7510   20.3715 C   0  0  0  0  0  0  0  0  0  0  0  0
   13.7968  -18.5794   19.7120 C   0  0  0  0  0  0  0  0  0  0  0  0
   14.7930  -18.0902   20.3349 O   0  0  0  0  0  0  0  0  0  0  0  0
   11.2907  -17.9108   23.8036 C   0  0  0  0  0  0  0  0  0  0  0  0
   11.3320  -16.6994   24.1349 O   0  0  0  0  0  0  0  0  0  0  0  0
   14.0012  -18.9445   18.3941 O   0  0  0  0  0  0  0  0  0  0  0  0
   11.4472  -18.8870   24.8035 N   0  0  0  0  0  0  0  0  0  0  0  0
   11.6273  -18.5474   26.2429 C   0  0  1  0  0  0  0  0  0  0  0  0
   10.8823  -19.5288   27.0786 C   0  0  0  0  0  0  0  0  0  0  0  0
   11.0771  -19.2895   28.5368 C   0  0  0  0  0  0  0  0  0  0  0  0
   10.3773  -20.2798   29.3746 C   0  0  0  0  0  0  0  0  0  0  0  0
   10.5779  -20.4126   30.5916 O   0  0  0  0  0  0  0  0  0  0  0  0
   13.0764  -18.6464   26.4798 C   0  0  0  0  0  0  0  0  0  0  0  0
   13.7854  -19.3703   25.7555 O   0  0  0  0  0  0  0  0  0  0  0  0
    9.4171  -21.1536   28.8295 O   0  0  0  0  0  0  0  0  0  0  0  0
   13.6721  -17.9433   27.5026 O   0  0  0  0  0  0  0  0  0  0  0  0
  2  1  1  1
  2  3  1  0
  3  4  1  0
  4  8  1  0
  4  5  2  0
  5  6  1  0
  7  6  1  0
  8  7  2  0
  9  2  1  0
 10  9  2  0
 11  9  1  0
 12 11  1  0
 12 13  1  6
 14 13  1  0
 15 16  2  0
 15 14  1  0
 17 12  1  0
 17 20  1  0
 18 17  2  0
 19 15  1  0
 21 20  1  0
 21 26  1  0
 21 22  1  1
 23 22  1  0
 24 28  1  0
 24 23  1  0
 25 24  2  0
 26 29  1  0
 27 26  2  0
M  END
$$$$
