SGT.pdb
     RDKit          3D

 18 17  0  0  1  0  0  0  0  0999 V2000
   10.4224  -15.4408   14.7059 O   0  0  0  0  0  0  0  0  0  0  0  0
    9.8080  -14.4500   15.4728 C   0  0  0  0  0  0  0  0  0  0  0  0
    9.7187  -14.9794   16.9002 C   0  0  2  0  0  0  0  0  0  0  0  0
    8.6814  -15.9708   16.9484 N   0  0  0  0  0  0  0  0  0  0  0  0
    9.4391  -13.8973   17.8576 C   0  0  0  0  0  0  0  0  0  0  0  0
   10.3068  -13.0292   18.0775 O   0  0  0  0  0  0  0  0  0  0  0  0
    8.2036  -13.8142   18.5405 N   0  0  0  0  0  0  0  0  0  0  0  0
    7.9418  -12.7639   19.5238 C   0  0  0  0  0  0  0  0  0  0  0  0
    8.3612  -13.2405   20.8611 C   0  0  0  0  0  0  0  0  0  0  0  0
    8.1488  -12.5432   21.8842 O   0  0  0  0  0  0  0  0  0  0  0  0
    7.1211  -16.2924   22.3874 C   0  0  0  0  0  0  0  0  0  0  0  0
    8.6072  -16.3918   22.4019 C   0  0  1  0  0  0  0  0  0  0  0  0
    9.0531  -17.1917   21.3245 O   0  0  0  0  0  0  0  0  0  0  0  0
    9.3143  -15.0707   22.2659 C   0  0  2  0  0  0  0  0  0  0  0  0
    9.0110  -14.5004   20.9894 N   0  0  0  0  0  0  0  0  0  0  0  0
   10.7726  -15.2453   22.4894 C   0  0  0  0  0  0  0  0  0  0  0  0
   11.3130  -15.6138   23.7064 O   0  0  0  0  0  0  0  0  0  0  0  0
   11.5341  -15.0476   21.5278 O   0  0  0  0  0  0  0  0  0  0  0  0
  2  1  1  0
  3  2  1  0
  3  4  1  6
  5  6  2  0
  5  3  1  0
  7  5  1  0
  8  7  1  0
  9 15  1  0
  9  8  1  0
 10  9  2  0
 12 13  1  0
 12 11  1  6
 14 15  1  6
 14 12  1  0
 16 14  1  0
 17 16  1  0
 18 16  2  0
M  END
$$$$
