SGT.pdb
     RDKit          3D

 18 17  0  0  1  0  0  0  0  0999 V2000
    9.8336  -18.6972   16.0442 O   0  0  0  0  0  0  0  0  0  0  0  0
   10.1821  -17.6518   16.9003 C   0  0  0  0  0  0  0  0  0  0  0  0
   10.1180  -18.1975   18.3229 C   0  0  2  0  0  0  0  0  0  0  0  0
    8.7386  -18.3986   18.6660 N   0  0  0  0  0  0  0  0  0  0  0  0
   10.7561  -17.2789   19.2795 C   0  0  0  0  0  0  0  0  0  0  0  0
   11.9805  -17.0571   19.1982 O   0  0  0  0  0  0  0  0  0  0  0  0
   10.0130  -16.6360   20.2964 N   0  0  0  0  0  0  0  0  0  0  0  0
   10.6458  -15.7178   21.2424 C   0  0  0  0  0  0  0  0  0  0  0  0
   10.6538  -16.3399   22.5857 C   0  0  0  0  0  0  0  0  0  0  0  0
    9.5793  -16.5343   23.2069 O   0  0  0  0  0  0  0  0  0  0  0  0
   12.1214  -19.6389   23.2940 C   0  0  0  0  0  0  0  0  0  0  0  0
   12.7227  -18.6855   24.2676 C   0  0  1  0  0  0  0  0  0  0  0  0
   14.0198  -18.3118   23.8466 O   0  0  0  0  0  0  0  0  0  0  0  0
   11.9494  -17.4057   24.4343 C   0  0  2  0  0  0  0  0  0  0  0  0
   11.8900  -16.7214   23.1793 N   0  0  0  0  0  0  0  0  0  0  0  0
   12.5503  -16.5815   25.5143 C   0  0  0  0  0  0  0  0  0  0  0  0
   13.1409  -15.3528   25.2892 O   0  0  0  0  0  0  0  0  0  0  0  0
   12.5143  -17.0289   26.6729 O   0  0  0  0  0  0  0  0  0  0  0  0
  2  1  1  0
  3  2  1  0
  3  4  1  1
  5  6  2  0
  5  3  1  0
  7  5  1  0
  8  7  1  0
  9 15  1  0
  9  8  1  0
 10  9  2  0
 12 13  1  0
 12 11  1  6
 14 15  1  6
 14 12  1  0
 16 14  1  0
 17 16  1  0
 18 16  2  0
M  END
$$$$
