SGT.pdb
     RDKit          3D

 18 17  0  0  1  0  0  0  0  0999 V2000
    5.0398  -20.1130   19.6153 O   0  0  0  0  0  0  0  0  0  0  0  0
    5.0137  -20.0091   21.0066 C   0  0  0  0  0  0  0  0  0  0  0  0
    6.0179  -18.9287   21.3940 C   0  0  2  0  0  0  0  0  0  0  0  0
    7.3243  -19.5224   21.4348 N   0  0  0  0  0  0  0  0  0  0  0  0
    5.6857  -18.3291   22.6963 C   0  0  0  0  0  0  0  0  0  0  0  0
    4.7042  -18.7534   23.3379 O   0  0  0  0  0  0  0  0  0  0  0  0
    6.4552  -17.2769   23.2445 N   0  0  0  0  0  0  0  0  0  0  0  0
    6.1416  -16.6999   24.5511 C   0  0  0  0  0  0  0  0  0  0  0  0
    7.0710  -15.5791   24.8185 C   0  0  0  0  0  0  0  0  0  0  0  0
    8.0706  -15.3876   24.0821 O   0  0  0  0  0  0  0  0  0  0  0  0
    6.0960  -11.7791   25.8836 C   0  0  0  0  0  0  0  0  0  0  0  0
    6.9521  -12.5104   26.8587 C   0  0  1  0  0  0  0  0  0  0  0  0
    6.1550  -13.0692   27.8843 O   0  0  0  0  0  0  0  0  0  0  0  0
    7.7297  -13.6514   26.2613 C   0  0  2  0  0  0  0  0  0  0  0  0
    6.8302  -14.7102   25.9199 N   0  0  0  0  0  0  0  0  0  0  0  0
    8.8032  -14.0827   27.1933 C   0  0  0  0  0  0  0  0  0  0  0  0
    8.8671  -15.3502   27.7396 O   0  0  0  0  0  0  0  0  0  0  0  0
    9.6812  -13.2549   27.4890 O   0  0  0  0  0  0  0  0  0  0  0  0
  2  1  1  0
  3  2  1  0
  3  4  1  1
  5  6  2  0
  5  3  1  0
  7  5  1  0
  8  7  1  0
  9 15  1  0
  9  8  1  0
 10  9  2  0
 12 13  1  0
 12 11  1  6
 14 15  1  1
 14 12  1  0
 16 14  1  0
 17 16  1  0
 18 16  2  0
M  END
$$$$
