SGT.pdb
     RDKit          3D

 18 17  0  0  1  0  0  0  0  0999 V2000
    8.0392  -17.9950   19.3632 O   0  0  0  0  0  0  0  0  0  0  0  0
    9.1220  -18.3402   20.1728 C   0  0  0  0  0  0  0  0  0  0  0  0
    8.7512  -17.9608   21.6026 C   0  0  2  0  0  0  0  0  0  0  0  0
    7.4410  -18.4780   21.8800 N   0  0  0  0  0  0  0  0  0  0  0  0
    8.7783  -16.5020   21.7952 C   0  0  0  0  0  0  0  0  0  0  0  0
    9.8532  -15.8831   21.6668 O   0  0  0  0  0  0  0  0  0  0  0  0
    7.6095  -15.7770   22.1242 N   0  0  0  0  0  0  0  0  0  0  0  0
    7.6226  -14.3201   22.2493 C   0  0  0  0  0  0  0  0  0  0  0  0
    8.2208  -13.9538   23.5529 C   0  0  0  0  0  0  0  0  0  0  0  0
    9.4306  -13.6247   23.6316 O   0  0  0  0  0  0  0  0  0  0  0  0
    6.6653  -11.2937   25.9734 C   0  0  0  0  0  0  0  0  0  0  0  0
    6.8407  -12.6240   26.6200 C   0  0  1  0  0  0  0  0  0  0  0  0
    5.6368  -13.3623   26.5510 O   0  0  0  0  0  0  0  0  0  0  0  0
    7.8987  -13.4837   25.9834 C   0  0  2  0  0  0  0  0  0  0  0  0
    7.4182  -13.9744   24.7284 N   0  0  0  0  0  0  0  0  0  0  0  0
    8.3028  -14.5701   26.9125 C   0  0  0  0  0  0  0  0  0  0  0  0
    8.8554  -14.3353   28.1569 O   0  0  0  0  0  0  0  0  0  0  0  0
    8.1310  -15.7435   26.5419 O   0  0  0  0  0  0  0  0  0  0  0  0
  2  1  1  0
  3  2  1  0
  3  4  1  6
  5  6  2  0
  5  3  1  0
  7  5  1  0
  8  7  1  0
  9 15  1  0
  9  8  1  0
 10  9  2  0
 12 13  1  0
 12 11  1  6
 14 15  1  6
 14 12  1  0
 16 14  1  0
 17 16  1  0
 18 16  2  0
M  END
$$$$
