SGT.pdb
     RDKit          3D

 18 17  0  0  1  0  0  0  0  0999 V2000
    4.9962  -20.0473   21.3439 O   0  0  0  0  0  0  0  0  0  0  0  0
    5.0355  -18.6571   21.2294 C   0  0  0  0  0  0  0  0  0  0  0  0
    5.8025  -18.1298   22.4375 C   0  0  2  0  0  0  0  0  0  0  0  0
    4.8505  -17.6914   23.4186 N   0  0  0  0  0  0  0  0  0  0  0  0
    6.6994  -17.0246   22.0633 C   0  0  0  0  0  0  0  0  0  0  0  0
    7.8224  -17.2775   21.5837 O   0  0  0  0  0  0  0  0  0  0  0  0
    6.3198  -15.6731   22.2340 N   0  0  0  0  0  0  0  0  0  0  0  0
    7.1932  -14.5751   21.8218 C   0  0  0  0  0  0  0  0  0  0  0  0
    7.8363  -13.9944   23.0220 C   0  0  0  0  0  0  0  0  0  0  0  0
    8.6653  -13.0568   22.9131 O   0  0  0  0  0  0  0  0  0  0  0  0
    6.5168  -12.1266   25.9118 C   0  0  0  0  0  0  0  0  0  0  0  0
    7.0848  -13.4136   26.4012 C   0  0  1  0  0  0  0  0  0  0  0  0
    6.0644  -14.3861   26.5121 O   0  0  0  0  0  0  0  0  0  0  0  0
    8.1344  -14.0058   25.5005 C   0  0  2  0  0  0  0  0  0  0  0  0
    7.5128  -14.5027   24.3117 N   0  0  0  0  0  0  0  0  0  0  0  0
    8.9052  -15.0466   26.2281 C   0  0  0  0  0  0  0  0  0  0  0  0
    8.9202  -16.3768   25.8549 O   0  0  0  0  0  0  0  0  0  0  0  0
    9.5652  -14.6921   27.2194 O   0  0  0  0  0  0  0  0  0  0  0  0
  2  1  1  0
  3  2  1  0
  3  4  1  1
  5  6  2  0
  5  3  1  0
  7  5  1  0
  8  7  1  0
  9 15  1  0
  9  8  1  0
 10  9  2  0
 12 13  1  0
 12 11  1  6
 14 15  1  6
 14 12  1  0
 16 14  1  0
 17 16  1  0
 18 16  2  0
M  END
$$$$
