SGT.pdb
     RDKit          3D

 18 17  0  0  1  0  0  0  0  0999 V2000
    9.3645  -16.9269   18.3723 O   0  0  0  0  0  0  0  0  0  0  0  0
    9.5385  -17.8843   19.3724 C   0  0  0  0  0  0  0  0  0  0  0  0
   10.1761  -17.1769   20.5636 C   0  0  2  0  0  0  0  0  0  0  0  0
   10.4622  -18.1597   21.5703 N   0  0  0  0  0  0  0  0  0  0  0  0
    9.2919  -16.1317   21.1035 C   0  0  0  0  0  0  0  0  0  0  0  0
    9.1911  -15.0410   20.5075 O   0  0  0  0  0  0  0  0  0  0  0  0
    8.5474  -16.3318   22.2890 N   0  0  0  0  0  0  0  0  0  0  0  0
    7.6041  -15.3275   22.7790 C   0  0  0  0  0  0  0  0  0  0  0  0
    8.1525  -14.7101   24.0076 C   0  0  0  0  0  0  0  0  0  0  0  0
    9.3579  -14.8727   24.3218 O   0  0  0  0  0  0  0  0  0  0  0  0
    6.5406  -11.1151   25.7124 C   0  0  0  0  0  0  0  0  0  0  0  0
    6.7395  -12.3366   26.5411 C   0  0  1  0  0  0  0  0  0  0  0  0
    5.5417  -13.0857   26.6010 O   0  0  0  0  0  0  0  0  0  0  0  0
    7.7948  -13.2719   26.0164 C   0  0  2  0  0  0  0  0  0  0  0  0
    7.3067  -13.9250   24.8409 N   0  0  0  0  0  0  0  0  0  0  0  0
    8.2077  -14.2252   27.0782 C   0  0  0  0  0  0  0  0  0  0  0  0
    8.8810  -13.8396   28.2215 O   0  0  0  0  0  0  0  0  0  0  0  0
    7.9286  -15.4255   26.9200 O   0  0  0  0  0  0  0  0  0  0  0  0
  2  1  1  0
  3  2  1  0
  3  4  1  1
  5  6  2  0
  5  3  1  0
  7  5  1  0
  8  7  1  0
  9 15  1  0
  9  8  1  0
 10  9  2  0
 12 13  1  0
 12 11  1  6
 14 15  1  6
 14 12  1  0
 16 14  1  0
 17 16  1  0
 18 16  2  0
M  END
$$$$
