SGT.pdb
     RDKit          3D

 18 17  0  0  1  0  0  0  0  0999 V2000
    9.2046  -17.2188   18.1566 O   0  0  0  0  0  0  0  0  0  0  0  0
    7.8349  -16.9551   18.1158 C   0  0  0  0  0  0  0  0  0  0  0  0
    7.6210  -15.8564   17.0799 C   0  0  2  0  0  0  0  0  0  0  0  0
    8.0970  -16.3341   15.8125 N   0  0  0  0  0  0  0  0  0  0  0  0
    8.3215  -14.6185   17.4578 C   0  0  0  0  0  0  0  0  0  0  0  0
    9.3963  -14.3232   16.8987 O   0  0  0  0  0  0  0  0  0  0  0  0
    7.8052  -13.7479   18.4452 N   0  0  0  0  0  0  0  0  0  0  0  0
    8.4804  -12.4979   18.7920 C   0  0  0  0  0  0  0  0  0  0  0  0
    9.0620  -12.6245   20.1474 C   0  0  0  0  0  0  0  0  0  0  0  0
    9.6664  -11.6588   20.6768 O   0  0  0  0  0  0  0  0  0  0  0  0
    7.3058  -13.0759   23.2272 C   0  0  0  0  0  0  0  0  0  0  0  0
    8.2328  -14.2362   23.1147 C   0  0  1  0  0  0  0  0  0  0  0  0
    7.5472  -15.3600   22.5984 O   0  0  0  0  0  0  0  0  0  0  0  0
    9.4049  -14.0021   22.2008 C   0  0  2  0  0  0  0  0  0  0  0  0
    8.9356  -13.8515   20.8578 N   0  0  0  0  0  0  0  0  0  0  0  0
   10.3956  -15.0993   22.3475 C   0  0  0  0  0  0  0  0  0  0  0  0
   11.0587  -15.3673   23.5297 O   0  0  0  0  0  0  0  0  0  0  0  0
   10.6315  -15.8041   21.3519 O   0  0  0  0  0  0  0  0  0  0  0  0
  2  1  1  0
  3  2  1  0
  3  4  1  6
  5  6  2  0
  5  3  1  0
  7  5  1  0
  8  7  1  0
  9 15  1  0
  9  8  1  0
 10  9  2  0
 12 13  1  0
 12 11  1  6
 14 15  1  6
 14 12  1  0
 16 14  1  0
 17 16  1  0
 18 16  2  0
M  END
$$$$
