SGT.pdb
     RDKit          3D

 18 17  0  0  1  0  0  0  0  0999 V2000
    7.7201  -17.8699   19.0770 O   0  0  0  0  0  0  0  0  0  0  0  0
    8.6256  -16.8421   18.8103 C   0  0  0  0  0  0  0  0  0  0  0  0
    9.3246  -16.5089   20.1241 C   0  0  2  0  0  0  0  0  0  0  0  0
    9.8829  -17.7197   20.6565 N   0  0  0  0  0  0  0  0  0  0  0  0
    8.3926  -15.9055   21.0901 C   0  0  0  0  0  0  0  0  0  0  0  0
    7.8862  -14.7925   20.8454 O   0  0  0  0  0  0  0  0  0  0  0  0
    8.0529  -16.5582   22.2977 N   0  0  0  0  0  0  0  0  0  0  0  0
    7.1116  -15.9675   23.2482 C   0  0  0  0  0  0  0  0  0  0  0  0
    7.8462  -15.0466   24.1447 C   0  0  0  0  0  0  0  0  0  0  0  0
    9.0864  -14.8884   24.0221 O   0  0  0  0  0  0  0  0  0  0  0  0
    6.3931  -11.3857   25.6748 C   0  0  0  0  0  0  0  0  0  0  0  0
    6.7976  -12.4671   26.6158 C   0  0  1  0  0  0  0  0  0  0  0  0
    5.6716  -13.2388   26.9849 O   0  0  0  0  0  0  0  0  0  0  0  0
    7.8022  -13.4331   26.0490 C   0  0  2  0  0  0  0  0  0  0  0  0
    7.1414  -14.3335   25.1551 N   0  0  0  0  0  0  0  0  0  0  0  0
    8.5180  -14.1308   27.1480 C   0  0  0  0  0  0  0  0  0  0  0  0
    8.5045  -15.5031   27.3087 O   0  0  0  0  0  0  0  0  0  0  0  0
    9.1568  -13.4364   27.9563 O   0  0  0  0  0  0  0  0  0  0  0  0
  2  1  1  0
  3  2  1  0
  3  4  1  1
  5  6  2  0
  5  3  1  0
  7  5  1  0
  8  7  1  0
  9 15  1  0
  9  8  1  0
 10  9  2  0
 12 13  1  0
 12 11  1  6
 14 15  1  6
 14 12  1  0
 16 14  1  0
 17 16  1  0
 18 16  2  0
M  END
$$$$
