SGT.pdb
     RDKit          3D

 18 17  0  0  1  0  0  0  0  0999 V2000
    9.8337  -19.3748   19.2975 O   0  0  0  0  0  0  0  0  0  0  0  0
    8.8758  -18.9259   20.2076 C   0  0  0  0  0  0  0  0  0  0  0  0
    8.7732  -17.4135   20.0403 C   0  0  2  0  0  0  0  0  0  0  0  0
   10.0678  -16.8445   20.2882 N   0  0  0  0  0  0  0  0  0  0  0  0
    7.7759  -16.8384   20.9571 C   0  0  0  0  0  0  0  0  0  0  0  0
    6.5646  -17.0725   20.7759 O   0  0  0  0  0  0  0  0  0  0  0  0
    8.1565  -16.0211   22.0466 N   0  0  0  0  0  0  0  0  0  0  0  0
    7.1650  -15.4453   22.9543 C   0  0  0  0  0  0  0  0  0  0  0  0
    7.8651  -14.6712   24.0041 C   0  0  0  0  0  0  0  0  0  0  0  0
    9.1202  -14.6317   24.0399 O   0  0  0  0  0  0  0  0  0  0  0  0
    6.3768  -11.1265   25.7263 C   0  0  0  0  0  0  0  0  0  0  0  0
    6.7387  -12.2599   26.6224 C   0  0  1  0  0  0  0  0  0  0  0  0
    5.5895  -13.0238   26.9310 O   0  0  0  0  0  0  0  0  0  0  0  0
    7.7352  -13.2193   26.0306 C   0  0  2  0  0  0  0  0  0  0  0  0
    7.1096  -13.9650   24.9822 N   0  0  0  0  0  0  0  0  0  0  0  0
    8.3065  -14.0847   27.0942 C   0  0  0  0  0  0  0  0  0  0  0  0
    8.1105  -15.4515   27.1445 O   0  0  0  0  0  0  0  0  0  0  0  0
    8.9926  -13.5422   27.9767 O   0  0  0  0  0  0  0  0  0  0  0  0
  2  1  1  0
  3  2  1  0
  3  4  1  1
  5  6  2  0
  5  3  1  0
  7  5  1  0
  8  7  1  0
  9 15  1  0
  9  8  1  0
 10  9  2  0
 12 13  1  0
 12 11  1  6
 14 15  1  6
 14 12  1  0
 16 14  1  0
 17 16  1  0
 18 16  2  0
M  END
$$$$
