AKH.pdb
     RDKit          3D

 25 25  0  0  1  0  0  0  0  0999 V2000
   14.5621  -16.9933    4.3166 C   0  0  0  0  0  0  0  0  0  0  0  0
   15.6959  -16.6829    3.3631 C   0  0  2  0  0  0  0  0  0  0  0  0
   15.9416  -17.8352    2.5417 N   0  0  0  0  0  0  0  0  0  0  0  0
   16.8947  -16.3312    4.1715 C   0  0  0  0  0  0  0  0  0  0  0  0
   17.7462  -17.2143    4.4138 O   0  0  0  0  0  0  0  0  0  0  0  0
   17.0880  -15.0249    4.6680 N   0  0  0  0  0  0  0  0  0  0  0  0
   18.2507  -14.7871    5.5444 C   0  0  1  0  0  0  0  0  0  0  0  0
   18.4805  -13.2799    5.5781 C   0  0  0  0  0  0  0  0  0  0  0  0
   19.6694  -12.9608    6.4049 C   0  0  0  0  0  0  0  0  0  0  0  0
   19.8824  -11.4404    6.4176 C   0  0  0  0  0  0  0  0  0  0  0  0
   21.0937  -11.1473    7.2536 C   0  0  0  0  0  0  0  0  0  0  0  0
   21.3286   -9.7057    7.2462 N   0  0  0  0  0  0  0  0  0  0  0  0
   17.9761  -15.2890    6.8906 C   0  0  0  0  0  0  0  0  0  0  0  0
   16.8141  -15.2865    7.4097 O   0  0  0  0  0  0  0  0  0  0  0  0
   18.9971  -15.8155    7.6907 N   0  0  0  0  0  0  0  0  0  0  0  0
   18.6905  -16.5643    8.8937 C   0  0  1  0  0  0  0  0  0  0  0  0
   17.8790  -17.7497    8.4172 C   0  0  0  0  0  0  0  0  0  0  0  0
   17.4134  -18.6021    9.5045 C   0  0  0  0  0  0  0  0  0  0  0  0
   17.6695  -18.3799   10.8458 C   0  0  0  0  0  0  0  0  0  0  0  0
   17.0745  -19.3777   11.5149 N   0  0  0  0  0  0  0  0  0  0  0  0
   16.4764  -20.1810   10.6179 C   0  0  0  0  0  0  0  0  0  0  0  0
   16.6765  -19.7157    9.3731 N   0  0  0  0  0  0  0  0  0  0  0  0
   19.8518  -17.0290    9.6273 C   0  0  0  0  0  0  0  0  0  0  0  0
   19.6567  -17.7087   10.6681 O   0  0  0  0  0  0  0  0  0  0  0  0
   21.1844  -16.8032    9.3026 O   0  0  0  0  0  0  0  0  0  0  0  0
  2  1  1  1
  2  4  1  0
  3  2  1  0
  4  6  1  0
  4  5  2  0
  6  7  1  0
  7 13  1  0
  7  8  1  1
  8  9  1  0
 10  9  1  0
 10 11  1  0
 11 12  1  0
 13 14  2  0
 15 13  1  0
 15 16  1  0
 16 23  1  0
 16 17  1  6
 18 17  1  0
 19 18  2  0
 20 19  1  0
 21 20  1  0
 21 22  2  0
 22 18  1  0
 23 25  1  0
 24 23  2  0
M  END
$$$$
