AKH.pdb
     RDKit          3D

 25 25  0  0  1  0  0  0  0  0999 V2000
   16.5609  -10.8866  -16.6235 C   0  0  0  0  0  0  0  0  0  0  0  0
   17.4365  -10.7743  -15.3940 C   0  0  2  0  0  0  0  0  0  0  0  0
   17.5634  -12.0727  -14.7931 N   0  0  0  0  0  0  0  0  0  0  0  0
   16.7977   -9.8079  -14.4599 C   0  0  0  0  0  0  0  0  0  0  0  0
   16.6739   -8.6139  -14.8101 O   0  0  0  0  0  0  0  0  0  0  0  0
   16.3308  -10.2119  -13.1915 N   0  0  0  0  0  0  0  0  0  0  0  0
   15.7249   -9.1852  -12.3224 C   0  0  1  0  0  0  0  0  0  0  0  0
   14.6495   -9.8818  -11.4954 C   0  0  0  0  0  0  0  0  0  0  0  0
   13.9714   -8.9054  -10.6090 C   0  0  0  0  0  0  0  0  0  0  0  0
   12.8297   -9.6094   -9.8620 C   0  0  0  0  0  0  0  0  0  0  0  0
   12.0813   -8.5743   -9.0743 C   0  0  0  0  0  0  0  0  0  0  0  0
   10.9242   -9.2096   -8.4492 N   0  0  0  0  0  0  0  0  0  0  0  0
   16.7422   -8.6043  -11.4464 C   0  0  0  0  0  0  0  0  0  0  0  0
   17.4973   -9.3045  -10.6985 O   0  0  0  0  0  0  0  0  0  0  0  0
   16.9465   -7.2206  -11.3901 N   0  0  0  0  0  0  0  0  0  0  0  0
   17.8858   -6.6433  -10.4486 C   0  0  1  0  0  0  0  0  0  0  0  0
   18.7614   -5.7328  -11.2822 C   0  0  0  0  0  0  0  0  0  0  0  0
   19.6949   -6.4569  -12.1365 C   0  0  0  0  0  0  0  0  0  0  0  0
   19.8989   -7.8247  -12.1001 C   0  0  0  0  0  0  0  0  0  0  0  0
   20.8254   -8.0940  -13.0310 N   0  0  0  0  0  0  0  0  0  0  0  0
   21.1760   -6.9352  -13.6157 C   0  0  0  0  0  0  0  0  0  0  0  0
   20.4871   -5.9160  -13.0748 N   0  0  0  0  0  0  0  0  0  0  0  0
   17.2742   -5.8855   -9.3743 C   0  0  0  0  0  0  0  0  0  0  0  0
   16.0661   -5.5566   -9.5002 O   0  0  0  0  0  0  0  0  0  0  0  0
   17.8857   -5.4730   -8.1961 O   0  0  0  0  0  0  0  0  0  0  0  0
  2  1  1  6
  2  4  1  0
  3  2  1  0
  4  6  1  0
  4  5  2  0
  6  7  1  0
  7 13  1  0
  7  8  1  1
  8  9  1  0
 10  9  1  0
 10 11  1  0
 11 12  1  0
 13 14  2  0
 15 13  1  0
 15 16  1  0
 16 23  1  0
 16 17  1  6
 18 17  1  0
 19 18  2  0
 20 19  1  0
 21 20  1  0
 21 22  2  0
 22 18  1  0
 23 25  1  0
 24 23  2  0
M  END
$$$$
