AKH.pdb
     RDKit          3D

 25 25  0  0  1  0  0  0  0  0999 V2000
   23.7393  -17.1397  -19.5532 C   0  0  0  0  0  0  0  0  0  0  0  0
   24.9238  -17.6213  -18.7434 C   0  0  2  0  0  0  0  0  0  0  0  0
   25.8958  -18.1910  -19.6343 N   0  0  0  0  0  0  0  0  0  0  0  0
   24.4336  -18.6290  -17.7643 C   0  0  0  0  0  0  0  0  0  0  0  0
   23.2308  -18.9699  -17.7920 O   0  0  0  0  0  0  0  0  0  0  0  0
   25.2970  -19.2048  -16.8087 N   0  0  0  0  0  0  0  0  0  0  0  0
   24.7389  -20.2302  -15.9067 C   0  0  1  0  0  0  0  0  0  0  0  0
   25.9041  -21.1013  -15.4497 C   0  0  0  0  0  0  0  0  0  0  0  0
   26.4098  -21.9162  -16.5807 C   0  0  0  0  0  0  0  0  0  0  0  0
   27.5830  -22.7799  -16.0961 C   0  0  0  0  0  0  0  0  0  0  0  0
   28.2082  -23.4304  -17.2952 C   0  0  0  0  0  0  0  0  0  0  0  0
   29.4250  -24.1185  -16.8720 N   0  0  0  0  0  0  0  0  0  0  0  0
   24.0998  -19.5927  -14.7557 C   0  0  0  0  0  0  0  0  0  0  0  0
   24.3952  -18.4205  -14.3576 O   0  0  0  0  0  0  0  0  0  0  0  0
   23.1046  -20.2499  -14.0225 N   0  0  0  0  0  0  0  0  0  0  0  0
   21.9316  -19.5386  -13.5536 C   0  0  1  0  0  0  0  0  0  0  0  0
   21.7118  -18.4390  -14.5701 C   0  0  0  0  0  0  0  0  0  0  0  0
   20.6048  -17.5537  -14.2292 C   0  0  0  0  0  0  0  0  0  0  0  0
   19.8638  -17.6305  -13.0634 C   0  0  0  0  0  0  0  0  0  0  0  0
   18.9504  -16.6514  -13.1305 N   0  0  0  0  0  0  0  0  0  0  0  0
   19.1249  -15.9993  -14.2931 C   0  0  0  0  0  0  0  0  0  0  0  0
   20.1419  -16.5442  -14.9821 N   0  0  0  0  0  0  0  0  0  0  0  0
   20.7360  -20.3519  -13.4459 C   0  0  0  0  0  0  0  0  0  0  0  0
   20.0542  -20.2588  -12.3923 O   0  0  0  0  0  0  0  0  0  0  0  0
   20.2483  -21.2415  -14.3961 O   0  0  0  0  0  0  0  0  0  0  0  0
  2  1  1  6
  2  4  1  0
  3  2  1  0
  4  6  1  0
  4  5  2  0
  6  7  1  0
  7 13  1  0
  7  8  1  1
  8  9  1  0
 10  9  1  0
 10 11  1  0
 11 12  1  0
 13 14  2  0
 15 13  1  0
 15 16  1  0
 16 23  1  0
 16 17  1  6
 18 17  1  0
 19 18  2  0
 20 19  1  0
 21 20  1  0
 21 22  2  0
 22 18  1  0
 23 25  1  0
 24 23  2  0
M  END
$$$$
