AKH.pdb
     RDKit          3D

 25 25  0  0  1  0  0  0  0  0999 V2000
   18.9223  -12.1516  -17.0263 C   0  0  0  0  0  0  0  0  0  0  0  0
   20.3809  -12.5526  -17.0765 C   0  0  2  0  0  0  0  0  0  0  0  0
   20.5308  -13.8410  -16.4597 N   0  0  0  0  0  0  0  0  0  0  0  0
   21.1691  -11.5153  -16.3572 C   0  0  0  0  0  0  0  0  0  0  0  0
   20.7846  -11.1306  -15.2312 O   0  0  0  0  0  0  0  0  0  0  0  0
   22.3375  -10.9598  -16.9196 N   0  0  0  0  0  0  0  0  0  0  0  0
   23.1004   -9.9940  -16.1062 C   0  0  1  0  0  0  0  0  0  0  0  0
   24.5685  -10.1556  -16.4859 C   0  0  0  0  0  0  0  0  0  0  0  0
   25.1126  -11.4087  -15.9093 C   0  0  0  0  0  0  0  0  0  0  0  0
   26.5961  -11.5348  -16.2842 C   0  0  0  0  0  0  0  0  0  0  0  0
   27.1223  -12.8039  -15.6804 C   0  0  0  0  0  0  0  0  0  0  0  0
   28.5329  -12.9395  -16.0341 N   0  0  0  0  0  0  0  0  0  0  0  0
   22.6497   -8.6317  -16.3897 C   0  0  0  0  0  0  0  0  0  0  0  0
   22.2465   -8.2577  -17.5375 O   0  0  0  0  0  0  0  0  0  0  0  0
   22.6314   -7.6510  -15.3908 N   0  0  0  0  0  0  0  0  0  0  0  0
   22.1498   -6.3122  -15.6690 C   0  0  1  0  0  0  0  0  0  0  0  0
   20.6889   -6.4905  -16.0222 C   0  0  0  0  0  0  0  0  0  0  0  0
   20.0160   -5.2358  -16.3359 C   0  0  0  0  0  0  0  0  0  0  0  0
   19.2057   -4.5350  -15.4604 C   0  0  0  0  0  0  0  0  0  0  0  0
   18.7842   -3.4482  -16.1225 N   0  0  0  0  0  0  0  0  0  0  0  0
   19.3158   -3.4814  -17.3569 C   0  0  0  0  0  0  0  0  0  0  0  0
   20.0783   -4.5783  -17.5039 N   0  0  0  0  0  0  0  0  0  0  0  0
   22.2762   -5.3836  -14.5625 C   0  0  0  0  0  0  0  0  0  0  0  0
   22.3842   -5.8611  -13.4033 O   0  0  0  0  0  0  0  0  0  0  0  0
   22.2920   -3.9958  -14.6406 O   0  0  0  0  0  0  0  0  0  0  0  0
  2  1  1  1
  2  4  1  0
  3  2  1  0
  4  6  1  0
  4  5  2  0
  6  7  1  0
  7 13  1  0
  7  8  1  6
  8  9  1  0
 10  9  1  0
 10 11  1  0
 11 12  1  0
 13 14  2  0
 15 13  1  0
 15 16  1  0
 16 23  1  0
 16 17  1  1
 18 17  1  0
 19 18  2  0
 20 19  1  0
 21 20  1  0
 21 22  2  0
 22 18  1  0
 23 25  1  0
 24 23  2  0
M  END
$$$$
