AKH.pdb
     RDKit          3D

 25 25  0  0  1  0  0  0  0  0999 V2000
   16.6598  -14.1263  -17.4521 C   0  0  0  0  0  0  0  0  0  0  0  0
   17.6407  -14.3752  -18.5777 C   0  0  2  0  0  0  0  0  0  0  0  0
   18.2615  -15.6551  -18.3793 N   0  0  0  0  0  0  0  0  0  0  0  0
   18.6472  -13.2792  -18.5625 C   0  0  0  0  0  0  0  0  0  0  0  0
   19.6202  -13.3570  -17.7810 O   0  0  0  0  0  0  0  0  0  0  0  0
   18.5248  -12.1583  -19.4103 N   0  0  0  0  0  0  0  0  0  0  0  0
   19.5979  -11.1465  -19.3720 C   0  0  1  0  0  0  0  0  0  0  0  0
   19.4990  -10.3452  -20.6658 C   0  0  0  0  0  0  0  0  0  0  0  0
   20.0000  -11.1492  -21.8066 C   0  0  0  0  0  0  0  0  0  0  0  0
   19.9074  -10.3147  -23.0919 C   0  0  0  0  0  0  0  0  0  0  0  0
   20.4142  -11.1532  -24.2286 C   0  0  0  0  0  0  0  0  0  0  0  0
   20.2792  -10.3914  -25.4674 N   0  0  0  0  0  0  0  0  0  0  0  0
   19.4193  -10.2682  -18.2161 C   0  0  0  0  0  0  0  0  0  0  0  0
   18.3491  -10.2337  -17.5281 O   0  0  0  0  0  0  0  0  0  0  0  0
   20.4401   -9.4081  -17.7940 N   0  0  0  0  0  0  0  0  0  0  0  0
   20.3093   -8.6390  -16.5721 C   0  0  1  0  0  0  0  0  0  0  0  0
   20.1267   -9.6715  -15.4807 C   0  0  0  0  0  0  0  0  0  0  0  0
   20.0304   -9.0885  -14.1479 C   0  0  0  0  0  0  0  0  0  0  0  0
   18.8613   -8.6218  -13.5739 C   0  0  0  0  0  0  0  0  0  0  0  0
   19.1922   -8.1691  -12.3561 N   0  0  0  0  0  0  0  0  0  0  0  0
   20.5138   -8.3512  -12.1900 C   0  0  0  0  0  0  0  0  0  0  0  0
   21.0451   -8.9175  -13.2869 N   0  0  0  0  0  0  0  0  0  0  0  0
   21.4493   -7.7974  -16.2642 C   0  0  0  0  0  0  0  0  0  0  0  0
   22.5212   -8.0074  -16.8889 O   0  0  0  0  0  0  0  0  0  0  0  0
   21.4915   -6.7629  -15.3367 O   0  0  0  0  0  0  0  0  0  0  0  0
  2  1  1  1
  2  4  1  0
  3  2  1  0
  4  6  1  0
  4  5  2  0
  6  7  1  0
  7 13  1  0
  7  8  1  6
  8  9  1  0
 10  9  1  0
 10 11  1  0
 11 12  1  0
 13 14  2  0
 15 13  1  0
 15 16  1  0
 16 23  1  0
 16 17  1  1
 18 17  1  0
 19 18  2  0
 20 19  1  0
 21 20  1  0
 21 22  2  0
 22 18  1  0
 23 25  1  0
 24 23  2  0
M  END
$$$$
