WQV.pdb
     RDKit          3D

 31 32  0  0  1  0  0  0  0  0999 V2000
    8.7341  -17.6764   21.0524 N   0  0  0  0  0  0  0  0  0  0  0  0
    9.0076  -16.6168   21.9957 C   0  0  1  0  0  0  0  0  0  0  0  0
    7.7329  -15.9498   22.4489 C   0  0  0  0  0  0  0  0  0  0  0  0
    7.1220  -15.2869   21.2710 C   0  0  0  0  0  0  0  0  0  0  0  0
    6.0526  -15.7089   20.5185 C   0  0  0  0  0  0  0  0  0  0  0  0
    5.8223  -14.8208   19.5473 N   0  0  0  0  0  0  0  0  0  0  0  0
    6.7118  -13.7948   19.6151 C   0  0  0  0  0  0  0  0  0  0  0  0
    6.9057  -12.6434   18.8629 C   0  0  0  0  0  0  0  0  0  0  0  0
    7.9250  -11.7670   19.1879 C   0  0  0  0  0  0  0  0  0  0  0  0
    8.7369  -12.0688   20.2736 C   0  0  0  0  0  0  0  0  0  0  0  0
    8.5312  -13.2181   21.0120 C   0  0  0  0  0  0  0  0  0  0  0  0
    7.5224  -14.0873   20.6917 C   0  0  0  0  0  0  0  0  0  0  0  0
    9.6122  -17.2539   23.2206 C   0  0  0  0  0  0  0  0  0  0  0  0
    8.8777  -17.8309   24.0456 O   0  0  0  0  0  0  0  0  0  0  0  0
   15.0089  -18.2549   22.1785 N   0  0  0  0  0  0  0  0  0  0  0  0
   13.7971  -18.9789   22.0779 C   0  0  0  0  0  0  0  0  0  0  0  0
   13.3679  -19.4276   20.9873 O   0  0  0  0  0  0  0  0  0  0  0  0
   12.9791  -19.2328   23.2982 C   0  0  0  0  0  0  0  0  0  0  0  0
   13.0926  -18.1077   24.2905 C   0  0  0  0  0  0  0  0  0  0  0  0
   11.7175  -17.5181   24.5100 C   0  0  2  0  0  0  0  0  0  0  0  0
   10.9988  -17.1470   23.3453 N   0  0  0  0  0  0  0  0  0  0  0  0
   11.5867  -16.5618   25.5793 C   0  0  0  0  0  0  0  0  0  0  0  0
   12.3864  -15.5635   25.6001 O   0  0  0  0  0  0  0  0  0  0  0  0
    9.4058  -13.8383   28.8972 C   0  0  0  0  0  0  0  0  0  0  0  0
    9.4224  -14.8149   27.7692 C   0  0  1  0  0  0  0  0  0  0  0  0
    9.2385  -14.0964   26.4596 C   0  0  0  0  0  0  0  0  0  0  0  0
   10.6869  -15.6405   27.7106 C   0  0  2  0  0  0  0  0  0  0  0  0
   10.6393  -16.6157   26.6362 N   0  0  0  0  0  0  0  0  0  0  0  0
   10.8555  -16.3476   29.0039 C   0  0  0  0  0  0  0  0  0  0  0  0
   11.4272  -15.7347   30.1063 O   0  0  0  0  0  0  0  0  0  0  0  0
   10.4773  -17.5394   29.1322 O   0  0  0  0  0  0  0  0  0  0  0  0
  2  1  1  6
  3  4  1  0
  3  2  1  0
  4  5  2  0
  6  5  1  0
  7  6  1  0
  8  7  2  0
  9  8  1  0
 10  9  2  0
 10 11  1  0
 11 12  2  0
 12  7  1  0
 12  4  1  0
 13  2  1  0
 13 14  2  0
 16 15  1  0
 16 17  2  0
 18 19  1  0
 18 16  1  0
 20 19  1  6
 20 21  1  0
 21 13  1  0
 22 28  1  0
 22 20  1  0
 23 22  2  0
 25 24  1  1
 26 25  1  0
 27 25  1  0
 27 29  1  0
 27 28  1  6
 29 30  1  0
 31 29  2  0
M  END
$$$$
