WQV.pdb
     RDKit          3D

 31 32  0  0  1  0  0  0  0  0999 V2000
    6.8402  -17.6985   21.5663 N   0  0  0  0  0  0  0  0  0  0  0  0
    7.5477  -16.7201   22.3598 C   0  0  1  0  0  0  0  0  0  0  0  0
    6.6152  -16.0170   23.3144 C   0  0  0  0  0  0  0  0  0  0  0  0
    6.9351  -14.5691   23.2803 C   0  0  0  0  0  0  0  0  0  0  0  0
    7.4285  -13.8327   22.2304 C   0  0  0  0  0  0  0  0  0  0  0  0
    7.5753  -12.5622   22.6167 N   0  0  0  0  0  0  0  0  0  0  0  0
    7.1928  -12.4078   23.9123 C   0  0  0  0  0  0  0  0  0  0  0  0
    7.1480  -11.3203   24.7750 C   0  0  0  0  0  0  0  0  0  0  0  0
    6.6974  -11.4834   26.0723 C   0  0  0  0  0  0  0  0  0  0  0  0
    6.2969  -12.7493   26.4802 C   0  0  0  0  0  0  0  0  0  0  0  0
    6.3474  -13.8210   25.6100 C   0  0  0  0  0  0  0  0  0  0  0  0
    6.7934  -13.6616   24.3249 C   0  0  0  0  0  0  0  0  0  0  0  0
    8.5413  -17.4685   23.2107 C   0  0  0  0  0  0  0  0  0  0  0  0
    8.1913  -18.5074   23.8034 O   0  0  0  0  0  0  0  0  0  0  0  0
   14.3846  -18.5965   21.9096 N   0  0  0  0  0  0  0  0  0  0  0  0
   13.9485  -17.2518   21.8432 C   0  0  0  0  0  0  0  0  0  0  0  0
   14.5679  -16.3730   21.1960 O   0  0  0  0  0  0  0  0  0  0  0  0
   12.7093  -16.8357   22.5599 C   0  0  0  0  0  0  0  0  0  0  0  0
   12.0781  -17.9852   23.2973 C   0  0  0  0  0  0  0  0  0  0  0  0
   10.8759  -17.4692   24.0559 C   0  0  2  0  0  0  0  0  0  0  0  0
    9.8256  -16.9241   23.2746 N   0  0  0  0  0  0  0  0  0  0  0  0
   11.1420  -16.7076   25.2492 C   0  0  0  0  0  0  0  0  0  0  0  0
   12.1712  -15.9478   25.2659 O   0  0  0  0  0  0  0  0  0  0  0  0
   10.3798  -14.4705   29.4875 C   0  0  0  0  0  0  0  0  0  0  0  0
    9.8999  -15.1038   28.2245 C   0  0  1  0  0  0  0  0  0  0  0  0
    9.6123  -14.0471   27.1922 C   0  0  0  0  0  0  0  0  0  0  0  0
   10.8728  -16.1080   27.6511 C   0  0  2  0  0  0  0  0  0  0  0  0
   10.3609  -16.7144   26.4355 N   0  0  0  0  0  0  0  0  0  0  0  0
   11.1148  -17.1681   28.6604 C   0  0  0  0  0  0  0  0  0  0  0  0
   12.0782  -17.0364   29.6464 O   0  0  0  0  0  0  0  0  0  0  0  0
   10.4403  -18.2285   28.6445 O   0  0  0  0  0  0  0  0  0  0  0  0
  2  1  1  1
  3  4  1  0
  3  2  1  0
  4  5  2  0
  6  5  1  0
  7  6  1  0
  8  7  2  0
  9  8  1  0
 10  9  2  0
 10 11  1  0
 11 12  2  0
 12  7  1  0
 12  4  1  0
 13  2  1  0
 13 14  2  0
 16 15  1  0
 16 17  2  0
 18 19  1  0
 18 16  1  0
 20 19  1  6
 20 21  1  0
 21 13  1  0
 22 28  1  0
 22 20  1  0
 23 22  2  0
 25 24  1  1
 26 25  1  0
 27 25  1  0
 27 29  1  0
 27 28  1  6
 29 30  1  0
 31 29  2  0
M  END
$$$$
