WQV.pdb
     RDKit          3D

 31 32  0  0  1  0  0  0  0  0999 V2000
    6.3115  -17.2868   24.7201 N   0  0  0  0  0  0  0  0  0  0  0  0
    7.4527  -16.4705   24.3756 C   0  0  1  0  0  0  0  0  0  0  0  0
    7.8148  -15.5378   25.5043 C   0  0  0  0  0  0  0  0  0  0  0  0
    6.7176  -14.5502   25.6489 C   0  0  0  0  0  0  0  0  0  0  0  0
    5.3991  -14.7843   25.9565 C   0  0  0  0  0  0  0  0  0  0  0  0
    4.7433  -13.6208   25.9894 N   0  0  0  0  0  0  0  0  0  0  0  0
    5.5834  -12.5889   25.7106 C   0  0  0  0  0  0  0  0  0  0  0  0
    5.4140  -11.2134   25.6181 C   0  0  0  0  0  0  0  0  0  0  0  0
    6.4904  -10.4022   25.3087 C   0  0  0  0  0  0  0  0  0  0  0  0
    7.7280  -10.9959   25.0963 C   0  0  0  0  0  0  0  0  0  0  0  0
    7.8802  -12.3657   25.1920 C   0  0  0  0  0  0  0  0  0  0  0  0
    6.8155  -13.1708   25.4982 C   0  0  0  0  0  0  0  0  0  0  0  0
    8.6277  -17.3974   24.1972 C   0  0  0  0  0  0  0  0  0  0  0  0
    8.6483  -18.4932   24.7903 O   0  0  0  0  0  0  0  0  0  0  0  0
   13.8196  -17.2673   20.2241 N   0  0  0  0  0  0  0  0  0  0  0  0
   12.4359  -17.5422   20.1106 C   0  0  0  0  0  0  0  0  0  0  0  0
   11.8409  -17.5641   19.0059 O   0  0  0  0  0  0  0  0  0  0  0  0
   11.6302  -17.8197   21.3338 C   0  0  0  0  0  0  0  0  0  0  0  0
   11.9615  -16.8658   22.4490 C   0  0  0  0  0  0  0  0  0  0  0  0
   11.0244  -17.1322   23.6055 C   0  0  2  0  0  0  0  0  0  0  0  0
    9.6421  -16.9444   23.3512 N   0  0  0  0  0  0  0  0  0  0  0  0
   11.4309  -16.6357   24.8952 C   0  0  0  0  0  0  0  0  0  0  0  0
   11.7150  -15.3931   25.0037 O   0  0  0  0  0  0  0  0  0  0  0  0
   10.7575  -15.2614   29.1033 C   0  0  0  0  0  0  0  0  0  0  0  0
   10.6376  -15.8312   27.7295 C   0  0  1  0  0  0  0  0  0  0  0  0
   10.5384  -14.7229   26.7161 C   0  0  0  0  0  0  0  0  0  0  0  0
   11.7831  -16.7442   27.3579 C   0  0  2  0  0  0  0  0  0  0  0  0
   11.5509  -17.4023   26.0849 N   0  0  0  0  0  0  0  0  0  0  0  0
   11.9373  -17.7717   28.4170 C   0  0  0  0  0  0  0  0  0  0  0  0
   12.7532  -17.5736   29.5183 O   0  0  0  0  0  0  0  0  0  0  0  0
   11.3211  -18.8643   28.3389 O   0  0  0  0  0  0  0  0  0  0  0  0
  2  1  1  1
  3  4  1  0
  3  2  1  0
  4  5  2  0
  6  5  1  0
  7  6  1  0
  8  7  2  0
  9  8  1  0
 10  9  2  0
 10 11  1  0
 11 12  2  0
 12  7  1  0
 12  4  1  0
 13  2  1  0
 13 14  2  0
 16 15  1  0
 16 17  2  0
 18 19  1  0
 18 16  1  0
 20 19  1  6
 20 21  1  0
 21 13  1  0
 22 28  1  0
 22 20  1  0
 23 22  2  0
 25 24  1  1
 26 25  1  0
 27 25  1  0
 27 29  1  0
 27 28  1  6
 29 30  1  0
 31 29  2  0
M  END
$$$$
