WQV.pdb
     RDKit          3D

 31 32  0  0  1  0  0  0  0  0999 V2000
    7.5331  -18.6155   21.1001 N   0  0  0  0  0  0  0  0  0  0  0  0
    8.0220  -17.3602   21.6224 C   0  0  1  0  0  0  0  0  0  0  0  0
    6.9228  -16.3287   21.6761 C   0  0  0  0  0  0  0  0  0  0  0  0
    6.9976  -15.5184   20.4361 C   0  0  0  0  0  0  0  0  0  0  0  0
    6.6307  -15.8793   19.1621 C   0  0  0  0  0  0  0  0  0  0  0  0
    6.8591  -14.8564   18.3336 N   0  0  0  0  0  0  0  0  0  0  0  0
    7.3763  -13.7971   19.0111 C   0  0  0  0  0  0  0  0  0  0  0  0
    7.7805  -12.5231   18.6334 C   0  0  0  0  0  0  0  0  0  0  0  0
    8.2792  -11.6458   19.5791 C   0  0  0  0  0  0  0  0  0  0  0  0
    8.3624  -12.0713   20.8987 C   0  0  0  0  0  0  0  0  0  0  0  0
    7.9562  -13.3418   21.2584 C   0  0  0  0  0  0  0  0  0  0  0  0
    7.4621  -14.2120   20.3233 C   0  0  0  0  0  0  0  0  0  0  0  0
    8.4457  -17.6040   23.0481 C   0  0  0  0  0  0  0  0  0  0  0  0
    7.5847  -17.8282   23.9208 O   0  0  0  0  0  0  0  0  0  0  0  0
   13.8776  -20.1445   25.0879 N   0  0  0  0  0  0  0  0  0  0  0  0
   13.2846  -19.5552   26.2297 C   0  0  0  0  0  0  0  0  0  0  0  0
   13.7430  -19.7159   27.3869 O   0  0  0  0  0  0  0  0  0  0  0  0
   12.0680  -18.7065   26.0814 C   0  0  0  0  0  0  0  0  0  0  0  0
   11.6475  -18.5800   24.6424 C   0  0  0  0  0  0  0  0  0  0  0  0
   10.3966  -17.7326   24.5785 C   0  0  2  0  0  0  0  0  0  0  0  0
    9.8193  -17.5590   23.2950 N   0  0  0  0  0  0  0  0  0  0  0  0
   10.3920  -16.5255   25.3645 C   0  0  0  0  0  0  0  0  0  0  0  0
   11.1420  -15.5579   24.9927 O   0  0  0  0  0  0  0  0  0  0  0  0
    8.4855  -13.1854   28.3761 C   0  0  0  0  0  0  0  0  0  0  0  0
    8.3999  -14.4512   27.5908 C   0  0  1  0  0  0  0  0  0  0  0  0
    7.6344  -14.2188   26.3160 C   0  0  0  0  0  0  0  0  0  0  0  0
    9.7504  -15.0428   27.2594 C   0  0  2  0  0  0  0  0  0  0  0  0
    9.6227  -16.2949   26.5360 N   0  0  0  0  0  0  0  0  0  0  0  0
   10.4892  -15.2832   28.5234 C   0  0  0  0  0  0  0  0  0  0  0  0
   11.1239  -14.2604   29.2082 O   0  0  0  0  0  0  0  0  0  0  0  0
   10.5580  -16.4395   29.0110 O   0  0  0  0  0  0  0  0  0  0  0  0
  2  1  1  1
  3  4  1  0
  3  2  1  0
  4  5  2  0
  6  5  1  0
  7  6  1  0
  8  7  2  0
  9  8  1  0
 10  9  2  0
 10 11  1  0
 11 12  2  0
 12  7  1  0
 12  4  1  0
 13  2  1  0
 13 14  2  0
 16 15  1  0
 16 17  2  0
 18 19  1  0
 18 16  1  0
 20 19  1  6
 20 21  1  0
 21 13  1  0
 22 28  1  0
 22 20  1  0
 23 22  2  0
 25 24  1  6
 26 25  1  0
 27 25  1  0
 27 29  1  0
 27 28  1  1
 29 30  1  0
 31 29  2  0
M  END
$$$$
