WQV.pdb
     RDKit          3D

 31 32  0  0  1  0  0  0  0  0999 V2000
    8.8043  -18.1154   19.9506 N   0  0  0  0  0  0  0  0  0  0  0  0
    8.6618  -16.9715   20.8216 C   0  0  1  0  0  0  0  0  0  0  0  0
    7.3043  -16.3333   20.6634 C   0  0  0  0  0  0  0  0  0  0  0  0
    7.5081  -14.8860   20.4108 C   0  0  0  0  0  0  0  0  0  0  0  0
    7.7847  -14.2626   19.2181 C   0  0  0  0  0  0  0  0  0  0  0  0
    7.8932  -12.9472   19.4257 N   0  0  0  0  0  0  0  0  0  0  0  0
    7.6968  -12.6513   20.7381 C   0  0  0  0  0  0  0  0  0  0  0  0
    7.7004  -11.4674   21.4643 C   0  0  0  0  0  0  0  0  0  0  0  0
    7.4605  -11.4893   22.8261 C   0  0  0  0  0  0  0  0  0  0  0  0
    7.2193  -12.7134   23.4366 C   0  0  0  0  0  0  0  0  0  0  0  0
    7.2190  -13.8823   22.7003 C   0  0  0  0  0  0  0  0  0  0  0  0
    7.4565  -13.8627   21.3516 C   0  0  0  0  0  0  0  0  0  0  0  0
    8.7303  -17.4780   22.2394 C   0  0  0  0  0  0  0  0  0  0  0  0
    7.8070  -18.1827   22.6911 O   0  0  0  0  0  0  0  0  0  0  0  0
   12.4605  -20.0575   22.2112 N   0  0  0  0  0  0  0  0  0  0  0  0
   12.6170  -18.7007   22.5821 C   0  0  0  0  0  0  0  0  0  0  0  0
   12.9313  -17.8081   21.7578 O   0  0  0  0  0  0  0  0  0  0  0  0
   12.4065  -18.2882   23.9991 C   0  0  0  0  0  0  0  0  0  0  0  0
   11.0419  -18.6791   24.4976 C   0  0  0  0  0  0  0  0  0  0  0  0
   10.1051  -17.5075   24.3067 C   0  0  2  0  0  0  0  0  0  0  0  0
    9.8624  -17.1077   22.9681 N   0  0  0  0  0  0  0  0  0  0  0  0
   10.2713  -16.3933   25.2044 C   0  0  0  0  0  0  0  0  0  0  0  0
   11.2454  -15.5899   24.9987 O   0  0  0  0  0  0  0  0  0  0  0  0
    8.8850  -12.9740   28.4007 C   0  0  0  0  0  0  0  0  0  0  0  0
    8.5870  -14.1050   27.4741 C   0  0  1  0  0  0  0  0  0  0  0  0
    8.0502  -13.5785   26.1704 C   0  0  0  0  0  0  0  0  0  0  0  0
    9.7841  -14.9858   27.2000 C   0  0  2  0  0  0  0  0  0  0  0  0
    9.4455  -16.0891   26.3194 N   0  0  0  0  0  0  0  0  0  0  0  0
   10.2841  -15.5258   28.4882 C   0  0  0  0  0  0  0  0  0  0  0  0
   11.0087  -14.7499   29.3774 O   0  0  0  0  0  0  0  0  0  0  0  0
   10.0585  -16.7200   28.8087 O   0  0  0  0  0  0  0  0  0  0  0  0
  2  1  1  6
  3  4  1  0
  3  2  1  0
  4  5  2  0
  6  5  1  0
  7  6  1  0
  8  7  2  0
  9  8  1  0
 10  9  2  0
 10 11  1  0
 11 12  2  0
 12  7  1  0
 12  4  1  0
 13  2  1  0
 13 14  2  0
 16 15  1  0
 16 17  2  0
 18 19  1  0
 18 16  1  0
 20 19  1  6
 20 21  1  0
 21 13  1  0
 22 28  1  0
 22 20  1  0
 23 22  2  0
 25 24  1  1
 26 25  1  0
 27 25  1  0
 27 29  1  0
 27 28  1  6
 29 30  1  0
 31 29  2  0
M  END
$$$$
