WQV.pdb
     RDKit          3D

 31 32  0  0  1  0  0  0  0  0999 V2000
    6.3360  -18.3241   23.6077 N   0  0  0  0  0  0  0  0  0  0  0  0
    7.0402  -17.0659   23.7002 C   0  0  1  0  0  0  0  0  0  0  0  0
    6.3451  -16.1222   24.6496 C   0  0  0  0  0  0  0  0  0  0  0  0
    6.8285  -14.7496   24.3629 C   0  0  0  0  0  0  0  0  0  0  0  0
    7.5614  -14.3150   23.2850 C   0  0  0  0  0  0  0  0  0  0  0  0
    7.7887  -13.0043   23.4091 N   0  0  0  0  0  0  0  0  0  0  0  0
    7.2271  -12.5264   24.5514 C   0  0  0  0  0  0  0  0  0  0  0  0
    7.1707  -11.2688   25.1380 C   0  0  0  0  0  0  0  0  0  0  0  0
    6.5060  -11.0933   26.3380 C   0  0  0  0  0  0  0  0  0  0  0  0
    5.9053  -12.1968   26.9301 C   0  0  0  0  0  0  0  0  0  0  0  0
    5.9703  -13.4414   26.3339 C   0  0  0  0  0  0  0  0  0  0  0  0
    6.6281  -13.6172   25.1456 C   0  0  0  0  0  0  0  0  0  0  0  0
    8.3921  -17.3535   24.3013 C   0  0  0  0  0  0  0  0  0  0  0  0
    8.4809  -18.0881   25.3041 O   0  0  0  0  0  0  0  0  0  0  0  0
   13.8836  -17.1368   21.0547 N   0  0  0  0  0  0  0  0  0  0  0  0
   14.2182  -17.4652   22.3900 C   0  0  0  0  0  0  0  0  0  0  0  0
   15.3673  -17.8434   22.7240 O   0  0  0  0  0  0  0  0  0  0  0  0
   13.1857  -17.3672   23.4608 C   0  0  0  0  0  0  0  0  0  0  0  0
   11.8458  -16.9625   22.9092 C   0  0  0  0  0  0  0  0  0  0  0  0
   10.8336  -16.9911   24.0323 C   0  0  2  0  0  0  0  0  0  0  0  0
    9.4835  -16.7550   23.6685 N   0  0  0  0  0  0  0  0  0  0  0  0
   11.2083  -16.3336   25.2579 C   0  0  0  0  0  0  0  0  0  0  0  0
   11.9930  -15.3255   25.1890 O   0  0  0  0  0  0  0  0  0  0  0  0
   10.1545  -13.8318   27.1254 C   0  0  0  0  0  0  0  0  0  0  0  0
   10.3510  -14.8895   28.1593 C   0  0  1  0  0  0  0  0  0  0  0  0
    9.0267  -15.4965   28.5373 C   0  0  0  0  0  0  0  0  0  0  0  0
   11.2945  -15.9861   27.7222 C   0  0  2  0  0  0  0  0  0  0  0  0
   10.7861  -16.6987   26.5640 N   0  0  0  0  0  0  0  0  0  0  0  0
   11.4689  -16.9410   28.8443 C   0  0  0  0  0  0  0  0  0  0  0  0
   12.1499  -16.5982   30.0003 O   0  0  0  0  0  0  0  0  0  0  0  0
   10.9951  -18.1028   28.7714 O   0  0  0  0  0  0  0  0  0  0  0  0
  2  1  1  1
  3  4  1  0
  3  2  1  0
  4  5  2  0
  6  5  1  0
  7  6  1  0
  8  7  2  0
  9  8  1  0
 10  9  2  0
 10 11  1  0
 11 12  2  0
 12  7  1  0
 12  4  1  0
 13  2  1  0
 13 14  2  0
 16 15  1  0
 16 17  2  0
 18 19  1  0
 18 16  1  0
 20 19  1  6
 20 21  1  0
 21 13  1  0
 22 28  1  0
 22 20  1  0
 23 22  2  0
 25 24  1  6
 26 25  1  0
 27 25  1  0
 27 29  1  0
 27 28  1  6
 29 30  1  0
 31 29  2  0
M  END
$$$$
