WQV.pdb
     RDKit          3D

 31 32  0  0  1  0  0  0  0  0999 V2000
    9.0453  -16.0305   21.7331 N   0  0  0  0  0  0  0  0  0  0  0  0
    9.0005  -15.8098   23.1602 C   0  0  1  0  0  0  0  0  0  0  0  0
    7.5789  -15.7971   23.6641 C   0  0  0  0  0  0  0  0  0  0  0  0
    6.9856  -14.4819   23.3206 C   0  0  0  0  0  0  0  0  0  0  0  0
    6.4862  -14.0653   22.1102 C   0  0  0  0  0  0  0  0  0  0  0  0
    6.0449  -12.8097   22.2266 N   0  0  0  0  0  0  0  0  0  0  0  0
    6.2300  -12.3520   23.4934 C   0  0  0  0  0  0  0  0  0  0  0  0
    5.9541  -11.1472   24.1269 C   0  0  0  0  0  0  0  0  0  0  0  0
    6.2683  -10.9792   25.4631 C   0  0  0  0  0  0  0  0  0  0  0  0
    6.8596  -12.0365   26.1426 C   0  0  0  0  0  0  0  0  0  0  0  0
    7.1277  -13.2288   25.4983 C   0  0  0  0  0  0  0  0  0  0  0  0
    6.8173  -13.3971   24.1750 C   0  0  0  0  0  0  0  0  0  0  0  0
    9.6730  -16.9885   23.8160 C   0  0  0  0  0  0  0  0  0  0  0  0
    8.9857  -17.9397   24.2356 O   0  0  0  0  0  0  0  0  0  0  0  0
   12.5532  -21.1176   24.5936 N   0  0  0  0  0  0  0  0  0  0  0  0
   12.2912  -20.6931   23.2692 C   0  0  0  0  0  0  0  0  0  0  0  0
   11.8617  -21.4718   22.3837 O   0  0  0  0  0  0  0  0  0  0  0  0
   12.5256  -19.2722   22.8837 C   0  0  0  0  0  0  0  0  0  0  0  0
   13.0260  -18.4544   24.0431 C   0  0  0  0  0  0  0  0  0  0  0  0
   11.8421  -17.7958   24.7150 C   0  0  2  0  0  0  0  0  0  0  0  0
   11.0648  -16.9260   23.9086 N   0  0  0  0  0  0  0  0  0  0  0  0
   12.0535  -17.2884   26.0464 C   0  0  0  0  0  0  0  0  0  0  0  0
   12.8732  -16.3185   26.2018 O   0  0  0  0  0  0  0  0  0  0  0  0
   11.4173  -14.8398   27.8660 C   0  0  0  0  0  0  0  0  0  0  0  0
   11.0908  -15.9355   28.8247 C   0  0  1  0  0  0  0  0  0  0  0  0
    9.6070  -16.1871   28.8375 C   0  0  0  0  0  0  0  0  0  0  0  0
   11.8123  -17.2289   28.5241 C   0  0  2  0  0  0  0  0  0  0  0  0
   11.4308  -17.7658   27.2304 N   0  0  0  0  0  0  0  0  0  0  0  0
   11.4798  -18.2172   29.5795 C   0  0  0  0  0  0  0  0  0  0  0  0
   11.9462  -18.0900   30.8772 O   0  0  0  0  0  0  0  0  0  0  0  0
   10.7550  -19.2099   29.3169 O   0  0  0  0  0  0  0  0  0  0  0  0
  2  1  1  6
  3  4  1  0
  3  2  1  0
  4  5  2  0
  6  5  1  0
  7  6  1  0
  8  7  2  0
  9  8  1  0
 10  9  2  0
 10 11  1  0
 11 12  2  0
 12  7  1  0
 12  4  1  0
 13  2  1  0
 13 14  2  0
 16 15  1  0
 16 17  2  0
 18 19  1  0
 18 16  1  0
 20 19  1  6
 20 21  1  0
 21 13  1  0
 22 28  1  0
 22 20  1  0
 23 22  2  0
 25 24  1  6
 26 25  1  0
 27 25  1  0
 27 29  1  0
 27 28  1  6
 29 30  1  0
 31 29  2  0
M  END
$$$$
