HEQ.pdb
     RDKit          3D

 29 29  0  0  1  0  0  0  0  0999 V2000
    7.6320  -16.9094   20.7123 N   0  0  0  0  0  0  0  0  0  0  0  0
    8.7557  -16.1303   21.2516 C   0  0  1  0  0  0  0  0  0  0  0  0
    8.3753  -14.6688   21.3022 C   0  0  0  0  0  0  0  0  0  0  0  0
    8.1943  -14.0691   19.9855 C   0  0  0  0  0  0  0  0  0  0  0  0
    6.9894  -13.6980   19.4327 C   0  0  0  0  0  0  0  0  0  0  0  0
    7.2255  -13.1898   18.2235 N   0  0  0  0  0  0  0  0  0  0  0  0
    8.5395  -13.2208   17.9789 C   0  0  0  0  0  0  0  0  0  0  0  0
    9.1269  -13.7688   19.0812 N   0  0  0  0  0  0  0  0  0  0  0  0
    8.9505  -16.5707   22.6645 C   0  0  0  0  0  0  0  0  0  0  0  0
    7.9621  -16.8358   23.4081 O   0  0  0  0  0  0  0  0  0  0  0  0
   10.2379  -16.7184   23.2562 N   0  0  0  0  0  0  0  0  0  0  0  0
   10.3805  -17.1996   24.6016 C   0  0  1  0  0  0  0  0  0  0  0  0
   11.5741  -18.1336   24.7329 C   0  0  0  0  0  0  0  0  0  0  0  0
   11.4230  -19.2584   23.7317 C   0  0  0  0  0  0  0  0  0  0  0  0
   12.6000  -20.1566   23.7807 C   0  0  0  0  0  0  0  0  0  0  0  0
   13.7218  -19.7048   23.5128 O   0  0  0  0  0  0  0  0  0  0  0  0
   10.4601  -16.0967   25.5939 C   0  0  0  0  0  0  0  0  0  0  0  0
   11.3421  -15.2127   25.4416 O   0  0  0  0  0  0  0  0  0  0  0  0
   12.4168  -21.4751   24.1238 O   0  0  0  0  0  0  0  0  0  0  0  0
    6.0856  -12.6854   27.4307 N   0  0  0  0  0  0  0  0  0  0  0  0
    6.9939  -12.5197   26.3302 C   0  0  0  0  0  0  0  0  0  0  0  0
    6.6977  -11.7333   25.3782 O   0  0  0  0  0  0  0  0  0  0  0  0
    8.2539  -13.2798   26.3631 C   0  0  0  0  0  0  0  0  0  0  0  0
    8.4254  -14.0875   27.5975 C   0  0  0  0  0  0  0  0  0  0  0  0
    9.7090  -14.8382   27.6537 C   0  0  2  0  0  0  0  0  0  0  0  0
    9.5940  -15.9886   26.7031 N   0  0  0  0  0  0  0  0  0  0  0  0
   10.0892  -15.4367   28.9173 C   0  0  0  0  0  0  0  0  0  0  0  0
    9.9830  -16.6712   29.1081 O   0  0  0  0  0  0  0  0  0  0  0  0
   10.5944  -14.6945   29.9680 O   0  0  0  0  0  0  0  0  0  0  0  0
  2  1  1  1
  3  4  1  0
  3  2  1  0
  4  8  1  0
  5  6  1  0
  5  4  2  0
  6  7  1  0
  7  8  2  0
  9  2  1  0
  9 11  1  0
 10  9  2  0
 11 12  1  0
 12 17  1  0
 13 14  1  0
 12 13  1  6
 15 16  2  0
 15 14  1  0
 17 18  2  0
 17 26  1  0
 19 15  1  0
 20 21  1  0
 21 23  1  0
 21 22  2  0
 23 24  1  0
 25 24  1  1
 25 27  1  0
 26 25  1  0
 27 28  2  0
 27 29  1  0
M  END
$$$$
