HEQ.pdb
     RDKit          3D

 29 29  0  0  1  0  0  0  0  0999 V2000
    9.7114  -16.1302   17.3294 N   0  0  0  0  0  0  0  0  0  0  0  0
   10.3258  -14.9216   17.8969 C   0  0  1  0  0  0  0  0  0  0  0  0
    9.5961  -14.5335   19.1619 C   0  0  0  0  0  0  0  0  0  0  0  0
    8.3236  -13.8649   18.9174 C   0  0  0  0  0  0  0  0  0  0  0  0
    7.7397  -13.6794   17.6846 C   0  0  0  0  0  0  0  0  0  0  0  0
    6.5889  -13.0314   17.8628 N   0  0  0  0  0  0  0  0  0  0  0  0
    6.4117  -12.7935   19.1664 C   0  0  0  0  0  0  0  0  0  0  0  0
    7.4961  -13.3165   19.8075 N   0  0  0  0  0  0  0  0  0  0  0  0
   11.7151  -15.2896   18.3003 C   0  0  0  0  0  0  0  0  0  0  0  0
   11.9712  -16.4226   18.8013 O   0  0  0  0  0  0  0  0  0  0  0  0
   12.8220  -14.4055   18.1502 N   0  0  0  0  0  0  0  0  0  0  0  0
   14.1426  -14.8026   18.5503 C   0  0  1  0  0  0  0  0  0  0  0  0
   15.2087  -14.0185   17.8001 C   0  0  0  0  0  0  0  0  0  0  0  0
   16.5670  -14.5840   18.1547 C   0  0  0  0  0  0  0  0  0  0  0  0
   17.4292  -14.6525   16.9519 C   0  0  0  0  0  0  0  0  0  0  0  0
   17.9933  -15.7180   16.6675 O   0  0  0  0  0  0  0  0  0  0  0  0
   14.3459  -14.7007   20.0186 C   0  0  0  0  0  0  0  0  0  0  0  0
   14.2390  -13.5722   20.5640 O   0  0  0  0  0  0  0  0  0  0  0  0
   17.5821  -13.5266   16.1782 O   0  0  0  0  0  0  0  0  0  0  0  0
   11.9666  -18.0824   24.1664 N   0  0  0  0  0  0  0  0  0  0  0  0
   11.5136  -16.8030   23.6958 C   0  0  0  0  0  0  0  0  0  0  0  0
   10.2913  -16.4809   23.8166 O   0  0  0  0  0  0  0  0  0  0  0  0
   12.5103  -15.9051   23.0900 C   0  0  0  0  0  0  0  0  0  0  0  0
   13.8670  -16.5023   22.9999 C   0  0  0  0  0  0  0  0  0  0  0  0
   14.8619  -15.6378   22.3091 C   0  0  2  0  0  0  0  0  0  0  0  0
   14.6541  -15.8088   20.8367 N   0  0  0  0  0  0  0  0  0  0  0  0
   16.2673  -15.9193   22.5213 C   0  0  0  0  0  0  0  0  0  0  0  0
   16.8550  -16.8146   21.8694 O   0  0  0  0  0  0  0  0  0  0  0  0
   17.0348  -15.2204   23.4336 O   0  0  0  0  0  0  0  0  0  0  0  0
  2  1  1  1
  3  4  1  0
  3  2  1  0
  4  8  1  0
  5  6  1  0
  5  4  2  0
  6  7  1  0
  7  8  2  0
  9  2  1  0
  9 11  1  0
 10  9  2  0
 11 12  1  0
 12 17  1  0
 13 14  1  0
 12 13  1  6
 15 16  2  0
 15 14  1  0
 17 18  2  0
 17 26  1  0
 19 15  1  0
 20 21  1  0
 21 23  1  0
 21 22  2  0
 23 24  1  0
 25 24  1  1
 25 27  1  0
 26 25  1  0
 27 28  2  0
 27 29  1  0
M  END
$$$$
