HEQ.pdb
     RDKit          3D

 29 29  0  0  1  0  0  0  0  0999 V2000
    9.5335  -17.2034   19.9014 N   0  0  0  0  0  0  0  0  0  0  0  0
    8.4628  -17.3487   20.8979 C   0  0  1  0  0  0  0  0  0  0  0  0
    8.3403  -18.8014   21.2956 C   0  0  0  0  0  0  0  0  0  0  0  0
    7.7271  -19.6356   20.2690 C   0  0  0  0  0  0  0  0  0  0  0  0
    6.6378  -19.2906   19.5010 C   0  0  0  0  0  0  0  0  0  0  0  0
    6.3711  -20.3045   18.6783 N   0  0  0  0  0  0  0  0  0  0  0  0
    7.2500  -21.2896   18.8897 C   0  0  0  0  0  0  0  0  0  0  0  0
    8.0845  -20.8596   19.8792 N   0  0  0  0  0  0  0  0  0  0  0  0
    8.9010  -16.6070   22.1169 C   0  0  0  0  0  0  0  0  0  0  0  0
   10.0975  -16.6670   22.5230 O   0  0  0  0  0  0  0  0  0  0  0  0
    8.0168  -15.7986   22.8878 N   0  0  0  0  0  0  0  0  0  0  0  0
    8.4464  -15.2077   24.1240 C   0  0  1  0  0  0  0  0  0  0  0  0
    7.3938  -14.2616   24.6818 C   0  0  0  0  0  0  0  0  0  0  0  0
    7.9593  -13.5730   25.9050 C   0  0  0  0  0  0  0  0  0  0  0  0
    6.9727  -12.6204   26.4653 C   0  0  0  0  0  0  0  0  0  0  0  0
    5.8034  -12.6453   26.0574 O   0  0  0  0  0  0  0  0  0  0  0  0
    8.8328  -16.2250   25.1356 C   0  0  0  0  0  0  0  0  0  0  0  0
    8.1146  -17.2498   25.2633 O   0  0  0  0  0  0  0  0  0  0  0  0
    7.3818  -11.7286   27.4282 O   0  0  0  0  0  0  0  0  0  0  0  0
   14.0555  -18.7553   25.3903 N   0  0  0  0  0  0  0  0  0  0  0  0
   13.6472  -19.2030   26.6928 C   0  0  0  0  0  0  0  0  0  0  0  0
   14.4147  -19.9505   27.3744 O   0  0  0  0  0  0  0  0  0  0  0  0
   12.3343  -18.7587   27.1881 C   0  0  0  0  0  0  0  0  0  0  0  0
   11.6837  -17.7484   26.3154 C   0  0  0  0  0  0  0  0  0  0  0  0
   10.3958  -17.2290   26.8501 C   0  0  2  0  0  0  0  0  0  0  0  0
    9.9686  -16.1007   25.9644 N   0  0  0  0  0  0  0  0  0  0  0  0
   10.3926  -16.6730   28.1881 C   0  0  0  0  0  0  0  0  0  0  0  0
   10.2378  -15.4437   28.3791 O   0  0  0  0  0  0  0  0  0  0  0  0
   10.5468  -17.4549   29.3172 O   0  0  0  0  0  0  0  0  0  0  0  0
  2  1  1  6
  3  4  1  0
  3  2  1  0
  4  8  1  0
  5  6  1  0
  5  4  2  0
  6  7  1  0
  7  8  2  0
  9  2  1  0
  9 11  1  0
 10  9  2  0
 11 12  1  0
 12 17  1  0
 13 14  1  0
 12 13  1  1
 15 16  2  0
 15 14  1  0
 17 18  2  0
 17 26  1  0
 19 15  1  0
 20 21  1  0
 21 23  1  0
 21 22  2  0
 23 24  1  0
 25 24  1  6
 25 27  1  0
 26 25  1  0
 27 28  2  0
 27 29  1  0
M  END
$$$$
