HEQ.pdb
     RDKit          3D

 29 29  0  0  1  0  0  0  0  0999 V2000
    6.1417  -16.1698   21.0453 N   0  0  0  0  0  0  0  0  0  0  0  0
    7.4796  -16.0041   21.6309 C   0  0  1  0  0  0  0  0  0  0  0  0
    7.8916  -14.5531   21.5402 C   0  0  0  0  0  0  0  0  0  0  0  0
    8.2009  -14.1203   20.1826 C   0  0  0  0  0  0  0  0  0  0  0  0
    8.2041  -14.9253   19.0659 C   0  0  0  0  0  0  0  0  0  0  0  0
    8.5333  -14.1761   18.0141 N   0  0  0  0  0  0  0  0  0  0  0  0
    8.7420  -12.9177   18.4144 C   0  0  0  0  0  0  0  0  0  0  0  0
    8.5319  -12.8991   19.7620 N   0  0  0  0  0  0  0  0  0  0  0  0
    7.3600  -16.3247   23.0839 C   0  0  0  0  0  0  0  0  0  0  0  0
    6.4237  -15.8419   23.7843 O   0  0  0  0  0  0  0  0  0  0  0  0
    8.2752  -17.1790   23.7635 N   0  0  0  0  0  0  0  0  0  0  0  0
    8.1610  -17.4073   25.1766 C   0  0  1  0  0  0  0  0  0  0  0  0
    7.8678  -18.8688   25.4804 C   0  0  0  0  0  0  0  0  0  0  0  0
    7.7886  -19.0463   26.9813 C   0  0  0  0  0  0  0  0  0  0  0  0
    7.5272  -20.4642   27.3217 C   0  0  0  0  0  0  0  0  0  0  0  0
    7.2873  -21.2734   26.4152 O   0  0  0  0  0  0  0  0  0  0  0  0
    9.3562  -16.9406   25.9258 C   0  0  0  0  0  0  0  0  0  0  0  0
    9.8704  -17.7098   26.7780 O   0  0  0  0  0  0  0  0  0  0  0  0
    7.5577  -20.8478   28.6415 O   0  0  0  0  0  0  0  0  0  0  0  0
    5.8759  -12.9079   25.8166 N   0  0  0  0  0  0  0  0  0  0  0  0
    6.6409  -12.2724   26.8532 C   0  0  0  0  0  0  0  0  0  0  0  0
    6.2245  -11.1924   27.3753 O   0  0  0  0  0  0  0  0  0  0  0  0
    7.8933  -12.9210   27.2742 C   0  0  0  0  0  0  0  0  0  0  0  0
    8.3522  -13.9824   26.3422 C   0  0  0  0  0  0  0  0  0  0  0  0
    9.6837  -14.5516   26.6848 C   0  0  2  0  0  0  0  0  0  0  0  0
    9.9471  -15.6738   25.7301 N   0  0  0  0  0  0  0  0  0  0  0  0
    9.8531  -15.1350   28.0002 C   0  0  0  0  0  0  0  0  0  0  0  0
    9.8225  -14.4252   29.0332 O   0  0  0  0  0  0  0  0  0  0  0  0
   10.0447  -16.4901   28.1922 O   0  0  0  0  0  0  0  0  0  0  0  0
  2  1  1  6
  3  4  1  0
  3  2  1  0
  4  8  1  0
  5  6  1  0
  5  4  2  0
  6  7  1  0
  7  8  2  0
  9  2  1  0
  9 11  1  0
 10  9  2  0
 11 12  1  0
 12 17  1  0
 13 14  1  0
 12 13  1  6
 15 16  2  0
 15 14  1  0
 17 18  2  0
 17 26  1  0
 19 15  1  0
 20 21  1  0
 21 23  1  0
 21 22  2  0
 23 24  1  0
 25 24  1  1
 25 27  1  0
 26 25  1  0
 27 28  2  0
 27 29  1  0
M  END
$$$$
