HEQ.pdb
     RDKit          3D

 29 29  0  0  1  0  0  0  0  0999 V2000
    9.4609  -20.6960   14.3750 N   0  0  0  0  0  0  0  0  0  0  0  0
   10.6670  -21.4944   14.6362 C   0  0  1  0  0  0  0  0  0  0  0  0
   11.8933  -20.6720   14.3153 C   0  0  0  0  0  0  0  0  0  0  0  0
   12.0448  -20.3841   12.8940 C   0  0  0  0  0  0  0  0  0  0  0  0
   12.4643  -21.2787   11.9353 C   0  0  0  0  0  0  0  0  0  0  0  0
   12.4766  -20.6524   10.7591 N   0  0  0  0  0  0  0  0  0  0  0  0
   12.0799  -19.3867   10.9268 C   0  0  0  0  0  0  0  0  0  0  0  0
   11.8156  -19.2357   12.2565 N   0  0  0  0  0  0  0  0  0  0  0  0
   10.7021  -21.7596   16.1048 C   0  0  0  0  0  0  0  0  0  0  0  0
   10.2240  -20.9286   16.9301 O   0  0  0  0  0  0  0  0  0  0  0  0
   11.2657  -22.9434   16.6620 N   0  0  0  0  0  0  0  0  0  0  0  0
   11.1726  -23.2129   18.0693 C   0  0  1  0  0  0  0  0  0  0  0  0
   10.2927  -24.4227   18.3453 C   0  0  0  0  0  0  0  0  0  0  0  0
   10.1185  -24.5651   19.8419 C   0  0  0  0  0  0  0  0  0  0  0  0
    9.2621  -25.7328   20.1546 C   0  0  0  0  0  0  0  0  0  0  0  0
    9.7792  -26.8520   20.2738 O   0  0  0  0  0  0  0  0  0  0  0  0
   12.5054  -23.3717   18.7065 C   0  0  0  0  0  0  0  0  0  0  0  0
   13.3325  -24.1618   18.1829 O   0  0  0  0  0  0  0  0  0  0  0  0
    7.9089  -25.5438   20.3053 O   0  0  0  0  0  0  0  0  0  0  0  0
   16.3208  -19.8835   19.1051 N   0  0  0  0  0  0  0  0  0  0  0  0
   16.0190  -20.1004   20.4926 C   0  0  0  0  0  0  0  0  0  0  0  0
   16.9385  -20.0030   21.3630 O   0  0  0  0  0  0  0  0  0  0  0  0
   14.6278  -20.4249   20.8472 C   0  0  0  0  0  0  0  0  0  0  0  0
   14.4696  -21.7741   21.4473 C   0  0  0  0  0  0  0  0  0  0  0  0
   14.2637  -22.8580   20.4487 C   0  0  2  0  0  0  0  0  0  0  0  0
   12.8935  -22.6792   19.8736 N   0  0  0  0  0  0  0  0  0  0  0  0
   14.2933  -24.2279   20.9198 C   0  0  0  0  0  0  0  0  0  0  0  0
   15.3063  -24.9482   20.7559 O   0  0  0  0  0  0  0  0  0  0  0  0
   13.2264  -24.8099   21.5777 O   0  0  0  0  0  0  0  0  0  0  0  0
  2  1  1  1
  3  4  1  0
  3  2  1  0
  4  8  1  0
  5  6  1  0
  5  4  2  0
  6  7  1  0
  7  8  2  0
  9  2  1  0
  9 11  1  0
 10  9  2  0
 11 12  1  0
 12 17  1  0
 13 14  1  0
 12 13  1  6
 15 16  2  0
 15 14  1  0
 17 18  2  0
 17 26  1  0
 19 15  1  0
 20 21  1  0
 21 23  1  0
 21 22  2  0
 23 24  1  0
 25 24  1  1
 25 27  1  0
 26 25  1  0
 27 28  2  0
 27 29  1  0
M  END
$$$$
