HEQ.pdb
     RDKit          3D

 29 29  0  0  1  0  0  0  0  0999 V2000
    8.0531  -17.2135   19.9205 N   0  0  0  0  0  0  0  0  0  0  0  0
    9.2127  -16.4500   20.4031 C   0  0  1  0  0  0  0  0  0  0  0  0
    8.7427  -15.1373   20.9857 C   0  0  0  0  0  0  0  0  0  0  0  0
    8.1677  -14.2344   19.9956 C   0  0  0  0  0  0  0  0  0  0  0  0
    8.0786  -14.4793   18.6438 C   0  0  0  0  0  0  0  0  0  0  0  0
    7.4963  -13.4278   18.0682 N   0  0  0  0  0  0  0  0  0  0  0  0
    7.2077  -12.5151   19.0016 C   0  0  0  0  0  0  0  0  0  0  0  0
    7.6303  -13.0300   20.1918 N   0  0  0  0  0  0  0  0  0  0  0  0
    9.8071  -17.2291   21.5291 C   0  0  0  0  0  0  0  0  0  0  0  0
    9.1939  -18.2108   22.0394 O   0  0  0  0  0  0  0  0  0  0  0  0
   11.0798  -16.9236   22.0916 N   0  0  0  0  0  0  0  0  0  0  0  0
   11.6222  -17.7132   23.1613 C   0  0  1  0  0  0  0  0  0  0  0  0
   13.0989  -18.0049   22.9418 C   0  0  0  0  0  0  0  0  0  0  0  0
   13.2481  -18.8377   21.6870 C   0  0  0  0  0  0  0  0  0  0  0  0
   14.6781  -18.9808   21.3276 C   0  0  0  0  0  0  0  0  0  0  0  0
   15.1956  -20.1062   21.3265 O   0  0  0  0  0  0  0  0  0  0  0  0
   11.3973  -17.0954   24.4937 C   0  0  0  0  0  0  0  0  0  0  0  0
   11.3639  -15.8407   24.5775 O   0  0  0  0  0  0  0  0  0  0  0  0
   15.3981  -17.8557   21.0028 O   0  0  0  0  0  0  0  0  0  0  0  0
   10.9578  -14.0921   27.6031 N   0  0  0  0  0  0  0  0  0  0  0  0
    9.9180  -14.5709   28.4709 C   0  0  0  0  0  0  0  0  0  0  0  0
    9.6722  -13.9637   29.5587 O   0  0  0  0  0  0  0  0  0  0  0  0
    9.1670  -15.7630   28.0453 C   0  0  0  0  0  0  0  0  0  0  0  0
    9.6834  -16.3715   26.7929 C   0  0  0  0  0  0  0  0  0  0  0  0
   10.9279  -17.1663   26.9768 C   0  0  2  0  0  0  0  0  0  0  0  0
   11.2184  -17.8463   25.6755 N   0  0  0  0  0  0  0  0  0  0  0  0
   10.9123  -18.2324   27.9580 C   0  0  0  0  0  0  0  0  0  0  0  0
   10.5733  -19.3978   27.6439 O   0  0  0  0  0  0  0  0  0  0  0  0
   11.2753  -18.0330   29.2764 O   0  0  0  0  0  0  0  0  0  0  0  0
  2  1  1  1
  3  4  1  0
  3  2  1  0
  4  8  1  0
  5  6  1  0
  5  4  2  0
  6  7  1  0
  7  8  2  0
  9  2  1  0
  9 11  1  0
 10  9  2  0
 11 12  1  0
 12 17  1  0
 13 14  1  0
 12 13  1  6
 15 16  2  0
 15 14  1  0
 17 18  2  0
 17 26  1  0
 19 15  1  0
 20 21  1  0
 21 23  1  0
 21 22  2  0
 23 24  1  0
 25 24  1  6
 25 27  1  0
 26 25  1  0
 27 28  2  0
 27 29  1  0
M  END
$$$$
