HEQ.pdb
     RDKit          3D

 29 29  0  0  1  0  0  0  0  0999 V2000
    7.3402  -17.0171   20.5882 N   0  0  0  0  0  0  0  0  0  0  0  0
    8.5414  -16.3034   21.0447 C   0  0  1  0  0  0  0  0  0  0  0  0
    8.2300  -14.8309   21.1794 C   0  0  0  0  0  0  0  0  0  0  0  0
    8.1697  -14.1301   19.9022 C   0  0  0  0  0  0  0  0  0  0  0  0
    8.2941  -14.7133   18.6614 C   0  0  0  0  0  0  0  0  0  0  0  0
    8.1853  -13.7570   17.7396 N   0  0  0  0  0  0  0  0  0  0  0  0
    7.9954  -12.5793   18.3433 C   0  0  0  0  0  0  0  0  0  0  0  0
    7.9881  -12.8272   19.6845 N   0  0  0  0  0  0  0  0  0  0  0  0
    8.8475  -16.8032   22.4175 C   0  0  0  0  0  0  0  0  0  0  0  0
    7.9356  -16.9292   23.2851 O   0  0  0  0  0  0  0  0  0  0  0  0
   10.1618  -17.1640   22.8321 N   0  0  0  0  0  0  0  0  0  0  0  0
   10.4559  -17.4163   24.2147 C   0  0  1  0  0  0  0  0  0  0  0  0
   11.7767  -18.1538   24.3753 C   0  0  0  0  0  0  0  0  0  0  0  0
   11.6646  -19.5032   23.6994 C   0  0  0  0  0  0  0  0  0  0  0  0
   12.9551  -19.8789   23.0764 C   0  0  0  0  0  0  0  0  0  0  0  0
   13.8368  -20.4022   23.7715 O   0  0  0  0  0  0  0  0  0  0  0  0
   10.4389  -16.1771   25.0343 C   0  0  0  0  0  0  0  0  0  0  0  0
   11.1175  -15.1908   24.6480 O   0  0  0  0  0  0  0  0  0  0  0  0
   13.1425  -19.6362   21.7363 O   0  0  0  0  0  0  0  0  0  0  0  0
    5.8561  -13.0117   26.3990 N   0  0  0  0  0  0  0  0  0  0  0  0
    6.7583  -12.3004   27.2612 C   0  0  0  0  0  0  0  0  0  0  0  0
    6.3966  -11.2035   27.7889 O   0  0  0  0  0  0  0  0  0  0  0  0
    8.0838  -12.8930   27.5025 C   0  0  0  0  0  0  0  0  0  0  0  0
    8.3136  -14.1538   26.7520 C   0  0  0  0  0  0  0  0  0  0  0  0
    9.6605  -14.7480   26.9688 C   0  0  2  0  0  0  0  0  0  0  0  0
    9.6979  -16.0484   26.2287 N   0  0  0  0  0  0  0  0  0  0  0  0
   10.0435  -15.0815   28.3259 C   0  0  0  0  0  0  0  0  0  0  0  0
   10.4307  -14.1975   29.1261 O   0  0  0  0  0  0  0  0  0  0  0  0
    9.9949  -16.3732   28.8147 O   0  0  0  0  0  0  0  0  0  0  0  0
  2  1  1  1
  3  4  1  0
  3  2  1  0
  4  8  1  0
  5  6  1  0
  5  4  2  0
  6  7  1  0
  7  8  2  0
  9  2  1  0
  9 11  1  0
 10  9  2  0
 11 12  1  0
 12 17  1  0
 13 14  1  0
 12 13  1  6
 15 16  2  0
 15 14  1  0
 17 18  2  0
 17 26  1  0
 19 15  1  0
 20 21  1  0
 21 23  1  0
 21 22  2  0
 23 24  1  0
 25 24  1  1
 25 27  1  0
 26 25  1  0
 27 28  2  0
 27 29  1  0
M  END
$$$$
