RKF.pdb
     RDKit          3D

 32 32  0  0  1  0  0  0  0  0999 V2000
   22.1188  -14.6646  -18.0987 N   0  0  0  0  0  0  0  0  0  0  0  0
   22.2005  -13.8977  -19.2817 C   0  0  0  0  0  0  0  0  0  0  0  0
   21.6125  -12.7506  -19.3694 N   0  0  0  0  0  0  0  0  0  0  0  0
   22.9334  -14.3604  -20.4190 N   0  0  0  0  0  0  0  0  0  0  0  0
   23.4861  -15.7261  -20.4668 C   0  0  0  0  0  0  0  0  0  0  0  0
   24.7996  -15.6743  -19.7754 C   0  0  0  0  0  0  0  0  0  0  0  0
   24.9986  -16.5849  -18.6245 C   0  0  0  0  0  0  0  0  0  0  0  0
   26.0515  -17.6224  -18.7506 C   0  0  2  0  0  0  0  0  0  0  0  0
   26.5050  -17.8583  -20.0852 N   0  0  0  0  0  0  0  0  0  0  0  0
   25.5008  -18.9136  -18.2309 C   0  0  0  0  0  0  0  0  0  0  0  0
   24.5742  -19.5331  -18.8536 O   0  0  0  0  0  0  0  0  0  0  0  0
   21.6948  -12.1120  -20.1648 N   0  0  0  0  0  0  0  0  0  0  0  0
   25.9994  -19.4861  -17.0236 C   0  0  1  0  0  0  0  0  0  0  0  0
   25.4654  -20.6485  -16.3887 C   0  0  0  0  0  0  0  0  0  0  0  0
   26.4659  -21.5712  -15.8257 C   0  0  0  0  0  0  0  0  0  0  0  0
   27.5878  -22.1264  -16.5561 C   0  0  0  0  0  0  0  0  0  0  0  0
   28.4784  -23.1531  -16.0326 C   0  0  0  0  0  0  0  0  0  0  0  0
   29.7573  -23.4358  -16.7272 N   0  0  0  0  0  0  0  0  0  0  0  0
   30.5770  -24.3764  -15.9586 C   0  0  0  0  0  0  0  0  0  0  0  0
   24.2604  -20.4839  -15.5696 O   0  0  0  0  0  0  0  0  0  0  0  0
   24.2488  -19.5769  -14.6697 N   0  0  0  0  0  0  0  0  0  0  0  0
   23.0708  -21.2623  -15.6825 C   0  0  1  0  0  0  0  0  0  0  0  0
   21.9523  -20.9945  -14.8031 C   0  0  0  0  0  0  0  0  0  0  0  0
   21.3983  -19.6172  -14.9687 C   0  0  0  0  0  0  0  0  0  0  0  0
   20.8598  -19.3142  -16.2992 C   0  0  0  0  0  0  0  0  0  0  0  0
   19.5774  -19.7277  -16.5989 C   0  0  0  0  0  0  0  0  0  0  0  0
   19.0621  -19.4588  -17.8263 C   0  0  0  0  0  0  0  0  0  0  0  0
   19.7730  -18.7863  -18.7879 C   0  0  0  0  0  0  0  0  0  0  0  0
   21.0513  -18.3727  -18.4930 C   0  0  0  0  0  0  0  0  0  0  0  0
   21.6047  -18.6268  -17.2632 C   0  0  0  0  0  0  0  0  0  0  0  0
   20.8974  -22.0074  -15.0729 O   0  0  0  0  0  0  0  0  0  0  0  0
   21.0256  -22.8375  -15.9916 O   0  0  0  0  0  0  0  0  0  0  0  0
  1  2  1  0
  2  3  2  0
  4  2  1  0
  4  5  1  0
  6  5  1  0
  7  8  1  0
  7  6  1  0
  8  9  1  6
 10  8  1  0
 11 10  2  0
 12 10  1  0
 13 19  1  0
 13 12  1  0
 14 15  1  0
 13 14  1  6
 15 16  1  0
 17 16  1  0
 17 18  1  0
 19 21  1  0
 20 19  2  0
 21 22  1  0
 22 30  1  0
 22 23  1  1
 24 23  1  0
 24 29  2  0
 25 24  1  0
 26 25  2  0
 26 27  1  0
 27 28  2  0
 28 29  1  0
 30 31  2  0
 30 32  1  0
M  END
$$$$
