RKF.pdb
     RDKit          3D

 32 32  0  0  1  0  0  0  0  0999 V2000
   29.2721  -15.8793  -17.9567 N   0  0  0  0  0  0  0  0  0  0  0  0
   28.8168  -16.9555  -18.7496 C   0  0  0  0  0  0  0  0  0  0  0  0
   28.3773  -16.7557  -19.9481 N   0  0  0  0  0  0  0  0  0  0  0  0
   28.8262  -18.2981  -18.2576 N   0  0  0  0  0  0  0  0  0  0  0  0
   28.0024  -18.6927  -17.1006 C   0  0  0  0  0  0  0  0  0  0  0  0
   28.2080  -17.6516  -16.0615 C   0  0  0  0  0  0  0  0  0  0  0  0
   27.5262  -17.8447  -14.7611 C   0  0  0  0  0  0  0  0  0  0  0  0
   27.6864  -19.1613  -14.0965 C   0  0  2  0  0  0  0  0  0  0  0  0
   27.3735  -20.2894  -14.9161 N   0  0  0  0  0  0  0  0  0  0  0  0
   26.7721  -19.2020  -12.9121 C   0  0  0  0  0  0  0  0  0  0  0  0
   26.7737  -18.2644  -12.0456 O   0  0  0  0  0  0  0  0  0  0  0  0
   28.0590  -17.4923  -20.5832 N   0  0  0  0  0  0  0  0  0  0  0  0
   25.8730  -20.2927  -12.7216 C   0  0  1  0  0  0  0  0  0  0  0  0
   24.9007  -20.3779  -11.6792 C   0  0  0  0  0  0  0  0  0  0  0  0
   23.5068  -20.5245  -12.1323 C   0  0  0  0  0  0  0  0  0  0  0  0
   22.3515  -20.5837  -11.2592 C   0  0  0  0  0  0  0  0  0  0  0  0
   21.0778  -21.1873  -11.6263 C   0  0  0  0  0  0  0  0  0  0  0  0
   19.9700  -21.2141  -10.6413 N   0  0  0  0  0  0  0  0  0  0  0  0
   18.8207  -21.9591  -11.1621 C   0  0  0  0  0  0  0  0  0  0  0  0
   25.2416  -21.1699  -10.4933 O   0  0  0  0  0  0  0  0  0  0  0  0
   24.3405  -21.9079   -9.9679 N   0  0  0  0  0  0  0  0  0  0  0  0
   26.5151  -21.1928   -9.8519 C   0  0  2  0  0  0  0  0  0  0  0  0
   26.5967  -21.0455   -8.4139 C   0  0  0  0  0  0  0  0  0  0  0  0
   27.4382  -19.8848   -7.9944 C   0  0  0  0  0  0  0  0  0  0  0  0
   27.5985  -19.7182   -6.5459 C   0  0  0  0  0  0  0  0  0  0  0  0
   28.8732  -19.5627   -6.0393 C   0  0  0  0  0  0  0  0  0  0  0  0
   29.0423  -19.4096   -4.7006 C   0  0  0  0  0  0  0  0  0  0  0  0
   27.9862  -19.4035   -3.8248 C   0  0  0  0  0  0  0  0  0  0  0  0
   26.7146  -19.5582   -4.3257 C   0  0  0  0  0  0  0  0  0  0  0  0
   26.5056  -19.7154   -5.6729 C   0  0  0  0  0  0  0  0  0  0  0  0
   25.2153  -20.8954   -7.8840 O   0  0  0  0  0  0  0  0  0  0  0  0
   24.7095  -21.7690   -7.1557 O   0  0  0  0  0  0  0  0  0  0  0  0
  1  2  1  0
  2  3  2  0
  4  2  1  0
  4  5  1  0
  6  5  1  0
  7  8  1  0
  7  6  1  0
  8  9  1  6
 10  8  1  0
 11 10  2  0
 12 10  1  0
 13 19  1  0
 13 12  1  0
 14 15  1  0
 13 14  1  1
 15 16  1  0
 17 16  1  0
 17 18  1  0
 19 21  1  0
 20 19  2  0
 21 22  1  0
 22 30  1  0
 22 23  1  6
 24 23  1  0
 24 29  2  0
 25 24  1  0
 26 25  2  0
 26 27  1  0
 27 28  2  0
 28 29  1  0
 30 31  2  0
 30 32  1  0
M  END
$$$$
