RKF.pdb
     RDKit          3D

 32 32  0  0  1  0  0  0  0  0999 V2000
   33.0162  -25.6400  -15.8246 N   0  0  0  0  0  0  0  0  0  0  0  0
   32.8830  -25.4891  -17.2224 C   0  0  0  0  0  0  0  0  0  0  0  0
   33.8416  -25.8281  -18.0196 N   0  0  0  0  0  0  0  0  0  0  0  0
   31.6885  -24.9590  -17.8029 N   0  0  0  0  0  0  0  0  0  0  0  0
   30.4098  -24.9786  -17.0696 C   0  0  0  0  0  0  0  0  0  0  0  0
   30.2798  -23.6529  -16.4125 C   0  0  0  0  0  0  0  0  0  0  0  0
   28.9715  -22.9671  -16.5180 C   0  0  0  0  0  0  0  0  0  0  0  0
   27.8813  -23.4386  -15.6293 C   0  0  2  0  0  0  0  0  0  0  0  0
   27.3403  -24.7170  -15.9692 N   0  0  0  0  0  0  0  0  0  0  0  0
   26.7615  -22.4475  -15.6958 C   0  0  0  0  0  0  0  0  0  0  0  0
   26.9710  -21.2026  -15.5056 O   0  0  0  0  0  0  0  0  0  0  0  0
   33.8283  -25.7016  -19.0350 N   0  0  0  0  0  0  0  0  0  0  0  0
   25.4283  -22.8706  -15.9747 C   0  0  1  0  0  0  0  0  0  0  0  0
   24.3110  -21.9967  -16.1389 C   0  0  0  0  0  0  0  0  0  0  0  0
   23.5121  -22.2217  -17.3558 C   0  0  0  0  0  0  0  0  0  0  0  0
   23.2355  -23.5190  -17.9397 C   0  0  0  0  0  0  0  0  0  0  0  0
   22.0453  -24.3085  -17.6541 C   0  0  0  0  0  0  0  0  0  0  0  0
   21.8806  -25.6389  -18.2874 N   0  0  0  0  0  0  0  0  0  0  0  0
   20.6373  -26.2795  -17.8503 C   0  0  0  0  0  0  0  0  0  0  0  0
   23.5238  -21.6667  -14.9466 O   0  0  0  0  0  0  0  0  0  0  0  0
   23.3287  -22.5746  -14.0690 N   0  0  0  0  0  0  0  0  0  0  0  0
   22.9372  -20.3971  -14.6680 C   0  0  1  0  0  0  0  0  0  0  0  0
   22.2788  -20.1744  -13.3979 C   0  0  0  0  0  0  0  0  0  0  0  0
   23.0450  -19.2621  -12.4970 C   0  0  0  0  0  0  0  0  0  0  0  0
   23.9495  -19.9278  -11.5532 C   0  0  0  0  0  0  0  0  0  0  0  0
   23.4632  -20.2711  -10.3078 C   0  0  0  0  0  0  0  0  0  0  0  0
   24.2859  -20.8859   -9.4193 C   0  0  0  0  0  0  0  0  0  0  0  0
   25.5929  -21.1815   -9.7143 C   0  0  0  0  0  0  0  0  0  0  0  0
   26.0811  -20.8409  -10.9543 C   0  0  0  0  0  0  0  0  0  0  0  0
   25.2787  -20.2186  -11.8776 C   0  0  0  0  0  0  0  0  0  0  0  0
   20.9283  -19.6131  -13.6679 O   0  0  0  0  0  0  0  0  0  0  0  0
   20.6112  -19.2254  -14.8075 O   0  0  0  0  0  0  0  0  0  0  0  0
  1  2  1  0
  2  3  2  0
  4  2  1  0
  4  5  1  0
  6  5  1  0
  7  8  1  0
  7  6  1  0
  8  9  1  6
 10  8  1  0
 11 10  2  0
 12 10  1  0
 13 19  1  0
 13 12  1  0
 14 15  1  0
 13 14  1  6
 15 16  1  0
 17 16  1  0
 17 18  1  0
 19 21  1  0
 20 19  2  0
 21 22  1  0
 22 30  1  0
 22 23  1  1
 24 23  1  0
 24 29  2  0
 25 24  1  0
 26 25  2  0
 26 27  1  0
 27 28  2  0
 28 29  1  0
 30 31  2  0
 30 32  1  0
M  END
$$$$
