RKF.pdb
     RDKit          3D

 32 32  0  0  1  0  0  0  0  0999 V2000
   28.6555  -20.6609  -14.2483 N   0  0  0  0  0  0  0  0  0  0  0  0
   27.6906  -19.9642  -15.0085 C   0  0  0  0  0  0  0  0  0  0  0  0
   27.5969  -18.6774  -14.9407 N   0  0  0  0  0  0  0  0  0  0  0  0
   26.7877  -20.6541  -15.8765 N   0  0  0  0  0  0  0  0  0  0  0  0
   26.5013  -22.0888  -15.6957 C   0  0  0  0  0  0  0  0  0  0  0  0
   25.5516  -22.1894  -14.5582 C   0  0  0  0  0  0  0  0  0  0  0  0
   25.0583  -23.5396  -14.2016 C   0  0  0  0  0  0  0  0  0  0  0  0
   24.1917  -24.2308  -15.1874 C   0  0  2  0  0  0  0  0  0  0  0  0
   24.3570  -23.7982  -16.5394 N   0  0  0  0  0  0  0  0  0  0  0  0
   22.7644  -23.9834  -14.8103 C   0  0  0  0  0  0  0  0  0  0  0  0
   22.0266  -23.2018  -15.4994 O   0  0  0  0  0  0  0  0  0  0  0  0
   26.8982  -18.1164  -15.4349 N   0  0  0  0  0  0  0  0  0  0  0  0
   22.1910  -24.6170  -13.6684 C   0  0  2  0  0  0  0  0  0  0  0  0
   20.9272  -24.2802  -13.0953 C   0  0  0  0  0  0  0  0  0  0  0  0
   20.4692  -25.1737  -12.0175 C   0  0  0  0  0  0  0  0  0  0  0  0
   19.3814  -26.1244  -12.1326 C   0  0  0  0  0  0  0  0  0  0  0  0
   19.5089  -27.5507  -11.8664 C   0  0  0  0  0  0  0  0  0  0  0  0
   18.7715  -28.1514  -10.7292 N   0  0  0  0  0  0  0  0  0  0  0  0
   19.0257  -29.5918  -10.6391 C   0  0  0  0  0  0  0  0  0  0  0  0
   20.6372  -22.8602  -12.8730 O   0  0  0  0  0  0  0  0  0  0  0  0
   21.0669  -22.3055  -11.8052 N   0  0  0  0  0  0  0  0  0  0  0  0
   19.8991  -22.0186  -13.7565 C   0  0  1  0  0  0  0  0  0  0  0  0
   19.7748  -20.6059  -13.4647 C   0  0  0  0  0  0  0  0  0  0  0  0
   21.0367  -19.8467  -13.7144 C   0  0  0  0  0  0  0  0  0  0  0  0
   22.0959  -20.0471  -12.7195 C   0  0  0  0  0  0  0  0  0  0  0  0
   23.2831  -20.6194  -13.1297 C   0  0  0  0  0  0  0  0  0  0  0  0
   24.2748  -20.8154  -12.2228 C   0  0  0  0  0  0  0  0  0  0  0  0
   24.1410  -20.4634  -10.9035 C   0  0  0  0  0  0  0  0  0  0  0  0
   22.9594  -19.8929  -10.4909 C   0  0  0  0  0  0  0  0  0  0  0  0
   21.9354  -19.6797  -11.3794 C   0  0  0  0  0  0  0  0  0  0  0  0
   18.6720  -20.0557  -14.2971 O   0  0  0  0  0  0  0  0  0  0  0  0
   18.2706  -18.8882  -14.1389 O   0  0  0  0  0  0  0  0  0  0  0  0
  1  2  1  0
  2  3  2  0
  4  2  1  0
  4  5  1  0
  6  5  1  0
  7  8  1  0
  7  6  1  0
  8  9  1  6
 10  8  1  0
 11 10  2  0
 12 10  1  0
 13 19  1  0
 13 12  1  0
 14 15  1  0
 13 14  1  6
 15 16  1  0
 17 16  1  0
 17 18  1  0
 19 21  1  0
 20 19  2  0
 21 22  1  0
 22 30  1  0
 22 23  1  1
 24 23  1  0
 24 29  2  0
 25 24  1  0
 26 25  2  0
 26 27  1  0
 27 28  2  0
 28 29  1  0
 30 31  2  0
 30 32  1  0
M  END
$$$$
