RKF.pdb
     RDKit          3D

 32 32  0  0  1  0  0  0  0  0999 V2000
   26.6320  -29.4675  -17.4323 N   0  0  0  0  0  0  0  0  0  0  0  0
   25.2943  -29.6799  -17.8318 C   0  0  0  0  0  0  0  0  0  0  0  0
   24.8493  -30.8734  -18.0486 N   0  0  0  0  0  0  0  0  0  0  0  0
   24.3886  -28.5878  -18.0094 N   0  0  0  0  0  0  0  0  0  0  0  0
   24.8558  -27.1910  -17.9476 C   0  0  0  0  0  0  0  0  0  0  0  0
   24.6539  -26.7401  -16.5469 C   0  0  0  0  0  0  0  0  0  0  0  0
   24.4710  -25.2881  -16.3197 C   0  0  0  0  0  0  0  0  0  0  0  0
   25.3419  -24.3634  -17.0859 C   0  0  2  0  0  0  0  0  0  0  0  0
   26.4912  -24.9730  -17.6775 N   0  0  0  0  0  0  0  0  0  0  0  0
   25.8307  -23.2998  -16.1529 C   0  0  0  0  0  0  0  0  0  0  0  0
   26.7167  -23.5541  -15.2696 O   0  0  0  0  0  0  0  0  0  0  0  0
   23.8831  -31.0994  -18.2987 N   0  0  0  0  0  0  0  0  0  0  0  0
   25.3173  -21.9712  -16.2280 C   0  0  1  0  0  0  0  0  0  0  0  0
   25.6667  -20.9087  -15.3402 C   0  0  0  0  0  0  0  0  0  0  0  0
   25.4212  -19.5519  -15.8586 C   0  0  0  0  0  0  0  0  0  0  0  0
   26.1330  -18.9440  -16.9651 C   0  0  0  0  0  0  0  0  0  0  0  0
   27.5470  -19.1546  -17.2437 C   0  0  0  0  0  0  0  0  0  0  0  0
   28.1571  -18.5315  -18.4426 N   0  0  0  0  0  0  0  0  0  0  0  0
   29.5818  -18.8605  -18.5394 C   0  0  0  0  0  0  0  0  0  0  0  0
   25.3586  -21.0813  -13.9172 O   0  0  0  0  0  0  0  0  0  0  0  0
   24.1429  -21.2659  -13.5701 N   0  0  0  0  0  0  0  0  0  0  0  0
   26.3110  -21.0588  -12.8559 C   0  0  1  0  0  0  0  0  0  0  0  0
   25.8575  -20.9209  -11.4880 C   0  0  0  0  0  0  0  0  0  0  0  0
   26.9525  -20.5367  -10.5475 C   0  0  0  0  0  0  0  0  0  0  0  0
   26.5425  -20.3485   -9.1517 C   0  0  0  0  0  0  0  0  0  0  0  0
   26.7534  -19.1169   -8.5651 C   0  0  0  0  0  0  0  0  0  0  0  0
   26.3828  -18.9239   -7.2729 C   0  0  0  0  0  0  0  0  0  0  0  0
   25.8019  -19.9142   -6.5217 C   0  0  0  0  0  0  0  0  0  0  0  0
   25.5901  -21.1428   -7.1027 C   0  0  0  0  0  0  0  0  0  0  0  0
   25.9519  -21.3742   -8.4062 C   0  0  0  0  0  0  0  0  0  0  0  0
   24.7752  -19.9014  -11.4588 O   0  0  0  0  0  0  0  0  0  0  0  0
   24.8795  -18.8372  -12.0961 O   0  0  0  0  0  0  0  0  0  0  0  0
  1  2  1  0
  2  3  2  0
  4  2  1  0
  4  5  1  0
  6  5  1  0
  7  8  1  0
  7  6  1  0
  8  9  1  1
 10  8  1  0
 11 10  2  0
 12 10  1  0
 13 19  1  0
 13 12  1  0
 14 15  1  0
 13 14  1  1
 15 16  1  0
 17 16  1  0
 17 18  1  0
 19 21  1  0
 20 19  2  0
 21 22  1  0
 22 30  1  0
 22 23  1  1
 24 23  1  0
 24 29  2  0
 25 24  1  0
 26 25  2  0
 26 27  1  0
 27 28  2  0
 28 29  1  0
 30 31  2  0
 30 32  1  0
M  END
$$$$
