RKF.pdb
     RDKit          3D

 32 32  0  0  1  0  0  0  0  0999 V2000
   31.3458  -16.3870  -18.1978 N   0  0  0  0  0  0  0  0  0  0  0  0
   31.2631  -17.6532  -18.8175 C   0  0  0  0  0  0  0  0  0  0  0  0
   32.2248  -18.0907  -19.5613 N   0  0  0  0  0  0  0  0  0  0  0  0
   30.1185  -18.4927  -18.6446 N   0  0  0  0  0  0  0  0  0  0  0  0
   29.0385  -18.1276  -17.7100 C   0  0  0  0  0  0  0  0  0  0  0  0
   29.6441  -18.1037  -16.3540 C   0  0  0  0  0  0  0  0  0  0  0  0
   28.9944  -18.9219  -15.3045 C   0  0  0  0  0  0  0  0  0  0  0  0
   27.5362  -19.1622  -15.4330 C   0  0  2  0  0  0  0  0  0  0  0  0
   26.8323  -18.1852  -16.2026 N   0  0  0  0  0  0  0  0  0  0  0  0
   26.9394  -19.1644  -14.0602 C   0  0  0  0  0  0  0  0  0  0  0  0
   26.8586  -18.0903  -13.3749 O   0  0  0  0  0  0  0  0  0  0  0  0
   32.2200  -18.9881  -20.0531 N   0  0  0  0  0  0  0  0  0  0  0  0
   26.4443  -20.3705  -13.4819 C   0  0  1  0  0  0  0  0  0  0  0  0
   25.6022  -20.4392  -12.3306 C   0  0  0  0  0  0  0  0  0  0  0  0
   24.2712  -21.0265  -12.5612 C   0  0  0  0  0  0  0  0  0  0  0  0
   23.2072  -21.0843  -11.5788 C   0  0  0  0  0  0  0  0  0  0  0  0
   21.9210  -21.7303  -11.8019 C   0  0  0  0  0  0  0  0  0  0  0  0
   20.8468  -21.5903  -10.7897 N   0  0  0  0  0  0  0  0  0  0  0  0
   20.9173  -22.6643   -9.7954 C   0  0  0  0  0  0  0  0  0  0  0  0
   26.2211  -20.8161  -11.0559 O   0  0  0  0  0  0  0  0  0  0  0  0
   27.2231  -21.6088  -11.0705 N   0  0  0  0  0  0  0  0  0  0  0  0
   25.7979  -20.3734   -9.7680 C   0  0  1  0  0  0  0  0  0  0  0  0
   26.5566  -20.7519   -8.5945 C   0  0  0  0  0  0  0  0  0  0  0  0
   27.4271  -19.6506   -8.0839 C   0  0  0  0  0  0  0  0  0  0  0  0
   28.0532  -19.8997   -6.7809 C   0  0  0  0  0  0  0  0  0  0  0  0
   29.2712  -20.5486   -6.7503 C   0  0  0  0  0  0  0  0  0  0  0  0
   29.8655  -20.7905   -5.5535 C   0  0  0  0  0  0  0  0  0  0  0  0
   29.2973  -20.4116   -4.3635 C   0  0  0  0  0  0  0  0  0  0  0  0
   28.0837  -19.7648   -4.3899 C   0  0  0  0  0  0  0  0  0  0  0  0
   27.4537  -19.5035   -5.5807 C   0  0  0  0  0  0  0  0  0  0  0  0
   25.5982  -21.1786   -7.5404 O   0  0  0  0  0  0  0  0  0  0  0  0
   24.4358  -20.7342   -7.5129 O   0  0  0  0  0  0  0  0  0  0  0  0
  1  2  1  0
  2  3  2  0
  4  2  1  0
  4  5  1  0
  6  5  1  0
  7  8  1  0
  7  6  1  0
  8  9  1  6
 10  8  1  0
 11 10  2  0
 12 10  1  0
 13 19  1  0
 13 12  1  0
 14 15  1  0
 13 14  1  6
 15 16  1  0
 17 16  1  0
 17 18  1  0
 19 21  1  0
 20 19  2  0
 21 22  1  0
 22 30  1  0
 22 23  1  1
 24 23  1  0
 24 29  2  0
 25 24  1  0
 26 25  2  0
 26 27  1  0
 27 28  2  0
 28 29  1  0
 30 31  2  0
 30 32  1  0
M  END
$$$$
