RKF.pdb
     RDKit          3D

 32 32  0  0  1  0  0  0  0  0999 V2000
   26.9792  -27.2297  -16.0296 N   0  0  0  0  0  0  0  0  0  0  0  0
   25.7761  -27.8106  -16.4874 C   0  0  0  0  0  0  0  0  0  0  0  0
   25.6054  -29.0909  -16.4575 N   0  0  0  0  0  0  0  0  0  0  0  0
   24.7090  -27.0069  -16.9973 N   0  0  0  0  0  0  0  0  0  0  0  0
   24.7375  -25.5376  -16.8815 C   0  0  0  0  0  0  0  0  0  0  0  0
   23.6928  -25.1721  -15.8910 C   0  0  0  0  0  0  0  0  0  0  0  0
   22.4403  -24.5776  -16.4118 C   0  0  0  0  0  0  0  0  0  0  0  0
   21.8980  -23.3963  -15.6970 C   0  0  2  0  0  0  0  0  0  0  0  0
   22.7629  -22.8488  -14.6997 N   0  0  0  0  0  0  0  0  0  0  0  0
   20.6300  -23.8041  -15.0139 C   0  0  0  0  0  0  0  0  0  0  0  0
   19.6317  -24.2374  -15.6813 O   0  0  0  0  0  0  0  0  0  0  0  0
   24.7652  -29.5753  -16.7842 N   0  0  0  0  0  0  0  0  0  0  0  0
   20.5053  -23.7187  -13.5957 C   0  0  1  0  0  0  0  0  0  0  0  0
   19.3289  -24.0501  -12.8572 C   0  0  0  0  0  0  0  0  0  0  0  0
   19.5594  -24.4620  -11.4619 C   0  0  0  0  0  0  0  0  0  0  0  0
   18.5265  -24.8957  -10.5424 C   0  0  0  0  0  0  0  0  0  0  0  0
   18.7610  -25.2227   -9.1426 C   0  0  0  0  0  0  0  0  0  0  0  0
   17.6464  -25.7458   -8.3168 N   0  0  0  0  0  0  0  0  0  0  0  0
   18.0414  -25.8588   -6.9103 C   0  0  0  0  0  0  0  0  0  0  0  0
   18.1417  -23.2128  -13.0562 O   0  0  0  0  0  0  0  0  0  0  0  0
   18.1988  -21.9789  -12.7295 N   0  0  0  0  0  0  0  0  0  0  0  0
   16.8963  -23.6570  -13.5904 C   0  0  1  0  0  0  0  0  0  0  0  0
   15.8113  -22.7136  -13.7601 C   0  0  0  0  0  0  0  0  0  0  0  0
   15.2941  -22.6670  -15.1606 C   0  0  0  0  0  0  0  0  0  0  0  0
   16.1141  -21.9019  -16.1062 C   0  0  0  0  0  0  0  0  0  0  0  0
   17.2777  -22.4741  -16.5796 C   0  0  0  0  0  0  0  0  0  0  0  0
   18.0515  -21.7805  -17.4539 C   0  0  0  0  0  0  0  0  0  0  0  0
   17.7186  -20.5224  -17.8884 C   0  0  0  0  0  0  0  0  0  0  0  0
   16.5599  -19.9489  -17.4189 C   0  0  0  0  0  0  0  0  0  0  0  0
   15.7532  -20.6201  -16.5345 C   0  0  0  0  0  0  0  0  0  0  0  0
   14.7196  -23.0889  -12.8225 O   0  0  0  0  0  0  0  0  0  0  0  0
   14.8450  -24.0533  -12.0455 O   0  0  0  0  0  0  0  0  0  0  0  0
  1  2  1  0
  2  3  2  0
  4  2  1  0
  4  5  1  0
  6  5  1  0
  7  8  1  0
  7  6  1  0
  8  9  1  1
 10  8  1  0
 11 10  2  0
 12 10  1  0
 13 19  1  0
 13 12  1  0
 14 15  1  0
 13 14  1  6
 15 16  1  0
 17 16  1  0
 17 18  1  0
 19 21  1  0
 20 19  2  0
 21 22  1  0
 22 30  1  0
 22 23  1  1
 24 23  1  0
 24 29  2  0
 25 24  1  0
 26 25  2  0
 26 27  1  0
 27 28  2  0
 28 29  1  0
 30 31  2  0
 30 32  1  0
M  END
$$$$
