RKF.pdb
     RDKit          3D

 32 32  0  0  1  0  0  0  0  0999 V2000
   17.2661  -17.9825  -17.1381 N   0  0  0  0  0  0  0  0  0  0  0  0
   18.3130  -17.6176  -18.0128 C   0  0  0  0  0  0  0  0  0  0  0  0
   18.3963  -18.1297  -19.1961 N   0  0  0  0  0  0  0  0  0  0  0  0
   19.3131  -16.6729  -17.6227 N   0  0  0  0  0  0  0  0  0  0  0  0
   19.0319  -15.6375  -16.6118 C   0  0  0  0  0  0  0  0  0  0  0  0
   19.1389  -14.3292  -17.3067 C   0  0  0  0  0  0  0  0  0  0  0  0
   18.8997  -13.1098  -16.5011 C   0  0  0  0  0  0  0  0  0  0  0  0
   17.5990  -12.4193  -16.6795 C   0  0  2  0  0  0  0  0  0  0  0  0
   16.9237  -12.7179  -17.9032 N   0  0  0  0  0  0  0  0  0  0  0  0
   17.8453  -10.9431  -16.6537 C   0  0  0  0  0  0  0  0  0  0  0  0
   18.5839  -10.3826  -17.5314 O   0  0  0  0  0  0  0  0  0  0  0  0
   19.0835  -17.8560  -19.9032 N   0  0  0  0  0  0  0  0  0  0  0  0
   17.2586  -10.1230  -15.6450 C   0  0  1  0  0  0  0  0  0  0  0  0
   17.4899   -8.7220  -15.4939 C   0  0  0  0  0  0  0  0  0  0  0  0
   16.2777   -7.8855  -15.4673 C   0  0  0  0  0  0  0  0  0  0  0  0
   16.2679   -6.4406  -15.3557 C   0  0  0  0  0  0  0  0  0  0  0  0
   15.0579   -5.6330  -15.2843 C   0  0  0  0  0  0  0  0  0  0  0  0
   15.1676   -4.1579  -15.1846 N   0  0  0  0  0  0  0  0  0  0  0  0
   13.8430   -3.5316  -15.1670 C   0  0  0  0  0  0  0  0  0  0  0  0
   18.5396   -8.3020  -14.5603 O   0  0  0  0  0  0  0  0  0  0  0  0
   18.3603   -8.4907  -13.3094 N   0  0  0  0  0  0  0  0  0  0  0  0
   19.7720   -7.6839  -14.9250 C   0  0  1  0  0  0  0  0  0  0  0  0
   20.7023   -7.2755  -13.8936 C   0  0  0  0  0  0  0  0  0  0  0  0
   21.8634   -8.2050  -13.7555 C   0  0  0  0  0  0  0  0  0  0  0  0
   22.2338   -8.9303  -14.9756 C   0  0  0  0  0  0  0  0  0  0  0  0
   22.7873   -8.2186  -16.0209 C   0  0  0  0  0  0  0  0  0  0  0  0
   23.1346   -8.8718  -17.1597 C   0  0  0  0  0  0  0  0  0  0  0  0
   22.9550  -10.2234  -17.3126 C   0  0  0  0  0  0  0  0  0  0  0  0
   22.4037  -10.9361  -16.2733 C   0  0  0  0  0  0  0  0  0  0  0  0
   22.0407  -10.3094  -15.1076 C   0  0  0  0  0  0  0  0  0  0  0  0
   21.1789   -5.9040  -14.2156 O   0  0  0  0  0  0  0  0  0  0  0  0
   21.9013   -5.2735  -13.4220 O   0  0  0  0  0  0  0  0  0  0  0  0
  1  2  1  0
  2  3  2  0
  4  2  1  0
  4  5  1  0
  6  5  1  0
  7  8  1  0
  7  6  1  0
  8  9  1  6
 10  8  1  0
 11 10  2  0
 12 10  1  0
 13 19  1  0
 13 12  1  0
 14 15  1  0
 13 14  1  6
 15 16  1  0
 17 16  1  0
 17 18  1  0
 19 21  1  0
 20 19  2  0
 21 22  1  0
 22 30  1  0
 22 23  1  1
 24 23  1  0
 24 29  2  0
 25 24  1  0
 26 25  2  0
 26 27  1  0
 27 28  2  0
 28 29  1  0
 30 31  2  0
 30 32  1  0
M  END
$$$$
