RKF.pdb
     RDKit          3D

 32 32  0  0  1  0  0  0  0  0999 V2000
   30.7195  -22.8258  -17.2068 N   0  0  0  0  0  0  0  0  0  0  0  0
   29.7626  -23.6705  -17.8111 C   0  0  0  0  0  0  0  0  0  0  0  0
   30.1099  -24.5219  -18.7189 N   0  0  0  0  0  0  0  0  0  0  0  0
   28.3824  -23.6148  -17.4418 N   0  0  0  0  0  0  0  0  0  0  0  0
   27.9197  -22.7417  -16.3479 C   0  0  0  0  0  0  0  0  0  0  0  0
   27.9204  -21.3567  -16.8844 C   0  0  0  0  0  0  0  0  0  0  0  0
   26.6786  -20.5654  -16.7260 C   0  0  0  0  0  0  0  0  0  0  0  0
   25.3893  -21.2798  -16.8929 C   0  0  2  0  0  0  0  0  0  0  0  0
   25.1342  -21.7568  -18.2157 N   0  0  0  0  0  0  0  0  0  0  0  0
   24.2824  -20.3374  -16.5364 C   0  0  0  0  0  0  0  0  0  0  0  0
   24.2748  -19.7228  -15.4174 O   0  0  0  0  0  0  0  0  0  0  0  0
   29.4662  -25.1516  -19.2050 N   0  0  0  0  0  0  0  0  0  0  0  0
   23.2054  -20.1013  -17.4411 C   0  0  2  0  0  0  0  0  0  0  0  0
   22.0744  -19.2737  -17.1672 C   0  0  0  0  0  0  0  0  0  0  0  0
   21.2490  -18.9318  -18.3383 C   0  0  0  0  0  0  0  0  0  0  0  0
   20.0907  -18.0611  -18.3125 C   0  0  0  0  0  0  0  0  0  0  0  0
   19.2809  -17.7409  -19.4800 C   0  0  0  0  0  0  0  0  0  0  0  0
   18.1569  -16.7828  -19.3503 N   0  0  0  0  0  0  0  0  0  0  0  0
   17.6157  -16.4256  -20.6643 C   0  0  0  0  0  0  0  0  0  0  0  0
   21.3125  -19.5451  -15.9441 O   0  0  0  0  0  0  0  0  0  0  0  0
   21.0202  -20.7557  -15.6586 N   0  0  0  0  0  0  0  0  0  0  0  0
   20.8519  -18.5606  -15.0209 C   0  0  1  0  0  0  0  0  0  0  0  0
   20.1482  -18.9727  -13.8246 C   0  0  0  0  0  0  0  0  0  0  0  0
   20.7135  -18.3703  -12.5801 C   0  0  0  0  0  0  0  0  0  0  0  0
   19.9678  -18.6581  -11.3500 C   0  0  0  0  0  0  0  0  0  0  0  0
   20.3154  -19.7748  -10.6168 C   0  0  0  0  0  0  0  0  0  0  0  0
   19.6352  -20.0594   -9.4764 C   0  0  0  0  0  0  0  0  0  0  0  0
   18.6071  -19.2731   -9.0211 C   0  0  0  0  0  0  0  0  0  0  0  0
   18.2578  -18.1595   -9.7490 C   0  0  0  0  0  0  0  0  0  0  0  0
   18.9229  -17.8408  -10.9063 C   0  0  0  0  0  0  0  0  0  0  0  0
   18.7180  -18.5934  -13.9740 O   0  0  0  0  0  0  0  0  0  0  0  0
   18.3850  -17.6004  -14.6467 O   0  0  0  0  0  0  0  0  0  0  0  0
  1  2  1  0
  2  3  2  0
  4  2  1  0
  4  5  1  0
  6  5  1  0
  7  8  1  0
  7  6  1  0
  8  9  1  6
 10  8  1  0
 11 10  2  0
 12 10  1  0
 13 19  1  0
 13 12  1  0
 14 15  1  0
 13 14  1  6
 15 16  1  0
 17 16  1  0
 17 18  1  0
 19 21  1  0
 20 19  2  0
 21 22  1  0
 22 30  1  0
 22 23  1  6
 24 23  1  0
 24 29  2  0
 25 24  1  0
 26 25  2  0
 26 27  1  0
 27 28  2  0
 28 29  1  0
 30 31  2  0
 30 32  1  0
M  END
$$$$
