YNW.pdb
     RDKit          3D

 35 37  0  0  1  0  0  0  0  0999 V2000
   17.4747  -14.9503  -17.3028 O   0  0  0  0  0  0  0  0  0  0  0  0
   17.9356  -13.6979  -16.9089 C   0  0  0  0  0  0  0  0  0  0  0  0
   18.2552  -12.7644  -17.9031 C   0  0  0  0  0  0  0  0  0  0  0  0
   18.7152  -11.5128  -17.5496 C   0  0  0  0  0  0  0  0  0  0  0  0
   18.8575  -11.1882  -16.2255 C   0  0  0  0  0  0  0  0  0  0  0  0
   19.3480   -9.8507  -15.8467 C   0  0  0  0  0  0  0  0  0  0  0  0
   20.8746   -9.8211  -15.9852 C   0  0  2  0  0  0  0  0  0  0  0  0
   21.4838  -10.7458  -15.0865 N   0  0  0  0  0  0  0  0  0  0  0  0
   21.3374   -8.4165  -15.7058 C   0  0  0  0  0  0  0  0  0  0  0  0
   21.4207   -8.0241  -14.5307 O   0  0  0  0  0  0  0  0  0  0  0  0
   18.5395  -12.1164  -15.2575 C   0  0  0  0  0  0  0  0  0  0  0  0
   18.0765  -13.3772  -15.5843 C   0  0  0  0  0  0  0  0  0  0  0  0
   24.8598   -6.9774  -15.9824 N   0  0  0  0  0  0  0  0  0  0  0  0
   24.5633   -6.4386  -17.2954 C   0  0  0  0  0  0  0  0  0  0  0  0
   25.4956   -6.4536  -18.0871 O   0  0  0  0  0  0  0  0  0  0  0  0
   23.2409   -5.9579  -17.5168 C   0  0  0  0  0  0  0  0  0  0  0  0
   22.1366   -6.1631  -16.5581 C   0  0  2  0  0  0  0  0  0  0  0  0
   21.6692   -7.5696  -16.7888 N   0  0  0  0  0  0  0  0  0  0  0  0
   20.9793   -5.2747  -16.6037 C   0  0  0  0  0  0  0  0  0  0  0  0
   20.7892   -4.5474  -17.6590 O   0  0  0  0  0  0  0  0  0  0  0  0
   20.0003   -5.0983  -15.6215 N   0  0  0  0  0  0  0  0  0  0  0  0
   18.5808   -4.8614  -15.9848 C   0  0  1  0  0  0  0  0  0  0  0  0
   18.2377   -6.0434  -16.8413 C   0  0  0  0  0  0  0  0  0  0  0  0
   16.8459   -6.0229  -17.3091 C   0  0  0  0  0  0  0  0  0  0  0  0
   16.3484   -5.3100  -18.4164 C   0  0  0  0  0  0  0  0  0  0  0  0
   15.0272   -5.5055  -18.5186 N   0  0  0  0  0  0  0  0  0  0  0  0
   14.5922   -6.3214  -17.5322 C   0  0  0  0  0  0  0  0  0  0  0  0
   13.3361   -6.8132  -17.2441 C   0  0  0  0  0  0  0  0  0  0  0  0
   13.2092   -7.6573  -16.1674 C   0  0  0  0  0  0  0  0  0  0  0  0
   14.3208   -7.9831  -15.4184 C   0  0  0  0  0  0  0  0  0  0  0  0
   15.5636   -7.4855  -15.7165 C   0  0  0  0  0  0  0  0  0  0  0  0
   15.7255   -6.6368  -16.7884 C   0  0  0  0  0  0  0  0  0  0  0  0
   17.7571   -4.7338  -14.7806 C   0  0  0  0  0  0  0  0  0  0  0  0
   18.0983   -5.3851  -13.7374 O   0  0  0  0  0  0  0  0  0  0  0  0
   16.6268   -3.9536  -14.6663 O   0  0  0  0  0  0  0  0  0  0  0  0
  2  1  1  0
  3  2  2  0
  4  3  1  0
  5 11  1  0
  5  4  2  0
  6  5  1  0
  7  8  1  1
  7  6  1  0
  9  7  1  0
 10  9  2  0
 11 12  2  0
 12  2  1  0
 13 14  1  0
 14 15  2  0
 14 16  1  0
 17 16  1  6
 17 19  1  0
 17 18  1  0
 18  9  1  0
 19 21  1  0
 20 19  2  0
 21 22  1  0
 22 23  1  6
 22 33  1  0
 24 23  1  0
 25 24  2  0
 26 27  1  0
 26 25  1  0
 27 32  2  0
 28 27  1  0
 28 29  2  0
 29 30  1  0
 30 31  2  0
 32 24  1  0
 32 31  1  0
 33 34  2  0
 33 35  1  0
M  END
$$$$
