YNW.pdb
     RDKit          3D

 35 37  0  0  1  0  0  0  0  0999 V2000
   15.5316  -10.8376    2.2143 O   0  0  0  0  0  0  0  0  0  0  0  0
   16.1071  -11.9278    2.8597 C   0  0  0  0  0  0  0  0  0  0  0  0
   17.4297  -11.8133    3.3066 C   0  0  0  0  0  0  0  0  0  0  0  0
   18.0327  -12.8739    3.9503 C   0  0  0  0  0  0  0  0  0  0  0  0
   17.3341  -14.0363    4.1496 C   0  0  0  0  0  0  0  0  0  0  0  0
   17.9773  -15.1699    4.8383 C   0  0  0  0  0  0  0  0  0  0  0  0
   17.6014  -15.1295    6.3242 C   0  0  2  0  0  0  0  0  0  0  0  0
   18.1094  -13.9499    6.9442 N   0  0  0  0  0  0  0  0  0  0  0  0
   18.1630  -16.3638    6.9771 C   0  0  0  0  0  0  0  0  0  0  0  0
   19.1882  -16.2738    7.6717 O   0  0  0  0  0  0  0  0  0  0  0  0
   16.0334  -14.1354    3.7045 C   0  0  0  0  0  0  0  0  0  0  0  0
   15.4055  -13.0879    3.0570 C   0  0  0  0  0  0  0  0  0  0  0  0
   19.4232  -19.7279   10.3260 N   0  0  0  0  0  0  0  0  0  0  0  0
   18.0560  -19.3245   10.0613 C   0  0  0  0  0  0  0  0  0  0  0  0
   17.2159  -19.8133   10.8038 O   0  0  0  0  0  0  0  0  0  0  0  0
   17.8432  -18.4184    8.9831 C   0  0  0  0  0  0  0  0  0  0  0  0
   17.9168  -18.8210    7.5642 C   0  0  2  0  0  0  0  0  0  0  0  0
   17.5107  -17.6042    6.7867 N   0  0  0  0  0  0  0  0  0  0  0  0
   17.1214  -19.9547    7.1032 C   0  0  0  0  0  0  0  0  0  0  0  0
   16.0160  -20.2357    7.7179 O   0  0  0  0  0  0  0  0  0  0  0  0
   17.3998  -20.8142    6.0364 N   0  0  0  0  0  0  0  0  0  0  0  0
   17.6537  -22.2595    6.2598 C   0  0  1  0  0  0  0  0  0  0  0  0
   18.8389  -22.5448    5.3868 C   0  0  0  0  0  0  0  0  0  0  0  0
   18.4601  -22.9719    4.0338 C   0  0  0  0  0  0  0  0  0  0  0  0
   17.3956  -22.4630    3.2659 C   0  0  0  0  0  0  0  0  0  0  0  0
   17.3345  -23.1146    2.0971 N   0  0  0  0  0  0  0  0  0  0  0  0
   18.3092  -24.0487    2.0249 C   0  0  0  0  0  0  0  0  0  0  0  0
   18.6477  -24.9368    1.0253 C   0  0  0  0  0  0  0  0  0  0  0  0
   19.7250  -25.7625    1.2388 C   0  0  0  0  0  0  0  0  0  0  0  0
   20.4248  -25.6819    2.4247 C   0  0  0  0  0  0  0  0  0  0  0  0
   20.0758  -24.7941    3.4102 C   0  0  0  0  0  0  0  0  0  0  0  0
   19.0013  -23.9527    3.2286 C   0  0  0  0  0  0  0  0  0  0  0  0
   17.8778  -22.5274    7.6821 C   0  0  0  0  0  0  0  0  0  0  0  0
   18.9286  -22.0564    8.2324 O   0  0  0  0  0  0  0  0  0  0  0  0
   17.0373  -23.2517    8.4995 O   0  0  0  0  0  0  0  0  0  0  0  0
  2  1  1  0
  3  2  2  0
  4  3  1  0
  5 11  1  0
  5  4  2  0
  6  5  1  0
  7  8  1  1
  7  6  1  0
  9  7  1  0
 10  9  2  0
 11 12  2  0
 12  2  1  0
 13 14  1  0
 14 15  2  0
 14 16  1  0
 17 16  1  1
 17 19  1  0
 17 18  1  0
 18  9  1  0
 19 21  1  0
 20 19  2  0
 21 22  1  0
 22 23  1  6
 22 33  1  0
 24 23  1  0
 25 24  2  0
 26 27  1  0
 26 25  1  0
 27 32  2  0
 28 27  1  0
 28 29  2  0
 29 30  1  0
 30 31  2  0
 32 24  1  0
 32 31  1  0
 33 34  2  0
 33 35  1  0
M  END
$$$$
