YNW.pdb
     RDKit          3D

 35 37  0  0  1  0  0  0  0  0999 V2000
   31.4183  -16.2349  -19.8606 O   0  0  0  0  0  0  0  0  0  0  0  0
   30.5583  -16.4145  -18.7816 C   0  0  0  0  0  0  0  0  0  0  0  0
   31.1058  -16.8066  -17.5533 C   0  0  0  0  0  0  0  0  0  0  0  0
   30.2833  -16.9944  -16.4619 C   0  0  0  0  0  0  0  0  0  0  0  0
   28.9326  -16.7961  -16.5846 C   0  0  0  0  0  0  0  0  0  0  0  0
   28.0529  -16.9954  -15.4186 C   0  0  0  0  0  0  0  0  0  0  0  0
   28.0620  -18.4797  -15.0344 C   0  0  2  0  0  0  0  0  0  0  0  0
   27.6817  -19.2930  -16.1425 N   0  0  0  0  0  0  0  0  0  0  0  0
   27.1125  -18.6649  -13.8815 C   0  0  0  0  0  0  0  0  0  0  0  0
   27.1244  -17.8504  -12.9444 O   0  0  0  0  0  0  0  0  0  0  0  0
   28.4071  -16.4105  -17.7991 C   0  0  0  0  0  0  0  0  0  0  0  0
   29.2087  -16.2153  -18.9082 C   0  0  0  0  0  0  0  0  0  0  0  0
   22.2979  -19.9836  -11.7725 N   0  0  0  0  0  0  0  0  0  0  0  0
   22.8815  -20.9414  -12.6912 C   0  0  0  0  0  0  0  0  0  0  0  0
   22.3151  -22.0242  -12.7439 O   0  0  0  0  0  0  0  0  0  0  0  0
   24.0321  -20.5246  -13.4200 C   0  0  0  0  0  0  0  0  0  0  0  0
   25.2406  -19.9738  -12.7742 C   0  0  2  0  0  0  0  0  0  0  0  0
   26.2233  -19.7648  -13.8880 N   0  0  0  0  0  0  0  0  0  0  0  0
   25.8931  -20.7373  -11.7150 C   0  0  0  0  0  0  0  0  0  0  0  0
   26.4493  -21.8696  -12.0105 O   0  0  0  0  0  0  0  0  0  0  0  0
   26.0100  -20.3945  -10.3647 N   0  0  0  0  0  0  0  0  0  0  0  0
   26.2426  -21.4294   -9.3264 C   0  0  1  0  0  0  0  0  0  0  0  0
   27.6293  -21.1310   -8.8404 C   0  0  0  0  0  0  0  0  0  0  0  0
   27.6488  -20.1765   -7.7247 C   0  0  0  0  0  0  0  0  0  0  0  0
   27.0181  -18.9183   -7.6922 C   0  0  0  0  0  0  0  0  0  0  0  0
   27.2808  -18.3152   -6.5253 N   0  0  0  0  0  0  0  0  0  0  0  0
   28.0632  -19.1013   -5.7523 C   0  0  0  0  0  0  0  0  0  0  0  0
   28.5691  -18.9160   -4.4825 C   0  0  0  0  0  0  0  0  0  0  0  0
   29.3283  -19.9252   -3.9410 C   0  0  0  0  0  0  0  0  0  0  0  0
   29.5591  -21.0739   -4.6688 C   0  0  0  0  0  0  0  0  0  0  0  0
   29.0501  -21.2437   -5.9310 C   0  0  0  0  0  0  0  0  0  0  0  0
   28.2857  -20.2518   -6.5032 C   0  0  0  0  0  0  0  0  0  0  0  0
   25.2135  -21.3541   -8.2870 C   0  0  0  0  0  0  0  0  0  0  0  0
   24.3267  -20.4403   -8.3730 O   0  0  0  0  0  0  0  0  0  0  0  0
   25.1091  -22.2012   -7.2049 O   0  0  0  0  0  0  0  0  0  0  0  0
  2  1  1  0
  3  2  2  0
  4  3  1  0
  5 11  1  0
  5  4  2  0
  6  5  1  0
  7  8  1  6
  7  6  1  0
  9  7  1  0
 10  9  2  0
 11 12  2  0
 12  2  1  0
 13 14  1  0
 14 15  2  0
 14 16  1  0
 17 16  1  6
 17 19  1  0
 17 18  1  0
 18  9  1  0
 19 21  1  0
 20 19  2  0
 21 22  1  0
 22 23  1  1
 22 33  1  0
 24 23  1  0
 25 24  2  0
 26 27  1  0
 26 25  1  0
 27 32  2  0
 28 27  1  0
 28 29  2  0
 29 30  1  0
 30 31  2  0
 32 24  1  0
 32 31  1  0
 33 34  2  0
 33 35  1  0
M  END
$$$$
