YNW.pdb
     RDKit          3D

 35 37  0  0  1  0  0  0  0  0999 V2000
   28.8173  -19.7721   -5.3090 O   0  0  0  0  0  0  0  0  0  0  0  0
   28.3296  -19.9612   -6.5984 C   0  0  0  0  0  0  0  0  0  0  0  0
   27.0627  -19.4520   -6.9111 C   0  0  0  0  0  0  0  0  0  0  0  0
   26.5471  -19.6209   -8.1793 C   0  0  0  0  0  0  0  0  0  0  0  0
   27.2778  -20.2869   -9.1287 C   0  0  0  0  0  0  0  0  0  0  0  0
   26.7281  -20.4669  -10.4847 C   0  0  0  0  0  0  0  0  0  0  0  0
   25.7534  -21.6504  -10.4751 C   0  0  2  0  0  0  0  0  0  0  0  0
   26.4597  -22.8894  -10.4606 N   0  0  0  0  0  0  0  0  0  0  0  0
   24.8831  -21.5428  -11.6982 C   0  0  0  0  0  0  0  0  0  0  0  0
   25.2396  -22.0959  -12.7512 O   0  0  0  0  0  0  0  0  0  0  0  0
   28.5230  -20.7829   -8.8075 C   0  0  0  0  0  0  0  0  0  0  0  0
   29.0630  -20.6274   -7.5446 C   0  0  0  0  0  0  0  0  0  0  0  0
   20.4554  -21.8349   -9.9445 N   0  0  0  0  0  0  0  0  0  0  0  0
   20.7667  -21.9833  -11.3527 C   0  0  0  0  0  0  0  0  0  0  0  0
   20.4997  -23.0762  -11.8327 O   0  0  0  0  0  0  0  0  0  0  0  0
   21.3406  -20.8593  -12.0131 C   0  0  0  0  0  0  0  0  0  0  0  0
   22.6423  -20.9099  -12.7088 C   0  0  2  0  0  0  0  0  0  0  0  0
   23.6739  -20.8129  -11.6243 N   0  0  0  0  0  0  0  0  0  0  0  0
   22.9441  -19.9106  -13.7290 C   0  0  0  0  0  0  0  0  0  0  0  0
   23.0414  -18.6670  -13.3784 O   0  0  0  0  0  0  0  0  0  0  0  0
   23.1581  -20.1232  -15.0940 N   0  0  0  0  0  0  0  0  0  0  0  0
   23.3585  -18.9862  -16.0269 C   0  0  1  0  0  0  0  0  0  0  0  0
   24.2824  -19.5462  -17.0667 C   0  0  0  0  0  0  0  0  0  0  0  0
   25.6595  -19.7009  -16.5810 C   0  0  0  0  0  0  0  0  0  0  0  0
   26.1719  -20.7966  -15.8607 C   0  0  0  0  0  0  0  0  0  0  0  0
   27.4581  -20.5736  -15.5601 N   0  0  0  0  0  0  0  0  0  0  0  0
   27.8550  -19.3741  -16.0413 C   0  0  0  0  0  0  0  0  0  0  0  0
   29.0751  -18.7324  -15.9950 C   0  0  0  0  0  0  0  0  0  0  0  0
   29.1786  -17.5065  -16.6070 C   0  0  0  0  0  0  0  0  0  0  0  0
   28.0800  -16.9620  -17.2387 C   0  0  0  0  0  0  0  0  0  0  0  0
   26.8726  -17.6116  -17.2759 C   0  0  0  0  0  0  0  0  0  0  0  0
   26.7347  -18.8412  -16.6721 C   0  0  0  0  0  0  0  0  0  0  0  0
   22.0733  -18.5220  -16.5538 C   0  0  0  0  0  0  0  0  0  0  0  0
   21.0389  -19.2440  -16.3600 O   0  0  0  0  0  0  0  0  0  0  0  0
   21.8730  -17.3490  -17.2492 O   0  0  0  0  0  0  0  0  0  0  0  0
  2  1  1  0
  3  2  2  0
  4  3  1  0
  5 11  1  0
  5  4  2  0
  6  5  1  0
  7  8  1  6
  7  6  1  0
  9  7  1  0
 10  9  2  0
 11 12  2  0
 12  2  1  0
 13 14  1  0
 14 15  2  0
 14 16  1  0
 17 16  1  1
 17 19  1  0
 17 18  1  0
 18  9  1  0
 19 21  1  0
 20 19  2  0
 21 22  1  0
 22 23  1  6
 22 33  1  0
 24 23  1  0
 25 24  2  0
 26 27  1  0
 26 25  1  0
 27 32  2  0
 28 27  1  0
 28 29  2  0
 29 30  1  0
 30 31  2  0
 32 24  1  0
 32 31  1  0
 33 34  2  0
 33 35  1  0
M  END
$$$$
