YNW.pdb
     RDKit          3D

 35 37  0  0  1  0  0  0  0  0999 V2000
   32.1945  -15.5320  -18.9182 O   0  0  0  0  0  0  0  0  0  0  0  0
   31.1891  -15.8601  -18.0140 C   0  0  0  0  0  0  0  0  0  0  0  0
   30.1277  -14.9617  -17.8453 C   0  0  0  0  0  0  0  0  0  0  0  0
   29.1134  -15.2539  -16.9573 C   0  0  0  0  0  0  0  0  0  0  0  0
   29.1489  -16.4233  -16.2431 C   0  0  0  0  0  0  0  0  0  0  0  0
   28.0649  -16.7370  -15.2946 C   0  0  0  0  0  0  0  0  0  0  0  0
   27.2412  -17.9063  -15.8469 C   0  0  2  0  0  0  0  0  0  0  0  0
   26.5173  -17.5120  -17.0107 N   0  0  0  0  0  0  0  0  0  0  0  0
   26.3048  -18.3658  -14.7620 C   0  0  0  0  0  0  0  0  0  0  0  0
   25.2763  -17.7113  -14.5263 O   0  0  0  0  0  0  0  0  0  0  0  0
   30.1993  -17.2983  -16.4187 C   0  0  0  0  0  0  0  0  0  0  0  0
   31.2282  -17.0301  -17.3020 C   0  0  0  0  0  0  0  0  0  0  0  0
   22.5332  -21.0287  -12.6314 N   0  0  0  0  0  0  0  0  0  0  0  0
   23.7534  -21.7154  -13.0078 C   0  0  0  0  0  0  0  0  0  0  0  0
   23.7986  -22.8998  -12.7059 O   0  0  0  0  0  0  0  0  0  0  0  0
   24.7503  -20.9489  -13.6766 C   0  0  0  0  0  0  0  0  0  0  0  0
   25.6903  -20.0554  -12.9702 C   0  0  2  0  0  0  0  0  0  0  0  0
   26.6149  -19.5362  -14.0310 N   0  0  0  0  0  0  0  0  0  0  0  0
   26.4927  -20.5889  -11.8738 C   0  0  0  0  0  0  0  0  0  0  0  0
   27.4630  -21.4032  -12.1462 O   0  0  0  0  0  0  0  0  0  0  0  0
   26.3542  -20.3240  -10.5081 N   0  0  0  0  0  0  0  0  0  0  0  0
   26.2563  -21.4252   -9.5177 C   0  0  1  0  0  0  0  0  0  0  0  0
   27.5698  -21.3645   -8.7971 C   0  0  0  0  0  0  0  0  0  0  0  0
   27.6146  -20.3033   -7.7831 C   0  0  0  0  0  0  0  0  0  0  0  0
   27.0206  -19.0307   -7.8806 C   0  0  0  0  0  0  0  0  0  0  0  0
   27.2982  -18.3207   -6.7792 N   0  0  0  0  0  0  0  0  0  0  0  0
   28.0559  -19.0470   -5.9270 C   0  0  0  0  0  0  0  0  0  0  0  0
   28.5644  -18.7492   -4.6798 C   0  0  0  0  0  0  0  0  0  0  0  0
   29.2928  -19.7199   -4.0357 C   0  0  0  0  0  0  0  0  0  0  0  0
   29.4918  -20.9423   -4.6429 C   0  0  0  0  0  0  0  0  0  0  0  0
   28.9806  -21.2239   -5.8841 C   0  0  0  0  0  0  0  0  0  0  0  0
   28.2465  -20.2733   -6.5570 C   0  0  0  0  0  0  0  0  0  0  0  0
   25.0888  -21.2364   -8.6539 C   0  0  0  0  0  0  0  0  0  0  0  0
   24.9562  -21.9933   -7.6349 O   0  0  0  0  0  0  0  0  0  0  0  0
   24.1025  -20.2922   -8.8409 O   0  0  0  0  0  0  0  0  0  0  0  0
  2  1  1  0
  3  2  2  0
  4  3  1  0
  5 11  1  0
  5  4  2  0
  6  5  1  0
  7  8  1  6
  7  6  1  0
  9  7  1  0
 10  9  2  0
 11 12  2  0
 12  2  1  0
 13 14  1  0
 14 15  2  0
 14 16  1  0
 17 16  1  6
 17 19  1  0
 17 18  1  0
 18  9  1  0
 19 21  1  0
 20 19  2  0
 21 22  1  0
 22 23  1  1
 22 33  1  0
 24 23  1  0
 25 24  2  0
 26 27  1  0
 26 25  1  0
 27 32  2  0
 28 27  1  0
 28 29  2  0
 29 30  1  0
 30 31  2  0
 32 24  1  0
 32 31  1  0
 33 34  2  0
 33 35  1  0
M  END
$$$$
