YNW.pdb
     RDKit          3D

 35 37  0  0  1  0  0  0  0  0999 V2000
   48.3508   -8.9501   -2.6715 O   0  0  0  0  0  0  0  0  0  0  0  0
   47.5115   -8.9604   -3.7812 C   0  0  0  0  0  0  0  0  0  0  0  0
   46.3547   -8.1713   -3.7470 C   0  0  0  0  0  0  0  0  0  0  0  0
   45.4992   -8.1569   -4.8291 C   0  0  0  0  0  0  0  0  0  0  0  0
   45.7855   -8.9160   -5.9340 C   0  0  0  0  0  0  0  0  0  0  0  0
   44.8725   -8.9005   -7.0913 C   0  0  0  0  0  0  0  0  0  0  0  0
   43.5389   -9.5376   -6.6835 C   0  0  2  0  0  0  0  0  0  0  0  0
   43.7075  -10.9226   -6.3879 N   0  0  0  0  0  0  0  0  0  0  0  0
   42.5683   -9.3448   -7.8174 C   0  0  0  0  0  0  0  0  0  0  0  0
   42.9427   -9.5522   -8.9830 O   0  0  0  0  0  0  0  0  0  0  0  0
   46.9271   -9.6880   -5.9542 C   0  0  0  0  0  0  0  0  0  0  0  0
   47.8011   -9.7205   -4.8838 C   0  0  0  0  0  0  0  0  0  0  0  0
   38.0610   -8.9471  -10.4839 N   0  0  0  0  0  0  0  0  0  0  0  0
   37.9619   -9.5924   -9.1893 C   0  0  0  0  0  0  0  0  0  0  0  0
   36.9147  -10.1902   -8.9843 O   0  0  0  0  0  0  0  0  0  0  0  0
   39.0759   -9.4617   -8.3114 C   0  0  0  0  0  0  0  0  0  0  0  0
   40.2673   -8.6512   -8.6345 C   0  0  2  0  0  0  0  0  0  0  0  0
   41.2461   -8.9310   -7.5329 N   0  0  0  0  0  0  0  0  0  0  0  0
   40.1280   -7.2053   -8.7772 C   0  0  0  0  0  0  0  0  0  0  0  0
   39.9478   -6.4854   -7.7150 O   0  0  0  0  0  0  0  0  0  0  0  0
   40.1704   -6.4567   -9.9571 N   0  0  0  0  0  0  0  0  0  0  0  0
   39.7578   -5.0311   -9.9782 C   0  0  1  0  0  0  0  0  0  0  0  0
   40.7201   -4.4033  -10.9416 C   0  0  0  0  0  0  0  0  0  0  0  0
   40.4933   -2.9629  -11.1160 C   0  0  0  0  0  0  0  0  0  0  0  0
   41.2144   -1.9240  -10.4976 C   0  0  0  0  0  0  0  0  0  0  0  0
   40.7056   -0.7420  -10.8694 N   0  0  0  0  0  0  0  0  0  0  0  0
   39.6671   -0.9198  -11.7166 C   0  0  0  0  0  0  0  0  0  0  0  0
   38.8554   -0.0129  -12.3658 C   0  0  0  0  0  0  0  0  0  0  0  0
   37.8799   -0.5063  -13.1981 C   0  0  0  0  0  0  0  0  0  0  0  0
   37.7419   -1.8694  -13.3582 C   0  0  0  0  0  0  0  0  0  0  0  0
   38.5561   -2.7593  -12.7052 C   0  0  0  0  0  0  0  0  0  0  0  0
   39.5432   -2.2982  -11.8636 C   0  0  0  0  0  0  0  0  0  0  0  0
   38.3517   -4.9093  -10.3696 C   0  0  0  0  0  0  0  0  0  0  0  0
   37.8766   -5.7505  -11.2035 O   0  0  0  0  0  0  0  0  0  0  0  0
   37.4744   -3.9532   -9.9054 O   0  0  0  0  0  0  0  0  0  0  0  0
  2  1  1  0
  3  2  2  0
  4  3  1  0
  5 11  1  0
  5  4  2  0
  6  5  1  0
  7  8  1  6
  7  6  1  0
  9  7  1  0
 10  9  2  0
 11 12  2  0
 12  2  1  0
 13 14  1  0
 14 15  2  0
 14 16  1  0
 17 16  1  1
 17 19  1  0
 17 18  1  0
 18  9  1  0
 19 21  1  0
 20 19  2  0
 21 22  1  0
 22 23  1  6
 22 33  1  0
 24 23  1  0
 25 24  2  0
 26 27  1  0
 26 25  1  0
 27 32  2  0
 28 27  1  0
 28 29  2  0
 29 30  1  0
 30 31  2  0
 32 24  1  0
 32 31  1  0
 33 34  2  0
 33 35  1  0
M  END
$$$$
