YNW.pdb
     RDKit          3D

 35 37  0  0  1  0  0  0  0  0999 V2000
   31.1648  -19.2776  -19.4474 O   0  0  0  0  0  0  0  0  0  0  0  0
   30.2641  -19.0894  -18.4036 C   0  0  0  0  0  0  0  0  0  0  0  0
   28.9398  -19.5083  -18.5847 C   0  0  0  0  0  0  0  0  0  0  0  0
   28.0194  -19.3374  -17.5715 C   0  0  0  0  0  0  0  0  0  0  0  0
   28.4055  -18.7577  -16.3909 C   0  0  0  0  0  0  0  0  0  0  0  0
   27.4229  -18.5756  -15.3072 C   0  0  0  0  0  0  0  0  0  0  0  0
   27.5090  -19.7698  -14.3495 C   0  0  2  0  0  0  0  0  0  0  0  0
   27.2033  -20.9868  -15.0273 N   0  0  0  0  0  0  0  0  0  0  0  0
   26.5446  -19.5274  -13.2199 C   0  0  0  0  0  0  0  0  0  0  0  0
   26.4229  -18.3818  -12.7568 O   0  0  0  0  0  0  0  0  0  0  0  0
   29.7118  -18.3499  -16.2262 C   0  0  0  0  0  0  0  0  0  0  0  0
   30.6539  -18.5095  -17.2250 C   0  0  0  0  0  0  0  0  0  0  0  0
   23.2251  -18.9549  -13.6890 N   0  0  0  0  0  0  0  0  0  0  0  0
   22.7371  -20.2544  -13.2704 C   0  0  0  0  0  0  0  0  0  0  0  0
   21.7123  -20.6286  -13.8233 O   0  0  0  0  0  0  0  0  0  0  0  0
   23.4912  -20.9423  -12.2770 C   0  0  0  0  0  0  0  0  0  0  0  0
   24.7249  -20.3952  -11.6775 C   0  0  2  0  0  0  0  0  0  0  0  0
   25.7940  -20.6111  -12.7072 N   0  0  0  0  0  0  0  0  0  0  0  0
   25.1935  -20.9270  -10.4015 C   0  0  0  0  0  0  0  0  0  0  0  0
   25.6460  -22.1404  -10.3569 O   0  0  0  0  0  0  0  0  0  0  0  0
   25.2276  -20.2737   -9.1661 N   0  0  0  0  0  0  0  0  0  0  0  0
   25.4012  -21.0304   -7.9010 C   0  0  1  0  0  0  0  0  0  0  0  0
   25.7656  -19.9690   -6.9065 C   0  0  0  0  0  0  0  0  0  0  0  0
   27.2135  -19.7382   -6.8245 C   0  0  0  0  0  0  0  0  0  0  0  0
   28.0616  -19.3736   -7.8873 C   0  0  0  0  0  0  0  0  0  0  0  0
   29.3224  -19.2833   -7.4441 N   0  0  0  0  0  0  0  0  0  0  0  0
   29.3810  -19.5685   -6.1238 C   0  0  0  0  0  0  0  0  0  0  0  0
   30.4416  -19.5877   -5.2421 C   0  0  0  0  0  0  0  0  0  0  0  0
   30.1791  -19.8989   -3.9298 C   0  0  0  0  0  0  0  0  0  0  0  0
   28.8864  -20.1784   -3.5380 C   0  0  0  0  0  0  0  0  0  0  0  0
   27.8417  -20.1563   -4.4265 C   0  0  0  0  0  0  0  0  0  0  0  0
   28.0703  -19.8487   -5.7489 C   0  0  0  0  0  0  0  0  0  0  0  0
   24.1790  -21.7670   -7.5715 C   0  0  0  0  0  0  0  0  0  0  0  0
   23.0727  -21.3617   -8.0620 O   0  0  0  0  0  0  0  0  0  0  0  0
   24.1134  -22.8850   -6.7683 O   0  0  0  0  0  0  0  0  0  0  0  0
  2  1  1  0
  3  2  2  0
  4  3  1  0
  5 11  1  0
  5  4  2  0
  6  5  1  0
  7  8  1  6
  7  6  1  0
  9  7  1  0
 10  9  2  0
 11 12  2  0
 12  2  1  0
 13 14  1  0
 14 15  2  0
 14 16  1  0
 17 16  1  6
 17 19  1  0
 17 18  1  0
 18  9  1  0
 19 21  1  0
 20 19  2  0
 21 22  1  0
 22 23  1  1
 22 33  1  0
 24 23  1  0
 25 24  2  0
 26 27  1  0
 26 25  1  0
 27 32  2  0
 28 27  1  0
 28 29  2  0
 29 30  1  0
 30 31  2  0
 32 24  1  0
 32 31  1  0
 33 34  2  0
 33 35  1  0
M  END
$$$$
