NFT.pdb
     RDKit          3D

 27 27  0  0  1  0  0  0  0  0999 V2000
    7.1079  -19.9406   19.3693 N   0  0  0  0  0  0  0  0  0  0  0  0
    8.4422  -19.4856   19.3816 C   0  0  0  0  0  0  0  0  0  0  0  0
    9.1970  -19.7575   18.4294 O   0  0  0  0  0  0  0  0  0  0  0  0
    8.9348  -18.6922   20.5198 C   0  0  0  0  0  0  0  0  0  0  0  0
    8.6648  -17.2022   20.2928 C   0  0  2  0  0  0  0  0  0  0  0  0
    9.5096  -16.8052   19.1816 N   0  0  0  0  0  0  0  0  0  0  0  0
    9.0137  -16.4158   21.4976 C   0  0  0  0  0  0  0  0  0  0  0  0
   10.2223  -16.1670   21.7203 O   0  0  0  0  0  0  0  0  0  0  0  0
    7.9961  -15.9616   22.3692 N   0  0  0  0  0  0  0  0  0  0  0  0
    8.3345  -15.1825   23.5864 C   0  0  1  0  0  0  0  0  0  0  0  0
    7.2136  -14.2251   23.7596 C   0  0  0  0  0  0  0  0  0  0  0  0
    7.1826  -13.4520   25.0072 C   0  0  0  0  0  0  0  0  0  0  0  0
    8.1457  -12.5032   25.2670 C   0  0  0  0  0  0  0  0  0  0  0  0
    8.1546  -11.7273   26.4011 C   0  0  0  0  0  0  0  0  0  0  0  0
    7.1282  -11.9228   27.3274 C   0  0  0  0  0  0  0  0  0  0  0  0
    6.1555  -12.8627   27.0923 C   0  0  0  0  0  0  0  0  0  0  0  0
    6.1796  -13.6347   25.9247 C   0  0  0  0  0  0  0  0  0  0  0  0
    8.5855  -16.1546   24.6366 C   0  0  0  0  0  0  0  0  0  0  0  0
    7.6693  -16.9871   25.0027 O   0  0  0  0  0  0  0  0  0  0  0  0
   10.7206  -19.0313   24.6853 C   0  0  0  0  0  0  0  0  0  0  0  0
   11.1106  -18.3307   25.9665 C   0  0  1  0  0  0  0  0  0  0  0  0
   12.2375  -17.5634   25.6697 O   0  0  0  0  0  0  0  0  0  0  0  0
    9.9730  -17.4018   26.3240 C   0  0  2  0  0  0  0  0  0  0  0  0
    9.7885  -16.3461   25.3777 N   0  0  0  0  0  0  0  0  0  0  0  0
   10.2786  -16.8588   27.6502 C   0  0  0  0  0  0  0  0  0  0  0  0
   10.4772  -17.7012   28.7155 O   0  0  0  0  0  0  0  0  0  0  0  0
   10.3627  -15.6248   27.8345 O   0  0  0  0  0  0  0  0  0  0  0  0
  2  1  1  0
  3  2  2  0
  4  2  1  0
  4  5  1  0
  5  7  1  0
  5  6  1  6
  7  8  2  0
  9 10  1  0
  9  7  1  0
 10 18  1  0
 10 11  1  1
 12 11  1  0
 12 17  2  0
 13 12  1  0
 14 13  2  0
 14 15  1  0
 15 16  2  0
 16 17  1  0
 18 24  1  0
 18 19  2  0
 21 20  1  6
 21 23  1  0
 22 21  1  0
 23 25  1  0
 23 24  1  6
 25 27  2  0
 25 26  1  0
M  END
$$$$
