NFT.pdb
     RDKit          3D

 27 27  0  0  1  0  0  0  0  0999 V2000
    8.6093  -18.9180   18.7441 N   0  0  0  0  0  0  0  0  0  0  0  0
    9.6985  -19.2767   19.5643 C   0  0  0  0  0  0  0  0  0  0  0  0
   10.1797  -20.4225   19.4870 O   0  0  0  0  0  0  0  0  0  0  0  0
   10.2598  -18.2948   20.5069 C   0  0  0  0  0  0  0  0  0  0  0  0
    9.4574  -16.9913   20.4658 C   0  0  2  0  0  0  0  0  0  0  0  0
    9.9972  -16.2216   19.3603 N   0  0  0  0  0  0  0  0  0  0  0  0
    9.6155  -16.2373   21.7300 C   0  0  0  0  0  0  0  0  0  0  0  0
   10.7726  -15.9287   22.1018 O   0  0  0  0  0  0  0  0  0  0  0  0
    8.4780  -15.8797   22.4913 N   0  0  0  0  0  0  0  0  0  0  0  0
    8.6236  -15.1192   23.7576 C   0  0  1  0  0  0  0  0  0  0  0  0
    7.4388  -14.2269   23.8139 C   0  0  0  0  0  0  0  0  0  0  0  0
    7.2018  -13.5104   25.0731 C   0  0  0  0  0  0  0  0  0  0  0  0
    8.0171  -12.4667   25.4489 C   0  0  0  0  0  0  0  0  0  0  0  0
    7.8296  -11.7385   26.5991 C   0  0  0  0  0  0  0  0  0  0  0  0
    6.7534  -12.0868   27.4177 C   0  0  0  0  0  0  0  0  0  0  0  0
    5.9252  -13.1236   27.0658 C   0  0  0  0  0  0  0  0  0  0  0  0
    6.1480  -13.8429   25.8856 C   0  0  0  0  0  0  0  0  0  0  0  0
    8.7994  -16.1066   24.8088 C   0  0  0  0  0  0  0  0  0  0  0  0
    7.8447  -16.9161   25.1248 O   0  0  0  0  0  0  0  0  0  0  0  0
   11.1061  -18.9851   24.9282 C   0  0  0  0  0  0  0  0  0  0  0  0
   11.3258  -18.2765   26.2450 C   0  0  1  0  0  0  0  0  0  0  0  0
   12.4149  -17.4246   26.0580 O   0  0  0  0  0  0  0  0  0  0  0  0
   10.0948  -17.4385   26.5046 C   0  0  2  0  0  0  0  0  0  0  0  0
    9.9614  -16.3378   25.6020 N   0  0  0  0  0  0  0  0  0  0  0  0
   10.1974  -16.9633   27.8869 C   0  0  0  0  0  0  0  0  0  0  0  0
   10.2683  -17.8588   28.9246 O   0  0  0  0  0  0  0  0  0  0  0  0
   10.2213  -15.7398   28.1446 O   0  0  0  0  0  0  0  0  0  0  0  0
  2  1  1  0
  3  2  2  0
  4  2  1  0
  4  5  1  0
  5  7  1  0
  5  6  1  6
  7  8  2  0
  9 10  1  0
  9  7  1  0
 10 18  1  0
 10 11  1  1
 12 11  1  0
 12 17  2  0
 13 12  1  0
 14 13  2  0
 14 15  1  0
 15 16  2  0
 16 17  1  0
 18 24  1  0
 18 19  2  0
 21 20  1  6
 21 23  1  0
 22 21  1  0
 23 25  1  0
 23 24  1  6
 25 27  2  0
 25 26  1  0
M  END
$$$$
