NFT.pdb
     RDKit          3D

 27 27  0  0  1  0  0  0  0  0999 V2000
    9.6989  -16.5918   16.9810 N   0  0  0  0  0  0  0  0  0  0  0  0
   10.3910  -16.9491   18.1562 C   0  0  0  0  0  0  0  0  0  0  0  0
   11.1087  -17.9665   18.1660 O   0  0  0  0  0  0  0  0  0  0  0  0
   10.2606  -16.1175   19.3642 C   0  0  0  0  0  0  0  0  0  0  0  0
    9.7448  -16.9536   20.5387 C   0  0  2  0  0  0  0  0  0  0  0  0
    8.3655  -17.2785   20.2258 N   0  0  0  0  0  0  0  0  0  0  0  0
    9.8073  -16.1815   21.8003 C   0  0  0  0  0  0  0  0  0  0  0  0
   10.9163  -15.7274   22.1695 O   0  0  0  0  0  0  0  0  0  0  0  0
    8.6343  -15.9684   22.5620 N   0  0  0  0  0  0  0  0  0  0  0  0
    8.6926  -15.2376   23.8526 C   0  0  1  0  0  0  0  0  0  0  0  0
    7.5624  -14.2766   23.8069 C   0  0  0  0  0  0  0  0  0  0  0  0
    7.2996  -13.4965   25.0225 C   0  0  0  0  0  0  0  0  0  0  0  0
    6.2633  -13.8368   25.8624 C   0  0  0  0  0  0  0  0  0  0  0  0
    5.9851  -13.1654   27.0286 C   0  0  0  0  0  0  0  0  0  0  0  0
    6.8039  -12.0855   27.3652 C   0  0  0  0  0  0  0  0  0  0  0  0
    7.8441  -11.7256   26.5447 C   0  0  0  0  0  0  0  0  0  0  0  0
    8.0968  -12.4339   25.3639 C   0  0  0  0  0  0  0  0  0  0  0  0
    8.7012  -16.2499   24.8948 C   0  0  0  0  0  0  0  0  0  0  0  0
    7.6689  -16.9968   25.1025 O   0  0  0  0  0  0  0  0  0  0  0  0
    9.7837  -19.3688   24.9756 C   0  0  0  0  0  0  0  0  0  0  0  0
   10.4808  -18.8802   26.2244 C   0  0  1  0  0  0  0  0  0  0  0  0
   11.7584  -18.4794   25.8324 O   0  0  0  0  0  0  0  0  0  0  0  0
    9.7197  -17.6665   26.7069 C   0  0  2  0  0  0  0  0  0  0  0  0
    9.7643  -16.5713   25.7889 N   0  0  0  0  0  0  0  0  0  0  0  0
   10.3111  -17.2870   27.9927 C   0  0  0  0  0  0  0  0  0  0  0  0
   10.2858  -18.1593   29.0521 O   0  0  0  0  0  0  0  0  0  0  0  0
   10.8459  -16.1672   28.1473 O   0  0  0  0  0  0  0  0  0  0  0  0
  2  1  1  0
  3  2  2  0
  4  2  1  0
  4  5  1  0
  5  7  1  0
  5  6  1  6
  7  8  2  0
  9 10  1  0
  9  7  1  0
 10 18  1  0
 10 11  1  1
 12 11  1  0
 12 17  2  0
 13 12  1  0
 14 13  2  0
 14 15  1  0
 15 16  2  0
 16 17  1  0
 18 24  1  0
 18 19  2  0
 21 20  1  6
 21 23  1  0
 22 21  1  0
 23 25  1  0
 23 24  1  6
 25 27  2  0
 25 26  1  0
M  END
$$$$
