NFT.pdb
     RDKit          3D

 27 27  0  0  1  0  0  0  0  0999 V2000
   11.6000  -17.5872   17.4333 N   0  0  0  0  0  0  0  0  0  0  0  0
   10.4862  -17.0424   18.1044 C   0  0  0  0  0  0  0  0  0  0  0  0
    9.3464  -17.1780   17.6219 O   0  0  0  0  0  0  0  0  0  0  0  0
   10.6776  -16.3166   19.3710 C   0  0  0  0  0  0  0  0  0  0  0  0
    9.9879  -17.0541   20.5221 C   0  0  2  0  0  0  0  0  0  0  0  0
    8.6155  -17.2644   20.0999 N   0  0  0  0  0  0  0  0  0  0  0  0
   10.0160  -16.2406   21.7586 C   0  0  0  0  0  0  0  0  0  0  0  0
   11.1260  -15.8530   22.1947 O   0  0  0  0  0  0  0  0  0  0  0  0
    8.8101  -15.9151   22.4229 N   0  0  0  0  0  0  0  0  0  0  0  0
    8.8307  -15.1711   23.7071 C   0  0  1  0  0  0  0  0  0  0  0  0
    7.6469  -14.2770   23.6577 C   0  0  0  0  0  0  0  0  0  0  0  0
    7.3352  -13.5141   24.8726 C   0  0  0  0  0  0  0  0  0  0  0  0
    8.1179  -12.4457   25.2484 C   0  0  0  0  0  0  0  0  0  0  0  0
    7.8613  -11.6748   26.3567 C   0  0  0  0  0  0  0  0  0  0  0  0
    6.7468  -12.0043   27.1307 C   0  0  0  0  0  0  0  0  0  0  0  0
    5.9500  -13.0651   26.7776 C   0  0  0  0  0  0  0  0  0  0  0  0
    6.2433  -13.8278   25.6409 C   0  0  0  0  0  0  0  0  0  0  0  0
    8.9009  -16.1722   24.7577 C   0  0  0  0  0  0  0  0  0  0  0  0
    7.9011  -16.9527   24.9981 O   0  0  0  0  0  0  0  0  0  0  0  0
   10.5350  -19.2231   24.8695 C   0  0  0  0  0  0  0  0  0  0  0  0
   11.0139  -18.6168   26.1685 C   0  0  1  0  0  0  0  0  0  0  0  0
   12.2410  -18.0124   25.8934 O   0  0  0  0  0  0  0  0  0  0  0  0
   10.0194  -17.5429   26.5460 C   0  0  2  0  0  0  0  0  0  0  0  0
    9.9966  -16.4475   25.6275 N   0  0  0  0  0  0  0  0  0  0  0  0
   10.3895  -17.0844   27.8876 C   0  0  0  0  0  0  0  0  0  0  0  0
   10.3588  -17.9525   28.9502 O   0  0  0  0  0  0  0  0  0  0  0  0
   10.7373  -15.8999   28.0875 O   0  0  0  0  0  0  0  0  0  0  0  0
  2  1  1  0
  3  2  2  0
  4  2  1  0
  4  5  1  0
  5  7  1  0
  5  6  1  6
  7  8  2  0
  9 10  1  0
  9  7  1  0
 10 18  1  0
 10 11  1  1
 12 11  1  0
 12 17  2  0
 13 12  1  0
 14 13  2  0
 14 15  1  0
 15 16  2  0
 16 17  1  0
 18 24  1  0
 18 19  2  0
 21 20  1  6
 21 23  1  0
 22 21  1  0
 23 25  1  0
 23 24  1  6
 25 27  2  0
 25 26  1  0
M  END
$$$$
