NFT.pdb
     RDKit          3D

 27 27  0  0  1  0  0  0  0  0999 V2000
    9.7173  -15.9756   16.4903 N   0  0  0  0  0  0  0  0  0  0  0  0
   10.0553  -16.7534   17.6165 C   0  0  0  0  0  0  0  0  0  0  0  0
   10.0599  -17.9956   17.5313 O   0  0  0  0  0  0  0  0  0  0  0  0
   10.4006  -16.0924   18.8861 C   0  0  0  0  0  0  0  0  0  0  0  0
    9.6738  -16.7625   20.0554 C   0  0  2  0  0  0  0  0  0  0  0  0
    8.2877  -16.8927   19.6457 N   0  0  0  0  0  0  0  0  0  0  0  0
    9.7627  -15.9290   21.2757 C   0  0  0  0  0  0  0  0  0  0  0  0
   10.8808  -15.4655   21.6035 O   0  0  0  0  0  0  0  0  0  0  0  0
    8.6043  -15.6694   22.0452 N   0  0  0  0  0  0  0  0  0  0  0  0
    8.7046  -14.9755   23.3534 C   0  0  1  0  0  0  0  0  0  0  0  0
    7.5504  -14.0431   23.3888 C   0  0  0  0  0  0  0  0  0  0  0  0
    7.2607  -13.3874   24.6699 C   0  0  0  0  0  0  0  0  0  0  0  0
    6.1489  -13.7398   25.4012 C   0  0  0  0  0  0  0  0  0  0  0  0
    5.8396  -13.1850   26.6197 C   0  0  0  0  0  0  0  0  0  0  0  0
    6.7067  -12.2160   27.1287 C   0  0  0  0  0  0  0  0  0  0  0  0
    7.8225  -11.8466   26.4193 C   0  0  0  0  0  0  0  0  0  0  0  0
    8.1047  -12.4344   25.1805 C   0  0  0  0  0  0  0  0  0  0  0  0
    8.7865  -16.0173   24.3628 C   0  0  0  0  0  0  0  0  0  0  0  0
    7.8180  -16.8539   24.5326 O   0  0  0  0  0  0  0  0  0  0  0  0
   10.3988  -18.9990   24.3760 C   0  0  0  0  0  0  0  0  0  0  0  0
   10.8847  -18.4677   25.7049 C   0  0  1  0  0  0  0  0  0  0  0  0
   12.1179  -17.8623   25.4611 O   0  0  0  0  0  0  0  0  0  0  0  0
    9.9016  -17.4051   26.1400 C   0  0  2  0  0  0  0  0  0  0  0  0
    9.8630  -16.2786   25.2605 N   0  0  0  0  0  0  0  0  0  0  0  0
   10.3011  -16.9939   27.4885 C   0  0  0  0  0  0  0  0  0  0  0  0
   10.3103  -17.9032   28.5166 O   0  0  0  0  0  0  0  0  0  0  0  0
   10.6384  -15.8133   27.7257 O   0  0  0  0  0  0  0  0  0  0  0  0
  2  1  1  0
  3  2  2  0
  4  2  1  0
  4  5  1  0
  5  7  1  0
  5  6  1  6
  7  8  2  0
  9 10  1  0
  9  7  1  0
 10 18  1  0
 10 11  1  1
 12 11  1  0
 12 17  2  0
 13 12  1  0
 14 13  2  0
 14 15  1  0
 15 16  2  0
 16 17  1  0
 18 24  1  0
 18 19  2  0
 21 20  1  6
 21 23  1  0
 22 21  1  0
 23 25  1  0
 23 24  1  6
 25 27  2  0
 25 26  1  0
M  END
$$$$
