NFT.pdb
     RDKit          3D

 27 27  0  0  1  0  0  0  0  0999 V2000
    7.3674  -19.7215   19.3458 N   0  0  0  0  0  0  0  0  0  0  0  0
    8.5937  -19.0432   19.1922 C   0  0  0  0  0  0  0  0  0  0  0  0
    9.1481  -19.0125   18.0778 O   0  0  0  0  0  0  0  0  0  0  0  0
    9.2112  -18.3755   20.3502 C   0  0  0  0  0  0  0  0  0  0  0  0
    8.9632  -16.8656   20.2947 C   0  0  2  0  0  0  0  0  0  0  0  0
    9.8932  -16.3412   19.3119 N   0  0  0  0  0  0  0  0  0  0  0  0
    9.2185  -16.2428   21.6133 C   0  0  0  0  0  0  0  0  0  0  0  0
   10.3857  -16.2682   22.0709 O   0  0  0  0  0  0  0  0  0  0  0  0
    8.1602  -15.6362   22.3298 N   0  0  0  0  0  0  0  0  0  0  0  0
    8.4175  -14.9421   23.6163 C   0  0  1  0  0  0  0  0  0  0  0  0
    7.3270  -13.9434   23.7444 C   0  0  0  0  0  0  0  0  0  0  0  0
    7.2218  -13.2300   25.0231 C   0  0  0  0  0  0  0  0  0  0  0  0
    8.1741  -12.3058   25.3896 C   0  0  0  0  0  0  0  0  0  0  0  0
    8.1161  -11.5847   26.5579 C   0  0  0  0  0  0  0  0  0  0  0  0
    7.0303  -11.8120   27.4058 C   0  0  0  0  0  0  0  0  0  0  0  0
    6.0669  -12.7283   27.0637 C   0  0  0  0  0  0  0  0  0  0  0  0
    6.1601  -13.4443   25.8644 C   0  0  0  0  0  0  0  0  0  0  0  0
    8.5291  -15.9812   24.6256 C   0  0  0  0  0  0  0  0  0  0  0  0
    7.5341  -16.7608   24.8878 O   0  0  0  0  0  0  0  0  0  0  0  0
   10.0038  -19.0963   24.6866 C   0  0  0  0  0  0  0  0  0  0  0  0
   10.5914  -18.5118   25.9504 C   0  0  1  0  0  0  0  0  0  0  0  0
   11.8370  -17.9888   25.6016 O   0  0  0  0  0  0  0  0  0  0  0  0
    9.6891  -17.3739   26.3699 C   0  0  2  0  0  0  0  0  0  0  0  0
    9.6638  -16.2979   25.4288 N   0  0  0  0  0  0  0  0  0  0  0  0
   10.1790  -16.9106   27.6709 C   0  0  0  0  0  0  0  0  0  0  0  0
   10.5859  -15.6101   27.8356 O   0  0  0  0  0  0  0  0  0  0  0  0
   10.2357  -17.6878   28.6489 O   0  0  0  0  0  0  0  0  0  0  0  0
  2  1  1  0
  3  2  2  0
  4  2  1  0
  4  5  1  0
  5  7  1  0
  5  6  1  6
  7  8  2  0
  9 10  1  0
  9  7  1  0
 10 18  1  0
 10 11  1  1
 12 11  1  0
 12 17  2  0
 13 12  1  0
 14 13  2  0
 14 15  1  0
 15 16  2  0
 16 17  1  0
 18 24  1  0
 18 19  2  0
 21 20  1  6
 21 23  1  0
 22 21  1  0
 23 25  1  0
 23 24  1  6
 25 27  2  0
 25 26  1  0
M  END
$$$$
