VHW.pdb
     RDKit          3D

 32 34  0  0  1  0  0  0  0  0999 V2000
    8.3275  -12.9795   21.7027 C   0  0  0  0  0  0  0  0  0  0  0  0
    7.6162  -13.7892   20.6582 C   0  0  1  0  0  0  0  0  0  0  0  0
    6.9232  -12.9723   19.6064 C   0  0  0  0  0  0  0  0  0  0  0  0
    8.4531  -14.9152   20.1082 C   0  0  2  0  0  0  0  0  0  0  0  0
    7.5802  -15.6219   19.1558 N   0  0  0  0  0  0  0  0  0  0  0  0
    8.9196  -15.8857   21.0915 C   0  0  0  0  0  0  0  0  0  0  0  0
    8.1142  -16.7272   21.5879 O   0  0  0  0  0  0  0  0  0  0  0  0
   10.2584  -15.9802   21.5694 N   0  0  0  0  0  0  0  0  0  0  0  0
   10.6301  -16.9422   22.5799 C   0  0  1  0  0  0  0  0  0  0  0  0
   11.9990  -17.4827   22.3068 C   0  0  0  0  0  0  0  0  0  0  0  0
   12.0628  -18.3009   21.0828 C   0  0  0  0  0  0  0  0  0  0  0  0
   12.5284  -17.9286   19.8447 C   0  0  0  0  0  0  0  0  0  0  0  0
   12.3964  -18.9965   19.0296 N   0  0  0  0  0  0  0  0  0  0  0  0
   11.8619  -20.0349   19.7117 C   0  0  0  0  0  0  0  0  0  0  0  0
   11.6671  -19.5757   20.9749 N   0  0  0  0  0  0  0  0  0  0  0  0
   10.5025  -16.3930   23.9545 C   0  0  0  0  0  0  0  0  0  0  0  0
   10.6667  -15.1532   24.1490 O   0  0  0  0  0  0  0  0  0  0  0  0
   10.2013  -17.2034   25.0683 N   0  0  0  0  0  0  0  0  0  0  0  0
    9.8557  -16.7223   26.3824 C   0  0  1  0  0  0  0  0  0  0  0  0
    8.3835  -16.9495   26.6776 C   0  0  0  0  0  0  0  0  0  0  0  0
    7.5565  -15.8291   26.1737 C   0  0  0  0  0  0  0  0  0  0  0  0
    6.4934  -15.9423   25.3069 C   0  0  0  0  0  0  0  0  0  0  0  0
    6.0093  -14.7143   25.0893 N   0  0  0  0  0  0  0  0  0  0  0  0
    6.7152  -13.7986   25.7814 C   0  0  0  0  0  0  0  0  0  0  0  0
    6.6150  -12.4189   25.8910 C   0  0  0  0  0  0  0  0  0  0  0  0
    7.4920  -11.7207   26.6894 C   0  0  0  0  0  0  0  0  0  0  0  0
    8.4853  -12.3913   27.3927 C   0  0  0  0  0  0  0  0  0  0  0  0
    8.5678  -13.7621   27.2695 C   0  0  0  0  0  0  0  0  0  0  0  0
    7.7087  -14.4927   26.4807 C   0  0  0  0  0  0  0  0  0  0  0  0
   10.6832  -17.4496   27.3733 C   0  0  0  0  0  0  0  0  0  0  0  0
   11.3345  -18.4946   27.0642 O   0  0  0  0  0  0  0  0  0  0  0  0
   10.8006  -17.0389   28.6969 O   0  0  0  0  0  0  0  0  0  0  0  0
  2  1  1  6
  3  2  1  0
  4  5  1  6
  4  2  1  0
  6  7  2  0
  6  4  1  0
  8  6  1  0
  9  8  1  0
  9 10  1  6
 11 15  1  0
 11 10  1  0
 12 11  2  0
 13 12  1  0
 13 14  1  0
 14 15  2  0
 16  9  1  0
 16 18  1  0
 17 16  2  0
 19 18  1  0
 19 30  1  0
 19 20  1  1
 21 20  1  0
 22 21  2  0
 23 24  1  0
 23 22  1  0
 24 29  2  0
 25 24  1  0
 25 26  2  0
 26 27  1  0
 27 28  2  0
 29 21  1  0
 29 28  1  0
 30 32  1  0
 31 30  2  0
M  END
$$$$
