VHW.pdb
     RDKit          3D

 32 34  0  0  1  0  0  0  0  0999 V2000
    9.1719  -12.8690   21.0517 C   0  0  0  0  0  0  0  0  0  0  0  0
    8.0990  -13.4288   20.1640 C   0  0  1  0  0  0  0  0  0  0  0  0
    7.6389  -12.4943   19.0829 C   0  0  0  0  0  0  0  0  0  0  0  0
    8.3958  -14.8255   19.6825 C   0  0  2  0  0  0  0  0  0  0  0  0
    7.2191  -15.2250   18.8924 N   0  0  0  0  0  0  0  0  0  0  0  0
    8.5887  -15.8207   20.7307 C   0  0  0  0  0  0  0  0  0  0  0  0
    7.6214  -16.1581   21.4748 O   0  0  0  0  0  0  0  0  0  0  0  0
    9.8207  -16.4792   21.0104 N   0  0  0  0  0  0  0  0  0  0  0  0
    9.9619  -17.3599   22.1458 C   0  0  1  0  0  0  0  0  0  0  0  0
   10.8088  -18.5410   21.7875 C   0  0  0  0  0  0  0  0  0  0  0  0
   10.1308  -19.4831   20.8795 C   0  0  0  0  0  0  0  0  0  0  0  0
    8.7952  -19.5307   20.5598 C   0  0  0  0  0  0  0  0  0  0  0  0
    8.6270  -20.5525   19.6939 N   0  0  0  0  0  0  0  0  0  0  0  0
    9.8139  -21.1546   19.4538 C   0  0  0  0  0  0  0  0  0  0  0  0
   10.7223  -20.4731   20.1989 N   0  0  0  0  0  0  0  0  0  0  0  0
   10.4625  -16.6495   23.3509 C   0  0  0  0  0  0  0  0  0  0  0  0
   11.3273  -15.7344   23.2216 O   0  0  0  0  0  0  0  0  0  0  0  0
   10.0098  -16.9533   24.6512 N   0  0  0  0  0  0  0  0  0  0  0  0
   10.4977  -16.3525   25.8672 C   0  0  1  0  0  0  0  0  0  0  0  0
   10.0742  -14.8974   25.9657 C   0  0  0  0  0  0  0  0  0  0  0  0
    8.6046  -14.7748   26.1009 C   0  0  0  0  0  0  0  0  0  0  0  0
    7.6954  -15.7953   25.9386 C   0  0  0  0  0  0  0  0  0  0  0  0
    6.4727  -15.2907   26.1386 N   0  0  0  0  0  0  0  0  0  0  0  0
    6.5452  -13.9763   26.4266 C   0  0  0  0  0  0  0  0  0  0  0  0
    5.5803  -13.0196   26.7081 C   0  0  0  0  0  0  0  0  0  0  0  0
    5.9479  -11.7197   26.9712 C   0  0  0  0  0  0  0  0  0  0  0  0
    7.2885  -11.3541   26.9573 C   0  0  0  0  0  0  0  0  0  0  0  0
    8.2311  -12.3198   26.6749 C   0  0  0  0  0  0  0  0  0  0  0  0
    7.9005  -13.6286   26.4070 C   0  0  0  0  0  0  0  0  0  0  0  0
    9.9455  -17.1134   27.0126 C   0  0  0  0  0  0  0  0  0  0  0  0
    9.1477  -18.0871   26.8478 O   0  0  0  0  0  0  0  0  0  0  0  0
   10.2622  -16.8139   28.3334 O   0  0  0  0  0  0  0  0  0  0  0  0
  2  1  1  6
  3  2  1  0
  4  5  1  6
  4  2  1  0
  6  7  2  0
  6  4  1  0
  8  6  1  0
  9  8  1  0
  9 10  1  6
 11 15  1  0
 11 10  1  0
 12 11  2  0
 13 12  1  0
 13 14  1  0
 14 15  2  0
 16  9  1  0
 16 18  1  0
 17 16  2  0
 19 18  1  0
 19 30  1  0
 19 20  1  1
 21 20  1  0
 22 21  2  0
 23 24  1  0
 23 22  1  0
 24 29  2  0
 25 24  1  0
 25 26  2  0
 26 27  1  0
 27 28  2  0
 29 21  1  0
 29 28  1  0
 30 32  1  0
 31 30  2  0
M  END
$$$$
