VHW.pdb
     RDKit          3D

 32 34  0  0  1  0  0  0  0  0999 V2000
    8.2371  -11.9239   18.9073 C   0  0  0  0  0  0  0  0  0  0  0  0
    8.1822  -13.0898   19.8508 C   0  0  1  0  0  0  0  0  0  0  0  0
    6.8056  -13.4170   20.3523 C   0  0  0  0  0  0  0  0  0  0  0  0
    8.9577  -14.2858   19.3622 C   0  0  2  0  0  0  0  0  0  0  0  0
    8.3189  -14.6744   18.0937 N   0  0  0  0  0  0  0  0  0  0  0  0
    8.9399  -15.4461   20.2451 C   0  0  0  0  0  0  0  0  0  0  0  0
    8.3790  -16.5194   19.8755 O   0  0  0  0  0  0  0  0  0  0  0  0
    9.5202  -15.4878   21.5456 N   0  0  0  0  0  0  0  0  0  0  0  0
    9.9009  -16.7379   22.1596 C   0  0  1  0  0  0  0  0  0  0  0  0
   10.8572  -17.4810   21.2799 C   0  0  0  0  0  0  0  0  0  0  0  0
   11.1252  -18.8525   21.7479 C   0  0  0  0  0  0  0  0  0  0  0  0
   10.5939  -19.4866   22.8451 C   0  0  0  0  0  0  0  0  0  0  0  0
   11.1221  -20.7282   22.8847 N   0  0  0  0  0  0  0  0  0  0  0  0
   11.9716  -20.9021   21.8469 C   0  0  0  0  0  0  0  0  0  0  0  0
   11.9527  -19.7284   21.1637 N   0  0  0  0  0  0  0  0  0  0  0  0
   10.4267  -16.5519   23.5367 C   0  0  0  0  0  0  0  0  0  0  0  0
   11.5900  -16.0817   23.7024 O   0  0  0  0  0  0  0  0  0  0  0  0
    9.6759  -16.8801   24.6842 N   0  0  0  0  0  0  0  0  0  0  0  0
   10.0240  -16.5301   26.0384 C   0  0  1  0  0  0  0  0  0  0  0  0
    8.8022  -16.5539   26.9400 C   0  0  0  0  0  0  0  0  0  0  0  0
    7.7228  -15.6938   26.4031 C   0  0  0  0  0  0  0  0  0  0  0  0
    6.5201  -16.1347   25.8998 C   0  0  0  0  0  0  0  0  0  0  0  0
    5.8195  -15.0626   25.5135 N   0  0  0  0  0  0  0  0  0  0  0  0
    6.5177  -13.9334   25.7446 C   0  0  0  0  0  0  0  0  0  0  0  0
    6.2379  -12.5920   25.5255 C   0  0  0  0  0  0  0  0  0  0  0  0
    7.1577  -11.6267   25.8661 C   0  0  0  0  0  0  0  0  0  0  0  0
    8.3745  -11.9868   26.4324 C   0  0  0  0  0  0  0  0  0  0  0  0
    8.6328  -13.3250   26.6413 C   0  0  0  0  0  0  0  0  0  0  0  0
    7.7373  -14.3172   26.3132 C   0  0  0  0  0  0  0  0  0  0  0  0
   11.0250  -17.5080   26.5258 C   0  0  0  0  0  0  0  0  0  0  0  0
   11.2859  -18.5741   25.8877 O   0  0  0  0  0  0  0  0  0  0  0  0
   11.7396  -17.3241   27.7047 O   0  0  0  0  0  0  0  0  0  0  0  0
  2  1  1  6
  3  2  1  0
  4  5  1  6
  4  2  1  0
  6  7  2  0
  6  4  1  0
  8  6  1  0
  9  8  1  0
  9 10  1  6
 11 15  1  0
 11 10  1  0
 12 11  2  0
 13 12  1  0
 13 14  1  0
 14 15  2  0
 16  9  1  0
 16 18  1  0
 17 16  2  0
 19 18  1  0
 19 30  1  0
 19 20  1  1
 21 20  1  0
 22 21  2  0
 23 24  1  0
 23 22  1  0
 24 29  2  0
 25 24  1  0
 25 26  2  0
 26 27  1  0
 27 28  2  0
 29 21  1  0
 29 28  1  0
 30 32  1  0
 31 30  2  0
M  END
$$$$
