VHW.pdb
     RDKit          3D

 32 34  0  0  1  0  0  0  0  0999 V2000
    8.1812  -12.2302   18.8962 C   0  0  0  0  0  0  0  0  0  0  0  0
    8.4224  -13.1932   20.0218 C   0  0  1  0  0  0  0  0  0  0  0  0
    7.5994  -12.9302   21.2494 C   0  0  0  0  0  0  0  0  0  0  0  0
    8.4232  -14.6339   19.5805 C   0  0  2  0  0  0  0  0  0  0  0  0
    7.1051  -14.8542   18.9622 N   0  0  0  0  0  0  0  0  0  0  0  0
    8.5857  -15.6148   20.6472 C   0  0  0  0  0  0  0  0  0  0  0  0
    7.6142  -15.8939   21.4096 O   0  0  0  0  0  0  0  0  0  0  0  0
    9.7912  -16.3209   20.9262 N   0  0  0  0  0  0  0  0  0  0  0  0
    9.8701  -17.2775   22.0048 C   0  0  1  0  0  0  0  0  0  0  0  0
   10.6757  -18.4682   21.5881 C   0  0  0  0  0  0  0  0  0  0  0  0
   10.8072  -19.4777   22.6536 C   0  0  0  0  0  0  0  0  0  0  0  0
   11.9253  -19.7812   23.3925 C   0  0  0  0  0  0  0  0  0  0  0  0
   11.5833  -20.7661   24.2499 N   0  0  0  0  0  0  0  0  0  0  0  0
   10.2832  -21.0969   24.0786 C   0  0  0  0  0  0  0  0  0  0  0  0
    9.8313  -20.2856   23.0876 N   0  0  0  0  0  0  0  0  0  0  0  0
   10.3716  -16.6673   23.2633 C   0  0  0  0  0  0  0  0  0  0  0  0
   11.4005  -15.9309   23.2330 O   0  0  0  0  0  0  0  0  0  0  0  0
    9.7426  -16.8745   24.5080 N   0  0  0  0  0  0  0  0  0  0  0  0
   10.3449  -16.6435   25.7970 C   0  0  1  0  0  0  0  0  0  0  0  0
   10.0482  -15.2398   26.2949 C   0  0  0  0  0  0  0  0  0  0  0  0
    8.6178  -14.8994   26.1178 C   0  0  0  0  0  0  0  0  0  0  0  0
    7.6111  -15.7900   25.8219 C   0  0  0  0  0  0  0  0  0  0  0  0
    6.4663  -15.1026   25.7404 N   0  0  0  0  0  0  0  0  0  0  0  0
    6.6840  -13.7931   25.9721 C   0  0  0  0  0  0  0  0  0  0  0  0
    5.8430  -12.6897   26.0011 C   0  0  0  0  0  0  0  0  0  0  0  0
    6.3489  -11.4384   26.2702 C   0  0  0  0  0  0  0  0  0  0  0  0
    7.7063  -11.2691   26.5150 C   0  0  0  0  0  0  0  0  0  0  0  0
    8.5245  -12.3784   26.4810 C   0  0  0  0  0  0  0  0  0  0  0  0
    8.0539  -13.6440   26.2154 C   0  0  0  0  0  0  0  0  0  0  0  0
    9.7966  -17.6386   26.7484 C   0  0  0  0  0  0  0  0  0  0  0  0
    8.8171  -18.3870   26.4446 O   0  0  0  0  0  0  0  0  0  0  0  0
   10.3146  -17.8174   28.0267 O   0  0  0  0  0  0  0  0  0  0  0  0
  2  1  1  6
  3  2  1  0
  4  5  1  1
  4  2  1  0
  6  7  2  0
  6  4  1  0
  8  6  1  0
  9  8  1  0
  9 10  1  6
 11 15  1  0
 11 10  1  0
 12 11  2  0
 13 12  1  0
 13 14  1  0
 14 15  2  0
 16  9  1  0
 16 18  1  0
 17 16  2  0
 19 18  1  0
 19 30  1  0
 19 20  1  1
 21 20  1  0
 22 21  2  0
 23 24  1  0
 23 22  1  0
 24 29  2  0
 25 24  1  0
 25 26  2  0
 26 27  1  0
 27 28  2  0
 29 21  1  0
 29 28  1  0
 30 32  1  0
 31 30  2  0
M  END
$$$$
