VHW.pdb
     RDKit          3D

 32 34  0  0  1  0  0  0  0  0999 V2000
    8.0979  -12.0047   18.9346 C   0  0  0  0  0  0  0  0  0  0  0  0
    8.3126  -13.0816   19.9577 C   0  0  1  0  0  0  0  0  0  0  0  0
    7.2140  -13.1985   20.9742 C   0  0  0  0  0  0  0  0  0  0  0  0
    8.7340  -14.3970   19.3555 C   0  0  2  0  0  0  0  0  0  0  0  0
    7.6467  -14.7724   18.4362 N   0  0  0  0  0  0  0  0  0  0  0  0
    8.9144  -15.4899   20.3038 C   0  0  0  0  0  0  0  0  0  0  0  0
    7.9653  -16.2950   20.5363 O   0  0  0  0  0  0  0  0  0  0  0  0
   10.1136  -15.7488   21.0281 N   0  0  0  0  0  0  0  0  0  0  0  0
   10.2159  -16.8640   21.9395 C   0  0  1  0  0  0  0  0  0  0  0  0
   11.1270  -17.9120   21.3810 C   0  0  0  0  0  0  0  0  0  0  0  0
   11.1468  -19.1473   22.1844 C   0  0  0  0  0  0  0  0  0  0  0  0
   10.1271  -19.6785   22.9369 C   0  0  0  0  0  0  0  0  0  0  0  0
   10.5934  -20.8143   23.4980 N   0  0  0  0  0  0  0  0  0  0  0  0
   11.8769  -21.0206   23.1250 C   0  0  0  0  0  0  0  0  0  0  0  0
   12.1904  -19.9762   22.3153 N   0  0  0  0  0  0  0  0  0  0  0  0
   10.6130  -16.4394   23.3068 C   0  0  0  0  0  0  0  0  0  0  0  0
   11.6388  -15.7146   23.4620 O   0  0  0  0  0  0  0  0  0  0  0  0
    9.8865  -16.8129   24.4561 N   0  0  0  0  0  0  0  0  0  0  0  0
   10.1587  -16.3643   25.7987 C   0  0  1  0  0  0  0  0  0  0  0  0
    8.9495  -16.5613   26.6960 C   0  0  0  0  0  0  0  0  0  0  0  0
    7.8092  -15.7284   26.2495 C   0  0  0  0  0  0  0  0  0  0  0  0
    6.6402  -16.1982   25.6954 C   0  0  0  0  0  0  0  0  0  0  0  0
    5.8627  -15.1440   25.4236 N   0  0  0  0  0  0  0  0  0  0  0  0
    6.4779  -13.9990   25.7789 C   0  0  0  0  0  0  0  0  0  0  0  0
    6.1011  -12.6655   25.7045 C   0  0  0  0  0  0  0  0  0  0  0  0
    6.9494  -11.6787   26.1521 C   0  0  0  0  0  0  0  0  0  0  0  0
    8.1907  -12.0090   26.6825 C   0  0  0  0  0  0  0  0  0  0  0  0
    8.5458  -13.3397   26.7469 C   0  0  0  0  0  0  0  0  0  0  0  0
    7.7237  -14.3528   26.3090 C   0  0  0  0  0  0  0  0  0  0  0  0
   11.3040  -17.1444   26.3234 C   0  0  0  0  0  0  0  0  0  0  0  0
   11.7695  -18.1501   25.7040 O   0  0  0  0  0  0  0  0  0  0  0  0
   11.9400  -16.8291   27.5194 O   0  0  0  0  0  0  0  0  0  0  0  0
  2  1  1  6
  3  2  1  0
  4  5  1  6
  4  2  1  0
  6  7  2  0
  6  4  1  0
  8  6  1  0
  9  8  1  0
  9 10  1  6
 11 15  1  0
 11 10  1  0
 12 11  2  0
 13 12  1  0
 13 14  1  0
 14 15  2  0
 16  9  1  0
 16 18  1  0
 17 16  2  0
 19 18  1  0
 19 30  1  0
 19 20  1  1
 21 20  1  0
 22 21  2  0
 23 24  1  0
 23 22  1  0
 24 29  2  0
 25 24  1  0
 25 26  2  0
 26 27  1  0
 27 28  2  0
 29 21  1  0
 29 28  1  0
 30 32  1  0
 31 30  2  0
M  END
$$$$
