VHW.pdb
     RDKit          3D

 32 34  0  0  1  0  0  0  0  0999 V2000
   11.4965  -20.5131   23.5765 C   0  0  0  0  0  0  0  0  0  0  0  0
   11.6947  -20.4871   22.0890 C   0  0  1  0  0  0  0  0  0  0  0  0
   11.8081  -21.8432   21.4551 C   0  0  0  0  0  0  0  0  0  0  0  0
   10.7460  -19.5555   21.3800 C   0  0  2  0  0  0  0  0  0  0  0  0
   11.0464  -19.7083   19.9465 N   0  0  0  0  0  0  0  0  0  0  0  0
   10.8862  -18.1439   21.7177 C   0  0  0  0  0  0  0  0  0  0  0  0
   12.0218  -17.5864   21.6674 O   0  0  0  0  0  0  0  0  0  0  0  0
    9.8160  -17.2933   22.1187 N   0  0  0  0  0  0  0  0  0  0  0  0
   10.0438  -15.9105   22.4658 C   0  0  1  0  0  0  0  0  0  0  0  0
    9.0117  -15.0353   21.8260 C   0  0  0  0  0  0  0  0  0  0  0  0
    7.7417  -15.7361   21.5659 C   0  0  0  0  0  0  0  0  0  0  0  0
    7.4727  -17.0751   21.7177 C   0  0  0  0  0  0  0  0  0  0  0  0
    6.1842  -17.2671   21.3639 N   0  0  0  0  0  0  0  0  0  0  0  0
    5.6271  -16.0921   20.9926 C   0  0  0  0  0  0  0  0  0  0  0  0
    6.6118  -15.1665   21.1276 N   0  0  0  0  0  0  0  0  0  0  0  0
   10.1280  -15.7050   23.9349 C   0  0  0  0  0  0  0  0  0  0  0  0
   10.4228  -14.5610   24.3891 O   0  0  0  0  0  0  0  0  0  0  0  0
    9.8899  -16.7428   24.8591 N   0  0  0  0  0  0  0  0  0  0  0  0
    9.9894  -16.6242   26.2922 C   0  0  1  0  0  0  0  0  0  0  0  0
    8.6199  -16.7053   26.9434 C   0  0  0  0  0  0  0  0  0  0  0  0
    7.6743  -15.7486   26.3241 C   0  0  0  0  0  0  0  0  0  0  0  0
    6.6312  -16.0776   25.4886 C   0  0  0  0  0  0  0  0  0  0  0  0
    6.0141  -14.9438   25.1372 N   0  0  0  0  0  0  0  0  0  0  0  0
    6.6133  -13.8822   25.7113 C   0  0  0  0  0  0  0  0  0  0  0  0
    6.3605  -12.5186   25.6631 C   0  0  0  0  0  0  0  0  0  0  0  0
    7.1538  -11.6405   26.3658 C   0  0  0  0  0  0  0  0  0  0  0  0
    8.2147  -12.1118   27.1297 C   0  0  0  0  0  0  0  0  0  0  0  0
    8.4488  -13.4702   27.1635 C   0  0  0  0  0  0  0  0  0  0  0  0
    7.6770  -14.3772   26.4740 C   0  0  0  0  0  0  0  0  0  0  0  0
   10.8461  -17.7266   26.7888 C   0  0  0  0  0  0  0  0  0  0  0  0
   11.1225  -17.8572   28.0210 O   0  0  0  0  0  0  0  0  0  0  0  0
   11.3996  -18.6836   25.9449 O   0  0  0  0  0  0  0  0  0  0  0  0
  2  1  1  1
  3  2  1  0
  4  5  1  6
  4  2  1  0
  6  7  2  0
  6  4  1  0
  8  6  1  0
  9  8  1  0
  9 10  1  1
 11 15  1  0
 11 10  1  0
 12 11  2  0
 13 12  1  0
 13 14  1  0
 14 15  2  0
 16  9  1  0
 16 18  1  0
 17 16  2  0
 19 18  1  0
 19 30  1  0
 19 20  1  1
 21 20  1  0
 22 21  2  0
 23 24  1  0
 23 22  1  0
 24 29  2  0
 25 24  1  0
 25 26  2  0
 26 27  1  0
 27 28  2  0
 29 21  1  0
 29 28  1  0
 30 32  1  0
 31 30  2  0
M  END
$$$$
