FNF.pdb
     RDKit          3D

 31 32  0  0  1  0  0  0  0  0999 V2000
    6.2747  -18.2719   19.8090 N   0  0  0  0  0  0  0  0  0  0  0  0
    7.1023  -17.0757   19.9153 C   0  0  1  0  0  0  0  0  0  0  0  0
    6.1412  -15.9401   20.3109 C   0  0  0  0  0  0  0  0  0  0  0  0
    6.9463  -14.6743   20.4685 C   0  0  0  0  0  0  0  0  0  0  0  0
    7.4837  -14.0815   19.3589 C   0  0  0  0  0  0  0  0  0  0  0  0
    8.2082  -12.9372   19.4668 C   0  0  0  0  0  0  0  0  0  0  0  0
    8.4045  -12.3653   20.7174 C   0  0  0  0  0  0  0  0  0  0  0  0
    7.8645  -12.9611   21.8344 C   0  0  0  0  0  0  0  0  0  0  0  0
    7.1403  -14.1108   21.6972 C   0  0  0  0  0  0  0  0  0  0  0  0
    8.0966  -17.2929   20.9895 C   0  0  0  0  0  0  0  0  0  0  0  0
    7.7894  -17.9023   22.0703 O   0  0  0  0  0  0  0  0  0  0  0  0
   12.2071  -17.9958   18.9640 N   0  0  0  0  0  0  0  0  0  0  0  0
   12.0264  -18.2387   20.3774 C   0  0  0  0  0  0  0  0  0  0  0  0
   12.0529  -19.4316   20.7959 O   0  0  0  0  0  0  0  0  0  0  0  0
   11.8151  -17.1315   21.3165 C   0  0  0  0  0  0  0  0  0  0  0  0
   10.4505  -17.1747   21.9218 C   0  0  2  0  0  0  0  0  0  0  0  0
    9.4421  -16.8507   20.9017 N   0  0  0  0  0  0  0  0  0  0  0  0
   10.2759  -16.2197   23.0691 C   0  0  0  0  0  0  0  0  0  0  0  0
   10.4091  -14.9802   22.9674 O   0  0  0  0  0  0  0  0  0  0  0  0
    9.9331  -16.6748   24.3908 N   0  0  0  0  0  0  0  0  0  0  0  0
    9.6294  -15.6856   25.3992 C   0  0  1  0  0  0  0  0  0  0  0  0
    8.3437  -15.0111   24.9216 C   0  0  0  0  0  0  0  0  0  0  0  0
    7.7942  -14.0606   25.8957 C   0  0  0  0  0  0  0  0  0  0  0  0
    6.5806  -14.3749   26.4839 C   0  0  0  0  0  0  0  0  0  0  0  0
    6.0671  -13.4856   27.4034 C   0  0  0  0  0  0  0  0  0  0  0  0
    6.7206  -12.3172   27.7418 C   0  0  0  0  0  0  0  0  0  0  0  0
    7.9375  -11.9970   27.1549 C   0  0  0  0  0  0  0  0  0  0  0  0
    8.4444  -12.8911   26.2368 C   0  0  0  0  0  0  0  0  0  0  0  0
    9.4402  -16.3476   26.6980 C   0  0  0  0  0  0  0  0  0  0  0  0
    8.9382  -17.6387   26.7996 O   0  0  0  0  0  0  0  0  0  0  0  0
    9.7326  -15.7495   27.7526 O   0  0  0  0  0  0  0  0  0  0  0  0
  2  1  1  1
  3  4  1  0
  3  2  1  0
  4  5  2  0
  5  6  1  0
  7  6  2  0
  8  7  1  0
  9  8  2  0
  9  4  1  0
 10 11  2  0
 10  2  1  0
 13 12  1  0
 14 13  2  0
 15 13  1  0
 16 15  1  6
 16 17  1  0
 17 10  1  0
 18 19  2  0
 18 16  1  0
 20 18  1  0
 21 22  1  6
 21 20  1  0
 23 28  1  0
 23 22  1  0
 24 23  2  0
 25 26  2  0
 25 24  1  0
 26 27  1  0
 27 28  2  0
 29 21  1  0
 30 29  1  0
 31 29  2  0
M  END
$$$$
