FNF.pdb
     RDKit          3D

 31 32  0  0  1  0  0  0  0  0999 V2000
    7.0595  -17.9850   19.9846 N   0  0  0  0  0  0  0  0  0  0  0  0
    7.7338  -17.0741   20.9025 C   0  0  1  0  0  0  0  0  0  0  0  0
    6.6112  -16.3202   21.6383 C   0  0  0  0  0  0  0  0  0  0  0  0
    6.8639  -14.8401   21.4940 C   0  0  0  0  0  0  0  0  0  0  0  0
    7.1429  -14.0979   22.6087 C   0  0  0  0  0  0  0  0  0  0  0  0
    7.3817  -12.7640   22.5111 C   0  0  0  0  0  0  0  0  0  0  0  0
    7.3410  -12.1494   21.2661 C   0  0  0  0  0  0  0  0  0  0  0  0
    7.0601  -12.8952   20.1440 C   0  0  0  0  0  0  0  0  0  0  0  0
    6.8242  -14.2344   20.2707 C   0  0  0  0  0  0  0  0  0  0  0  0
    8.5160  -17.8804   21.8658 C   0  0  0  0  0  0  0  0  0  0  0  0
    8.7884  -19.1090   21.6418 O   0  0  0  0  0  0  0  0  0  0  0  0
   11.8688  -16.3976   19.8092 N   0  0  0  0  0  0  0  0  0  0  0  0
   11.6532  -16.8890   21.1514 C   0  0  0  0  0  0  0  0  0  0  0  0
   12.1592  -18.0007   21.4786 O   0  0  0  0  0  0  0  0  0  0  0  0
   10.8647  -16.1225   22.1225 C   0  0  0  0  0  0  0  0  0  0  0  0
   10.4226  -16.9729   23.2678 C   0  0  2  0  0  0  0  0  0  0  0  0
    9.0153  -17.3595   23.0877 N   0  0  0  0  0  0  0  0  0  0  0  0
   10.5516  -16.2920   24.6015 C   0  0  0  0  0  0  0  0  0  0  0  0
   11.6197  -15.8033   25.0313 O   0  0  0  0  0  0  0  0  0  0  0  0
    9.4307  -16.1495   25.4931 N   0  0  0  0  0  0  0  0  0  0  0  0
    9.6943  -15.9656   26.9017 C   0  0  1  0  0  0  0  0  0  0  0  0
    8.4545  -15.2599   27.4504 C   0  0  0  0  0  0  0  0  0  0  0  0
    8.0686  -14.0793   26.6684 C   0  0  0  0  0  0  0  0  0  0  0  0
    6.9048  -14.1572   25.9219 C   0  0  0  0  0  0  0  0  0  0  0  0
    6.5386  -13.0466   25.1921 C   0  0  0  0  0  0  0  0  0  0  0  0
    7.2887  -11.8873   25.1896 C   0  0  0  0  0  0  0  0  0  0  0  0
    8.4565  -11.8038   25.9361 C   0  0  0  0  0  0  0  0  0  0  0  0
    8.8159  -12.9181   26.6630 C   0  0  0  0  0  0  0  0  0  0  0  0
    9.8964  -17.2741   27.5404 C   0  0  0  0  0  0  0  0  0  0  0  0
    9.7152  -18.4656   26.8501 O   0  0  0  0  0  0  0  0  0  0  0  0
   10.2407  -17.3386   28.7373 O   0  0  0  0  0  0  0  0  0  0  0  0
  2  1  1  6
  3  4  1  0
  3  2  1  0
  4  5  2  0
  5  6  1  0
  7  6  2  0
  8  7  1  0
  9  8  2  0
  9  4  1  0
 10 11  2  0
 10  2  1  0
 13 12  1  0
 14 13  2  0
 15 13  1  0
 16 15  1  6
 16 17  1  0
 17 10  1  0
 18 19  2  0
 18 16  1  0
 20 18  1  0
 21 22  1  1
 21 20  1  0
 23 28  1  0
 23 22  1  0
 24 23  2  0
 25 26  2  0
 25 24  1  0
 26 27  1  0
 27 28  2  0
 29 21  1  0
 30 29  1  0
 31 29  2  0
M  END
$$$$
