FNF.pdb
     RDKit          3D

 31 32  0  0  1  0  0  0  0  0999 V2000
    7.9521  -16.6880   17.7239 N   0  0  0  0  0  0  0  0  0  0  0  0
    8.3357  -15.8071   18.8211 C   0  0  1  0  0  0  0  0  0  0  0  0
    7.2569  -14.7099   18.8689 C   0  0  0  0  0  0  0  0  0  0  0  0
    7.5409  -13.8206   20.0537 C   0  0  0  0  0  0  0  0  0  0  0  0
    7.0146  -14.1448   21.2741 C   0  0  0  0  0  0  0  0  0  0  0  0
    7.2575  -13.3678   22.3619 C   0  0  0  0  0  0  0  0  0  0  0  0
    8.0478  -12.2330   22.2314 C   0  0  0  0  0  0  0  0  0  0  0  0
    8.5775  -11.9058   21.0039 C   0  0  0  0  0  0  0  0  0  0  0  0
    8.3177  -12.7045   19.9270 C   0  0  0  0  0  0  0  0  0  0  0  0
    8.3139  -16.5915   20.0757 C   0  0  0  0  0  0  0  0  0  0  0  0
    7.5321  -17.5918   20.2241 O   0  0  0  0  0  0  0  0  0  0  0  0
   10.3096  -20.4375   22.7814 N   0  0  0  0  0  0  0  0  0  0  0  0
   10.9661  -19.1498   22.7756 C   0  0  0  0  0  0  0  0  0  0  0  0
   11.8484  -18.9151   23.6505 O   0  0  0  0  0  0  0  0  0  0  0  0
   10.6236  -18.1281   21.7801 C   0  0  0  0  0  0  0  0  0  0  0  0
    9.4655  -17.2948   22.2212 C   0  0  2  0  0  0  0  0  0  0  0  0
    9.1454  -16.2989   21.1877 N   0  0  0  0  0  0  0  0  0  0  0  0
    9.7127  -16.5642   23.5113 C   0  0  0  0  0  0  0  0  0  0  0  0
   10.5250  -15.6206   23.6303 O   0  0  0  0  0  0  0  0  0  0  0  0
    9.0150  -16.9051   24.7231 N   0  0  0  0  0  0  0  0  0  0  0  0
    9.3988  -16.2383   25.9459 C   0  0  1  0  0  0  0  0  0  0  0  0
    8.0848  -15.9443   26.6692 C   0  0  0  0  0  0  0  0  0  0  0  0
    7.6160  -14.5667   26.4776 C   0  0  0  0  0  0  0  0  0  0  0  0
    6.3140  -14.3873   26.0415 C   0  0  0  0  0  0  0  0  0  0  0  0
    5.8712  -13.0936   25.8674 C   0  0  0  0  0  0  0  0  0  0  0  0
    6.6781  -12.0002   26.1123 C   0  0  0  0  0  0  0  0  0  0  0  0
    7.9844  -12.1743   26.5495 C   0  0  0  0  0  0  0  0  0  0  0  0
    8.4197  -13.4705   26.7213 C   0  0  0  0  0  0  0  0  0  0  0  0
   10.2642  -17.1230   26.7392 C   0  0  0  0  0  0  0  0  0  0  0  0
   10.5714  -18.4137   26.3282 O   0  0  0  0  0  0  0  0  0  0  0  0
   10.7473  -16.7224   27.8170 O   0  0  0  0  0  0  0  0  0  0  0  0
  2  1  1  6
  3  4  1  0
  3  2  1  0
  4  5  2  0
  5  6  1  0
  7  6  2  0
  8  7  1  0
  9  8  2  0
  9  4  1  0
 10 11  2  0
 10  2  1  0
 13 12  1  0
 14 13  2  0
 15 13  1  0
 16 15  1  6
 16 17  1  0
 17 10  1  0
 18 19  2  0
 18 16  1  0
 20 18  1  0
 21 22  1  1
 21 20  1  0
 23 28  1  0
 23 22  1  0
 24 23  2  0
 25 26  2  0
 25 24  1  0
 26 27  1  0
 27 28  2  0
 29 21  1  0
 30 29  1  0
 31 29  2  0
M  END
$$$$
