FNF.pdb
     RDKit          3D

 31 32  0  0  1  0  0  0  0  0999 V2000
    6.1636  -16.6798   23.1754 N   0  0  0  0  0  0  0  0  0  0  0  0
    7.0571  -16.2341   24.2383 C   0  0  1  0  0  0  0  0  0  0  0  0
    6.1484  -15.5919   25.3022 C   0  0  0  0  0  0  0  0  0  0  0  0
    6.4570  -14.1164   25.3575 C   0  0  0  0  0  0  0  0  0  0  0  0
    7.1789  -13.5461   24.3451 C   0  0  0  0  0  0  0  0  0  0  0  0
    7.4676  -12.2186   24.3624 C   0  0  0  0  0  0  0  0  0  0  0  0
    7.0247  -11.4343   25.4199 C   0  0  0  0  0  0  0  0  0  0  0  0
    6.2985  -12.0072   26.4391 C   0  0  0  0  0  0  0  0  0  0  0  0
    6.0224  -13.3439   26.3964 C   0  0  0  0  0  0  0  0  0  0  0  0
    7.7350  -17.4218   24.8037 C   0  0  0  0  0  0  0  0  0  0  0  0
    7.2716  -18.0305   25.8278 O   0  0  0  0  0  0  0  0  0  0  0  0
   11.6910  -21.9773   24.0693 N   0  0  0  0  0  0  0  0  0  0  0  0
   10.6556  -21.2412   24.7589 C   0  0  0  0  0  0  0  0  0  0  0  0
   10.4078  -21.5291   25.9650 O   0  0  0  0  0  0  0  0  0  0  0  0
    9.9007  -20.1802   24.0832 C   0  0  0  0  0  0  0  0  0  0  0  0
    9.7242  -18.9847   24.9605 C   0  0  2  0  0  0  0  0  0  0  0  0
    8.9277  -17.9658   24.2606 N   0  0  0  0  0  0  0  0  0  0  0  0
   11.0228  -18.3543   25.3789 C   0  0  0  0  0  0  0  0  0  0  0  0
   11.9049  -18.9509   26.0350 O   0  0  0  0  0  0  0  0  0  0  0  0
   11.3493  -16.9932   25.0435 N   0  0  0  0  0  0  0  0  0  0  0  0
   12.5834  -16.4392   25.5509 C   0  0  1  0  0  0  0  0  0  0  0  0
   12.4495  -16.4950   27.0725 C   0  0  0  0  0  0  0  0  0  0  0  0
   11.3814  -15.6316   27.5901 C   0  0  0  0  0  0  0  0  0  0  0  0
   10.5974  -14.9587   26.6680 C   0  0  0  0  0  0  0  0  0  0  0  0
    9.5902  -14.1525   27.1533 C   0  0  0  0  0  0  0  0  0  0  0  0
    9.3523  -14.0053   28.5055 C   0  0  0  0  0  0  0  0  0  0  0  0
   10.1355  -14.6773   29.4344 C   0  0  0  0  0  0  0  0  0  0  0  0
   11.1403  -15.4814   28.9414 C   0  0  0  0  0  0  0  0  0  0  0  0
   13.7173  -17.2475   25.0798 C   0  0  0  0  0  0  0  0  0  0  0  0
   13.5370  -18.3913   24.3128 O   0  0  0  0  0  0  0  0  0  0  0  0
   14.8843  -16.9140   25.3666 O   0  0  0  0  0  0  0  0  0  0  0  0
  2  1  1  6
  3  4  1  0
  3  2  1  0
  4  5  2  0
  5  6  1  0
  7  6  2  0
  8  7  1  0
  9  8  2  0
  9  4  1  0
 10 11  2  0
 10  2  1  0
 13 12  1  0
 14 13  2  0
 15 13  1  0
 16 15  1  6
 16 17  1  0
 17 10  1  0
 18 19  2  0
 18 16  1  0
 20 18  1  0
 21 22  1  1
 21 20  1  0
 23 28  1  0
 23 22  1  0
 24 23  2  0
 25 26  2  0
 25 24  1  0
 26 27  1  0
 27 28  2  0
 29 21  1  0
 30 29  1  0
 31 29  2  0
M  END
$$$$
