TII.pdb
     RDKit          3D

 24 23  0  0  1  0  0  0  0  0999 V2000
    8.3023  -18.2930   21.9148 C   0  0  0  0  0  0  0  0  0  0  0  0
    9.1711  -17.4319   21.0169 C   0  0  1  0  0  0  0  0  0  0  0  0
    9.0136  -17.8725   19.7210 O   0  0  0  0  0  0  0  0  0  0  0  0
    8.7249  -15.9695   21.1110 C   0  0  2  0  0  0  0  0  0  0  0  0
    9.5150  -15.2739   20.1038 N   0  0  0  0  0  0  0  0  0  0  0  0
    8.9781  -15.4094   22.4574 C   0  0  0  0  0  0  0  0  0  0  0  0
   10.1779  -15.0536   22.7165 O   0  0  0  0  0  0  0  0  0  0  0  0
    5.0743  -12.5794   25.1307 C   0  0  0  0  0  0  0  0  0  0  0  0
    6.3472  -13.0811   24.5368 C   0  0  0  0  0  0  0  0  0  0  0  0
    7.0009  -14.1579   25.3705 C   0  0  2  0  0  0  0  0  0  0  0  0
    7.2427  -13.7073   26.7850 C   0  0  0  0  0  0  0  0  0  0  0  0
    8.2407  -14.7096   24.7217 C   0  0  2  0  0  0  0  0  0  0  0  0
    7.9506  -15.2632   23.4347 N   0  0  0  0  0  0  0  0  0  0  0  0
    8.8708  -15.7006   25.6428 C   0  0  0  0  0  0  0  0  0  0  0  0
    8.8332  -16.9251   25.3568 O   0  0  0  0  0  0  0  0  0  0  0  0
   11.9556  -13.7807   29.8998 C   0  0  0  0  0  0  0  0  0  0  0  0
   11.7741  -14.4272   28.5273 C   0  0  0  0  0  0  0  0  0  0  0  0
   11.0289  -15.7212   28.7631 C   0  0  2  0  0  0  0  0  0  0  0  0
   12.0783  -16.7284   29.2333 C   0  0  0  0  0  0  0  0  0  0  0  0
   10.4131  -16.2833   27.5084 C   0  0  2  0  0  0  0  0  0  0  0  0
    9.5281  -15.3502   26.8539 N   0  0  0  0  0  0  0  0  0  0  0  0
    9.6349  -17.4793   27.9017 C   0  0  0  0  0  0  0  0  0  0  0  0
    8.4639  -17.3562   28.2745 O   0  0  0  0  0  0  0  0  0  0  0  0
   10.1987  -18.7537   27.8605 O   0  0  0  0  0  0  0  0  0  0  0  0
  2  1  1  1
  3  2  1  0
  4  2  1  0
  4  5  1  6
  6  4  1  0
  6  7  2  0
  9 10  1  0
  9  8  1  0
 10 12  1  0
 10 11  1  1
 12 13  1  6
 13  6  1  0
 14 12  1  0
 15 14  2  0
 16 17  1  0
 17 18  1  0
 18 19  1  6
 18 20  1  0
 20 21  1  1
 20 22  1  0
 21 14  1  0
 22 24  1  0
 23 22  2  0
M  END
$$$$
