TII.pdb
     RDKit          3D

 24 23  0  0  1  0  0  0  0  0999 V2000
    6.5544  -17.1681   22.0077 C   0  0  0  0  0  0  0  0  0  0  0  0
    7.2785  -16.3593   20.9475 C   0  0  1  0  0  0  0  0  0  0  0  0
    6.6575  -16.5874   19.7389 O   0  0  0  0  0  0  0  0  0  0  0  0
    7.1941  -14.8676   21.2853 C   0  0  2  0  0  0  0  0  0  0  0  0
    7.7760  -14.1917   20.1333 N   0  0  0  0  0  0  0  0  0  0  0  0
    7.9460  -14.5461   22.5190 C   0  0  0  0  0  0  0  0  0  0  0  0
    9.2153  -14.4451   22.4096 O   0  0  0  0  0  0  0  0  0  0  0  0
    5.8956  -11.4281   26.4399 C   0  0  0  0  0  0  0  0  0  0  0  0
    6.8312  -12.1072   25.4973 C   0  0  0  0  0  0  0  0  0  0  0  0
    7.3337  -13.4323   26.0203 C   0  0  2  0  0  0  0  0  0  0  0  0
    8.1188  -13.2750   27.2936 C   0  0  0  0  0  0  0  0  0  0  0  0
    8.0820  -14.2129   24.9747 C   0  0  2  0  0  0  0  0  0  0  0  0
    7.3085  -14.3534   23.7793 N   0  0  0  0  0  0  0  0  0  0  0  0
    8.4908  -15.5277   25.5505 C   0  0  0  0  0  0  0  0  0  0  0  0
    7.6110  -16.3789   25.8404 O   0  0  0  0  0  0  0  0  0  0  0  0
   12.4369  -18.4853   23.4386 C   0  0  0  0  0  0  0  0  0  0  0  0
   11.1402  -17.9231   24.0193 C   0  0  0  0  0  0  0  0  0  0  0  0
   11.3587  -17.8063   25.5105 C   0  0  2  0  0  0  0  0  0  0  0  0
   11.5438  -19.2359   26.0193 C   0  0  0  0  0  0  0  0  0  0  0  0
   10.1698  -17.2332   26.2368 C   0  0  2  0  0  0  0  0  0  0  0  0
    9.8405  -15.8971   25.8023 N   0  0  0  0  0  0  0  0  0  0  0  0
   10.5149  -17.1927   27.6756 C   0  0  0  0  0  0  0  0  0  0  0  0
   10.8043  -16.1169   28.2088 O   0  0  0  0  0  0  0  0  0  0  0  0
   10.5207  -18.3519   28.4501 O   0  0  0  0  0  0  0  0  0  0  0  0
  2  1  1  1
  3  2  1  0
  4  2  1  0
  4  5  1  6
  6  4  1  0
  6  7  2  0
  9 10  1  0
  9  8  1  0
 10 12  1  0
 10 11  1  1
 12 13  1  6
 13  6  1  0
 14 12  1  0
 15 14  2  0
 16 17  1  0
 17 18  1  0
 18 19  1  1
 18 20  1  0
 20 21  1  6
 20 22  1  0
 21 14  1  0
 22 24  1  0
 23 22  2  0
M  END
$$$$
