TII.pdb
     RDKit          3D

 24 23  0  0  1  0  0  0  0  0999 V2000
    8.1430  -18.1838   21.8580 C   0  0  0  0  0  0  0  0  0  0  0  0
    8.9610  -17.2931   20.9415 C   0  0  1  0  0  0  0  0  0  0  0  0
    8.7211  -17.6832   19.6420 O   0  0  0  0  0  0  0  0  0  0  0  0
    8.5317  -15.8333   21.1181 C   0  0  2  0  0  0  0  0  0  0  0  0
    9.2346  -15.1090   20.0675 N   0  0  0  0  0  0  0  0  0  0  0  0
    8.9036  -15.3151   22.4538 C   0  0  0  0  0  0  0  0  0  0  0  0
   10.1292  -14.9966   22.6268 O   0  0  0  0  0  0  0  0  0  0  0  0
    5.2605  -12.4256   25.3257 C   0  0  0  0  0  0  0  0  0  0  0  0
    6.4859  -12.9632   24.6667 C   0  0  0  0  0  0  0  0  0  0  0  0
    7.1873  -14.0128   25.4963 C   0  0  2  0  0  0  0  0  0  0  0  0
    7.5581  -13.4986   26.8603 C   0  0  0  0  0  0  0  0  0  0  0  0
    8.3561  -14.6253   24.7742 C   0  0  2  0  0  0  0  0  0  0  0  0
    7.9593  -15.1686   23.5115 N   0  0  0  0  0  0  0  0  0  0  0  0
    8.9954  -15.6421   25.6601 C   0  0  0  0  0  0  0  0  0  0  0  0
    8.7799  -16.8649   25.4576 O   0  0  0  0  0  0  0  0  0  0  0  0
   11.6909  -14.4462   30.5573 C   0  0  0  0  0  0  0  0  0  0  0  0
   10.6686  -14.9524   29.5408 C   0  0  0  0  0  0  0  0  0  0  0  0
   11.4343  -15.8123   28.5613 C   0  0  2  0  0  0  0  0  0  0  0  0
   12.4654  -14.8893   27.9117 C   0  0  0  0  0  0  0  0  0  0  0  0
   10.5704  -16.3536   27.4522 C   0  0  2  0  0  0  0  0  0  0  0  0
    9.8536  -15.3189   26.7466 N   0  0  0  0  0  0  0  0  0  0  0  0
    9.5893  -17.2726   28.0717 C   0  0  0  0  0  0  0  0  0  0  0  0
    8.3970  -16.9551   28.1243 O   0  0  0  0  0  0  0  0  0  0  0  0
    9.9841  -18.4999   28.6022 O   0  0  0  0  0  0  0  0  0  0  0  0
  2  1  1  1
  3  2  1  0
  4  2  1  0
  4  5  1  6
  6  4  1  0
  6  7  2  0
  9 10  1  0
  9  8  1  0
 10 12  1  0
 10 11  1  1
 12 13  1  6
 13  6  1  0
 14 12  1  0
 15 14  2  0
 16 17  1  0
 17 18  1  0
 18 19  1  6
 18 20  1  0
 20 21  1  1
 20 22  1  0
 21 14  1  0
 22 24  1  0
 23 22  2  0
M  END
$$$$
