TII.pdb
     RDKit          3D

 24 23  0  0  1  0  0  0  0  0999 V2000
   10.8367  -19.4596   21.7990 C   0  0  0  0  0  0  0  0  0  0  0  0
   12.0646  -18.7904   21.2101 C   0  0  1  0  0  0  0  0  0  0  0  0
   12.6405  -19.6665   20.3161 O   0  0  0  0  0  0  0  0  0  0  0  0
   11.6551  -17.5120   20.4722 C   0  0  2  0  0  0  0  0  0  0  0  0
   12.8873  -17.0176   19.8724 N   0  0  0  0  0  0  0  0  0  0  0  0
   11.0817  -16.5098   21.3982 C   0  0  0  0  0  0  0  0  0  0  0  0
   11.9007  -15.9044   22.1702 O   0  0  0  0  0  0  0  0  0  0  0  0
    6.8131  -13.3976   20.0030 C   0  0  0  0  0  0  0  0  0  0  0  0
    8.0898  -13.9230   20.5678 C   0  0  0  0  0  0  0  0  0  0  0  0
    7.8995  -14.6404   21.8835 C   0  0  2  0  0  0  0  0  0  0  0  0
    7.2454  -13.7628   22.9151 C   0  0  0  0  0  0  0  0  0  0  0  0
    9.1731  -15.2657   22.3831 C   0  0  2  0  0  0  0  0  0  0  0  0
    9.6876  -16.2158   21.4452 N   0  0  0  0  0  0  0  0  0  0  0  0
    8.9252  -15.8643   23.7275 C   0  0  0  0  0  0  0  0  0  0  0  0
    8.5175  -17.0514   23.8128 O   0  0  0  0  0  0  0  0  0  0  0  0
   10.6422  -13.0385   28.1622 C   0  0  0  0  0  0  0  0  0  0  0  0
   10.7317  -14.2720   27.2649 C   0  0  0  0  0  0  0  0  0  0  0  0
    9.4025  -14.9819   27.3858 C   0  0  2  0  0  0  0  0  0  0  0  0
    9.5211  -15.8853   28.6133 C   0  0  0  0  0  0  0  0  0  0  0  0
    9.1034  -15.8760   26.2108 C   0  0  2  0  0  0  0  0  0  0  0  0
    9.1218  -15.1698   24.9525 N   0  0  0  0  0  0  0  0  0  0  0  0
    7.7492  -16.4352   26.4212 C   0  0  0  0  0  0  0  0  0  0  0  0
    6.7566  -15.7971   26.0569 O   0  0  0  0  0  0  0  0  0  0  0  0
    7.5668  -17.6776   27.0269 O   0  0  0  0  0  0  0  0  0  0  0  0
  2  1  1  6
  3  2  1  0
  4  2  1  0
  4  5  1  1
  6  4  1  0
  6  7  2  0
  9 10  1  0
  9  8  1  0
 10 12  1  0
 10 11  1  1
 12 13  1  6
 13  6  1  0
 14 12  1  0
 15 14  2  0
 16 17  1  0
 17 18  1  0
 18 19  1  1
 18 20  1  0
 20 21  1  6
 20 22  1  0
 21 14  1  0
 22 24  1  0
 23 22  2  0
M  END
$$$$
