TII.pdb
     RDKit          3D

 24 23  0  0  1  0  0  0  0  0999 V2000
    6.7145  -17.1469   22.0609 C   0  0  0  0  0  0  0  0  0  0  0  0
    7.4456  -16.3196   21.0199 C   0  0  1  0  0  0  0  0  0  0  0  0
    6.8418  -16.5376   19.8008 O   0  0  0  0  0  0  0  0  0  0  0  0
    7.3452  -14.8328   21.3747 C   0  0  2  0  0  0  0  0  0  0  0  0
    7.9731  -14.1404   20.2572 N   0  0  0  0  0  0  0  0  0  0  0  0
    8.0453  -14.5280   22.6428 C   0  0  0  0  0  0  0  0  0  0  0  0
    9.3167  -14.4120   22.5848 O   0  0  0  0  0  0  0  0  0  0  0  0
    5.9337  -11.4312   26.5064 C   0  0  0  0  0  0  0  0  0  0  0  0
    6.8815  -12.1370   25.5963 C   0  0  0  0  0  0  0  0  0  0  0  0
    7.3258  -13.4768   26.1343 C   0  0  2  0  0  0  0  0  0  0  0  0
    8.0759  -13.3432   27.4312 C   0  0  0  0  0  0  0  0  0  0  0  0
    8.0810  -14.2814   25.1122 C   0  0  2  0  0  0  0  0  0  0  0  0
    7.3575  -14.3667   23.8808 N   0  0  0  0  0  0  0  0  0  0  0  0
    8.3956  -15.6227   25.6860 C   0  0  0  0  0  0  0  0  0  0  0  0
    7.4612  -16.3523   26.1070 O   0  0  0  0  0  0  0  0  0  0  0  0
   13.3629  -18.1953   24.7732 C   0  0  0  0  0  0  0  0  0  0  0  0
   12.3736  -17.4488   25.6668 C   0  0  0  0  0  0  0  0  0  0  0  0
   11.0601  -18.1890   25.5565 C   0  0  2  0  0  0  0  0  0  0  0  0
   10.7081  -18.1966   24.0689 C   0  0  0  0  0  0  0  0  0  0  0  0
    9.9305  -17.4938   26.2707 C   0  0  2  0  0  0  0  0  0  0  0  0
    9.7118  -16.1493   25.7945 N   0  0  0  0  0  0  0  0  0  0  0  0
   10.2904  -17.4364   27.7052 C   0  0  0  0  0  0  0  0  0  0  0  0
   10.4906  -16.3443   28.2461 O   0  0  0  0  0  0  0  0  0  0  0  0
   10.4095  -18.5978   28.4672 O   0  0  0  0  0  0  0  0  0  0  0  0
  2  1  1  1
  3  2  1  0
  4  2  1  0
  4  5  1  6
  6  4  1  0
  6  7  2  0
  9 10  1  0
  9  8  1  0
 10 12  1  0
 10 11  1  1
 12 13  1  6
 13  6  1  0
 14 12  1  0
 15 14  2  0
 16 17  1  0
 17 18  1  0
 18 19  1  6
 18 20  1  0
 20 21  1  6
 20 22  1  0
 21 14  1  0
 22 24  1  0
 23 22  2  0
M  END
$$$$
