TII.pdb
     RDKit          3D

 24 23  0  0  1  0  0  0  0  0999 V2000
    6.8892  -17.5021   22.1844 C   0  0  0  0  0  0  0  0  0  0  0  0
    7.8870  -16.8656   21.2348 C   0  0  1  0  0  0  0  0  0  0  0  0
    7.4557  -17.0947   19.9464 O   0  0  0  0  0  0  0  0  0  0  0  0
    7.9510  -15.3558   21.4851 C   0  0  2  0  0  0  0  0  0  0  0  0
    8.7848  -14.8353   20.4097 N   0  0  0  0  0  0  0  0  0  0  0  0
    8.5438  -15.0484   22.8061 C   0  0  0  0  0  0  0  0  0  0  0  0
    9.8168  -15.1160   22.8955 O   0  0  0  0  0  0  0  0  0  0  0  0
    5.9966  -11.6544   26.2760 C   0  0  0  0  0  0  0  0  0  0  0  0
    7.0294  -12.3744   25.4762 C   0  0  0  0  0  0  0  0  0  0  0  0
    7.4722  -13.6688   26.1167 C   0  0  2  0  0  0  0  0  0  0  0  0
    8.0761  -13.4477   27.4764 C   0  0  0  0  0  0  0  0  0  0  0  0
    8.3642  -14.4772   25.2148 C   0  0  2  0  0  0  0  0  0  0  0  0
    7.7546  -14.6913   23.9382 N   0  0  0  0  0  0  0  0  0  0  0  0
    8.7201  -15.7537   25.9011 C   0  0  0  0  0  0  0  0  0  0  0  0
    7.8282  -16.6164   26.1086 O   0  0  0  0  0  0  0  0  0  0  0  0
   12.6735  -18.9017   24.3429 C   0  0  0  0  0  0  0  0  0  0  0  0
   11.3615  -18.2792   24.8179 C   0  0  0  0  0  0  0  0  0  0  0  0
   11.5254  -18.0222   26.2986 C   0  0  2  0  0  0  0  0  0  0  0  0
   11.6684  -19.3983   26.9486 C   0  0  0  0  0  0  0  0  0  0  0  0
   10.3193  -17.3672   26.9197 C   0  0  2  0  0  0  0  0  0  0  0  0
   10.0308  -16.0732   26.3501 N   0  0  0  0  0  0  0  0  0  0  0  0
   10.6086  -17.1973   28.3613 C   0  0  0  0  0  0  0  0  0  0  0  0
   10.6789  -18.1878   29.0957 O   0  0  0  0  0  0  0  0  0  0  0  0
   10.8054  -15.9328   28.9145 O   0  0  0  0  0  0  0  0  0  0  0  0
  2  1  1  1
  3  2  1  0
  4  2  1  0
  4  5  1  6
  6  4  1  0
  6  7  2  0
  9 10  1  0
  9  8  1  0
 10 12  1  0
 10 11  1  1
 12 13  1  6
 13  6  1  0
 14 12  1  0
 15 14  2  0
 16 17  1  0
 17 18  1  0
 18 19  1  1
 18 20  1  0
 20 21  1  6
 20 22  1  0
 21 14  1  0
 22 24  1  0
 23 22  2  0
M  END
$$$$
