TII.pdb
     RDKit          3D

 24 23  0  0  1  0  0  0  0  0999 V2000
    6.3072  -16.6749   20.0036 C   0  0  0  0  0  0  0  0  0  0  0  0
    7.0672  -16.4008   21.2881 C   0  0  1  0  0  0  0  0  0  0  0  0
    8.2154  -17.1623   21.2752 O   0  0  0  0  0  0  0  0  0  0  0  0
    7.4451  -14.9182   21.3611 C   0  0  2  0  0  0  0  0  0  0  0  0
    8.3274  -14.7026   20.2219 N   0  0  0  0  0  0  0  0  0  0  0  0
    8.1355  -14.5949   22.6298 C   0  0  0  0  0  0  0  0  0  0  0  0
    9.4108  -14.5215   22.5886 O   0  0  0  0  0  0  0  0  0  0  0  0
    5.9364  -11.4091   26.4489 C   0  0  0  0  0  0  0  0  0  0  0  0
    6.9146  -12.0990   25.5590 C   0  0  0  0  0  0  0  0  0  0  0  0
    7.3422  -13.4474   26.0889 C   0  0  2  0  0  0  0  0  0  0  0  0
    8.0349  -13.3368   27.4194 C   0  0  0  0  0  0  0  0  0  0  0  0
    8.1451  -14.2280   25.0845 C   0  0  2  0  0  0  0  0  0  0  0  0
    7.4347  -14.3715   23.8509 N   0  0  0  0  0  0  0  0  0  0  0  0
    8.5261  -15.5412   25.6825 C   0  0  0  0  0  0  0  0  0  0  0  0
    7.6281  -16.3666   25.9908 O   0  0  0  0  0  0  0  0  0  0  0  0
   12.6554  -18.5305   23.8446 C   0  0  0  0  0  0  0  0  0  0  0  0
   11.3096  -17.9790   24.3129 C   0  0  0  0  0  0  0  0  0  0  0  0
   11.4036  -17.8506   25.8161 C   0  0  2  0  0  0  0  0  0  0  0  0
   11.5290  -19.2773   26.3507 C   0  0  0  0  0  0  0  0  0  0  0  0
   10.1646  -17.2579   26.4352 C   0  0  2  0  0  0  0  0  0  0  0  0
    9.8679  -15.9368   25.9362 N   0  0  0  0  0  0  0  0  0  0  0  0
   10.4034  -17.1718   27.8934 C   0  0  0  0  0  0  0  0  0  0  0  0
   10.6995  -16.0875   28.4053 O   0  0  0  0  0  0  0  0  0  0  0  0
   10.3007  -18.2970   28.7100 O   0  0  0  0  0  0  0  0  0  0  0  0
  2  1  1  6
  3  2  1  0
  4  2  1  0
  4  5  1  6
  6  4  1  0
  6  7  2  0
  9 10  1  0
  9  8  1  0
 10 12  1  0
 10 11  1  1
 12 13  1  6
 13  6  1  0
 14 12  1  0
 15 14  2  0
 16 17  1  0
 17 18  1  0
 18 19  1  1
 18 20  1  0
 20 21  1  6
 20 22  1  0
 21 14  1  0
 22 24  1  0
 23 22  2  0
M  END
$$$$
