TII.pdb
     RDKit          3D

 24 23  0  0  1  0  0  0  0  0999 V2000
   10.5881  -19.4997   21.7871 C   0  0  0  0  0  0  0  0  0  0  0  0
   11.7338  -19.0361   20.9067 C   0  0  1  0  0  0  0  0  0  0  0  0
   12.0891  -20.0819   20.0831 O   0  0  0  0  0  0  0  0  0  0  0  0
   11.2823  -17.8492   20.0501 C   0  0  2  0  0  0  0  0  0  0  0  0
   12.4361  -17.5291   19.2201 N   0  0  0  0  0  0  0  0  0  0  0  0
   10.8982  -16.6900   20.8865 C   0  0  0  0  0  0  0  0  0  0  0  0
   11.8507  -16.0003   21.3867 O   0  0  0  0  0  0  0  0  0  0  0  0
    6.6914  -13.3913   19.8441 C   0  0  0  0  0  0  0  0  0  0  0  0
    8.0014  -13.9410   20.2987 C   0  0  0  0  0  0  0  0  0  0  0  0
    7.9209  -14.6107   21.6503 C   0  0  2  0  0  0  0  0  0  0  0  0
    7.4140  -13.6756   22.7138 C   0  0  0  0  0  0  0  0  0  0  0  0
    9.2134  -15.2760   22.0365 C   0  0  2  0  0  0  0  0  0  0  0  0
    9.5393  -16.3392   21.1362 N   0  0  0  0  0  0  0  0  0  0  0  0
    9.1191  -15.7340   23.4538 C   0  0  0  0  0  0  0  0  0  0  0  0
    8.7589  -16.9135   23.7022 O   0  0  0  0  0  0  0  0  0  0  0  0
   10.2355  -13.8683   29.2765 C   0  0  0  0  0  0  0  0  0  0  0  0
   10.0498  -15.0463   28.3214 C   0  0  0  0  0  0  0  0  0  0  0  0
    9.8862  -14.4517   26.9412 C   0  0  2  0  0  0  0  0  0  0  0  0
    8.6666  -13.5337   27.0232 C   0  0  0  0  0  0  0  0  0  0  0  0
    9.5869  -15.4849   25.8865 C   0  0  2  0  0  0  0  0  0  0  0  0
    9.4149  -14.9101   24.5741 N   0  0  0  0  0  0  0  0  0  0  0  0
    8.3280  -16.1574   26.2786 C   0  0  0  0  0  0  0  0  0  0  0  0
    7.2491  -15.7488   25.8377 O   0  0  0  0  0  0  0  0  0  0  0  0
    8.3322  -17.2517   27.1423 O   0  0  0  0  0  0  0  0  0  0  0  0
  2  1  1  1
  3  2  1  0
  4  2  1  0
  4  5  1  6
  6  4  1  0
  6  7  2  0
  9 10  1  0
  9  8  1  0
 10 12  1  0
 10 11  1  1
 12 13  1  6
 13  6  1  0
 14 12  1  0
 15 14  2  0
 16 17  1  0
 17 18  1  0
 18 19  1  1
 18 20  1  0
 20 21  1  6
 20 22  1  0
 21 14  1  0
 22 24  1  0
 23 22  2  0
M  END
$$$$
