DLN.pdb
     RDKit          3D

 25 24  0  0  1  0  0  0  0  0999 V2000
   21.6592  -12.7676  -17.9357 N   0  0  0  0  0  0  0  0  0  0  0  0
   20.6340  -12.6261  -16.9230 C   0  0  1  0  0  0  0  0  0  0  0  0
   20.3547  -14.0277  -16.3962 C   0  0  0  0  0  0  0  0  0  0  0  0
   19.5343  -14.7622  -17.3651 C   0  0  0  0  0  0  0  0  0  0  0  0
   20.0812  -15.3907  -18.3033 O   0  0  0  0  0  0  0  0  0  0  0  0
   21.0917  -11.7645  -15.7992 C   0  0  0  0  0  0  0  0  0  0  0  0
   20.3735  -11.5803  -14.7694 O   0  0  0  0  0  0  0  0  0  0  0  0
   18.1582  -14.7839  -17.2760 O   0  0  0  0  0  0  0  0  0  0  0  0
   24.8472  -10.7194  -17.0569 C   0  0  0  0  0  0  0  0  0  0  0  0
   25.1578  -10.0188  -15.7592 C   0  0  2  0  0  0  0  0  0  0  0  0
   26.6203  -10.2899  -15.4421 C   0  0  0  0  0  0  0  0  0  0  0  0
   24.3439  -10.5558  -14.6342 C   0  0  0  0  0  0  0  0  0  0  0  0
   22.8625  -10.2657  -14.8086 C   0  0  2  0  0  0  0  0  0  0  0  0
   22.3437  -11.1178  -15.8338 N   0  0  0  0  0  0  0  0  0  0  0  0
   22.6469   -8.8243  -15.0870 C   0  0  0  0  0  0  0  0  0  0  0  0
   22.9829   -7.9527  -14.2511 O   0  0  0  0  0  0  0  0  0  0  0  0
   21.6605   -4.2308  -16.9752 N   0  0  0  0  0  0  0  0  0  0  0  0
   22.1688   -5.0842  -18.0038 C   0  0  0  0  0  0  0  0  0  0  0  0
   22.5959   -4.5268  -19.0368 O   0  0  0  0  0  0  0  0  0  0  0  0
   22.1925   -6.5442  -17.8643 C   0  0  0  0  0  0  0  0  0  0  0  0
   21.6705   -6.9909  -16.5533 C   0  0  2  0  0  0  0  0  0  0  0  0
   22.0553   -8.4114  -16.3075 N   0  0  0  0  0  0  0  0  0  0  0  0
   20.1805   -6.9425  -16.4263 C   0  0  0  0  0  0  0  0  0  0  0  0
   19.5566   -5.9009  -16.5678 O   0  0  0  0  0  0  0  0  0  0  0  0
   19.4391   -8.0945  -16.1383 O   0  0  0  0  0  0  0  0  0  0  0  0
  2  1  1  6
  2  3  1  0
  4  3  1  0
  5  4  2  0
  6  2  1  0
  7  6  2  0
  8  4  1  0
 10  9  1  6
 10 12  1  0
 11 10  1  0
 13 12  1  6
 13 14  1  0
 14  6  1  0
 15 22  1  0
 15 13  1  0
 16 15  2  0
 18 19  2  0
 18 17  1  0
 20 18  1  0
 21 20  1  6
 21 22  1  0
 23 25  1  0
 23 21  1  0
 24 23  2  0
M  END
$$$$
