DLN.pdb
     RDKit          3D

 25 24  0  0  1  0  0  0  0  0999 V2000
   19.8191  -11.5589  -17.3947 N   0  0  0  0  0  0  0  0  0  0  0  0
   20.7582  -10.5858  -17.9121 C   0  0  1  0  0  0  0  0  0  0  0  0
   19.9817   -9.7213  -18.8968 C   0  0  0  0  0  0  0  0  0  0  0  0
   19.6860  -10.4981  -20.1053 C   0  0  0  0  0  0  0  0  0  0  0  0
   20.4691  -11.4053  -20.4768 O   0  0  0  0  0  0  0  0  0  0  0  0
   21.3027   -9.7227  -16.8288 C   0  0  0  0  0  0  0  0  0  0  0  0
   20.5582   -9.2619  -15.9103 O   0  0  0  0  0  0  0  0  0  0  0  0
   18.5557  -10.2586  -20.8585 O   0  0  0  0  0  0  0  0  0  0  0  0
   24.3402  -10.4954  -13.8033 C   0  0  0  0  0  0  0  0  0  0  0  0
   24.8599  -10.2864  -15.2025 C   0  0  2  0  0  0  0  0  0  0  0  0
   26.3445  -10.6160  -15.1834 C   0  0  0  0  0  0  0  0  0  0  0  0
   24.7165   -8.8700  -15.6381 C   0  0  0  0  0  0  0  0  0  0  0  0
   23.2630   -8.4776  -15.8439 C   0  0  2  0  0  0  0  0  0  0  0  0
   22.6697   -9.3823  -16.7797 N   0  0  0  0  0  0  0  0  0  0  0  0
   23.1651   -7.0585  -16.2659 C   0  0  0  0  0  0  0  0  0  0  0  0
   23.5582   -6.6985  -17.4006 O   0  0  0  0  0  0  0  0  0  0  0  0
   20.8017   -4.1956  -19.3751 N   0  0  0  0  0  0  0  0  0  0  0  0
   21.5901   -4.1760  -18.1823 C   0  0  0  0  0  0  0  0  0  0  0  0
   22.6376   -3.4963  -18.2120 O   0  0  0  0  0  0  0  0  0  0  0  0
   21.1982   -4.9139  -16.9768 C   0  0  0  0  0  0  0  0  0  0  0  0
   22.1743   -4.7495  -15.8764 C   0  0  2  0  0  0  0  0  0  0  0  0
   22.6234   -6.0860  -15.3879 N   0  0  0  0  0  0  0  0  0  0  0  0
   21.6446   -4.0315  -14.6753 C   0  0  0  0  0  0  0  0  0  0  0  0
   20.7813   -4.5216  -13.9621 O   0  0  0  0  0  0  0  0  0  0  0  0
   22.1194   -2.7633  -14.3202 O   0  0  0  0  0  0  0  0  0  0  0  0
  2  1  1  1
  2  3  1  0
  4  3  1  0
  5  4  2  0
  6  2  1  0
  7  6  2  0
  8  4  1  0
 10  9  1  1
 10 12  1  0
 11 10  1  0
 13 12  1  6
 13 14  1  0
 14  6  1  0
 15 22  1  0
 15 13  1  0
 16 15  2  0
 18 19  2  0
 18 17  1  0
 20 18  1  0
 21 20  1  6
 21 22  1  0
 23 25  1  0
 23 21  1  0
 24 23  2  0
M  END
$$$$
