DLN.pdb
     RDKit          3D

 25 24  0  0  1  0  0  0  0  0999 V2000
   26.6176  -24.5351  -16.0656 N   0  0  0  0  0  0  0  0  0  0  0  0
   25.3858  -23.7972  -16.2517 C   0  0  1  0  0  0  0  0  0  0  0  0
   24.2524  -24.7813  -15.9928 C   0  0  0  0  0  0  0  0  0  0  0  0
   24.2058  -25.7721  -17.0732 C   0  0  0  0  0  0  0  0  0  0  0  0
   24.1614  -26.9964  -16.8019 O   0  0  0  0  0  0  0  0  0  0  0  0
   25.2774  -22.6645  -15.2926 C   0  0  0  0  0  0  0  0  0  0  0  0
   25.3221  -22.8508  -14.0382 O   0  0  0  0  0  0  0  0  0  0  0  0
   24.2094  -25.3943  -18.3996 O   0  0  0  0  0  0  0  0  0  0  0  0
   28.0417  -19.6173  -14.4427 C   0  0  0  0  0  0  0  0  0  0  0  0
   27.2829  -19.4827  -15.7380 C   0  0  2  0  0  0  0  0  0  0  0  0
   27.9608  -18.3848  -16.5428 C   0  0  0  0  0  0  0  0  0  0  0  0
   25.8708  -19.0700  -15.5094 C   0  0  0  0  0  0  0  0  0  0  0  0
   25.0395  -20.1846  -14.8965 C   0  0  2  0  0  0  0  0  0  0  0  0
   25.1208  -21.3370  -15.7401 N   0  0  0  0  0  0  0  0  0  0  0  0
   23.6463  -19.7268  -14.6712 C   0  0  0  0  0  0  0  0  0  0  0  0
   23.3998  -18.7922  -13.8729 O   0  0  0  0  0  0  0  0  0  0  0  0
   18.9791  -18.1267  -17.5058 N   0  0  0  0  0  0  0  0  0  0  0  0
   20.2610  -18.5831  -17.0662 C   0  0  0  0  0  0  0  0  0  0  0  0
   21.2146  -17.7861  -17.1907 O   0  0  0  0  0  0  0  0  0  0  0  0
   20.4587  -19.9198  -16.4954 C   0  0  0  0  0  0  0  0  0  0  0  0
   21.1625  -19.8756  -15.1942 C   0  0  2  0  0  0  0  0  0  0  0  0
   22.5701  -20.3426  -15.3586 N   0  0  0  0  0  0  0  0  0  0  0  0
   20.5646  -20.7437  -14.1323 C   0  0  0  0  0  0  0  0  0  0  0  0
   20.8905  -21.9143  -13.9998 O   0  0  0  0  0  0  0  0  0  0  0  0
   19.6030  -20.2462  -13.2448 O   0  0  0  0  0  0  0  0  0  0  0  0
  2  1  1  1
  2  3  1  0
  4  3  1  0
  5  4  2  0
  6  2  1  0
  7  6  2  0
  8  4  1  0
 10  9  1  1
 10 12  1  0
 11 10  1  0
 13 12  1  6
 13 14  1  0
 14  6  1  0
 15 22  1  0
 15 13  1  0
 16 15  2  0
 18 19  2  0
 18 17  1  0
 20 18  1  0
 21 20  1  6
 21 22  1  0
 23 25  1  0
 23 21  1  0
 24 23  2  0
M  END
$$$$
