DLN.pdb
     RDKit          3D

 25 24  0  0  1  0  0  0  0  0999 V2000
   29.9664  -10.8942  -18.7629 N   0  0  0  0  0  0  0  0  0  0  0  0
   29.2108   -9.8757  -18.0642 C   0  0  1  0  0  0  0  0  0  0  0  0
   28.4305  -10.5942  -16.9711 C   0  0  0  0  0  0  0  0  0  0  0  0
   27.4601  -11.5095  -17.5809 C   0  0  0  0  0  0  0  0  0  0  0  0
   27.2439  -11.4647  -18.8161 O   0  0  0  0  0  0  0  0  0  0  0  0
   30.1056   -8.8635  -17.4401 C   0  0  0  0  0  0  0  0  0  0  0  0
   29.6541   -7.9686  -16.6620 O   0  0  0  0  0  0  0  0  0  0  0  0
   26.7664  -12.4328  -16.8271 O   0  0  0  0  0  0  0  0  0  0  0  0
   34.1049   -8.3898  -14.8922 C   0  0  0  0  0  0  0  0  0  0  0  0
   34.0842   -9.1910  -16.1686 C   0  0  2  0  0  0  0  0  0  0  0  0
   35.4705   -9.7914  -16.3437 C   0  0  0  0  0  0  0  0  0  0  0  0
   33.8097   -8.3329  -17.3538 C   0  0  0  0  0  0  0  0  0  0  0  0
   32.3889   -7.7943  -17.3553 C   0  0  2  0  0  0  0  0  0  0  0  0
   31.4931   -8.8587  -17.6887 N   0  0  0  0  0  0  0  0  0  0  0  0
   32.2770   -6.6326  -18.2715 C   0  0  0  0  0  0  0  0  0  0  0  0
   32.5696   -6.7430  -19.4855 O   0  0  0  0  0  0  0  0  0  0  0  0
   30.7438   -2.2618  -20.5116 N   0  0  0  0  0  0  0  0  0  0  0  0
   30.0208   -3.4951  -20.4793 C   0  0  0  0  0  0  0  0  0  0  0  0
   29.0366   -3.5899  -21.2425 O   0  0  0  0  0  0  0  0  0  0  0  0
   30.4064   -4.6017  -19.5972 C   0  0  0  0  0  0  0  0  0  0  0  0
   31.5292   -4.2410  -18.7029 C   0  0  2  0  0  0  0  0  0  0  0  0
   31.8358   -5.3763  -17.7844 N   0  0  0  0  0  0  0  0  0  0  0  0
   31.2695   -3.0601  -17.8215 C   0  0  0  0  0  0  0  0  0  0  0  0
   30.5224   -3.1300  -16.8565 O   0  0  0  0  0  0  0  0  0  0  0  0
   31.8750   -1.8226  -18.0695 O   0  0  0  0  0  0  0  0  0  0  0  0
  2  1  1  1
  2  3  1  0
  4  3  1  0
  5  4  2  0
  6  2  1  0
  7  6  2  0
  8  4  1  0
 10  9  1  1
 10 12  1  0
 11 10  1  0
 13 12  1  6
 13 14  1  0
 14  6  1  0
 15 22  1  0
 15 13  1  0
 16 15  2  0
 18 19  2  0
 18 17  1  0
 20 18  1  0
 21 20  1  1
 21 22  1  0
 23 25  1  0
 23 21  1  0
 24 23  2  0
M  END
$$$$
