DLN.pdb
     RDKit          3D

 25 24  0  0  1  0  0  0  0  0999 V2000
   20.3340  -13.1698  -17.4032 N   0  0  0  0  0  0  0  0  0  0  0  0
   20.6870  -11.8976  -17.9976 C   0  0  1  0  0  0  0  0  0  0  0  0
   19.3899  -11.2926  -18.5188 C   0  0  0  0  0  0  0  0  0  0  0  0
   19.0145  -11.9452  -19.7776 C   0  0  0  0  0  0  0  0  0  0  0  0
   17.9682  -11.5993  -20.3774 O   0  0  0  0  0  0  0  0  0  0  0  0
   21.2881  -10.9750  -16.9965 C   0  0  0  0  0  0  0  0  0  0  0  0
   20.6240  -10.5519  -16.0014 O   0  0  0  0  0  0  0  0  0  0  0  0
   19.7882  -12.9435  -20.3316 O   0  0  0  0  0  0  0  0  0  0  0  0
   26.9272  -10.4231  -15.4226 C   0  0  0  0  0  0  0  0  0  0  0  0
   25.4523  -10.2128  -15.1945 C   0  0  2  0  0  0  0  0  0  0  0  0
   24.8548  -11.5673  -14.8463 C   0  0  0  0  0  0  0  0  0  0  0  0
   24.7695   -9.7191  -16.4219 C   0  0  0  0  0  0  0  0  0  0  0  0
   23.2657   -9.6062  -16.2357 C   0  0  2  0  0  0  0  0  0  0  0  0
   22.6217  -10.5338  -17.1138 N   0  0  0  0  0  0  0  0  0  0  0  0
   22.8224   -8.2056  -16.4440 C   0  0  0  0  0  0  0  0  0  0  0  0
   22.8323   -7.6935  -17.5881 O   0  0  0  0  0  0  0  0  0  0  0  0
   19.2082   -4.0653  -16.8623 N   0  0  0  0  0  0  0  0  0  0  0  0
   19.9805   -4.5705  -15.7699 C   0  0  0  0  0  0  0  0  0  0  0  0
   20.2101   -3.7797  -14.8307 O   0  0  0  0  0  0  0  0  0  0  0  0
   20.4839   -5.9479  -15.7425 C   0  0  0  0  0  0  0  0  0  0  0  0
   21.9455   -6.0064  -15.5168 C   0  0  2  0  0  0  0  0  0  0  0  0
   22.3797   -7.4239  -15.3471 N   0  0  0  0  0  0  0  0  0  0  0  0
   22.4168   -5.2848  -14.2937 C   0  0  0  0  0  0  0  0  0  0  0  0
   22.6720   -4.0895  -14.3107 O   0  0  0  0  0  0  0  0  0  0  0  0
   22.5851   -5.9544  -13.0759 O   0  0  0  0  0  0  0  0  0  0  0  0
  2  1  1  1
  2  3  1  0
  4  3  1  0
  5  4  2  0
  6  2  1  0
  7  6  2  0
  8  4  1  0
 10  9  1  6
 10 12  1  0
 11 10  1  0
 13 12  1  6
 13 14  1  0
 14  6  1  0
 15 22  1  0
 15 13  1  0
 16 15  2  0
 18 19  2  0
 18 17  1  0
 20 18  1  0
 21 20  1  1
 21 22  1  0
 23 25  1  0
 23 21  1  0
 24 23  2  0
M  END
$$$$
