DLN.pdb
     RDKit          3D

 25 24  0  0  1  0  0  0  0  0999 V2000
   21.6783  -21.9117  -14.0686 N   0  0  0  0  0  0  0  0  0  0  0  0
   21.5416  -20.4708  -14.1072 C   0  0  1  0  0  0  0  0  0  0  0  0
   20.5244  -20.1071  -13.0333 C   0  0  0  0  0  0  0  0  0  0  0  0
   19.2356  -20.7340  -13.3451 C   0  0  0  0  0  0  0  0  0  0  0  0
   18.9935  -21.1268  -14.5119 O   0  0  0  0  0  0  0  0  0  0  0  0
   22.8314  -19.7916  -13.8077 C   0  0  0  0  0  0  0  0  0  0  0  0
   22.9098  -18.5286  -13.7129 O   0  0  0  0  0  0  0  0  0  0  0  0
   18.2656  -20.9081  -12.3803 O   0  0  0  0  0  0  0  0  0  0  0  0
   24.3406  -20.0236  -10.4101 C   0  0  0  0  0  0  0  0  0  0  0  0
   24.9160  -21.1772  -11.1909 C   0  0  2  0  0  0  0  0  0  0  0  0
   25.6175  -22.0874  -10.1947 C   0  0  0  0  0  0  0  0  0  0  0  0
   25.9310  -20.7217  -12.1802 C   0  0  0  0  0  0  0  0  0  0  0  0
   25.3038  -19.9610  -13.3365 C   0  0  2  0  0  0  0  0  0  0  0  0
   24.0196  -20.5255  -13.6167 N   0  0  0  0  0  0  0  0  0  0  0  0
   26.2098  -19.9668  -14.5115 C   0  0  0  0  0  0  0  0  0  0  0  0
   27.4395  -20.1662  -14.3718 O   0  0  0  0  0  0  0  0  0  0  0  0
   28.8252  -22.5800  -15.8649 N   0  0  0  0  0  0  0  0  0  0  0  0
   28.2841  -21.7279  -16.8778 C   0  0  0  0  0  0  0  0  0  0  0  0
   29.1026  -21.1650  -17.6351 O   0  0  0  0  0  0  0  0  0  0  0  0
   26.8405  -21.5172  -17.0299 C   0  0  0  0  0  0  0  0  0  0  0  0
   26.4809  -20.0816  -17.0370 C   0  0  2  0  0  0  0  0  0  0  0  0
   25.6950  -19.7458  -15.8139 N   0  0  0  0  0  0  0  0  0  0  0  0
   25.6357  -19.6564  -18.1961 C   0  0  0  0  0  0  0  0  0  0  0  0
   26.0721  -18.9318  -19.0785 O   0  0  0  0  0  0  0  0  0  0  0  0
   24.3048  -20.0739  -18.3153 O   0  0  0  0  0  0  0  0  0  0  0  0
  2  1  1  1
  2  3  1  0
  4  3  1  0
  5  4  2  0
  6  2  1  0
  7  6  2  0
  8  4  1  0
 10  9  1  1
 10 12  1  0
 11 10  1  0
 13 12  1  1
 13 14  1  0
 14  6  1  0
 15 22  1  0
 15 13  1  0
 16 15  2  0
 18 19  2  0
 18 17  1  0
 20 18  1  0
 21 20  1  6
 21 22  1  0
 23 25  1  0
 23 21  1  0
 24 23  2  0
M  END
$$$$
