DLN.pdb
     RDKit          3D

 25 24  0  0  1  0  0  0  0  0999 V2000
   17.9380  -11.7827  -16.5655 N   0  0  0  0  0  0  0  0  0  0  0  0
   18.6220  -10.7210  -17.2737 C   0  0  1  0  0  0  0  0  0  0  0  0
   17.5432   -9.9162  -17.9868 C   0  0  0  0  0  0  0  0  0  0  0  0
   17.0796  -10.6536  -19.1670 C   0  0  0  0  0  0  0  0  0  0  0  0
   17.7488  -11.6192  -19.6077 O   0  0  0  0  0  0  0  0  0  0  0  0
   19.3595   -9.8279  -16.3393 C   0  0  0  0  0  0  0  0  0  0  0  0
   18.8212   -9.3888  -15.2774 O   0  0  0  0  0  0  0  0  0  0  0  0
   15.9124  -10.3134  -19.8180 O   0  0  0  0  0  0  0  0  0  0  0  0
   22.3455   -9.9358  -13.2845 C   0  0  0  0  0  0  0  0  0  0  0  0
   22.7934  -10.2939  -14.6783 C   0  0  2  0  0  0  0  0  0  0  0  0
   24.2113  -10.8331  -14.5690 C   0  0  0  0  0  0  0  0  0  0  0  0
   22.8303   -9.1015  -15.5690 C   0  0  0  0  0  0  0  0  0  0  0  0
   21.4472   -8.5173  -15.8028 C   0  0  2  0  0  0  0  0  0  0  0  0
   20.6882   -9.4338  -16.5968 N   0  0  0  0  0  0  0  0  0  0  0  0
   21.5515   -7.1688  -16.4128 C   0  0  0  0  0  0  0  0  0  0  0  0
   22.1270   -7.0063  -17.5145 O   0  0  0  0  0  0  0  0  0  0  0  0
   17.6934   -5.0980  -17.6088 N   0  0  0  0  0  0  0  0  0  0  0  0
   19.0674   -4.7072  -17.6747 C   0  0  0  0  0  0  0  0  0  0  0  0
   19.6586   -4.9112  -18.7558 O   0  0  0  0  0  0  0  0  0  0  0  0
   19.7593   -4.0957  -16.5350 C   0  0  0  0  0  0  0  0  0  0  0  0
   21.1088   -4.6665  -16.3263 C   0  0  2  0  0  0  0  0  0  0  0  0
   20.9995   -6.0406  -15.7551 N   0  0  0  0  0  0  0  0  0  0  0  0
   21.9715   -3.8961  -15.3771 C   0  0  0  0  0  0  0  0  0  0  0  0
   22.3757   -4.3864  -14.3329 O   0  0  0  0  0  0  0  0  0  0  0  0
   22.3508   -2.5763  -15.6494 O   0  0  0  0  0  0  0  0  0  0  0  0
  2  1  1  1
  2  3  1  0
  4  3  1  0
  5  4  2  0
  6  2  1  0
  7  6  2  0
  8  4  1  0
 10  9  1  1
 10 12  1  0
 11 10  1  0
 13 12  1  6
 13 14  1  0
 14  6  1  0
 15 22  1  0
 15 13  1  0
 16 15  2  0
 18 19  2  0
 18 17  1  0
 20 18  1  0
 21 20  1  1
 21 22  1  0
 23 25  1  0
 23 21  1  0
 24 23  2  0
M  END
$$$$
