DLN.pdb
     RDKit          3D

 25 24  0  0  1  0  0  0  0  0999 V2000
   23.4778  -13.9334  -17.5412 N   0  0  0  0  0  0  0  0  0  0  0  0
   22.3954  -13.4139  -16.7319 C   0  0  1  0  0  0  0  0  0  0  0  0
   21.7841  -14.6099  -16.0137 C   0  0  0  0  0  0  0  0  0  0  0  0
   21.3321  -15.5968  -17.0001 C   0  0  0  0  0  0  0  0  0  0  0  0
   20.6555  -15.2305  -17.9913 O   0  0  0  0  0  0  0  0  0  0  0  0
   22.8881  -12.4379  -15.7223 C   0  0  0  0  0  0  0  0  0  0  0  0
   22.1291  -11.9852  -14.8116 O   0  0  0  0  0  0  0  0  0  0  0  0
   21.6321  -16.9366  -16.8702 O   0  0  0  0  0  0  0  0  0  0  0  0
   28.3114  -11.9983  -15.9875 C   0  0  0  0  0  0  0  0  0  0  0  0
   26.8650  -11.5849  -16.0795 C   0  0  2  0  0  0  0  0  0  0  0  0
   26.8160  -10.3035  -16.8970 C   0  0  0  0  0  0  0  0  0  0  0  0
   26.2900  -11.2884  -14.7386 C   0  0  0  0  0  0  0  0  0  0  0  0
   24.7885  -11.0619  -14.7957 C   0  0  2  0  0  0  0  0  0  0  0  0
   24.2200  -11.9768  -15.7371 N   0  0  0  0  0  0  0  0  0  0  0  0
   24.4911   -9.6431  -15.1124 C   0  0  0  0  0  0  0  0  0  0  0  0
   24.9540   -8.7177  -14.4047 O   0  0  0  0  0  0  0  0  0  0  0  0
   22.3512   -5.3897  -17.2949 N   0  0  0  0  0  0  0  0  0  0  0  0
   23.1605   -6.1569  -18.1900 C   0  0  0  0  0  0  0  0  0  0  0  0
   23.4383   -5.6305  -19.2881 O   0  0  0  0  0  0  0  0  0  0  0  0
   23.6466   -7.4975  -17.8465 C   0  0  0  0  0  0  0  0  0  0  0  0
   23.2341   -7.9124  -16.4870 C   0  0  2  0  0  0  0  0  0  0  0  0
   23.6758   -9.3133  -16.2244 N   0  0  0  0  0  0  0  0  0  0  0  0
   21.7564   -7.8984  -16.2523 C   0  0  0  0  0  0  0  0  0  0  0  0
   21.0258   -8.7694  -16.7013 O   0  0  0  0  0  0  0  0  0  0  0  0
   21.1500   -6.8812  -15.5058 O   0  0  0  0  0  0  0  0  0  0  0  0
  2  1  1  1
  2  3  1  0
  4  3  1  0
  5  4  2  0
  6  2  1  0
  7  6  2  0
  8  4  1  0
 10  9  1  1
 10 12  1  0
 11 10  1  0
 13 12  1  6
 13 14  1  0
 14  6  1  0
 15 22  1  0
 15 13  1  0
 16 15  2  0
 18 19  2  0
 18 17  1  0
 20 18  1  0
 21 20  1  6
 21 22  1  0
 23 25  1  0
 23 21  1  0
 24 23  2  0
M  END
$$$$
