DLN.pdb
     RDKit          3D

 25 24  0  0  1  0  0  0  0  0999 V2000
   23.3051  -15.1320  -19.6035 N   0  0  0  0  0  0  0  0  0  0  0  0
   23.9357  -13.8426  -19.7941 C   0  0  1  0  0  0  0  0  0  0  0  0
   23.1192  -13.1182  -20.8564 C   0  0  0  0  0  0  0  0  0  0  0  0
   23.3904  -13.7083  -22.1715 C   0  0  0  0  0  0  0  0  0  0  0  0
   24.4888  -14.2731  -22.3927 O   0  0  0  0  0  0  0  0  0  0  0  0
   23.9276  -13.0401  -18.5409 C   0  0  0  0  0  0  0  0  0  0  0  0
   22.9230  -13.0306  -17.7656 O   0  0  0  0  0  0  0  0  0  0  0  0
   22.4609  -13.6612  -23.1893 O   0  0  0  0  0  0  0  0  0  0  0  0
   26.9268  -13.0851  -15.1950 C   0  0  0  0  0  0  0  0  0  0  0  0
   27.3155  -12.3945  -16.4770 C   0  0  2  0  0  0  0  0  0  0  0  0
   28.7868  -12.0276  -16.3605 C   0  0  0  0  0  0  0  0  0  0  0  0
   26.5494  -11.1339  -16.6781 C   0  0  0  0  0  0  0  0  0  0  0  0
   25.0930  -11.3966  -17.0228 C   0  0  2  0  0  0  0  0  0  0  0  0
   25.0377  -12.2573  -18.1641 N   0  0  0  0  0  0  0  0  0  0  0  0
   24.3702  -10.1166  -17.2251 C   0  0  0  0  0  0  0  0  0  0  0  0
   24.7293   -9.3116  -18.1165 O   0  0  0  0  0  0  0  0  0  0  0  0
   19.0831   -7.7127  -18.1179 N   0  0  0  0  0  0  0  0  0  0  0  0
   20.4148   -7.6433  -17.6017 C   0  0  0  0  0  0  0  0  0  0  0  0
   20.8792   -6.5022  -17.3958 O   0  0  0  0  0  0  0  0  0  0  0  0
   21.2066   -8.8463  -17.3237 C   0  0  0  0  0  0  0  0  0  0  0  0
   22.4726   -8.5350  -16.6231 C   0  0  2  0  0  0  0  0  0  0  0  0
   23.2590   -9.7850  -16.4095 N   0  0  0  0  0  0  0  0  0  0  0  0
   22.3013   -7.9228  -15.2686 C   0  0  0  0  0  0  0  0  0  0  0  0
   21.8241   -6.8069  -15.1231 O   0  0  0  0  0  0  0  0  0  0  0  0
   22.6835   -8.6079  -14.1092 O   0  0  0  0  0  0  0  0  0  0  0  0
  2  1  1  1
  2  3  1  0
  4  3  1  0
  5  4  2  0
  6  2  1  0
  7  6  2  0
  8  4  1  0
 10  9  1  1
 10 12  1  0
 11 10  1  0
 13 12  1  6
 13 14  1  0
 14  6  1  0
 15 22  1  0
 15 13  1  0
 16 15  2  0
 18 19  2  0
 18 17  1  0
 20 18  1  0
 21 20  1  1
 21 22  1  0
 23 25  1  0
 23 21  1  0
 24 23  2  0
M  END
$$$$
