DLN.pdb
     RDKit          3D

 25 24  0  0  1  0  0  0  0  0999 V2000
   24.9644  -19.0584  -17.7253 N   0  0  0  0  0  0  0  0  0  0  0  0
   25.0728  -20.4629  -18.0599 C   0  0  1  0  0  0  0  0  0  0  0  0
   26.4296  -20.6415  -18.7286 C   0  0  0  0  0  0  0  0  0  0  0  0
   26.4219  -19.9825  -20.0390 C   0  0  0  0  0  0  0  0  0  0  0  0
   25.3829  -19.9941  -20.7423 O   0  0  0  0  0  0  0  0  0  0  0  0
   25.0110  -21.3202  -16.8450 C   0  0  0  0  0  0  0  0  0  0  0  0
   25.0709  -22.5854  -16.9219 O   0  0  0  0  0  0  0  0  0  0  0  0
   27.5390  -19.3401  -20.5303 O   0  0  0  0  0  0  0  0  0  0  0  0
   27.9700  -21.4767  -14.5484 C   0  0  0  0  0  0  0  0  0  0  0  0
   27.0693  -20.3634  -14.0784 C   0  0  2  0  0  0  0  0  0  0  0  0
   27.8645  -19.5337  -13.0823 C   0  0  0  0  0  0  0  0  0  0  0  0
   25.8672  -20.8872  -13.3734 C   0  0  0  0  0  0  0  0  0  0  0  0
   24.8605  -21.4988  -14.3332 C   0  0  2  0  0  0  0  0  0  0  0  0
   24.8837  -20.7598  -15.5578 N   0  0  0  0  0  0  0  0  0  0  0  0
   23.5150  -21.5477  -13.7097 C   0  0  0  0  0  0  0  0  0  0  0  0
   23.3015  -22.2603  -12.7007 O   0  0  0  0  0  0  0  0  0  0  0  0
   21.8611  -19.3910  -10.7011 N   0  0  0  0  0  0  0  0  0  0  0  0
   20.9197  -20.1369  -11.4771 C   0  0  0  0  0  0  0  0  0  0  0  0
   20.3191  -21.0637  -10.8936 O   0  0  0  0  0  0  0  0  0  0  0  0
   20.6635  -19.8378  -12.8901 C   0  0  0  0  0  0  0  0  0  0  0  0
   21.0423  -20.9593  -13.7785 C   0  0  2  0  0  0  0  0  0  0  0  0
   22.4477  -20.7859  -14.2489 N   0  0  0  0  0  0  0  0  0  0  0  0
   20.2092  -21.0839  -15.0150 C   0  0  0  0  0  0  0  0  0  0  0  0
   19.2222  -21.8039  -15.0554 O   0  0  0  0  0  0  0  0  0  0  0  0
   20.5298  -20.3773  -16.1801 O   0  0  0  0  0  0  0  0  0  0  0  0
  2  1  1  1
  2  3  1  0
  4  3  1  0
  5  4  2  0
  6  2  1  0
  7  6  2  0
  8  4  1  0
 10  9  1  1
 10 12  1  0
 11 10  1  0
 13 12  1  1
 13 14  1  0
 14  6  1  0
 15 22  1  0
 15 13  1  0
 16 15  2  0
 18 19  2  0
 18 17  1  0
 20 18  1  0
 21 20  1  6
 21 22  1  0
 23 25  1  0
 23 21  1  0
 24 23  2  0
M  END
$$$$
