DLN.pdb
     RDKit          3D

 25 24  0  0  1  0  0  0  0  0999 V2000
   19.0384  -11.4173  -16.9898 N   0  0  0  0  0  0  0  0  0  0  0  0
   18.7196  -11.2268  -15.5903 C   0  0  1  0  0  0  0  0  0  0  0  0
   18.8165  -12.5995  -14.9372 C   0  0  0  0  0  0  0  0  0  0  0  0
   17.8366  -13.5041  -15.5477 C   0  0  0  0  0  0  0  0  0  0  0  0
   16.6175  -13.3871  -15.2747 O   0  0  0  0  0  0  0  0  0  0  0  0
   19.6832  -10.3038  -14.9314 C   0  0  0  0  0  0  0  0  0  0  0  0
   19.5994  -10.0289  -13.6954 O   0  0  0  0  0  0  0  0  0  0  0  0
   18.2194  -14.4957  -16.4265 O   0  0  0  0  0  0  0  0  0  0  0  0
   23.7992  -10.7648  -14.1319 C   0  0  0  0  0  0  0  0  0  0  0  0
   23.4684  -10.4597  -15.5703 C   0  0  2  0  0  0  0  0  0  0  0  0
   24.7431  -10.6589  -16.3756 C   0  0  0  0  0  0  0  0  0  0  0  0
   23.0368   -9.0461  -15.7488 C   0  0  0  0  0  0  0  0  0  0  0  0
   21.6819   -8.7758  -15.1161 C   0  0  2  0  0  0  0  0  0  0  0  0
   20.7297   -9.6972  -15.6552 N   0  0  0  0  0  0  0  0  0  0  0  0
   21.2931   -7.3574  -15.3122 C   0  0  0  0  0  0  0  0  0  0  0  0
   21.9934   -6.4299  -14.8424 O   0  0  0  0  0  0  0  0  0  0  0  0
   21.2623   -5.6168  -19.5888 N   0  0  0  0  0  0  0  0  0  0  0  0
   20.8820   -5.0577  -18.3288 C   0  0  0  0  0  0  0  0  0  0  0  0
   21.7119   -4.3078  -17.7730 O   0  0  0  0  0  0  0  0  0  0  0  0
   19.5835   -5.3437  -17.7092 C   0  0  0  0  0  0  0  0  0  0  0  0
   19.7016   -5.6151  -16.2591 C   0  0  2  0  0  0  0  0  0  0  0  0
   20.1190   -7.0303  -16.0366 N   0  0  0  0  0  0  0  0  0  0  0  0
   18.4331   -5.4361  -15.4860 C   0  0  0  0  0  0  0  0  0  0  0  0
   17.8492   -6.3835  -14.9804 O   0  0  0  0  0  0  0  0  0  0  0  0
   17.8624   -4.1698  -15.3114 O   0  0  0  0  0  0  0  0  0  0  0  0
  2  1  1  6
  2  3  1  0
  4  3  1  0
  5  4  2  0
  6  2  1  0
  7  6  2  0
  8  4  1  0
 10  9  1  1
 10 12  1  0
 11 10  1  0
 13 12  1  6
 13 14  1  0
 14  6  1  0
 15 22  1  0
 15 13  1  0
 16 15  2  0
 18 19  2  0
 18 17  1  0
 20 18  1  0
 21 20  1  6
 21 22  1  0
 23 25  1  0
 23 21  1  0
 24 23  2  0
M  END
$$$$
