CEV.pdb
     RDKit          3D

 23 22  0  0  1  0  0  0  0  0999 V2000
    7.2880  -14.0403   18.5879 N   0  0  0  0  0  0  0  0  0  0  0  0
    8.4528  -14.1588   19.4075 C   0  0  1  0  0  0  0  0  0  0  0  0
    9.1422  -12.8300   19.4863 C   0  0  0  0  0  0  0  0  0  0  0  0
    8.0373  -11.6851   20.3760 S   0  0  0  0  0  0  0  0  0  0  0  0
    8.1588  -14.7324   20.7445 C   0  0  0  0  0  0  0  0  0  0  0  0
    6.9918  -14.6087   21.2085 O   0  0  0  0  0  0  0  0  0  0  0  0
    9.1334  -15.4131   21.5218 N   0  0  0  0  0  0  0  0  0  0  0  0
    8.8768  -16.0175   22.8009 C   0  0  1  0  0  0  0  0  0  0  0  0
    9.8138  -17.2008   23.0530 C   0  0  0  0  0  0  0  0  0  0  0  0
    9.4314  -17.9302   24.3194 C   0  0  0  0  0  0  0  0  0  0  0  0
   10.4105  -18.9984   24.5737 C   0  0  0  0  0  0  0  0  0  0  0  0
   10.1042  -20.1986   24.4567 O   0  0  0  0  0  0  0  0  0  0  0  0
    9.1160  -15.0554   23.9246 C   0  0  0  0  0  0  0  0  0  0  0  0
   10.1433  -14.3312   23.9249 O   0  0  0  0  0  0  0  0  0  0  0  0
   11.7242  -18.6857   24.9577 O   0  0  0  0  0  0  0  0  0  0  0  0
    5.9526  -13.8651   26.3903 C   0  0  0  0  0  0  0  0  0  0  0  0
    7.2019  -13.0409   26.2402 C   0  0  2  0  0  0  0  0  0  0  0  0
    7.0590  -12.2349   24.9613 C   0  0  0  0  0  0  0  0  0  0  0  0
    8.4077  -13.9325   26.0546 C   0  0  2  0  0  0  0  0  0  0  0  0
    8.2192  -14.9145   25.0187 N   0  0  0  0  0  0  0  0  0  0  0  0
    8.6561  -14.6312   27.3319 C   0  0  0  0  0  0  0  0  0  0  0  0
    8.4783  -15.8665   27.4647 O   0  0  0  0  0  0  0  0  0  0  0  0
    9.0968  -13.9242   28.4233 O   0  0  0  0  0  0  0  0  0  0  0  0
  2  3  1  0
  2  5  1  0
  2  1  1  1
  4  3  1  0
  5  6  2  0
  7  5  1  0
  7  8  1  0
  8 13  1  0
  9 10  1  0
  8  9  1  1
 10 11  1  0
 11 12  2  0
 13 20  1  0
 14 13  2  0
 15 11  1  0
 17 16  1  6
 17 18  1  0
 19 17  1  0
 19 20  1  6
 21 23  1  0
 21 19  1  0
 22 21  2  0
M  END
$$$$
