CEV.pdb
     RDKit          3D

 23 22  0  0  1  0  0  0  0  0999 V2000
   10.4057  -13.3537   19.4659 N   0  0  0  0  0  0  0  0  0  0  0  0
    9.0032  -13.3377   19.7409 C   0  0  1  0  0  0  0  0  0  0  0  0
    8.2460  -13.6141   18.4771 C   0  0  0  0  0  0  0  0  0  0  0  0
    6.4698  -13.4314   18.8447 S   0  0  0  0  0  0  0  0  0  0  0  0
    8.6243  -14.2511   20.8478 C   0  0  0  0  0  0  0  0  0  0  0  0
    7.4561  -14.1731   21.3185 O   0  0  0  0  0  0  0  0  0  0  0  0
    9.5192  -15.2069   21.3982 N   0  0  0  0  0  0  0  0  0  0  0  0
    9.2458  -15.9992   22.5664 C   0  0  1  0  0  0  0  0  0  0  0  0
   10.2575  -17.1378   22.7133 C   0  0  0  0  0  0  0  0  0  0  0  0
    9.9449  -17.9828   23.9259 C   0  0  0  0  0  0  0  0  0  0  0  0
   10.9589  -19.0417   24.0489 C   0  0  0  0  0  0  0  0  0  0  0  0
   11.0865  -19.9202   23.1772 O   0  0  0  0  0  0  0  0  0  0  0  0
    9.3528  -15.1878   23.8218 C   0  0  0  0  0  0  0  0  0  0  0  0
   10.4526  -14.6736   24.1468 O   0  0  0  0  0  0  0  0  0  0  0  0
   11.8131  -19.0857   25.1622 O   0  0  0  0  0  0  0  0  0  0  0  0
    6.6194  -12.5236   24.8809 C   0  0  0  0  0  0  0  0  0  0  0  0
    7.0095  -13.3549   26.0723 C   0  0  2  0  0  0  0  0  0  0  0  0
    7.2600  -12.3997   27.2257 C   0  0  0  0  0  0  0  0  0  0  0  0
    8.3147  -14.0717   25.8158 C   0  0  2  0  0  0  0  0  0  0  0  0
    8.2474  -14.9631   24.6871 N   0  0  0  0  0  0  0  0  0  0  0  0
    8.6455  -14.8572   27.0221 C   0  0  0  0  0  0  0  0  0  0  0  0
    8.5065  -16.1037   27.0681 O   0  0  0  0  0  0  0  0  0  0  0  0
    9.1227  -14.2218   28.1418 O   0  0  0  0  0  0  0  0  0  0  0  0
  2  3  1  0
  2  5  1  0
  2  1  1  6
  4  3  1  0
  5  6  2  0
  7  5  1  0
  7  8  1  0
  8 13  1  0
  9 10  1  0
  8  9  1  1
 10 11  1  0
 11 12  2  0
 13 20  1  0
 14 13  2  0
 15 11  1  0
 17 16  1  6
 17 18  1  0
 19 17  1  0
 19 20  1  6
 21 23  1  0
 21 19  1  0
 22 21  2  0
M  END
$$$$
