CEV.pdb
     RDKit          3D

 23 22  0  0  1  0  0  0  0  0999 V2000
    7.4881  -15.2582   18.5469 N   0  0  0  0  0  0  0  0  0  0  0  0
    8.0916  -14.5683   19.6435 C   0  0  1  0  0  0  0  0  0  0  0  0
    7.5222  -13.1847   19.7340 C   0  0  0  0  0  0  0  0  0  0  0  0
    8.1958  -12.2168   18.3438 S   0  0  0  0  0  0  0  0  0  0  0  0
    7.9861  -15.3165   20.9211 C   0  0  0  0  0  0  0  0  0  0  0  0
    6.8552  -15.7542   21.2700 O   0  0  0  0  0  0  0  0  0  0  0  0
    9.1021  -15.5599   21.7654 N   0  0  0  0  0  0  0  0  0  0  0  0
    9.0227  -16.1804   23.0600 C   0  0  1  0  0  0  0  0  0  0  0  0
   10.1282  -17.2223   23.2442 C   0  0  0  0  0  0  0  0  0  0  0  0
    9.8458  -18.4580   22.4226 C   0  0  0  0  0  0  0  0  0  0  0  0
   10.9237  -19.4359   22.6380 C   0  0  0  0  0  0  0  0  0  0  0  0
   11.7720  -19.6687   21.7582 O   0  0  0  0  0  0  0  0  0  0  0  0
    9.2080  -15.1830   24.1630 C   0  0  0  0  0  0  0  0  0  0  0  0
   10.2800  -14.5325   24.2495 O   0  0  0  0  0  0  0  0  0  0  0  0
   11.0209  -20.1349   23.8518 O   0  0  0  0  0  0  0  0  0  0  0  0
    6.6482  -12.4332   25.3541 C   0  0  0  0  0  0  0  0  0  0  0  0
    7.1256  -13.2231   26.5418 C   0  0  2  0  0  0  0  0  0  0  0  0
    7.4882  -12.2271   27.6291 C   0  0  0  0  0  0  0  0  0  0  0  0
    8.3930  -13.9742   26.2060 C   0  0  2  0  0  0  0  0  0  0  0  0
    8.2097  -14.9270   25.1423 N   0  0  0  0  0  0  0  0  0  0  0  0
    8.8281  -14.6952   27.4195 C   0  0  0  0  0  0  0  0  0  0  0  0
    8.7337  -15.9420   27.5272 O   0  0  0  0  0  0  0  0  0  0  0  0
    9.3564  -13.9967   28.4769 O   0  0  0  0  0  0  0  0  0  0  0  0
  2  3  1  0
  2  5  1  0
  2  1  1  6
  4  3  1  0
  5  6  2  0
  7  5  1  0
  7  8  1  0
  8 13  1  0
  9 10  1  0
  8  9  1  6
 10 11  1  0
 11 12  2  0
 13 20  1  0
 14 13  2  0
 15 11  1  0
 17 16  1  6
 17 18  1  0
 19 17  1  0
 19 20  1  6
 21 23  1  0
 21 19  1  0
 22 21  2  0
M  END
$$$$
