CEV.pdb
     RDKit          3D

 23 22  0  0  1  0  0  0  0  0999 V2000
    7.8881  -14.8316   18.0001 N   0  0  0  0  0  0  0  0  0  0  0  0
    8.3927  -14.1360   19.1421 C   0  0  1  0  0  0  0  0  0  0  0  0
    7.9478  -12.7055   19.0891 C   0  0  0  0  0  0  0  0  0  0  0  0
    8.6706  -11.8473   20.5258 S   0  0  0  0  0  0  0  0  0  0  0  0
    8.0389  -14.7996   20.4217 C   0  0  0  0  0  0  0  0  0  0  0  0
    6.8734  -15.2644   20.5558 O   0  0  0  0  0  0  0  0  0  0  0  0
    8.9549  -14.9331   21.4990 N   0  0  0  0  0  0  0  0  0  0  0  0
    8.6837  -15.6545   22.7128 C   0  0  1  0  0  0  0  0  0  0  0  0
    9.5884  -16.8819   22.8422 C   0  0  0  0  0  0  0  0  0  0  0  0
    9.1914  -17.7202   24.0345 C   0  0  0  0  0  0  0  0  0  0  0  0
   10.0337  -18.9257   24.0770 C   0  0  0  0  0  0  0  0  0  0  0  0
    9.5675  -20.0505   23.8213 O   0  0  0  0  0  0  0  0  0  0  0  0
    8.9506  -14.8157   23.9255 C   0  0  0  0  0  0  0  0  0  0  0  0
   10.0752  -14.2767   24.0827 O   0  0  0  0  0  0  0  0  0  0  0  0
   11.3946  -18.8340   24.4099 O   0  0  0  0  0  0  0  0  0  0  0  0
    5.7984  -13.8094   26.6114 C   0  0  0  0  0  0  0  0  0  0  0  0
    7.0105  -12.9306   26.4673 C   0  0  2  0  0  0  0  0  0  0  0  0
    6.7428  -11.9792   25.3145 C   0  0  0  0  0  0  0  0  0  0  0  0
    8.2182  -13.7506   26.0770 C   0  0  2  0  0  0  0  0  0  0  0  0
    7.9739  -14.5914   24.9340 N   0  0  0  0  0  0  0  0  0  0  0  0
    8.5773  -14.6051   27.2270 C   0  0  0  0  0  0  0  0  0  0  0  0
    8.4678  -15.8548   27.1922 O   0  0  0  0  0  0  0  0  0  0  0  0
    9.0488  -14.0329   28.3826 O   0  0  0  0  0  0  0  0  0  0  0  0
  2  3  1  0
  2  5  1  0
  2  1  1  6
  4  3  1  0
  5  6  2  0
  7  5  1  0
  7  8  1  0
  8 13  1  0
  9 10  1  0
  8  9  1  1
 10 11  1  0
 11 12  2  0
 13 20  1  0
 14 13  2  0
 15 11  1  0
 17 16  1  6
 17 18  1  0
 19 17  1  0
 19 20  1  6
 21 23  1  0
 21 19  1  0
 22 21  2  0
M  END
$$$$
