CEV.pdb
     RDKit          3D

 23 22  0  0  1  0  0  0  0  0999 V2000
    7.7442  -14.9348   17.8707 N   0  0  0  0  0  0  0  0  0  0  0  0
    8.3019  -14.2725   19.0078 C   0  0  1  0  0  0  0  0  0  0  0  0
    7.8266  -12.8511   19.0375 C   0  0  0  0  0  0  0  0  0  0  0  0
    8.6165  -12.0329   20.4622 S   0  0  0  0  0  0  0  0  0  0  0  0
    8.0375  -14.9921   20.2788 C   0  0  0  0  0  0  0  0  0  0  0  0
    6.8878  -15.4766   20.4675 O   0  0  0  0  0  0  0  0  0  0  0  0
    9.0221  -15.1580   21.2890 N   0  0  0  0  0  0  0  0  0  0  0  0
    8.8191  -15.8883   22.5108 C   0  0  1  0  0  0  0  0  0  0  0  0
    9.8454  -17.0132   22.6615 C   0  0  0  0  0  0  0  0  0  0  0  0
    9.6596  -17.7395   23.9729 C   0  0  0  0  0  0  0  0  0  0  0  0
   10.6650  -18.8085   24.0776 C   0  0  0  0  0  0  0  0  0  0  0  0
   11.8111  -18.5798   24.5041 O   0  0  0  0  0  0  0  0  0  0  0  0
    8.9892  -15.0109   23.7137 C   0  0  0  0  0  0  0  0  0  0  0  0
   10.0591  -14.3728   23.8807 O   0  0  0  0  0  0  0  0  0  0  0  0
   10.3517  -20.1226   23.6953 O   0  0  0  0  0  0  0  0  0  0  0  0
    6.3074  -12.4628   25.1665 C   0  0  0  0  0  0  0  0  0  0  0  0
    6.8374  -13.3437   26.2645 C   0  0  2  0  0  0  0  0  0  0  0  0
    7.1673  -12.4453   27.4433 C   0  0  0  0  0  0  0  0  0  0  0  0
    8.1342  -13.9954   25.8437 C   0  0  2  0  0  0  0  0  0  0  0  0
    7.9783  -14.8580   24.7016 N   0  0  0  0  0  0  0  0  0  0  0  0
    8.6285  -14.7978   26.9810 C   0  0  0  0  0  0  0  0  0  0  0  0
    8.5376  -16.0493   27.0067 O   0  0  0  0  0  0  0  0  0  0  0  0
    9.2104  -14.1733   28.0564 O   0  0  0  0  0  0  0  0  0  0  0  0
  2  3  1  0
  2  5  1  0
  2  1  1  6
  4  3  1  0
  5  6  2  0
  7  5  1  0
  7  8  1  0
  8 13  1  0
  9 10  1  0
  8  9  1  1
 10 11  1  0
 11 12  2  0
 13 20  1  0
 14 13  2  0
 15 11  1  0
 17 16  1  6
 17 18  1  0
 19 17  1  0
 19 20  1  6
 21 23  1  0
 21 19  1  0
 22 21  2  0
M  END
$$$$
