CEV.pdb
     RDKit          3D

 23 22  0  0  1  0  0  0  0  0999 V2000
    7.6743  -15.0917   18.1493 N   0  0  0  0  0  0  0  0  0  0  0  0
    8.2395  -14.3867   19.2567 C   0  0  1  0  0  0  0  0  0  0  0  0
    7.7190  -12.9810   19.2687 C   0  0  0  0  0  0  0  0  0  0  0  0
    8.8523  -11.9624   18.2681 S   0  0  0  0  0  0  0  0  0  0  0  0
    8.0322  -15.0860   20.5493 C   0  0  0  0  0  0  0  0  0  0  0  0
    6.8720  -15.4925   20.8338 O   0  0  0  0  0  0  0  0  0  0  0  0
    9.0825  -15.3165   21.4774 N   0  0  0  0  0  0  0  0  0  0  0  0
    8.9291  -16.0213   22.7212 C   0  0  1  0  0  0  0  0  0  0  0  0
    9.9850  -17.1187   22.8705 C   0  0  0  0  0  0  0  0  0  0  0  0
    9.7952  -17.8762   24.1636 C   0  0  0  0  0  0  0  0  0  0  0  0
   10.8578  -18.8859   24.2902 C   0  0  0  0  0  0  0  0  0  0  0  0
   12.0601  -18.5702   24.2392 O   0  0  0  0  0  0  0  0  0  0  0  0
    9.1107  -15.1114   23.8979 C   0  0  0  0  0  0  0  0  0  0  0  0
   10.1670  -14.4409   24.0177 O   0  0  0  0  0  0  0  0  0  0  0  0
   10.5369  -20.2404   24.4731 O   0  0  0  0  0  0  0  0  0  0  0  0
    6.3850  -12.6173   25.1680 C   0  0  0  0  0  0  0  0  0  0  0  0
    6.9493  -13.3551   26.3511 C   0  0  2  0  0  0  0  0  0  0  0  0
    7.2665  -12.3215   27.4172 C   0  0  0  0  0  0  0  0  0  0  0  0
    8.2590  -14.0166   25.9897 C   0  0  2  0  0  0  0  0  0  0  0  0
    8.1258  -14.9624   24.9123 N   0  0  0  0  0  0  0  0  0  0  0  0
    8.7540  -14.7266   27.1865 C   0  0  0  0  0  0  0  0  0  0  0  0
    8.6593  -15.9716   27.3130 O   0  0  0  0  0  0  0  0  0  0  0  0
    9.3410  -14.0195   28.2066 O   0  0  0  0  0  0  0  0  0  0  0  0
  2  3  1  0
  2  5  1  0
  2  1  1  6
  4  3  1  0
  5  6  2  0
  7  5  1  0
  7  8  1  0
  8 13  1  0
  9 10  1  0
  8  9  1  1
 10 11  1  0
 11 12  2  0
 13 20  1  0
 14 13  2  0
 15 11  1  0
 17 16  1  6
 17 18  1  0
 19 17  1  0
 19 20  1  6
 21 23  1  0
 21 19  1  0
 22 21  2  0
M  END
$$$$
