CEV.pdb
     RDKit          3D

 23 22  0  0  1  0  0  0  0  0999 V2000
    7.5768  -15.0133   18.3863 N   0  0  0  0  0  0  0  0  0  0  0  0
    8.2837  -14.3682   19.4479 C   0  0  1  0  0  0  0  0  0  0  0  0
    7.9308  -12.9115   19.4665 C   0  0  0  0  0  0  0  0  0  0  0  0
    9.0667  -12.0520   18.3289 S   0  0  0  0  0  0  0  0  0  0  0  0
    8.0729  -15.0262   20.7616 C   0  0  0  0  0  0  0  0  0  0  0  0
    6.8962  -15.3328   21.0985 O   0  0  0  0  0  0  0  0  0  0  0  0
    9.1376  -15.3244   21.6531 N   0  0  0  0  0  0  0  0  0  0  0  0
    8.9687  -15.9122   22.9543 C   0  0  1  0  0  0  0  0  0  0  0  0
   10.0262  -16.9860   23.2191 C   0  0  0  0  0  0  0  0  0  0  0  0
    9.8434  -17.5957   24.5891 C   0  0  0  0  0  0  0  0  0  0  0  0
   10.9111  -18.5801   24.8242 C   0  0  0  0  0  0  0  0  0  0  0  0
   10.7113  -19.7993   24.6778 O   0  0  0  0  0  0  0  0  0  0  0  0
    9.1299  -14.8968   24.0446 C   0  0  0  0  0  0  0  0  0  0  0  0
   10.2311  -14.3115   24.2014 O   0  0  0  0  0  0  0  0  0  0  0  0
   12.1912  -18.1630   25.2226 O   0  0  0  0  0  0  0  0  0  0  0  0
    7.0829  -11.5490   26.9885 C   0  0  0  0  0  0  0  0  0  0  0  0
    6.8954  -12.7040   26.0432 C   0  0  2  0  0  0  0  0  0  0  0  0
    5.8986  -13.6534   26.6840 C   0  0  0  0  0  0  0  0  0  0  0  0
    8.1847  -13.4760   25.8850 C   0  0  2  0  0  0  0  0  0  0  0  0
    8.0759  -14.5515   24.9340 N   0  0  0  0  0  0  0  0  0  0  0  0
    8.5397  -14.0412   27.2026 C   0  0  0  0  0  0  0  0  0  0  0  0
    8.5072  -15.2746   27.4326 O   0  0  0  0  0  0  0  0  0  0  0  0
    8.9209  -13.2066   28.2241 O   0  0  0  0  0  0  0  0  0  0  0  0
  2  3  1  0
  2  5  1  0
  2  1  1  6
  4  3  1  0
  5  6  2  0
  7  5  1  0
  7  8  1  0
  8 13  1  0
  9 10  1  0
  8  9  1  1
 10 11  1  0
 11 12  2  0
 13 20  1  0
 14 13  2  0
 15 11  1  0
 17 16  1  1
 17 18  1  0
 19 17  1  0
 19 20  1  6
 21 23  1  0
 21 19  1  0
 22 21  2  0
M  END
$$$$
