CEV.pdb
     RDKit          3D

 23 22  0  0  1  0  0  0  0  0999 V2000
    7.0893  -15.7913   18.4508 N   0  0  0  0  0  0  0  0  0  0  0  0
    7.8237  -14.9598   19.3519 C   0  0  1  0  0  0  0  0  0  0  0  0
    7.3195  -13.5517   19.2515 C   0  0  0  0  0  0  0  0  0  0  0  0
    8.2860  -12.5334   20.4143 S   0  0  0  0  0  0  0  0  0  0  0  0
    7.8157  -15.4739   20.7442 C   0  0  0  0  0  0  0  0  0  0  0  0
    6.7032  -15.6926   21.2980 O   0  0  0  0  0  0  0  0  0  0  0  0
    9.0049  -15.7295   21.4777 N   0  0  0  0  0  0  0  0  0  0  0  0
    9.0380  -16.1730   22.8450 C   0  0  1  0  0  0  0  0  0  0  0  0
   10.2961  -16.9960   23.1306 C   0  0  0  0  0  0  0  0  0  0  0  0
   10.3191  -17.4635   24.5669 C   0  0  0  0  0  0  0  0  0  0  0  0
   11.5049  -18.3080   24.7790 C   0  0  0  0  0  0  0  0  0  0  0  0
   11.8330  -19.1818   23.9564 O   0  0  0  0  0  0  0  0  0  0  0  0
    9.0748  -15.0185   23.7996 C   0  0  0  0  0  0  0  0  0  0  0  0
    9.9142  -14.0966   23.6401 O   0  0  0  0  0  0  0  0  0  0  0  0
   12.3006  -18.1462   25.9245 O   0  0  0  0  0  0  0  0  0  0  0  0
    6.4437  -12.4773   24.7033 C   0  0  0  0  0  0  0  0  0  0  0  0
    6.8733  -13.1352   25.9859 C   0  0  2  0  0  0  0  0  0  0  0  0
    7.0548  -12.0359   27.0175 C   0  0  0  0  0  0  0  0  0  0  0  0
    8.2221  -13.7956   25.8187 C   0  0  2  0  0  0  0  0  0  0  0  0
    8.1875  -14.9076   24.9049 N   0  0  0  0  0  0  0  0  0  0  0  0
    8.6559  -14.2831   27.1438 C   0  0  0  0  0  0  0  0  0  0  0  0
    8.8722  -13.5057   28.1050 O   0  0  0  0  0  0  0  0  0  0  0  0
    8.8345  -15.6284   27.3522 O   0  0  0  0  0  0  0  0  0  0  0  0
  2  3  1  0
  2  5  1  0
  2  1  1  6
  4  3  1  0
  5  6  2  0
  7  5  1  0
  7  8  1  0
  8 13  1  0
  9 10  1  0
  8  9  1  6
 10 11  1  0
 11 12  2  0
 13 20  1  0
 14 13  2  0
 15 11  1  0
 17 16  1  6
 17 18  1  0
 19 17  1  0
 19 20  1  6
 21 23  1  0
 21 19  1  0
 22 21  2  0
M  END
$$$$
