SRC.pdb
     RDKit          3D

 24 23  0  0  1  0  0  0  0  0999 V2000
   14.3651  -10.7372  -14.9408 O   0  0  0  0  0  0  0  0  0  0  0  0
   15.6739  -10.3434  -14.6093 C   0  0  0  0  0  0  0  0  0  0  0  0
   16.6667  -11.3591  -15.1552 C   0  0  2  0  0  0  0  0  0  0  0  0
   16.5426  -12.5672  -14.3528 N   0  0  0  0  0  0  0  0  0  0  0  0
   18.0546  -10.8271  -15.1098 C   0  0  0  0  0  0  0  0  0  0  0  0
   18.7582  -11.0111  -14.0726 O   0  0  0  0  0  0  0  0  0  0  0  0
   24.9615  -12.0140  -16.5959 N   0  0  0  0  0  0  0  0  0  0  0  0
   24.1377  -12.1841  -17.7519 C   0  0  0  0  0  0  0  0  0  0  0  0
   24.2782  -13.2225  -18.4971 N   0  0  0  0  0  0  0  0  0  0  0  0
   23.1517  -11.2417  -18.1230 N   0  0  0  0  0  0  0  0  0  0  0  0
   22.8725  -10.1156  -17.3001 C   0  0  0  0  0  0  0  0  0  0  0  0
   21.8684   -9.1464  -17.8243 C   0  0  0  0  0  0  0  0  0  0  0  0
   20.4886   -9.6844  -17.5660 C   0  0  0  0  0  0  0  0  0  0  0  0
   20.0586   -9.6669  -16.1254 C   0  0  2  0  0  0  0  0  0  0  0  0
   18.6439  -10.1203  -16.1664 N   0  0  0  0  0  0  0  0  0  0  0  0
   20.0425   -8.2581  -15.6625 C   0  0  0  0  0  0  0  0  0  0  0  0
   19.1436   -7.4802  -16.0670 O   0  0  0  0  0  0  0  0  0  0  0  0
   23.6910  -13.3537  -19.3518 N   0  0  0  0  0  0  0  0  0  0  0  0
   20.9947   -7.7051  -14.7700 C   0  0  2  0  0  0  0  0  0  0  0  0
   20.9774   -6.3350  -14.3234 C   0  0  0  0  0  0  0  0  0  0  0  0
   21.9902   -6.2101  -13.1768 S   0  0  0  0  0  0  0  0  0  0  0  0
   22.0096   -4.4967  -12.5563 C   0  0  0  0  0  0  0  0  0  0  0  0
   21.2936   -5.3685  -15.3881 O   0  0  0  0  0  0  0  0  0  0  0  0
   22.1883   -5.6227  -16.2136 O   0  0  0  0  0  0  0  0  0  0  0  0
  1  2  1  0
  3  4  1  1
  3  2  1  0
  5  3  1  0
  6  5  2  0
  7  8  1  0
  8  9  2  0
  8 10  1  0
 10 11  1  0
 11 12  1  0
 14 13  1  6
 13 12  1  0
 14 15  1  0
 15  5  1  0
 16 14  1  0
 16 18  1  0
 17 16  2  0
 19 18  1  0
 19 20  1  1
 20 21  1  0
 22 19  1  0
 22 24  1  0
 23 22  2  0
M  END
$$$$
