SRC.pdb
     RDKit          3D

 24 23  0  0  1  0  0  0  0  0999 V2000
   28.7832  -11.8824  -15.4280 O   0  0  0  0  0  0  0  0  0  0  0  0
   27.7871  -10.9762  -15.8337 C   0  0  0  0  0  0  0  0  0  0  0  0
   26.8528  -11.6543  -16.8250 C   0  0  2  0  0  0  0  0  0  0  0  0
   27.5985  -11.8615  -18.0578 N   0  0  0  0  0  0  0  0  0  0  0  0
   25.6395  -10.8288  -17.0661 C   0  0  0  0  0  0  0  0  0  0  0  0
   25.6757   -9.9081  -17.9353 O   0  0  0  0  0  0  0  0  0  0  0  0
   17.5623  -13.4689  -15.5515 N   0  0  0  0  0  0  0  0  0  0  0  0
   17.3018  -12.1204  -15.9485 C   0  0  0  0  0  0  0  0  0  0  0  0
   16.0937  -11.7294  -16.1510 N   0  0  0  0  0  0  0  0  0  0  0  0
   18.3349  -11.1735  -16.1330 N   0  0  0  0  0  0  0  0  0  0  0  0
   19.6990  -11.5399  -15.9647 C   0  0  0  0  0  0  0  0  0  0  0  0
   20.7114  -10.5195  -16.3597 C   0  0  0  0  0  0  0  0  0  0  0  0
   22.0840  -11.1205  -16.2388 C   0  0  0  0  0  0  0  0  0  0  0  0
   23.2083  -10.2367  -16.7028 C   0  0  2  0  0  0  0  0  0  0  0  0
   24.4337  -11.0116  -16.3762 N   0  0  0  0  0  0  0  0  0  0  0  0
   23.2290   -9.0245  -15.8487 C   0  0  0  0  0  0  0  0  0  0  0  0
   23.5840   -9.1152  -14.6478 O   0  0  0  0  0  0  0  0  0  0  0  0
   15.8821  -10.7291  -16.3682 N   0  0  0  0  0  0  0  0  0  0  0  0
   22.8672   -7.7302  -16.2991 C   0  0  2  0  0  0  0  0  0  0  0  0
   22.8054   -6.5701  -15.4463 C   0  0  0  0  0  0  0  0  0  0  0  0
   23.5465   -5.4315  -16.1608 S   0  0  0  0  0  0  0  0  0  0  0  0
   23.4770   -3.9193  -15.1459 C   0  0  0  0  0  0  0  0  0  0  0  0
   21.4307   -6.1558  -15.1206 O   0  0  0  0  0  0  0  0  0  0  0  0
   20.5150   -6.3375  -15.9423 O   0  0  0  0  0  0  0  0  0  0  0  0
  1  2  1  0
  3  4  1  6
  3  2  1  0
  5  3  1  0
  6  5  2  0
  7  8  1  0
  8  9  2  0
  8 10  1  0
 10 11  1  0
 11 12  1  0
 14 13  1  1
 13 12  1  0
 14 15  1  0
 15  5  1  0
 16 14  1  0
 16 18  1  0
 17 16  2  0
 19 18  1  0
 19 20  1  6
 20 21  1  0
 22 19  1  0
 22 24  1  0
 23 22  2  0
M  END
$$$$
