SRC.pdb
     RDKit          3D

 24 23  0  0  1  0  0  0  0  0999 V2000
   19.7310  -11.6373  -19.9941 O   0  0  0  0  0  0  0  0  0  0  0  0
   20.0599  -10.9473  -18.8135 C   0  0  0  0  0  0  0  0  0  0  0  0
   21.3192  -11.5468  -18.2054 C   0  0  2  0  0  0  0  0  0  0  0  0
   21.0079  -12.9136  -17.8132 N   0  0  0  0  0  0  0  0  0  0  0  0
   21.7819  -10.7480  -17.0395 C   0  0  0  0  0  0  0  0  0  0  0  0
   21.1511  -10.8233  -15.9436 O   0  0  0  0  0  0  0  0  0  0  0  0
   27.2637  -12.5641  -17.6165 N   0  0  0  0  0  0  0  0  0  0  0  0
   27.7257  -12.6540  -16.2666 C   0  0  0  0  0  0  0  0  0  0  0  0
   28.2928  -13.7298  -15.8490 N   0  0  0  0  0  0  0  0  0  0  0  0
   27.5856  -11.5896  -15.3470 N   0  0  0  0  0  0  0  0  0  0  0  0
   26.8702  -10.4115  -15.6982 C   0  0  0  0  0  0  0  0  0  0  0  0
   25.3861  -10.4772  -15.5738 C   0  0  0  0  0  0  0  0  0  0  0  0
   24.8060   -9.1368  -15.9297 C   0  0  0  0  0  0  0  0  0  0  0  0
   23.3040   -9.0701  -15.9164 C   0  0  2  0  0  0  0  0  0  0  0  0
   22.8965   -9.8998  -17.0801 N   0  0  0  0  0  0  0  0  0  0  0  0
   22.8982   -7.6768  -16.2221 C   0  0  0  0  0  0  0  0  0  0  0  0
   23.2056   -7.1672  -17.3277 O   0  0  0  0  0  0  0  0  0  0  0  0
   28.6190  -13.8159  -14.8597 N   0  0  0  0  0  0  0  0  0  0  0  0
   22.1665   -6.8503  -15.3330 C   0  0  2  0  0  0  0  0  0  0  0  0
   21.7956   -5.4882  -15.6226 C   0  0  0  0  0  0  0  0  0  0  0  0
   20.2904   -5.3523  -15.3545 S   0  0  0  0  0  0  0  0  0  0  0  0
   19.7935   -3.6053  -15.5047 C   0  0  0  0  0  0  0  0  0  0  0  0
   22.5440   -4.4971  -14.8319 O   0  0  0  0  0  0  0  0  0  0  0  0
   23.0020   -3.4800  -15.3817 O   0  0  0  0  0  0  0  0  0  0  0  0
  1  2  1  0
  3  4  1  1
  3  2  1  0
  5  3  1  0
  6  5  2  0
  7  8  1  0
  8  9  2  0
  8 10  1  0
 10 11  1  0
 11 12  1  0
 14 13  1  6
 13 12  1  0
 14 15  1  0
 15  5  1  0
 16 14  1  0
 16 18  1  0
 17 16  2  0
 19 18  1  0
 19 20  1  1
 20 21  1  0
 22 19  1  0
 22 24  1  0
 23 22  2  0
M  END
$$$$
