SRC.pdb
     RDKit          3D

 24 23  0  0  1  0  0  0  0  0999 V2000
   26.5887  -19.9002  -17.7195 O   0  0  0  0  0  0  0  0  0  0  0  0
   27.8326  -19.8941  -17.0632 C   0  0  0  0  0  0  0  0  0  0  0  0
   28.0972  -21.2644  -16.4571 C   0  0  2  0  0  0  0  0  0  0  0  0
   28.2024  -22.2153  -17.5543 N   0  0  0  0  0  0  0  0  0  0  0  0
   27.0121  -21.6511  -15.5165 C   0  0  0  0  0  0  0  0  0  0  0  0
   26.1652  -22.5248  -15.8685 O   0  0  0  0  0  0  0  0  0  0  0  0
   22.9120  -20.8535   -8.7018 N   0  0  0  0  0  0  0  0  0  0  0  0
   24.0878  -21.0543   -7.9136 C   0  0  0  0  0  0  0  0  0  0  0  0
   23.9859  -21.3402   -6.6641 N   0  0  0  0  0  0  0  0  0  0  0  0
   25.3888  -20.9513   -8.4567 N   0  0  0  0  0  0  0  0  0  0  0  0
   25.6113  -20.2929   -9.6977 C   0  0  0  0  0  0  0  0  0  0  0  0
   25.1222  -20.9973  -10.9171 C   0  0  0  0  0  0  0  0  0  0  0  0
   26.1488  -20.8586  -12.0065 C   0  0  0  0  0  0  0  0  0  0  0  0
   25.7900  -21.5228  -13.3068 C   0  0  2  0  0  0  0  0  0  0  0  0
   26.8668  -21.0965  -14.2379 N   0  0  0  0  0  0  0  0  0  0  0  0
   24.5305  -20.9186  -13.8048 C   0  0  0  0  0  0  0  0  0  0  0  0
   24.5021  -19.7009  -14.1095 O   0  0  0  0  0  0  0  0  0  0  0  0
   24.8359  -21.4288   -6.0623 N   0  0  0  0  0  0  0  0  0  0  0  0
   23.3177  -21.6338  -13.9683 C   0  0  2  0  0  0  0  0  0  0  0  0
   22.0884  -21.0380  -14.4272 C   0  0  0  0  0  0  0  0  0  0  0  0
   21.1648  -22.1764  -14.8821 S   0  0  0  0  0  0  0  0  0  0  0  0
   19.5468  -21.4973  -15.3742 C   0  0  0  0  0  0  0  0  0  0  0  0
   21.4181  -20.2180  -13.4044 O   0  0  0  0  0  0  0  0  0  0  0  0
   21.4369  -20.5722  -12.2125 O   0  0  0  0  0  0  0  0  0  0  0  0
  1  2  1  0
  3  4  1  6
  3  2  1  0
  5  3  1  0
  6  5  2  0
  7  8  1  0
  8  9  2  0
  8 10  1  0
 10 11  1  0
 11 12  1  0
 14 13  1  1
 13 12  1  0
 14 15  1  0
 15  5  1  0
 16 14  1  0
 16 18  1  0
 17 16  2  0
 19 18  1  0
 19 20  1  1
 20 21  1  0
 22 19  1  0
 22 24  1  0
 23 22  2  0
M  END
$$$$
