SRC.pdb
     RDKit          3D

 24 23  0  0  1  0  0  0  0  0999 V2000
   26.1510  -18.6985  -17.1693 O   0  0  0  0  0  0  0  0  0  0  0  0
   27.4228  -18.1003  -17.1153 C   0  0  0  0  0  0  0  0  0  0  0  0
   28.4688  -19.1532  -16.7801 C   0  0  2  0  0  0  0  0  0  0  0  0
   28.8170  -19.8340  -18.0187 N   0  0  0  0  0  0  0  0  0  0  0  0
   27.9545  -20.1139  -15.7681 C   0  0  0  0  0  0  0  0  0  0  0  0
   27.4504  -21.2110  -16.1511 O   0  0  0  0  0  0  0  0  0  0  0  0
   32.0075  -22.9040  -11.7688 N   0  0  0  0  0  0  0  0  0  0  0  0
   31.6287  -22.6618  -10.4116 C   0  0  0  0  0  0  0  0  0  0  0  0
   32.1141  -23.3867   -9.4671 N   0  0  0  0  0  0  0  0  0  0  0  0
   30.7240  -21.6375  -10.0504 N   0  0  0  0  0  0  0  0  0  0  0  0
   30.4035  -20.5927  -10.9609 C   0  0  0  0  0  0  0  0  0  0  0  0
   29.7209  -21.0007  -12.2218 C   0  0  0  0  0  0  0  0  0  0  0  0
   28.2802  -20.5763  -12.1570 C   0  0  0  0  0  0  0  0  0  0  0  0
   27.4786  -20.8552  -13.3981 C   0  0  2  0  0  0  0  0  0  0  0  0
   27.9948  -19.8745  -14.3881 N   0  0  0  0  0  0  0  0  0  0  0  0
   26.0664  -20.4896  -13.1308 C   0  0  0  0  0  0  0  0  0  0  0  0
   25.7703  -19.2969  -12.8729 O   0  0  0  0  0  0  0  0  0  0  0  0
   31.8680  -23.2026   -8.4680 N   0  0  0  0  0  0  0  0  0  0  0  0
   24.9913  -21.4131  -13.1449 C   0  0  2  0  0  0  0  0  0  0  0  0
   23.6203  -21.0552  -12.8821 C   0  0  0  0  0  0  0  0  0  0  0  0
   22.7405  -22.2240  -13.3466 S   0  0  0  0  0  0  0  0  0  0  0  0
   21.0103  -21.9241  -12.8590 C   0  0  0  0  0  0  0  0  0  0  0  0
   23.3558  -20.7518  -11.4659 O   0  0  0  0  0  0  0  0  0  0  0  0
   23.9875  -21.3453  -10.5741 O   0  0  0  0  0  0  0  0  0  0  0  0
  1  2  1  0
  3  4  1  6
  3  2  1  0
  5  3  1  0
  6  5  2  0
  7  8  1  0
  8  9  2  0
  8 10  1  0
 10 11  1  0
 11 12  1  0
 14 13  1  1
 13 12  1  0
 14 15  1  0
 15  5  1  0
 16 14  1  0
 16 18  1  0
 17 16  2  0
 19 18  1  0
 19 20  1  6
 20 21  1  0
 22 19  1  0
 22 24  1  0
 23 22  2  0
M  END
$$$$
