SRC.pdb
     RDKit          3D

 24 23  0  0  1  0  0  0  0  0999 V2000
   27.0643  -18.5573  -15.9285 O   0  0  0  0  0  0  0  0  0  0  0  0
   27.5518  -18.7330  -14.6210 C   0  0  0  0  0  0  0  0  0  0  0  0
   27.4411  -20.1986  -14.2272 C   0  0  2  0  0  0  0  0  0  0  0  0
   28.1582  -20.9759  -15.2273 N   0  0  0  0  0  0  0  0  0  0  0  0
   26.0183  -20.6222  -14.1397 C   0  0  0  0  0  0  0  0  0  0  0  0
   25.5351  -21.3705  -15.0404 O   0  0  0  0  0  0  0  0  0  0  0  0
   19.7468  -22.2710   -9.5887 N   0  0  0  0  0  0  0  0  0  0  0  0
   20.7001  -21.8214   -8.6228 C   0  0  0  0  0  0  0  0  0  0  0  0
   20.6550  -22.2650   -7.4167 N   0  0  0  0  0  0  0  0  0  0  0  0
   21.7151  -20.8898   -8.9391 N   0  0  0  0  0  0  0  0  0  0  0  0
   21.5446  -19.9572   -9.9994 C   0  0  0  0  0  0  0  0  0  0  0  0
   21.8408  -20.4559  -11.3727 C   0  0  0  0  0  0  0  0  0  0  0  0
   23.3113  -20.2995  -11.6429 C   0  0  0  0  0  0  0  0  0  0  0  0
   23.7486  -20.6898  -13.0275 C   0  0  2  0  0  0  0  0  0  0  0  0
   25.1619  -20.2363  -13.0999 N   0  0  0  0  0  0  0  0  0  0  0  0
   22.9870  -19.8724  -14.0028 C   0  0  0  0  0  0  0  0  0  0  0  0
   23.1586  -18.6291  -14.0413 O   0  0  0  0  0  0  0  0  0  0  0  0
   21.3393  -21.9372   -6.6979 N   0  0  0  0  0  0  0  0  0  0  0  0
   22.0505  -20.4045  -14.9240 C   0  0  2  0  0  0  0  0  0  0  0  0
   21.3042  -19.6062  -15.8635 C   0  0  0  0  0  0  0  0  0  0  0  0
   21.0161  -20.4841  -17.0892 S   0  0  0  0  0  0  0  0  0  0  0  0
   20.0843  -19.5255  -18.3279 C   0  0  0  0  0  0  0  0  0  0  0  0
   20.0465  -19.0759  -15.3115 O   0  0  0  0  0  0  0  0  0  0  0  0
   19.3895  -19.7515  -14.5001 O   0  0  0  0  0  0  0  0  0  0  0  0
  1  2  1  0
  3  4  1  6
  3  2  1  0
  5  3  1  0
  6  5  2  0
  7  8  1  0
  8  9  2  0
  8 10  1  0
 10 11  1  0
 11 12  1  0
 14 13  1  1
 13 12  1  0
 14 15  1  0
 15  5  1  0
 16 14  1  0
 16 18  1  0
 17 16  2  0
 19 18  1  0
 19 20  1  6
 20 21  1  0
 22 19  1  0
 22 24  1  0
 23 22  2  0
M  END
$$$$
