SRC.pdb
     RDKit          3D

 24 23  0  0  1  0  0  0  0  0999 V2000
   23.2990  -15.1649  -19.0816 O   0  0  0  0  0  0  0  0  0  0  0  0
   23.1601  -16.5635  -19.0292 C   0  0  0  0  0  0  0  0  0  0  0  0
   24.4050  -17.1774  -18.4059 C   0  0  2  0  0  0  0  0  0  0  0  0
   25.4082  -17.2924  -19.4543 N   0  0  0  0  0  0  0  0  0  0  0  0
   24.1033  -18.5045  -17.8064 C   0  0  0  0  0  0  0  0  0  0  0  0
   24.0668  -19.5295  -18.5498 O   0  0  0  0  0  0  0  0  0  0  0  0
   26.4005  -20.8121  -10.1223 N   0  0  0  0  0  0  0  0  0  0  0  0
   24.9712  -20.8374  -10.1446 C   0  0  0  0  0  0  0  0  0  0  0  0
   24.3062  -20.6803   -9.0554 N   0  0  0  0  0  0  0  0  0  0  0  0
   24.2369  -21.0312  -11.3367 N   0  0  0  0  0  0  0  0  0  0  0  0
   24.9000  -21.2914  -12.5679 C   0  0  0  0  0  0  0  0  0  0  0  0
   24.0397  -21.3428  -13.7843 C   0  0  0  0  0  0  0  0  0  0  0  0
   24.2178  -20.0693  -14.5630 C   0  0  0  0  0  0  0  0  0  0  0  0
   23.4909  -20.0213  -15.8783 C   0  0  2  0  0  0  0  0  0  0  0  0
   23.8521  -18.6941  -16.4410 N   0  0  0  0  0  0  0  0  0  0  0  0
   22.0341  -19.9866  -15.6030 C   0  0  0  0  0  0  0  0  0  0  0  0
   21.5314  -18.9854  -15.0360 O   0  0  0  0  0  0  0  0  0  0  0  0
   23.2621  -20.7307   -9.0514 N   0  0  0  0  0  0  0  0  0  0  0  0
   21.1374  -21.0307  -15.9419 C   0  0  2  0  0  0  0  0  0  0  0  0
   19.7142  -20.9709  -15.7234 C   0  0  0  0  0  0  0  0  0  0  0  0
   19.0462  -21.8548  -16.7857 S   0  0  0  0  0  0  0  0  0  0  0  0
   19.5102  -21.2745  -18.4499 C   0  0  0  0  0  0  0  0  0  0  0  0
   19.3104  -21.4036  -14.3753 O   0  0  0  0  0  0  0  0  0  0  0  0
   20.1015  -22.0503  -13.6665 O   0  0  0  0  0  0  0  0  0  0  0  0
  1  2  1  0
  3  4  1  6
  3  2  1  0
  5  3  1  0
  6  5  2  0
  7  8  1  0
  8  9  2  0
  8 10  1  0
 10 11  1  0
 11 12  1  0
 14 13  1  1
 13 12  1  0
 14 15  1  0
 15  5  1  0
 16 14  1  0
 16 18  1  0
 17 16  2  0
 19 18  1  0
 19 20  1  6
 20 21  1  0
 22 19  1  0
 22 24  1  0
 23 22  2  0
M  END
$$$$
