APN.pdb
     RDKit          3D

 21 21  0  0  1  0  0  0  0  0999 V2000
    5.1662  -17.4123   21.5696 C   0  0  0  0  0  0  0  0  0  0  0  0
    5.6966  -17.1108   20.1763 C   0  0  2  0  0  0  0  0  0  0  0  0
    5.6029  -18.2685   19.3562 N   0  0  0  0  0  0  0  0  0  0  0  0
    7.0394  -16.5388   20.3346 C   0  0  0  0  0  0  0  0  0  0  0  0
    7.9641  -17.3804   20.5965 O   0  0  0  0  0  0  0  0  0  0  0  0
    7.3793  -15.1842   20.2243 N   0  0  0  0  0  0  0  0  0  0  0  0
    6.5904  -14.0408   19.8368 C   0  0  0  0  0  0  0  0  0  0  0  0
    7.2508  -12.8985   20.5715 C   0  0  0  0  0  0  0  0  0  0  0  0
    8.7129  -13.2144   20.2109 C   0  0  0  0  0  0  0  0  0  0  0  0
    8.7306  -14.6691   20.5053 C   0  0  1  0  0  0  0  0  0  0  0  0
    9.1725  -15.0149   21.8692 C   0  0  0  0  0  0  0  0  0  0  0  0
    8.3004  -14.9950   22.7616 O   0  0  0  0  0  0  0  0  0  0  0  0
   10.8569  -17.8523   25.7678 N   0  0  0  0  0  0  0  0  0  0  0  0
   11.0490  -18.2911   24.4322 C   0  0  0  0  0  0  0  0  0  0  0  0
   11.7101  -19.3453   24.1995 O   0  0  0  0  0  0  0  0  0  0  0  0
   10.4824  -17.5241   23.3199 C   0  0  0  0  0  0  0  0  0  0  0  0
   11.0327  -16.0963   23.2526 C   0  0  2  0  0  0  0  0  0  0  0  0
   10.4839  -15.3430   22.1436 N   0  0  0  0  0  0  0  0  0  0  0  0
   12.4811  -16.1904   23.1713 C   0  0  0  0  0  0  0  0  0  0  0  0
   13.2154  -16.3325   22.0004 O   0  0  0  0  0  0  0  0  0  0  0  0
   13.1535  -16.1415   24.2424 O   0  0  0  0  0  0  0  0  0  0  0  0
  2  1  1  1
  2  4  1  0
  3  2  1  0
  4  5  2  0
  6 10  1  0
  6  4  1  0
  7  6  1  0
  8  9  1  0
  8  7  1  0
  9 10  1  0
 10 11  1  1
 11 12  2  0
 11 18  1  0
 14 13  1  0
 14 16  1  0
 15 14  2  0
 17 16  1  6
 17 19  1  0
 18 17  1  0
 19 20  1  0
 21 19  2  0
M  END
$$$$
