APN.pdb
     RDKit          3D

 21 21  0  0  1  0  0  0  0  0999 V2000
    6.4484  -14.2402   20.6159 C   0  0  0  0  0  0  0  0  0  0  0  0
    7.4309  -13.1657   21.0561 C   0  0  2  0  0  0  0  0  0  0  0  0
    8.3692  -12.9067   20.0197 N   0  0  0  0  0  0  0  0  0  0  0  0
    7.9929  -13.5893   22.3446 C   0  0  0  0  0  0  0  0  0  0  0  0
    8.9908  -14.3834   22.2705 O   0  0  0  0  0  0  0  0  0  0  0  0
    7.5370  -13.2042   23.6121 N   0  0  0  0  0  0  0  0  0  0  0  0
    6.4597  -12.3285   24.0027 C   0  0  0  0  0  0  0  0  0  0  0  0
    6.0466  -12.8671   25.3517 C   0  0  0  0  0  0  0  0  0  0  0  0
    7.4452  -12.9970   25.9801 C   0  0  0  0  0  0  0  0  0  0  0  0
    8.1546  -13.6725   24.8649 C   0  0  1  0  0  0  0  0  0  0  0  0
    8.1689  -15.1450   24.9477 C   0  0  0  0  0  0  0  0  0  0  0  0
    7.2328  -15.7461   24.3824 O   0  0  0  0  0  0  0  0  0  0  0  0
   10.7341  -19.3773   23.2248 N   0  0  0  0  0  0  0  0  0  0  0  0
   11.4031  -18.4034   24.0105 C   0  0  0  0  0  0  0  0  0  0  0  0
   12.5341  -18.6639   24.5162 O   0  0  0  0  0  0  0  0  0  0  0  0
   10.7855  -17.0945   24.2379 C   0  0  0  0  0  0  0  0  0  0  0  0
    9.7330  -17.1288   25.3501 C   0  0  2  0  0  0  0  0  0  0  0  0
    9.1667  -15.8223   25.6171 N   0  0  0  0  0  0  0  0  0  0  0  0
   10.3657  -17.6899   26.5324 C   0  0  0  0  0  0  0  0  0  0  0  0
   11.1757  -16.9934   27.4208 O   0  0  0  0  0  0  0  0  0  0  0  0
   10.1794  -18.9133   26.7977 O   0  0  0  0  0  0  0  0  0  0  0  0
  2  1  1  6
  2  4  1  0
  3  2  1  0
  4  5  2  0
  6 10  1  0
  6  4  1  0
  7  6  1  0
  8  9  1  0
  8  7  1  0
  9 10  1  0
 10 11  1  1
 11 12  2  0
 11 18  1  0
 14 13  1  0
 14 16  1  0
 15 14  2  0
 17 16  1  6
 17 19  1  0
 18 17  1  0
 19 20  1  0
 21 19  2  0
M  END
$$$$
