APN.pdb
     RDKit          3D

 21 21  0  0  1  0  0  0  0  0999 V2000
    6.7533  -15.7338   22.4156 C   0  0  0  0  0  0  0  0  0  0  0  0
    7.3418  -14.3312   22.4248 C   0  0  2  0  0  0  0  0  0  0  0  0
    8.1358  -14.1264   21.2632 N   0  0  0  0  0  0  0  0  0  0  0  0
    8.0236  -14.1522   23.7126 C   0  0  0  0  0  0  0  0  0  0  0  0
    9.2040  -14.6365   23.7776 O   0  0  0  0  0  0  0  0  0  0  0  0
    7.5002  -13.5114   24.8431 N   0  0  0  0  0  0  0  0  0  0  0  0
    6.2132  -12.9025   25.0728 C   0  0  0  0  0  0  0  0  0  0  0  0
    6.0201  -13.0512   26.5632 C   0  0  0  0  0  0  0  0  0  0  0  0
    7.4038  -12.5567   27.0198 C   0  0  0  0  0  0  0  0  0  0  0  0
    8.2621  -13.3344   26.0915 C   0  0  1  0  0  0  0  0  0  0  0  0
    8.7364  -14.6239   26.6275 C   0  0  0  0  0  0  0  0  0  0  0  0
    7.9028  -15.5514   26.6728 O   0  0  0  0  0  0  0  0  0  0  0  0
   12.9160  -14.8731   25.1623 N   0  0  0  0  0  0  0  0  0  0  0  0
   12.2215  -15.9908   25.6929 C   0  0  0  0  0  0  0  0  0  0  0  0
   11.7034  -16.8440   24.9143 O   0  0  0  0  0  0  0  0  0  0  0  0
   12.1029  -16.1591   27.1434 C   0  0  0  0  0  0  0  0  0  0  0  0
   10.6679  -15.9606   27.6407 C   0  0  2  0  0  0  0  0  0  0  0  0
   10.0359  -14.7948   27.0574 N   0  0  0  0  0  0  0  0  0  0  0  0
   10.7168  -15.8737   29.0909 C   0  0  0  0  0  0  0  0  0  0  0  0
   10.9296  -16.9401   29.9558 O   0  0  0  0  0  0  0  0  0  0  0  0
   10.5547  -14.7435   29.6370 O   0  0  0  0  0  0  0  0  0  0  0  0
  2  1  1  1
  2  4  1  0
  3  2  1  0
  4  5  2  0
  6 10  1  0
  6  4  1  0
  7  6  1  0
  8  9  1  0
  8  7  1  0
  9 10  1  0
 10 11  1  1
 11 12  2  0
 11 18  1  0
 14 13  1  0
 14 16  1  0
 15 14  2  0
 17 16  1  6
 17 19  1  0
 18 17  1  0
 19 20  1  0
 21 19  2  0
M  END
$$$$
