HLM.pdb
     RDKit          3D

 27 27  0  0  1  0  0  0  0  0999 V2000
   20.1469  -12.8500  -17.6998 N   0  0  0  0  0  0  0  0  0  0  0  0
   21.2106  -11.8551  -18.0357 C   0  0  1  0  0  0  0  0  0  0  0  0
   20.5300  -10.8367  -18.8805 C   0  0  0  0  0  0  0  0  0  0  0  0
   20.1466  -11.2367  -20.2328 C   0  0  0  0  0  0  0  0  0  0  0  0
   20.2705  -12.4104  -20.9216 C   0  0  0  0  0  0  0  0  0  0  0  0
   19.6789  -12.2419  -22.1426 N   0  0  0  0  0  0  0  0  0  0  0  0
   19.2110  -11.0060  -22.1903 C   0  0  0  0  0  0  0  0  0  0  0  0
   19.4765  -10.3805  -21.0597 N   0  0  0  0  0  0  0  0  0  0  0  0
   21.5610  -11.1785  -16.7250 C   0  0  0  0  0  0  0  0  0  0  0  0
   20.7486  -11.1690  -15.8088 O   0  0  0  0  0  0  0  0  0  0  0  0
   25.8860  -12.1429  -15.8625 C   0  0  0  0  0  0  0  0  0  0  0  0
   25.5732  -10.6346  -15.9058 C   0  0  2  0  0  0  0  0  0  0  0  0
   26.8771   -9.9422  -15.7234 C   0  0  0  0  0  0  0  0  0  0  0  0
   24.5371  -10.3853  -14.8688 C   0  0  0  0  0  0  0  0  0  0  0  0
   23.2283   -9.8727  -15.3277 C   0  0  2  0  0  0  0  0  0  0  0  0
   22.8356  -10.5508  -16.5523 N   0  0  0  0  0  0  0  0  0  0  0  0
   23.0454   -8.4302  -15.4002 C   0  0  0  0  0  0  0  0  0  0  0  0
   23.1543   -7.7526  -14.3485 O   0  0  0  0  0  0  0  0  0  0  0  0
   22.1206   -2.3383  -20.4722 C   0  0  0  0  0  0  0  0  0  0  0  0
   22.5193   -4.0062  -20.0521 S   0  0  0  0  0  0  0  0  0  0  0  0
   22.4048   -4.4095  -18.3252 C   0  0  0  0  0  0  0  0  0  0  0  0
   22.6569   -5.8371  -18.0465 C   0  0  0  0  0  0  0  0  0  0  0  0
   22.4602   -6.3028  -16.6386 C   0  0  2  0  0  0  0  0  0  0  0  0
   22.7498   -7.7526  -16.6066 N   0  0  0  0  0  0  0  0  0  0  0  0
   21.0591   -6.1200  -16.2482 C   0  0  0  0  0  0  0  0  0  0  0  0
   20.6749   -4.9546  -15.6084 O   0  0  0  0  0  0  0  0  0  0  0  0
   20.1946   -6.9692  -16.4669 O   0  0  0  0  0  0  0  0  0  0  0  0
  2  3  1  0
  2  1  1  1
  4  3  1  0
  5  4  2  0
  6  5  1  0
  6  7  1  0
  7  8  2  0
  8  4  1  0
  9 16  1  0
  9  2  1  0
 10  9  2  0
 12 11  1  1
 12 13  1  0
 14 12  1  0
 15 14  1  6
 15 16  1  0
 17 15  1  0
 18 17  2  0
 19 20  1  0
 20 21  1  0
 22 21  1  0
 23 22  1  6
 23 25  1  0
 23 24  1  0
 24 17  1  0
 25 26  1  0
 27 25  2  0
M  END
$$$$
