HLM.pdb
     RDKit          3D

 27 27  0  0  1  0  0  0  0  0999 V2000
   22.8251  -19.6239  -18.4656 N   0  0  0  0  0  0  0  0  0  0  0  0
   23.2909  -18.6705  -17.4128 C   0  0  1  0  0  0  0  0  0  0  0  0
   22.0443  -18.1393  -16.7981 C   0  0  0  0  0  0  0  0  0  0  0  0
   21.3252  -17.1010  -17.5332 C   0  0  0  0  0  0  0  0  0  0  0  0
   21.5255  -15.7563  -17.6708 C   0  0  0  0  0  0  0  0  0  0  0  0
   20.5773  -15.2794  -18.5326 N   0  0  0  0  0  0  0  0  0  0  0  0
   19.8281  -16.3033  -18.9053 C   0  0  0  0  0  0  0  0  0  0  0  0
   20.2533  -17.4076  -18.3224 N   0  0  0  0  0  0  0  0  0  0  0  0
   23.9706  -19.5271  -16.3627 C   0  0  0  0  0  0  0  0  0  0  0  0
   23.4242  -20.5473  -15.9625 O   0  0  0  0  0  0  0  0  0  0  0  0
   27.6502  -21.8818  -16.3499 C   0  0  0  0  0  0  0  0  0  0  0  0
   27.9411  -20.3684  -16.3516 C   0  0  2  0  0  0  0  0  0  0  0  0
   29.4052  -20.2348  -16.5780 C   0  0  0  0  0  0  0  0  0  0  0  0
   27.4150  -19.8329  -15.0680 C   0  0  0  0  0  0  0  0  0  0  0  0
   25.9579  -19.9327  -14.8384 C   0  0  2  0  0  0  0  0  0  0  0  0
   25.2471  -19.1501  -15.8363 N   0  0  0  0  0  0  0  0  0  0  0  0
   25.4607  -19.7077  -13.4886 C   0  0  0  0  0  0  0  0  0  0  0  0
   25.4318  -18.5343  -13.0419 O   0  0  0  0  0  0  0  0  0  0  0  0
   19.9822  -21.1587  -11.3296 C   0  0  0  0  0  0  0  0  0  0  0  0
   20.8317  -21.4242   -9.8047 S   0  0  0  0  0  0  0  0  0  0  0  0
   22.5493  -20.9688   -9.7953 C   0  0  0  0  0  0  0  0  0  0  0  0
   23.1736  -21.0380  -11.1313 C   0  0  0  0  0  0  0  0  0  0  0  0
   24.5673  -20.5103  -11.2616 C   0  0  2  0  0  0  0  0  0  0  0  0
   25.0056  -20.7546  -12.6527 N   0  0  0  0  0  0  0  0  0  0  0  0
   25.4641  -21.2572  -10.3747 C   0  0  0  0  0  0  0  0  0  0  0  0
   25.7448  -20.7623   -9.1131 O   0  0  0  0  0  0  0  0  0  0  0  0
   25.9874  -22.3215  -10.7056 O   0  0  0  0  0  0  0  0  0  0  0  0
  2  3  1  0
  2  1  1  6
  4  3  1  0
  5  4  2  0
  6  5  1  0
  6  7  1  0
  7  8  2  0
  8  4  1  0
  9 16  1  0
  9  2  1  0
 10  9  2  0
 12 11  1  1
 12 13  1  0
 14 12  1  0
 15 14  1  1
 15 16  1  0
 17 15  1  0
 18 17  2  0
 19 20  1  0
 20 21  1  0
 22 21  1  0
 23 22  1  6
 23 25  1  0
 23 24  1  0
 24 17  1  0
 25 26  1  0
 27 25  2  0
M  END
$$$$
