HLM.pdb
     RDKit          3D

 27 27  0  0  1  0  0  0  0  0999 V2000
   17.5080  -12.1849  -16.1290 N   0  0  0  0  0  0  0  0  0  0  0  0
   18.3412  -11.4229  -17.1084 C   0  0  1  0  0  0  0  0  0  0  0  0
   17.4432  -10.3556  -17.6267 C   0  0  0  0  0  0  0  0  0  0  0  0
   16.3119  -10.7746  -18.4514 C   0  0  0  0  0  0  0  0  0  0  0  0
   14.9702  -10.8621  -18.2074 C   0  0  0  0  0  0  0  0  0  0  0  0
   14.3608  -11.2593  -19.3650 N   0  0  0  0  0  0  0  0  0  0  0  0
   15.3038  -11.4062  -20.2803 C   0  0  0  0  0  0  0  0  0  0  0  0
   16.4827  -11.1222  -19.7612 N   0  0  0  0  0  0  0  0  0  0  0  0
   19.4114  -10.7368  -16.2824 C   0  0  0  0  0  0  0  0  0  0  0  0
   19.1369  -10.3012  -15.1714 O   0  0  0  0  0  0  0  0  0  0  0  0
   25.4304  -11.1741  -15.8943 C   0  0  0  0  0  0  0  0  0  0  0  0
   24.2712  -10.2392  -15.4979 C   0  0  2  0  0  0  0  0  0  0  0  0
   24.2327  -10.2452  -14.0109 C   0  0  0  0  0  0  0  0  0  0  0  0
   23.0597  -10.7444  -16.1965 C   0  0  0  0  0  0  0  0  0  0  0  0
   21.8154   -9.9596  -16.0488 C   0  0  2  0  0  0  0  0  0  0  0  0
   20.7408  -10.5952  -16.7937 N   0  0  0  0  0  0  0  0  0  0  0  0
   21.8817   -8.5226  -16.2731 C   0  0  0  0  0  0  0  0  0  0  0  0
   22.1533   -8.1015  -17.4246 O   0  0  0  0  0  0  0  0  0  0  0  0
   18.3298   -1.9212  -16.5550 C   0  0  0  0  0  0  0  0  0  0  0  0
   18.5669   -3.6449  -16.2550 S   0  0  0  0  0  0  0  0  0  0  0  0
   20.2387   -4.1396  -15.9112 C   0  0  0  0  0  0  0  0  0  0  0  0
   20.3929   -5.6014  -15.7736 C   0  0  0  0  0  0  0  0  0  0  0  0
   21.7675   -6.1192  -15.4906 C   0  0  2  0  0  0  0  0  0  0  0  0
   21.6524   -7.5735  -15.2490 N   0  0  0  0  0  0  0  0  0  0  0  0
   22.2852   -5.5039  -14.2650 C   0  0  0  0  0  0  0  0  0  0  0  0
   22.7774   -4.2111  -14.3050 O   0  0  0  0  0  0  0  0  0  0  0  0
   22.3027   -6.0938  -13.1842 O   0  0  0  0  0  0  0  0  0  0  0  0
  2  3  1  0
  2  1  1  1
  4  3  1  0
  5  4  2  0
  6  5  1  0
  6  7  1  0
  7  8  2  0
  8  4  1  0
  9 16  1  0
  9  2  1  0
 10  9  2  0
 12 11  1  1
 12 13  1  0
 14 12  1  0
 15 14  1  6
 15 16  1  0
 17 15  1  0
 18 17  2  0
 19 20  1  0
 20 21  1  0
 22 21  1  0
 23 22  1  1
 23 25  1  0
 23 24  1  0
 24 17  1  0
 25 26  1  0
 27 25  2  0
M  END
$$$$
