HLM.pdb
     RDKit          3D

 27 27  0  0  1  0  0  0  0  0999 V2000
   22.7361  -21.6971  -13.1475 N   0  0  0  0  0  0  0  0  0  0  0  0
   23.4437  -20.4554  -12.7096 C   0  0  1  0  0  0  0  0  0  0  0  0
   22.3950  -19.6270  -12.0555 C   0  0  0  0  0  0  0  0  0  0  0  0
   21.4438  -18.9406  -12.9271 C   0  0  0  0  0  0  0  0  0  0  0  0
   21.5958  -17.9908  -13.8978 C   0  0  0  0  0  0  0  0  0  0  0  0
   20.3647  -17.7490  -14.4411 N   0  0  0  0  0  0  0  0  0  0  0  0
   19.4960  -18.5286  -13.8197 C   0  0  0  0  0  0  0  0  0  0  0  0
   20.1144  -19.2538  -12.9077 N   0  0  0  0  0  0  0  0  0  0  0  0
   24.4006  -20.8974  -11.6199 C   0  0  0  0  0  0  0  0  0  0  0  0
   24.0295  -21.7000  -10.7727 O   0  0  0  0  0  0  0  0  0  0  0  0
   30.0202  -21.2488  -12.3269 C   0  0  0  0  0  0  0  0  0  0  0  0
   28.5589  -21.6124  -11.9993 C   0  0  2  0  0  0  0  0  0  0  0  0
   27.8570  -21.6991  -13.3079 C   0  0  0  0  0  0  0  0  0  0  0  0
   28.0672  -20.5808  -11.0479 C   0  0  0  0  0  0  0  0  0  0  0  0
   26.6886  -20.7333  -10.5357 C   0  0  2  0  0  0  0  0  0  0  0  0
   25.7351  -20.3819  -11.5753 N   0  0  0  0  0  0  0  0  0  0  0  0
   26.3658  -20.1316   -9.2498 C   0  0  0  0  0  0  0  0  0  0  0  0
   25.7770  -19.0225   -9.2312 O   0  0  0  0  0  0  0  0  0  0  0  0
   26.8038  -22.1630   -2.0623 C   0  0  0  0  0  0  0  0  0  0  0  0
   28.0357  -21.5429   -3.1646 S   0  0  0  0  0  0  0  0  0  0  0  0
   27.4723  -20.3390   -4.3440 C   0  0  0  0  0  0  0  0  0  0  0  0
   27.2608  -20.9038   -5.6915 C   0  0  0  0  0  0  0  0  0  0  0  0
   26.8550  -19.9542   -6.7737 C   0  0  2  0  0  0  0  0  0  0  0  0
   26.6854  -20.7416   -8.0139 N   0  0  0  0  0  0  0  0  0  0  0  0
   27.9271  -18.9821   -7.0066 C   0  0  0  0  0  0  0  0  0  0  0  0
   27.9535  -17.8065   -6.2769 O   0  0  0  0  0  0  0  0  0  0  0  0
   28.8195  -19.1663   -7.8349 O   0  0  0  0  0  0  0  0  0  0  0  0
  2  3  1  0
  2  1  1  1
  4  3  1  0
  5  4  2  0
  6  5  1  0
  6  7  1  0
  7  8  2  0
  8  4  1  0
  9 16  1  0
  9  2  1  0
 10  9  2  0
 12 11  1  6
 12 13  1  0
 14 12  1  0
 15 14  1  6
 15 16  1  0
 17 15  1  0
 18 17  2  0
 19 20  1  0
 20 21  1  0
 22 21  1  0
 23 22  1  1
 23 25  1  0
 23 24  1  0
 24 17  1  0
 25 26  1  0
 27 25  2  0
M  END
$$$$
