HLM.pdb
     RDKit          3D

 27 27  0  0  1  0  0  0  0  0999 V2000
   17.5907  -11.8659  -18.0630 N   0  0  0  0  0  0  0  0  0  0  0  0
   17.3183  -11.2651  -16.7218 C   0  0  1  0  0  0  0  0  0  0  0  0
   18.0634  -12.1214  -15.7597 C   0  0  0  0  0  0  0  0  0  0  0  0
   17.5359  -13.4608  -15.5080 C   0  0  0  0  0  0  0  0  0  0  0  0
   16.4677  -14.1459  -16.0151 C   0  0  0  0  0  0  0  0  0  0  0  0
   16.4770  -15.3982  -15.4667 N   0  0  0  0  0  0  0  0  0  0  0  0
   17.5183  -15.4687  -14.6548 C   0  0  0  0  0  0  0  0  0  0  0  0
   18.1712  -14.3225  -14.6598 N   0  0  0  0  0  0  0  0  0  0  0  0
   18.0069   -9.9144  -16.7355 C   0  0  0  0  0  0  0  0  0  0  0  0
   19.0245   -9.7568  -17.3981 O   0  0  0  0  0  0  0  0  0  0  0  0
   16.3273   -4.1953  -15.3405 C   0  0  0  0  0  0  0  0  0  0  0  0
   17.5642   -5.0603  -15.6518 C   0  0  2  0  0  0  0  0  0  0  0  0
   18.1608   -4.4888  -16.8887 C   0  0  0  0  0  0  0  0  0  0  0  0
   17.0899   -6.4674  -15.7310 C   0  0  0  0  0  0  0  0  0  0  0  0
   18.1142   -7.5192  -15.9056 C   0  0  2  0  0  0  0  0  0  0  0  0
   17.4745   -8.8226  -15.9784 N   0  0  0  0  0  0  0  0  0  0  0  0
   19.2662   -7.5072  -15.0154 C   0  0  0  0  0  0  0  0  0  0  0  0
   19.1243   -7.9150  -13.8361 O   0  0  0  0  0  0  0  0  0  0  0  0
   26.2114  -10.3243  -14.0504 C   0  0  0  0  0  0  0  0  0  0  0  0
   24.7928   -9.8338  -14.9801 S   0  0  0  0  0  0  0  0  0  0  0  0
   23.8282   -8.5210  -14.2704 C   0  0  0  0  0  0  0  0  0  0  0  0
   22.5583   -8.2843  -14.9852 C   0  0  0  0  0  0  0  0  0  0  0  0
   21.7202   -7.1338  -14.5252 C   0  0  2  0  0  0  0  0  0  0  0  0
   20.5450   -7.0560  -15.4193 N   0  0  0  0  0  0  0  0  0  0  0  0
   22.4731   -5.8844  -14.6698 C   0  0  0  0  0  0  0  0  0  0  0  0
   23.2796   -5.4491  -13.6328 O   0  0  0  0  0  0  0  0  0  0  0  0
   22.4202   -5.1934  -15.6877 O   0  0  0  0  0  0  0  0  0  0  0  0
  2  3  1  0
  2  1  1  6
  4  3  1  0
  5  4  2  0
  6  5  1  0
  6  7  1  0
  7  8  2  0
  8  4  1  0
  9 16  1  0
  9  2  1  0
 10  9  2  0
 12 11  1  6
 12 13  1  0
 14 12  1  0
 15 14  1  1
 15 16  1  0
 17 15  1  0
 18 17  2  0
 19 20  1  0
 20 21  1  0
 22 21  1  0
 23 22  1  6
 23 25  1  0
 23 24  1  0
 24 17  1  0
 25 26  1  0
 27 25  2  0
M  END
$$$$
