FGY.pdb
     RDKit          3D

 28 29  0  0  1  0  0  0  0  0999 V2000
    7.2045  -17.0208   25.6833 N   0  0  0  0  0  0  0  0  0  0  0  0
    6.6547  -16.5962   24.4332 C   0  0  1  0  0  0  0  0  0  0  0  0
    6.0468  -15.2321   24.4720 C   0  0  0  0  0  0  0  0  0  0  0  0
    6.7364  -14.4279   25.5019 C   0  0  0  0  0  0  0  0  0  0  0  0
    6.2306  -14.3152   26.7714 C   0  0  0  0  0  0  0  0  0  0  0  0
    6.8670  -13.5657   27.7428 C   0  0  0  0  0  0  0  0  0  0  0  0
    8.0520  -12.9202   27.3900 C   0  0  0  0  0  0  0  0  0  0  0  0
    8.5864  -13.0116   26.1282 C   0  0  0  0  0  0  0  0  0  0  0  0
    7.9074  -13.7708   25.2085 C   0  0  0  0  0  0  0  0  0  0  0  0
    7.6583  -16.7263   23.3490 C   0  0  0  0  0  0  0  0  0  0  0  0
    7.5366  -16.1252   22.2491 O   0  0  0  0  0  0  0  0  0  0  0  0
    8.8016  -17.5502   23.5354 N   0  0  0  0  0  0  0  0  0  0  0  0
    9.8340  -17.6896   22.5597 C   0  0  0  0  0  0  0  0  0  0  0  0
   11.1095  -17.0477   22.9693 C   0  0  0  0  0  0  0  0  0  0  0  0
   12.1078  -17.1196   22.2095 O   0  0  0  0  0  0  0  0  0  0  0  0
    9.2200  -15.8527   30.0727 O   0  0  0  0  0  0  0  0  0  0  0  0
    9.9644  -15.5188   28.9466 C   0  0  0  0  0  0  0  0  0  0  0  0
    9.4463  -14.7533   27.9252 C   0  0  0  0  0  0  0  0  0  0  0  0
   10.1475  -14.4049   26.8035 C   0  0  0  0  0  0  0  0  0  0  0  0
   11.4711  -14.8435   26.6692 C   0  0  0  0  0  0  0  0  0  0  0  0
   12.2295  -14.4929   25.4495 C   0  0  0  0  0  0  0  0  0  0  0  0
   12.4873  -15.6834   24.5979 C   0  0  2  0  0  0  0  0  0  0  0  0
   11.2666  -16.3501   24.1836 N   0  0  0  0  0  0  0  0  0  0  0  0
   13.3106  -16.6618   25.3247 C   0  0  0  0  0  0  0  0  0  0  0  0
   14.6295  -16.3430   25.6166 O   0  0  0  0  0  0  0  0  0  0  0  0
   12.0191  -15.6213   27.6911 C   0  0  0  0  0  0  0  0  0  0  0  0
   11.2762  -15.9483   28.8038 C   0  0  0  0  0  0  0  0  0  0  0  0
   12.9239  -17.7953   25.7201 O   0  0  0  0  0  0  0  0  0  0  0  0
  2  1  1  1
  2 10  1  0
  2  3  1  0
  3  4  1  0
  4  5  2  0
  4  9  1  0
  5  6  1  0
  6  7  2  0
  8  7  1  0
  9  8  2  0
 10 11  2  0
 12 13  1  0
 12 10  1  0
 14 15  2  0
 14 13  1  0
 16 17  1  0
 17 27  2  0
 18 17  1  0
 18 19  2  0
 19 20  1  0
 20 26  2  0
 20 21  1  0
 22 21  1  1
 22 23  1  0
 22 24  1  0
 23 14  1  0
 24 25  1  0
 27 26  1  0
 28 24  2  0
M  END
$$$$
