FGY.pdb
     RDKit          3D

 28 29  0  0  1  0  0  0  0  0999 V2000
    7.1828  -17.3529   24.8167 N   0  0  0  0  0  0  0  0  0  0  0  0
    7.1113  -16.8615   23.4755 C   0  0  1  0  0  0  0  0  0  0  0  0
    6.2097  -15.6817   23.3109 C   0  0  0  0  0  0  0  0  0  0  0  0
    6.6654  -14.5999   24.2082 C   0  0  0  0  0  0  0  0  0  0  0  0
    7.4579  -13.5807   23.7463 C   0  0  0  0  0  0  0  0  0  0  0  0
    7.8901  -12.5636   24.5765 C   0  0  0  0  0  0  0  0  0  0  0  0
    7.4921  -12.6048   25.9127 C   0  0  0  0  0  0  0  0  0  0  0  0
    6.6991  -13.6105   26.4084 C   0  0  0  0  0  0  0  0  0  0  0  0
    6.3029  -14.5912   25.5339 C   0  0  0  0  0  0  0  0  0  0  0  0
    8.4698  -16.6012   22.9404 C   0  0  0  0  0  0  0  0  0  0  0  0
    8.7636  -16.8051   21.7330 O   0  0  0  0  0  0  0  0  0  0  0  0
    9.4881  -16.1057   23.7998 N   0  0  0  0  0  0  0  0  0  0  0  0
   10.8694  -16.0760   23.4414 C   0  0  0  0  0  0  0  0  0  0  0  0
   11.7402  -16.7600   24.4315 C   0  0  0  0  0  0  0  0  0  0  0  0
   12.9857  -16.7547   24.2648 O   0  0  0  0  0  0  0  0  0  0  0  0
    9.3242  -12.3496   28.3625 O   0  0  0  0  0  0  0  0  0  0  0  0
    9.8202  -13.6458   28.2750 C   0  0  0  0  0  0  0  0  0  0  0  0
   11.0315  -14.0063   28.8231 C   0  0  0  0  0  0  0  0  0  0  0  0
   11.5513  -15.2699   28.7574 C   0  0  0  0  0  0  0  0  0  0  0  0
   10.8226  -16.2681   28.0978 C   0  0  0  0  0  0  0  0  0  0  0  0
   11.3869  -17.6311   28.0000 C   0  0  0  0  0  0  0  0  0  0  0  0
   12.0506  -17.8616   26.6904 C   0  0  2  0  0  0  0  0  0  0  0  0
   11.2400  -17.4267   25.5678 N   0  0  0  0  0  0  0  0  0  0  0  0
   12.3397  -19.2924   26.5098 C   0  0  0  0  0  0  0  0  0  0  0  0
   11.7713  -19.9607   25.4344 O   0  0  0  0  0  0  0  0  0  0  0  0
    9.5918  -15.9275   27.5334 C   0  0  0  0  0  0  0  0  0  0  0  0
    9.1064  -14.6418   27.6238 C   0  0  0  0  0  0  0  0  0  0  0  0
   13.0750  -19.9918   27.2587 O   0  0  0  0  0  0  0  0  0  0  0  0
  2  1  1  1
  2 10  1  0
  2  3  1  0
  3  4  1  0
  4  5  2  0
  4  9  1  0
  5  6  1  0
  6  7  2  0
  8  7  1  0
  9  8  2  0
 10 11  2  0
 12 13  1  0
 12 10  1  0
 14 15  2  0
 14 13  1  0
 16 17  1  0
 17 27  2  0
 18 17  1  0
 18 19  2  0
 19 20  1  0
 20 26  2  0
 20 21  1  0
 22 21  1  1
 22 23  1  0
 22 24  1  0
 23 14  1  0
 24 25  1  0
 27 26  1  0
 28 24  2  0
M  END
$$$$
