FGY.pdb
     RDKit          3D

 28 29  0  0  1  0  0  0  0  0999 V2000
    6.7572  -16.1342   25.1926 N   0  0  0  0  0  0  0  0  0  0  0  0
    7.2091  -16.0820   23.8367 C   0  0  1  0  0  0  0  0  0  0  0  0
    7.6594  -14.7258   23.4011 C   0  0  0  0  0  0  0  0  0  0  0  0
    7.3740  -13.7557   24.4784 C   0  0  0  0  0  0  0  0  0  0  0  0
    6.3512  -13.9629   25.3678 C   0  0  0  0  0  0  0  0  0  0  0  0
    6.0750  -13.0624   26.3795 C   0  0  0  0  0  0  0  0  0  0  0  0
    6.8762  -11.9243   26.4701 C   0  0  0  0  0  0  0  0  0  0  0  0
    7.9085  -11.6857   25.5963 C   0  0  0  0  0  0  0  0  0  0  0  0
    8.1321  -12.6173   24.6138 C   0  0  0  0  0  0  0  0  0  0  0  0
    8.2428  -17.1163   23.5895 C   0  0  0  0  0  0  0  0  0  0  0  0
    8.9087  -17.1548   22.5212 O   0  0  0  0  0  0  0  0  0  0  0  0
    8.5071  -18.1055   24.5757 N   0  0  0  0  0  0  0  0  0  0  0  0
    9.5054  -19.1145   24.4250 C   0  0  0  0  0  0  0  0  0  0  0  0
   10.6581  -18.9315   25.3440 C   0  0  0  0  0  0  0  0  0  0  0  0
   11.6492  -19.6983   25.2501 O   0  0  0  0  0  0  0  0  0  0  0  0
    7.6617  -12.8757   27.5767 O   0  0  0  0  0  0  0  0  0  0  0  0
    8.7560  -13.7334   27.5577 C   0  0  0  0  0  0  0  0  0  0  0  0
    9.4086  -14.1158   28.7090 C   0  0  0  0  0  0  0  0  0  0  0  0
   10.4871  -14.9570   28.7297 C   0  0  0  0  0  0  0  0  0  0  0  0
   10.9695  -15.4689   27.5182 C   0  0  0  0  0  0  0  0  0  0  0  0
   12.1496  -16.3594   27.5276 C   0  0  0  0  0  0  0  0  0  0  0  0
   11.7719  -17.7795   27.3046 C   0  0  2  0  0  0  0  0  0  0  0  0
   10.7042  -17.9288   26.3330 N   0  0  0  0  0  0  0  0  0  0  0  0
   11.3233  -18.3918   28.5646 C   0  0  0  0  0  0  0  0  0  0  0  0
   12.1636  -18.3468   29.6682 O   0  0  0  0  0  0  0  0  0  0  0  0
   10.3252  -15.0959   26.3370 C   0  0  0  0  0  0  0  0  0  0  0  0
    9.2418  -14.2459   26.3631 C   0  0  0  0  0  0  0  0  0  0  0  0
   10.2175  -18.9707   28.7451 O   0  0  0  0  0  0  0  0  0  0  0  0
  2  1  1  1
  2 10  1  0
  2  3  1  0
  3  4  1  0
  4  5  2  0
  4  9  1  0
  5  6  1  0
  6  7  2  0
  8  7  1  0
  9  8  2  0
 10 11  2  0
 12 13  1  0
 12 10  1  0
 14 15  2  0
 14 13  1  0
 16 17  1  0
 17 27  2  0
 18 17  1  0
 18 19  2  0
 19 20  1  0
 20 26  2  0
 20 21  1  0
 22 21  1  1
 22 23  1  0
 22 24  1  0
 23 14  1  0
 24 25  1  0
 27 26  1  0
 28 24  2  0
M  END
$$$$
