FGY.pdb
     RDKit          3D

 28 29  0  0  1  0  0  0  0  0999 V2000
    6.5374  -16.6806   25.3553 N   0  0  0  0  0  0  0  0  0  0  0  0
    6.9350  -16.9131   24.0013 C   0  0  1  0  0  0  0  0  0  0  0  0
    7.0885  -15.6660   23.1934 C   0  0  0  0  0  0  0  0  0  0  0  0
    7.3966  -14.5409   24.1002 C   0  0  0  0  0  0  0  0  0  0  0  0
    6.7339  -14.3863   25.2906 C   0  0  0  0  0  0  0  0  0  0  0  0
    7.0137  -13.3379   26.1467 C   0  0  0  0  0  0  0  0  0  0  0  0
    8.0010  -12.4317   25.7599 C   0  0  0  0  0  0  0  0  0  0  0  0
    8.6840  -12.5565   24.5751 C   0  0  0  0  0  0  0  0  0  0  0  0
    8.3602  -13.6187   23.7686 C   0  0  0  0  0  0  0  0  0  0  0  0
    8.1513  -17.7603   23.9513 C   0  0  0  0  0  0  0  0  0  0  0  0
    8.7309  -18.0355   22.8676 O   0  0  0  0  0  0  0  0  0  0  0  0
    8.6977  -18.2893   25.1524 N   0  0  0  0  0  0  0  0  0  0  0  0
    9.9647  -18.9434   25.2149 C   0  0  0  0  0  0  0  0  0  0  0  0
   10.8861  -18.3295   26.2053 C   0  0  0  0  0  0  0  0  0  0  0  0
   12.1005  -18.6524   26.2004 O   0  0  0  0  0  0  0  0  0  0  0  0
    7.5948  -13.1616   24.4679 O   0  0  0  0  0  0  0  0  0  0  0  0
    8.3985  -13.7014   25.4661 C   0  0  0  0  0  0  0  0  0  0  0  0
    9.6041  -14.3078   25.1896 C   0  0  0  0  0  0  0  0  0  0  0  0
   10.4208  -14.8494   26.1439 C   0  0  0  0  0  0  0  0  0  0  0  0
   10.0236  -14.7929   27.4861 C   0  0  0  0  0  0  0  0  0  0  0  0
   10.8877  -15.3969   28.5226 C   0  0  0  0  0  0  0  0  0  0  0  0
   11.3450  -16.7574   28.1365 C   0  0  2  0  0  0  0  0  0  0  0  0
   10.4682  -17.3885   27.1674 N   0  0  0  0  0  0  0  0  0  0  0  0
   11.4099  -17.6286   29.3198 C   0  0  0  0  0  0  0  0  0  0  0  0
   12.2425  -17.2707   30.3710 O   0  0  0  0  0  0  0  0  0  0  0  0
    8.8052  -14.1835   27.7922 C   0  0  0  0  0  0  0  0  0  0  0  0
    8.0141  -13.6509   26.7985 C   0  0  0  0  0  0  0  0  0  0  0  0
   10.7641  -18.7004   29.4771 O   0  0  0  0  0  0  0  0  0  0  0  0
  2  1  1  1
  2 10  1  0
  2  3  1  0
  3  4  1  0
  4  5  2  0
  4  9  1  0
  5  6  1  0
  6  7  2  0
  8  7  1  0
  9  8  2  0
 10 11  2  0
 12 13  1  0
 12 10  1  0
 14 15  2  0
 14 13  1  0
 16 17  1  0
 17 27  2  0
 18 17  1  0
 18 19  2  0
 19 20  1  0
 20 26  2  0
 20 21  1  0
 22 21  1  1
 22 23  1  0
 22 24  1  0
 23 14  1  0
 24 25  1  0
 27 26  1  0
 28 24  2  0
M  END
$$$$
