FGY.pdb
     RDKit          3D

 28 29  0  0  1  0  0  0  0  0999 V2000
    6.3096  -17.1005   22.6006 N   0  0  0  0  0  0  0  0  0  0  0  0
    6.7853  -17.0677   21.2523 C   0  0  1  0  0  0  0  0  0  0  0  0
    6.1190  -16.0368   20.4007 C   0  0  0  0  0  0  0  0  0  0  0  0
    6.6646  -14.7066   20.7412 C   0  0  0  0  0  0  0  0  0  0  0  0
    6.4438  -14.1422   21.9712 C   0  0  0  0  0  0  0  0  0  0  0  0
    6.9492  -12.8987   22.3008 C   0  0  0  0  0  0  0  0  0  0  0  0
    7.6988  -12.2273   21.3349 C   0  0  0  0  0  0  0  0  0  0  0  0
    7.9391  -12.7633   20.0935 C   0  0  0  0  0  0  0  0  0  0  0  0
    7.4101  -14.0013   19.8271 C   0  0  0  0  0  0  0  0  0  0  0  0
    8.2628  -16.9429   21.2215 C   0  0  0  0  0  0  0  0  0  0  0  0
    8.9538  -17.4060   20.2760 O   0  0  0  0  0  0  0  0  0  0  0  0
    8.9415  -16.2835   22.2824 N   0  0  0  0  0  0  0  0  0  0  0  0
   10.3633  -16.2560   22.4051 C   0  0  0  0  0  0  0  0  0  0  0  0
   10.8212  -16.0927   23.8088 C   0  0  0  0  0  0  0  0  0  0  0  0
   11.4605  -15.0605   24.1326 O   0  0  0  0  0  0  0  0  0  0  0  0
    6.7737  -11.2525   26.0488 O   0  0  0  0  0  0  0  0  0  0  0  0
    7.2334  -12.5643   26.0872 C   0  0  0  0  0  0  0  0  0  0  0  0
    6.4399  -13.6306   25.7254 C   0  0  0  0  0  0  0  0  0  0  0  0
    6.8568  -14.9332   25.7500 C   0  0  0  0  0  0  0  0  0  0  0  0
    8.1643  -15.2176   26.1650 C   0  0  0  0  0  0  0  0  0  0  0  0
    8.6168  -16.6241   26.2185 C   0  0  0  0  0  0  0  0  0  0  0  0
   10.0976  -16.7310   26.1499 C   0  0  2  0  0  0  0  0  0  0  0  0
   10.5748  -17.0468   24.8162 N   0  0  0  0  0  0  0  0  0  0  0  0
   10.5757  -17.7827   27.0603 C   0  0  0  0  0  0  0  0  0  0  0  0
   11.2193  -18.8902   26.5260 O   0  0  0  0  0  0  0  0  0  0  0  0
    8.9883  -14.1537   26.5373 C   0  0  0  0  0  0  0  0  0  0  0  0
    8.5266  -12.8568   26.4968 C   0  0  0  0  0  0  0  0  0  0  0  0
   10.4544  -17.7763   28.3156 O   0  0  0  0  0  0  0  0  0  0  0  0
  2  1  1  1
  2 10  1  0
  2  3  1  0
  3  4  1  0
  4  5  2  0
  4  9  1  0
  5  6  1  0
  6  7  2  0
  8  7  1  0
  9  8  2  0
 10 11  2  0
 12 13  1  0
 12 10  1  0
 14 15  2  0
 14 13  1  0
 16 17  1  0
 17 27  2  0
 18 17  1  0
 18 19  2  0
 19 20  1  0
 20 26  2  0
 20 21  1  0
 22 21  1  6
 22 23  1  0
 22 24  1  0
 23 14  1  0
 24 25  1  0
 27 26  1  0
 28 24  2  0
M  END
$$$$
