FGY.pdb
     RDKit          3D

 28 29  0  0  1  0  0  0  0  0999 V2000
    9.4719  -14.4829   24.6895 N   0  0  0  0  0  0  0  0  0  0  0  0
    8.4637  -15.2715   24.0515 C   0  0  1  0  0  0  0  0  0  0  0  0
    7.2795  -14.4843   23.5938 C   0  0  0  0  0  0  0  0  0  0  0  0
    6.8300  -13.6083   24.6955 C   0  0  0  0  0  0  0  0  0  0  0  0
    6.0753  -14.0987   25.7299 C   0  0  0  0  0  0  0  0  0  0  0  0
    5.6493  -13.2887   26.7657 C   0  0  0  0  0  0  0  0  0  0  0  0
    6.0136  -11.9428   26.7274 C   0  0  0  0  0  0  0  0  0  0  0  0
    6.7683  -11.4188   25.7067 C   0  0  0  0  0  0  0  0  0  0  0  0
    7.1604  -12.2743   24.7078 C   0  0  0  0  0  0  0  0  0  0  0  0
    9.0489  -16.0821   22.9559 C   0  0  0  0  0  0  0  0  0  0  0  0
    8.4028  -16.9991   22.3837 O   0  0  0  0  0  0  0  0  0  0  0  0
   10.3795  -15.8333   22.5218 N   0  0  0  0  0  0  0  0  0  0  0  0
   11.2231  -16.8412   21.9653 C   0  0  0  0  0  0  0  0  0  0  0  0
   11.9370  -17.6351   22.9981 C   0  0  0  0  0  0  0  0  0  0  0  0
   12.5877  -18.6531   22.6526 O   0  0  0  0  0  0  0  0  0  0  0  0
   10.1071  -13.4043   28.9776 O   0  0  0  0  0  0  0  0  0  0  0  0
   10.3666  -14.6241   28.3626 C   0  0  0  0  0  0  0  0  0  0  0  0
   11.6474  -15.0471   28.0832 C   0  0  0  0  0  0  0  0  0  0  0  0
   11.9413  -16.2391   27.4800 C   0  0  0  0  0  0  0  0  0  0  0  0
   10.8904  -17.0921   27.1186 C   0  0  0  0  0  0  0  0  0  0  0  0
   11.1962  -18.3717   26.4442 C   0  0  0  0  0  0  0  0  0  0  0  0
   12.2793  -18.2207   25.4377 C   0  0  2  0  0  0  0  0  0  0  0  0
   11.9259  -17.3056   24.3682 N   0  0  0  0  0  0  0  0  0  0  0  0
   12.5965  -19.5223   24.8306 C   0  0  0  0  0  0  0  0  0  0  0  0
   12.4213  -19.6848   23.4634 O   0  0  0  0  0  0  0  0  0  0  0  0
    9.5827  -16.6856   27.3909 C   0  0  0  0  0  0  0  0  0  0  0  0
    9.3328  -15.4761   28.0004 C   0  0  0  0  0  0  0  0  0  0  0  0
   13.0246  -20.5347   25.4490 O   0  0  0  0  0  0  0  0  0  0  0  0
  2  1  1  6
  2 10  1  0
  2  3  1  0
  3  4  1  0
  4  5  2  0
  4  9  1  0
  5  6  1  0
  6  7  2  0
  8  7  1  0
  9  8  2  0
 10 11  2  0
 12 13  1  0
 12 10  1  0
 14 15  2  0
 14 13  1  0
 16 17  1  0
 17 27  2  0
 18 17  1  0
 18 19  2  0
 19 20  1  0
 20 26  2  0
 20 21  1  0
 22 21  1  1
 22 23  1  0
 22 24  1  0
 23 14  1  0
 24 25  1  0
 27 26  1  0
 28 24  2  0
M  END
$$$$
