FGY.pdb
     RDKit          3D

 28 29  0  0  1  0  0  0  0  0999 V2000
    9.2004  -14.9256   24.1482 N   0  0  0  0  0  0  0  0  0  0  0  0
    8.0305  -15.7312   24.3152 C   0  0  1  0  0  0  0  0  0  0  0  0
    6.7510  -14.9929   24.0928 C   0  0  0  0  0  0  0  0  0  0  0  0
    6.7251  -13.8023   24.9674 C   0  0  0  0  0  0  0  0  0  0  0  0
    6.3576  -13.8970   26.2851 C   0  0  0  0  0  0  0  0  0  0  0  0
    6.3297  -12.7902   27.1125 C   0  0  0  0  0  0  0  0  0  0  0  0
    6.6902  -11.5605   26.5619 C   0  0  0  0  0  0  0  0  0  0  0  0
    7.0633  -11.4299   25.2466 C   0  0  0  0  0  0  0  0  0  0  0  0
    7.0708  -12.5659   24.4767 C   0  0  0  0  0  0  0  0  0  0  0  0
    8.1161  -16.9567   23.4843 C   0  0  0  0  0  0  0  0  0  0  0  0
    7.2765  -17.8904   23.5809 O   0  0  0  0  0  0  0  0  0  0  0  0
    9.1709  -17.1035   22.5427 N   0  0  0  0  0  0  0  0  0  0  0  0
   10.3943  -17.7777   22.8359 C   0  0  0  0  0  0  0  0  0  0  0  0
   11.4732  -16.8563   23.2760 C   0  0  0  0  0  0  0  0  0  0  0  0
   12.0888  -16.1738   22.4191 O   0  0  0  0  0  0  0  0  0  0  0  0
    8.3578  -16.2807   29.3529 O   0  0  0  0  0  0  0  0  0  0  0  0
    9.4747  -16.0103   28.5700 C   0  0  0  0  0  0  0  0  0  0  0  0
   10.7477  -16.3624   28.9614 C   0  0  0  0  0  0  0  0  0  0  0  0
   11.8691  -16.1134   28.2188 C   0  0  0  0  0  0  0  0  0  0  0  0
   11.7336  -15.4631   26.9854 C   0  0  0  0  0  0  0  0  0  0  0  0
   12.9419  -15.1676   26.1864 C   0  0  0  0  0  0  0  0  0  0  0  0
   13.1109  -16.1278   25.0646 C   0  0  2  0  0  0  0  0  0  0  0  0
   11.8525  -16.7013   24.6243 N   0  0  0  0  0  0  0  0  0  0  0  0
   13.9932  -17.2334   25.4681 C   0  0  0  0  0  0  0  0  0  0  0  0
   15.3039  -16.9492   25.8251 O   0  0  0  0  0  0  0  0  0  0  0  0
   10.4534  -15.0956   26.5665 C   0  0  0  0  0  0  0  0  0  0  0  0
    9.3514  -15.3665   27.3469 C   0  0  0  0  0  0  0  0  0  0  0  0
   13.6653  -18.4501   25.5229 O   0  0  0  0  0  0  0  0  0  0  0  0
  2  1  1  6
  2 10  1  0
  2  3  1  0
  3  4  1  0
  4  5  2  0
  4  9  1  0
  5  6  1  0
  6  7  2  0
  8  7  1  0
  9  8  2  0
 10 11  2  0
 12 13  1  0
 12 10  1  0
 14 15  2  0
 14 13  1  0
 16 17  1  0
 17 27  2  0
 18 17  1  0
 18 19  2  0
 19 20  1  0
 20 26  2  0
 20 21  1  0
 22 21  1  1
 22 23  1  0
 22 24  1  0
 23 14  1  0
 24 25  1  0
 27 26  1  0
 28 24  2  0
M  END
$$$$
