FGY.pdb
     RDKit          3D

 28 29  0  0  1  0  0  0  0  0999 V2000
    7.6945  -17.1496   20.3508 N   0  0  0  0  0  0  0  0  0  0  0  0
    8.8646  -16.5820   20.9458 C   0  0  1  0  0  0  0  0  0  0  0  0
    8.6179  -15.2881   21.6507 C   0  0  0  0  0  0  0  0  0  0  0  0
    8.0507  -14.3186   20.6908 C   0  0  0  0  0  0  0  0  0  0  0  0
    8.7254  -13.9731   19.5482 C   0  0  0  0  0  0  0  0  0  0  0  0
    8.2046  -13.0674   18.6432 C   0  0  0  0  0  0  0  0  0  0  0  0
    6.9589  -12.5091   18.9294 C   0  0  0  0  0  0  0  0  0  0  0  0
    6.2563  -12.8328   20.0641 C   0  0  0  0  0  0  0  0  0  0  0  0
    6.8268  -13.7381   20.9233 C   0  0  0  0  0  0  0  0  0  0  0  0
    9.5391  -17.5714   21.8210 C   0  0  0  0  0  0  0  0  0  0  0  0
    8.8970  -18.4444   22.4625 O   0  0  0  0  0  0  0  0  0  0  0  0
   10.9542  -17.5520   21.9551 N   0  0  0  0  0  0  0  0  0  0  0  0
   11.6364  -18.0057   23.1239 C   0  0  0  0  0  0  0  0  0  0  0  0
   11.1935  -17.3112   24.3601 C   0  0  0  0  0  0  0  0  0  0  0  0
   11.9600  -16.4801   24.9087 O   0  0  0  0  0  0  0  0  0  0  0  0
    7.2922  -10.9403   26.0334 O   0  0  0  0  0  0  0  0  0  0  0  0
    7.4865  -12.3168   26.0668 C   0  0  0  0  0  0  0  0  0  0  0  0
    6.5639  -13.1747   26.6240 C   0  0  0  0  0  0  0  0  0  0  0  0
    6.7202  -14.5326   26.6750 C   0  0  0  0  0  0  0  0  0  0  0  0
    7.8804  -15.1013   26.1336 C   0  0  0  0  0  0  0  0  0  0  0  0
    8.0701  -16.5657   26.2055 C   0  0  0  0  0  0  0  0  0  0  0  0
    9.5093  -16.9365   26.2135 C   0  0  2  0  0  0  0  0  0  0  0  0
    9.9400  -17.5353   24.9635 N   0  0  0  0  0  0  0  0  0  0  0  0
    9.7821  -17.8991   27.2917 C   0  0  0  0  0  0  0  0  0  0  0  0
    9.6296  -19.2545   27.0348 O   0  0  0  0  0  0  0  0  0  0  0  0
    8.8311  -14.2525   25.5632 C   0  0  0  0  0  0  0  0  0  0  0  0
    8.6322  -12.8900   25.5335 C   0  0  0  0  0  0  0  0  0  0  0  0
   10.1516  -17.6045   28.4610 O   0  0  0  0  0  0  0  0  0  0  0  0
  2  1  1  1
  2 10  1  0
  2  3  1  0
  3  4  1  0
  4  5  2  0
  4  9  1  0
  5  6  1  0
  6  7  2  0
  8  7  1  0
  9  8  2  0
 10 11  2  0
 12 13  1  0
 12 10  1  0
 14 15  2  0
 14 13  1  0
 16 17  1  0
 17 27  2  0
 18 17  1  0
 18 19  2  0
 19 20  1  0
 20 26  2  0
 20 21  1  0
 22 21  1  6
 22 23  1  0
 22 24  1  0
 23 14  1  0
 24 25  1  0
 27 26  1  0
 28 24  2  0
M  END
$$$$
