FGY.pdb
     RDKit          3D

 28 29  0  0  1  0  0  0  0  0999 V2000
    7.1959  -17.2710   25.6463 N   0  0  0  0  0  0  0  0  0  0  0  0
    6.5278  -16.9422   24.4252 C   0  0  1  0  0  0  0  0  0  0  0  0
    5.6795  -15.7155   24.5112 C   0  0  0  0  0  0  0  0  0  0  0  0
    6.4855  -14.6124   25.0740 C   0  0  0  0  0  0  0  0  0  0  0  0
    7.3771  -13.9171   24.2983 C   0  0  0  0  0  0  0  0  0  0  0  0
    8.1363  -12.8835   24.8139 C   0  0  0  0  0  0  0  0  0  0  0  0
    7.9670  -12.5651   26.1613 C   0  0  0  0  0  0  0  0  0  0  0  0
    7.0832  -13.2407   26.9665 C   0  0  0  0  0  0  0  0  0  0  0  0
    6.3587  -14.2567   26.3955 C   0  0  0  0  0  0  0  0  0  0  0  0
    7.4945  -16.8712   23.3026 C   0  0  0  0  0  0  0  0  0  0  0  0
    7.2449  -16.2363   22.2441 O   0  0  0  0  0  0  0  0  0  0  0  0
    8.7484  -17.5334   23.4029 N   0  0  0  0  0  0  0  0  0  0  0  0
    9.7547  -17.4619   22.3932 C   0  0  0  0  0  0  0  0  0  0  0  0
   10.9924  -16.7827   22.8552 C   0  0  0  0  0  0  0  0  0  0  0  0
   11.8531  -16.4284   22.0110 O   0  0  0  0  0  0  0  0  0  0  0  0
    9.7738  -16.0698   30.4972 O   0  0  0  0  0  0  0  0  0  0  0  0
   10.3437  -15.7241   29.2768 C   0  0  0  0  0  0  0  0  0  0  0  0
   11.6963  -15.8357   29.0408 C   0  0  0  0  0  0  0  0  0  0  0  0
   12.2923  -15.5059   27.8546 C   0  0  0  0  0  0  0  0  0  0  0  0
   11.4956  -15.0249   26.8075 C   0  0  0  0  0  0  0  0  0  0  0  0
   12.1332  -14.6426   25.5296 C   0  0  0  0  0  0  0  0  0  0  0  0
   12.4501  -15.8298   24.6935 C   0  0  2  0  0  0  0  0  0  0  0  0
   11.2611  -16.5080   24.2110 N   0  0  0  0  0  0  0  0  0  0  0  0
   13.2407  -16.8009   25.4652 C   0  0  0  0  0  0  0  0  0  0  0  0
   14.5237  -16.4540   25.8651 O   0  0  0  0  0  0  0  0  0  0  0  0
   10.1214  -14.9023   27.0221 C   0  0  0  0  0  0  0  0  0  0  0  0
    9.5635  -15.2465   28.2333 C   0  0  0  0  0  0  0  0  0  0  0  0
   12.8555  -17.9515   25.8090 O   0  0  0  0  0  0  0  0  0  0  0  0
  2  1  1  1
  2 10  1  0
  2  3  1  0
  3  4  1  0
  4  5  2  0
  4  9  1  0
  5  6  1  0
  6  7  2  0
  8  7  1  0
  9  8  2  0
 10 11  2  0
 12 13  1  0
 12 10  1  0
 14 15  2  0
 14 13  1  0
 16 17  1  0
 17 27  2  0
 18 17  1  0
 18 19  2  0
 19 20  1  0
 20 26  2  0
 20 21  1  0
 22 21  1  1
 22 23  1  0
 22 24  1  0
 23 14  1  0
 24 25  1  0
 27 26  1  0
 28 24  2  0
M  END
$$$$
