AAT.pdb
     RDKit          3D

 18 17  0  0  1  0  0  0  0  0999 V2000
    8.6999  -16.9697   16.9389 C   0  0  0  0  0  0  0  0  0  0  0  0
    8.1984  -17.5807   18.2304 C   0  0  2  0  0  0  0  0  0  0  0  0
    6.7646  -17.7251   18.1853 N   0  0  0  0  0  0  0  0  0  0  0  0
    8.6445  -16.7926   19.4120 C   0  0  0  0  0  0  0  0  0  0  0  0
    9.8626  -16.8075   19.7153 O   0  0  0  0  0  0  0  0  0  0  0  0
    7.0893  -14.1765   21.6725 C   0  0  0  0  0  0  0  0  0  0  0  0
    8.1431  -15.2081   21.3229 C   0  0  2  0  0  0  0  0  0  0  0  0
    7.7528  -16.0260   20.2094 N   0  0  0  0  0  0  0  0  0  0  0  0
    8.5183  -15.9848   22.5142 C   0  0  0  0  0  0  0  0  0  0  0  0
    7.7040  -16.6074   23.2447 O   0  0  0  0  0  0  0  0  0  0  0  0
   10.3192  -18.9378   22.6249 C   0  0  0  0  0  0  0  0  0  0  0  0
   11.1266  -18.0076   23.4688 C   0  0  1  0  0  0  0  0  0  0  0  0
   12.2273  -17.5450   22.7800 O   0  0  0  0  0  0  0  0  0  0  0  0
   10.3161  -16.8615   24.0256 C   0  0  2  0  0  0  0  0  0  0  0  0
    9.8913  -16.0457   22.8777 N   0  0  0  0  0  0  0  0  0  0  0  0
   11.1925  -16.0523   24.8960 C   0  0  0  0  0  0  0  0  0  0  0  0
   11.5085  -16.4813   26.0175 O   0  0  0  0  0  0  0  0  0  0  0  0
   11.6918  -14.7993   24.5044 O   0  0  0  0  0  0  0  0  0  0  0  0
  2  1  1  6
  2  3  1  0
  4  2  1  0
  5  4  2  0
  7  6  1  1
  7  8  1  0
  8  4  1  0
  9  7  1  0
  9 15  1  0
 10  9  2  0
 12 11  1  6
 12 14  1  0
 12 13  1  0
 14 15  1  6
 14 16  1  0
 16 18  1  0
 17 16  2  0
M  END
$$$$
