AAT.pdb
     RDKit          3D

 18 17  0  0  1  0  0  0  0  0999 V2000
   -0.8940  -24.3927   22.3578 C   0  0  0  0  0  0  0  0  0  0  0  0
    0.4857  -24.0512   22.8798 C   0  0  2  0  0  0  0  0  0  0  0  0
    1.3033  -23.5299   21.8129 N   0  0  0  0  0  0  0  0  0  0  0  0
    1.1175  -25.2219   23.5481 C   0  0  0  0  0  0  0  0  0  0  0  0
    0.5317  -25.7367   24.5319 O   0  0  0  0  0  0  0  0  0  0  0  0
    3.2544  -28.0394   22.8321 C   0  0  0  0  0  0  0  0  0  0  0  0
    3.0284  -26.8691   23.7682 C   0  0  2  0  0  0  0  0  0  0  0  0
    2.3523  -25.7802   23.1214 N   0  0  0  0  0  0  0  0  0  0  0  0
    4.2905  -26.4730   24.4110 C   0  0  0  0  0  0  0  0  0  0  0  0
    5.0182  -27.2448   25.0887 O   0  0  0  0  0  0  0  0  0  0  0  0
    7.0732  -24.2460   22.6250 C   0  0  0  0  0  0  0  0  0  0  0  0
    6.5938  -23.6685   23.9157 C   0  0  1  0  0  0  0  0  0  0  0  0
    5.6961  -22.6457   23.6963 O   0  0  0  0  0  0  0  0  0  0  0  0
    6.0144  -24.7059   24.8477 C   0  0  2  0  0  0  0  0  0  0  0  0
    4.7316  -25.1293   24.2657 N   0  0  0  0  0  0  0  0  0  0  0  0
    5.7648  -24.0678   26.1558 C   0  0  0  0  0  0  0  0  0  0  0  0
    6.7233  -23.7782   26.8900 O   0  0  0  0  0  0  0  0  0  0  0  0
    4.4706  -23.7697   26.6124 O   0  0  0  0  0  0  0  0  0  0  0  0
  2  1  1  6
  2  3  1  0
  4  2  1  0
  5  4  2  0
  7  6  1  6
  7  8  1  0
  8  4  1  0
  9  7  1  0
  9 15  1  0
 10  9  2  0
 12 11  1  6
 12 14  1  0
 12 13  1  0
 14 15  1  6
 14 16  1  0
 16 18  1  0
 17 16  2  0
M  END
$$$$
