AAT.pdb
     RDKit          3D

 18 17  0  0  1  0  0  0  0  0999 V2000
    6.5407  -18.1111   17.9166 C   0  0  0  0  0  0  0  0  0  0  0  0
    7.2987  -16.9272   17.3542 C   0  0  2  0  0  0  0  0  0  0  0  0
    8.1837  -17.3609   16.3019 N   0  0  0  0  0  0  0  0  0  0  0  0
    8.0226  -16.1886   18.4251 C   0  0  0  0  0  0  0  0  0  0  0  0
    9.0517  -16.7101   18.9202 O   0  0  0  0  0  0  0  0  0  0  0  0
    7.5887  -12.8459   20.2106 C   0  0  0  0  0  0  0  0  0  0  0  0
    8.2299  -14.1994   19.9786 C   0  0  2  0  0  0  0  0  0  0  0  0
    7.5998  -14.9219   18.9099 N   0  0  0  0  0  0  0  0  0  0  0  0
    8.2979  -14.9591   21.2360 C   0  0  0  0  0  0  0  0  0  0  0  0
    7.3259  -15.1346   22.0162 O   0  0  0  0  0  0  0  0  0  0  0  0
    8.8019  -18.4383   21.8875 C   0  0  0  0  0  0  0  0  0  0  0  0
    9.9673  -17.7247   22.4889 C   0  0  1  0  0  0  0  0  0  0  0  0
   11.0665  -17.7868   21.6595 O   0  0  0  0  0  0  0  0  0  0  0  0
    9.6544  -16.2962   22.8661 C   0  0  2  0  0  0  0  0  0  0  0  0
    9.5402  -15.5412   21.6088 N   0  0  0  0  0  0  0  0  0  0  0  0
   10.7876  -15.7634   23.6488 C   0  0  0  0  0  0  0  0  0  0  0  0
   11.6047  -15.0027   23.1055 O   0  0  0  0  0  0  0  0  0  0  0  0
   10.9841  -16.0846   25.0019 O   0  0  0  0  0  0  0  0  0  0  0  0
  2  1  1  1
  2  3  1  0
  4  2  1  0
  5  4  2  0
  7  6  1  1
  7  8  1  0
  8  4  1  0
  9  7  1  0
  9 15  1  0
 10  9  2  0
 12 11  1  6
 12 14  1  0
 12 13  1  0
 14 15  1  6
 14 16  1  0
 16 18  1  0
 17 16  2  0
M  END
$$$$
