AAT.pdb
     RDKit          3D

 18 17  0  0  1  0  0  0  0  0999 V2000
    7.1380  -18.6022   17.2055 C   0  0  0  0  0  0  0  0  0  0  0  0
    7.4848  -17.1658   16.8751 C   0  0  2  0  0  0  0  0  0  0  0  0
    8.3046  -17.1148   15.6902 N   0  0  0  0  0  0  0  0  0  0  0  0
    8.1291  -16.4840   18.0311 C   0  0  0  0  0  0  0  0  0  0  0  0
    9.3538  -16.6747   18.2309 O   0  0  0  0  0  0  0  0  0  0  0  0
    7.0188  -14.0417   20.7388 C   0  0  0  0  0  0  0  0  0  0  0  0
    7.9675  -15.0390   20.1046 C   0  0  2  0  0  0  0  0  0  0  0  0
    7.4192  -15.6288   18.9160 N   0  0  0  0  0  0  0  0  0  0  0  0
    8.4110  -16.0302   21.0966 C   0  0  0  0  0  0  0  0  0  0  0  0
    7.7500  -17.0473   21.4326 O   0  0  0  0  0  0  0  0  0  0  0  0
   12.3567  -15.6255   22.5620 C   0  0  0  0  0  0  0  0  0  0  0  0
   11.6490  -16.9389   22.5035 C   0  0  1  0  0  0  0  0  0  0  0  0
   12.2002  -17.8373   23.3917 O   0  0  0  0  0  0  0  0  0  0  0  0
   10.1585  -16.8163   22.7132 C   0  0  2  0  0  0  0  0  0  0  0  0
    9.6707  -15.8396   21.7274 N   0  0  0  0  0  0  0  0  0  0  0  0
    9.9222  -16.2905   24.0727 C   0  0  0  0  0  0  0  0  0  0  0  0
    9.5663  -15.1103   24.2208 O   0  0  0  0  0  0  0  0  0  0  0  0
   10.0849  -17.0796   25.2231 O   0  0  0  0  0  0  0  0  0  0  0  0
  2  1  1  1
  2  3  1  0
  4  2  1  0
  5  4  2  0
  7  6  1  1
  7  8  1  0
  8  4  1  0
  9  7  1  0
  9 15  1  0
 10  9  2  0
 12 11  1  1
 12 14  1  0
 12 13  1  0
 14 15  1  6
 14 16  1  0
 16 18  1  0
 17 16  2  0
M  END
$$$$
