AAT.pdb
     RDKit          3D

 18 17  0  0  1  0  0  0  0  0999 V2000
    6.6711  -14.2068   19.5394 C   0  0  0  0  0  0  0  0  0  0  0  0
    7.5577  -13.1390   20.1448 C   0  0  2  0  0  0  0  0  0  0  0  0
    8.5636  -12.7340   19.1946 N   0  0  0  0  0  0  0  0  0  0  0  0
    8.1539  -13.5945   21.4307 C   0  0  0  0  0  0  0  0  0  0  0  0
    9.2931  -14.1214   21.4081 O   0  0  0  0  0  0  0  0  0  0  0  0
    7.2675  -13.2576   25.1110 C   0  0  0  0  0  0  0  0  0  0  0  0
    8.0393  -13.8478   23.9479 C   0  0  2  0  0  0  0  0  0  0  0  0
    7.4904  -13.4587   22.6796 N   0  0  0  0  0  0  0  0  0  0  0  0
    8.1720  -15.3042   24.1042 C   0  0  0  0  0  0  0  0  0  0  0  0
    7.2291  -16.1254   23.9592 O   0  0  0  0  0  0  0  0  0  0  0  0
   10.3080  -17.6862   22.2886 C   0  0  0  0  0  0  0  0  0  0  0  0
   10.7055  -17.7401   23.7267 C   0  0  1  0  0  0  0  0  0  0  0  0
   11.8685  -17.0331   23.9448 O   0  0  0  0  0  0  0  0  0  0  0  0
    9.6104  -17.2809   24.6597 C   0  0  2  0  0  0  0  0  0  0  0  0
    9.4466  -15.8354   24.4420 N   0  0  0  0  0  0  0  0  0  0  0  0
   10.0551  -17.5135   26.0484 C   0  0  0  0  0  0  0  0  0  0  0  0
   10.2926  -16.5441   26.7870 O   0  0  0  0  0  0  0  0  0  0  0  0
   10.2236  -18.8032   26.5782 O   0  0  0  0  0  0  0  0  0  0  0  0
  2  1  1  6
  2  3  1  0
  4  2  1  0
  5  4  2  0
  7  6  1  1
  7  8  1  0
  8  4  1  0
  9  7  1  0
  9 15  1  0
 10  9  2  0
 12 11  1  6
 12 14  1  0
 12 13  1  0
 14 15  1  1
 14 16  1  0
 16 18  1  0
 17 16  2  0
M  END
$$$$
