AAT.pdb
     RDKit          3D

 18 17  0  0  1  0  0  0  0  0999 V2000
    8.3511  -16.9625   16.1832 C   0  0  0  0  0  0  0  0  0  0  0  0
    8.7146  -15.5257   15.8733 C   0  0  2  0  0  0  0  0  0  0  0  0
    9.7590  -15.4828   14.8803 N   0  0  0  0  0  0  0  0  0  0  0  0
    9.0859  -14.7820   17.1083 C   0  0  0  0  0  0  0  0  0  0  0  0
   10.2931  -14.7586   17.4520 O   0  0  0  0  0  0  0  0  0  0  0  0
    7.3306  -12.4627   19.5492 C   0  0  0  0  0  0  0  0  0  0  0  0
    8.4363  -13.4142   19.1383 C   0  0  2  0  0  0  0  0  0  0  0  0
    8.1348  -14.0991   17.9130 N   0  0  0  0  0  0  0  0  0  0  0  0
    8.7731  -14.3211   20.2460 C   0  0  0  0  0  0  0  0  0  0  0  0
    9.1256  -13.9439   21.3940 O   0  0  0  0  0  0  0  0  0  0  0  0
    8.8161  -19.1161   21.6177 C   0  0  0  0  0  0  0  0  0  0  0  0
    8.6296  -18.0438   20.5956 C   0  0  1  0  0  0  0  0  0  0  0  0
    7.3648  -18.0954   20.0503 O   0  0  0  0  0  0  0  0  0  0  0  0
    8.9339  -16.6630   21.1262 C   0  0  2  0  0  0  0  0  0  0  0  0
    8.6999  -15.7226   20.0195 N   0  0  0  0  0  0  0  0  0  0  0  0
   10.3596  -16.6156   21.5079 C   0  0  0  0  0  0  0  0  0  0  0  0
   11.1881  -16.1227   20.7255 O   0  0  0  0  0  0  0  0  0  0  0  0
   10.8261  -17.1114   22.7364 O   0  0  0  0  0  0  0  0  0  0  0  0
  2  1  1  1
  2  3  1  0
  4  2  1  0
  5  4  2  0
  7  6  1  1
  7  8  1  0
  8  4  1  0
  9  7  1  0
  9 15  1  0
 10  9  2  0
 12 11  1  1
 12 14  1  0
 12 13  1  0
 14 15  1  6
 14 16  1  0
 16 18  1  0
 17 16  2  0
M  END
$$$$
