AAT.pdb
     RDKit          3D

 18 17  0  0  1  0  0  0  0  0999 V2000
    7.4451  -16.0599   16.8060 C   0  0  0  0  0  0  0  0  0  0  0  0
    7.4406  -14.5473   16.8733 C   0  0  2  0  0  0  0  0  0  0  0  0
    7.9462  -13.9957   15.6410 N   0  0  0  0  0  0  0  0  0  0  0  0
    8.1960  -14.0552   18.0581 C   0  0  0  0  0  0  0  0  0  0  0  0
    8.7656  -12.9390   17.9826 O   0  0  0  0  0  0  0  0  0  0  0  0
    7.8512  -13.0751   20.9558 C   0  0  0  0  0  0  0  0  0  0  0  0
    8.7126  -14.2471   20.5299 C   0  0  2  0  0  0  0  0  0  0  0  0
    8.2998  -14.7930   19.2678 N   0  0  0  0  0  0  0  0  0  0  0  0
    8.7853  -15.2496   21.6035 C   0  0  0  0  0  0  0  0  0  0  0  0
    7.8121  -15.5951   22.3232 O   0  0  0  0  0  0  0  0  0  0  0  0
   10.3223  -18.7156   21.0261 C   0  0  0  0  0  0  0  0  0  0  0  0
   10.9798  -18.0524   22.1911 C   0  0  1  0  0  0  0  0  0  0  0  0
   12.2143  -17.5490   21.8411 O   0  0  0  0  0  0  0  0  0  0  0  0
   10.1203  -16.9847   22.8251 C   0  0  2  0  0  0  0  0  0  0  0  0
   10.0338  -15.8802   21.8574 N   0  0  0  0  0  0  0  0  0  0  0  0
   10.7991  -16.5060   24.0460 C   0  0  0  0  0  0  0  0  0  0  0  0
   11.3132  -15.3759   24.0590 O   0  0  0  0  0  0  0  0  0  0  0  0
   10.8898  -17.2854   25.2108 O   0  0  0  0  0  0  0  0  0  0  0  0
  2  1  1  6
  2  3  1  0
  4  2  1  0
  5  4  2  0
  7  6  1  1
  7  8  1  0
  8  4  1  0
  9  7  1  0
  9 15  1  0
 10  9  2  0
 12 11  1  6
 12 14  1  0
 12 13  1  0
 14 15  1  6
 14 16  1  0
 16 18  1  0
 17 16  2  0
M  END
$$$$
