EKW.pdb
     RDKit          3D

 33 34  0  0  1  0  0  0  0  0999 V2000
   29.4347  -22.5705  -16.4281 N   0  0  0  0  0  0  0  0  0  0  0  0
   28.0746  -22.0562  -16.2470 C   0  0  1  0  0  0  0  0  0  0  0  0
   27.1609  -23.2359  -16.2525 C   0  0  0  0  0  0  0  0  0  0  0  0
   27.0217  -23.7887  -17.6395 C   0  0  0  0  0  0  0  0  0  0  0  0
   26.0323  -23.0575  -18.4253 C   0  0  0  0  0  0  0  0  0  0  0  0
   25.4033  -22.0832  -18.0146 O   0  0  0  0  0  0  0  0  0  0  0  0
   28.0270  -21.3345  -14.9480 C   0  0  0  0  0  0  0  0  0  0  0  0
   28.9315  -21.5092  -14.1089 O   0  0  0  0  0  0  0  0  0  0  0  0
   25.7537  -23.4670  -19.7477 O   0  0  0  0  0  0  0  0  0  0  0  0
   26.9545  -20.4644  -14.6943 N   0  0  0  0  0  0  0  0  0  0  0  0
   26.9136  -19.6687  -13.4910 C   0  0  1  0  0  0  0  0  0  0  0  0
   26.1846  -18.3687  -13.7666 C   0  0  0  0  0  0  0  0  0  0  0  0
   26.9347  -17.4211  -14.6347 C   0  0  0  0  0  0  0  0  0  0  0  0
   26.0690  -16.1903  -14.8446 C   0  0  0  0  0  0  0  0  0  0  0  0
   26.8573  -15.1941  -15.6602 C   0  0  0  0  0  0  0  0  0  0  0  0
   26.0546  -14.0492  -16.0399 N   0  0  0  0  0  0  0  0  0  0  0  0
   26.3028  -20.4861  -12.4313 C   0  0  0  0  0  0  0  0  0  0  0  0
   25.2657  -21.1369  -12.6851 O   0  0  0  0  0  0  0  0  0  0  0  0
   26.8191  -20.5896  -11.1166 N   0  0  0  0  0  0  0  0  0  0  0  0
   26.1108  -21.3311  -10.1269 C   0  0  1  0  0  0  0  0  0  0  0  0
   26.9944  -21.7738   -8.9826 C   0  0  0  0  0  0  0  0  0  0  0  0
   27.3722  -20.5916   -8.1833 C   0  0  0  0  0  0  0  0  0  0  0  0
   27.0283  -19.2634   -8.3990 C   0  0  0  0  0  0  0  0  0  0  0  0
   27.5759  -18.4928   -7.4507 N   0  0  0  0  0  0  0  0  0  0  0  0
   28.2766  -19.2521   -6.6024 C   0  0  0  0  0  0  0  0  0  0  0  0
   29.0154  -18.9354   -5.4689 C   0  0  0  0  0  0  0  0  0  0  0  0
   29.6237  -19.9778   -4.8074 C   0  0  0  0  0  0  0  0  0  0  0  0
   29.5232  -21.2850   -5.2256 C   0  0  0  0  0  0  0  0  0  0  0  0
   28.7889  -21.5852   -6.3492 C   0  0  0  0  0  0  0  0  0  0  0  0
   28.1567  -20.5683   -7.0505 C   0  0  0  0  0  0  0  0  0  0  0  0
   24.9772  -20.5209   -9.6480 C   0  0  0  0  0  0  0  0  0  0  0  0
   24.1497  -21.0183   -8.8641 O   0  0  0  0  0  0  0  0  0  0  0  0
   24.8306  -19.2225  -10.0621 O   0  0  0  0  0  0  0  0  0  0  0  0
  2  1  1  1
  2  3  1  0
  3  4  1  0
  5  4  1  0
  5  6  2  0
  7  8  2  0
  7  2  1  0
  9  5  1  0
 10  7  1  0
 11 12  1  6
 11 10  1  0
 13 12  1  0
 14 13  1  0
 15 14  1  0
 16 15  1  0
 17 11  1  0
 18 17  2  0
 19 17  1  0
 20 21  1  1
 20 19  1  0
 21 22  1  0
 22 30  1  0
 23 22  2  0
 23 24  1  0
 24 25  1  0
 25 26  2  0
 26 27  1  0
 28 27  2  0
 29 28  1  0
 30 29  2  0
 30 25  1  0
 31 33  1  0
 31 20  1  0
 32 31  2  0
M  END
$$$$
