EKW.pdb
     RDKit          3D

 33 34  0  0  1  0  0  0  0  0999 V2000
   30.4062  -24.2451  -16.8736 N   0  0  0  0  0  0  0  0  0  0  0  0
   29.5841  -23.1309  -17.3530 C   0  0  1  0  0  0  0  0  0  0  0  0
   28.4664  -23.7255  -18.1427 C   0  0  0  0  0  0  0  0  0  0  0  0
   28.2702  -25.1664  -17.7768 C   0  0  0  0  0  0  0  0  0  0  0  0
   27.0409  -25.3779  -17.0183 C   0  0  0  0  0  0  0  0  0  0  0  0
   25.9381  -24.9460  -17.3510 O   0  0  0  0  0  0  0  0  0  0  0  0
   29.0808  -22.3895  -16.1667 C   0  0  0  0  0  0  0  0  0  0  0  0
   29.5478  -22.6363  -15.0380 O   0  0  0  0  0  0  0  0  0  0  0  0
   27.0828  -26.1228  -15.8193 O   0  0  0  0  0  0  0  0  0  0  0  0
   28.0821  -21.4190  -16.3468 N   0  0  0  0  0  0  0  0  0  0  0  0
   27.8611  -20.3901  -15.3592 C   0  0  1  0  0  0  0  0  0  0  0  0
   27.3872  -19.1233  -16.0433 C   0  0  0  0  0  0  0  0  0  0  0  0
   26.9156  -18.0655  -15.1089 C   0  0  0  0  0  0  0  0  0  0  0  0
   26.5472  -16.8422  -15.9314 C   0  0  0  0  0  0  0  0  0  0  0  0
   26.0476  -15.7744  -14.9884 C   0  0  0  0  0  0  0  0  0  0  0  0
   25.7995  -14.5213  -15.6721 N   0  0  0  0  0  0  0  0  0  0  0  0
   26.9205  -20.9200  -14.3597 C   0  0  0  0  0  0  0  0  0  0  0  0
   25.8877  -21.5089  -14.7469 O   0  0  0  0  0  0  0  0  0  0  0  0
   27.1083  -20.8077  -12.9605 N   0  0  0  0  0  0  0  0  0  0  0  0
   26.1861  -21.4218  -12.0641 C   0  0  1  0  0  0  0  0  0  0  0  0
   26.8562  -21.9933  -10.8351 C   0  0  0  0  0  0  0  0  0  0  0  0
   26.6793  -21.0526   -9.7112 C   0  0  0  0  0  0  0  0  0  0  0  0
   25.5446  -20.3295   -9.3669 C   0  0  0  0  0  0  0  0  0  0  0  0
   25.7930  -19.5836   -8.2829 N   0  0  0  0  0  0  0  0  0  0  0  0
   27.0537  -19.7770   -7.8825 C   0  0  0  0  0  0  0  0  0  0  0  0
   27.7813  -19.2470   -6.8238 C   0  0  0  0  0  0  0  0  0  0  0  0
   29.0847  -19.6678   -6.6880 C   0  0  0  0  0  0  0  0  0  0  0  0
   29.6687  -20.5713   -7.5462 C   0  0  0  0  0  0  0  0  0  0  0  0
   28.9377  -21.0884   -8.5902 C   0  0  0  0  0  0  0  0  0  0  0  0
   27.6191  -20.6948   -8.7689 C   0  0  0  0  0  0  0  0  0  0  0  0
   25.1494  -20.4391  -11.7030 C   0  0  0  0  0  0  0  0  0  0  0  0
   25.3812  -19.2234  -11.8247 O   0  0  0  0  0  0  0  0  0  0  0  0
   23.9316  -20.8584  -11.2340 O   0  0  0  0  0  0  0  0  0  0  0  0
  2  1  1  1
  2  3  1  0
  3  4  1  0
  5  4  1  0
  5  6  2  0
  7  8  2  0
  7  2  1  0
  9  5  1  0
 10  7  1  0
 11 12  1  6
 11 10  1  0
 13 12  1  0
 14 13  1  0
 15 14  1  0
 16 15  1  0
 17 11  1  0
 18 17  2  0
 19 17  1  0
 20 21  1  1
 20 19  1  0
 21 22  1  0
 22 30  1  0
 23 22  2  0
 23 24  1  0
 24 25  1  0
 25 26  2  0
 26 27  1  0
 28 27  2  0
 29 28  1  0
 30 29  2  0
 30 25  1  0
 31 33  1  0
 31 20  1  0
 32 31  2  0
M  END
$$$$
