EKW.pdb
     RDKit          3D

 33 34  0  0  1  0  0  0  0  0999 V2000
   29.3180  -18.7019  -17.7141 N   0  0  0  0  0  0  0  0  0  0  0  0
   28.7149  -18.3887  -16.4160 C   0  0  1  0  0  0  0  0  0  0  0  0
   28.2352  -16.9778  -16.4901 C   0  0  0  0  0  0  0  0  0  0  0  0
   28.7074  -16.3259  -17.7553 C   0  0  0  0  0  0  0  0  0  0  0  0
   27.6231  -16.1393  -18.7147 C   0  0  0  0  0  0  0  0  0  0  0  0
   26.4298  -16.1164  -18.4164 O   0  0  0  0  0  0  0  0  0  0  0  0
   27.5914  -19.3366  -16.1923 C   0  0  0  0  0  0  0  0  0  0  0  0
   26.4299  -19.0033  -16.4964 O   0  0  0  0  0  0  0  0  0  0  0  0
   27.9268  -15.9704  -20.0834 O   0  0  0  0  0  0  0  0  0  0  0  0
   27.8675  -20.5973  -15.6388 N   0  0  0  0  0  0  0  0  0  0  0  0
   26.8052  -21.5330  -15.3588 C   0  0  1  0  0  0  0  0  0  0  0  0
   27.1012  -22.8552  -16.0382 C   0  0  0  0  0  0  0  0  0  0  0  0
   27.1037  -22.7898  -17.5248 C   0  0  0  0  0  0  0  0  0  0  0  0
   27.5018  -24.1571  -18.0546 C   0  0  0  0  0  0  0  0  0  0  0  0
   26.3822  -25.1233  -17.7514 C   0  0  0  0  0  0  0  0  0  0  0  0
   26.6468  -26.4436  -18.2861 N   0  0  0  0  0  0  0  0  0  0  0  0
   26.6624  -21.6280  -13.8977 C   0  0  0  0  0  0  0  0  0  0  0  0
   27.4007  -22.4125  -13.2630 O   0  0  0  0  0  0  0  0  0  0  0  0
   25.7277  -20.8764  -13.1446 N   0  0  0  0  0  0  0  0  0  0  0  0
   24.9821  -21.5007  -12.1028 C   0  0  1  0  0  0  0  0  0  0  0  0
   25.8635  -22.1153  -11.0390 C   0  0  0  0  0  0  0  0  0  0  0  0
   26.0467  -21.1402   -9.9458 C   0  0  0  0  0  0  0  0  0  0  0  0
   25.1441  -20.1934   -9.4792 C   0  0  0  0  0  0  0  0  0  0  0  0
   25.6941  -19.4973   -8.4763 N   0  0  0  0  0  0  0  0  0  0  0  0
   26.9348  -19.9396   -8.2484 C   0  0  0  0  0  0  0  0  0  0  0  0
   27.9017  -19.5539   -7.3279 C   0  0  0  0  0  0  0  0  0  0  0  0
   29.0991  -20.2318   -7.3573 C   0  0  0  0  0  0  0  0  0  0  0  0
   29.3567  -21.2500   -8.2466 C   0  0  0  0  0  0  0  0  0  0  0  0
   28.3913  -21.6223   -9.1527 C   0  0  0  0  0  0  0  0  0  0  0  0
   27.1673  -20.9685   -9.1623 C   0  0  0  0  0  0  0  0  0  0  0  0
   24.0534  -20.5127  -11.5263 C   0  0  0  0  0  0  0  0  0  0  0  0
   24.1868  -19.3067  -11.7989 O   0  0  0  0  0  0  0  0  0  0  0  0
   23.0438  -20.9165  -10.6918 O   0  0  0  0  0  0  0  0  0  0  0  0
  2  1  1  6
  2  3  1  0
  3  4  1  0
  5  4  1  0
  5  6  2  0
  7  8  2  0
  7  2  1  0
  9  5  1  0
 10  7  1  0
 11 12  1  1
 11 10  1  0
 13 12  1  0
 14 13  1  0
 15 14  1  0
 16 15  1  0
 17 11  1  0
 18 17  2  0
 19 17  1  0
 20 21  1  1
 20 19  1  0
 21 22  1  0
 22 30  1  0
 23 22  2  0
 23 24  1  0
 24 25  1  0
 25 26  2  0
 26 27  1  0
 28 27  2  0
 29 28  1  0
 30 29  2  0
 30 25  1  0
 31 33  1  0
 31 20  1  0
 32 31  2  0
M  END
$$$$
