EKW.pdb
     RDKit          3D

 33 34  0  0  1  0  0  0  0  0999 V2000
   19.9005  -25.1862  -11.2324 N   0  0  0  0  0  0  0  0  0  0  0  0
   20.2443  -23.8966  -11.8372 C   0  0  1  0  0  0  0  0  0  0  0  0
   19.3563  -22.8739  -11.2112 C   0  0  0  0  0  0  0  0  0  0  0  0
   17.9195  -23.1513  -11.5391 C   0  0  0  0  0  0  0  0  0  0  0  0
   17.0272  -22.1253  -11.0078 C   0  0  0  0  0  0  0  0  0  0  0  0
   17.4049  -21.1281  -10.3941 O   0  0  0  0  0  0  0  0  0  0  0  0
   21.6777  -23.6241  -11.5510 C   0  0  0  0  0  0  0  0  0  0  0  0
   22.1040  -23.7130  -10.3834 O   0  0  0  0  0  0  0  0  0  0  0  0
   15.6330  -22.2527  -11.1922 O   0  0  0  0  0  0  0  0  0  0  0  0
   22.5260  -23.2702  -12.6126 N   0  0  0  0  0  0  0  0  0  0  0  0
   23.9113  -22.9415  -12.3769 C   0  0  1  0  0  0  0  0  0  0  0  0
   24.7049  -23.1431  -13.6523 C   0  0  0  0  0  0  0  0  0  0  0  0
   24.6729  -24.5353  -14.1768 C   0  0  0  0  0  0  0  0  0  0  0  0
   25.5274  -24.5842  -15.4322 C   0  0  0  0  0  0  0  0  0  0  0  0
   25.4634  -25.9854  -15.9904 C   0  0  0  0  0  0  0  0  0  0  0  0
   26.1732  -26.0999  -17.2484 N   0  0  0  0  0  0  0  0  0  0  0  0
   23.9647  -21.5699  -11.8475 C   0  0  0  0  0  0  0  0  0  0  0  0
   22.9576  -21.0973  -11.2767 O   0  0  0  0  0  0  0  0  0  0  0  0
   25.1016  -20.7306  -11.9411 N   0  0  0  0  0  0  0  0  0  0  0  0
   25.6464  -20.1317  -10.7682 C   0  0  1  0  0  0  0  0  0  0  0  0
   26.0285  -21.1475   -9.7154 C   0  0  0  0  0  0  0  0  0  0  0  0
   26.5170  -20.4361   -8.5176 C   0  0  0  0  0  0  0  0  0  0  0  0
   26.0943  -19.2131   -8.0130 C   0  0  0  0  0  0  0  0  0  0  0  0
   26.7920  -18.9111   -6.9107 N   0  0  0  0  0  0  0  0  0  0  0  0
   27.6700  -19.8855   -6.6524 C   0  0  0  0  0  0  0  0  0  0  0  0
   28.6062  -20.0443   -5.6379 C   0  0  0  0  0  0  0  0  0  0  0  0
   29.3662  -21.1915   -5.6621 C   0  0  0  0  0  0  0  0  0  0  0  0
   29.2282  -22.1557   -6.6342 C   0  0  0  0  0  0  0  0  0  0  0  0
   28.2979  -21.9866   -7.6330 C   0  0  0  0  0  0  0  0  0  0  0  0
   27.5074  -20.8462   -7.6516 C   0  0  0  0  0  0  0  0  0  0  0  0
   26.7981  -19.2972  -11.1528 C   0  0  0  0  0  0  0  0  0  0  0  0
   26.7989  -18.0832  -10.8833 O   0  0  0  0  0  0  0  0  0  0  0  0
   27.8679  -19.8524  -11.8055 O   0  0  0  0  0  0  0  0  0  0  0  0
  2  1  1  1
  2  3  1  0
  3  4  1  0
  5  4  1  0
  5  6  2  0
  7  8  2  0
  7  2  1  0
  9  5  1  0
 10  7  1  0
 11 12  1  6
 11 10  1  0
 13 12  1  0
 14 13  1  0
 15 14  1  0
 16 15  1  0
 17 11  1  0
 18 17  2  0
 19 17  1  0
 20 21  1  1
 20 19  1  0
 21 22  1  0
 22 30  1  0
 23 22  2  0
 23 24  1  0
 24 25  1  0
 25 26  2  0
 26 27  1  0
 28 27  2  0
 29 28  1  0
 30 29  2  0
 30 25  1  0
 31 33  1  0
 31 20  1  0
 32 31  2  0
M  END
$$$$
