WET.pdb
     RDKit          3D

 31 32  0  0  1  0  0  0  0  0999 V2000
    6.5835  -17.8030   24.3265 N   0  0  0  0  0  0  0  0  0  0  0  0
    7.5431  -17.1605   23.4959 C   0  0  1  0  0  0  0  0  0  0  0  0
    7.1621  -15.7549   23.2027 C   0  0  0  0  0  0  0  0  0  0  0  0
    6.7362  -15.0864   24.4569 C   0  0  0  0  0  0  0  0  0  0  0  0
    6.1401  -15.6949   25.5612 C   0  0  0  0  0  0  0  0  0  0  0  0
    5.9275  -14.7907   26.5217 N   0  0  0  0  0  0  0  0  0  0  0  0
    6.3686  -13.6104   26.0716 C   0  0  0  0  0  0  0  0  0  0  0  0
    6.3744  -12.3593   26.6675 C   0  0  0  0  0  0  0  0  0  0  0  0
    6.8844  -11.2797   25.9780 C   0  0  0  0  0  0  0  0  0  0  0  0
    7.3951  -11.3888   24.7072 C   0  0  0  0  0  0  0  0  0  0  0  0
    7.3838  -12.6503   24.1201 C   0  0  0  0  0  0  0  0  0  0  0  0
    6.8801  -13.7578   24.7840 C   0  0  0  0  0  0  0  0  0  0  0  0
    8.8931  -17.2879   24.1010 C   0  0  0  0  0  0  0  0  0  0  0  0
    9.0593  -17.8500   25.2127 O   0  0  0  0  0  0  0  0  0  0  0  0
   10.0674  -16.7846   23.4624 N   0  0  0  0  0  0  0  0  0  0  0  0
   11.4091  -16.9822   23.9659 C   0  0  1  0  0  0  0  0  0  0  0  0
   12.3748  -16.4227   22.9552 C   0  0  0  0  0  0  0  0  0  0  0  0
   12.3434  -17.2261   21.6861 C   0  0  0  0  0  0  0  0  0  0  0  0
   13.2872  -16.6725   20.6657 C   0  0  0  0  0  0  0  0  0  0  0  0
   12.8244  -16.4225   19.5205 O   0  0  0  0  0  0  0  0  0  0  0  0
   11.6501  -16.3543   25.2792 C   0  0  0  0  0  0  0  0  0  0  0  0
   12.3653  -15.3281   25.3061 O   0  0  0  0  0  0  0  0  0  0  0  0
   14.6080  -16.4523   20.9880 O   0  0  0  0  0  0  0  0  0  0  0  0
   10.2711  -14.2524   27.5105 C   0  0  0  0  0  0  0  0  0  0  0  0
   10.3734  -15.5338   28.3453 C   0  0  1  0  0  0  0  0  0  0  0  0
    9.1907  -16.2655   28.2210 O   0  0  0  0  0  0  0  0  0  0  0  0
   11.4883  -16.4149   27.8230 C   0  0  2  0  0  0  0  0  0  0  0  0
   11.1286  -16.8391   26.4953 N   0  0  0  0  0  0  0  0  0  0  0  0
   11.7698  -17.5738   28.6778 C   0  0  0  0  0  0  0  0  0  0  0  0
   12.1787  -17.4323   30.0178 O   0  0  0  0  0  0  0  0  0  0  0  0
   11.6588  -18.7403   28.2533 O   0  0  0  0  0  0  0  0  0  0  0  0
  2  1  1  1
  2  3  1  0
  3  4  1  0
  4  5  2  0
  5  6  1  0
  7  6  1  0
  8  7  2  0
  9  8  1  0
 10 11  1  0
 10  9  2  0
 11 12  2  0
 12  4  1  0
 12  7  1  0
 13 14  2  0
 13  2  1  0
 15 13  1  0
 16 15  1  0
 16 17  1  6
 17 18  1  0
 18 19  1  0
 19 23  1  0
 20 19  2  0
 21 16  1  0
 22 21  2  0
 25 24  1  6
 25 27  1  0
 25 26  1  0
 27 28  1  6
 28 21  1  0
 29 27  1  0
 29 30  1  0
 31 29  2  0
M  END
$$$$
