WET.pdb
     RDKit          3D

 31 32  0  0  1  0  0  0  0  0999 V2000
    6.6035  -17.4322   24.2756 N   0  0  0  0  0  0  0  0  0  0  0  0
    7.7188  -16.5494   24.2652 C   0  0  1  0  0  0  0  0  0  0  0  0
    7.8701  -15.8405   25.5619 C   0  0  0  0  0  0  0  0  0  0  0  0
    6.8053  -14.8155   25.6919 C   0  0  0  0  0  0  0  0  0  0  0  0
    5.4368  -15.0513   25.8202 C   0  0  0  0  0  0  0  0  0  0  0  0
    4.7837  -13.8929   25.9505 N   0  0  0  0  0  0  0  0  0  0  0  0
    5.6907  -12.9099   25.9098 C   0  0  0  0  0  0  0  0  0  0  0  0
    5.5392  -11.5348   25.9915 C   0  0  0  0  0  0  0  0  0  0  0  0
    6.6501  -10.7222   25.9108 C   0  0  0  0  0  0  0  0  0  0  0  0
    7.9204  -11.2207   25.7503 C   0  0  0  0  0  0  0  0  0  0  0  0
    8.0589  -12.6029   25.6699 C   0  0  0  0  0  0  0  0  0  0  0  0
    6.9647  -13.4501   25.7484 C   0  0  0  0  0  0  0  0  0  0  0  0
    8.9389  -17.2902   23.8563 C   0  0  0  0  0  0  0  0  0  0  0  0
    9.0810  -18.5104   24.1219 O   0  0  0  0  0  0  0  0  0  0  0  0
   10.0096  -16.6665   23.1459 N   0  0  0  0  0  0  0  0  0  0  0  0
   11.3972  -17.0563   23.2697 C   0  0  1  0  0  0  0  0  0  0  0  0
   12.1805  -16.3423   22.2002 C   0  0  0  0  0  0  0  0  0  0  0  0
   11.7472  -16.7899   20.8332 C   0  0  0  0  0  0  0  0  0  0  0  0
   12.6814  -17.8150   20.2723 C   0  0  0  0  0  0  0  0  0  0  0  0
   13.5687  -17.4168   19.4708 O   0  0  0  0  0  0  0  0  0  0  0  0
   11.9826  -16.7601   24.5913 C   0  0  0  0  0  0  0  0  0  0  0  0
   13.2034  -16.4898   24.6346 O   0  0  0  0  0  0  0  0  0  0  0  0
   12.5580  -19.1387   20.6325 O   0  0  0  0  0  0  0  0  0  0  0  0
   10.8633  -14.1274   26.9126 C   0  0  0  0  0  0  0  0  0  0  0  0
   10.8303  -15.4256   27.7268 C   0  0  1  0  0  0  0  0  0  0  0  0
    9.5431  -15.9655   27.6894 O   0  0  0  0  0  0  0  0  0  0  0  0
   11.7535  -16.4562   27.1124 C   0  0  2  0  0  0  0  0  0  0  0  0
   11.2549  -16.7658   25.7979 N   0  0  0  0  0  0  0  0  0  0  0  0
   11.8877  -17.6769   27.9154 C   0  0  0  0  0  0  0  0  0  0  0  0
   12.4490  -17.6640   29.2067 O   0  0  0  0  0  0  0  0  0  0  0  0
   11.5087  -18.7845   27.4877 O   0  0  0  0  0  0  0  0  0  0  0  0
  2  1  1  1
  2  3  1  0
  3  4  1  0
  4  5  2  0
  5  6  1  0
  7  6  1  0
  8  7  2  0
  9  8  1  0
 10 11  1  0
 10  9  2  0
 11 12  2  0
 12  4  1  0
 12  7  1  0
 13 14  2  0
 13  2  1  0
 15 13  1  0
 16 15  1  0
 16 17  1  6
 17 18  1  0
 18 19  1  0
 19 23  1  0
 20 19  2  0
 21 16  1  0
 22 21  2  0
 25 24  1  6
 25 27  1  0
 25 26  1  0
 27 28  1  6
 28 21  1  0
 29 27  1  0
 29 30  1  0
 31 29  2  0
M  END
$$$$
