WET.pdb
     RDKit          3D

 31 32  0  0  1  0  0  0  0  0999 V2000
    6.5456  -17.6215   23.9492 N   0  0  0  0  0  0  0  0  0  0  0  0
    7.7318  -16.8741   23.7090 C   0  0  1  0  0  0  0  0  0  0  0  0
    8.2330  -16.2263   24.9484 C   0  0  0  0  0  0  0  0  0  0  0  0
    7.2753  -15.1785   25.3802 C   0  0  0  0  0  0  0  0  0  0  0  0
    5.9649  -15.3789   25.8135 C   0  0  0  0  0  0  0  0  0  0  0  0
    5.4134  -14.2111   26.1562 N   0  0  0  0  0  0  0  0  0  0  0  0
    6.3295  -13.2565   25.9567 C   0  0  0  0  0  0  0  0  0  0  0  0
    6.2638  -11.8852   26.1460 C   0  0  0  0  0  0  0  0  0  0  0  0
    7.3611  -11.1044   25.8506 C   0  0  0  0  0  0  0  0  0  0  0  0
    8.5352  -11.6315   25.3693 C   0  0  0  0  0  0  0  0  0  0  0  0
    8.5884  -13.0095   25.1840 C   0  0  0  0  0  0  0  0  0  0  0  0
    7.5052  -13.8251   25.4714 C   0  0  0  0  0  0  0  0  0  0  0  0
    8.7428  -17.7391   23.0498 C   0  0  0  0  0  0  0  0  0  0  0  0
    8.9616  -18.9096   23.4518 O   0  0  0  0  0  0  0  0  0  0  0  0
    9.5164  -17.2963   21.9338 N   0  0  0  0  0  0  0  0  0  0  0  0
   10.8948  -17.6715   21.7060 C   0  0  1  0  0  0  0  0  0  0  0  0
   11.4233  -16.8406   20.5669 C   0  0  0  0  0  0  0  0  0  0  0  0
   12.8516  -17.1956   20.2657 C   0  0  0  0  0  0  0  0  0  0  0  0
   13.0795  -17.3424   18.7943 C   0  0  0  0  0  0  0  0  0  0  0  0
   12.8070  -16.3536   18.0621 O   0  0  0  0  0  0  0  0  0  0  0  0
   11.7616  -17.4978   22.8873 C   0  0  0  0  0  0  0  0  0  0  0  0
   12.0245  -16.3277   23.2438 O   0  0  0  0  0  0  0  0  0  0  0  0
   13.5694  -18.5230   18.2814 O   0  0  0  0  0  0  0  0  0  0  0  0
   11.5490  -18.9229   26.5423 C   0  0  0  0  0  0  0  0  0  0  0  0
   12.7748  -19.4578   25.7935 C   0  0  1  0  0  0  0  0  0  0  0  0
   12.4330  -20.6334   25.1218 O   0  0  0  0  0  0  0  0  0  0  0  0
   13.2215  -18.4673   24.7393 C   0  0  2  0  0  0  0  0  0  0  0  0
   12.3084  -18.5629   23.6305 N   0  0  0  0  0  0  0  0  0  0  0  0
   14.6034  -18.6714   24.2903 C   0  0  0  0  0  0  0  0  0  0  0  0
   15.7020  -18.5106   25.1565 O   0  0  0  0  0  0  0  0  0  0  0  0
   14.8671  -18.9977   23.1168 O   0  0  0  0  0  0  0  0  0  0  0  0
  2  1  1  1
  2  3  1  0
  3  4  1  0
  4  5  2  0
  5  6  1  0
  7  6  1  0
  8  7  2  0
  9  8  1  0
 10 11  1  0
 10  9  2  0
 11 12  2  0
 12  4  1  0
 12  7  1  0
 13 14  2  0
 13  2  1  0
 15 13  1  0
 16 15  1  0
 16 17  1  6
 17 18  1  0
 18 19  1  0
 19 23  1  0
 20 19  2  0
 21 16  1  0
 22 21  2  0
 25 24  1  6
 25 27  1  0
 25 26  1  0
 27 28  1  6
 28 21  1  0
 29 27  1  0
 29 30  1  0
 31 29  2  0
M  END
$$$$
