WET.pdb
     RDKit          3D

 31 32  0  0  1  0  0  0  0  0999 V2000
    6.6222  -17.3688   24.9619 N   0  0  0  0  0  0  0  0  0  0  0  0
    7.7522  -16.5499   24.6861 C   0  0  1  0  0  0  0  0  0  0  0  0
    8.0390  -15.6151   25.8044 C   0  0  0  0  0  0  0  0  0  0  0  0
    6.9382  -14.6266   25.9168 C   0  0  0  0  0  0  0  0  0  0  0  0
    5.6195  -14.8906   26.2859 C   0  0  0  0  0  0  0  0  0  0  0  0
    4.9168  -13.7544   26.3146 N   0  0  0  0  0  0  0  0  0  0  0  0
    5.7429  -12.7587   25.9734 C   0  0  0  0  0  0  0  0  0  0  0  0
    5.5149  -11.3980   25.8432 C   0  0  0  0  0  0  0  0  0  0  0  0
    6.5480  -10.5686   25.4615 C   0  0  0  0  0  0  0  0  0  0  0  0
    7.8132  -11.0364   25.1997 C   0  0  0  0  0  0  0  0  0  0  0  0
    8.0291  -12.4044   25.3344 C   0  0  0  0  0  0  0  0  0  0  0  0
    7.0144  -13.2674   25.7173 C   0  0  0  0  0  0  0  0  0  0  0  0
    8.9117  -17.4037   24.3238 C   0  0  0  0  0  0  0  0  0  0  0  0
    9.0365  -18.5653   24.7871 O   0  0  0  0  0  0  0  0  0  0  0  0
    9.9408  -16.9596   23.4386 N   0  0  0  0  0  0  0  0  0  0  0  0
   11.3385  -17.3019   23.5873 C   0  0  1  0  0  0  0  0  0  0  0  0
   12.0999  -16.6588   22.4587 C   0  0  0  0  0  0  0  0  0  0  0  0
   13.5642  -16.9816   22.5513 C   0  0  0  0  0  0  0  0  0  0  0  0
   14.2906  -16.5871   21.3043 C   0  0  0  0  0  0  0  0  0  0  0  0
   13.9595  -15.5011   20.7572 O   0  0  0  0  0  0  0  0  0  0  0  0
   11.9196  -16.8826   24.8770 C   0  0  0  0  0  0  0  0  0  0  0  0
   12.9447  -16.1659   24.8427 O   0  0  0  0  0  0  0  0  0  0  0  0
   15.2804  -17.3958   20.7913 O   0  0  0  0  0  0  0  0  0  0  0  0
   11.1176  -14.5779   27.3255 C   0  0  0  0  0  0  0  0  0  0  0  0
   11.0557  -15.9074   28.0857 C   0  0  1  0  0  0  0  0  0  0  0  0
    9.7557  -16.4144   28.0308 O   0  0  0  0  0  0  0  0  0  0  0  0
   11.9522  -16.9335   27.4259 C   0  0  2  0  0  0  0  0  0  0  0  0
   11.3944  -17.2401   26.1348 N   0  0  0  0  0  0  0  0  0  0  0  0
   12.1261  -18.1565   28.2178 C   0  0  0  0  0  0  0  0  0  0  0  0
   12.7053  -18.1398   29.5012 O   0  0  0  0  0  0  0  0  0  0  0  0
   11.7670  -19.2696   27.7872 O   0  0  0  0  0  0  0  0  0  0  0  0
  2  1  1  1
  2  3  1  0
  3  4  1  0
  4  5  2  0
  5  6  1  0
  7  6  1  0
  8  7  2  0
  9  8  1  0
 10 11  1  0
 10  9  2  0
 11 12  2  0
 12  4  1  0
 12  7  1  0
 13 14  2  0
 13  2  1  0
 15 13  1  0
 16 15  1  0
 16 17  1  6
 17 18  1  0
 18 19  1  0
 19 23  1  0
 20 19  2  0
 21 16  1  0
 22 21  2  0
 25 24  1  6
 25 27  1  0
 25 26  1  0
 27 28  1  6
 28 21  1  0
 29 27  1  0
 29 30  1  0
 31 29  2  0
M  END
$$$$
