WET.pdb
     RDKit          3D

 31 32  0  0  1  0  0  0  0  0999 V2000
    5.9822  -18.0247   23.1266 N   0  0  0  0  0  0  0  0  0  0  0  0
    6.9989  -17.1262   23.5538 C   0  0  1  0  0  0  0  0  0  0  0  0
    6.5574  -16.3084   24.7127 C   0  0  0  0  0  0  0  0  0  0  0  0
    6.9401  -14.8919   24.4924 C   0  0  0  0  0  0  0  0  0  0  0  0
    7.6125  -14.3760   23.3849 C   0  0  0  0  0  0  0  0  0  0  0  0
    7.7547  -13.0535   23.5119 N   0  0  0  0  0  0  0  0  0  0  0  0
    7.1936  -12.6955   24.6727 C   0  0  0  0  0  0  0  0  0  0  0  0
    7.0783  -11.4539   25.2773 C   0  0  0  0  0  0  0  0  0  0  0  0
    6.4537  -11.3491   26.5020 C   0  0  0  0  0  0  0  0  0  0  0  0
    5.9324  -12.4361   27.1612 C   0  0  0  0  0  0  0  0  0  0  0  0
    6.0544  -13.6769   26.5434 C   0  0  0  0  0  0  0  0  0  0  0  0
    6.6749  -13.8193   25.3122 C   0  0  0  0  0  0  0  0  0  0  0  0
    8.2540  -17.8769   23.8103 C   0  0  0  0  0  0  0  0  0  0  0  0
    8.2315  -19.0631   24.2250 O   0  0  0  0  0  0  0  0  0  0  0  0
    9.5447  -17.3013   23.6034 N   0  0  0  0  0  0  0  0  0  0  0  0
   10.7792  -17.8978   24.0647 C   0  0  1  0  0  0  0  0  0  0  0  0
   11.9165  -17.2600   23.3118 C   0  0  0  0  0  0  0  0  0  0  0  0
   13.2214  -17.9190   23.6582 C   0  0  0  0  0  0  0  0  0  0  0  0
   14.3591  -17.3090   22.9022 C   0  0  0  0  0  0  0  0  0  0  0  0
   15.5216  -17.4915   23.3534 O   0  0  0  0  0  0  0  0  0  0  0  0
   11.0045  -17.7522   25.5156 C   0  0  0  0  0  0  0  0  0  0  0  0
   11.8065  -16.8677   25.8896 O   0  0  0  0  0  0  0  0  0  0  0  0
   14.1216  -16.5794   21.7584 O   0  0  0  0  0  0  0  0  0  0  0  0
    8.1558  -17.8215   28.2128 C   0  0  0  0  0  0  0  0  0  0  0  0
    9.2434  -18.8383   28.5769 C   0  0  1  0  0  0  0  0  0  0  0  0
    8.8911  -20.0944   28.0791 O   0  0  0  0  0  0  0  0  0  0  0  0
   10.5560  -18.4624   27.9229 C   0  0  2  0  0  0  0  0  0  0  0  0
   10.3767  -18.5449   26.4970 N   0  0  0  0  0  0  0  0  0  0  0  0
   11.6850  -19.2958   28.3514 C   0  0  0  0  0  0  0  0  0  0  0  0
   12.4078  -20.0974   27.4470 O   0  0  0  0  0  0  0  0  0  0  0  0
   12.0559  -19.3312   29.5407 O   0  0  0  0  0  0  0  0  0  0  0  0
  2  1  1  1
  2  3  1  0
  3  4  1  0
  4  5  2  0
  5  6  1  0
  7  6  1  0
  8  7  2  0
  9  8  1  0
 10 11  1  0
 10  9  2  0
 11 12  2  0
 12  4  1  0
 12  7  1  0
 13 14  2  0
 13  2  1  0
 15 13  1  0
 16 15  1  0
 16 17  1  6
 17 18  1  0
 18 19  1  0
 19 23  1  0
 20 19  2  0
 21 16  1  0
 22 21  2  0
 25 24  1  6
 25 27  1  0
 25 26  1  0
 27 28  1  6
 28 21  1  0
 29 27  1  0
 29 30  1  0
 31 29  2  0
M  END
$$$$
