WET.pdb
     RDKit          3D

 31 32  0  0  1  0  0  0  0  0999 V2000
    7.8913  -15.7541   22.7415 N   0  0  0  0  0  0  0  0  0  0  0  0
    8.9607  -15.9499   23.6588 C   0  0  1  0  0  0  0  0  0  0  0  0
    8.4706  -16.4105   24.9833 C   0  0  0  0  0  0  0  0  0  0  0  0
    7.4168  -15.4858   25.4692 C   0  0  0  0  0  0  0  0  0  0  0  0
    6.1217  -15.8314   25.8541 C   0  0  0  0  0  0  0  0  0  0  0  0
    5.4636  -14.7454   26.2700 N   0  0  0  0  0  0  0  0  0  0  0  0
    6.2956  -13.7028   26.1652 C   0  0  0  0  0  0  0  0  0  0  0  0
    6.1061  -12.3610   26.4553 C   0  0  0  0  0  0  0  0  0  0  0  0
    7.1355  -11.4679   26.2463 C   0  0  0  0  0  0  0  0  0  0  0  0
    8.3598  -11.8529   25.7556 C   0  0  0  0  0  0  0  0  0  0  0  0
    8.5373  -13.2028   25.4686 C   0  0  0  0  0  0  0  0  0  0  0  0
    7.5252  -14.1287   25.6674 C   0  0  0  0  0  0  0  0  0  0  0  0
    9.9728  -16.8569   23.0605 C   0  0  0  0  0  0  0  0  0  0  0  0
   10.5460  -17.7389   23.7482 O   0  0  0  0  0  0  0  0  0  0  0  0
   10.3495  -16.7803   21.6849 N   0  0  0  0  0  0  0  0  0  0  0  0
   11.4460  -17.5241   21.1045 C   0  0  1  0  0  0  0  0  0  0  0  0
   11.3980  -17.3387   19.6110 C   0  0  0  0  0  0  0  0  0  0  0  0
   10.1046  -17.8581   19.0505 C   0  0  0  0  0  0  0  0  0  0  0  0
   10.3069  -19.1413   18.3082 C   0  0  0  0  0  0  0  0  0  0  0  0
   10.9188  -20.0678   18.9044 O   0  0  0  0  0  0  0  0  0  0  0  0
   12.7722  -17.1202   21.6096 C   0  0  0  0  0  0  0  0  0  0  0  0
   13.1454  -15.9483   21.3797 O   0  0  0  0  0  0  0  0  0  0  0  0
    9.8338  -19.2823   17.0225 O   0  0  0  0  0  0  0  0  0  0  0  0
   14.2228  -18.1623   25.2397 C   0  0  0  0  0  0  0  0  0  0  0  0
   15.1536  -18.5377   24.0814 C   0  0  1  0  0  0  0  0  0  0  0  0
   14.8652  -19.8357   23.6548 O   0  0  0  0  0  0  0  0  0  0  0  0
   14.9142  -17.6260   22.8967 C   0  0  2  0  0  0  0  0  0  0  0  0
   13.6373  -17.9695   22.3280 N   0  0  0  0  0  0  0  0  0  0  0  0
   15.9693  -17.6963   21.8794 C   0  0  0  0  0  0  0  0  0  0  0  0
   17.2865  -17.2708   22.1382 O   0  0  0  0  0  0  0  0  0  0  0  0
   15.7450  -18.1379   20.7358 O   0  0  0  0  0  0  0  0  0  0  0  0
  2  1  1  6
  2  3  1  0
  3  4  1  0
  4  5  2  0
  5  6  1  0
  7  6  1  0
  8  7  2  0
  9  8  1  0
 10 11  1  0
 10  9  2  0
 11 12  2  0
 12  4  1  0
 12  7  1  0
 13 14  2  0
 13  2  1  0
 15 13  1  0
 16 15  1  0
 16 17  1  6
 17 18  1  0
 18 19  1  0
 19 23  1  0
 20 19  2  0
 21 16  1  0
 22 21  2  0
 25 24  1  1
 25 27  1  0
 25 26  1  0
 27 28  1  6
 28 21  1  0
 29 27  1  0
 29 30  1  0
 31 29  2  0
M  END
$$$$
