VIE.pdb
     RDKit          3D

 25 24  0  0  1  0  0  0  0  0999 V2000
   24.8245  -35.4683   -3.9109 C   0  0  0  0  0  0  0  0  0  0  0  0
   25.4830  -34.9915   -2.6014 C   0  0  2  0  0  0  0  0  0  0  0  0
   24.8851  -35.8750   -1.5307 C   0  0  0  0  0  0  0  0  0  0  0  0
   25.0090  -33.5750   -2.4089 C   0  0  2  0  0  0  0  0  0  0  0  0
   25.5480  -32.8198   -3.5644 N   0  0  0  0  0  0  0  0  0  0  0  0
   25.5328  -32.9096   -1.2035 C   0  0  0  0  0  0  0  0  0  0  0  0
   26.7264  -32.4698   -1.2153 O   0  0  0  0  0  0  0  0  0  0  0  0
   23.8283  -29.7410    3.6821 C   0  0  0  0  0  0  0  0  0  0  0  0
   24.9087  -30.6576    3.1486 C   0  0  0  0  0  0  0  0  0  0  0  0
   24.4099  -31.1937    1.8286 C   0  0  2  0  0  0  0  0  0  0  0  0
   23.1305  -31.9702    2.0040 C   0  0  0  0  0  0  0  0  0  0  0  0
   25.4314  -32.1511    1.1922 C   0  0  2  0  0  0  0  0  0  0  0  0
   24.8254  -32.6958    0.0124 N   0  0  0  0  0  0  0  0  0  0  0  0
   25.7958  -33.1331    2.2262 C   0  0  0  0  0  0  0  0  0  0  0  0
   25.0262  -34.1228    2.4962 O   0  0  0  0  0  0  0  0  0  0  0  0
   26.9789  -33.1129    3.0140 N   0  0  0  0  0  0  0  0  0  0  0  0
   27.3429  -34.1604    3.9424 C   0  0  1  0  0  0  0  0  0  0  0  0
   28.7882  -34.1045    4.3628 C   0  0  0  0  0  0  0  0  0  0  0  0
   29.7534  -34.5826    3.3377 C   0  0  0  0  0  0  0  0  0  0  0  0
   31.1104  -34.5687    3.9597 C   0  0  0  0  0  0  0  0  0  0  0  0
   31.4462  -33.5574    4.6254 O   0  0  0  0  0  0  0  0  0  0  0  0
   26.5441  -33.9729    5.1743 C   0  0  0  0  0  0  0  0  0  0  0  0
   26.1770  -35.0849    5.9049 O   0  0  0  0  0  0  0  0  0  0  0  0
   32.0139  -35.5931    3.8490 O   0  0  0  0  0  0  0  0  0  0  0  0
   26.1885  -32.8385    5.5782 O   0  0  0  0  0  0  0  0  0  0  0  0
  2  3  1  1
  2  1  1  0
  4  2  1  0
  4  5  1  6
  6  4  1  0
  7  6  2  0
  9  8  1  0
 10  9  1  0
 10 11  1  1
 12 10  1  0
 12 13  1  6
 13  6  1  0
 14 12  1  0
 15 14  2  0
 16 14  1  0
 17 16  1  0
 18 19  1  0
 17 18  1  1
 19 20  1  0
 20 21  2  0
 20 24  1  0
 22 17  1  0
 22 23  1  0
 25 22  2  0
M  END
$$$$
