VIE.pdb
     RDKit          3D

 25 24  0  0  1  0  0  0  0  0999 V2000
   13.3370  -13.0595    5.1585 C   0  0  0  0  0  0  0  0  0  0  0  0
   14.5679  -13.8827    5.5860 C   0  0  2  0  0  0  0  0  0  0  0  0
   14.4531  -13.9867    7.0895 C   0  0  0  0  0  0  0  0  0  0  0  0
   15.7595  -13.0336    5.2290 C   0  0  2  0  0  0  0  0  0  0  0  0
   15.7997  -13.0161    3.7477 N   0  0  0  0  0  0  0  0  0  0  0  0
   17.0561  -13.5776    5.6682 C   0  0  0  0  0  0  0  0  0  0  0  0
   17.5262  -14.5989    5.0731 O   0  0  0  0  0  0  0  0  0  0  0  0
   21.0774  -10.4233    7.5291 C   0  0  0  0  0  0  0  0  0  0  0  0
   20.2775  -11.4668    6.7788 C   0  0  0  0  0  0  0  0  0  0  0  0
   19.9605  -12.5634    7.7666 C   0  0  2  0  0  0  0  0  0  0  0  0
   21.2182  -13.2206    8.2737 C   0  0  0  0  0  0  0  0  0  0  0  0
   19.1070  -13.6678    7.1211 C   0  0  2  0  0  0  0  0  0  0  0  0
   17.8686  -13.0674    6.7190 N   0  0  0  0  0  0  0  0  0  0  0  0
   18.9918  -14.7503    8.1117 C   0  0  0  0  0  0  0  0  0  0  0  0
   18.3542  -14.5737    9.2103 O   0  0  0  0  0  0  0  0  0  0  0  0
   19.5407  -16.0556    7.9866 N   0  0  0  0  0  0  0  0  0  0  0  0
   19.3063  -17.1194    8.9380 C   0  0  1  0  0  0  0  0  0  0  0  0
   19.3823  -18.4924    8.3233 C   0  0  0  0  0  0  0  0  0  0  0  0
   18.1981  -18.8768    7.5104 C   0  0  0  0  0  0  0  0  0  0  0  0
   17.8908  -20.3055    7.8152 C   0  0  0  0  0  0  0  0  0  0  0  0
   18.5983  -20.8938    8.6706 O   0  0  0  0  0  0  0  0  0  0  0  0
   20.3773  -17.0605    9.9579 C   0  0  0  0  0  0  0  0  0  0  0  0
   20.1859  -17.7077   11.1619 O   0  0  0  0  0  0  0  0  0  0  0  0
   16.8825  -21.0160    7.2180 O   0  0  0  0  0  0  0  0  0  0  0  0
   21.4536  -16.4428    9.7668 O   0  0  0  0  0  0  0  0  0  0  0  0
  2  3  1  1
  2  1  1  0
  4  2  1  0
  4  5  1  6
  6  4  1  0
  7  6  2  0
  9  8  1  0
 10  9  1  0
 10 11  1  6
 12 10  1  0
 12 13  1  1
 13  6  1  0
 14 12  1  0
 15 14  2  0
 16 14  1  0
 17 16  1  0
 18 19  1  0
 17 18  1  6
 19 20  1  0
 20 21  2  0
 20 24  1  0
 22 17  1  0
 22 23  1  0
 25 22  2  0
M  END
$$$$
