VIE.pdb
     RDKit          3D

 25 24  0  0  1  0  0  0  0  0999 V2000
   18.6202  -13.6596  -16.4987 C   0  0  0  0  0  0  0  0  0  0  0  0
   17.4010  -12.7202  -16.5813 C   0  0  2  0  0  0  0  0  0  0  0  0
   16.5645  -13.2801  -17.7088 C   0  0  0  0  0  0  0  0  0  0  0  0
   17.9567  -11.3795  -16.9836 C   0  0  2  0  0  0  0  0  0  0  0  0
   18.6499  -11.6122  -18.2725 N   0  0  0  0  0  0  0  0  0  0  0  0
   18.9707  -10.8333  -16.0651 C   0  0  0  0  0  0  0  0  0  0  0  0
   18.6044  -10.4343  -14.9140 O   0  0  0  0  0  0  0  0  0  0  0  0
   24.9522  -10.8281  -14.8825 C   0  0  0  0  0  0  0  0  0  0  0  0
   23.6643  -10.0551  -14.6940 C   0  0  0  0  0  0  0  0  0  0  0  0
   22.6467  -10.6750  -15.6207 C   0  0  2  0  0  0  0  0  0  0  0  0
   23.0524  -10.5125  -17.0628 C   0  0  0  0  0  0  0  0  0  0  0  0
   21.2695  -10.0086  -15.4649 C   0  0  2  0  0  0  0  0  0  0  0  0
   20.3619  -10.7008  -16.3326 N   0  0  0  0  0  0  0  0  0  0  0  0
   21.4540   -8.5776  -15.7557 C   0  0  0  0  0  0  0  0  0  0  0  0
   21.8126   -8.1825  -16.9218 O   0  0  0  0  0  0  0  0  0  0  0  0
   21.2696   -7.5101  -14.8352 N   0  0  0  0  0  0  0  0  0  0  0  0
   21.3835   -6.1133  -15.1926 C   0  0  1  0  0  0  0  0  0  0  0  0
   20.0500   -5.4326  -15.3575 C   0  0  0  0  0  0  0  0  0  0  0  0
   20.1253   -4.0169  -15.8062 C   0  0  0  0  0  0  0  0  0  0  0  0
   18.7274   -3.5004  -15.8938 C   0  0  0  0  0  0  0  0  0  0  0  0
   17.7886   -4.2784  -15.5905 O   0  0  0  0  0  0  0  0  0  0  0  0
   22.0722   -5.4157  -14.0837 C   0  0  0  0  0  0  0  0  0  0  0  0
   22.6463   -4.1843  -14.3269 O   0  0  0  0  0  0  0  0  0  0  0  0
   18.4048   -2.2273  -16.2853 O   0  0  0  0  0  0  0  0  0  0  0  0
   22.1528   -5.9042  -12.9299 O   0  0  0  0  0  0  0  0  0  0  0  0
  2  3  1  6
  2  1  1  0
  4  2  1  0
  4  5  1  6
  6  4  1  0
  7  6  2  0
  9  8  1  0
 10  9  1  0
 10 11  1  6
 12 10  1  0
 12 13  1  6
 13  6  1  0
 14 12  1  0
 15 14  2  0
 16 14  1  0
 17 16  1  0
 18 19  1  0
 17 18  1  1
 19 20  1  0
 20 21  2  0
 20 24  1  0
 22 17  1  0
 22 23  1  0
 25 22  2  0
M  END
$$$$
