VIE.pdb
     RDKit          3D

 25 24  0  0  1  0  0  0  0  0999 V2000
   17.6067  -23.9388   -9.1118 C   0  0  0  0  0  0  0  0  0  0  0  0
   18.8442  -24.6584   -8.5406 C   0  0  2  0  0  0  0  0  0  0  0  0
   18.2782  -25.7688   -7.6855 C   0  0  0  0  0  0  0  0  0  0  0  0
   19.5262  -23.6431   -7.6618 C   0  0  2  0  0  0  0  0  0  0  0  0
   18.4668  -23.1259   -6.7639 N   0  0  0  0  0  0  0  0  0  0  0  0
   20.0649  -22.4734   -8.3772 C   0  0  0  0  0  0  0  0  0  0  0  0
   19.2897  -21.4959   -8.6259 O   0  0  0  0  0  0  0  0  0  0  0  0
   25.2450  -20.8851   -7.9508 C   0  0  0  0  0  0  0  0  0  0  0  0
   23.7325  -20.8690   -8.0153 C   0  0  0  0  0  0  0  0  0  0  0  0
   23.3577  -21.0816   -9.4619 C   0  0  2  0  0  0  0  0  0  0  0  0
   23.8057  -19.9244  -10.3169 C   0  0  0  0  0  0  0  0  0  0  0  0
   21.8340  -21.2013   -9.6328 C   0  0  2  0  0  0  0  0  0  0  0  0
   21.4026  -22.3108   -8.8338 N   0  0  0  0  0  0  0  0  0  0  0  0
   21.5763  -21.3246  -11.0767 C   0  0  0  0  0  0  0  0  0  0  0  0
   21.9311  -22.3742  -11.7226 O   0  0  0  0  0  0  0  0  0  0  0  0
   20.9381  -20.3529  -11.8948 N   0  0  0  0  0  0  0  0  0  0  0  0
   20.6149  -20.5645  -13.2886 C   0  0  1  0  0  0  0  0  0  0  0  0
   19.1866  -20.9888  -13.5085 C   0  0  0  0  0  0  0  0  0  0  0  0
   18.7954  -21.1419  -14.9349 C   0  0  0  0  0  0  0  0  0  0  0  0
   17.3735  -21.5955  -14.9628 C   0  0  0  0  0  0  0  0  0  0  0  0
   16.9035  -22.0037  -16.0542 O   0  0  0  0  0  0  0  0  0  0  0  0
   20.7784  -19.2733  -13.9935 C   0  0  0  0  0  0  0  0  0  0  0  0
   20.7110  -18.1036  -13.2639 O   0  0  0  0  0  0  0  0  0  0  0  0
   16.5478  -21.5939  -13.8690 O   0  0  0  0  0  0  0  0  0  0  0  0
   20.9762  -19.2042  -15.2315 O   0  0  0  0  0  0  0  0  0  0  0  0
  2  3  1  1
  2  1  1  0
  4  2  1  0
  4  5  1  1
  6  4  1  0
  7  6  2  0
  9  8  1  0
 10  9  1  0
 10 11  1  6
 12 10  1  0
 12 13  1  1
 13  6  1  0
 14 12  1  0
 15 14  2  0
 16 14  1  0
 17 16  1  0
 18 19  1  0
 17 18  1  1
 19 20  1  0
 20 21  2  0
 20 24  1  0
 22 17  1  0
 22 23  1  0
 25 22  2  0
M  END
$$$$
