VIE.pdb
     RDKit          3D

 25 24  0  0  1  0  0  0  0  0999 V2000
   15.6155  -13.8644  -13.1216 C   0  0  0  0  0  0  0  0  0  0  0  0
   15.5286  -12.3256  -13.1263 C   0  0  2  0  0  0  0  0  0  0  0  0
   16.9528  -11.8643  -13.3341 C   0  0  0  0  0  0  0  0  0  0  0  0
   15.0732  -11.9473  -11.7414 C   0  0  2  0  0  0  0  0  0  0  0  0
   13.6978  -12.4854  -11.6194 N   0  0  0  0  0  0  0  0  0  0  0  0
   14.9691  -10.4973  -11.5029 C   0  0  0  0  0  0  0  0  0  0  0  0
   14.2286   -9.8013  -12.2681 O   0  0  0  0  0  0  0  0  0  0  0  0
   12.9076   -7.8839   -7.6577 C   0  0  0  0  0  0  0  0  0  0  0  0
   13.4310   -8.2418   -9.0324 C   0  0  0  0  0  0  0  0  0  0  0  0
   14.9231   -8.0161   -9.0008 C   0  0  2  0  0  0  0  0  0  0  0  0
   15.2506   -6.5785   -8.6897 C   0  0  0  0  0  0  0  0  0  0  0  0
   15.5662   -8.3380  -10.3602 C   0  0  2  0  0  0  0  0  0  0  0  0
   15.6263   -9.7659  -10.4745 N   0  0  0  0  0  0  0  0  0  0  0  0
   16.8652   -7.6465  -10.3908 C   0  0  0  0  0  0  0  0  0  0  0  0
   17.7696   -7.9033   -9.5186 O   0  0  0  0  0  0  0  0  0  0  0  0
   17.2624   -6.6617  -11.3358 N   0  0  0  0  0  0  0  0  0  0  0  0
   18.5743   -6.0532  -11.3575 C   0  0  1  0  0  0  0  0  0  0  0  0
   19.4181   -6.5039  -12.5210 C   0  0  0  0  0  0  0  0  0  0  0  0
   20.7265   -5.8089  -12.6470 C   0  0  0  0  0  0  0  0  0  0  0  0
   21.4273   -6.3857  -13.8322 C   0  0  0  0  0  0  0  0  0  0  0  0
   21.5837   -5.6539  -14.8415 O   0  0  0  0  0  0  0  0  0  0  0  0
   18.3946   -4.5925  -11.5153 C   0  0  0  0  0  0  0  0  0  0  0  0
   19.4208   -3.7510  -11.1359 O   0  0  0  0  0  0  0  0  0  0  0  0
   21.9113   -7.6666  -13.8870 O   0  0  0  0  0  0  0  0  0  0  0  0
   17.3420   -4.0917  -11.9821 O   0  0  0  0  0  0  0  0  0  0  0  0
  2  3  1  1
  2  1  1  0
  4  2  1  0
  4  5  1  6
  6  4  1  0
  7  6  2  0
  9  8  1  0
 10  9  1  0
 10 11  1  6
 12 10  1  0
 12 13  1  1
 13  6  1  0
 14 12  1  0
 15 14  2  0
 16 14  1  0
 17 16  1  0
 18 19  1  0
 17 18  1  6
 19 20  1  0
 20 21  2  0
 20 24  1  0
 22 17  1  0
 22 23  1  0
 25 22  2  0
M  END
$$$$
