VIE.pdb
     RDKit          3D

 25 24  0  0  1  0  0  0  0  0999 V2000
   23.3304  -19.5836   -9.6534 C   0  0  0  0  0  0  0  0  0  0  0  0
   24.0994  -20.9192   -9.6359 C   0  0  2  0  0  0  0  0  0  0  0  0
   24.2302  -21.2642   -8.1701 C   0  0  0  0  0  0  0  0  0  0  0  0
   25.4587  -20.6047  -10.2030 C   0  0  2  0  0  0  0  0  0  0  0  0
   26.0893  -19.6865   -9.2257 N   0  0  0  0  0  0  0  0  0  0  0  0
   25.4374  -19.8846  -11.4880 C   0  0  0  0  0  0  0  0  0  0  0  0
   25.2544  -18.6258  -11.4828 O   0  0  0  0  0  0  0  0  0  0  0  0
   29.0933  -20.0721  -15.1662 C   0  0  0  0  0  0  0  0  0  0  0  0
   27.9819  -19.6792  -14.2163 C   0  0  0  0  0  0  0  0  0  0  0  0
   26.6847  -20.0749  -14.8789 C   0  0  2  0  0  0  0  0  0  0  0  0
   26.4993  -19.3535  -16.1889 C   0  0  0  0  0  0  0  0  0  0  0  0
   25.4756  -19.7202  -13.9973 C   0  0  2  0  0  0  0  0  0  0  0  0
   25.6070  -20.4620  -12.7773 N   0  0  0  0  0  0  0  0  0  0  0  0
   24.2704  -20.0150  -14.7892 C   0  0  0  0  0  0  0  0  0  0  0  0
   23.9942  -21.2149  -15.1477 O   0  0  0  0  0  0  0  0  0  0  0  0
   23.3124  -19.0635  -15.2336 N   0  0  0  0  0  0  0  0  0  0  0  0
   22.0681  -19.4189  -15.8795 C   0  0  1  0  0  0  0  0  0  0  0  0
   21.1384  -18.2478  -16.0609 C   0  0  0  0  0  0  0  0  0  0  0  0
   19.8488  -18.5741  -16.7254 C   0  0  0  0  0  0  0  0  0  0  0  0
   18.7711  -18.4394  -15.7013 C   0  0  0  0  0  0  0  0  0  0  0  0
   19.0441  -17.8439  -14.6292 O   0  0  0  0  0  0  0  0  0  0  0  0
   22.3865  -19.9115  -17.2384 C   0  0  0  0  0  0  0  0  0  0  0  0
   21.6741  -20.9809  -17.7423 O   0  0  0  0  0  0  0  0  0  0  0  0
   17.4998  -18.9262  -15.8592 O   0  0  0  0  0  0  0  0  0  0  0  0
   23.2816  -19.3913  -17.9489 O   0  0  0  0  0  0  0  0  0  0  0  0
  2  3  1  1
  2  1  1  0
  4  2  1  0
  4  5  1  1
  6  4  1  0
  7  6  2  0
  9  8  1  0
 10  9  1  0
 10 11  1  6
 12 10  1  0
 12 13  1  1
 13  6  1  0
 14 12  1  0
 15 14  2  0
 16 14  1  0
 17 16  1  0
 18 19  1  0
 17 18  1  6
 19 20  1  0
 20 21  2  0
 20 24  1  0
 22 17  1  0
 22 23  1  0
 25 22  2  0
M  END
$$$$
