VIE.pdb
     RDKit          3D

 25 24  0  0  1  0  0  0  0  0999 V2000
   21.9590  -18.9387  -16.0533 C   0  0  0  0  0  0  0  0  0  0  0  0
   21.6859  -19.9207  -14.8972 C   0  0  2  0  0  0  0  0  0  0  0  0
   20.5799  -19.2703  -14.0983 C   0  0  0  0  0  0  0  0  0  0  0  0
   22.9522  -19.9399  -14.0821 C   0  0  2  0  0  0  0  0  0  0  0  0
   23.9755  -20.5543  -14.9605 N   0  0  0  0  0  0  0  0  0  0  0  0
   22.8925  -20.7787  -12.8726 C   0  0  0  0  0  0  0  0  0  0  0  0
   22.6486  -22.0208  -12.9990 O   0  0  0  0  0  0  0  0  0  0  0  0
   25.7448  -19.5495   -8.5955 C   0  0  0  0  0  0  0  0  0  0  0  0
   25.1151  -20.6199   -9.4613 C   0  0  0  0  0  0  0  0  0  0  0  0
   23.6274  -20.5590   -9.2131 C   0  0  2  0  0  0  0  0  0  0  0  0
   23.2476  -21.3406   -7.9820 C   0  0  0  0  0  0  0  0  0  0  0  0
   22.8395  -21.1627  -10.3877 C   0  0  2  0  0  0  0  0  0  0  0  0
   23.0866  -20.3375  -11.5339 N   0  0  0  0  0  0  0  0  0  0  0  0
   21.4337  -21.2446   -9.9596 C   0  0  0  0  0  0  0  0  0  0  0  0
   20.7080  -20.1908   -9.8735 O   0  0  0  0  0  0  0  0  0  0  0  0
   20.7385  -22.4332   -9.6063 N   0  0  0  0  0  0  0  0  0  0  0  0
   19.3259  -22.4757   -9.2991 C   0  0  1  0  0  0  0  0  0  0  0  0
   18.5517  -23.4066  -10.1952 C   0  0  0  0  0  0  0  0  0  0  0  0
   17.0991  -23.4980   -9.8912 C   0  0  0  0  0  0  0  0  0  0  0  0
   16.4937  -24.4398  -10.8787 C   0  0  0  0  0  0  0  0  0  0  0  0
   17.2533  -24.9899  -11.7147 O   0  0  0  0  0  0  0  0  0  0  0  0
   19.1760  -23.0021   -7.9239 C   0  0  0  0  0  0  0  0  0  0  0  0
   20.2760  -23.5542   -7.2992 O   0  0  0  0  0  0  0  0  0  0  0  0
   15.1579  -24.7416  -10.9293 O   0  0  0  0  0  0  0  0  0  0  0  0
   18.0839  -22.9642   -7.3054 O   0  0  0  0  0  0  0  0  0  0  0  0
  2  3  1  1
  2  1  1  0
  4  2  1  0
  4  5  1  6
  6  4  1  0
  7  6  2  0
  9  8  1  0
 10  9  1  0
 10 11  1  1
 12 10  1  0
 12 13  1  6
 13  6  1  0
 14 12  1  0
 15 14  2  0
 16 14  1  0
 17 16  1  0
 18 19  1  0
 17 18  1  6
 19 20  1  0
 20 21  2  0
 20 24  1  0
 22 17  1  0
 22 23  1  0
 25 22  2  0
M  END
$$$$
