SSC.pdb
     RDKit          3D

 19 18  0  0  1  0  0  0  0  0999 V2000
   14.2429  -10.5741  -14.1441 O   0  0  0  0  0  0  0  0  0  0  0  0
   14.7661   -9.3542  -14.6240 C   0  0  0  0  0  0  0  0  0  0  0  0
   15.8903   -9.6872  -15.5632 C   0  0  2  0  0  0  0  0  0  0  0  0
   16.6782  -10.7813  -15.0568 N   0  0  0  0  0  0  0  0  0  0  0  0
   16.7713   -8.5077  -15.7389 C   0  0  0  0  0  0  0  0  0  0  0  0
   18.0084   -8.6532  -15.9353 O   0  0  0  0  0  0  0  0  0  0  0  0
   15.3629   -4.7777  -14.9107 O   0  0  0  0  0  0  0  0  0  0  0  0
   16.1567   -4.8397  -16.0541 C   0  0  0  0  0  0  0  0  0  0  0  0
   17.0863   -6.0517  -15.9674 C   0  0  2  0  0  0  0  0  0  0  0  0
   16.2707   -7.1926  -15.6944 N   0  0  0  0  0  0  0  0  0  0  0  0
   18.1585   -5.8420  -14.9875 C   0  0  0  0  0  0  0  0  0  0  0  0
   17.9601   -6.1926  -13.7957 O   0  0  0  0  0  0  0  0  0  0  0  0
   19.4151   -5.2667  -15.2903 N   0  0  0  0  0  0  0  0  0  0  0  0
   20.4522   -5.1377  -14.3276 C   0  0  1  0  0  0  0  0  0  0  0  0
   21.4549   -6.2602  -14.3450 C   0  0  0  0  0  0  0  0  0  0  0  0
   22.8515   -5.9779  -13.2612 S   0  0  0  0  0  0  0  0  0  0  0  0
   21.1619   -3.8407  -14.4944 C   0  0  0  0  0  0  0  0  0  0  0  0
   21.9315   -3.2889  -13.4839 O   0  0  0  0  0  0  0  0  0  0  0  0
   21.0659   -3.2183  -15.5837 O   0  0  0  0  0  0  0  0  0  0  0  0
  2  1  1  0
  3  4  1  1
  3  2  1  0
  5  3  1  0
  6  5  2  0
  7  8  1  0
  9  8  1  1
  9 11  1  0
  9 10  1  0
 10  5  1  0
 11 12  2  0
 13 14  1  0
 13 11  1  0
 14 15  1  6
 15 16  1  0
 17 14  1  0
 18 17  1  0
 19 17  2  0
M  END
$$$$
