SSC.pdb
     RDKit          3D

 19 18  0  0  1  0  0  0  0  0999 V2000
   16.9793  -11.8922  -14.0029 O   0  0  0  0  0  0  0  0  0  0  0  0
   18.0892  -11.0854  -14.3341 C   0  0  0  0  0  0  0  0  0  0  0  0
   17.9870  -10.7614  -15.7975 C   0  0  2  0  0  0  0  0  0  0  0  0
   18.5140  -11.8342  -16.6011 N   0  0  0  0  0  0  0  0  0  0  0  0
   18.7471   -9.5243  -16.0978 C   0  0  0  0  0  0  0  0  0  0  0  0
   19.9276   -9.5860  -16.5367 O   0  0  0  0  0  0  0  0  0  0  0  0
   17.1108   -5.8164  -15.2315 O   0  0  0  0  0  0  0  0  0  0  0  0
   17.8415   -5.9422  -16.4113 C   0  0  0  0  0  0  0  0  0  0  0  0
   18.8882   -7.0464  -16.2504 C   0  0  2  0  0  0  0  0  0  0  0  0
   18.1903   -8.2452  -15.9081 N   0  0  0  0  0  0  0  0  0  0  0  0
   19.9275   -6.6700  -15.2850 C   0  0  0  0  0  0  0  0  0  0  0  0
   19.7304   -6.9101  -14.0659 O   0  0  0  0  0  0  0  0  0  0  0  0
   21.1506   -6.0487  -15.6309 N   0  0  0  0  0  0  0  0  0  0  0  0
   22.1397   -5.7117  -14.6678 C   0  0  1  0  0  0  0  0  0  0  0  0
   23.5345   -5.6094  -15.2241 C   0  0  0  0  0  0  0  0  0  0  0  0
   24.1103   -7.1298  -15.9735 S   0  0  0  0  0  0  0  0  0  0  0  0
   21.7886   -4.4393  -13.9812 C   0  0  0  0  0  0  0  0  0  0  0  0
   22.2387   -4.1444  -12.7052 O   0  0  0  0  0  0  0  0  0  0  0  0
   21.0605   -3.5988  -14.5701 O   0  0  0  0  0  0  0  0  0  0  0  0
  2  1  1  0
  3  4  1  6
  3  2  1  0
  5  3  1  0
  6  5  2  0
  7  8  1  0
  9  8  1  1
  9 11  1  0
  9 10  1  0
 10  5  1  0
 11 12  2  0
 13 14  1  0
 13 11  1  0
 14 15  1  6
 15 16  1  0
 17 14  1  0
 18 17  1  0
 19 17  2  0
M  END
$$$$
