SSC.pdb
     RDKit          3D

 19 18  0  0  1  0  0  0  0  0999 V2000
   14.4304  -10.8400  -13.7829 O   0  0  0  0  0  0  0  0  0  0  0  0
   15.7638  -10.3779  -13.8123 C   0  0  0  0  0  0  0  0  0  0  0  0
   16.4078  -10.9459  -15.0450 C   0  0  2  0  0  0  0  0  0  0  0  0
   16.7475  -12.3328  -14.8569 N   0  0  0  0  0  0  0  0  0  0  0  0
   17.6441  -10.1925  -15.3649 C   0  0  0  0  0  0  0  0  0  0  0  0
   18.7490  -10.5249  -14.8563 O   0  0  0  0  0  0  0  0  0  0  0  0
   17.4625   -6.8103  -17.7784 O   0  0  0  0  0  0  0  0  0  0  0  0
   18.5789   -7.6380  -17.8779 C   0  0  0  0  0  0  0  0  0  0  0  0
   18.8164   -8.3408  -16.5399 C   0  0  2  0  0  0  0  0  0  0  0  0
   17.6368   -9.0886  -16.2387 N   0  0  0  0  0  0  0  0  0  0  0  0
   19.1990   -7.3897  -15.4896 C   0  0  0  0  0  0  0  0  0  0  0  0
   18.2976   -6.9154  -14.7513 O   0  0  0  0  0  0  0  0  0  0  0  0
   20.5253   -6.9625  -15.2446 N   0  0  0  0  0  0  0  0  0  0  0  0
   20.8545   -6.0259  -14.2278 C   0  0  1  0  0  0  0  0  0  0  0  0
   22.1993   -6.2522  -13.5909 C   0  0  0  0  0  0  0  0  0  0  0  0
   22.5740   -5.0772  -12.2932 S   0  0  0  0  0  0  0  0  0  0  0  0
   20.7867   -4.6364  -14.7553 C   0  0  0  0  0  0  0  0  0  0  0  0
   20.3127   -3.5827  -13.9917 O   0  0  0  0  0  0  0  0  0  0  0  0
   21.1697   -4.4012  -15.9306 O   0  0  0  0  0  0  0  0  0  0  0  0
  2  1  1  0
  3  4  1  1
  3  2  1  0
  5  3  1  0
  6  5  2  0
  7  8  1  0
  9  8  1  6
  9 11  1  0
  9 10  1  0
 10  5  1  0
 11 12  2  0
 13 14  1  0
 13 11  1  0
 14 15  1  6
 15 16  1  0
 17 14  1  0
 18 17  1  0
 19 17  2  0
M  END
$$$$
