SSC.pdb
     RDKit          3D

 19 18  0  0  1  0  0  0  0  0999 V2000
   21.9810  -14.2684  -17.2247 O   0  0  0  0  0  0  0  0  0  0  0  0
   21.5016  -13.0059  -17.6355 C   0  0  0  0  0  0  0  0  0  0  0  0
   20.4062  -12.6118  -16.6859 C   0  0  2  0  0  0  0  0  0  0  0  0
   19.2009  -13.3538  -16.9525 N   0  0  0  0  0  0  0  0  0  0  0  0
   20.1136  -11.1646  -16.8208 C   0  0  0  0  0  0  0  0  0  0  0  0
   19.8604  -10.6626  -17.9495 O   0  0  0  0  0  0  0  0  0  0  0  0
   18.3332   -7.1811  -15.3229 O   0  0  0  0  0  0  0  0  0  0  0  0
   18.5676   -8.5502  -15.2127 C   0  0  0  0  0  0  0  0  0  0  0  0
   19.9232   -8.8895  -15.8354 C   0  0  2  0  0  0  0  0  0  0  0  0
   20.1062  -10.3008  -15.7090 N   0  0  0  0  0  0  0  0  0  0  0  0
   21.0054   -8.0964  -15.2406 C   0  0  0  0  0  0  0  0  0  0  0  0
   21.5246   -8.4980  -14.1673 O   0  0  0  0  0  0  0  0  0  0  0  0
   21.5134   -6.8976  -15.7943 N   0  0  0  0  0  0  0  0  0  0  0  0
   22.5761   -6.1666  -15.1979 C   0  0  1  0  0  0  0  0  0  0  0  0
   23.4838   -5.4807  -16.1834 C   0  0  0  0  0  0  0  0  0  0  0  0
   24.5285   -6.6159  -17.0915 S   0  0  0  0  0  0  0  0  0  0  0  0
   22.0452   -5.1633  -14.2361 C   0  0  0  0  0  0  0  0  0  0  0  0
   22.8264   -4.6298  -13.2247 O   0  0  0  0  0  0  0  0  0  0  0  0
   20.8504   -4.7815  -14.3366 O   0  0  0  0  0  0  0  0  0  0  0  0
  2  1  1  0
  3  4  1  6
  3  2  1  0
  5  3  1  0
  6  5  2  0
  7  8  1  0
  9  8  1  1
  9 11  1  0
  9 10  1  0
 10  5  1  0
 11 12  2  0
 13 14  1  0
 13 11  1  0
 14 15  1  6
 15 16  1  0
 17 14  1  0
 18 17  1  0
 19 17  2  0
M  END
$$$$
