FHR.pdb
     RDKit          3D

 33 34  0  0  1  0  0  0  0  0999 V2000
    6.1197  -16.7337   24.8332 N   0  0  0  0  0  0  0  0  0  0  0  0
    7.0152  -15.6473   24.5581 C   0  0  1  0  0  0  0  0  0  0  0  0
    7.7192  -15.2325   25.8298 C   0  0  0  0  0  0  0  0  0  0  0  0
    7.2127  -13.9482   26.3478 C   0  0  0  0  0  0  0  0  0  0  0  0
    6.1704  -13.2895   25.7687 C   0  0  0  0  0  0  0  0  0  0  0  0
    5.7290  -12.0784   26.2958 C   0  0  0  0  0  0  0  0  0  0  0  0
    6.3223  -11.5141   27.4036 C   0  0  0  0  0  0  0  0  0  0  0  0
    7.3759  -12.1862   27.9838 C   0  0  0  0  0  0  0  0  0  0  0  0
    7.8228  -13.3903   27.4684 C   0  0  0  0  0  0  0  0  0  0  0  0
    8.0651  -16.1382   23.5941 C   0  0  0  0  0  0  0  0  0  0  0  0
    8.2757  -17.3682   23.4511 O   0  0  0  0  0  0  0  0  0  0  0  0
    8.8355  -15.2233   22.8293 N   0  0  0  0  0  0  0  0  0  0  0  0
   10.0034  -15.5465   22.0538 C   0  0  1  0  0  0  0  0  0  0  0  0
   10.2899  -14.5984   20.9453 C   0  0  0  0  0  0  0  0  0  0  0  0
    9.2645  -14.6080   19.8827 C   0  0  0  0  0  0  0  0  0  0  0  0
    8.1750  -15.4323   19.7357 C   0  0  0  0  0  0  0  0  0  0  0  0
    7.4980  -15.0809   18.6023 N   0  0  0  0  0  0  0  0  0  0  0  0
    8.1761  -14.0367   18.0527 C   0  0  0  0  0  0  0  0  0  0  0  0
    9.2378  -13.7669   18.8399 N   0  0  0  0  0  0  0  0  0  0  0  0
   11.1833  -15.9579   22.8522 C   0  0  0  0  0  0  0  0  0  0  0  0
   11.7619  -15.1191   23.5749 O   0  0  0  0  0  0  0  0  0  0  0  0
   10.6965  -20.2798   29.9106 N   0  0  0  0  0  0  0  0  0  0  0  0
   11.6939  -20.4404   28.9189 C   0  0  0  0  0  0  0  0  0  0  0  0
   12.8093  -21.0130   29.2120 N   0  0  0  0  0  0  0  0  0  0  0  0
   11.5097  -19.9868   27.5852 N   0  0  0  0  0  0  0  0  0  0  0  0
   12.2225  -20.5501   26.4616 C   0  0  0  0  0  0  0  0  0  0  0  0
   12.9014  -19.4794   25.6463 C   0  0  0  0  0  0  0  0  0  0  0  0
   12.0032  -18.8054   24.6762 C   0  0  0  0  0  0  0  0  0  0  0  0
   12.6590  -17.7093   23.8685 C   0  0  2  0  0  0  0  0  0  0  0  0
   11.7097  -17.2668   22.8502 N   0  0  0  0  0  0  0  0  0  0  0  0
   13.8421  -18.2117   23.1552 C   0  0  0  0  0  0  0  0  0  0  0  0
   13.8783  -18.3448   21.7842 O   0  0  0  0  0  0  0  0  0  0  0  0
   14.8576  -18.5327   23.8053 O   0  0  0  0  0  0  0  0  0  0  0  0
  2  1  1  1
  2 10  1  0
  2  3  1  0
  4  3  1  0
  4  5  2  0
  6  5  1  0
  7  6  2  0
  8  9  2  0
  8  7  1  0
  9  4  1  0
 10 11  2  0
 12 13  1  0
 12 10  1  0
 13 14  1  1
 15 14  1  0
 16 15  2  0
 17 16  1  0
 18 17  1  0
 18 19  2  0
 19 15  1  0
 20 30  1  0
 20 13  1  0
 21 20  2  0
 23 24  2  0
 23 22  1  0
 25 23  1  0
 26 25  1  0
 26 27  1  0
 27 28  1  0
 29 30  1  0
 29 28  1  6
 31 32  1  0
 31 29  1  0
 33 31  2  0
M  END
$$$$
