FHR.pdb
     RDKit          3D

 33 34  0  0  1  0  0  0  0  0999 V2000
    6.5011  -17.2975   24.8118 N   0  0  0  0  0  0  0  0  0  0  0  0
    6.3590  -16.5482   23.5968 C   0  0  1  0  0  0  0  0  0  0  0  0
    5.7239  -15.2093   23.8948 C   0  0  0  0  0  0  0  0  0  0  0  0
    6.5298  -14.4136   24.8391 C   0  0  0  0  0  0  0  0  0  0  0  0
    7.2328  -13.3137   24.4494 C   0  0  0  0  0  0  0  0  0  0  0  0
    7.9796  -12.5954   25.3799 C   0  0  0  0  0  0  0  0  0  0  0  0
    8.0319  -12.9669   26.7053 C   0  0  0  0  0  0  0  0  0  0  0  0
    7.3183  -14.0804   27.0918 C   0  0  0  0  0  0  0  0  0  0  0  0
    6.5729  -14.8017   26.1757 C   0  0  0  0  0  0  0  0  0  0  0  0
    7.7368  -16.2872   23.0434 C   0  0  0  0  0  0  0  0  0  0  0  0
    8.7085  -17.0067   23.3838 O   0  0  0  0  0  0  0  0  0  0  0  0
    7.9646  -15.2259   22.1285 N   0  0  0  0  0  0  0  0  0  0  0  0
    9.1720  -15.0035   21.3786 C   0  0  1  0  0  0  0  0  0  0  0  0
    9.1608  -13.7755   20.5408 C   0  0  0  0  0  0  0  0  0  0  0  0
    8.8277  -14.0317   19.1252 C   0  0  0  0  0  0  0  0  0  0  0  0
    8.5927  -15.2283   18.4919 C   0  0  0  0  0  0  0  0  0  0  0  0
    8.3206  -14.9912   17.1743 N   0  0  0  0  0  0  0  0  0  0  0  0
    8.3894  -13.6432   16.9999 C   0  0  0  0  0  0  0  0  0  0  0  0
    8.6962  -13.0830   18.1880 N   0  0  0  0  0  0  0  0  0  0  0  0
   10.4246  -15.2380   22.1366 C   0  0  0  0  0  0  0  0  0  0  0  0
   11.1127  -14.2634   22.5075 O   0  0  0  0  0  0  0  0  0  0  0  0
    9.8938  -16.1090   29.3275 N   0  0  0  0  0  0  0  0  0  0  0  0
   11.3054  -16.0990   29.4341 C   0  0  0  0  0  0  0  0  0  0  0  0
   11.8657  -16.1590   30.5919 N   0  0  0  0  0  0  0  0  0  0  0  0
   12.1464  -16.0249   28.2916 N   0  0  0  0  0  0  0  0  0  0  0  0
   11.6665  -15.6151   26.9918 C   0  0  0  0  0  0  0  0  0  0  0  0
   11.0982  -16.7793   26.2214 C   0  0  0  0  0  0  0  0  0  0  0  0
   10.6202  -16.4224   24.8627 C   0  0  0  0  0  0  0  0  0  0  0  0
   11.5777  -16.7725   23.7470 C   0  0  2  0  0  0  0  0  0  0  0  0
   10.9037  -16.5209   22.4757 N   0  0  0  0  0  0  0  0  0  0  0  0
   11.9187  -18.2022   23.7703 C   0  0  0  0  0  0  0  0  0  0  0  0
   12.9760  -18.6988   24.5014 O   0  0  0  0  0  0  0  0  0  0  0  0
   11.2321  -19.0057   23.1071 O   0  0  0  0  0  0  0  0  0  0  0  0
  2  1  1  1
  2 10  1  0
  2  3  1  0
  4  3  1  0
  4  5  2  0
  6  5  1  0
  7  6  2  0
  8  9  2  0
  8  7  1  0
  9  4  1  0
 10 11  2  0
 12 13  1  0
 12 10  1  0
 13 14  1  1
 15 14  1  0
 16 15  2  0
 17 16  1  0
 18 17  1  0
 18 19  2  0
 19 15  1  0
 20 30  1  0
 20 13  1  0
 21 20  2  0
 23 24  2  0
 23 22  1  0
 25 23  1  0
 26 25  1  0
 26 27  1  0
 27 28  1  0
 29 30  1  0
 29 28  1  1
 31 32  1  0
 31 29  1  0
 33 31  2  0
M  END
$$$$
