FHR.pdb
     RDKit          3D

 33 34  0  0  1  0  0  0  0  0999 V2000
    9.9268  -15.9114   20.2675 N   0  0  0  0  0  0  0  0  0  0  0  0
    9.7652  -15.4983   21.6317 C   0  0  1  0  0  0  0  0  0  0  0  0
    8.3252  -15.1115   21.8801 C   0  0  0  0  0  0  0  0  0  0  0  0
    7.8536  -14.0938   20.9228 C   0  0  0  0  0  0  0  0  0  0  0  0
    8.3512  -12.8258   20.9039 C   0  0  0  0  0  0  0  0  0  0  0  0
    7.8724  -11.9005   19.9798 C   0  0  0  0  0  0  0  0  0  0  0  0
    6.8946  -12.2309   19.0676 C   0  0  0  0  0  0  0  0  0  0  0  0
    6.3963  -13.5152   19.0928 C   0  0  0  0  0  0  0  0  0  0  0  0
    6.8647  -14.4429   20.0068 C   0  0  0  0  0  0  0  0  0  0  0  0
   10.0813  -16.6758   22.5184 C   0  0  0  0  0  0  0  0  0  0  0  0
    9.7582  -16.6660   23.7322 O   0  0  0  0  0  0  0  0  0  0  0  0
   10.7487  -17.8173   22.0019 N   0  0  0  0  0  0  0  0  0  0  0  0
   11.0853  -19.0042   22.7420 C   0  0  1  0  0  0  0  0  0  0  0  0
   11.5495  -20.1421   21.9056 C   0  0  0  0  0  0  0  0  0  0  0  0
   11.7865  -21.3800   22.6751 C   0  0  0  0  0  0  0  0  0  0  0  0
   10.8749  -22.2312   23.2518 C   0  0  0  0  0  0  0  0  0  0  0  0
   11.5428  -23.2525   23.8660 N   0  0  0  0  0  0  0  0  0  0  0  0
   12.8695  -23.0257   23.6644 C   0  0  0  0  0  0  0  0  0  0  0  0
   12.9952  -21.8920   22.9443 N   0  0  0  0  0  0  0  0  0  0  0  0
   11.8753  -18.7637   23.9735 C   0  0  0  0  0  0  0  0  0  0  0  0
   12.9902  -18.2059   23.8920 O   0  0  0  0  0  0  0  0  0  0  0  0
   13.0119  -21.5411   30.7534 N   0  0  0  0  0  0  0  0  0  0  0  0
   12.8721  -20.4626   31.6597 C   0  0  0  0  0  0  0  0  0  0  0  0
   13.5049  -20.4757   32.7810 N   0  0  0  0  0  0  0  0  0  0  0  0
   12.0457  -19.3425   31.3757 N   0  0  0  0  0  0  0  0  0  0  0  0
   11.2702  -19.2299   30.1618 C   0  0  0  0  0  0  0  0  0  0  0  0
   12.1562  -19.1908   28.9429 C   0  0  0  0  0  0  0  0  0  0  0  0
   11.4141  -19.0318   27.6678 C   0  0  0  0  0  0  0  0  0  0  0  0
   12.2883  -18.9395   26.4385 C   0  0  2  0  0  0  0  0  0  0  0  0
   11.4410  -19.1321   25.2643 N   0  0  0  0  0  0  0  0  0  0  0  0
   13.2907  -20.0146   26.4189 C   0  0  0  0  0  0  0  0  0  0  0  0
   13.0196  -21.2698   25.9191 O   0  0  0  0  0  0  0  0  0  0  0  0
   14.4333  -19.7939   26.8689 O   0  0  0  0  0  0  0  0  0  0  0  0
  2  1  1  6
  2 10  1  0
  2  3  1  0
  4  3  1  0
  4  5  2  0
  6  5  1  0
  7  6  2  0
  8  9  2  0
  8  7  1  0
  9  4  1  0
 10 11  2  0
 12 13  1  0
 12 10  1  0
 13 14  1  6
 15 14  1  0
 16 15  2  0
 17 16  1  0
 18 17  1  0
 18 19  2  0
 19 15  1  0
 20 30  1  0
 20 13  1  0
 21 20  2  0
 23 24  2  0
 23 22  1  0
 25 23  1  0
 26 25  1  0
 26 27  1  0
 27 28  1  0
 29 30  1  0
 29 28  1  1
 31 32  1  0
 31 29  1  0
 33 31  2  0
M  END
$$$$
