FHR.pdb
     RDKit          3D

 33 34  0  0  1  0  0  0  0  0999 V2000
    7.0650  -12.9643   23.1617 N   0  0  0  0  0  0  0  0  0  0  0  0
    7.4423  -14.2642   22.6867 C   0  0  1  0  0  0  0  0  0  0  0  0
    8.5276  -14.1303   21.6431 C   0  0  0  0  0  0  0  0  0  0  0  0
    8.0170  -13.5527   20.3861 C   0  0  0  0  0  0  0  0  0  0  0  0
    8.3649  -12.3051   19.9637 C   0  0  0  0  0  0  0  0  0  0  0  0
    7.8552  -11.8042   18.7684 C   0  0  0  0  0  0  0  0  0  0  0  0
    6.9953  -12.5417   17.9848 C   0  0  0  0  0  0  0  0  0  0  0  0
    6.6481  -13.8026   18.4185 C   0  0  0  0  0  0  0  0  0  0  0  0
    7.1485  -14.3104   19.6047 C   0  0  0  0  0  0  0  0  0  0  0  0
    8.0163  -15.0383   23.8460 C   0  0  0  0  0  0  0  0  0  0  0  0
    8.9153  -14.5370   24.5659 O   0  0  0  0  0  0  0  0  0  0  0  0
    7.5542  -16.3462   24.1478 N   0  0  0  0  0  0  0  0  0  0  0  0
    8.1044  -17.2260   25.1443 C   0  0  1  0  0  0  0  0  0  0  0  0
    7.0954  -17.8580   26.0344 C   0  0  0  0  0  0  0  0  0  0  0  0
    7.6717  -18.8442   26.9704 C   0  0  0  0  0  0  0  0  0  0  0  0
    8.3495  -18.6311   28.1466 C   0  0  0  0  0  0  0  0  0  0  0  0
    8.7013  -19.8365   28.6847 N   0  0  0  0  0  0  0  0  0  0  0  0
    8.2369  -20.7921   27.8342 C   0  0  0  0  0  0  0  0  0  0  0  0
    7.6191  -20.1732   26.8071 N   0  0  0  0  0  0  0  0  0  0  0  0
    9.1665  -18.1351   24.6501 C   0  0  0  0  0  0  0  0  0  0  0  0
    8.9019  -18.9618   23.7515 O   0  0  0  0  0  0  0  0  0  0  0  0
   11.6922  -14.3871   19.1761 N   0  0  0  0  0  0  0  0  0  0  0  0
   12.4670  -15.0343   20.1684 C   0  0  0  0  0  0  0  0  0  0  0  0
   13.6208  -14.5647   20.4946 N   0  0  0  0  0  0  0  0  0  0  0  0
   12.0133  -16.2046   20.8338 N   0  0  0  0  0  0  0  0  0  0  0  0
   12.6467  -16.7234   22.0243 C   0  0  0  0  0  0  0  0  0  0  0  0
   11.9240  -17.9376   22.5492 C   0  0  0  0  0  0  0  0  0  0  0  0
   12.4768  -18.4591   23.8238 C   0  0  0  0  0  0  0  0  0  0  0  0
   11.4634  -19.1336   24.7195 C   0  0  2  0  0  0  0  0  0  0  0  0
   10.4897  -18.1288   25.1393 N   0  0  0  0  0  0  0  0  0  0  0  0
   12.0963  -19.6477   25.9427 C   0  0  0  0  0  0  0  0  0  0  0  0
   12.7193  -20.8758   25.9933 O   0  0  0  0  0  0  0  0  0  0  0  0
   12.0749  -18.9548   26.9801 O   0  0  0  0  0  0  0  0  0  0  0  0
  2  1  1  1
  2 10  1  0
  2  3  1  0
  4  3  1  0
  4  5  2  0
  6  5  1  0
  7  6  2  0
  8  9  2  0
  8  7  1  0
  9  4  1  0
 10 11  2  0
 12 13  1  0
 12 10  1  0
 13 14  1  6
 15 14  1  0
 16 15  2  0
 17 16  1  0
 18 17  1  0
 18 19  2  0
 19 15  1  0
 20 30  1  0
 20 13  1  0
 21 20  2  0
 23 24  2  0
 23 22  1  0
 25 23  1  0
 26 25  1  0
 26 27  1  0
 27 28  1  0
 29 30  1  0
 29 28  1  6
 31 32  1  0
 31 29  1  0
 33 31  2  0
M  END
$$$$
