MIS.pdb
     RDKit          3D

 23 22  0  0  1  0  0  0  0  0999 V2000
   28.2224  -18.6000   -6.4296 C   0  0  0  0  0  0  0  0  0  0  0  0
   26.5637  -19.2859   -6.6409 S   0  0  0  0  0  0  0  0  0  0  0  0
   26.6861  -20.6006   -7.9056 C   0  0  0  0  0  0  0  0  0  0  0  0
   26.2767  -20.0543   -9.2673 C   0  0  0  0  0  0  0  0  0  0  0  0
   26.4093  -21.1736  -10.2778 C   0  0  2  0  0  0  0  0  0  0  0  0
   27.8003  -21.5600  -10.4155 N   0  0  0  0  0  0  0  0  0  0  0  0
   25.8959  -20.7735  -11.6109 C   0  0  0  0  0  0  0  0  0  0  0  0
   26.5899  -20.0439  -12.3603 O   0  0  0  0  0  0  0  0  0  0  0  0
   25.6431  -23.9637  -15.3110 C   0  0  0  0  0  0  0  0  0  0  0  0
   25.7835  -22.6434  -14.5151 C   0  0  0  0  0  0  0  0  0  0  0  0
   24.3601  -22.1974  -14.3042 C   0  0  2  0  0  0  0  0  0  0  0  0
   23.7860  -21.9869  -15.6986 C   0  0  0  0  0  0  0  0  0  0  0  0
   24.1987  -20.9411  -13.4921 C   0  0  2  0  0  0  0  0  0  0  0  0
   24.6320  -21.1743  -12.1096 N   0  0  0  0  0  0  0  0  0  0  0  0
   22.8389  -20.3948  -13.4505 C   0  0  0  0  0  0  0  0  0  0  0  0
   21.9451  -20.9151  -12.6960 O   0  0  0  0  0  0  0  0  0  0  0  0
   21.9248  -17.8609  -16.1449 O   0  0  0  0  0  0  0  0  0  0  0  0
   21.0160  -17.5911  -15.1175 C   0  0  0  0  0  0  0  0  0  0  0  0
   21.0199  -18.8405  -14.2230 C   0  0  2  0  0  0  0  0  0  0  0  0
   22.4228  -19.2837  -14.2122 N   0  0  0  0  0  0  0  0  0  0  0  0
   20.1339  -19.8780  -14.7420 C   0  0  0  0  0  0  0  0  0  0  0  0
   20.6097  -20.8107  -15.6377 O   0  0  0  0  0  0  0  0  0  0  0  0
   18.9381  -19.9312  -14.3809 O   0  0  0  0  0  0  0  0  0  0  0  0
  1  2  1  0
  2  3  1  0
  4  3  1  0
  5  4  1  0
  5  6  1  6
  7  5  1  0
  7  8  2  0
  9 10  1  0
 10 11  1  0
 11 13  1  0
 11 12  1  6
 13 14  1  1
 14  7  1  0
 15 13  1  0
 16 15  2  0
 18 17  1  0
 19 18  1  6
 19 20  1  0
 20 15  1  0
 21 19  1  0
 22 21  1  0
 23 21  2  0
M  END
$$$$
