MIS.pdb
     RDKit          3D

 23 22  0  0  1  0  0  0  0  0999 V2000
   23.3107  -19.1695  -14.4091 C   0  0  0  0  0  0  0  0  0  0  0  0
   21.7412  -19.2321  -15.3031 S   0  0  0  0  0  0  0  0  0  0  0  0
   21.6311  -17.7018  -16.2975 C   0  0  0  0  0  0  0  0  0  0  0  0
   22.1399  -16.5159  -15.4879 C   0  0  0  0  0  0  0  0  0  0  0  0
   22.0967  -15.2915  -16.3770 C   0  0  2  0  0  0  0  0  0  0  0  0
   22.9200  -15.4988  -17.5527 N   0  0  0  0  0  0  0  0  0  0  0  0
   22.5807  -14.0813  -15.6687 C   0  0  0  0  0  0  0  0  0  0  0  0
   22.0829  -13.7572  -14.5629 O   0  0  0  0  0  0  0  0  0  0  0  0
   27.8338  -12.7377  -15.5674 C   0  0  0  0  0  0  0  0  0  0  0  0
   26.4021  -13.0174  -15.0495 C   0  0  0  0  0  0  0  0  0  0  0  0
   25.5776  -11.9124  -15.6564 C   0  0  2  0  0  0  0  0  0  0  0  0
   26.0631  -10.6291  -14.9961 C   0  0  0  0  0  0  0  0  0  0  0  0
   24.0908  -12.0496  -15.4704 C   0  0  2  0  0  0  0  0  0  0  0  0
   23.6013  -13.2397  -16.1756 N   0  0  0  0  0  0  0  0  0  0  0  0
   23.2967  -10.9025  -15.9206 C   0  0  0  0  0  0  0  0  0  0  0  0
   23.1647  -10.6440  -17.1674 O   0  0  0  0  0  0  0  0  0  0  0  0
   19.9687   -7.6260  -14.8778 O   0  0  0  0  0  0  0  0  0  0  0  0
   20.6865   -8.7641  -14.4989 C   0  0  0  0  0  0  0  0  0  0  0  0
   21.8040   -8.9148  -15.5428 C   0  0  2  0  0  0  0  0  0  0  0  0
   22.6319  -10.0229  -15.0416 N   0  0  0  0  0  0  0  0  0  0  0  0
   22.5801   -7.6865  -15.6830 C   0  0  0  0  0  0  0  0  0  0  0  0
   22.2294   -6.7500  -16.6308 O   0  0  0  0  0  0  0  0  0  0  0  0
   23.5679   -7.4718  -14.9471 O   0  0  0  0  0  0  0  0  0  0  0  0
  1  2  1  0
  2  3  1  0
  4  3  1  0
  5  4  1  0
  5  6  1  6
  7  5  1  0
  7  8  2  0
  9 10  1  0
 10 11  1  0
 11 13  1  0
 11 12  1  1
 13 14  1  6
 14  7  1  0
 15 13  1  0
 16 15  2  0
 18 17  1  0
 19 18  1  1
 19 20  1  0
 20 15  1  0
 21 19  1  0
 22 21  1  0
 23 21  2  0
M  END
$$$$
