MIS.pdb
     RDKit          3D

 23 22  0  0  1  0  0  0  0  0999 V2000
   23.1852  -12.7345  -19.6776 C   0  0  0  0  0  0  0  0  0  0  0  0
   24.8031  -12.4379  -20.4266 S   0  0  0  0  0  0  0  0  0  0  0  0
   25.1837  -10.6651  -20.1919 C   0  0  0  0  0  0  0  0  0  0  0  0
   24.7592  -10.2204  -18.7982 C   0  0  0  0  0  0  0  0  0  0  0  0
   25.0201   -8.7337  -18.6835 C   0  0  2  0  0  0  0  0  0  0  0  0
   26.4462   -8.4812  -18.6088 N   0  0  0  0  0  0  0  0  0  0  0  0
   24.3741   -8.1541  -17.4804 C   0  0  0  0  0  0  0  0  0  0  0  0
   25.0347   -7.9962  -16.4248 O   0  0  0  0  0  0  0  0  0  0  0  0
   23.5676   -3.8306  -14.6860 C   0  0  0  0  0  0  0  0  0  0  0  0
   22.5784   -5.0123  -14.8315 C   0  0  0  0  0  0  0  0  0  0  0  0
   23.1302   -5.8030  -15.9890 C   0  0  2  0  0  0  0  0  0  0  0  0
   23.0576   -4.8727  -17.1922 C   0  0  0  0  0  0  0  0  0  0  0  0
   22.4019   -7.0843  -16.2915 C   0  0  2  0  0  0  0  0  0  0  0  0
   23.0156   -7.7542  -17.4439 N   0  0  0  0  0  0  0  0  0  0  0  0
   20.9695   -6.9382  -16.5674 C   0  0  0  0  0  0  0  0  0  0  0  0
   20.5620   -6.3629  -17.6359 O   0  0  0  0  0  0  0  0  0  0  0  0
   16.4928   -8.3360  -15.5822 O   0  0  0  0  0  0  0  0  0  0  0  0
   17.8584   -8.4569  -15.3087 C   0  0  0  0  0  0  0  0  0  0  0  0
   18.5341   -7.2961  -16.0551 C   0  0  2  0  0  0  0  0  0  0  0  0
   19.9586   -7.4101  -15.7052 N   0  0  0  0  0  0  0  0  0  0  0  0
   17.9852   -6.0046  -15.6536 C   0  0  0  0  0  0  0  0  0  0  0  0
   17.0043   -5.4030  -16.4116 O   0  0  0  0  0  0  0  0  0  0  0  0
   18.3975   -5.4323  -14.6212 O   0  0  0  0  0  0  0  0  0  0  0  0
  1  2  1  0
  2  3  1  0
  4  3  1  0
  5  4  1  0
  5  6  1  1
  7  5  1  0
  7  8  2  0
  9 10  1  0
 10 11  1  0
 11 13  1  0
 11 12  1  6
 13 14  1  6
 14  7  1  0
 15 13  1  0
 16 15  2  0
 18 17  1  0
 19 18  1  1
 19 20  1  0
 20 15  1  0
 21 19  1  0
 22 21  1  0
 23 21  2  0
M  END
$$$$
