MIS.pdb
     RDKit          3D

 23 22  0  0  1  0  0  0  0  0999 V2000
   19.8810   -8.4816  -22.7824 C   0  0  0  0  0  0  0  0  0  0  0  0
   18.7812   -9.9122  -22.8837 S   0  0  0  0  0  0  0  0  0  0  0  0
   19.3190  -11.0920  -21.5946 C   0  0  0  0  0  0  0  0  0  0  0  0
   19.1300  -10.4776  -20.2136 C   0  0  0  0  0  0  0  0  0  0  0  0
   19.6560  -11.4609  -19.1899 C   0  0  2  0  0  0  0  0  0  0  0  0
   18.7665  -12.6019  -19.0903 N   0  0  0  0  0  0  0  0  0  0  0  0
   19.7820  -10.8416  -17.8478 C   0  0  0  0  0  0  0  0  0  0  0  0
   18.8593  -10.9682  -17.0063 O   0  0  0  0  0  0  0  0  0  0  0  0
   23.4027  -10.6055  -13.3357 C   0  0  0  0  0  0  0  0  0  0  0  0
   22.3625   -9.6345  -13.9451 C   0  0  0  0  0  0  0  0  0  0  0  0
   22.0898  -10.2098  -15.3104 C   0  0  2  0  0  0  0  0  0  0  0  0
   23.4222  -10.1677  -16.0462 C   0  0  0  0  0  0  0  0  0  0  0  0
   21.0428   -9.4843  -16.1112 C   0  0  2  0  0  0  0  0  0  0  0  0
   20.9129  -10.0918  -17.4406 N   0  0  0  0  0  0  0  0  0  0  0  0
   21.2800   -8.0492  -16.2944 C   0  0  0  0  0  0  0  0  0  0  0  0
   22.1970   -7.6308  -17.0835 O   0  0  0  0  0  0  0  0  0  0  0  0
   18.5417   -5.4469  -15.3370 O   0  0  0  0  0  0  0  0  0  0  0  0
   19.4738   -5.0184  -16.2868 C   0  0  0  0  0  0  0  0  0  0  0  0
   20.8182   -5.6186  -15.8470 C   0  0  2  0  0  0  0  0  0  0  0  0
   20.5355   -7.0473  -15.6387 N   0  0  0  0  0  0  0  0  0  0  0  0
   21.3176   -4.9878  -14.6290 C   0  0  0  0  0  0  0  0  0  0  0  0
   21.7254   -3.6718  -14.6477 O   0  0  0  0  0  0  0  0  0  0  0  0
   21.3804   -5.6324  -13.5595 O   0  0  0  0  0  0  0  0  0  0  0  0
  1  2  1  0
  2  3  1  0
  4  3  1  0
  5  4  1  0
  5  6  1  1
  7  5  1  0
  7  8  2  0
  9 10  1  0
 10 11  1  0
 11 13  1  0
 11 12  1  6
 13 14  1  6
 14  7  1  0
 15 13  1  0
 16 15  2  0
 18 17  1  0
 19 18  1  1
 19 20  1  0
 20 15  1  0
 21 19  1  0
 22 21  1  0
 23 21  2  0
M  END
$$$$
