MIS.pdb
     RDKit          3D

 23 22  0  0  1  0  0  0  0  0999 V2000
   18.6474  -21.0955  -17.2861 C   0  0  0  0  0  0  0  0  0  0  0  0
   18.9991  -22.6873  -16.5058 S   0  0  0  0  0  0  0  0  0  0  0  0
   19.4130  -22.3458  -14.7579 C   0  0  0  0  0  0  0  0  0  0  0  0
   20.6608  -21.4758  -14.6777 C   0  0  0  0  0  0  0  0  0  0  0  0
   20.9766  -21.2471  -13.2150 C   0  0  2  0  0  0  0  0  0  0  0  0
   20.0104  -20.3363  -12.6320 N   0  0  0  0  0  0  0  0  0  0  0  0
   22.3340  -20.6786  -13.0286 C   0  0  0  0  0  0  0  0  0  0  0  0
   22.5818  -19.5049  -13.3984 O   0  0  0  0  0  0  0  0  0  0  0  0
   25.2701  -20.9163   -8.6069 C   0  0  0  0  0  0  0  0  0  0  0  0
   24.5688  -20.4243   -9.8962 C   0  0  0  0  0  0  0  0  0  0  0  0
   25.3466  -21.0860  -11.0038 C   0  0  2  0  0  0  0  0  0  0  0  0
   26.7466  -20.4917  -10.9328 C   0  0  0  0  0  0  0  0  0  0  0  0
   24.7809  -20.8927  -12.3845 C   0  0  2  0  0  0  0  0  0  0  0  0
   23.4042  -21.3976  -12.4415 N   0  0  0  0  0  0  0  0  0  0  0  0
   25.5386  -21.5315  -13.4648 C   0  0  0  0  0  0  0  0  0  0  0  0
   26.0296  -22.7045  -13.3178 O   0  0  0  0  0  0  0  0  0  0  0  0
   24.8792  -20.8570  -17.1085 O   0  0  0  0  0  0  0  0  0  0  0  0
   25.6659  -21.9818  -16.8438 C   0  0  0  0  0  0  0  0  0  0  0  0
   26.6333  -21.5568  -15.7281 C   0  0  2  0  0  0  0  0  0  0  0  0
   25.7747  -20.9236  -14.7149 N   0  0  0  0  0  0  0  0  0  0  0  0
   27.6517  -20.6342  -16.2201 C   0  0  0  0  0  0  0  0  0  0  0  0
   28.5800  -21.0570  -17.1464 O   0  0  0  0  0  0  0  0  0  0  0  0
   27.6927  -19.4545  -15.8079 O   0  0  0  0  0  0  0  0  0  0  0  0
  1  2  1  0
  2  3  1  0
  4  3  1  0
  5  4  1  0
  5  6  1  6
  7  5  1  0
  7  8  2  0
  9 10  1  0
 10 11  1  0
 11 13  1  0
 11 12  1  6
 13 14  1  1
 14  7  1  0
 15 13  1  0
 16 15  2  0
 18 17  1  0
 19 18  1  6
 19 20  1  0
 20 15  1  0
 21 19  1  0
 22 21  1  0
 23 21  2  0
M  END
$$$$
