MIS.pdb
     RDKit          3D

 23 22  0  0  1  0  0  0  0  0999 V2000
   20.7974  -20.2971  -13.8399 C   0  0  0  0  0  0  0  0  0  0  0  0
   21.9153  -19.3350  -14.8844 S   0  0  0  0  0  0  0  0  0  0  0  0
   23.5528  -19.3511  -14.0714 C   0  0  0  0  0  0  0  0  0  0  0  0
   23.4853  -20.1533  -12.7782 C   0  0  0  0  0  0  0  0  0  0  0  0
   24.8618  -20.1392  -12.1483 C   0  0  2  0  0  0  0  0  0  0  0  0
   25.8191  -20.7851  -13.0256 N   0  0  0  0  0  0  0  0  0  0  0  0
   24.8740  -20.8378  -10.8397 C   0  0  0  0  0  0  0  0  0  0  0  0
   24.9927  -22.0865  -10.7931 O   0  0  0  0  0  0  0  0  0  0  0  0
   27.5561  -19.1164   -6.5524 C   0  0  0  0  0  0  0  0  0  0  0  0
   26.9883  -20.1035   -7.6009 C   0  0  0  0  0  0  0  0  0  0  0  0
   25.5167  -20.1585   -7.2834 C   0  0  2  0  0  0  0  0  0  0  0  0
   25.4127  -20.8809   -5.9470 C   0  0  0  0  0  0  0  0  0  0  0  0
   24.6685  -20.8604   -8.3089 C   0  0  2  0  0  0  0  0  0  0  0  0
   24.7564  -20.1654   -9.5983 N   0  0  0  0  0  0  0  0  0  0  0  0
   23.2494  -20.9885   -7.9636 C   0  0  0  0  0  0  0  0  0  0  0  0
   22.4756  -19.9688   -7.9779 O   0  0  0  0  0  0  0  0  0  0  0  0
   21.4344  -24.5908   -6.9219 O   0  0  0  0  0  0  0  0  0  0  0  0
   20.7640  -23.6649   -7.7266 C   0  0  0  0  0  0  0  0  0  0  0  0
   21.2207  -22.2825   -7.2349 C   0  0  2  0  0  0  0  0  0  0  0  0
   22.6430  -22.2095   -7.6039 N   0  0  0  0  0  0  0  0  0  0  0  0
   21.0319  -22.1330   -5.7952 C   0  0  0  0  0  0  0  0  0  0  0  0
   19.7613  -22.0724   -5.2658 O   0  0  0  0  0  0  0  0  0  0  0  0
   22.0177  -22.0584   -5.0296 O   0  0  0  0  0  0  0  0  0  0  0  0
  1  2  1  0
  2  3  1  0
  4  3  1  0
  5  4  1  0
  5  6  1  6
  7  5  1  0
  7  8  2  0
  9 10  1  0
 10 11  1  0
 11 13  1  0
 11 12  1  1
 13 14  1  6
 14  7  1  0
 15 13  1  0
 16 15  2  0
 18 17  1  0
 19 18  1  1
 19 20  1  0
 20 15  1  0
 21 19  1  0
 22 21  1  0
 23 21  2  0
M  END
$$$$
