CAK.pdb
     RDKit          3D

 21 20  0  0  1  0  0  0  0  0999 V2000
   15.5147  -13.6197  -16.4038 N   0  0  0  0  0  0  0  0  0  0  0  0
   16.3090  -12.8498  -15.4759 C   0  0  1  0  0  0  0  0  0  0  0  0
   17.4845  -13.7441  -15.0711 C   0  0  0  0  0  0  0  0  0  0  0  0
   16.9671  -15.0084  -13.9051 S   0  0  0  0  0  0  0  0  0  0  0  0
   16.9013  -11.6492  -16.1214 C   0  0  0  0  0  0  0  0  0  0  0  0
   17.4267  -11.8005  -17.2541 O   0  0  0  0  0  0  0  0  0  0  0  0
   16.5452   -8.0161  -15.7816 C   0  0  0  0  0  0  0  0  0  0  0  0
   17.4188   -9.1855  -16.2183 C   0  0  2  0  0  0  0  0  0  0  0  0
   16.9135  -10.3640  -15.5543 N   0  0  0  0  0  0  0  0  0  0  0  0
   18.8404   -8.9185  -15.8694 C   0  0  0  0  0  0  0  0  0  0  0  0
   19.1791   -9.1815  -14.6797 O   0  0  0  0  0  0  0  0  0  0  0  0
   19.7910   -8.4051  -16.7708 N   0  0  0  0  0  0  0  0  0  0  0  0
   21.1752   -8.1118  -16.3671 C   0  0  1  0  0  0  0  0  0  0  0  0
   22.0146   -7.8538  -17.5786 C   0  0  0  0  0  0  0  0  0  0  0  0
   23.4482   -7.6580  -17.2373 C   0  0  0  0  0  0  0  0  0  0  0  0
   24.2964   -7.4189  -18.4883 C   0  0  0  0  0  0  0  0  0  0  0  0
   25.7677   -7.4565  -18.1610 C   0  0  0  0  0  0  0  0  0  0  0  0
   26.5991   -7.2415  -19.3171 N   0  0  0  0  0  0  0  0  0  0  0  0
   21.1319   -6.9366  -15.4963 C   0  0  0  0  0  0  0  0  0  0  0  0
   20.3480   -5.9906  -15.7410 O   0  0  0  0  0  0  0  0  0  0  0  0
   21.9383   -6.8350  -14.3920 O   0  0  0  0  0  0  0  0  0  0  0  0
  2  1  1  6
  2  5  1  0
  3  2  1  0
  4  3  1  0
  5  9  1  0
  5  6  2  0
  8  7  1  1
  9  8  1  0
 10  8  1  0
 10 11  2  0
 12 13  1  0
 12 10  1  0
 14 15  1  0
 13 14  1  6
 16 17  1  0
 16 15  1  0
 17 18  1  0
 19 13  1  0
 20 19  2  0
 21 19  1  0
M  END
$$$$
