CAK.pdb
     RDKit          3D

 21 20  0  0  1  0  0  0  0  0999 V2000
   22.7089  -16.0691  -17.1332 N   0  0  0  0  0  0  0  0  0  0  0  0
   23.4680  -14.9387  -17.6134 C   0  0  1  0  0  0  0  0  0  0  0  0
   22.7271  -14.4164  -18.8479 C   0  0  0  0  0  0  0  0  0  0  0  0
   22.9091  -15.5392  -20.2377 S   0  0  0  0  0  0  0  0  0  0  0  0
   23.4782  -13.8239  -16.6304 C   0  0  0  0  0  0  0  0  0  0  0  0
   22.3879  -13.5306  -16.0761 O   0  0  0  0  0  0  0  0  0  0  0  0
   26.0564  -11.5221  -15.1847 C   0  0  0  0  0  0  0  0  0  0  0  0
   24.6069  -11.9438  -15.3902 C   0  0  2  0  0  0  0  0  0  0  0  0
   24.6176  -13.0802  -16.2810 N   0  0  0  0  0  0  0  0  0  0  0  0
   23.8197  -10.8102  -15.9464 C   0  0  0  0  0  0  0  0  0  0  0  0
   23.9368  -10.6097  -17.1895 O   0  0  0  0  0  0  0  0  0  0  0  0
   22.9809   -9.9807  -15.1793 N   0  0  0  0  0  0  0  0  0  0  0  0
   22.2093   -8.8795  -15.7767 C   0  0  1  0  0  0  0  0  0  0  0  0
   21.0192   -9.4262  -16.5004 C   0  0  0  0  0  0  0  0  0  0  0  0
   20.0035   -9.9846  -15.5697 C   0  0  0  0  0  0  0  0  0  0  0  0
   18.7982  -10.5485  -16.3252 C   0  0  0  0  0  0  0  0  0  0  0  0
   17.7769  -11.1148  -15.3715 C   0  0  0  0  0  0  0  0  0  0  0  0
   16.6391  -11.6811  -16.0489 N   0  0  0  0  0  0  0  0  0  0  0  0
   21.8009   -7.9954  -14.6845 C   0  0  0  0  0  0  0  0  0  0  0  0
   21.8679   -8.3800  -13.4942 O   0  0  0  0  0  0  0  0  0  0  0  0
   21.3392   -6.7271  -14.9260 O   0  0  0  0  0  0  0  0  0  0  0  0
  2  1  1  1
  2  5  1  0
  3  2  1  0
  4  3  1  0
  5  9  1  0
  5  6  2  0
  8  7  1  6
  9  8  1  0
 10  8  1  0
 10 11  2  0
 12 13  1  0
 12 10  1  0
 14 15  1  0
 13 14  1  1
 16 17  1  0
 16 15  1  0
 17 18  1  0
 19 13  1  0
 20 19  2  0
 21 19  1  0
M  END
$$$$
