CAK.pdb
     RDKit          3D

 21 20  0  0  1  0  0  0  0  0999 V2000
   27.8243  -22.1355  -15.9968 N   0  0  0  0  0  0  0  0  0  0  0  0
   27.0814  -21.0109  -15.4792 C   0  0  1  0  0  0  0  0  0  0  0  0
   26.6678  -20.1735  -16.6930 C   0  0  0  0  0  0  0  0  0  0  0  0
   28.0942  -19.4068  -17.4694 S   0  0  0  0  0  0  0  0  0  0  0  0
   25.8207  -21.4398  -14.8192 C   0  0  0  0  0  0  0  0  0  0  0  0
   25.2314  -22.4446  -15.2936 O   0  0  0  0  0  0  0  0  0  0  0  0
   23.9464  -20.4698  -11.7325 C   0  0  0  0  0  0  0  0  0  0  0  0
   24.0543  -21.2577  -13.0320 C   0  0  2  0  0  0  0  0  0  0  0  0
   25.2464  -20.8016  -13.7072 N   0  0  0  0  0  0  0  0  0  0  0  0
   22.8345  -21.0490  -13.8580 C   0  0  0  0  0  0  0  0  0  0  0  0
   22.8413  -20.0339  -14.6122 O   0  0  0  0  0  0  0  0  0  0  0  0
   21.7136  -21.8995  -13.8389 N   0  0  0  0  0  0  0  0  0  0  0  0
   20.5722  -21.7120  -14.7481 C   0  0  1  0  0  0  0  0  0  0  0  0
   19.7116  -22.9360  -14.7434 C   0  0  0  0  0  0  0  0  0  0  0  0
   18.5744  -22.8268  -15.6947 C   0  0  0  0  0  0  0  0  0  0  0  0
   17.6875  -24.0732  -15.6563 C   0  0  0  0  0  0  0  0  0  0  0  0
   16.6541  -24.0373  -16.7536 C   0  0  0  0  0  0  0  0  0  0  0  0
   15.7010  -25.1123  -16.6536 N   0  0  0  0  0  0  0  0  0  0  0  0
   19.8290  -20.5440  -14.2741 C   0  0  0  0  0  0  0  0  0  0  0  0
   19.7470  -20.2948  -13.0492 O   0  0  0  0  0  0  0  0  0  0  0  0
   19.2066  -19.6897  -15.1476 O   0  0  0  0  0  0  0  0  0  0  0  0
  2  1  1  6
  2  5  1  0
  3  2  1  0
  4  3  1  0
  5  9  1  0
  5  6  2  0
  8  7  1  1
  9  8  1  0
 10  8  1  0
 10 11  2  0
 12 13  1  0
 12 10  1  0
 14 15  1  0
 13 14  1  1
 16 17  1  0
 16 15  1  0
 17 18  1  0
 19 13  1  0
 20 19  2  0
 21 19  1  0
M  END
$$$$
