CAK.pdb
     RDKit          3D

 21 20  0  0  1  0  0  0  0  0999 V2000
   22.6478  -12.8955  -17.2385 N   0  0  0  0  0  0  0  0  0  0  0  0
   22.8604  -12.1285  -16.0340 C   0  0  1  0  0  0  0  0  0  0  0  0
   24.3301  -11.6982  -16.0522 C   0  0  0  0  0  0  0  0  0  0  0  0
   25.4186  -13.0916  -15.7375 S   0  0  0  0  0  0  0  0  0  0  0  0
   22.0593  -10.8766  -16.0290 C   0  0  0  0  0  0  0  0  0  0  0  0
   22.0365  -10.1995  -17.0888 O   0  0  0  0  0  0  0  0  0  0  0  0
   19.6751   -9.2242  -13.6716 C   0  0  0  0  0  0  0  0  0  0  0  0
   20.5205   -9.2061  -14.9389 C   0  0  2  0  0  0  0  0  0  0  0  0
   21.3301  -10.4017  -14.9263 N   0  0  0  0  0  0  0  0  0  0  0  0
   21.3524   -7.9731  -14.9797 C   0  0  0  0  0  0  0  0  0  0  0  0
   22.4824   -8.0465  -14.4167 O   0  0  0  0  0  0  0  0  0  0  0  0
   20.9531   -6.7719  -15.5942 N   0  0  0  0  0  0  0  0  0  0  0  0
   21.8637   -5.6252  -15.7385 C   0  0  1  0  0  0  0  0  0  0  0  0
   21.3499   -4.6973  -16.7940 C   0  0  0  0  0  0  0  0  0  0  0  0
   22.2199   -3.5041  -16.9648 C   0  0  0  0  0  0  0  0  0  0  0  0
   21.6503   -2.5371  -18.0051 C   0  0  0  0  0  0  0  0  0  0  0  0
   22.6061   -1.4017  -18.2705 C   0  0  0  0  0  0  0  0  0  0  0  0
   22.2166   -0.6016  -19.4029 N   0  0  0  0  0  0  0  0  0  0  0  0
   21.9290   -4.9584  -14.4376 C   0  0  0  0  0  0  0  0  0  0  0  0
   22.9342   -4.2829  -14.1174 O   0  0  0  0  0  0  0  0  0  0  0  0
   20.8996   -5.0472  -13.5362 O   0  0  0  0  0  0  0  0  0  0  0  0
  2  1  1  6
  2  5  1  0
  3  2  1  0
  4  3  1  0
  5  9  1  0
  5  6  2  0
  8  7  1  1
  9  8  1  0
 10  8  1  0
 10 11  2  0
 12 13  1  0
 12 10  1  0
 14 15  1  0
 13 14  1  6
 16 17  1  0
 16 15  1  0
 17 18  1  0
 19 13  1  0
 20 19  2  0
 21 19  1  0
M  END
$$$$
