CAK.pdb
     RDKit          3D

 21 20  0  0  1  0  0  0  0  0999 V2000
   16.3773  -13.0016  -14.2728 N   0  0  0  0  0  0  0  0  0  0  0  0
   16.6530  -11.6519  -14.7052 C   0  0  1  0  0  0  0  0  0  0  0  0
   15.3547  -11.1248  -15.3234 C   0  0  0  0  0  0  0  0  0  0  0  0
   15.0652  -11.8488  -16.9412 S   0  0  0  0  0  0  0  0  0  0  0  0
   16.9621  -10.7581  -13.5587 C   0  0  0  0  0  0  0  0  0  0  0  0
   16.4309  -11.0313  -12.4518 O   0  0  0  0  0  0  0  0  0  0  0  0
   19.3266   -7.9254  -12.9530 C   0  0  0  0  0  0  0  0  0  0  0  0
   18.2082   -8.8489  -12.4866 C   0  0  2  0  0  0  0  0  0  0  0  0
   17.8029   -9.6348  -13.6281 N   0  0  0  0  0  0  0  0  0  0  0  0
   17.0815   -8.0481  -11.9360 C   0  0  0  0  0  0  0  0  0  0  0  0
   16.2598   -7.5907  -12.7816 O   0  0  0  0  0  0  0  0  0  0  0  0
   16.8954   -7.7858  -10.5662 N   0  0  0  0  0  0  0  0  0  0  0  0
   15.7755   -6.9709  -10.0695 C   0  0  1  0  0  0  0  0  0  0  0  0
   15.5481   -7.2500   -8.6172 C   0  0  0  0  0  0  0  0  0  0  0  0
   14.5440   -6.3313   -8.0191 C   0  0  0  0  0  0  0  0  0  0  0  0
   13.5635   -7.0816   -7.1150 C   0  0  0  0  0  0  0  0  0  0  0  0
   12.4525   -6.1747   -6.6499 C   0  0  0  0  0  0  0  0  0  0  0  0
   11.4379   -6.8764   -5.9067 N   0  0  0  0  0  0  0  0  0  0  0  0
   16.1316   -5.5683  -10.2867 C   0  0  0  0  0  0  0  0  0  0  0  0
   17.3246   -5.1943  -10.2091 O   0  0  0  0  0  0  0  0  0  0  0  0
   15.1799   -4.6267  -10.5832 O   0  0  0  0  0  0  0  0  0  0  0  0
  2  1  1  1
  2  5  1  0
  3  2  1  0
  4  3  1  0
  5  9  1  0
  5  6  2  0
  8  7  1  6
  9  8  1  0
 10  8  1  0
 10 11  2  0
 12 13  1  0
 12 10  1  0
 14 15  1  0
 13 14  1  1
 16 17  1  0
 16 15  1  0
 17 18  1  0
 19 13  1  0
 20 19  2  0
 21 19  1  0
M  END
$$$$
