CAK.pdb
     RDKit          3D

 21 20  0  0  1  0  0  0  0  0999 V2000
   13.6090  -11.5349  -11.1928 N   0  0  0  0  0  0  0  0  0  0  0  0
   14.8132  -11.2201  -10.4611 C   0  0  1  0  0  0  0  0  0  0  0  0
   15.8367  -12.2967  -10.8340 C   0  0  0  0  0  0  0  0  0  0  0  0
   15.4798  -13.8478  -10.0020 S   0  0  0  0  0  0  0  0  0  0  0  0
   15.3968   -9.9228  -10.8918 C   0  0  0  0  0  0  0  0  0  0  0  0
   15.4208   -9.6798  -12.1256 O   0  0  0  0  0  0  0  0  0  0  0  0
   16.7073   -6.8518   -9.2087 C   0  0  0  0  0  0  0  0  0  0  0  0
   16.5514   -7.7287  -10.4447 C   0  0  2  0  0  0  0  0  0  0  0  0
   15.9202   -8.9554  -10.0180 N   0  0  0  0  0  0  0  0  0  0  0  0
   17.8806   -7.9756  -11.0661 C   0  0  0  0  0  0  0  0  0  0  0  0
   18.6028   -8.8486  -10.5044 O   0  0  0  0  0  0  0  0  0  0  0  0
   18.3536   -7.3058  -12.2096 N   0  0  0  0  0  0  0  0  0  0  0  0
   19.6231   -7.6666  -12.8600 C   0  0  1  0  0  0  0  0  0  0  0  0
   19.3733   -8.6694  -13.9421 C   0  0  0  0  0  0  0  0  0  0  0  0
   20.6220   -9.0531  -14.6515 C   0  0  0  0  0  0  0  0  0  0  0  0
   20.3384  -10.0101  -15.8114 C   0  0  0  0  0  0  0  0  0  0  0  0
   21.6159  -10.4267  -16.4952 C   0  0  0  0  0  0  0  0  0  0  0  0
   21.3936  -11.3741  -17.5570 N   0  0  0  0  0  0  0  0  0  0  0  0
   20.1950   -6.4350  -13.4053 C   0  0  0  0  0  0  0  0  0  0  0  0
   21.4365   -6.2945  -13.4960 O   0  0  0  0  0  0  0  0  0  0  0  0
   19.3977   -5.4053  -13.8344 O   0  0  0  0  0  0  0  0  0  0  0  0
  2  1  1  6
  2  5  1  0
  3  2  1  0
  4  3  1  0
  5  9  1  0
  5  6  2  0
  8  7  1  1
  9  8  1  0
 10  8  1  0
 10 11  2  0
 12 13  1  0
 12 10  1  0
 14 15  1  0
 13 14  1  6
 16 17  1  0
 16 15  1  0
 17 18  1  0
 19 13  1  0
 20 19  2  0
 21 19  1  0
M  END
$$$$
