IML.pdb
     RDKit          3D

 25 24  0  0  1  0  0  0  0  0999 V2000
   30.8966  -22.6523  -13.7827 C   0  0  0  0  0  0  0  0  0  0  0  0
   30.7610  -21.1818  -14.0267 C   0  0  0  0  0  0  0  0  0  0  0  0
   29.8285  -20.4933  -13.0634 C   0  0  2  0  0  0  0  0  0  0  0  0
   29.9388  -20.9763  -11.6598 C   0  0  0  0  0  0  0  0  0  0  0  0
   28.4085  -20.7596  -13.5418 C   0  0  2  0  0  0  0  0  0  0  0  0
   28.2182  -20.3113  -14.9036 N   0  0  0  0  0  0  0  0  0  0  0  0
   27.3993  -20.1062  -12.6731 C   0  0  0  0  0  0  0  0  0  0  0  0
   27.1675  -18.8681  -12.7056 O   0  0  0  0  0  0  0  0  0  0  0  0
   21.4261  -21.2662  -11.8560 C   0  0  0  0  0  0  0  0  0  0  0  0
   22.1963  -20.0527  -12.9607 S   0  0  0  0  0  0  0  0  0  0  0  0
   23.9257  -19.7392  -12.4501 C   0  0  0  0  0  0  0  0  0  0  0  0
   24.2898  -20.5585  -11.2526 C   0  0  0  0  0  0  0  0  0  0  0  0
   25.6752  -20.2766  -10.8133 C   0  0  2  0  0  0  0  0  0  0  0  0
   26.6396  -20.8596  -11.7535 N   0  0  0  0  0  0  0  0  0  0  0  0
   25.9693  -20.8658   -9.5122 C   0  0  0  0  0  0  0  0  0  0  0  0
   26.0755  -22.1376   -9.4226 O   0  0  0  0  0  0  0  0  0  0  0  0
   29.1283  -20.7919   -6.2771 C   0  0  0  0  0  0  0  0  0  0  0  0
   28.2663  -19.5512   -6.2334 C   0  0  2  0  0  0  0  0  0  0  0  0
   28.7972  -18.4527   -5.3899 C   0  0  0  0  0  0  0  0  0  0  0  0
   26.8145  -19.7968   -6.1167 C   0  0  0  0  0  0  0  0  0  0  0  0
   26.1899  -20.8096   -7.0173 C   0  0  2  0  0  0  0  0  0  0  0  0
   26.1545  -20.1331   -8.3445 N   0  0  0  0  0  0  0  0  0  0  0  0
   24.8578  -21.2773   -6.6611 C   0  0  0  0  0  0  0  0  0  0  0  0
   24.5810  -22.3256   -5.7730 O   0  0  0  0  0  0  0  0  0  0  0  0
   23.8397  -20.7330   -7.1664 O   0  0  0  0  0  0  0  0  0  0  0  0
  1  2  1  0
  3  4  1  1
  3  2  1  0
  5  3  1  0
  5  6  1  6
  7  5  1  0
  8  7  2  0
 10 11  1  0
 10  9  1  0
 11 12  1  0
 13 12  1  6
 13 14  1  0
 14  7  1  0
 15 22  1  0
 15 13  1  0
 16 15  2  0
 18 19  1  1
 18 17  1  0
 20 18  1  0
 21 20  1  1
 21 22  1  0
 23 24  1  0
 23 21  1  0
 25 23  2  0
M  END
$$$$
