IML.pdb
     RDKit          3D

 25 24  0  0  1  0  0  0  0  0999 V2000
   27.9244  -17.3124  -17.4715 C   0  0  0  0  0  0  0  0  0  0  0  0
   27.5138  -17.4486  -16.0386 C   0  0  0  0  0  0  0  0  0  0  0  0
   27.7622  -18.8208  -15.4670 C   0  0  2  0  0  0  0  0  0  0  0  0
   27.1136  -19.9233  -16.2282 C   0  0  0  0  0  0  0  0  0  0  0  0
   27.1975  -18.8299  -14.0538 C   0  0  2  0  0  0  0  0  0  0  0  0
   27.8064  -17.8040  -13.2361 N   0  0  0  0  0  0  0  0  0  0  0  0
   27.3794  -20.1452  -13.3927 C   0  0  0  0  0  0  0  0  0  0  0  0
   26.9397  -21.2215  -13.8785 O   0  0  0  0  0  0  0  0  0  0  0  0
   32.1706  -22.0085   -9.3032 C   0  0  0  0  0  0  0  0  0  0  0  0
   32.2847  -21.6853  -11.0833 S   0  0  0  0  0  0  0  0  0  0  0  0
   30.6173  -21.6993  -11.8379 C   0  0  0  0  0  0  0  0  0  0  0  0
   29.5532  -21.5806  -10.7931 C   0  0  0  0  0  0  0  0  0  0  0  0
   28.2085  -21.4977  -11.4069 C   0  0  2  0  0  0  0  0  0  0  0  0
   28.0674  -20.2493  -12.1655 N   0  0  0  0  0  0  0  0  0  0  0  0
   27.1479  -21.4870  -10.4061 C   0  0  0  0  0  0  0  0  0  0  0  0
   26.8768  -22.5724   -9.7854 O   0  0  0  0  0  0  0  0  0  0  0  0
   26.8243  -21.2271   -6.6248 C   0  0  0  0  0  0  0  0  0  0  0  0
   26.7717  -19.8303   -7.1997 C   0  0  2  0  0  0  0  0  0  0  0  0
   27.1810  -18.7551   -6.2636 C   0  0  0  0  0  0  0  0  0  0  0  0
   25.5846  -19.5342   -8.0272 C   0  0  0  0  0  0  0  0  0  0  0  0
   25.2417  -20.4687   -9.1391 C   0  0  2  0  0  0  0  0  0  0  0  0
   26.4038  -20.3623  -10.0656 N   0  0  0  0  0  0  0  0  0  0  0  0
   24.0039  -20.2097   -9.8608 C   0  0  0  0  0  0  0  0  0  0  0  0
   22.7159  -20.3178   -9.3192 O   0  0  0  0  0  0  0  0  0  0  0  0
   24.0382  -19.8618  -11.0716 O   0  0  0  0  0  0  0  0  0  0  0  0
  1  2  1  0
  3  4  1  6
  3  2  1  0
  5  3  1  0
  5  6  1  1
  7  5  1  0
  8  7  2  0
 10 11  1  0
 10  9  1  0
 11 12  1  0
 13 12  1  1
 13 14  1  0
 14  7  1  0
 15 22  1  0
 15 13  1  0
 16 15  2  0
 18 19  1  1
 18 17  1  0
 20 18  1  0
 21 20  1  1
 21 22  1  0
 23 24  1  0
 23 21  1  0
 25 23  2  0
M  END
$$$$
