IML.pdb
     RDKit          3D

 25 24  0  0  1  0  0  0  0  0999 V2000
   29.0325  -19.3921  -16.4566 C   0  0  0  0  0  0  0  0  0  0  0  0
   27.8078  -20.0250  -15.8736 C   0  0  0  0  0  0  0  0  0  0  0  0
   27.4973  -19.5624  -14.4733 C   0  0  2  0  0  0  0  0  0  0  0  0
   28.5409  -19.9130  -13.4715 C   0  0  0  0  0  0  0  0  0  0  0  0
   26.1982  -20.2350  -14.0536 C   0  0  2  0  0  0  0  0  0  0  0  0
   25.1712  -20.0717  -15.0588 N   0  0  0  0  0  0  0  0  0  0  0  0
   25.6953  -19.7108  -12.7604 C   0  0  0  0  0  0  0  0  0  0  0  0
   25.2987  -18.5241  -12.6109 O   0  0  0  0  0  0  0  0  0  0  0  0
   21.0028  -22.1302  -10.3592 C   0  0  0  0  0  0  0  0  0  0  0  0
   21.0330  -20.3345  -10.6052 S   0  0  0  0  0  0  0  0  0  0  0  0
   22.7478  -19.7631  -10.8925 C   0  0  0  0  0  0  0  0  0  0  0  0
   23.7278  -20.5993  -10.1318 C   0  0  0  0  0  0  0  0  0  0  0  0
   25.1106  -20.1046  -10.3184 C   0  0  2  0  0  0  0  0  0  0  0  0
   25.6385  -20.5366  -11.6179 N   0  0  0  0  0  0  0  0  0  0  0  0
   26.0237  -20.6347   -9.3125 C   0  0  0  0  0  0  0  0  0  0  0  0
   26.4677  -21.8264   -9.4516 O   0  0  0  0  0  0  0  0  0  0  0  0
   29.0160  -18.6486   -4.3469 C   0  0  0  0  0  0  0  0  0  0  0  0
   28.7914  -19.8250   -5.2687 C   0  0  2  0  0  0  0  0  0  0  0  0
   29.9686  -20.7092   -5.4489 C   0  0  0  0  0  0  0  0  0  0  0  0
   28.0277  -19.5258   -6.4970 C   0  0  0  0  0  0  0  0  0  0  0  0
   27.1944  -20.6083   -7.0977 C   0  0  2  0  0  0  0  0  0  0  0  0
   26.4611  -19.9239   -8.1997 N   0  0  0  0  0  0  0  0  0  0  0  0
   26.2521  -21.2822   -6.2157 C   0  0  0  0  0  0  0  0  0  0  0  0
   26.5645  -22.3536   -5.3679 O   0  0  0  0  0  0  0  0  0  0  0  0
   25.0474  -20.9142   -6.1768 O   0  0  0  0  0  0  0  0  0  0  0  0
  1  2  1  0
  3  4  1  1
  3  2  1  0
  5  3  1  0
  5  6  1  6
  7  5  1  0
  8  7  2  0
 10 11  1  0
 10  9  1  0
 11 12  1  0
 13 12  1  1
 13 14  1  0
 14  7  1  0
 15 22  1  0
 15 13  1  0
 16 15  2  0
 18 19  1  6
 18 17  1  0
 20 18  1  0
 21 20  1  1
 21 22  1  0
 23 24  1  0
 23 21  1  0
 25 23  2  0
M  END
$$$$
