IML.pdb
     RDKit          3D

 25 24  0  0  1  0  0  0  0  0999 V2000
   30.5116  -21.5419  -17.2579 C   0  0  0  0  0  0  0  0  0  0  0  0
   29.4126  -20.6791  -16.7211 C   0  0  0  0  0  0  0  0  0  0  0  0
   28.4560  -21.4128  -15.8166 C   0  0  2  0  0  0  0  0  0  0  0  0
   27.7839  -22.5760  -16.4575 C   0  0  0  0  0  0  0  0  0  0  0  0
   27.3804  -20.4208  -15.3978 C   0  0  2  0  0  0  0  0  0  0  0  0
   27.9584  -19.1665  -14.9685 N   0  0  0  0  0  0  0  0  0  0  0  0
   26.5263  -20.9561  -14.3096 C   0  0  0  0  0  0  0  0  0  0  0  0
   25.7473  -21.9335  -14.4694 O   0  0  0  0  0  0  0  0  0  0  0  0
   26.9033  -20.7060   -7.3890 C   0  0  0  0  0  0  0  0  0  0  0  0
   28.1972  -20.7620   -8.6574 S   0  0  0  0  0  0  0  0  0  0  0  0
   27.4842  -21.2585  -10.2683 C   0  0  0  0  0  0  0  0  0  0  0  0
   26.2973  -20.4158  -10.6136 C   0  0  0  0  0  0  0  0  0  0  0  0
   25.7069  -20.8287  -11.9069 C   0  0  2  0  0  0  0  0  0  0  0  0
   26.5504  -20.3811  -13.0215 N   0  0  0  0  0  0  0  0  0  0  0  0
   24.3941  -20.2330  -12.1263 C   0  0  0  0  0  0  0  0  0  0  0  0
   24.3284  -19.0267  -12.5473 O   0  0  0  0  0  0  0  0  0  0  0  0
   21.4743  -20.8458  -16.4327 C   0  0  0  0  0  0  0  0  0  0  0  0
   21.2766  -20.2230  -15.0699 C   0  0  2  0  0  0  0  0  0  0  0  0
   20.8524  -18.8019  -15.0897 C   0  0  0  0  0  0  0  0  0  0  0  0
   22.3045  -20.5652  -14.0660 C   0  0  0  0  0  0  0  0  0  0  0  0
   21.9488  -20.4623  -12.6203 C   0  0  2  0  0  0  0  0  0  0  0  0
   23.1888  -20.8948  -11.9163 N   0  0  0  0  0  0  0  0  0  0  0  0
   20.8146  -21.2520  -12.1619 C   0  0  0  0  0  0  0  0  0  0  0  0
   19.4938  -20.7920  -12.0735 O   0  0  0  0  0  0  0  0  0  0  0  0
   20.9807  -22.4479  -11.8010 O   0  0  0  0  0  0  0  0  0  0  0  0
  1  2  1  0
  3  4  1  6
  3  2  1  0
  5  3  1  0
  5  6  1  1
  7  5  1  0
  8  7  2  0
 10 11  1  0
 10  9  1  0
 11 12  1  0
 13 12  1  1
 13 14  1  0
 14  7  1  0
 15 22  1  0
 15 13  1  0
 16 15  2  0
 18 19  1  6
 18 17  1  0
 20 18  1  0
 21 20  1  6
 21 22  1  0
 23 24  1  0
 23 21  1  0
 25 23  2  0
M  END
$$$$
