IML.pdb
     RDKit          3D

 25 24  0  0  1  0  0  0  0  0999 V2000
   14.2835  -11.2095  -16.6210 C   0  0  0  0  0  0  0  0  0  0  0  0
   15.6839  -10.8457  -16.2377 C   0  0  0  0  0  0  0  0  0  0  0  0
   15.7994  -10.2663  -14.8512 C   0  0  2  0  0  0  0  0  0  0  0  0
   15.0822   -8.9746  -14.6702 C   0  0  0  0  0  0  0  0  0  0  0  0
   17.2782  -10.0241  -14.5853 C   0  0  2  0  0  0  0  0  0  0  0  0
   18.0532  -11.2296  -14.7793 N   0  0  0  0  0  0  0  0  0  0  0  0
   17.5180   -9.5116  -13.2141 C   0  0  0  0  0  0  0  0  0  0  0  0
   17.4768  -10.2473  -12.1919 O   0  0  0  0  0  0  0  0  0  0  0  0
   21.7395   -5.1518  -13.5938 C   0  0  0  0  0  0  0  0  0  0  0  0
   22.0778   -6.4137  -12.3372 S   0  0  0  0  0  0  0  0  0  0  0  0
   20.6255   -7.5085  -12.1317 C   0  0  0  0  0  0  0  0  0  0  0  0
   19.3895   -6.7146  -11.8485 C   0  0  0  0  0  0  0  0  0  0  0  0
   18.2114   -7.5975  -11.6924 C   0  0  2  0  0  0  0  0  0  0  0  0
   17.8087   -8.1492  -12.9914 N   0  0  0  0  0  0  0  0  0  0  0  0
   17.0511   -6.8790  -11.1788 C   0  0  0  0  0  0  0  0  0  0  0  0
   16.2689   -6.2999  -12.0093 O   0  0  0  0  0  0  0  0  0  0  0  0
   14.1187   -6.2400   -5.7995 C   0  0  0  0  0  0  0  0  0  0  0  0
   14.1055   -5.9458   -7.2819 C   0  0  2  0  0  0  0  0  0  0  0  0
   12.7658   -6.0004   -7.9162 C   0  0  0  0  0  0  0  0  0  0  0  0
   15.2008   -6.5639   -8.0565 C   0  0  0  0  0  0  0  0  0  0  0  0
   15.5465   -5.9833   -9.3871 C   0  0  2  0  0  0  0  0  0  0  0  0
   16.7226   -6.7836   -9.8306 N   0  0  0  0  0  0  0  0  0  0  0  0
   15.8675   -4.5636   -9.4244 C   0  0  0  0  0  0  0  0  0  0  0  0
   17.1615   -4.0271   -9.3802 O   0  0  0  0  0  0  0  0  0  0  0  0
   14.9452   -3.7080   -9.4980 O   0  0  0  0  0  0  0  0  0  0  0  0
  1  2  1  0
  3  4  1  6
  3  2  1  0
  5  3  1  0
  5  6  1  1
  7  5  1  0
  8  7  2  0
 10 11  1  0
 10  9  1  0
 11 12  1  0
 13 12  1  6
 13 14  1  0
 14  7  1  0
 15 22  1  0
 15 13  1  0
 16 15  2  0
 18 19  1  6
 18 17  1  0
 20 18  1  0
 21 20  1  1
 21 22  1  0
 23 24  1  0
 23 21  1  0
 25 23  2  0
M  END
$$$$
