IML.pdb
     RDKit          3D

 25 24  0  0  1  0  0  0  0  0999 V2000
   21.9664  -17.6223  -15.5978 C   0  0  0  0  0  0  0  0  0  0  0  0
   22.1921  -19.0659  -15.2735 C   0  0  0  0  0  0  0  0  0  0  0  0
   23.6103  -19.3802  -14.8720 C   0  0  2  0  0  0  0  0  0  0  0  0
   24.6156  -19.1238  -15.9394 C   0  0  0  0  0  0  0  0  0  0  0  0
   23.6629  -20.8605  -14.5227 C   0  0  2  0  0  0  0  0  0  0  0  0
   22.6763  -21.2014  -13.5217 N   0  0  0  0  0  0  0  0  0  0  0  0
   25.0039  -21.2681  -14.0372 C   0  0  0  0  0  0  0  0  0  0  0  0
   26.0074  -21.3574  -14.7940 O   0  0  0  0  0  0  0  0  0  0  0  0
   29.3670  -18.7511  -13.8890 C   0  0  0  0  0  0  0  0  0  0  0  0
   30.0056  -19.6560  -12.4540 S   0  0  0  0  0  0  0  0  0  0  0  0
   28.8619  -21.0105  -11.9989 C   0  0  0  0  0  0  0  0  0  0  0  0
   27.4710  -20.7198  -12.4667 C   0  0  0  0  0  0  0  0  0  0  0  0
   26.5410  -21.8069  -12.0859 C   0  0  2  0  0  0  0  0  0  0  0  0
   25.2173  -21.5799  -12.6779 N   0  0  0  0  0  0  0  0  0  0  0  0
   26.3350  -21.8733  -10.6438 C   0  0  0  0  0  0  0  0  0  0  0  0
   26.0941  -23.0099  -10.1084 O   0  0  0  0  0  0  0  0  0  0  0  0
   28.2536  -21.1277   -6.7673 C   0  0  0  0  0  0  0  0  0  0  0  0
   27.8355  -19.7937   -7.3417 C   0  0  2  0  0  0  0  0  0  0  0  0
   28.4052  -18.6114   -6.6505 C   0  0  0  0  0  0  0  0  0  0  0  0
   26.4098  -19.6867   -7.7126 C   0  0  0  0  0  0  0  0  0  0  0  0
   25.7759  -20.8270   -8.4372 C   0  0  2  0  0  0  0  0  0  0  0  0
   26.3913  -20.7741   -9.7933 N   0  0  0  0  0  0  0  0  0  0  0  0
   24.3242  -20.8133   -8.5482 C   0  0  0  0  0  0  0  0  0  0  0  0
   23.4370  -21.3359   -7.5976 O   0  0  0  0  0  0  0  0  0  0  0  0
   23.7717  -20.3067   -9.5613 O   0  0  0  0  0  0  0  0  0  0  0  0
  1  2  1  0
  3  4  1  6
  3  2  1  0
  5  3  1  0
  5  6  1  1
  7  5  1  0
  8  7  2  0
 10 11  1  0
 10  9  1  0
 11 12  1  0
 13 12  1  1
 13 14  1  0
 14  7  1  0
 15 22  1  0
 15 13  1  0
 16 15  2  0
 18 19  1  1
 18 17  1  0
 20 18  1  0
 21 20  1  1
 21 22  1  0
 23 24  1  0
 23 21  1  0
 25 23  2  0
M  END
$$$$
