IML.pdb
     RDKit          3D

 25 24  0  0  1  0  0  0  0  0999 V2000
   26.5818  -20.4091   -8.4774 C   0  0  0  0  0  0  0  0  0  0  0  0
   25.6597  -21.1239   -9.4150 C   0  0  0  0  0  0  0  0  0  0  0  0
   25.9526  -20.8585  -10.8694 C   0  0  2  0  0  0  0  0  0  0  0  0
   25.9564  -19.4157  -11.2355 C   0  0  0  0  0  0  0  0  0  0  0  0
   24.8648  -21.5465  -11.6815 C   0  0  2  0  0  0  0  0  0  0  0  0
   24.8122  -22.9638  -11.3984 N   0  0  0  0  0  0  0  0  0  0  0  0
   25.0551  -21.3523  -13.1397 C   0  0  0  0  0  0  0  0  0  0  0  0
   26.0319  -21.8354  -13.7723 O   0  0  0  0  0  0  0  0  0  0  0  0
   20.9161  -22.8642  -17.1568 C   0  0  0  0  0  0  0  0  0  0  0  0
   21.8466  -21.8698  -18.3533 S   0  0  0  0  0  0  0  0  0  0  0  0
   23.2111  -20.9834  -17.5154 C   0  0  0  0  0  0  0  0  0  0  0  0
   23.1011  -21.1090  -16.0287 C   0  0  0  0  0  0  0  0  0  0  0  0
   24.2189  -20.4157  -15.3496 C   0  0  2  0  0  0  0  0  0  0  0  0
   24.1306  -20.6022  -13.8965 N   0  0  0  0  0  0  0  0  0  0  0  0
   24.1907  -18.9755  -15.5768 C   0  0  0  0  0  0  0  0  0  0  0  0
   23.4379  -18.2508  -14.8386 O   0  0  0  0  0  0  0  0  0  0  0  0
   26.8517  -15.5763  -14.9456 C   0  0  0  0  0  0  0  0  0  0  0  0
   27.1996  -16.3404  -16.2023 C   0  0  2  0  0  0  0  0  0  0  0  0
   28.5615  -16.0837  -16.7309 C   0  0  0  0  0  0  0  0  0  0  0  0
   26.1271  -16.4077  -17.2156 C   0  0  0  0  0  0  0  0  0  0  0  0
   24.7711  -16.8602  -16.7871 C   0  0  2  0  0  0  0  0  0  0  0  0
   24.9419  -18.3209  -16.5474 N   0  0  0  0  0  0  0  0  0  0  0  0
   23.6748  -16.6330  -17.7179 C   0  0  0  0  0  0  0  0  0  0  0  0
   22.9255  -15.4522  -17.8099 O   0  0  0  0  0  0  0  0  0  0  0  0
   23.3300  -17.5391  -18.5230 O   0  0  0  0  0  0  0  0  0  0  0  0
  1  2  1  0
  3  4  1  1
  3  2  1  0
  5  3  1  0
  5  6  1  6
  7  5  1  0
  8  7  2  0
 10 11  1  0
 10  9  1  0
 11 12  1  0
 13 12  1  6
 13 14  1  0
 14  7  1  0
 15 22  1  0
 15 13  1  0
 16 15  2  0
 18 19  1  6
 18 17  1  0
 20 18  1  0
 21 20  1  6
 21 22  1  0
 23 24  1  0
 23 21  1  0
 25 23  2  0
M  END
$$$$
