IML.pdb
     RDKit          3D

 25 24  0  0  1  0  0  0  0  0999 V2000
   27.7131  -15.5658  -16.3624 C   0  0  0  0  0  0  0  0  0  0  0  0
   27.1227  -16.9397  -16.2990 C   0  0  0  0  0  0  0  0  0  0  0  0
   26.6842  -17.3454  -14.9153 C   0  0  2  0  0  0  0  0  0  0  0  0
   27.8007  -17.4903  -13.9416 C   0  0  0  0  0  0  0  0  0  0  0  0
   25.9906  -18.6944  -15.0392 C   0  0  2  0  0  0  0  0  0  0  0  0
   24.9437  -18.6594  -16.0364 N   0  0  0  0  0  0  0  0  0  0  0  0
   25.4128  -19.1411  -13.7482 C   0  0  0  0  0  0  0  0  0  0  0  0
   24.3450  -18.6671  -13.2762 O   0  0  0  0  0  0  0  0  0  0  0  0
   22.7125  -24.4577  -14.7252 C   0  0  0  0  0  0  0  0  0  0  0  0
   23.8377  -24.2186  -13.3242 S   0  0  0  0  0  0  0  0  0  0  0  0
   24.1258  -22.4336  -13.0406 C   0  0  0  0  0  0  0  0  0  0  0  0
   25.2254  -22.2172  -12.0495 C   0  0  0  0  0  0  0  0  0  0  0  0
   25.4444  -20.7743  -11.8009 C   0  0  2  0  0  0  0  0  0  0  0  0
   26.0480  -20.1374  -12.9773 N   0  0  0  0  0  0  0  0  0  0  0  0
   26.3660  -20.5414  -10.6951 C   0  0  0  0  0  0  0  0  0  0  0  0
   27.6151  -20.7456  -10.8818 O   0  0  0  0  0  0  0  0  0  0  0  0
   29.0434  -20.3973   -6.3656 C   0  0  0  0  0  0  0  0  0  0  0  0
   28.2251  -19.1460   -6.5867 C   0  0  2  0  0  0  0  0  0  0  0  0
   27.6011  -18.5851   -5.3636 C   0  0  0  0  0  0  0  0  0  0  0  0
   27.3671  -19.1589   -7.7889 C   0  0  0  0  0  0  0  0  0  0  0  0
   26.7726  -20.4565   -8.2245 C   0  0  2  0  0  0  0  0  0  0  0  0
   25.9805  -20.0976   -9.4345 N   0  0  0  0  0  0  0  0  0  0  0  0
   25.9272  -21.1508   -7.2636 C   0  0  0  0  0  0  0  0  0  0  0  0
   26.3911  -21.9104   -6.1811 O   0  0  0  0  0  0  0  0  0  0  0  0
   24.6727  -21.0996   -7.3714 O   0  0  0  0  0  0  0  0  0  0  0  0
  1  2  1  0
  3  4  1  1
  3  2  1  0
  5  3  1  0
  5  6  1  6
  7  5  1  0
  8  7  2  0
 10 11  1  0
 10  9  1  0
 11 12  1  0
 13 12  1  6
 13 14  1  0
 14  7  1  0
 15 22  1  0
 15 13  1  0
 16 15  2  0
 18 19  1  1
 18 17  1  0
 20 18  1  0
 21 20  1  1
 21 22  1  0
 23 24  1  0
 23 21  1  0
 25 23  2  0
M  END
$$$$
