IML.pdb
     RDKit          3D

 25 24  0  0  1  0  0  0  0  0999 V2000
   19.3408  -22.3022  -15.1381 C   0  0  0  0  0  0  0  0  0  0  0  0
   19.7631  -21.9261  -13.7523 C   0  0  0  0  0  0  0  0  0  0  0  0
   21.1860  -21.4367  -13.6664 C   0  0  2  0  0  0  0  0  0  0  0  0
   22.1982  -22.4261  -14.1269 C   0  0  0  0  0  0  0  0  0  0  0  0
   21.4674  -21.1223  -12.2042 C   0  0  2  0  0  0  0  0  0  0  0  0
   20.4615  -20.2427  -11.6509 N   0  0  0  0  0  0  0  0  0  0  0  0
   22.8034  -20.5056  -12.0171 C   0  0  0  0  0  0  0  0  0  0  0  0
   23.1747  -19.4754  -12.6406 O   0  0  0  0  0  0  0  0  0  0  0  0
   26.5220  -19.9644   -6.4910 C   0  0  0  0  0  0  0  0  0  0  0  0
   27.6079  -20.7571   -7.7070 S   0  0  0  0  0  0  0  0  0  0  0  0
   27.0148  -20.4146   -9.4042 C   0  0  0  0  0  0  0  0  0  0  0  0
   25.6126  -20.9010   -9.5923 C   0  0  0  0  0  0  0  0  0  0  0  0
   25.1054  -20.5611  -10.9409 C   0  0  2  0  0  0  0  0  0  0  0  0
   23.7354  -21.0583  -11.1136 N   0  0  0  0  0  0  0  0  0  0  0  0
   25.8980  -21.1791  -11.9975 C   0  0  0  0  0  0  0  0  0  0  0  0
   25.3426  -22.0475  -12.7553 O   0  0  0  0  0  0  0  0  0  0  0  0
   26.2350  -17.8176  -15.8831 C   0  0  0  0  0  0  0  0  0  0  0  0
   27.0029  -19.0687  -15.5234 C   0  0  2  0  0  0  0  0  0  0  0  0
   26.9695  -20.1376  -16.5512 C   0  0  0  0  0  0  0  0  0  0  0  0
   26.8457  -19.5246  -14.1273 C   0  0  0  0  0  0  0  0  0  0  0  0
   27.7095  -20.6407  -13.6422 C   0  0  2  0  0  0  0  0  0  0  0  0
   27.2329  -20.8816  -12.2511 N   0  0  0  0  0  0  0  0  0  0  0  0
   29.1473  -20.4110  -13.6433 C   0  0  0  0  0  0  0  0  0  0  0  0
   29.9271  -20.1698  -12.5040 O   0  0  0  0  0  0  0  0  0  0  0  0
   29.7880  -20.4151  -14.7284 O   0  0  0  0  0  0  0  0  0  0  0  0
  1  2  1  0
  3  4  1  1
  3  2  1  0
  5  3  1  0
  5  6  1  6
  7  5  1  0
  8  7  2  0
 10 11  1  0
 10  9  1  0
 11 12  1  0
 13 12  1  1
 13 14  1  0
 14  7  1  0
 15 22  1  0
 15 13  1  0
 16 15  2  0
 18 19  1  6
 18 17  1  0
 20 18  1  0
 21 20  1  1
 21 22  1  0
 23 24  1  0
 23 21  1  0
 25 23  2  0
M  END
$$$$
