IML.pdb
     RDKit          3D

 25 24  0  0  1  0  0  0  0  0999 V2000
   27.8696  -18.5309  -18.3696 C   0  0  0  0  0  0  0  0  0  0  0  0
   28.3221  -19.4067  -17.2433 C   0  0  0  0  0  0  0  0  0  0  0  0
   27.2090  -19.8204  -16.3152 C   0  0  2  0  0  0  0  0  0  0  0  0
   26.5102  -18.6821  -15.6584 C   0  0  0  0  0  0  0  0  0  0  0  0
   27.8278  -20.6839  -15.2254 C   0  0  2  0  0  0  0  0  0  0  0  0
   28.5144  -21.8272  -15.7848 N   0  0  0  0  0  0  0  0  0  0  0  0
   26.8143  -21.1583  -14.2519 C   0  0  0  0  0  0  0  0  0  0  0  0
   26.0408  -22.1251  -14.4860 O   0  0  0  0  0  0  0  0  0  0  0  0
   27.6602  -20.2683   -7.9084 C   0  0  0  0  0  0  0  0  0  0  0  0
   25.8552  -20.4346   -7.8963 S   0  0  0  0  0  0  0  0  0  0  0  0
   25.2559  -20.9549   -9.5456 C   0  0  0  0  0  0  0  0  0  0  0  0
   26.2429  -20.6009  -10.6127 C   0  0  0  0  0  0  0  0  0  0  0  0
   25.7468  -20.9936  -11.9510 C   0  0  2  0  0  0  0  0  0  0  0  0
   26.6701  -20.5337  -12.9951 N   0  0  0  0  0  0  0  0  0  0  0  0
   24.4549  -20.3902  -12.2566 C   0  0  0  0  0  0  0  0  0  0  0  0
   24.4212  -19.1706  -12.6417 O   0  0  0  0  0  0  0  0  0  0  0  0
   22.8172  -21.7512  -16.0037 C   0  0  0  0  0  0  0  0  0  0  0  0
   21.7684  -21.2982  -15.0142 C   0  0  2  0  0  0  0  0  0  0  0  0
   20.4024  -21.1573  -15.5746 C   0  0  0  0  0  0  0  0  0  0  0  0
   22.1923  -20.2220  -14.0956 C   0  0  0  0  0  0  0  0  0  0  0  0
   21.9779  -20.4116  -12.6310 C   0  0  2  0  0  0  0  0  0  0  0  0
   23.2379  -21.0577  -12.1669 N   0  0  0  0  0  0  0  0  0  0  0  0
   20.8303  -21.2132  -12.2303 C   0  0  0  0  0  0  0  0  0  0  0  0
   20.8786  -22.5646  -11.8623 O   0  0  0  0  0  0  0  0  0  0  0  0
   19.6798  -20.6999  -12.1989 O   0  0  0  0  0  0  0  0  0  0  0  0
  1  2  1  0
  3  4  1  1
  3  2  1  0
  5  3  1  0
  5  6  1  6
  7  5  1  0
  8  7  2  0
 10 11  1  0
 10  9  1  0
 11 12  1  0
 13 12  1  1
 13 14  1  0
 14  7  1  0
 15 22  1  0
 15 13  1  0
 16 15  2  0
 18 19  1  6
 18 17  1  0
 20 18  1  0
 21 20  1  6
 21 22  1  0
 23 24  1  0
 23 21  1  0
 25 23  2  0
M  END
$$$$
