IML.pdb
     RDKit          3D

 25 24  0  0  1  0  0  0  0  0999 V2000
   20.4759  -19.4303  -12.2188 C   0  0  0  0  0  0  0  0  0  0  0  0
   21.8565  -19.6930  -12.7338 C   0  0  0  0  0  0  0  0  0  0  0  0
   22.7543  -20.3755  -11.7339 C   0  0  2  0  0  0  0  0  0  0  0  0
   22.9427  -19.6158  -10.4679 C   0  0  0  0  0  0  0  0  0  0  0  0
   24.1174  -20.5404  -12.3904 C   0  0  2  0  0  0  0  0  0  0  0  0
   24.0239  -21.3040  -13.6151 N   0  0  0  0  0  0  0  0  0  0  0  0
   25.0925  -21.1966  -11.4856 C   0  0  0  0  0  0  0  0  0  0  0  0
   25.0307  -22.4184  -11.1837 O   0  0  0  0  0  0  0  0  0  0  0  0
   31.3582  -20.6766  -12.0238 C   0  0  0  0  0  0  0  0  0  0  0  0
   31.0337  -22.1388  -11.0028 S   0  0  0  0  0  0  0  0  0  0  0  0
   29.5026  -21.9037  -10.0279 C   0  0  0  0  0  0  0  0  0  0  0  0
   28.4699  -21.1645  -10.8185 C   0  0  0  0  0  0  0  0  0  0  0  0
   27.1980  -21.0577  -10.0685 C   0  0  2  0  0  0  0  0  0  0  0  0
   26.1537  -20.4648  -10.9123 N   0  0  0  0  0  0  0  0  0  0  0  0
   27.3193  -20.1904   -8.9025 C   0  0  0  0  0  0  0  0  0  0  0  0
   27.0435  -18.9475   -9.0289 O   0  0  0  0  0  0  0  0  0  0  0  0
   26.3933  -18.7355   -4.1930 C   0  0  0  0  0  0  0  0  0  0  0  0
   26.7184  -20.1943   -4.4177 C   0  0  2  0  0  0  0  0  0  0  0  0
   26.6439  -21.0436   -3.2040 C   0  0  0  0  0  0  0  0  0  0  0  0
   27.8708  -20.4533   -5.3046 C   0  0  0  0  0  0  0  0  0  0  0  0
   28.0019  -19.6478   -6.5540 C   0  0  2  0  0  0  0  0  0  0  0  0
   27.7106  -20.6250   -7.6405 N   0  0  0  0  0  0  0  0  0  0  0  0
   29.2864  -19.0053   -6.7932 C   0  0  0  0  0  0  0  0  0  0  0  0
   29.6715  -17.7569   -6.2859 O   0  0  0  0  0  0  0  0  0  0  0  0
   30.1543  -19.5727   -7.5095 O   0  0  0  0  0  0  0  0  0  0  0  0
  1  2  1  0
  3  4  1  1
  3  2  1  0
  5  3  1  0
  5  6  1  6
  7  5  1  0
  8  7  2  0
 10 11  1  0
 10  9  1  0
 11 12  1  0
 13 12  1  6
 13 14  1  0
 14  7  1  0
 15 22  1  0
 15 13  1  0
 16 15  2  0
 18 19  1  1
 18 17  1  0
 20 18  1  0
 21 20  1  1
 21 22  1  0
 23 24  1  0
 23 21  1  0
 25 23  2  0
M  END
$$$$
