IML.pdb
     RDKit          3D

 25 24  0  0  1  0  0  0  0  0999 V2000
   27.9475  -17.2296  -17.5101 C   0  0  0  0  0  0  0  0  0  0  0  0
   28.4216  -18.2430  -16.5158 C   0  0  0  0  0  0  0  0  0  0  0  0
   27.3129  -18.8436  -15.6902 C   0  0  2  0  0  0  0  0  0  0  0  0
   26.5942  -17.8628  -14.8316 C   0  0  0  0  0  0  0  0  0  0  0  0
   27.9427  -19.8901  -14.7823 C   0  0  2  0  0  0  0  0  0  0  0  0
   28.6958  -20.8631  -15.5424 N   0  0  0  0  0  0  0  0  0  0  0  0
   26.9274  -20.5975  -13.9643 C   0  0  0  0  0  0  0  0  0  0  0  0
   26.1745  -21.4928  -14.4327 O   0  0  0  0  0  0  0  0  0  0  0  0
   26.7096  -19.6777   -7.5299 C   0  0  0  0  0  0  0  0  0  0  0  0
   25.3990  -20.9238   -7.6548 S   0  0  0  0  0  0  0  0  0  0  0  0
   25.0658  -21.3190   -9.4105 C   0  0  0  0  0  0  0  0  0  0  0  0
   26.0112  -20.5924  -10.3141 C   0  0  0  0  0  0  0  0  0  0  0  0
   25.7516  -20.9202  -11.7342 C   0  0  2  0  0  0  0  0  0  0  0  0
   26.7579  -20.2912  -12.5977 N   0  0  0  0  0  0  0  0  0  0  0  0
   24.4586  -20.4193  -12.1858 C   0  0  0  0  0  0  0  0  0  0  0  0
   24.2669  -19.1549  -12.2211 O   0  0  0  0  0  0  0  0  0  0  0  0
   22.6598  -18.9667  -15.5384 C   0  0  0  0  0  0  0  0  0  0  0  0
   22.7396  -20.4749  -15.4821 C   0  0  2  0  0  0  0  0  0  0  0  0
   22.7018  -21.1507  -16.8019 C   0  0  0  0  0  0  0  0  0  0  0  0
   21.9320  -21.1091  -14.4203 C   0  0  0  0  0  0  0  0  0  0  0  0
   22.1048  -20.6345  -13.0161 C   0  0  2  0  0  0  0  0  0  0  0  0
   23.4049  -21.2293  -12.5961 N   0  0  0  0  0  0  0  0  0  0  0  0
   21.0624  -20.9936  -12.0651 C   0  0  0  0  0  0  0  0  0  0  0  0
   21.1640  -22.0044  -11.0996 O   0  0  0  0  0  0  0  0  0  0  0  0
   19.9614  -20.3806  -12.0714 O   0  0  0  0  0  0  0  0  0  0  0  0
  1  2  1  0
  3  4  1  1
  3  2  1  0
  5  3  1  0
  5  6  1  6
  7  5  1  0
  8  7  2  0
 10 11  1  0
 10  9  1  0
 11 12  1  0
 13 12  1  1
 13 14  1  0
 14  7  1  0
 15 22  1  0
 15 13  1  0
 16 15  2  0
 18 19  1  6
 18 17  1  0
 20 18  1  0
 21 20  1  6
 21 22  1  0
 23 24  1  0
 23 21  1  0
 25 23  2  0
M  END
$$$$
