HWR.pdb
     RDKit          3D

 36 38  0  0  1  0  0  0  0  0999 V2000
   29.3667  -21.3446  -15.0030 N   0  0  0  0  0  0  0  0  0  0  0  0
   28.1932  -22.1955  -15.0953 C   0  0  1  0  0  0  0  0  0  0  0  0
   28.5615  -23.5326  -15.6128 C   0  0  0  0  0  0  0  0  0  0  0  0
   29.7906  -23.3761  -16.4510 C   0  0  0  0  0  0  0  0  0  0  0  0
   31.0022  -23.9994  -16.2336 C   0  0  0  0  0  0  0  0  0  0  0  0
   31.8813  -23.6185  -17.1948 N   0  0  0  0  0  0  0  0  0  0  0  0
   31.2303  -22.7661  -18.0065 C   0  0  0  0  0  0  0  0  0  0  0  0
   29.9778  -22.6269  -17.5527 N   0  0  0  0  0  0  0  0  0  0  0  0
   27.4796  -22.1536  -13.8319 C   0  0  0  0  0  0  0  0  0  0  0  0
   26.3859  -22.7984  -13.7519 O   0  0  0  0  0  0  0  0  0  0  0  0
   27.8812  -21.4602  -12.6672 N   0  0  0  0  0  0  0  0  0  0  0  0
   27.1031  -21.4289  -11.4702 C   0  0  1  0  0  0  0  0  0  0  0  0
   27.9403  -21.1814  -10.2330 C   0  0  0  0  0  0  0  0  0  0  0  0
   27.0942  -20.8574   -9.0521 C   0  0  0  0  0  0  0  0  0  0  0  0
   25.7459  -20.8843   -8.8770 C   0  0  0  0  0  0  0  0  0  0  0  0
   25.4679  -20.5013   -7.6247 N   0  0  0  0  0  0  0  0  0  0  0  0
   26.6046  -20.2141   -6.9448 C   0  0  0  0  0  0  0  0  0  0  0  0
   26.8582  -19.7894   -5.6635 C   0  0  0  0  0  0  0  0  0  0  0  0
   28.1310  -19.5711   -5.2239 C   0  0  0  0  0  0  0  0  0  0  0  0
   29.1725  -19.7871   -6.0995 C   0  0  0  0  0  0  0  0  0  0  0  0
   28.9170  -20.2101   -7.3754 C   0  0  0  0  0  0  0  0  0  0  0  0
   27.6260  -20.4363   -7.8366 C   0  0  0  0  0  0  0  0  0  0  0  0
   26.0418  -20.3852  -11.5030 C   0  0  0  0  0  0  0  0  0  0  0  0
   26.3573  -19.1772  -11.6428 O   0  0  0  0  0  0  0  0  0  0  0  0
   20.7807  -20.9488  -17.0101 N   0  0  0  0  0  0  0  0  0  0  0  0
   21.2661  -19.6179  -16.8176 C   0  0  0  0  0  0  0  0  0  0  0  0
   20.5475  -18.6375  -17.2314 N   0  0  0  0  0  0  0  0  0  0  0  0
   22.5020  -19.3563  -16.1909 N   0  0  0  0  0  0  0  0  0  0  0  0
   23.3315  -20.4171  -15.6854 C   0  0  0  0  0  0  0  0  0  0  0  0
   23.1243  -20.6319  -14.2010 C   0  0  0  0  0  0  0  0  0  0  0  0
   23.8004  -19.5521  -13.3816 C   0  0  0  0  0  0  0  0  0  0  0  0
   23.6079  -19.8449  -11.9035 C   0  0  2  0  0  0  0  0  0  0  0  0
   24.6568  -20.6831  -11.3823 N   0  0  0  0  0  0  0  0  0  0  0  0
   22.3131  -20.4983  -11.6396 C   0  0  0  0  0  0  0  0  0  0  0  0
   22.2741  -21.7210  -11.3836 O   0  0  0  0  0  0  0  0  0  0  0  0
   21.1311  -19.7897  -11.6678 O   0  0  0  0  0  0  0  0  0  0  0  0
  2  3  1  0
  2  1  1  1
  4  8  1  0
  4  3  1  0
  5  4  2  0
  6  5  1  0
  6  7  1  0
  7  8  2  0
  9  2  1  0
 10  9  2  0
 11  9  1  0
 12 11  1  0
 12 13  1  1
 13 14  1  0
 14 15  2  0
 15 16  1  0
 17 18  2  0
 17 16  1  0
 19 18  1  0
 20 19  2  0
 21 20  1  0
 21 22  2  0
 22 14  1  0
 22 17  1  0
 23 24  2  0
 23 12  1  0
 25 26  1  0
 26 28  1  0
 26 27  2  0
 28 29  1  0
 30 29  1  0
 30 31  1  0
 32 31  1  6
 32 33  1  0
 33 23  1  0
 34 32  1  0
 35 34  2  0
 36 34  1  0
M  END
$$$$
