HWR.pdb
     RDKit          3D

 36 38  0  0  1  0  0  0  0  0999 V2000
   28.5369  -20.9781  -14.3923 N   0  0  0  0  0  0  0  0  0  0  0  0
   27.7080  -20.0078  -13.6987 C   0  0  1  0  0  0  0  0  0  0  0  0
   26.9315  -19.2021  -14.6678 C   0  0  0  0  0  0  0  0  0  0  0  0
   27.9007  -18.3960  -15.4730 C   0  0  0  0  0  0  0  0  0  0  0  0
   28.8235  -17.5022  -14.9696 C   0  0  0  0  0  0  0  0  0  0  0  0
   29.5285  -16.9602  -15.9947 N   0  0  0  0  0  0  0  0  0  0  0  0
   29.0546  -17.5066  -17.1289 C   0  0  0  0  0  0  0  0  0  0  0  0
   28.0792  -18.3659  -16.8062 N   0  0  0  0  0  0  0  0  0  0  0  0
   26.9575  -20.6868  -12.6580 C   0  0  0  0  0  0  0  0  0  0  0  0
   26.4713  -21.8296  -12.9333 O   0  0  0  0  0  0  0  0  0  0  0  0
   26.7088  -20.2010  -11.3539 N   0  0  0  0  0  0  0  0  0  0  0  0
   25.7174  -20.7574  -10.4897 C   0  0  1  0  0  0  0  0  0  0  0  0
   25.9298  -20.3849   -9.0374 C   0  0  0  0  0  0  0  0  0  0  0  0
   27.3048  -20.7224   -8.5785 C   0  0  0  0  0  0  0  0  0  0  0  0
   28.2865  -21.4688   -9.1513 C   0  0  0  0  0  0  0  0  0  0  0  0
   29.3505  -21.4751   -8.3389 N   0  0  0  0  0  0  0  0  0  0  0  0
   29.1091  -20.7454   -7.2227 C   0  0  0  0  0  0  0  0  0  0  0  0
   29.8556  -20.4453   -6.1095 C   0  0  0  0  0  0  0  0  0  0  0  0
   29.3574  -19.6669   -5.1061 C   0  0  0  0  0  0  0  0  0  0  0  0
   28.0745  -19.1800   -5.2301 C   0  0  0  0  0  0  0  0  0  0  0  0
   27.3332  -19.4807   -6.3400 C   0  0  0  0  0  0  0  0  0  0  0  0
   27.8276  -20.2720   -7.3695 C   0  0  0  0  0  0  0  0  0  0  0  0
   24.3364  -20.3393  -10.8568 C   0  0  0  0  0  0  0  0  0  0  0  0
   24.0138  -19.1265  -10.7972 O   0  0  0  0  0  0  0  0  0  0  0  0
   22.5649  -26.3820  -14.0729 N   0  0  0  0  0  0  0  0  0  0  0  0
   21.2612  -25.7995  -14.1460 C   0  0  0  0  0  0  0  0  0  0  0  0
   20.2409  -26.5541  -13.9502 N   0  0  0  0  0  0  0  0  0  0  0  0
   21.0687  -24.4306  -14.4250 N   0  0  0  0  0  0  0  0  0  0  0  0
   22.1740  -23.5136  -14.5038 C   0  0  0  0  0  0  0  0  0  0  0  0
   22.4364  -22.8364  -13.1752 C   0  0  0  0  0  0  0  0  0  0  0  0
   21.6560  -21.5449  -13.0440 C   0  0  0  0  0  0  0  0  0  0  0  0
   22.0289  -20.8598  -11.7403 C   0  0  2  0  0  0  0  0  0  0  0  0
   23.3357  -21.2555  -11.2819 N   0  0  0  0  0  0  0  0  0  0  0  0
   21.0529  -21.1466  -10.6734 C   0  0  0  0  0  0  0  0  0  0  0  0
   21.4008  -21.8124   -9.6745 O   0  0  0  0  0  0  0  0  0  0  0  0
   19.7525  -20.6956  -10.7482 O   0  0  0  0  0  0  0  0  0  0  0  0
  2  3  1  0
  2  1  1  6
  4  8  1  0
  4  3  1  0
  5  4  2  0
  6  5  1  0
  6  7  1  0
  7  8  2  0
  9  2  1  0
 10  9  2  0
 11  9  1  0
 12 11  1  0
 12 13  1  1
 13 14  1  0
 14 15  2  0
 15 16  1  0
 17 18  2  0
 17 16  1  0
 19 18  1  0
 20 19  2  0
 21 20  1  0
 21 22  2  0
 22 14  1  0
 22 17  1  0
 23 24  2  0
 23 12  1  0
 25 26  1  0
 26 28  1  0
 26 27  2  0
 28 29  1  0
 30 29  1  0
 30 31  1  0
 32 31  1  6
 32 33  1  0
 33 23  1  0
 34 32  1  0
 35 34  2  0
 36 34  1  0
M  END
$$$$
