HWR.pdb
     RDKit          3D

 36 38  0  0  1  0  0  0  0  0999 V2000
   28.4212  -21.2764  -15.5872 N   0  0  0  0  0  0  0  0  0  0  0  0
   27.8064  -20.2232  -14.7983 C   0  0  1  0  0  0  0  0  0  0  0  0
   27.2717  -19.1603  -15.6791 C   0  0  0  0  0  0  0  0  0  0  0  0
   28.4324  -18.4877  -16.3408 C   0  0  0  0  0  0  0  0  0  0  0  0
   29.2146  -17.4949  -15.7874 C   0  0  0  0  0  0  0  0  0  0  0  0
   30.1706  -17.1282  -16.6781 N   0  0  0  0  0  0  0  0  0  0  0  0
   29.9915  -17.8813  -17.7781 C   0  0  0  0  0  0  0  0  0  0  0  0
   28.9474  -18.6931  -17.5667 N   0  0  0  0  0  0  0  0  0  0  0  0
   26.8807  -20.8209  -13.8533 C   0  0  0  0  0  0  0  0  0  0  0  0
   26.2803  -21.8843  -14.2098 O   0  0  0  0  0  0  0  0  0  0  0  0
   26.5747  -20.3353  -12.5613 N   0  0  0  0  0  0  0  0  0  0  0  0
   25.6271  -20.9622  -11.6962 C   0  0  1  0  0  0  0  0  0  0  0  0
   25.7404  -20.4898  -10.2620 C   0  0  0  0  0  0  0  0  0  0  0  0
   27.1094  -20.7042   -9.7189 C   0  0  0  0  0  0  0  0  0  0  0  0
   28.1844  -21.3659  -10.2246 C   0  0  0  0  0  0  0  0  0  0  0  0
   29.1944  -21.2753   -9.3507 N   0  0  0  0  0  0  0  0  0  0  0  0
   28.8246  -20.5630   -8.2586 C   0  0  0  0  0  0  0  0  0  0  0  0
   29.4745  -20.1929   -7.1066 C   0  0  0  0  0  0  0  0  0  0  0  0
   28.8518  -19.4551   -6.1428 C   0  0  0  0  0  0  0  0  0  0  0  0
   27.5415  -19.0820   -6.3477 C   0  0  0  0  0  0  0  0  0  0  0  0
   26.8966  -19.4520   -7.4963 C   0  0  0  0  0  0  0  0  0  0  0  0
   27.5181  -20.2033   -8.4861 C   0  0  0  0  0  0  0  0  0  0  0  0
   24.2199  -20.7363  -12.1271 C   0  0  0  0  0  0  0  0  0  0  0  0
   23.8416  -19.5815  -12.4461 O   0  0  0  0  0  0  0  0  0  0  0  0
   17.6720  -25.1620  -16.1717 N   0  0  0  0  0  0  0  0  0  0  0  0
   19.0991  -25.0761  -16.1796 C   0  0  0  0  0  0  0  0  0  0  0  0
   19.7400  -25.6132  -17.1541 N   0  0  0  0  0  0  0  0  0  0  0  0
   19.8144  -24.4230  -15.1546 N   0  0  0  0  0  0  0  0  0  0  0  0
   19.1588  -23.9277  -13.9741 C   0  0  0  0  0  0  0  0  0  0  0  0
   19.8175  -22.6674  -13.4541 C   0  0  0  0  0  0  0  0  0  0  0  0
   21.2674  -22.9069  -13.0871 C   0  0  0  0  0  0  0  0  0  0  0  0
   21.9094  -21.5914  -12.6808 C   0  0  2  0  0  0  0  0  0  0  0  0
   23.2545  -21.7775  -12.2007 N   0  0  0  0  0  0  0  0  0  0  0  0
   21.1310  -20.9032  -11.6351 C   0  0  0  0  0  0  0  0  0  0  0  0
   20.0938  -20.2772  -11.9421 O   0  0  0  0  0  0  0  0  0  0  0  0
   21.5202  -20.9316  -10.3130 O   0  0  0  0  0  0  0  0  0  0  0  0
  2  3  1  0
  2  1  1  6
  4  8  1  0
  4  3  1  0
  5  4  2  0
  6  5  1  0
  6  7  1  0
  7  8  2  0
  9  2  1  0
 10  9  2  0
 11  9  1  0
 12 11  1  0
 12 13  1  1
 13 14  1  0
 14 15  2  0
 15 16  1  0
 17 18  2  0
 17 16  1  0
 19 18  1  0
 20 19  2  0
 21 20  1  0
 21 22  2  0
 22 14  1  0
 22 17  1  0
 23 24  2  0
 23 12  1  0
 25 26  1  0
 26 28  1  0
 26 27  2  0
 28 29  1  0
 30 29  1  0
 30 31  1  0
 32 31  1  1
 32 33  1  0
 33 23  1  0
 34 32  1  0
 35 34  2  0
 36 34  1  0
M  END
$$$$
