HWR.pdb
     RDKit          3D

 36 38  0  0  1  0  0  0  0  0999 V2000
   26.5258  -20.1715  -14.2150 N   0  0  0  0  0  0  0  0  0  0  0  0
   26.5625  -21.5823  -13.8717 C   0  0  1  0  0  0  0  0  0  0  0  0
   27.8944  -22.1545  -14.1718 C   0  0  0  0  0  0  0  0  0  0  0  0
   28.2101  -21.8530  -15.6025 C   0  0  0  0  0  0  0  0  0  0  0  0
   28.8546  -20.7253  -16.0680 C   0  0  0  0  0  0  0  0  0  0  0  0
   28.9655  -20.7974  -17.4186 N   0  0  0  0  0  0  0  0  0  0  0  0
   28.3976  -21.9563  -17.7976 C   0  0  0  0  0  0  0  0  0  0  0  0
   27.9476  -22.5822  -16.7023 N   0  0  0  0  0  0  0  0  0  0  0  0
   26.0642  -21.7517  -12.5189 C   0  0  0  0  0  0  0  0  0  0  0  0
   25.8902  -22.9403  -12.1002 O   0  0  0  0  0  0  0  0  0  0  0  0
   25.7484  -20.7173  -11.6084 N   0  0  0  0  0  0  0  0  0  0  0  0
   25.2052  -20.9594  -10.3101 C   0  0  1  0  0  0  0  0  0  0  0  0
   25.6564  -19.9391   -9.2862 C   0  0  0  0  0  0  0  0  0  0  0  0
   27.0205  -20.2411   -8.7731 C   0  0  0  0  0  0  0  0  0  0  0  0
   28.0847  -20.8562   -9.3548 C   0  0  0  0  0  0  0  0  0  0  0  0
   29.0946  -20.8888   -8.4767 N   0  0  0  0  0  0  0  0  0  0  0  0
   28.7353  -20.3061   -7.3070 C   0  0  0  0  0  0  0  0  0  0  0  0
   29.3895  -20.0884   -6.1191 C   0  0  0  0  0  0  0  0  0  0  0  0
   28.7781  -19.4605   -5.0736 C   0  0  0  0  0  0  0  0  0  0  0  0
   27.4749  -19.0426   -5.2319 C   0  0  0  0  0  0  0  0  0  0  0  0
   26.8257  -19.2609   -6.4163 C   0  0  0  0  0  0  0  0  0  0  0  0
   27.4357  -19.8989   -7.4893 C   0  0  0  0  0  0  0  0  0  0  0  0
   23.7163  -20.9651  -10.3032 C   0  0  0  0  0  0  0  0  0  0  0  0
   23.0847  -20.3443  -11.1943 O   0  0  0  0  0  0  0  0  0  0  0  0
   18.3437  -25.7484   -5.3796 N   0  0  0  0  0  0  0  0  0  0  0  0
   18.5647  -25.9091   -6.7829 C   0  0  0  0  0  0  0  0  0  0  0  0
   18.3514  -27.0609   -7.3090 N   0  0  0  0  0  0  0  0  0  0  0  0
   19.0065  -24.8455   -7.5967 N   0  0  0  0  0  0  0  0  0  0  0  0
   18.8654  -23.4736   -7.1884 C   0  0  0  0  0  0  0  0  0  0  0  0
   19.4572  -22.5220   -8.2067 C   0  0  0  0  0  0  0  0  0  0  0  0
   20.9700  -22.5955   -8.2251 C   0  0  0  0  0  0  0  0  0  0  0  0
   21.5077  -21.6661   -9.2997 C   0  0  2  0  0  0  0  0  0  0  0  0
   22.9477  -21.6496   -9.3222 N   0  0  0  0  0  0  0  0  0  0  0  0
   21.0275  -20.2843   -9.1177 C   0  0  0  0  0  0  0  0  0  0  0  0
   21.7011  -19.4752   -8.4442 O   0  0  0  0  0  0  0  0  0  0  0  0
   19.8426  -19.8554   -9.6763 O   0  0  0  0  0  0  0  0  0  0  0  0
  2  3  1  0
  2  1  1  1
  4  8  1  0
  4  3  1  0
  5  4  2  0
  6  5  1  0
  6  7  1  0
  7  8  2  0
  9  2  1  0
 10  9  2  0
 11  9  1  0
 12 11  1  0
 12 13  1  1
 13 14  1  0
 14 15  2  0
 15 16  1  0
 17 18  2  0
 17 16  1  0
 19 18  1  0
 20 19  2  0
 21 20  1  0
 21 22  2  0
 22 14  1  0
 22 17  1  0
 23 24  2  0
 23 12  1  0
 25 26  1  0
 26 28  1  0
 26 27  2  0
 28 29  1  0
 30 29  1  0
 30 31  1  0
 32 31  1  1
 32 33  1  0
 33 23  1  0
 34 32  1  0
 35 34  2  0
 36 34  1  0
M  END
$$$$
