HWR.pdb
     RDKit          3D

 36 38  0  0  1  0  0  0  0  0999 V2000
   27.6827  -21.5378  -13.0483 N   0  0  0  0  0  0  0  0  0  0  0  0
   26.7791  -20.5177  -12.5458 C   0  0  1  0  0  0  0  0  0  0  0  0
   25.8671  -20.0592  -13.6179 C   0  0  0  0  0  0  0  0  0  0  0  0
   26.6723  -19.2595  -14.5925 C   0  0  0  0  0  0  0  0  0  0  0  0
   27.1018  -19.6892  -15.8312 C   0  0  0  0  0  0  0  0  0  0  0  0
   27.8035  -18.6951  -16.4323 N   0  0  0  0  0  0  0  0  0  0  0  0
   27.8149  -17.6532  -15.5817 C   0  0  0  0  0  0  0  0  0  0  0  0
   27.1345  -18.0008  -14.4817 N   0  0  0  0  0  0  0  0  0  0  0  0
   26.1650  -20.9940  -11.3198 C   0  0  0  0  0  0  0  0  0  0  0  0
   26.0823  -22.2524  -11.1531 O   0  0  0  0  0  0  0  0  0  0  0  0
   25.6429  -20.1916  -10.2795 N   0  0  0  0  0  0  0  0  0  0  0  0
   25.0557  -20.7332   -9.0958 C   0  0  1  0  0  0  0  0  0  0  0  0
   25.0367  -19.7473   -7.9467 C   0  0  0  0  0  0  0  0  0  0  0  0
   26.4126  -19.3880   -7.5075 C   0  0  0  0  0  0  0  0  0  0  0  0
   27.3469  -18.5669   -8.0572 C   0  0  0  0  0  0  0  0  0  0  0  0
   28.4370  -18.5760   -7.2803 N   0  0  0  0  0  0  0  0  0  0  0  0
   28.2603  -19.3897   -6.2110 C   0  0  0  0  0  0  0  0  0  0  0  0
   29.0544  -19.7367   -5.1455 C   0  0  0  0  0  0  0  0  0  0  0  0
   28.6187  -20.6003   -4.1835 C   0  0  0  0  0  0  0  0  0  0  0  0
   27.3505  -21.1259   -4.3007 C   0  0  0  0  0  0  0  0  0  0  0  0
   26.5617  -20.7785   -5.3633 C   0  0  0  0  0  0  0  0  0  0  0  0
   26.9922  -19.9004   -6.3502 C   0  0  0  0  0  0  0  0  0  0  0  0
   23.6555  -21.1926   -9.3086 C   0  0  0  0  0  0  0  0  0  0  0  0
   23.1397  -21.1168  -10.4516 O   0  0  0  0  0  0  0  0  0  0  0  0
   17.6581  -25.8704   -4.2992 N   0  0  0  0  0  0  0  0  0  0  0  0
   17.1021  -25.6001   -5.5884 C   0  0  0  0  0  0  0  0  0  0  0  0
   15.9284  -26.0471   -5.8556 N   0  0  0  0  0  0  0  0  0  0  0  0
   17.8027  -24.8623   -6.5649 N   0  0  0  0  0  0  0  0  0  0  0  0
   19.0979  -24.2964   -6.2982 C   0  0  0  0  0  0  0  0  0  0  0  0
   19.6671  -23.6004   -7.5165 C   0  0  0  0  0  0  0  0  0  0  0  0
   21.0180  -22.9808   -7.2243 C   0  0  0  0  0  0  0  0  0  0  0  0
   21.5481  -22.3099   -8.4799 C   0  0  2  0  0  0  0  0  0  0  0  0
   22.8473  -21.7255   -8.2673 N   0  0  0  0  0  0  0  0  0  0  0  0
   20.6362  -21.2579   -8.9642 C   0  0  0  0  0  0  0  0  0  0  0  0
   20.7118  -20.1032   -8.4919 O   0  0  0  0  0  0  0  0  0  0  0  0
   19.6918  -21.5156   -9.9347 O   0  0  0  0  0  0  0  0  0  0  0  0
  2  3  1  0
  2  1  1  6
  4  8  1  0
  4  3  1  0
  5  4  2  0
  6  5  1  0
  6  7  1  0
  7  8  2  0
  9  2  1  0
 10  9  2  0
 11  9  1  0
 12 11  1  0
 12 13  1  1
 13 14  1  0
 14 15  2  0
 15 16  1  0
 17 18  2  0
 17 16  1  0
 19 18  1  0
 20 19  2  0
 21 20  1  0
 21 22  2  0
 22 14  1  0
 22 17  1  0
 23 24  2  0
 23 12  1  0
 25 26  1  0
 26 28  1  0
 26 27  2  0
 28 29  1  0
 30 29  1  0
 30 31  1  0
 32 31  1  1
 32 33  1  0
 33 23  1  0
 34 32  1  0
 35 34  2  0
 36 34  1  0
M  END
$$$$
