RNW.pdb
     RDKit          3D

 34 35  0  0  1  0  0  0  0  0999 V2000
    9.7963  -14.1137   18.5006 N   0  0  0  0  0  0  0  0  0  0  0  0
    8.7835  -13.4868   17.7051 C   0  0  0  0  0  0  0  0  0  0  0  0
    8.7734  -13.6342   16.4164 N   0  0  0  0  0  0  0  0  0  0  0  0
    7.7853  -12.6973   18.3286 N   0  0  0  0  0  0  0  0  0  0  0  0
    7.1915  -13.0832   19.6219 C   0  0  0  0  0  0  0  0  0  0  0  0
    8.0663  -14.1711   20.1648 C   0  0  0  0  0  0  0  0  0  0  0  0
    7.5407  -14.7217   21.4322 C   0  0  0  0  0  0  0  0  0  0  0  0
    7.3507  -16.1894   21.5314 C   0  0  2  0  0  0  0  0  0  0  0  0
    6.0415  -16.6680   21.8175 N   0  0  0  0  0  0  0  0  0  0  0  0
    8.2721  -16.6992   22.6063 C   0  0  0  0  0  0  0  0  0  0  0  0
    7.6966  -17.0164   23.6908 O   0  0  0  0  0  0  0  0  0  0  0  0
    8.0558  -13.2384   15.8136 N   0  0  0  0  0  0  0  0  0  0  0  0
   13.0168  -19.6295   24.1530 C   0  0  0  0  0  0  0  0  0  0  0  0
   12.7807  -18.2278   23.9662 O   0  0  0  0  0  0  0  0  0  0  0  0
   13.4386  -17.4448   24.6953 C   0  0  0  0  0  0  0  0  0  0  0  0
   11.8359  -17.6995   22.9925 C   0  0  1  0  0  0  0  0  0  0  0  0
   10.4531  -17.4068   23.5027 N   0  0  0  0  0  0  0  0  0  0  0  0
    9.6705  -16.8220   22.4430 C   0  0  0  0  0  0  0  0  0  0  0  0
   10.5906  -16.4613   24.6595 O   0  0  0  0  0  0  0  0  0  0  0  0
   11.2395  -15.4096   24.4827 N   0  0  0  0  0  0  0  0  0  0  0  0
   10.0238  -16.7104   25.9291 C   0  0  1  0  0  0  0  0  0  0  0  0
   10.5305  -16.2190   27.1949 C   0  0  0  0  0  0  0  0  0  0  0  0
    9.8809  -14.9643   27.6211 C   0  0  0  0  0  0  0  0  0  0  0  0
    8.5325  -14.8083   27.0585 C   0  0  0  0  0  0  0  0  0  0  0  0
    7.6376  -15.7785   26.6570 N   0  0  0  0  0  0  0  0  0  0  0  0
    6.5260  -15.1797   26.1687 C   0  0  0  0  0  0  0  0  0  0  0  0
    6.6742  -13.8507   26.2425 C   0  0  0  0  0  0  0  0  0  0  0  0
    5.8654  -12.7602   25.9083 C   0  0  0  0  0  0  0  0  0  0  0  0
    6.2655  -11.4565   26.1109 C   0  0  0  0  0  0  0  0  0  0  0  0
    7.5064  -11.2294   26.6622 C   0  0  0  0  0  0  0  0  0  0  0  0
    8.3211  -12.3015   26.9985 C   0  0  0  0  0  0  0  0  0  0  0  0
    7.9035  -13.5934   26.7878 C   0  0  0  0  0  0  0  0  0  0  0  0
   10.8033  -17.2272   28.2097 O   0  0  0  0  0  0  0  0  0  0  0  0
   10.4777  -18.5711   28.1419 O   0  0  0  0  0  0  0  0  0  0  0  0
  1  2  1  0
  2  3  2  0
  4  2  1  0
  5  4  1  0
  6  5  1  0
  7  6  1  0
  8  9  1  1
  8  7  1  0
 10  8  1  0
 11 10  2  0
 13 15  1  0
 13 12  1  0
 14 13  2  0
 16 15  1  6
 16 17  1  0
 17 10  1  0
 18 16  1  0
 18 19  2  0
 20 18  1  0
 21 20  1  0
 21 22  1  1
 23 22  1  0
 23 31  1  0
 24 25  1  0
 24 23  2  0
 25 26  1  0
 26 31  2  0
 26 27  1  0
 27 28  2  0
 28 29  1  0
 30 29  2  0
 31 30  1  0
 32 21  1  0
 33 32  1  0
 34 32  2  0
M  END
$$$$
