RNW.pdb
     RDKit          3D

 34 35  0  0  1  0  0  0  0  0999 V2000
    8.7963  -12.7566   17.5551 N   0  0  0  0  0  0  0  0  0  0  0  0
    8.0545  -13.5060   16.5858 C   0  0  0  0  0  0  0  0  0  0  0  0
    7.2893  -12.9009   15.7307 N   0  0  0  0  0  0  0  0  0  0  0  0
    8.1542  -14.9195   16.5602 N   0  0  0  0  0  0  0  0  0  0  0  0
    8.4774  -15.6929   17.7733 C   0  0  0  0  0  0  0  0  0  0  0  0
    7.2011  -15.7841   18.5518 C   0  0  0  0  0  0  0  0  0  0  0  0
    7.3776  -16.5294   19.8164 C   0  0  0  0  0  0  0  0  0  0  0  0
    8.5918  -16.2583   20.6242 C   0  0  2  0  0  0  0  0  0  0  0  0
    9.7808  -16.9631   20.2861 N   0  0  0  0  0  0  0  0  0  0  0  0
    8.2656  -16.5682   22.0601 C   0  0  0  0  0  0  0  0  0  0  0  0
    7.2633  -15.9440   22.5222 O   0  0  0  0  0  0  0  0  0  0  0  0
    6.7412  -13.3895   15.0266 N   0  0  0  0  0  0  0  0  0  0  0  0
    6.5012  -20.7418   23.7391 C   0  0  0  0  0  0  0  0  0  0  0  0
    7.1317  -19.7898   24.6060 O   0  0  0  0  0  0  0  0  0  0  0  0
    6.4728  -19.4204   25.6094 C   0  0  0  0  0  0  0  0  0  0  0  0
    8.4654  -19.2552   24.3704 C   0  0  2  0  0  0  0  0  0  0  0  0
    8.5598  -17.7662   24.1906 N   0  0  0  0  0  0  0  0  0  0  0  0
    9.0044  -17.4776   22.8504 C   0  0  0  0  0  0  0  0  0  0  0  0
    9.5349  -17.2506   25.2077 O   0  0  0  0  0  0  0  0  0  0  0  0
   10.6555  -17.7969   25.2744 N   0  0  0  0  0  0  0  0  0  0  0  0
    9.2398  -16.1847   26.0861 C   0  0  1  0  0  0  0  0  0  0  0  0
    9.9276  -15.8947   27.3284 C   0  0  0  0  0  0  0  0  0  0  0  0
    9.2211  -14.8941   28.1516 C   0  0  0  0  0  0  0  0  0  0  0  0
    7.9939  -14.4019   27.5106 C   0  0  0  0  0  0  0  0  0  0  0  0
    6.7555  -15.0032   27.4208 N   0  0  0  0  0  0  0  0  0  0  0  0
    5.9261  -14.2029   26.7108 C   0  0  0  0  0  0  0  0  0  0  0  0
    6.5902  -13.1010   26.3388 C   0  0  0  0  0  0  0  0  0  0  0  0
    6.2455  -11.9515   25.6212 C   0  0  0  0  0  0  0  0  0  0  0  0
    7.1427  -10.9306   25.3900 C   0  0  0  0  0  0  0  0  0  0  0  0
    8.4206  -11.0554   25.8865 C   0  0  0  0  0  0  0  0  0  0  0  0
    8.7781  -12.1909   26.5999 C   0  0  0  0  0  0  0  0  0  0  0  0
    7.8688  -13.1974   26.8189 C   0  0  0  0  0  0  0  0  0  0  0  0
   10.5332  -17.0331   28.0052 O   0  0  0  0  0  0  0  0  0  0  0  0
   11.5633  -16.9876   28.9290 O   0  0  0  0  0  0  0  0  0  0  0  0
  1  2  1  0
  2  3  2  0
  4  2  1  0
  5  4  1  0
  6  5  1  0
  7  6  1  0
  8  9  1  6
  8  7  1  0
 10  8  1  0
 11 10  2  0
 13 15  1  0
 13 12  1  0
 14 13  2  0
 16 15  1  6
 16 17  1  0
 17 10  1  0
 18 16  1  0
 18 19  2  0
 20 18  1  0
 21 20  1  0
 21 22  1  1
 23 22  1  0
 23 31  1  0
 24 25  1  0
 24 23  2  0
 25 26  1  0
 26 31  2  0
 26 27  1  0
 27 28  2  0
 28 29  1  0
 30 29  2  0
 31 30  1  0
 32 21  1  0
 33 32  1  0
 34 32  2  0
M  END
$$$$
