RNW.pdb
     RDKit          3D

 34 35  0  0  1  0  0  0  0  0999 V2000
    8.3930  -14.2460   15.1624 N   0  0  0  0  0  0  0  0  0  0  0  0
    8.0932  -15.5435   14.6348 C   0  0  0  0  0  0  0  0  0  0  0  0
    7.6531  -15.6754   13.4217 N   0  0  0  0  0  0  0  0  0  0  0  0
    8.2761  -16.6929   15.4433 N   0  0  0  0  0  0  0  0  0  0  0  0
    8.8385  -16.5991   16.8031 C   0  0  0  0  0  0  0  0  0  0  0  0
    8.8525  -17.9985   17.3369 C   0  0  0  0  0  0  0  0  0  0  0  0
   10.0487  -18.2618   18.1649 C   0  0  0  0  0  0  0  0  0  0  0  0
    9.8597  -18.4644   19.6221 C   0  0  2  0  0  0  0  0  0  0  0  0
    8.6418  -19.0607   20.0534 N   0  0  0  0  0  0  0  0  0  0  0  0
    9.9766  -17.1214   20.2906 C   0  0  0  0  0  0  0  0  0  0  0  0
   10.8816  -16.3706   19.8163 O   0  0  0  0  0  0  0  0  0  0  0  0
    7.3787  -16.5689   13.0201 N   0  0  0  0  0  0  0  0  0  0  0  0
    6.8591  -12.6608   22.7354 C   0  0  0  0  0  0  0  0  0  0  0  0
    7.8262  -13.2527   21.8581 O   0  0  0  0  0  0  0  0  0  0  0  0
    8.6447  -12.4707   21.3141 C   0  0  0  0  0  0  0  0  0  0  0  0
    7.8893  -14.6817   21.5861 C   0  0  2  0  0  0  0  0  0  0  0  0
    9.2204  -15.3410   21.8136 N   0  0  0  0  0  0  0  0  0  0  0  0
    9.1551  -16.7088   21.3641 C   0  0  0  0  0  0  0  0  0  0  0  0
    9.5143  -15.2672   23.2830 O   0  0  0  0  0  0  0  0  0  0  0  0
   10.0675  -14.2364   23.7187 N   0  0  0  0  0  0  0  0  0  0  0  0
    9.1966  -16.3067   24.1849 C   0  0  1  0  0  0  0  0  0  0  0  0
    9.7419  -16.4688   25.5179 C   0  0  0  0  0  0  0  0  0  0  0  0
    8.7003  -16.4788   26.5633 C   0  0  0  0  0  0  0  0  0  0  0  0
    7.6259  -15.5121   26.2976 C   0  0  0  0  0  0  0  0  0  0  0  0
    6.3610  -15.7313   25.7924 N   0  0  0  0  0  0  0  0  0  0  0  0
    5.7173  -14.5455   25.6827 C   0  0  0  0  0  0  0  0  0  0  0  0
    6.5274  -13.5651   26.1023 C   0  0  0  0  0  0  0  0  0  0  0  0
    6.3955  -12.1786   26.2268 C   0  0  0  0  0  0  0  0  0  0  0  0
    7.4083  -11.3834   26.7195 C   0  0  0  0  0  0  0  0  0  0  0  0
    8.5873  -11.9837   27.1000 C   0  0  0  0  0  0  0  0  0  0  0  0
    8.7337  -13.3587   26.9817 C   0  0  0  0  0  0  0  0  0  0  0  0
    7.7121  -14.1332   26.4875 C   0  0  0  0  0  0  0  0  0  0  0  0
   10.8493  -17.4058   25.6465 O   0  0  0  0  0  0  0  0  0  0  0  0
   11.3741  -18.2013   24.6423 O   0  0  0  0  0  0  0  0  0  0  0  0
  1  2  1  0
  2  3  2  0
  4  2  1  0
  5  4  1  0
  6  5  1  0
  7  6  1  0
  8  9  1  6
  8  7  1  0
 10  8  1  0
 11 10  2  0
 13 15  1  0
 13 12  1  0
 14 13  2  0
 16 15  1  6
 16 17  1  0
 17 10  1  0
 18 16  1  0
 18 19  2  0
 20 18  1  0
 21 20  1  0
 21 22  1  1
 23 22  1  0
 23 31  1  0
 24 25  1  0
 24 23  2  0
 25 26  1  0
 26 31  2  0
 26 27  1  0
 27 28  2  0
 28 29  1  0
 30 29  2  0
 31 30  1  0
 32 21  1  0
 33 32  1  0
 34 32  2  0
M  END
$$$$
