RNW.pdb
     RDKit          3D

 34 35  0  0  1  0  0  0  0  0999 V2000
    8.6895  -13.3335   16.7119 N   0  0  0  0  0  0  0  0  0  0  0  0
    7.7566  -12.8042   17.6611 C   0  0  0  0  0  0  0  0  0  0  0  0
    6.7969  -12.0215   17.2750 N   0  0  0  0  0  0  0  0  0  0  0  0
    7.8823  -13.1353   19.0333 N   0  0  0  0  0  0  0  0  0  0  0  0
    9.0951  -13.7856   19.5629 C   0  0  0  0  0  0  0  0  0  0  0  0
    8.9920  -15.2265   19.1672 C   0  0  0  0  0  0  0  0  0  0  0  0
    8.4337  -16.0591   20.2538 C   0  0  0  0  0  0  0  0  0  0  0  0
    8.4165  -17.5306   20.0688 C   0  0  2  0  0  0  0  0  0  0  0  0
    7.6036  -18.0556   19.0256 N   0  0  0  0  0  0  0  0  0  0  0  0
    7.9616  -18.1500   21.3626 C   0  0  0  0  0  0  0  0  0  0  0  0
    6.7034  -18.2239   21.5010 O   0  0  0  0  0  0  0  0  0  0  0  0
    6.1196  -11.6100   17.9128 N   0  0  0  0  0  0  0  0  0  0  0  0
   11.0352  -19.8956   23.0872 C   0  0  0  0  0  0  0  0  0  0  0  0
   10.0741  -20.8070   23.6357 O   0  0  0  0  0  0  0  0  0  0  0  0
   10.4774  -21.9717   23.8768 C   0  0  0  0  0  0  0  0  0  0  0  0
    8.6928  -20.4399   23.9136 C   0  0  1  0  0  0  0  0  0  0  0  0
    8.3201  -19.0097   23.6415 N   0  0  0  0  0  0  0  0  0  0  0  0
    8.8481  -18.6178   22.3590 C   0  0  0  0  0  0  0  0  0  0  0  0
    8.9013  -18.1750   24.7445 O   0  0  0  0  0  0  0  0  0  0  0  0
    8.5944  -18.4619   25.9201 N   0  0  0  0  0  0  0  0  0  0  0  0
    9.7709  -17.0870   24.5102 C   0  0  2  0  0  0  0  0  0  0  0  0
   10.2980  -16.1905   25.5196 C   0  0  0  0  0  0  0  0  0  0  0  0
    9.4519  -16.1302   26.7273 C   0  0  0  0  0  0  0  0  0  0  0  0
    8.1489  -15.5009   26.4717 C   0  0  0  0  0  0  0  0  0  0  0  0
    6.9358  -16.0925   26.1859 N   0  0  0  0  0  0  0  0  0  0  0  0
    6.0080  -15.1264   25.9902 C   0  0  0  0  0  0  0  0  0  0  0  0
    6.5839  -13.9267   26.1413 C   0  0  0  0  0  0  0  0  0  0  0  0
    6.1219  -12.6087   26.0735 C   0  0  0  0  0  0  0  0  0  0  0  0
    6.9466  -11.5265   26.2958 C   0  0  0  0  0  0  0  0  0  0  0  0
    8.2700  -11.7607   26.5944 C   0  0  0  0  0  0  0  0  0  0  0  0
    8.7437  -13.0633   26.6644 C   0  0  0  0  0  0  0  0  0  0  0  0
    7.9051  -14.1281   26.4388 C   0  0  0  0  0  0  0  0  0  0  0  0
   11.7434  -16.2056   25.6970 O   0  0  0  0  0  0  0  0  0  0  0  0
   12.4698  -15.4397   26.5927 O   0  0  0  0  0  0  0  0  0  0  0  0
  1  2  1  0
  2  3  2  0
  4  2  1  0
  5  4  1  0
  6  5  1  0
  7  6  1  0
  8  9  1  6
  8  7  1  0
 10  8  1  0
 11 10  2  0
 13 15  1  0
 13 12  1  0
 14 13  2  0
 16 15  1  6
 16 17  1  0
 17 10  1  0
 18 16  1  0
 18 19  2  0
 20 18  1  0
 21 20  1  0
 21 22  1  6
 23 22  1  0
 23 31  1  0
 24 25  1  0
 24 23  2  0
 25 26  1  0
 26 31  2  0
 26 27  1  0
 27 28  2  0
 28 29  1  0
 30 29  2  0
 31 30  1  0
 32 21  1  0
 33 32  1  0
 34 32  2  0
M  END
$$$$
