RNW.pdb
     RDKit          3D

 34 35  0  0  1  0  0  0  0  0999 V2000
    9.3680  -14.2952   13.5544 N   0  0  0  0  0  0  0  0  0  0  0  0
    9.0786  -14.7374   14.8856 C   0  0  0  0  0  0  0  0  0  0  0  0
    8.7012  -13.8908   15.7932 N   0  0  0  0  0  0  0  0  0  0  0  0
    9.2069  -16.1094   15.2164 N   0  0  0  0  0  0  0  0  0  0  0  0
   10.3160  -16.6014   16.0543 C   0  0  0  0  0  0  0  0  0  0  0  0
    9.7297  -16.8338   17.4128 C   0  0  0  0  0  0  0  0  0  0  0  0
   10.7449  -17.3038   18.3794 C   0  0  0  0  0  0  0  0  0  0  0  0
   10.3005  -17.6329   19.7557 C   0  0  2  0  0  0  0  0  0  0  0  0
    9.0550  -18.3049   19.9046 N   0  0  0  0  0  0  0  0  0  0  0  0
   10.2252  -16.3467   20.5331 C   0  0  0  0  0  0  0  0  0  0  0  0
   11.2309  -15.5864   20.3979 O   0  0  0  0  0  0  0  0  0  0  0  0
    8.3648  -14.1687   16.7122 N   0  0  0  0  0  0  0  0  0  0  0  0
    8.1052  -14.4342   19.3762 C   0  0  0  0  0  0  0  0  0  0  0  0
    7.4076  -13.8758   20.4972 O   0  0  0  0  0  0  0  0  0  0  0  0
    6.3608  -13.2300   20.2431 C   0  0  0  0  0  0  0  0  0  0  0  0
    7.8566  -14.0274   21.8740 C   0  0  2  0  0  0  0  0  0  0  0  0
    9.1640  -14.7420   22.0693 N   0  0  0  0  0  0  0  0  0  0  0  0
    9.1315  -15.9938   21.3557 C   0  0  0  0  0  0  0  0  0  0  0  0
    9.3410  -14.9629   23.5427 O   0  0  0  0  0  0  0  0  0  0  0  0
    9.4899  -13.9604   24.2716 N   0  0  0  0  0  0  0  0  0  0  0  0
    9.3486  -16.2458   24.1334 C   0  0  1  0  0  0  0  0  0  0  0  0
    9.7788  -16.5555   25.4823 C   0  0  0  0  0  0  0  0  0  0  0  0
    8.6492  -16.8102   26.3973 C   0  0  0  0  0  0  0  0  0  0  0  0
    7.5605  -15.8370   26.2331 C   0  0  0  0  0  0  0  0  0  0  0  0
    6.3242  -16.0028   25.6437 N   0  0  0  0  0  0  0  0  0  0  0  0
    5.6531  -14.8279   25.6863 C   0  0  0  0  0  0  0  0  0  0  0  0
    6.4177  -13.9065   26.2863 C   0  0  0  0  0  0  0  0  0  0  0  0
    6.2425  -12.5584   26.6138 C   0  0  0  0  0  0  0  0  0  0  0  0
    7.2115  -11.8269   27.2670 C   0  0  0  0  0  0  0  0  0  0  0  0
    8.3899  -12.4535   27.6050 C   0  0  0  0  0  0  0  0  0  0  0  0
    8.5790  -13.7908   27.2859 C   0  0  0  0  0  0  0  0  0  0  0  0
    7.6005  -14.5019   26.6340 C   0  0  0  0  0  0  0  0  0  0  0  0
   10.9582  -17.4016   25.5994 O   0  0  0  0  0  0  0  0  0  0  0  0
   11.6173  -17.7361   26.7701 O   0  0  0  0  0  0  0  0  0  0  0  0
  1  2  1  0
  2  3  2  0
  4  2  1  0
  5  4  1  0
  6  5  1  0
  7  6  1  0
  8  9  1  6
  8  7  1  0
 10  8  1  0
 11 10  2  0
 13 15  1  0
 13 12  1  0
 14 13  2  0
 16 15  1  6
 16 17  1  0
 17 10  1  0
 18 16  1  0
 18 19  2  0
 20 18  1  0
 21 20  1  0
 21 22  1  1
 23 22  1  0
 23 31  1  0
 24 25  1  0
 24 23  2  0
 25 26  1  0
 26 31  2  0
 26 27  1  0
 27 28  2  0
 28 29  1  0
 30 29  2  0
 31 30  1  0
 32 21  1  0
 33 32  1  0
 34 32  2  0
M  END
$$$$
