RNW.pdb
     RDKit          3D

 34 35  0  0  1  0  0  0  0  0999 V2000
    8.7650  -15.0699   13.8130 N   0  0  0  0  0  0  0  0  0  0  0  0
    7.8317  -16.1300   14.0510 C   0  0  0  0  0  0  0  0  0  0  0  0
    6.7809  -16.2626   13.3019 N   0  0  0  0  0  0  0  0  0  0  0  0
    8.0549  -17.0408   15.1136 N   0  0  0  0  0  0  0  0  0  0  0  0
    9.0961  -16.8015   16.1299 C   0  0  0  0  0  0  0  0  0  0  0  0
    9.0598  -17.9906   17.0398 C   0  0  0  0  0  0  0  0  0  0  0  0
   10.0266  -17.8653   18.1513 C   0  0  0  0  0  0  0  0  0  0  0  0
    9.5189  -18.0015   19.5383 C   0  0  2  0  0  0  0  0  0  0  0  0
    8.1195  -18.1901   19.7138 N   0  0  0  0  0  0  0  0  0  0  0  0
    9.9148  -16.7626   20.2951 C   0  0  0  0  0  0  0  0  0  0  0  0
   11.1415  -16.4551   20.2031 O   0  0  0  0  0  0  0  0  0  0  0  0
    6.1320  -17.0420   13.3813 N   0  0  0  0  0  0  0  0  0  0  0  0
    6.8530  -13.4094   19.5379 C   0  0  0  0  0  0  0  0  0  0  0  0
    8.1765  -13.3624   20.0869 O   0  0  0  0  0  0  0  0  0  0  0  0
    9.0979  -13.0211   19.3046 C   0  0  0  0  0  0  0  0  0  0  0  0
    8.4781  -13.6858   21.4741 C   0  0  2  0  0  0  0  0  0  0  0  0
    9.4780  -14.7855   21.6955 N   0  0  0  0  0  0  0  0  0  0  0  0
    9.0091  -15.9887   21.0554 C   0  0  0  0  0  0  0  0  0  0  0  0
    9.6151  -14.9782   23.1771 O   0  0  0  0  0  0  0  0  0  0  0  0
    9.9985  -14.0069   23.8612 N   0  0  0  0  0  0  0  0  0  0  0  0
    9.3335  -16.2020   23.8236 C   0  0  1  0  0  0  0  0  0  0  0  0
    9.5999  -16.5066   25.2153 C   0  0  0  0  0  0  0  0  0  0  0  0
    8.3723  -16.7992   25.9805 C   0  0  0  0  0  0  0  0  0  0  0  0
    7.3244  -15.7904   25.7721 C   0  0  0  0  0  0  0  0  0  0  0  0
    6.1372  -15.8970   25.0773 N   0  0  0  0  0  0  0  0  0  0  0  0
    5.4931  -14.7070   25.1178 C   0  0  0  0  0  0  0  0  0  0  0  0
    6.2274  -13.8333   25.8185 C   0  0  0  0  0  0  0  0  0  0  0  0
    6.0580  -12.4961   26.1906 C   0  0  0  0  0  0  0  0  0  0  0  0
    6.9871  -11.8200   26.9524 C   0  0  0  0  0  0  0  0  0  0  0  0
    8.1183  -12.4924   27.3566 C   0  0  0  0  0  0  0  0  0  0  0  0
    8.3011  -13.8196   26.9945 C   0  0  0  0  0  0  0  0  0  0  0  0
    7.3631  -14.4752   26.2342 C   0  0  0  0  0  0  0  0  0  0  0  0
   10.7798  -17.3187   25.4780 O   0  0  0  0  0  0  0  0  0  0  0  0
   11.2930  -17.6450   26.7217 O   0  0  0  0  0  0  0  0  0  0  0  0
  1  2  1  0
  2  3  2  0
  4  2  1  0
  5  4  1  0
  6  5  1  0
  7  6  1  0
  8  9  1  6
  8  7  1  0
 10  8  1  0
 11 10  2  0
 13 15  1  0
 13 12  1  0
 14 13  2  0
 16 15  1  6
 16 17  1  0
 17 10  1  0
 18 16  1  0
 18 19  2  0
 20 18  1  0
 21 20  1  0
 21 22  1  1
 23 22  1  0
 23 31  1  0
 24 25  1  0
 24 23  2  0
 25 26  1  0
 26 31  2  0
 26 27  1  0
 27 28  2  0
 28 29  1  0
 30 29  2  0
 31 30  1  0
 32 21  1  0
 33 32  1  0
 34 32  2  0
M  END
$$$$
