RNW.pdb
     RDKit          3D

 34 35  0  0  1  0  0  0  0  0999 V2000
    7.9154  -12.5326   15.1420 N   0  0  0  0  0  0  0  0  0  0  0  0
    8.1105  -13.8442   15.6835 C   0  0  0  0  0  0  0  0  0  0  0  0
    7.7746  -14.8950   15.0010 N   0  0  0  0  0  0  0  0  0  0  0  0
    8.6727  -13.9972   16.9754 N   0  0  0  0  0  0  0  0  0  0  0  0
    8.3833  -13.0429   18.0616 C   0  0  0  0  0  0  0  0  0  0  0  0
    7.0702  -13.4701   18.6416 C   0  0  0  0  0  0  0  0  0  0  0  0
    7.1413  -14.8237   19.2319 C   0  0  0  0  0  0  0  0  0  0  0  0
    8.1967  -15.0929   20.2387 C   0  0  2  0  0  0  0  0  0  0  0  0
    9.3418  -15.8241   19.8157 N   0  0  0  0  0  0  0  0  0  0  0  0
    7.5633  -15.8474   21.3763 C   0  0  0  0  0  0  0  0  0  0  0  0
    6.6266  -15.2286   21.9658 O   0  0  0  0  0  0  0  0  0  0  0  0
    7.9922  -15.8449   15.2930 N   0  0  0  0  0  0  0  0  0  0  0  0
    8.5009  -20.3946   20.5977 C   0  0  0  0  0  0  0  0  0  0  0  0
    7.3621  -19.8064   21.2400 O   0  0  0  0  0  0  0  0  0  0  0  0
    6.3108  -19.7264   20.5576 C   0  0  0  0  0  0  0  0  0  0  0  0
    7.3827  -19.3157   22.6106 C   0  0  2  0  0  0  0  0  0  0  0  0
    7.2061  -17.8337   22.7861 N   0  0  0  0  0  0  0  0  0  0  0  0
    7.9650  -17.1425   21.7744 C   0  0  0  0  0  0  0  0  0  0  0  0
    7.6910  -17.4820   24.1618 O   0  0  0  0  0  0  0  0  0  0  0  0
    6.8702  -16.9924   24.9649 N   0  0  0  0  0  0  0  0  0  0  0  0
    9.0255  -17.6776   24.5811 C   0  0  2  0  0  0  0  0  0  0  0  0
    9.8107  -16.7499   25.3706 C   0  0  0  0  0  0  0  0  0  0  0  0
    9.5445  -15.3398   25.0259 C   0  0  0  0  0  0  0  0  0  0  0  0
    8.1944  -14.9097   25.4151 C   0  0  0  0  0  0  0  0  0  0  0  0
    7.0609  -15.6701   25.6159 N   0  0  0  0  0  0  0  0  0  0  0  0
    6.0302  -14.8518   25.9330 C   0  0  0  0  0  0  0  0  0  0  0  0
    6.4626  -13.5843   25.9441 C   0  0  0  0  0  0  0  0  0  0  0  0
    5.8597  -12.3516   26.2131 C   0  0  0  0  0  0  0  0  0  0  0  0
    6.5592  -11.1643   26.1703 C   0  0  0  0  0  0  0  0  0  0  0  0
    7.8978  -11.2029   25.8508 C   0  0  0  0  0  0  0  0  0  0  0  0
    8.5102  -12.4186   25.5804 C   0  0  0  0  0  0  0  0  0  0  0  0
    7.7947  -13.5906   25.6279 C   0  0  0  0  0  0  0  0  0  0  0  0
    9.9803  -17.0903   26.7763 O   0  0  0  0  0  0  0  0  0  0  0  0
    9.3048  -18.0798   27.4700 O   0  0  0  0  0  0  0  0  0  0  0  0
  1  2  1  0
  2  3  2  0
  4  2  1  0
  5  4  1  0
  6  5  1  0
  7  6  1  0
  8  9  1  6
  8  7  1  0
 10  8  1  0
 11 10  2  0
 13 15  1  0
 13 12  1  0
 14 13  2  0
 16 15  1  6
 16 17  1  0
 17 10  1  0
 18 16  1  0
 18 19  2  0
 20 18  1  0
 21 20  1  0
 21 22  1  6
 23 22  1  0
 23 31  1  0
 24 25  1  0
 24 23  2  0
 25 26  1  0
 26 31  2  0
 26 27  1  0
 27 28  2  0
 28 29  1  0
 30 29  2  0
 31 30  1  0
 32 21  1  0
 33 32  1  0
 34 32  2  0
M  END
$$$$
