RNW.pdb
     RDKit          3D

 34 35  0  0  1  0  0  0  0  0999 V2000
    7.7114  -12.7880   18.0855 N   0  0  0  0  0  0  0  0  0  0  0  0
    8.5540  -12.6756   19.2383 C   0  0  0  0  0  0  0  0  0  0  0  0
    9.5621  -11.8593   19.2398 N   0  0  0  0  0  0  0  0  0  0  0  0
    8.2873  -13.4628   20.3862 N   0  0  0  0  0  0  0  0  0  0  0  0
    7.2994  -14.5571   20.3597 C   0  0  0  0  0  0  0  0  0  0  0  0
    7.2795  -15.1233   21.7461 C   0  0  0  0  0  0  0  0  0  0  0  0
    6.4016  -16.3086   21.8461 C   0  0  0  0  0  0  0  0  0  0  0  0
    6.9735  -17.6333   21.5024 C   0  0  2  0  0  0  0  0  0  0  0  0
    6.0847  -18.7435   21.4520 N   0  0  0  0  0  0  0  0  0  0  0  0
    8.0442  -17.9464   22.5124 C   0  0  0  0  0  0  0  0  0  0  0  0
    7.6531  -18.6349   23.5027 O   0  0  0  0  0  0  0  0  0  0  0  0
   10.1918  -11.7492   20.0313 N   0  0  0  0  0  0  0  0  0  0  0  0
   14.1774  -18.1234   23.3948 C   0  0  0  0  0  0  0  0  0  0  0  0
   12.7964  -18.4636   23.5747 O   0  0  0  0  0  0  0  0  0  0  0  0
   12.5345  -19.2889   24.4845 C   0  0  0  0  0  0  0  0  0  0  0  0
   11.7235  -17.9031   22.7655 C   0  0  2  0  0  0  0  0  0  0  0  0
   10.3500  -17.9324   23.3747 N   0  0  0  0  0  0  0  0  0  0  0  0
    9.3848  -17.5168   22.3883 C   0  0  0  0  0  0  0  0  0  0  0  0
   10.3587  -17.0003   24.5504 O   0  0  0  0  0  0  0  0  0  0  0  0
   10.9039  -15.8860   24.4105 N   0  0  0  0  0  0  0  0  0  0  0  0
    9.7834  -17.3290   25.7977 C   0  0  1  0  0  0  0  0  0  0  0  0
   10.0785  -16.6867   27.0630 C   0  0  0  0  0  0  0  0  0  0  0  0
    8.8647  -16.2349   27.7705 C   0  0  0  0  0  0  0  0  0  0  0  0
    7.8807  -15.6228   26.8669 C   0  0  0  0  0  0  0  0  0  0  0  0
    6.9128  -16.2284   26.0926 N   0  0  0  0  0  0  0  0  0  0  0  0
    6.2514  -15.2793   25.3895 C   0  0  0  0  0  0  0  0  0  0  0  0
    6.7619  -14.0771   25.6859 C   0  0  0  0  0  0  0  0  0  0  0  0
    6.4714  -12.7695   25.2846 C   0  0  0  0  0  0  0  0  0  0  0  0
    7.1592  -11.6790   25.7728 C   0  0  0  0  0  0  0  0  0  0  0  0
    8.1657  -11.8939   26.6871 C   0  0  0  0  0  0  0  0  0  0  0  0
    8.4664  -13.1860   27.0946 C   0  0  0  0  0  0  0  0  0  0  0  0
    7.7690  -14.2595   26.5953 C   0  0  0  0  0  0  0  0  0  0  0  0
   11.1465  -17.2861   27.8510 O   0  0  0  0  0  0  0  0  0  0  0  0
   11.6787  -16.7881   29.0281 O   0  0  0  0  0  0  0  0  0  0  0  0
  1  2  1  0
  2  3  2  0
  4  2  1  0
  5  4  1  0
  6  5  1  0
  7  6  1  0
  8  9  1  1
  8  7  1  0
 10  8  1  0
 11 10  2  0
 13 15  1  0
 13 12  1  0
 14 13  2  0
 16 15  1  6
 16 17  1  0
 17 10  1  0
 18 16  1  0
 18 19  2  0
 20 18  1  0
 21 20  1  0
 21 22  1  1
 23 22  1  0
 23 31  1  0
 24 25  1  0
 24 23  2  0
 25 26  1  0
 26 31  2  0
 26 27  1  0
 27 28  2  0
 28 29  1  0
 30 29  2  0
 31 30  1  0
 32 21  1  0
 33 32  1  0
 34 32  2  0
M  END
$$$$
