AEK.pdb
     RDKit          3D

 24 23  0  0  1  0  0  0  0  0999 V2000
    8.0359  -12.4321   20.0670 C   0  0  0  0  0  0  0  0  0  0  0  0
    8.0641  -13.4892   19.0032 C   0  0  2  0  0  0  0  0  0  0  0  0
    6.7508  -13.7819   18.4775 N   0  0  0  0  0  0  0  0  0  0  0  0
    8.7371  -14.7262   19.4540 C   0  0  0  0  0  0  0  0  0  0  0  0
    8.1082  -15.7130   19.8854 O   0  0  0  0  0  0  0  0  0  0  0  0
   10.1512  -14.7940   19.3939 N   0  0  0  0  0  0  0  0  0  0  0  0
   10.8687  -15.9913   19.7858 C   0  0  1  0  0  0  0  0  0  0  0  0
   11.9247  -16.3645   18.7665 C   0  0  0  0  0  0  0  0  0  0  0  0
   12.5679  -17.6735   19.1110 C   0  0  0  0  0  0  0  0  0  0  0  0
   13.2372  -18.2486   17.9266 C   0  0  0  0  0  0  0  0  0  0  0  0
   14.0704  -19.1676   18.0780 O   0  0  0  0  0  0  0  0  0  0  0  0
   11.4624  -15.8463   21.1251 C   0  0  0  0  0  0  0  0  0  0  0  0
   12.1732  -14.8591   21.3864 O   0  0  0  0  0  0  0  0  0  0  0  0
   12.9643  -17.7946   16.6522 O   0  0  0  0  0  0  0  0  0  0  0  0
   11.2270  -16.8231   22.1104 N   0  0  0  0  0  0  0  0  0  0  0  0
   11.7705  -16.6529   23.4341 C   0  0  1  0  0  0  0  0  0  0  0  0
   11.2597  -17.7131   24.3883 C   0  0  0  0  0  0  0  0  0  0  0  0
   11.9708  -17.6503   25.7340 C   0  0  0  0  0  0  0  0  0  0  0  0
   11.4622  -18.8259   26.5421 C   0  0  0  0  0  0  0  0  0  0  0  0
   11.9526  -18.7709   27.9745 C   0  0  0  0  0  0  0  0  0  0  0  0
   11.4347  -19.9301   28.6610 N   0  0  0  0  0  0  0  0  0  0  0  0
   13.2490  -16.6548   23.3528 C   0  0  0  0  0  0  0  0  0  0  0  0
   13.9541  -15.7996   23.9388 O   0  0  0  0  0  0  0  0  0  0  0  0
   13.9009  -17.6275   22.6078 O   0  0  0  0  0  0  0  0  0  0  0  0
  2  3  1  0
  2  1  1  1
  4  2  1  0
  4  5  2  0
  6  4  1  0
  7  6  1  0
  7 12  1  0
  7  8  1  6
  9  8  1  0
  9 10  1  0
 10 11  2  0
 12 13  2  0
 12 15  1  0
 14 10  1  0
 15 16  1  0
 16 22  1  0
 16 17  1  1
 18 17  1  0
 19 18  1  0
 20 19  1  0
 21 20  1  0
 22 23  2  0
 22 24  1  0
M  END
$$$$
