AEK.pdb
     RDKit          3D

 24 23  0  0  1  0  0  0  0  0999 V2000
    7.9580  -12.7111   20.3189 C   0  0  0  0  0  0  0  0  0  0  0  0
    7.9856  -13.9870   19.5307 C   0  0  2  0  0  0  0  0  0  0  0  0
    6.6747  -14.3830   19.0708 N   0  0  0  0  0  0  0  0  0  0  0  0
    8.6399  -15.0906   20.2655 C   0  0  0  0  0  0  0  0  0  0  0  0
    7.9950  -15.9523   20.8956 O   0  0  0  0  0  0  0  0  0  0  0  0
   10.0545  -15.1734   20.2540 N   0  0  0  0  0  0  0  0  0  0  0  0
   10.7468  -16.3617   20.7127 C   0  0  1  0  0  0  0  0  0  0  0  0
   11.8231  -16.7889   19.7368 C   0  0  0  0  0  0  0  0  0  0  0  0
   12.3433  -18.1541   20.0713 C   0  0  0  0  0  0  0  0  0  0  0  0
   13.3307  -18.5924   19.0642 C   0  0  0  0  0  0  0  0  0  0  0  0
   13.0798  -18.4363   17.8498 O   0  0  0  0  0  0  0  0  0  0  0  0
   11.3087  -16.1686   22.0597 C   0  0  0  0  0  0  0  0  0  0  0  0
   11.8960  -15.1087   22.3420 O   0  0  0  0  0  0  0  0  0  0  0  0
   14.5279  -19.1720   19.4320 O   0  0  0  0  0  0  0  0  0  0  0  0
   11.1822  -17.1814   23.0285 N   0  0  0  0  0  0  0  0  0  0  0  0
   11.6884  -16.9676   24.3606 C   0  0  1  0  0  0  0  0  0  0  0  0
   11.1071  -17.9614   25.3454 C   0  0  0  0  0  0  0  0  0  0  0  0
   11.7034  -17.7910   26.7368 C   0  0  0  0  0  0  0  0  0  0  0  0
   11.1504  -18.9207   27.5806 C   0  0  0  0  0  0  0  0  0  0  0  0
   11.6582  -18.8509   29.0063 C   0  0  0  0  0  0  0  0  0  0  0  0
   11.0608  -19.9413   29.7393 N   0  0  0  0  0  0  0  0  0  0  0  0
   13.1676  -17.0270   24.3302 C   0  0  0  0  0  0  0  0  0  0  0  0
   13.8852  -16.1728   24.9023 O   0  0  0  0  0  0  0  0  0  0  0  0
   13.8062  -18.0552   23.6510 O   0  0  0  0  0  0  0  0  0  0  0  0
  2  3  1  0
  2  1  1  1
  4  2  1  0
  4  5  2  0
  6  4  1  0
  7  6  1  0
  7 12  1  0
  7  8  1  6
  9  8  1  0
  9 10  1  0
 10 11  2  0
 12 13  2  0
 12 15  1  0
 14 10  1  0
 15 16  1  0
 16 22  1  0
 16 17  1  1
 18 17  1  0
 19 18  1  0
 20 19  1  0
 21 20  1  0
 22 23  2  0
 22 24  1  0
M  END
$$$$
