AEK.pdb
     RDKit          3D

 24 23  0  0  1  0  0  0  0  0999 V2000
    8.2151  -17.7719   20.1926 C   0  0  0  0  0  0  0  0  0  0  0  0
    9.5913  -17.5583   19.6354 C   0  0  2  0  0  0  0  0  0  0  0  0
    9.7583  -18.1507   18.3284 N   0  0  0  0  0  0  0  0  0  0  0  0
   10.6516  -18.0156   20.5587 C   0  0  0  0  0  0  0  0  0  0  0  0
   10.8116  -19.2166   20.8543 O   0  0  0  0  0  0  0  0  0  0  0  0
   11.5202  -17.0530   21.1303 N   0  0  0  0  0  0  0  0  0  0  0  0
   12.5718  -17.4351   22.0521 C   0  0  1  0  0  0  0  0  0  0  0  0
   13.7004  -16.4254   22.0565 C   0  0  0  0  0  0  0  0  0  0  0  0
   14.8364  -16.8901   22.9166 C   0  0  0  0  0  0  0  0  0  0  0  0
   15.9551  -15.9274   22.8605 C   0  0  0  0  0  0  0  0  0  0  0  0
   15.7210  -14.7062   22.9867 O   0  0  0  0  0  0  0  0  0  0  0  0
   12.0454  -17.6375   23.4120 C   0  0  0  0  0  0  0  0  0  0  0  0
   11.4580  -16.7088   23.9956 O   0  0  0  0  0  0  0  0  0  0  0  0
   17.2570  -16.3442   22.6715 O   0  0  0  0  0  0  0  0  0  0  0  0
   12.2059  -18.8801   24.0527 N   0  0  0  0  0  0  0  0  0  0  0  0
   11.6735  -19.0788   25.3769 C   0  0  1  0  0  0  0  0  0  0  0  0
   11.6507  -20.5456   25.7556 C   0  0  0  0  0  0  0  0  0  0  0  0
   10.2358  -21.1100   25.7402 C   0  0  0  0  0  0  0  0  0  0  0  0
   10.3468  -22.5551   26.1796 C   0  0  0  0  0  0  0  0  0  0  0  0
    8.9880  -23.2213   26.2511 C   0  0  0  0  0  0  0  0  0  0  0  0
    9.2001  -24.6257   26.5076 N   0  0  0  0  0  0  0  0  0  0  0  0
   12.4618  -18.2762   26.3396 C   0  0  0  0  0  0  0  0  0  0  0  0
   13.7040  -18.1385   26.2394 O   0  0  0  0  0  0  0  0  0  0  0  0
   11.8262  -17.6442   27.3992 O   0  0  0  0  0  0  0  0  0  0  0  0
  2  3  1  0
  2  1  1  1
  4  2  1  0
  4  5  2  0
  6  4  1  0
  7  6  1  0
  7 12  1  0
  7  8  1  1
  9  8  1  0
  9 10  1  0
 10 11  2  0
 12 13  2  0
 12 15  1  0
 14 10  1  0
 15 16  1  0
 16 22  1  0
 16 17  1  1
 18 17  1  0
 19 18  1  0
 20 19  1  0
 21 20  1  0
 22 23  2  0
 22 24  1  0
M  END
$$$$
