AEK.pdb
     RDKit          3D

 24 23  0  0  1  0  0  0  0  0999 V2000
    8.0120  -12.6480   20.0492 C   0  0  0  0  0  0  0  0  0  0  0  0
    7.6462  -14.0285   19.5905 C   0  0  2  0  0  0  0  0  0  0  0  0
    6.2198  -14.2041   19.4438 N   0  0  0  0  0  0  0  0  0  0  0  0
    8.2187  -15.0815   20.4562 C   0  0  0  0  0  0  0  0  0  0  0  0
    7.5806  -15.5989   21.3946 O   0  0  0  0  0  0  0  0  0  0  0  0
    9.5435  -15.5204   20.2112 N   0  0  0  0  0  0  0  0  0  0  0  0
   10.1620  -16.5502   21.0228 C   0  0  1  0  0  0  0  0  0  0  0  0
   11.0706  -17.4369   20.1973 C   0  0  0  0  0  0  0  0  0  0  0  0
   11.5875  -18.5850   21.0103 C   0  0  0  0  0  0  0  0  0  0  0  0
   12.4423  -19.4608   20.1834 C   0  0  0  0  0  0  0  0  0  0  0  0
   11.9913  -20.5536   19.7778 O   0  0  0  0  0  0  0  0  0  0  0  0
   10.8918  -15.9691   22.1617 C   0  0  0  0  0  0  0  0  0  0  0  0
   11.7623  -15.1021   21.9650 O   0  0  0  0  0  0  0  0  0  0  0  0
   13.7313  -19.1012   19.8462 O   0  0  0  0  0  0  0  0  0  0  0  0
   10.6060  -16.3931   23.4728 N   0  0  0  0  0  0  0  0  0  0  0  0
   11.2590  -15.7597   24.5903 C   0  0  1  0  0  0  0  0  0  0  0  0
   10.4859  -15.9622   25.8774 C   0  0  0  0  0  0  0  0  0  0  0  0
   11.1710  -15.2876   27.0589 C   0  0  0  0  0  0  0  0  0  0  0  0
   10.3402  -15.6184   28.2812 C   0  0  0  0  0  0  0  0  0  0  0  0
   10.8676  -14.9209   29.5184 C   0  0  0  0  0  0  0  0  0  0  0  0
    9.9238  -15.1477   30.5866 N   0  0  0  0  0  0  0  0  0  0  0  0
   12.6434  -16.2744   24.6955 C   0  0  0  0  0  0  0  0  0  0  0  0
   13.6127  -15.5366   24.9925 O   0  0  0  0  0  0  0  0  0  0  0  0
   12.9032  -17.6175   24.4618 O   0  0  0  0  0  0  0  0  0  0  0  0
  2  3  1  0
  2  1  1  1
  4  2  1  0
  4  5  2  0
  6  4  1  0
  7  6  1  0
  7 12  1  0
  7  8  1  6
  9  8  1  0
  9 10  1  0
 10 11  2  0
 12 13  2  0
 12 15  1  0
 14 10  1  0
 15 16  1  0
 16 22  1  0
 16 17  1  1
 18 17  1  0
 19 18  1  0
 20 19  1  0
 21 20  1  0
 22 23  2  0
 22 24  1  0
M  END
$$$$
