AEK.pdb
     RDKit          3D

 24 23  0  0  1  0  0  0  0  0999 V2000
    8.3138  -12.2354   19.6658 C   0  0  0  0  0  0  0  0  0  0  0  0
    8.3074  -13.5930   19.0279 C   0  0  2  0  0  0  0  0  0  0  0  0
    7.0717  -13.8737   18.3343 N   0  0  0  0  0  0  0  0  0  0  0  0
    8.6265  -14.6701   19.9891 C   0  0  0  0  0  0  0  0  0  0  0  0
    7.7494  -15.3944   20.5006 O   0  0  0  0  0  0  0  0  0  0  0  0
    9.9809  -14.8888   20.3436 N   0  0  0  0  0  0  0  0  0  0  0  0
   10.3779  -16.0261   21.1503 C   0  0  1  0  0  0  0  0  0  0  0  0
   11.5694  -16.7432   20.5510 C   0  0  0  0  0  0  0  0  0  0  0  0
   11.8579  -18.0170   21.2861 C   0  0  0  0  0  0  0  0  0  0  0  0
   13.0443  -18.6863   20.7152 C   0  0  0  0  0  0  0  0  0  0  0  0
   13.7072  -19.4722   21.4258 O   0  0  0  0  0  0  0  0  0  0  0  0
   10.6523  -15.6274   22.5407 C   0  0  0  0  0  0  0  0  0  0  0  0
   11.2629  -14.5689   22.7749 O   0  0  0  0  0  0  0  0  0  0  0  0
   13.4405  -18.4647   19.4119 O   0  0  0  0  0  0  0  0  0  0  0  0
   10.2247  -16.4422   23.6055 N   0  0  0  0  0  0  0  0  0  0  0  0
    9.8939  -15.8481   24.8759 C   0  0  1  0  0  0  0  0  0  0  0  0
    8.7551  -14.8569   24.7494 C   0  0  0  0  0  0  0  0  0  0  0  0
    8.4016  -14.2299   26.0920 C   0  0  0  0  0  0  0  0  0  0  0  0
    7.2481  -13.2835   25.8318 C   0  0  0  0  0  0  0  0  0  0  0  0
    6.7894  -12.6015   27.1045 C   0  0  0  0  0  0  0  0  0  0  0  0
    5.7390  -11.6761   26.7530 N   0  0  0  0  0  0  0  0  0  0  0  0
    9.5801  -16.9231   25.8446 C   0  0  0  0  0  0  0  0  0  0  0  0
    9.1147  -18.0317   25.4890 O   0  0  0  0  0  0  0  0  0  0  0  0
    9.8002  -16.7207   27.1999 O   0  0  0  0  0  0  0  0  0  0  0  0
  2  3  1  0
  2  1  1  1
  4  2  1  0
  4  5  2  0
  6  4  1  0
  7  6  1  0
  7 12  1  0
  7  8  1  6
  9  8  1  0
  9 10  1  0
 10 11  2  0
 12 13  2  0
 12 15  1  0
 14 10  1  0
 15 16  1  0
 16 22  1  0
 16 17  1  6
 18 17  1  0
 19 18  1  0
 20 19  1  0
 21 20  1  0
 22 23  2  0
 22 24  1  0
M  END
$$$$
