AEK.pdb
     RDKit          3D

 24 23  0  0  1  0  0  0  0  0999 V2000
    3.6353  -18.0920   21.9099 C   0  0  0  0  0  0  0  0  0  0  0  0
    4.2608  -19.2030   21.1198 C   0  0  2  0  0  0  0  0  0  0  0  0
    4.4062  -18.8744   19.7205 N   0  0  0  0  0  0  0  0  0  0  0  0
    3.5458  -20.4864   21.2863 C   0  0  0  0  0  0  0  0  0  0  0  0
    2.4363  -20.7092   20.7620 O   0  0  0  0  0  0  0  0  0  0  0  0
    4.1433  -21.5031   22.0718 N   0  0  0  0  0  0  0  0  0  0  0  0
    3.5189  -22.8018   22.2310 C   0  0  1  0  0  0  0  0  0  0  0  0
    4.3150  -23.8892   21.5403 C   0  0  0  0  0  0  0  0  0  0  0  0
    3.6009  -25.2051   21.6067 C   0  0  0  0  0  0  0  0  0  0  0  0
    4.3883  -26.2555   20.9296 C   0  0  0  0  0  0  0  0  0  0  0  0
    5.0949  -27.0287   21.6115 O   0  0  0  0  0  0  0  0  0  0  0  0
    3.3125  -23.1269   23.6520 C   0  0  0  0  0  0  0  0  0  0  0  0
    4.1894  -22.8440   24.4881 O   0  0  0  0  0  0  0  0  0  0  0  0
    4.3629  -26.4050   19.5579 O   0  0  0  0  0  0  0  0  0  0  0  0
    2.1243  -23.7573   24.0658 N   0  0  0  0  0  0  0  0  0  0  0  0
    1.8814  -23.9808   25.4685 C   0  0  1  0  0  0  0  0  0  0  0  0
    0.4174  -24.2556   25.7451 C   0  0  0  0  0  0  0  0  0  0  0  0
    0.1708  -24.5710   27.2149 C   0  0  0  0  0  0  0  0  0  0  0  0
   -1.3061  -24.8808   27.3441 C   0  0  0  0  0  0  0  0  0  0  0  0
   -1.7069  -25.0892   28.7903 C   0  0  0  0  0  0  0  0  0  0  0  0
   -3.1473  -25.1645   28.8404 N   0  0  0  0  0  0  0  0  0  0  0  0
    2.7454  -25.0880   25.9376 C   0  0  0  0  0  0  0  0  0  0  0  0
    3.0813  -26.0388   25.1925 O   0  0  0  0  0  0  0  0  0  0  0  0
    3.2127  -25.0965   27.2444 O   0  0  0  0  0  0  0  0  0  0  0  0
  2  3  1  0
  2  1  1  1
  4  2  1  0
  4  5  2  0
  6  4  1  0
  7  6  1  0
  7 12  1  0
  7  8  1  1
  9  8  1  0
  9 10  1  0
 10 11  2  0
 12 13  2  0
 12 15  1  0
 14 10  1  0
 15 16  1  0
 16 22  1  0
 16 17  1  6
 18 17  1  0
 19 18  1  0
 20 19  1  0
 21 20  1  0
 22 23  2  0
 22 24  1  0
M  END
$$$$
