QEP.pdb
     RDKit          3D

 26 26  0  0  1  0  0  0  0  0999 V2000
   10.3625  -13.1379   19.3601 N   0  0  0  0  0  0  0  0  0  0  0  0
    8.9841  -12.8869   19.2073 C   0  0  0  0  0  0  0  0  0  0  0  0
    8.6166  -11.7678   18.7806 O   0  0  0  0  0  0  0  0  0  0  0  0
    7.9986  -13.9325   19.5470 C   0  0  0  0  0  0  0  0  0  0  0  0
    8.5807  -15.1947   20.0860 C   0  0  0  0  0  0  0  0  0  0  0  0
    7.5791  -16.1878   20.5725 C   0  0  2  0  0  0  0  0  0  0  0  0
    6.3823  -16.0678   19.7296 N   0  0  0  0  0  0  0  0  0  0  0  0
    7.1895  -15.8794   21.9801 C   0  0  0  0  0  0  0  0  0  0  0  0
    6.2298  -15.0772   22.1858 O   0  0  0  0  0  0  0  0  0  0  0  0
    7.8897  -16.4808   23.0699 N   0  0  0  0  0  0  0  0  0  0  0  0
    7.4961  -16.2844   24.4384 C   0  0  1  0  0  0  0  0  0  0  0  0
    7.6058  -17.6580   25.0817 C   0  0  0  0  0  0  0  0  0  0  0  0
    7.1420  -17.6743   26.4774 C   0  0  0  0  0  0  0  0  0  0  0  0
    7.3033  -18.9701   27.1788 C   0  0  0  0  0  0  0  0  0  0  0  0
    7.8454  -19.9524   26.6431 O   0  0  0  0  0  0  0  0  0  0  0  0
    8.1919  -15.3061   25.2292 C   0  0  0  0  0  0  0  0  0  0  0  0
    9.4670  -15.4109   25.3729 O   0  0  0  0  0  0  0  0  0  0  0  0
    6.8401  -19.1358   28.4979 O   0  0  0  0  0  0  0  0  0  0  0  0
    7.6206  -14.1652   25.9186 N   0  0  0  0  0  0  0  0  0  0  0  0
    6.2800  -13.7338   25.7395 C   0  0  0  0  0  0  0  0  0  0  0  0
    6.0265  -12.6346   26.7299 C   0  0  0  0  0  0  0  0  0  0  0  0
    7.2511  -12.5691   27.5838 C   0  0  0  0  0  0  0  0  0  0  0  0
    8.3135  -13.3298   26.8488 C   0  0  1  0  0  0  0  0  0  0  0  0
    9.1001  -14.0752   27.8727 C   0  0  0  0  0  0  0  0  0  0  0  0
    9.9775  -13.5053   28.7693 O   0  0  0  0  0  0  0  0  0  0  0  0
    8.9429  -15.3216   27.9097 O   0  0  0  0  0  0  0  0  0  0  0  0
  2  1  1  0
  2  4  1  0
  3  2  2  0
  5  4  1  0
  6  5  1  0
  6  7  1  6
  8  9  2  0
  8  6  1  0
 10  8  1  0
 11 10  1  0
 11 12  1  1
 13 14  1  0
 13 12  1  0
 14 15  2  0
 16 11  1  0
 16 17  2  0
 18 14  1  0
 19 16  1  0
 20 21  1  0
 20 19  1  0
 22 21  1  0
 22 23  1  0
 23 19  1  0
 23 24  1  1
 25 24  1  0
 26 24  2  0
M  END
$$$$
