QEP.pdb
     RDKit          3D

 26 26  0  0  1  0  0  0  0  0999 V2000
   11.4502  -13.3356   20.3694 N   0  0  0  0  0  0  0  0  0  0  0  0
   10.8286  -13.5301   19.1194 C   0  0  0  0  0  0  0  0  0  0  0  0
   11.4529  -14.1417   18.2219 O   0  0  0  0  0  0  0  0  0  0  0  0
    9.4643  -13.0177   18.8828 C   0  0  0  0  0  0  0  0  0  0  0  0
    8.4824  -13.3197   19.9634 C   0  0  0  0  0  0  0  0  0  0  0  0
    8.2031  -14.7711   20.1671 C   0  0  2  0  0  0  0  0  0  0  0  0
    7.2780  -15.2025   19.1110 N   0  0  0  0  0  0  0  0  0  0  0  0
    7.5373  -14.9875   21.4855 C   0  0  0  0  0  0  0  0  0  0  0  0
    6.2945  -14.7596   21.5863 O   0  0  0  0  0  0  0  0  0  0  0  0
    8.2932  -15.4432   22.6083 N   0  0  0  0  0  0  0  0  0  0  0  0
    7.7235  -15.5578   23.9231 C   0  0  1  0  0  0  0  0  0  0  0  0
    7.7730  -17.0429   24.2467 C   0  0  0  0  0  0  0  0  0  0  0  0
    7.0880  -17.3769   25.5048 C   0  0  0  0  0  0  0  0  0  0  0  0
    7.0890  -18.8164   25.8584 C   0  0  0  0  0  0  0  0  0  0  0  0
    6.0475  -19.4295   26.1502 O   0  0  0  0  0  0  0  0  0  0  0  0
    8.2949  -14.7935   24.9982 C   0  0  0  0  0  0  0  0  0  0  0  0
    9.4516  -15.1260   25.4554 O   0  0  0  0  0  0  0  0  0  0  0  0
    8.2898  -19.5511   25.8763 O   0  0  0  0  0  0  0  0  0  0  0  0
    7.7132  -13.6455   25.6667 N   0  0  0  0  0  0  0  0  0  0  0  0
    6.5439  -12.9831   25.2090 C   0  0  0  0  0  0  0  0  0  0  0  0
    6.1761  -11.9576   26.2417 C   0  0  0  0  0  0  0  0  0  0  0  0
    7.1152  -12.1778   27.3830 C   0  0  0  0  0  0  0  0  0  0  0  0
    8.2278  -13.0295   26.8495 C   0  0  1  0  0  0  0  0  0  0  0  0
    8.5949  -13.9897   27.9294 C   0  0  0  0  0  0  0  0  0  0  0  0
    7.9470  -15.1776   28.1892 O   0  0  0  0  0  0  0  0  0  0  0  0
    9.5733  -13.6787   28.6544 O   0  0  0  0  0  0  0  0  0  0  0  0
  2  1  1  0
  2  4  1  0
  3  2  2  0
  5  4  1  0
  6  5  1  0
  6  7  1  6
  8  9  2  0
  8  6  1  0
 10  8  1  0
 11 10  1  0
 11 12  1  1
 13 14  1  0
 13 12  1  0
 14 15  2  0
 16 11  1  0
 16 17  2  0
 18 14  1  0
 19 16  1  0
 20 21  1  0
 20 19  1  0
 22 21  1  0
 22 23  1  0
 23 19  1  0
 23 24  1  1
 25 24  1  0
 26 24  2  0
M  END
$$$$
