QEP.pdb
     RDKit          3D

 26 26  0  0  1  0  0  0  0  0999 V2000
   11.0153  -14.6672   18.0418 N   0  0  0  0  0  0  0  0  0  0  0  0
   10.7547  -13.6471   18.9787 C   0  0  0  0  0  0  0  0  0  0  0  0
   11.6161  -13.3934   19.8524 O   0  0  0  0  0  0  0  0  0  0  0  0
    9.4848  -12.8960   18.9222 C   0  0  0  0  0  0  0  0  0  0  0  0
    8.5427  -13.1672   20.0453 C   0  0  0  0  0  0  0  0  0  0  0  0
    8.1842  -14.6038   20.2283 C   0  0  2  0  0  0  0  0  0  0  0  0
    7.2267  -14.9650   19.1747 N   0  0  0  0  0  0  0  0  0  0  0  0
    7.5194  -14.8048   21.5496 C   0  0  0  0  0  0  0  0  0  0  0  0
    6.3198  -14.4216   21.6938 O   0  0  0  0  0  0  0  0  0  0  0  0
    8.2283  -15.4184   22.6270 N   0  0  0  0  0  0  0  0  0  0  0  0
    7.6623  -15.5534   23.9414 C   0  0  1  0  0  0  0  0  0  0  0  0
    7.6812  -17.0468   24.2279 C   0  0  0  0  0  0  0  0  0  0  0  0
    7.0025  -17.3963   25.4852 C   0  0  0  0  0  0  0  0  0  0  0  0
    7.1114  -18.8197   25.8841 C   0  0  0  0  0  0  0  0  0  0  0  0
    6.5148  -19.2800   26.8730 O   0  0  0  0  0  0  0  0  0  0  0  0
    8.2550  -14.8285   25.0322 C   0  0  0  0  0  0  0  0  0  0  0  0
    9.4370  -15.1509   25.4278 O   0  0  0  0  0  0  0  0  0  0  0  0
    7.9077  -19.7144   25.1441 O   0  0  0  0  0  0  0  0  0  0  0  0
    7.6700  -13.7325   25.7803 N   0  0  0  0  0  0  0  0  0  0  0  0
    6.4294  -13.1298   25.4439 C   0  0  0  0  0  0  0  0  0  0  0  0
    6.0960  -12.1518   26.5328 C   0  0  0  0  0  0  0  0  0  0  0  0
    7.1426  -12.3425   27.5823 C   0  0  0  0  0  0  0  0  0  0  0  0
    8.2506  -13.1146   26.9312 C   0  0  1  0  0  0  0  0  0  0  0  0
    8.7648  -14.0761   27.9480 C   0  0  0  0  0  0  0  0  0  0  0  0
    9.5233  -13.7383   29.0476 O   0  0  0  0  0  0  0  0  0  0  0  0
    8.4786  -15.2878   27.7764 O   0  0  0  0  0  0  0  0  0  0  0  0
  2  1  1  0
  2  4  1  0
  3  2  2  0
  5  4  1  0
  6  5  1  0
  6  7  1  6
  8  9  2  0
  8  6  1  0
 10  8  1  0
 11 10  1  0
 11 12  1  1
 13 14  1  0
 13 12  1  0
 14 15  2  0
 16 11  1  0
 16 17  2  0
 18 14  1  0
 19 16  1  0
 20 21  1  0
 20 19  1  0
 22 21  1  0
 22 23  1  0
 23 19  1  0
 23 24  1  1
 25 24  1  0
 26 24  2  0
M  END
$$$$
