QEP.pdb
     RDKit          3D

 26 26  0  0  1  0  0  0  0  0999 V2000
   10.0563  -13.1050   19.1717 N   0  0  0  0  0  0  0  0  0  0  0  0
    8.7685  -12.8867   19.7014 C   0  0  0  0  0  0  0  0  0  0  0  0
    8.3471  -11.7112   19.8023 O   0  0  0  0  0  0  0  0  0  0  0  0
    7.9385  -14.0314   20.1265 C   0  0  0  0  0  0  0  0  0  0  0  0
    8.5698  -15.3694   19.9421 C   0  0  0  0  0  0  0  0  0  0  0  0
    7.8294  -16.5024   20.5698 C   0  0  2  0  0  0  0  0  0  0  0  0
    6.7178  -16.8602   19.6790 N   0  0  0  0  0  0  0  0  0  0  0  0
    7.2565  -16.0797   21.8818 C   0  0  0  0  0  0  0  0  0  0  0  0
    6.0528  -15.6847   21.9233 O   0  0  0  0  0  0  0  0  0  0  0  0
    8.0560  -16.1222   23.0645 N   0  0  0  0  0  0  0  0  0  0  0  0
    7.5123  -15.8628   24.3696 C   0  0  1  0  0  0  0  0  0  0  0  0
    7.4887  -17.2158   25.0634 C   0  0  0  0  0  0  0  0  0  0  0  0
    6.5008  -18.1384   24.4835 C   0  0  0  0  0  0  0  0  0  0  0  0
    6.4408  -19.4763   25.1188 C   0  0  0  0  0  0  0  0  0  0  0  0
    7.0381  -19.7362   26.1778 O   0  0  0  0  0  0  0  0  0  0  0  0
    8.1497  -14.8835   25.2071 C   0  0  0  0  0  0  0  0  0  0  0  0
    9.4229  -14.9489   25.3871 O   0  0  0  0  0  0  0  0  0  0  0  0
    5.6927  -20.5162   24.5349 O   0  0  0  0  0  0  0  0  0  0  0  0
    7.5188  -13.7822   25.9085 N   0  0  0  0  0  0  0  0  0  0  0  0
    6.1938  -13.3446   25.6472 C   0  0  0  0  0  0  0  0  0  0  0  0
    5.8562  -12.3001   26.6712 C   0  0  0  0  0  0  0  0  0  0  0  0
    7.0094  -12.2776   27.6214 C   0  0  0  0  0  0  0  0  0  0  0  0
    8.1312  -12.9959   26.9333 C   0  0  1  0  0  0  0  0  0  0  0  0
    8.8393  -13.7931   27.9753 C   0  0  0  0  0  0  0  0  0  0  0  0
    8.7711  -15.1627   28.1095 O   0  0  0  0  0  0  0  0  0  0  0  0
    9.5501  -13.1535   28.7910 O   0  0  0  0  0  0  0  0  0  0  0  0
  2  1  1  0
  2  4  1  0
  3  2  2  0
  5  4  1  0
  6  5  1  0
  6  7  1  6
  8  9  2  0
  8  6  1  0
 10  8  1  0
 11 10  1  0
 11 12  1  1
 13 14  1  0
 13 12  1  0
 14 15  2  0
 16 11  1  0
 16 17  2  0
 18 14  1  0
 19 16  1  0
 20 21  1  0
 20 19  1  0
 22 21  1  0
 22 23  1  0
 23 19  1  0
 23 24  1  1
 25 24  1  0
 26 24  2  0
M  END
$$$$
