QEP.pdb
     RDKit          3D

 26 26  0  0  1  0  0  0  0  0999 V2000
    9.2597  -12.3862   18.5495 N   0  0  0  0  0  0  0  0  0  0  0  0
    8.4374  -13.3742   17.9714 C   0  0  0  0  0  0  0  0  0  0  0  0
    8.8278  -13.9540   16.9317 O   0  0  0  0  0  0  0  0  0  0  0  0
    7.1398  -13.7126   18.5893 C   0  0  0  0  0  0  0  0  0  0  0  0
    7.0686  -13.4954   20.0625 C   0  0  0  0  0  0  0  0  0  0  0  0
    8.1248  -14.1956   20.8499 C   0  0  2  0  0  0  0  0  0  0  0  0
    8.3132  -15.5283   20.2622 N   0  0  0  0  0  0  0  0  0  0  0  0
    7.6824  -14.3696   22.2650 C   0  0  0  0  0  0  0  0  0  0  0  0
    7.1357  -13.3918   22.8581 O   0  0  0  0  0  0  0  0  0  0  0  0
    7.8749  -15.6178   22.9318 N   0  0  0  0  0  0  0  0  0  0  0  0
    7.4911  -15.8246   24.3016 C   0  0  1  0  0  0  0  0  0  0  0  0
    7.2921  -17.3265   24.4332 C   0  0  0  0  0  0  0  0  0  0  0  0
    6.7047  -17.7142   25.7248 C   0  0  0  0  0  0  0  0  0  0  0  0
    6.5494  -19.1737   25.9324 C   0  0  0  0  0  0  0  0  0  0  0  0
    6.7156  -19.7082   27.0425 O   0  0  0  0  0  0  0  0  0  0  0  0
    8.3527  -15.3419   25.3463 C   0  0  0  0  0  0  0  0  0  0  0  0
    9.5180  -15.8701   25.4891 O   0  0  0  0  0  0  0  0  0  0  0  0
    6.2025  -20.0189   24.8612 O   0  0  0  0  0  0  0  0  0  0  0  0
    8.0687  -14.2912   26.3046 N   0  0  0  0  0  0  0  0  0  0  0  0
    6.8430  -13.5760   26.3412 C   0  0  0  0  0  0  0  0  0  0  0  0
    6.8746  -12.6937   27.5553 C   0  0  0  0  0  0  0  0  0  0  0  0
    8.1240  -13.0597   28.2889 C   0  0  0  0  0  0  0  0  0  0  0  0
    8.9657  -13.8337   27.3193 C   0  0  1  0  0  0  0  0  0  0  0  0
    9.6238  -14.9258   28.0920 C   0  0  0  0  0  0  0  0  0  0  0  0
   10.6266  -14.7485   29.0200 O   0  0  0  0  0  0  0  0  0  0  0  0
    9.2246  -16.0965   27.8688 O   0  0  0  0  0  0  0  0  0  0  0  0
  2  1  1  0
  2  4  1  0
  3  2  2  0
  5  4  1  0
  6  5  1  0
  6  7  1  6
  8  9  2  0
  8  6  1  0
 10  8  1  0
 11 10  1  0
 11 12  1  1
 13 14  1  0
 13 12  1  0
 14 15  2  0
 16 11  1  0
 16 17  2  0
 18 14  1  0
 19 16  1  0
 20 21  1  0
 20 19  1  0
 22 21  1  0
 22 23  1  0
 23 19  1  0
 23 24  1  1
 25 24  1  0
 26 24  2  0
M  END
$$$$
