QEP.pdb
     RDKit          3D

 26 26  0  0  1  0  0  0  0  0999 V2000
    7.9745  -12.5906   17.3323 N   0  0  0  0  0  0  0  0  0  0  0  0
    8.1244  -13.9704   17.0871 C   0  0  0  0  0  0  0  0  0  0  0  0
    8.2237  -14.3672   15.9029 O   0  0  0  0  0  0  0  0  0  0  0  0
    8.1629  -14.9232   18.2143 C   0  0  0  0  0  0  0  0  0  0  0  0
    7.9455  -14.3167   19.5588 C   0  0  0  0  0  0  0  0  0  0  0  0
    8.8091  -14.8705   20.6420 C   0  0  2  0  0  0  0  0  0  0  0  0
    9.0746  -16.2804   20.3275 N   0  0  0  0  0  0  0  0  0  0  0  0
    8.0943  -14.8126   21.9512 C   0  0  0  0  0  0  0  0  0  0  0  0
    7.4182  -13.7778   22.2321 O   0  0  0  0  0  0  0  0  0  0  0  0
    8.1753  -15.9068   22.8654 N   0  0  0  0  0  0  0  0  0  0  0  0
    7.6632  -15.8276   24.2062 C   0  0  1  0  0  0  0  0  0  0  0  0
    7.4378  -17.2711   24.6285 C   0  0  0  0  0  0  0  0  0  0  0  0
    6.3742  -17.9328   23.8575 C   0  0  0  0  0  0  0  0  0  0  0  0
    6.1727  -19.3682   24.1677 C   0  0  0  0  0  0  0  0  0  0  0  0
    6.6377  -20.2738   23.4540 O   0  0  0  0  0  0  0  0  0  0  0  0
    8.4281  -15.1296   25.2034 C   0  0  0  0  0  0  0  0  0  0  0  0
    9.5874  -15.5828   25.5322 O   0  0  0  0  0  0  0  0  0  0  0  0
    5.4351  -19.7619   25.3005 O   0  0  0  0  0  0  0  0  0  0  0  0
    8.0482  -13.9280   25.9210 N   0  0  0  0  0  0  0  0  0  0  0  0
    6.9085  -13.1479   25.5925 C   0  0  0  0  0  0  0  0  0  0  0  0
    6.7693  -12.0904   26.6489 C   0  0  0  0  0  0  0  0  0  0  0  0
    7.8056  -12.4074   27.6778 C   0  0  0  0  0  0  0  0  0  0  0  0
    8.7560  -13.3693   27.0302 C   0  0  1  0  0  0  0  0  0  0  0  0
    9.1439  -14.3630   28.0718 C   0  0  0  0  0  0  0  0  0  0  0  0
   10.0036  -14.1190   29.1205 O   0  0  0  0  0  0  0  0  0  0  0  0
    8.6416  -15.5109   27.9734 O   0  0  0  0  0  0  0  0  0  0  0  0
  2  1  1  0
  2  4  1  0
  3  2  2  0
  5  4  1  0
  6  5  1  0
  6  7  1  6
  8  9  2  0
  8  6  1  0
 10  8  1  0
 11 10  1  0
 11 12  1  1
 13 14  1  0
 13 12  1  0
 14 15  2  0
 16 11  1  0
 16 17  2  0
 18 14  1  0
 19 16  1  0
 20 21  1  0
 20 19  1  0
 22 21  1  0
 22 23  1  0
 23 19  1  0
 23 24  1  1
 25 24  1  0
 26 24  2  0
M  END
$$$$
