RFT.pdb
     RDKit          3D

 30 30  0  0  1  0  0  0  0  0999 V2000
   28.6718  -17.6804  -16.3536 N   0  0  0  0  0  0  0  0  0  0  0  0
   28.4772  -17.5945  -17.7618 C   0  0  0  0  0  0  0  0  0  0  0  0
   28.1138  -16.4914  -18.2748 N   0  0  0  0  0  0  0  0  0  0  0  0
   28.7127  -18.7814  -18.5038 N   0  0  0  0  0  0  0  0  0  0  0  0
   28.5594  -20.0672  -17.8574 C   0  0  0  0  0  0  0  0  0  0  0  0
   27.1227  -20.4946  -17.8562 C   0  0  0  0  0  0  0  0  0  0  0  0
   26.8596  -21.8024  -17.1814 C   0  0  0  0  0  0  0  0  0  0  0  0
   27.6644  -21.8943  -15.9155 C   0  0  2  0  0  0  0  0  0  0  0  0
   28.4987  -23.0735  -15.8816 N   0  0  0  0  0  0  0  0  0  0  0  0
   26.7768  -21.9424  -14.7076 C   0  0  0  0  0  0  0  0  0  0  0  0
   26.2743  -23.0590  -14.3379 O   0  0  0  0  0  0  0  0  0  0  0  0
   27.9981  -16.3943  -19.3053 N   0  0  0  0  0  0  0  0  0  0  0  0
   26.4564  -20.8051  -13.9393 C   0  0  2  0  0  0  0  0  0  0  0  0
   25.6200  -20.9343  -12.7102 C   0  0  0  0  0  0  0  0  0  0  0  0
   26.2500  -20.0038  -11.7058 C   0  0  0  0  0  0  0  0  0  0  0  0
   27.2533  -20.5739  -10.8304 C   0  0  0  0  0  0  0  0  0  0  0  0
   28.5012  -20.9551  -11.2658 C   0  0  0  0  0  0  0  0  0  0  0  0
   29.4403  -21.5140  -10.3958 C   0  0  0  0  0  0  0  0  0  0  0  0
   29.1517  -21.7054   -9.0626 C   0  0  0  0  0  0  0  0  0  0  0  0
   27.9096  -21.3295   -8.6115 C   0  0  0  0  0  0  0  0  0  0  0  0
   26.9929  -20.7825   -9.4677 C   0  0  0  0  0  0  0  0  0  0  0  0
   24.2925  -20.4411  -13.0848 O   0  0  0  0  0  0  0  0  0  0  0  0
   24.1863  -19.2505  -13.5357 C   0  0  0  0  0  0  0  0  0  0  0  0
   21.9358  -21.5477  -15.6392 C   0  0  2  0  0  0  0  0  0  0  0  0
   21.1494  -21.5260  -14.3612 O   0  0  0  0  0  0  0  0  0  0  0  0
   21.1416  -22.7754  -13.7271 C   0  0  2  0  0  0  0  0  0  0  0  0
   21.8001  -20.5602  -13.3665 N   0  0  0  0  0  0  0  0  0  0  0  0
   23.0763  -21.1638  -13.0052 C   0  0  0  0  0  0  0  0  0  0  0  0
   20.8907  -20.3622  -12.2548 O   0  0  0  0  0  0  0  0  0  0  0  0
   19.6621  -19.7622  -12.4601 O   0  0  0  0  0  0  0  0  0  0  0  0
  2  1  1  0
  3  2  2  0
  4  2  1  0
  5  4  1  0
  6  5  1  0
  7  6  1  0
  8  7  1  0
  8  9  1  6
 10 12  1  0
 10  8  1  0
 11 10  2  0
 13 21  1  0
 13 12  1  0
 13 14  1  6
 15 14  1  0
 16 15  2  0
 17 16  1  0
 18 19  1  0
 18 17  2  0
 19 20  2  0
 20 15  1  0
 21 27  1  0
 22 21  2  0
 24 25  1  0
 24 23  1  6
 24 26  1  0
 26 28  1  0
 26 27  1  1
 28 30  2  0
 28 29  1  0
M  END
$$$$
