RFT.pdb
     RDKit          3D

 30 30  0  0  1  0  0  0  0  0999 V2000
   27.0331  -19.0889  -18.2207 N   0  0  0  0  0  0  0  0  0  0  0  0
   28.3754  -18.7252  -17.9134 C   0  0  0  0  0  0  0  0  0  0  0  0
   28.9242  -17.7728  -18.5487 N   0  0  0  0  0  0  0  0  0  0  0  0
   29.0129  -19.4754  -16.8909 N   0  0  0  0  0  0  0  0  0  0  0  0
   28.2416  -20.4269  -16.1200 C   0  0  0  0  0  0  0  0  0  0  0  0
   27.0071  -19.7848  -15.5628 C   0  0  0  0  0  0  0  0  0  0  0  0
   26.6330  -20.2368  -14.1878 C   0  0  0  0  0  0  0  0  0  0  0  0
   27.8726  -20.4427  -13.3635 C   0  0  2  0  0  0  0  0  0  0  0  0
   28.7307  -21.4676  -13.9120 N   0  0  0  0  0  0  0  0  0  0  0  0
   27.5329  -20.8505  -11.9609 C   0  0  0  0  0  0  0  0  0  0  0  0
   26.9655  -21.9775  -11.7513 O   0  0  0  0  0  0  0  0  0  0  0  0
   29.9096  -17.4985  -18.3530 N   0  0  0  0  0  0  0  0  0  0  0  0
   27.8077  -20.0477  -10.8355 C   0  0  2  0  0  0  0  0  0  0  0  0
   27.3864  -20.4865   -9.4729 C   0  0  0  0  0  0  0  0  0  0  0  0
   28.2331  -19.6813   -8.5208 C   0  0  0  0  0  0  0  0  0  0  0  0
   27.9980  -19.8880   -7.1066 C   0  0  0  0  0  0  0  0  0  0  0  0
   27.2400  -19.0351   -6.3384 C   0  0  0  0  0  0  0  0  0  0  0  0
   27.0447  -19.2585   -4.9734 C   0  0  0  0  0  0  0  0  0  0  0  0
   27.6058  -20.3463   -4.3416 C   0  0  0  0  0  0  0  0  0  0  0  0
   28.3655  -21.2083   -5.0948 C   0  0  0  0  0  0  0  0  0  0  0  0
   28.5540  -20.9852   -6.4318 C   0  0  0  0  0  0  0  0  0  0  0  0
   25.9814  -20.0910   -9.3496 O   0  0  0  0  0  0  0  0  0  0  0  0
   25.7032  -18.8505   -9.2237 C   0  0  0  0  0  0  0  0  0  0  0  0
   23.2875  -19.8271  -11.5609 C   0  0  2  0  0  0  0  0  0  0  0  0
   22.7726  -20.7418  -10.4885 O   0  0  0  0  0  0  0  0  0  0  0  0
   23.0200  -22.0892  -10.7828 C   0  0  2  0  0  0  0  0  0  0  0  0
   23.5045  -20.4638   -9.1722 N   0  0  0  0  0  0  0  0  0  0  0  0
   24.8618  -20.9594   -9.3612 C   0  0  0  0  0  0  0  0  0  0  0  0
   22.7739  -21.1029   -8.0952 O   0  0  0  0  0  0  0  0  0  0  0  0
   21.4657  -20.7409   -7.8321 O   0  0  0  0  0  0  0  0  0  0  0  0
  2  1  1  0
  3  2  2  0
  4  2  1  0
  5  4  1  0
  6  5  1  0
  7  6  1  0
  8  7  1  0
  8  9  1  6
 10 12  1  0
 10  8  1  0
 11 10  2  0
 13 21  1  0
 13 12  1  0
 13 14  1  6
 15 14  1  0
 16 15  2  0
 17 16  1  0
 18 19  1  0
 18 17  2  0
 19 20  2  0
 20 15  1  0
 21 27  1  0
 22 21  2  0
 24 25  1  0
 24 23  1  6
 24 26  1  0
 26 28  1  0
 26 27  1  1
 28 30  2  0
 28 29  1  0
M  END
$$$$
