RFT.pdb
     RDKit          3D

 30 30  0  0  1  0  0  0  0  0999 V2000
   31.3796  -22.2502  -18.5702 N   0  0  0  0  0  0  0  0  0  0  0  0
   30.3654  -22.3179  -19.5677 C   0  0  0  0  0  0  0  0  0  0  0  0
   30.6679  -22.7029  -20.7392 N   0  0  0  0  0  0  0  0  0  0  0  0
   29.0581  -21.9408  -19.1634 N   0  0  0  0  0  0  0  0  0  0  0  0
   28.7141  -21.9611  -17.7578 C   0  0  0  0  0  0  0  0  0  0  0  0
   27.8059  -20.8188  -17.4154 C   0  0  0  0  0  0  0  0  0  0  0  0
   26.5483  -21.2097  -16.7079 C   0  0  0  0  0  0  0  0  0  0  0  0
   26.8010  -22.4154  -15.8470 C   0  0  2  0  0  0  0  0  0  0  0  0
   26.3405  -23.6367  -16.4667 N   0  0  0  0  0  0  0  0  0  0  0  0
   26.1033  -22.2969  -14.5248 C   0  0  0  0  0  0  0  0  0  0  0  0
   25.0133  -22.9362  -14.3270 O   0  0  0  0  0  0  0  0  0  0  0  0
   29.9535  -22.7192  -21.4968 N   0  0  0  0  0  0  0  0  0  0  0  0
   26.5882  -21.5053  -13.4643 C   0  0  1  0  0  0  0  0  0  0  0  0
   25.8300  -21.4124  -12.1823 C   0  0  0  0  0  0  0  0  0  0  0  0
   26.7781  -20.7576  -11.2109 C   0  0  0  0  0  0  0  0  0  0  0  0
   26.2750  -20.5133   -9.8748 C   0  0  0  0  0  0  0  0  0  0  0  0
   26.6814  -19.4507   -9.1015 C   0  0  0  0  0  0  0  0  0  0  0  0
   26.1845  -19.2528   -7.8111 C   0  0  0  0  0  0  0  0  0  0  0  0
   25.2641  -20.1177   -7.2612 C   0  0  0  0  0  0  0  0  0  0  0  0
   24.8474  -21.1840   -8.0207 C   0  0  0  0  0  0  0  0  0  0  0  0
   25.3373  -21.3737   -9.2844 C   0  0  0  0  0  0  0  0  0  0  0  0
   24.7009  -20.5205  -12.4574 O   0  0  0  0  0  0  0  0  0  0  0  0
   24.9241  -19.2680  -12.5734 C   0  0  0  0  0  0  0  0  0  0  0  0
   22.7080  -19.5073  -15.0805 C   0  0  2  0  0  0  0  0  0  0  0  0
   21.6988  -20.0136  -14.0920 O   0  0  0  0  0  0  0  0  0  0  0  0
   21.3953  -21.3662  -14.2961 C   0  0  2  0  0  0  0  0  0  0  0  0
   22.2708  -19.9264  -12.6739 N   0  0  0  0  0  0  0  0  0  0  0  0
   23.3474  -20.9069  -12.6199 C   0  0  0  0  0  0  0  0  0  0  0  0
   21.1961  -20.1585  -11.7288 O   0  0  0  0  0  0  0  0  0  0  0  0
   20.1440  -19.2658  -11.6396 O   0  0  0  0  0  0  0  0  0  0  0  0
  2  1  1  0
  3  2  2  0
  4  2  1  0
  5  4  1  0
  6  5  1  0
  7  6  1  0
  8  7  1  0
  8  9  1  6
 10 12  1  0
 10  8  1  0
 11 10  2  0
 13 21  1  0
 13 12  1  0
 13 14  1  6
 15 14  1  0
 16 15  2  0
 17 16  1  0
 18 19  1  0
 18 17  2  0
 19 20  2  0
 20 15  1  0
 21 27  1  0
 22 21  2  0
 24 25  1  0
 24 23  1  6
 24 26  1  0
 26 28  1  0
 26 27  1  1
 28 30  2  0
 28 29  1  0
M  END
$$$$
