RFT.pdb
     RDKit          3D

 30 30  0  0  1  0  0  0  0  0999 V2000
   30.4614  -24.0611  -18.2474 N   0  0  0  0  0  0  0  0  0  0  0  0
   30.4448  -23.4458  -19.5317 C   0  0  0  0  0  0  0  0  0  0  0  0
   30.8321  -24.1064  -20.5444 N   0  0  0  0  0  0  0  0  0  0  0  0
   29.9820  -22.1050  -19.5819 N   0  0  0  0  0  0  0  0  0  0  0  0
   29.3182  -21.5374  -18.4278 C   0  0  0  0  0  0  0  0  0  0  0  0
   27.9215  -22.0669  -18.3030 C   0  0  0  0  0  0  0  0  0  0  0  0
   27.0817  -21.3805  -17.2742 C   0  0  0  0  0  0  0  0  0  0  0  0
   27.8190  -21.3287  -15.9657 C   0  0  2  0  0  0  0  0  0  0  0  0
   28.8791  -22.3080  -15.8955 N   0  0  0  0  0  0  0  0  0  0  0  0
   26.8980  -21.5865  -14.8105 C   0  0  0  0  0  0  0  0  0  0  0  0
   26.4188  -22.7593  -14.6351 O   0  0  0  0  0  0  0  0  0  0  0  0
   30.8469  -23.6724  -21.4911 N   0  0  0  0  0  0  0  0  0  0  0  0
   26.5208  -20.5909  -13.8869 C   0  0  1  0  0  0  0  0  0  0  0  0
   25.7183  -20.9449  -12.6795 C   0  0  0  0  0  0  0  0  0  0  0  0
   26.3447  -20.1691  -11.5493 C   0  0  0  0  0  0  0  0  0  0  0  0
   27.5678  -20.7069  -10.9901 C   0  0  0  0  0  0  0  0  0  0  0  0
   27.6404  -21.2565   -9.7312 C   0  0  0  0  0  0  0  0  0  0  0  0
   28.8406  -21.7543   -9.2185 C   0  0  0  0  0  0  0  0  0  0  0  0
   30.0025  -21.7141   -9.9572 C   0  0  0  0  0  0  0  0  0  0  0  0
   29.9470  -21.1686  -11.2169 C   0  0  0  0  0  0  0  0  0  0  0  0
   28.7688  -20.6821  -11.7149 C   0  0  0  0  0  0  0  0  0  0  0  0
   24.3683  -20.4417  -12.9437 O   0  0  0  0  0  0  0  0  0  0  0  0
   24.1996  -19.1826  -13.0789 C   0  0  0  0  0  0  0  0  0  0  0  0
   22.0726  -21.2255  -15.6942 C   0  0  2  0  0  0  0  0  0  0  0  0
   21.2524  -21.3961  -14.4491 O   0  0  0  0  0  0  0  0  0  0  0  0
   21.2120  -22.7307  -14.0246 C   0  0  2  0  0  0  0  0  0  0  0  0
   21.8880  -20.6134  -13.2963 N   0  0  0  0  0  0  0  0  0  0  0  0
   23.1933  -21.2225  -13.0760 C   0  0  0  0  0  0  0  0  0  0  0  0
   20.9961  -20.6695  -12.1546 O   0  0  0  0  0  0  0  0  0  0  0  0
   21.3693  -21.3563  -11.0142 O   0  0  0  0  0  0  0  0  0  0  0  0
  2  1  1  0
  3  2  2  0
  4  2  1  0
  5  4  1  0
  6  5  1  0
  7  6  1  0
  8  7  1  0
  8  9  1  6
 10 12  1  0
 10  8  1  0
 11 10  2  0
 13 21  1  0
 13 12  1  0
 13 14  1  1
 15 14  1  0
 16 15  2  0
 17 16  1  0
 18 19  1  0
 18 17  2  0
 19 20  2  0
 20 15  1  0
 21 27  1  0
 22 21  2  0
 24 25  1  0
 24 23  1  6
 24 26  1  0
 26 28  1  0
 26 27  1  1
 28 30  2  0
 28 29  1  0
M  END
$$$$
