RFT.pdb
     RDKit          3D

 30 30  0  0  1  0  0  0  0  0999 V2000
    8.9448  -12.5069    6.7257 N   0  0  0  0  0  0  0  0  0  0  0  0
    8.9451  -13.7964    6.1210 C   0  0  0  0  0  0  0  0  0  0  0  0
    7.8669  -14.2566    5.6336 N   0  0  0  0  0  0  0  0  0  0  0  0
   10.1858  -14.4858    6.1082 N   0  0  0  0  0  0  0  0  0  0  0  0
   11.3778  -13.8151    6.5814 C   0  0  0  0  0  0  0  0  0  0  0  0
   12.2647  -13.4333    5.4349 C   0  0  0  0  0  0  0  0  0  0  0  0
   13.5326  -12.7452    5.8270 C   0  0  0  0  0  0  0  0  0  0  0  0
   14.2649  -12.2859    4.5977 C   0  0  2  0  0  0  0  0  0  0  0  0
   13.3663  -11.8139    3.5694 N   0  0  0  0  0  0  0  0  0  0  0  0
   15.0791  -13.3956    4.0018 C   0  0  0  0  0  0  0  0  0  0  0  0
   14.5007  -14.2980    3.3039 O   0  0  0  0  0  0  0  0  0  0  0  0
    7.8461  -15.1884    5.1688 N   0  0  0  0  0  0  0  0  0  0  0  0
   16.4742  -13.5053    4.1694 C   0  0  1  0  0  0  0  0  0  0  0  0
   17.2209  -14.6464    3.5633 C   0  0  0  0  0  0  0  0  0  0  0  0
   18.6641  -14.2120    3.5547 C   0  0  0  0  0  0  0  0  0  0  0  0
   19.6269  -15.1632    3.0387 C   0  0  0  0  0  0  0  0  0  0  0  0
   20.4482  -15.9145    3.8469 C   0  0  0  0  0  0  0  0  0  0  0  0
   21.3751  -16.8136    3.3142 C   0  0  0  0  0  0  0  0  0  0  0  0
   21.5025  -16.9834    1.9532 C   0  0  0  0  0  0  0  0  0  0  0  0
   20.6892  -16.2409    1.1319 C   0  0  0  0  0  0  0  0  0  0  0  0
   19.7827  -15.3612    1.6585 C   0  0  0  0  0  0  0  0  0  0  0  0
   17.0419  -15.7684    4.4878 O   0  0  0  0  0  0  0  0  0  0  0  0
   17.1493  -15.5515    5.7422 C   0  0  0  0  0  0  0  0  0  0  0  0
   16.3291  -19.8020    3.2947 C   0  0  2  0  0  0  0  0  0  0  0  0
   15.7421  -19.2290    4.5514 O   0  0  0  0  0  0  0  0  0  0  0  0
   15.5988  -20.1972    5.5540 C   0  0  1  0  0  0  0  0  0  0  0  0
   16.6850  -18.1697    5.1298 N   0  0  0  0  0  0  0  0  0  0  0  0
   16.7475  -17.1083    4.1333 C   0  0  0  0  0  0  0  0  0  0  0  0
   17.9587  -18.7974    5.4227 O   0  0  0  0  0  0  0  0  0  0  0  0
   18.1578  -19.4334    6.6340 O   0  0  0  0  0  0  0  0  0  0  0  0
  2  1  1  0
  3  2  2  0
  4  2  1  0
  5  4  1  0
  6  5  1  0
  7  6  1  0
  8  7  1  0
  8  9  1  6
 10 12  1  0
 10  8  1  0
 11 10  2  0
 13 21  1  0
 13 12  1  0
 13 14  1  1
 15 14  1  0
 16 15  2  0
 17 16  1  0
 18 19  1  0
 18 17  2  0
 19 20  2  0
 20 15  1  0
 21 27  1  0
 22 21  2  0
 24 25  1  0
 24 23  1  6
 24 26  1  0
 26 28  1  0
 26 27  1  6
 28 30  2  0
 28 29  1  0
M  END
$$$$
