RFT.pdb
     RDKit          3D

 30 30  0  0  1  0  0  0  0  0999 V2000
   24.1180  -19.0085  -17.5928 N   0  0  0  0  0  0  0  0  0  0  0  0
   23.6021  -18.1725  -16.5616 C   0  0  0  0  0  0  0  0  0  0  0  0
   22.5069  -17.5575  -16.7471 N   0  0  0  0  0  0  0  0  0  0  0  0
   24.3728  -18.0905  -15.3725 N   0  0  0  0  0  0  0  0  0  0  0  0
   25.7011  -18.6644  -15.3441 C   0  0  0  0  0  0  0  0  0  0  0  0
   25.6580  -20.0827  -14.8608 C   0  0  0  0  0  0  0  0  0  0  0  0
   25.5913  -20.2356  -13.3752 C   0  0  0  0  0  0  0  0  0  0  0  0
   26.9662  -20.4952  -12.8268 C   0  0  2  0  0  0  0  0  0  0  0  0
   27.6691  -21.5147  -13.5714 N   0  0  0  0  0  0  0  0  0  0  0  0
   26.9066  -20.9488  -11.3986 C   0  0  0  0  0  0  0  0  0  0  0  0
   26.2736  -22.0201  -11.1027 O   0  0  0  0  0  0  0  0  0  0  0  0
   22.1128  -16.9353  -16.0108 N   0  0  0  0  0  0  0  0  0  0  0  0
   27.5201  -20.2490  -10.3401 C   0  0  2  0  0  0  0  0  0  0  0  0
   27.2648  -20.6446   -8.9241 C   0  0  0  0  0  0  0  0  0  0  0  0
   28.1931  -19.7874   -8.1025 C   0  0  0  0  0  0  0  0  0  0  0  0
   28.1236  -19.9461   -6.6645 C   0  0  0  0  0  0  0  0  0  0  0  0
   27.6784  -18.9558   -5.8199 C   0  0  0  0  0  0  0  0  0  0  0  0
   27.6369  -19.1389   -4.4358 C   0  0  0  0  0  0  0  0  0  0  0  0
   28.0416  -20.3234   -3.8609 C   0  0  0  0  0  0  0  0  0  0  0  0
   28.4887  -21.3230   -4.6906 C   0  0  0  0  0  0  0  0  0  0  0  0
   28.5276  -21.1389   -6.0461 C   0  0  0  0  0  0  0  0  0  0  0  0
   25.8733  -20.2729   -8.6570 O   0  0  0  0  0  0  0  0  0  0  0  0
   25.5388  -19.0437   -8.7517 C   0  0  0  0  0  0  0  0  0  0  0  0
   23.2491  -19.7908  -10.2359 C   0  0  2  0  0  0  0  0  0  0  0  0
   22.6638  -20.7138   -9.2076 O   0  0  0  0  0  0  0  0  0  0  0  0
   22.6881  -22.0508   -9.6261 C   0  0  2  0  0  0  0  0  0  0  0  0
   23.5028  -20.6650   -7.9272 N   0  0  0  0  0  0  0  0  0  0  0  0
   24.8235  -21.1551   -8.2999 C   0  0  0  0  0  0  0  0  0  0  0  0
   22.8340  -21.4499   -6.9081 O   0  0  0  0  0  0  0  0  0  0  0  0
   21.5732  -21.0900   -6.4695 O   0  0  0  0  0  0  0  0  0  0  0  0
  2  1  1  0
  3  2  2  0
  4  2  1  0
  5  4  1  0
  6  5  1  0
  7  6  1  0
  8  7  1  0
  8  9  1  6
 10 12  1  0
 10  8  1  0
 11 10  2  0
 13 21  1  0
 13 12  1  0
 13 14  1  1
 15 14  1  0
 16 15  2  0
 17 16  1  0
 18 19  1  0
 18 17  2  0
 19 20  2  0
 20 15  1  0
 21 27  1  0
 22 21  2  0
 24 25  1  0
 24 23  1  6
 24 26  1  0
 26 28  1  0
 26 27  1  1
 28 30  2  0
 28 29  1  0
M  END
$$$$
