RFT.pdb
     RDKit          3D

 30 30  0  0  1  0  0  0  0  0999 V2000
   27.2295  -16.8937  -17.4458 N   0  0  0  0  0  0  0  0  0  0  0  0
   26.0040  -17.0505  -16.7375 C   0  0  0  0  0  0  0  0  0  0  0  0
   24.9041  -16.9182  -17.3578 N   0  0  0  0  0  0  0  0  0  0  0  0
   26.1098  -17.3527  -15.3547 N   0  0  0  0  0  0  0  0  0  0  0  0
   27.4188  -17.4414  -14.7436 C   0  0  0  0  0  0  0  0  0  0  0  0
   28.0757  -18.7462  -15.0791 C   0  0  0  0  0  0  0  0  0  0  0  0
   27.3500  -19.9569  -14.5868 C   0  0  0  0  0  0  0  0  0  0  0  0
   27.9040  -20.3772  -13.2545 C   0  0  2  0  0  0  0  0  0  0  0  0
   28.8919  -21.4242  -13.3781 N   0  0  0  0  0  0  0  0  0  0  0  0
   26.8221  -20.8907  -12.3517 C   0  0  0  0  0  0  0  0  0  0  0  0
   26.5947  -22.1479  -12.2912 O   0  0  0  0  0  0  0  0  0  0  0  0
   23.9960  -16.9652  -16.8502 N   0  0  0  0  0  0  0  0  0  0  0  0
   26.0235  -20.0515  -11.5490 C   0  0  2  0  0  0  0  0  0  0  0  0
   24.8722  -20.6112  -10.7821 C   0  0  0  0  0  0  0  0  0  0  0  0
   24.8498  -19.8403   -9.4872 C   0  0  0  0  0  0  0  0  0  0  0  0
   25.8389  -20.2067   -8.4945 C   0  0  0  0  0  0  0  0  0  0  0  0
   26.7285  -19.3081   -7.9528 C   0  0  0  0  0  0  0  0  0  0  0  0
   27.6783  -19.6994   -7.0063 C   0  0  0  0  0  0  0  0  0  0  0  0
   27.7607  -21.0055   -6.5768 C   0  0  0  0  0  0  0  0  0  0  0  0
   26.8790  -21.9156   -7.1077 C   0  0  0  0  0  0  0  0  0  0  0  0
   25.9502  -21.5276   -8.0349 C   0  0  0  0  0  0  0  0  0  0  0  0
   23.6813  -20.2937  -11.5737 O   0  0  0  0  0  0  0  0  0  0  0  0
   23.3988  -19.0667  -11.7899 C   0  0  0  0  0  0  0  0  0  0  0  0
   22.9011  -21.2487  -15.0416 C   0  0  2  0  0  0  0  0  0  0  0  0
   21.6988  -21.6370  -14.2319 O   0  0  0  0  0  0  0  0  0  0  0  0
   21.7564  -22.9723  -13.8117 C   0  0  2  0  0  0  0  0  0  0  0  0
   21.6430  -20.8009  -12.9499 N   0  0  0  0  0  0  0  0  0  0  0  0
   22.7836  -21.2269  -12.1492 C   0  0  0  0  0  0  0  0  0  0  0  0
   20.3535  -21.0085  -12.3205 O   0  0  0  0  0  0  0  0  0  0  0  0
   19.1975  -20.5810  -12.9469 O   0  0  0  0  0  0  0  0  0  0  0  0
  2  1  1  0
  3  2  2  0
  4  2  1  0
  5  4  1  0
  6  5  1  0
  7  6  1  0
  8  7  1  0
  8  9  1  6
 10 12  1  0
 10  8  1  0
 11 10  2  0
 13 21  1  0
 13 12  1  0
 13 14  1  1
 15 14  1  0
 16 15  2  0
 17 16  1  0
 18 19  1  0
 18 17  2  0
 19 20  2  0
 20 15  1  0
 21 27  1  0
 22 21  2  0
 24 25  1  0
 24 23  1  6
 24 26  1  0
 26 28  1  0
 26 27  1  6
 28 30  2  0
 28 29  1  0
M  END
$$$$
