PPY.pdb
     RDKit          3D

 27 29  0  0  1  0  0  0  0  0999 V2000
   26.8246  -20.8198  -11.4386 N   0  0  0  0  0  0  0  0  0  0  0  0
   26.6379  -21.2387  -10.0223 C   0  0  0  0  0  0  0  0  0  0  0  0
   25.6712  -20.1623   -9.5552 C   0  0  0  0  0  0  0  0  0  0  0  0
   24.7345  -20.0038  -10.7214 C   0  0  0  0  0  0  0  0  0  0  0  0
   25.4519  -20.6205  -11.8701 C   0  0  1  0  0  0  0  0  0  0  0  0
   25.3354  -19.8191  -13.0956 C   0  0  0  0  0  0  0  0  0  0  0  0
   24.1339  -19.4971  -13.4725 O   0  0  0  0  0  0  0  0  0  0  0  0
   26.3779  -19.3517  -13.9265 N   0  0  0  0  0  0  0  0  0  0  0  0
   27.7886  -19.4829  -13.7060 C   0  0  0  0  0  0  0  0  0  0  0  0
   28.4225  -19.2095  -15.0818 C   0  0  0  0  0  0  0  0  0  0  0  0
   27.4942  -18.1262  -15.6160 C   0  0  0  0  0  0  0  0  0  0  0  0
   26.1603  -18.6609  -15.1727 C   0  0  1  0  0  0  0  0  0  0  0  0
   25.7477  -19.6351  -16.2506 C   0  0  0  0  0  0  0  0  0  0  0  0
   26.1065  -20.8411  -16.1844 O   0  0  0  0  0  0  0  0  0  0  0  0
   19.3275  -18.3298  -15.2108 O   0  0  0  0  0  0  0  0  0  0  0  0
   20.3500  -19.0390  -15.8569 C   0  0  0  0  0  0  0  0  0  0  0  0
   21.3591  -19.5377  -15.0727 C   0  0  0  0  0  0  0  0  0  0  0  0
   22.3795  -20.2392  -15.6784 C   0  0  0  0  0  0  0  0  0  0  0  0
   22.4130  -20.4506  -17.0333 C   0  0  0  0  0  0  0  0  0  0  0  0
   23.5074  -21.2052  -17.6878 C   0  0  0  0  0  0  0  0  0  0  0  0
   24.4503  -20.2075  -18.3334 C   0  0  2  0  0  0  0  0  0  0  0  0
   24.9571  -19.2561  -17.3635 N   0  0  0  0  0  0  0  0  0  0  0  0
   23.7961  -19.4398  -19.4159 C   0  0  0  0  0  0  0  0  0  0  0  0
   23.2302  -20.0572  -20.5399 O   0  0  0  0  0  0  0  0  0  0  0  0
   21.3751  -19.9319  -17.7992 C   0  0  0  0  0  0  0  0  0  0  0  0
   20.3611  -19.2366  -17.2108 C   0  0  0  0  0  0  0  0  0  0  0  0
   23.7144  -18.1856  -19.3828 O   0  0  0  0  0  0  0  0  0  0  0  0
  1  2  1  0
  2  3  1  0
  4  3  1  0
  5  4  1  0
  5  1  1  0
  6  7  2  0
  5  6  1  6
  8  6  1  0
  9  8  1  0
 10  9  1  0
 11 10  1  0
 11 12  1  0
 12  8  1  0
 12 13  1  6
 14 13  2  0
 16 15  1  0
 17 16  2  0
 18 17  1  0
 19 25  1  0
 19 18  2  0
 20 19  1  0
 21 20  1  1
 21 22  1  0
 22 13  1  0
 23 21  1  0
 24 23  1  0
 25 26  2  0
 26 16  1  0
 27 23  2  0
M  END
$$$$
