PPY.pdb
     RDKit          3D

 27 29  0  0  1  0  0  0  0  0999 V2000
   27.1884  -19.2591  -16.8294 N   0  0  0  0  0  0  0  0  0  0  0  0
   27.5270  -18.0102  -17.5654 C   0  0  0  0  0  0  0  0  0  0  0  0
   27.3378  -16.9906  -16.4538 C   0  0  0  0  0  0  0  0  0  0  0  0
   27.9230  -17.6747  -15.2487 C   0  0  0  0  0  0  0  0  0  0  0  0
   27.9830  -19.1140  -15.6220 C   0  0  1  0  0  0  0  0  0  0  0  0
   27.5486  -19.9924  -14.5278 C   0  0  0  0  0  0  0  0  0  0  0  0
   26.3161  -20.4041  -14.5616 O   0  0  0  0  0  0  0  0  0  0  0  0
   28.3109  -20.4486  -13.4293 N   0  0  0  0  0  0  0  0  0  0  0  0
   29.7070  -20.2261  -13.1896 C   0  0  0  0  0  0  0  0  0  0  0  0
   29.8984  -20.5435  -11.6957 C   0  0  0  0  0  0  0  0  0  0  0  0
   28.9298  -21.7063  -11.5222 C   0  0  0  0  0  0  0  0  0  0  0  0
   27.7658  -21.2220  -12.3421 C   0  0  1  0  0  0  0  0  0  0  0  0
   26.9695  -20.3370  -11.4127 C   0  0  0  0  0  0  0  0  0  0  0  0
   27.2652  -19.1182  -11.2919 O   0  0  0  0  0  0  0  0  0  0  0  0
   20.6221  -22.7143  -13.1132 O   0  0  0  0  0  0  0  0  0  0  0  0
   21.5020  -21.8329  -12.4693 C   0  0  0  0  0  0  0  0  0  0  0  0
   21.1788  -21.4451  -11.1937 C   0  0  0  0  0  0  0  0  0  0  0  0
   22.0237  -20.5784  -10.5340 C   0  0  0  0  0  0  0  0  0  0  0  0
   23.1699  -20.0971  -11.1137 C   0  0  0  0  0  0  0  0  0  0  0  0
   24.0812  -19.1665  -10.4073 C   0  0  0  0  0  0  0  0  0  0  0  0
   25.1476  -19.9878   -9.7076 C   0  0  2  0  0  0  0  0  0  0  0  0
   25.8775  -20.8162  -10.6476 N   0  0  0  0  0  0  0  0  0  0  0  0
   24.5776  -20.8785   -8.6726 C   0  0  0  0  0  0  0  0  0  0  0  0
   23.9032  -20.3877   -7.5461 O   0  0  0  0  0  0  0  0  0  0  0  0
   23.4683  -20.5098  -12.4074 C   0  0  0  0  0  0  0  0  0  0  0  0
   22.6399  -21.3664  -13.0690 C   0  0  0  0  0  0  0  0  0  0  0  0
   24.6703  -22.1299   -8.7513 O   0  0  0  0  0  0  0  0  0  0  0  0
  1  2  1  0
  2  3  1  0
  4  3  1  0
  5  4  1  0
  5  1  1  0
  6  7  2  0
  5  6  1  1
  8  6  1  0
  9  8  1  0
 10  9  1  0
 11 10  1  0
 11 12  1  0
 12  8  1  0
 12 13  1  1
 14 13  2  0
 16 15  1  0
 17 16  2  0
 18 17  1  0
 19 25  1  0
 19 18  2  0
 20 19  1  0
 21 20  1  6
 21 22  1  0
 22 13  1  0
 23 21  1  0
 24 23  1  0
 25 26  2  0
 26 16  1  0
 27 23  2  0
M  END
$$$$
