PPY.pdb
     RDKit          3D

 27 29  0  0  1  0  0  0  0  0999 V2000
   15.2579  -19.7932    3.0396 N   0  0  0  0  0  0  0  0  0  0  0  0
   14.2325  -18.9894    3.7598 C   0  0  0  0  0  0  0  0  0  0  0  0
   13.7207  -20.0333    4.7392 C   0  0  0  0  0  0  0  0  0  0  0  0
   14.9711  -20.7476    5.1739 C   0  0  0  0  0  0  0  0  0  0  0  0
   15.9848  -20.3988    4.1418 C   0  0  1  0  0  0  0  0  0  0  0  0
   16.7941  -21.5574    3.7412 C   0  0  0  0  0  0  0  0  0  0  0  0
   16.4647  -22.1455    2.6298 O   0  0  0  0  0  0  0  0  0  0  0  0
   17.8965  -22.1203    4.4221 N   0  0  0  0  0  0  0  0  0  0  0  0
   18.4356  -21.7128    5.6868 C   0  0  0  0  0  0  0  0  0  0  0  0
   19.3001  -22.9028    6.1405 C   0  0  0  0  0  0  0  0  0  0  0  0
   19.8697  -23.3695    4.8070 C   0  0  0  0  0  0  0  0  0  0  0  0
   18.6569  -23.2402    3.9271 C   0  0  1  0  0  0  0  0  0  0  0  0
   17.8893  -24.5262    4.1217 C   0  0  0  0  0  0  0  0  0  0  0  0
   16.9539  -24.5834    4.9640 O   0  0  0  0  0  0  0  0  0  0  0  0
   20.4880  -27.3053   -1.9474 O   0  0  0  0  0  0  0  0  0  0  0  0
   19.5485  -27.3204   -0.9068 C   0  0  0  0  0  0  0  0  0  0  0  0
   18.7762  -26.1984   -0.7433 C   0  0  0  0  0  0  0  0  0  0  0  0
   17.8435  -26.1820    0.2716 C   0  0  0  0  0  0  0  0  0  0  0  0
   17.6678  -27.2488    1.1157 C   0  0  0  0  0  0  0  0  0  0  0  0
   16.6654  -27.2355    2.2069 C   0  0  0  0  0  0  0  0  0  0  0  0
   17.3828  -26.9162    3.5049 C   0  0  2  0  0  0  0  0  0  0  0  0
   18.1715  -25.7050    3.3882 N   0  0  0  0  0  0  0  0  0  0  0  0
   18.2921  -28.0057    3.9236 C   0  0  0  0  0  0  0  0  0  0  0  0
   19.6647  -27.8044    4.1244 O   0  0  0  0  0  0  0  0  0  0  0  0
   18.4665  -28.3703    0.9228 C   0  0  0  0  0  0  0  0  0  0  0  0
   19.3920  -28.3974   -0.0775 C   0  0  0  0  0  0  0  0  0  0  0  0
   17.8771  -29.1759    4.1213 O   0  0  0  0  0  0  0  0  0  0  0  0
  1  2  1  0
  2  3  1  0
  4  3  1  0
  5  4  1  0
  5  1  1  0
  6  7  2  0
  5  6  1  6
  8  6  1  0
  9  8  1  0
 10  9  1  0
 11 10  1  0
 11 12  1  0
 12  8  1  0
 12 13  1  1
 14 13  2  0
 16 15  1  0
 17 16  2  0
 18 17  1  0
 19 25  1  0
 19 18  2  0
 20 19  1  0
 21 20  1  6
 21 22  1  0
 22 13  1  0
 23 21  1  0
 24 23  1  0
 25 26  2  0
 26 16  1  0
 27 23  2  0
M  END
$$$$
