PPY.pdb
     RDKit          3D

 27 29  0  0  1  0  0  0  0  0999 V2000
   28.0408  -18.7335   -4.6659 N   0  0  0  0  0  0  0  0  0  0  0  0
   29.1477  -18.2077   -3.8206 C   0  0  0  0  0  0  0  0  0  0  0  0
   30.2694  -19.1413   -4.2462 C   0  0  0  0  0  0  0  0  0  0  0  0
   30.0714  -19.2714   -5.7315 C   0  0  0  0  0  0  0  0  0  0  0  0
   28.6767  -18.8101   -5.9697 C   0  0  1  0  0  0  0  0  0  0  0  0
   27.9594  -19.6706   -6.9198 C   0  0  0  0  0  0  0  0  0  0  0  0
   28.4425  -19.7427   -8.1243 O   0  0  0  0  0  0  0  0  0  0  0  0
   26.7952  -20.4359   -6.6859 N   0  0  0  0  0  0  0  0  0  0  0  0
   26.0554  -20.5385   -5.4620 C   0  0  0  0  0  0  0  0  0  0  0  0
   24.6918  -21.1165   -5.8813 C   0  0  0  0  0  0  0  0  0  0  0  0
   25.1134  -22.0735   -6.9890 C   0  0  0  0  0  0  0  0  0  0  0  0
   26.1521  -21.2436   -7.6917 C   0  0  1  0  0  0  0  0  0  0  0  0
   25.3777  -20.3723   -8.6521 C   0  0  0  0  0  0  0  0  0  0  0  0
   25.0293  -19.2103   -8.3117 O   0  0  0  0  0  0  0  0  0  0  0  0
   24.1961  -23.7687  -15.9023 O   0  0  0  0  0  0  0  0  0  0  0  0
   24.5006  -22.7796  -14.9563 C   0  0  0  0  0  0  0  0  0  0  0  0
   23.6175  -21.7370  -14.8332 C   0  0  0  0  0  0  0  0  0  0  0  0
   23.8892  -20.7481  -13.9120 C   0  0  0  0  0  0  0  0  0  0  0  0
   25.0096  -20.7781  -13.1212 C   0  0  0  0  0  0  0  0  0  0  0  0
   25.3043  -19.7177  -12.1292 C   0  0  0  0  0  0  0  0  0  0  0  0
   24.3984  -19.9260  -10.9303 C   0  0  2  0  0  0  0  0  0  0  0  0
   25.0113  -20.8026   -9.9512 N   0  0  0  0  0  0  0  0  0  0  0  0
   23.0962  -20.5174  -11.3097 C   0  0  0  0  0  0  0  0  0  0  0  0
   22.0798  -19.7698  -11.9201 O   0  0  0  0  0  0  0  0  0  0  0  0
   25.8840  -21.8485  -13.2711 C   0  0  0  0  0  0  0  0  0  0  0  0
   25.6253  -22.8318  -14.1788 C   0  0  0  0  0  0  0  0  0  0  0  0
   22.8332  -21.7292  -11.1018 O   0  0  0  0  0  0  0  0  0  0  0  0
  1  2  1  0
  2  3  1  0
  4  3  1  0
  5  4  1  0
  5  1  1  0
  6  7  2  0
  5  6  1  6
  8  6  1  0
  9  8  1  0
 10  9  1  0
 11 10  1  0
 11 12  1  0
 12  8  1  0
 12 13  1  6
 14 13  2  0
 16 15  1  0
 17 16  2  0
 18 17  1  0
 19 25  1  0
 19 18  2  0
 20 19  1  0
 21 20  1  6
 21 22  1  0
 22 13  1  0
 23 21  1  0
 24 23  1  0
 25 26  2  0
 26 16  1  0
 27 23  2  0
M  END
$$$$
