PPY.pdb
     RDKit          3D

 27 29  0  0  1  0  0  0  0  0999 V2000
   27.6011  -17.8960  -15.2026 N   0  0  0  0  0  0  0  0  0  0  0  0
   27.6060  -16.7257  -16.1228 C   0  0  0  0  0  0  0  0  0  0  0  0
   26.1096  -16.5103  -16.2817 C   0  0  0  0  0  0  0  0  0  0  0  0
   25.5746  -16.7357  -14.8941 C   0  0  0  0  0  0  0  0  0  0  0  0
   26.6595  -17.4656  -14.1837 C   0  0  1  0  0  0  0  0  0  0  0  0
   26.1442  -18.5683  -13.3614 C   0  0  0  0  0  0  0  0  0  0  0  0
   25.2271  -18.2698  -12.4900 O   0  0  0  0  0  0  0  0  0  0  0  0
   26.5272  -19.9276  -13.3980 N   0  0  0  0  0  0  0  0  0  0  0  0
   27.5308  -20.5244  -14.2302 C   0  0  0  0  0  0  0  0  0  0  0  0
   27.8312  -21.8788  -13.5634 C   0  0  0  0  0  0  0  0  0  0  0  0
   26.4444  -22.2700  -13.0694 C   0  0  0  0  0  0  0  0  0  0  0  0
   25.9486  -20.9457  -12.5576 C   0  0  1  0  0  0  0  0  0  0  0  0
   26.4890  -20.8387  -11.1513 C   0  0  0  0  0  0  0  0  0  0  0  0
   27.7024  -20.5584  -10.9595 O   0  0  0  0  0  0  0  0  0  0  0  0
   29.1329  -19.5699   -3.2581 O   0  0  0  0  0  0  0  0  0  0  0  0
   28.5793  -19.5448   -4.5460 C   0  0  0  0  0  0  0  0  0  0  0  0
   27.5163  -20.3777   -4.7877 C   0  0  0  0  0  0  0  0  0  0  0  0
   26.9503  -20.3766   -6.0446 C   0  0  0  0  0  0  0  0  0  0  0  0
   27.4172  -19.5717   -7.0523 C   0  0  0  0  0  0  0  0  0  0  0  0
   26.8106  -19.5668   -8.4042 C   0  0  0  0  0  0  0  0  0  0  0  0
   26.1928  -20.9302   -8.6508 C   0  0  2  0  0  0  0  0  0  0  0  0
   25.6834  -21.0422  -10.0038 N   0  0  0  0  0  0  0  0  0  0  0  0
   25.0737  -21.2125   -7.7249 C   0  0  0  0  0  0  0  0  0  0  0  0
   23.7481  -21.3368   -8.1630 O   0  0  0  0  0  0  0  0  0  0  0  0
   28.4958  -18.7396   -6.7743 C   0  0  0  0  0  0  0  0  0  0  0  0
   29.0633  -18.7326   -5.5351 C   0  0  0  0  0  0  0  0  0  0  0  0
   25.2562  -21.3556   -6.4892 O   0  0  0  0  0  0  0  0  0  0  0  0
  1  2  1  0
  2  3  1  0
  4  3  1  0
  5  4  1  0
  5  1  1  0
  6  7  2  0
  5  6  1  6
  8  6  1  0
  9  8  1  0
 10  9  1  0
 11 10  1  0
 11 12  1  0
 12  8  1  0
 12 13  1  1
 14 13  2  0
 16 15  1  0
 17 16  2  0
 18 17  1  0
 19 25  1  0
 19 18  2  0
 20 19  1  0
 21 20  1  1
 21 22  1  0
 22 13  1  0
 23 21  1  0
 24 23  1  0
 25 26  2  0
 26 16  1  0
 27 23  2  0
M  END
$$$$
