CYK.pdb
     RDKit          3D

 28 28  0  0  1  0  0  0  0  0999 V2000
   28.7097  -22.1943  -17.5229 N   0  0  0  0  0  0  0  0  0  0  0  0
   28.4478  -20.8891  -16.8835 C   0  0  1  0  0  0  0  0  0  0  0  0
   27.8486  -19.9796  -17.9575 C   0  0  0  0  0  0  0  0  0  0  0  0
   29.1044  -19.3389  -19.0722 S   0  0  0  0  0  0  0  0  0  0  0  0
   27.4560  -21.1322  -15.8278 C   0  0  0  0  0  0  0  0  0  0  0  0
   26.6123  -22.0884  -15.9183 O   0  0  0  0  0  0  0  0  0  0  0  0
   22.7241  -21.0534   -8.3480 O   0  0  0  0  0  0  0  0  0  0  0  0
   23.7036  -20.8124   -9.3272 C   0  0  0  0  0  0  0  0  0  0  0  0
   23.5068  -19.9102  -10.3433 C   0  0  0  0  0  0  0  0  0  0  0  0
   24.4526  -19.6484  -11.3261 C   0  0  0  0  0  0  0  0  0  0  0  0
   25.6403  -20.3363  -11.2630 C   0  0  0  0  0  0  0  0  0  0  0  0
   26.6777  -20.0883  -12.2899 C   0  0  0  0  0  0  0  0  0  0  0  0
   26.2712  -20.5995  -13.6645 C   0  0  2  0  0  0  0  0  0  0  0  0
   27.3262  -20.3632  -14.6313 N   0  0  0  0  0  0  0  0  0  0  0  0
   24.9584  -20.0884  -14.1098 C   0  0  0  0  0  0  0  0  0  0  0  0
   24.8452  -18.8810  -14.5192 O   0  0  0  0  0  0  0  0  0  0  0  0
   25.8633  -21.2466  -10.2546 C   0  0  0  0  0  0  0  0  0  0  0  0
   24.8960  -21.4938   -9.2759 C   0  0  0  0  0  0  0  0  0  0  0  0
   23.7788  -20.8756  -14.1151 N   0  0  0  0  0  0  0  0  0  0  0  0
   22.5079  -20.2452  -14.5209 C   0  0  1  0  0  0  0  0  0  0  0  0
   22.1154  -20.7535  -15.8944 C   0  0  0  0  0  0  0  0  0  0  0  0
   20.7755  -20.2678  -16.3423 C   0  0  0  0  0  0  0  0  0  0  0  0
   20.3861  -20.8187  -17.7002 C   0  0  0  0  0  0  0  0  0  0  0  0
   19.0827  -20.1730  -18.1300 C   0  0  0  0  0  0  0  0  0  0  0  0
   18.6563  -20.6407  -19.4299 N   0  0  0  0  0  0  0  0  0  0  0  0
   21.4789  -20.6404  -13.5571 C   0  0  0  0  0  0  0  0  0  0  0  0
   21.6726  -21.7366  -12.7469 O   0  0  0  0  0  0  0  0  0  0  0  0
   20.4180  -19.9951  -13.4571 O   0  0  0  0  0  0  0  0  0  0  0  0
  2  3  1  0
  2  1  1  6
  3  4  1  0
  5  2  1  0
  5  6  2  0
  8  9  2  0
  8  7  1  0
 10  9  1  0
 11 10  2  0
 12 11  1  0
 13 12  1  1
 13 14  1  0
 14  5  1  0
 15 13  1  0
 15 19  1  0
 16 15  2  0
 17 11  1  0
 17 18  2  0
 18  8  1  0
 20 19  1  0
 20 26  1  0
 20 21  1  6
 22 21  1  0
 23 22  1  0
 24 23  1  0
 25 24  1  0
 26 28  2  0
 26 27  1  0
M  END
$$$$
