CYK.pdb
     RDKit          3D

 28 28  0  0  1  0  0  0  0  0999 V2000
   24.8996  -34.1994  -12.3068 N   0  0  0  0  0  0  0  0  0  0  0  0
   24.9059  -35.0791  -11.1207 C   0  0  1  0  0  0  0  0  0  0  0  0
   25.8483  -36.2423  -11.4343 C   0  0  0  0  0  0  0  0  0  0  0  0
   26.0149  -37.3662  -10.0418 S   0  0  0  0  0  0  0  0  0  0  0  0
   25.4500  -34.2832  -10.0126 C   0  0  0  0  0  0  0  0  0  0  0  0
   26.3110  -33.3610  -10.2191 O   0  0  0  0  0  0  0  0  0  0  0  0
   21.9569  -29.0835  -10.1465 O   0  0  0  0  0  0  0  0  0  0  0  0
   22.6134  -30.0181   -9.3268 C   0  0  0  0  0  0  0  0  0  0  0  0
   23.8397  -29.7570   -8.7672 C   0  0  0  0  0  0  0  0  0  0  0  0
   24.5153  -30.6573   -7.9536 C   0  0  0  0  0  0  0  0  0  0  0  0
   23.9110  -31.8662   -7.7064 C   0  0  0  0  0  0  0  0  0  0  0  0
   24.5950  -32.8563   -6.8438 C   0  0  0  0  0  0  0  0  0  0  0  0
   25.6762  -33.6280   -7.5864 C   0  0  2  0  0  0  0  0  0  0  0  0
   25.0950  -34.4401   -8.6382 N   0  0  0  0  0  0  0  0  0  0  0  0
   26.5612  -34.3982   -6.6883 C   0  0  0  0  0  0  0  0  0  0  0  0
   26.1427  -35.4804   -6.1481 O   0  0  0  0  0  0  0  0  0  0  0  0
   22.6815  -32.1535   -8.2551 C   0  0  0  0  0  0  0  0  0  0  0  0
   22.0200  -31.2311   -9.0715 C   0  0  0  0  0  0  0  0  0  0  0  0
   27.8878  -34.0038   -6.3784 N   0  0  0  0  0  0  0  0  0  0  0  0
   28.6620  -34.8138   -5.4183 C   0  0  1  0  0  0  0  0  0  0  0  0
   30.1094  -34.3628   -5.4386 C   0  0  0  0  0  0  0  0  0  0  0  0
   30.9822  -35.1391   -4.5073 C   0  0  0  0  0  0  0  0  0  0  0  0
   32.4066  -34.6202   -4.4835 C   0  0  0  0  0  0  0  0  0  0  0  0
   33.2283  -35.5005   -3.5613 C   0  0  0  0  0  0  0  0  0  0  0  0
   34.6166  -35.0979   -3.5330 N   0  0  0  0  0  0  0  0  0  0  0  0
   28.1112  -34.5803   -4.0818 C   0  0  0  0  0  0  0  0  0  0  0  0
   28.0724  -35.6021   -3.1601 O   0  0  0  0  0  0  0  0  0  0  0  0
   27.6706  -33.4601   -3.7611 O   0  0  0  0  0  0  0  0  0  0  0  0
  2  3  1  0
  2  1  1  6
  3  4  1  0
  5  2  1  0
  5  6  2  0
  8  9  2  0
  8  7  1  0
 10  9  1  0
 11 10  2  0
 12 11  1  0
 13 12  1  1
 13 14  1  0
 14  5  1  0
 15 13  1  0
 15 19  1  0
 16 15  2  0
 17 11  1  0
 17 18  2  0
 18  8  1  0
 20 19  1  0
 20 26  1  0
 20 21  1  1
 22 21  1  0
 23 22  1  0
 24 23  1  0
 25 24  1  0
 26 28  2  0
 26 27  1  0
M  END
$$$$
