CYK.pdb
     RDKit          3D

 28 28  0  0  1  0  0  0  0  0999 V2000
   27.5220  -19.6905  -17.1404 N   0  0  0  0  0  0  0  0  0  0  0  0
   26.9851  -19.2233  -15.8464 C   0  0  1  0  0  0  0  0  0  0  0  0
   26.5889  -17.7576  -16.0321 C   0  0  0  0  0  0  0  0  0  0  0  0
   28.0051  -16.6580  -15.9084 S   0  0  0  0  0  0  0  0  0  0  0  0
   25.7891  -20.0310  -15.5737 C   0  0  0  0  0  0  0  0  0  0  0  0
   24.9186  -20.2544  -16.4829 O   0  0  0  0  0  0  0  0  0  0  0  0
   25.6437  -19.7362   -8.0907 O   0  0  0  0  0  0  0  0  0  0  0  0
   25.3563  -20.3970   -9.2978 C   0  0  0  0  0  0  0  0  0  0  0  0
   26.3453  -20.7673  -10.1753 C   0  0  0  0  0  0  0  0  0  0  0  0
   26.0964  -21.4208  -11.3752 C   0  0  0  0  0  0  0  0  0  0  0  0
   24.7878  -21.7035  -11.6842 C   0  0  0  0  0  0  0  0  0  0  0  0
   24.4761  -22.3998  -12.9531 C   0  0  0  0  0  0  0  0  0  0  0  0
   24.2839  -21.4358  -14.1150 C   0  0  2  0  0  0  0  0  0  0  0  0
   25.4753  -20.6340  -14.3177 N   0  0  0  0  0  0  0  0  0  0  0  0
   23.0564  -20.6218  -13.9978 C   0  0  0  0  0  0  0  0  0  0  0  0
   23.0702  -19.5329  -13.3254 O   0  0  0  0  0  0  0  0  0  0  0  0
   23.7768  -21.3433  -10.8219 C   0  0  0  0  0  0  0  0  0  0  0  0
   24.0517  -20.6858   -9.6190 C   0  0  0  0  0  0  0  0  0  0  0  0
   21.8252  -20.9801  -14.6038 N   0  0  0  0  0  0  0  0  0  0  0  0
   20.6315  -20.1597  -14.3222 C   0  0  1  0  0  0  0  0  0  0  0  0
   20.2728  -19.3601  -15.5596 C   0  0  0  0  0  0  0  0  0  0  0  0
   20.1496  -20.1997  -16.7891 C   0  0  0  0  0  0  0  0  0  0  0  0
   19.4467  -19.4709  -17.9177 C   0  0  0  0  0  0  0  0  0  0  0  0
   19.3708  -20.3944  -19.1185 C   0  0  0  0  0  0  0  0  0  0  0  0
   18.7594  -19.7447  -20.2561 N   0  0  0  0  0  0  0  0  0  0  0  0
   19.5251  -21.0648  -14.0051 C   0  0  0  0  0  0  0  0  0  0  0  0
   18.2951  -20.5580  -13.6506 O   0  0  0  0  0  0  0  0  0  0  0  0
   19.6796  -22.3001  -14.0498 O   0  0  0  0  0  0  0  0  0  0  0  0
  2  3  1  0
  2  1  1  6
  3  4  1  0
  5  2  1  0
  5  6  2  0
  8  9  2  0
  8  7  1  0
 10  9  1  0
 11 10  2  0
 12 11  1  0
 13 12  1  1
 13 14  1  0
 14  5  1  0
 15 13  1  0
 15 19  1  0
 16 15  2  0
 17 11  1  0
 17 18  2  0
 18  8  1  0
 20 19  1  0
 20 26  1  0
 20 21  1  6
 22 21  1  0
 23 22  1  0
 24 23  1  0
 25 24  1  0
 26 28  2  0
 26 27  1  0
M  END
$$$$
