CYK.pdb
     RDKit          3D

 28 28  0  0  1  0  0  0  0  0999 V2000
   28.4074  -20.3468  -15.8117 N   0  0  0  0  0  0  0  0  0  0  0  0
   28.0851  -19.7336  -14.5075 C   0  0  1  0  0  0  0  0  0  0  0  0
   27.5577  -18.3270  -14.7953 C   0  0  0  0  0  0  0  0  0  0  0  0
   28.8634  -17.2181  -15.3390 S   0  0  0  0  0  0  0  0  0  0  0  0
   27.0204  -20.5518  -13.9124 C   0  0  0  0  0  0  0  0  0  0  0  0
   26.1605  -21.1537  -14.6423 O   0  0  0  0  0  0  0  0  0  0  0  0
   28.1611  -18.6894   -6.7809 O   0  0  0  0  0  0  0  0  0  0  0  0
   27.6497  -19.5679   -7.7520 C   0  0  0  0  0  0  0  0  0  0  0  0
   26.3001  -19.7497   -7.9269 C   0  0  0  0  0  0  0  0  0  0  0  0
   25.7618  -20.6091   -8.8759 C   0  0  0  0  0  0  0  0  0  0  0  0
   26.6392  -21.3049   -9.6720 C   0  0  0  0  0  0  0  0  0  0  0  0
   26.1094  -22.2319  -10.6978 C   0  0  0  0  0  0  0  0  0  0  0  0
   25.7136  -21.5164  -11.9814 C   0  0  2  0  0  0  0  0  0  0  0  0
   26.8321  -20.7609  -12.5122 N   0  0  0  0  0  0  0  0  0  0  0  0
   24.4871  -20.7049  -11.8398 C   0  0  0  0  0  0  0  0  0  0  0  0
   24.5710  -19.4585  -11.5611 O   0  0  0  0  0  0  0  0  0  0  0  0
   27.9974  -21.1412   -9.5175 C   0  0  0  0  0  0  0  0  0  0  0  0
   28.5163  -20.2701   -8.5548 C   0  0  0  0  0  0  0  0  0  0  0  0
   23.1815  -21.2348  -12.0004 N   0  0  0  0  0  0  0  0  0  0  0  0
   22.1042  -20.3375  -12.4605 C   0  0  1  0  0  0  0  0  0  0  0  0
   22.4211  -19.8559  -13.8629 C   0  0  0  0  0  0  0  0  0  0  0  0
   21.3673  -18.9631  -14.4322 C   0  0  0  0  0  0  0  0  0  0  0  0
   21.6937  -18.5109  -15.8421 C   0  0  0  0  0  0  0  0  0  0  0  0
   20.5983  -17.5756  -16.3173 C   0  0  0  0  0  0  0  0  0  0  0  0
   20.8060  -17.1592  -17.6861 N   0  0  0  0  0  0  0  0  0  0  0  0
   20.8583  -21.1063  -12.4933 C   0  0  0  0  0  0  0  0  0  0  0  0
   20.8703  -22.4294  -12.8737 O   0  0  0  0  0  0  0  0  0  0  0  0
   19.7748  -20.5772  -12.1805 O   0  0  0  0  0  0  0  0  0  0  0  0
  2  3  1  0
  2  1  1  6
  3  4  1  0
  5  2  1  0
  5  6  2  0
  8  9  2  0
  8  7  1  0
 10  9  1  0
 11 10  2  0
 12 11  1  0
 13 12  1  1
 13 14  1  0
 14  5  1  0
 15 13  1  0
 15 19  1  0
 16 15  2  0
 17 11  1  0
 17 18  2  0
 18  8  1  0
 20 19  1  0
 20 26  1  0
 20 21  1  6
 22 21  1  0
 23 22  1  0
 24 23  1  0
 25 24  1  0
 26 28  2  0
 26 27  1  0
M  END
$$$$
