CYK.pdb
     RDKit          3D

 28 28  0  0  1  0  0  0  0  0999 V2000
   29.1196  -23.6667  -17.5098 N   0  0  0  0  0  0  0  0  0  0  0  0
   28.6712  -22.2731  -17.3164 C   0  0  1  0  0  0  0  0  0  0  0  0
   27.9286  -21.8638  -18.5894 C   0  0  0  0  0  0  0  0  0  0  0  0
   29.0355  -21.7297  -19.9991 S   0  0  0  0  0  0  0  0  0  0  0  0
   27.7402  -22.2872  -16.1804 C   0  0  0  0  0  0  0  0  0  0  0  0
   26.9905  -23.2968  -15.9503 O   0  0  0  0  0  0  0  0  0  0  0  0
   23.5683  -20.6064   -8.5596 O   0  0  0  0  0  0  0  0  0  0  0  0
   24.4331  -20.5421   -9.6661 C   0  0  0  0  0  0  0  0  0  0  0  0
   25.6383  -21.1996   -9.6838 C   0  0  0  0  0  0  0  0  0  0  0  0
   26.5157  -21.1572  -10.7597 C   0  0  0  0  0  0  0  0  0  0  0  0
   26.1426  -20.4147  -11.8538 C   0  0  0  0  0  0  0  0  0  0  0  0
   27.0470  -20.3419  -13.0238 C   0  0  0  0  0  0  0  0  0  0  0  0
   26.6416  -21.3002  -14.1345 C   0  0  2  0  0  0  0  0  0  0  0  0
   27.5733  -21.2225  -15.2433 N   0  0  0  0  0  0  0  0  0  0  0  0
   25.2340  -21.1410  -14.5543 C   0  0  0  0  0  0  0  0  0  0  0  0
   24.9234  -20.2735  -15.4426 O   0  0  0  0  0  0  0  0  0  0  0  0
   24.9394  -19.7456  -11.8621 C   0  0  0  0  0  0  0  0  0  0  0  0
   24.0720  -19.8030  -10.7670 C   0  0  0  0  0  0  0  0  0  0  0  0
   24.1715  -21.9142  -14.0208 N   0  0  0  0  0  0  0  0  0  0  0  0
   22.8009  -21.6668  -14.5081 C   0  0  1  0  0  0  0  0  0  0  0  0
   22.1467  -22.9911  -14.8505 C   0  0  0  0  0  0  0  0  0  0  0  0
   20.7669  -22.8419  -15.4035 C   0  0  0  0  0  0  0  0  0  0  0  0
   20.1456  -24.1748  -15.7724 C   0  0  0  0  0  0  0  0  0  0  0  0
   18.7801  -23.9213  -16.3821 C   0  0  0  0  0  0  0  0  0  0  0  0
   18.1707  -25.1431  -16.8576 N   0  0  0  0  0  0  0  0  0  0  0  0
   22.0448  -21.0296  -13.4281 C   0  0  0  0  0  0  0  0  0  0  0  0
   22.1059  -21.5337  -12.1484 O   0  0  0  0  0  0  0  0  0  0  0  0
   21.3379  -20.0281  -13.6500 O   0  0  0  0  0  0  0  0  0  0  0  0
  2  3  1  0
  2  1  1  6
  3  4  1  0
  5  2  1  0
  5  6  2  0
  8  9  2  0
  8  7  1  0
 10  9  1  0
 11 10  2  0
 12 11  1  0
 13 12  1  1
 13 14  1  0
 14  5  1  0
 15 13  1  0
 15 19  1  0
 16 15  2  0
 17 11  1  0
 17 18  2  0
 18  8  1  0
 20 19  1  0
 20 26  1  0
 20 21  1  1
 22 21  1  0
 23 22  1  0
 24 23  1  0
 25 24  1  0
 26 28  2  0
 26 27  1  0
M  END
$$$$
