CYK.pdb
     RDKit          3D

 28 28  0  0  1  0  0  0  0  0999 V2000
   27.5641  -21.9424  -20.1821 N   0  0  0  0  0  0  0  0  0  0  0  0
   27.0290  -20.6868  -19.6182 C   0  0  1  0  0  0  0  0  0  0  0  0
   26.8501  -19.7152  -20.7859 C   0  0  0  0  0  0  0  0  0  0  0  0
   26.0271  -18.2000  -20.2791 S   0  0  0  0  0  0  0  0  0  0  0  0
   25.7199  -21.0134  -19.0380 C   0  0  0  0  0  0  0  0  0  0  0  0
   24.9452  -21.8681  -19.5891 O   0  0  0  0  0  0  0  0  0  0  0  0
   18.4952  -21.5764  -13.9681 O   0  0  0  0  0  0  0  0  0  0  0  0
   19.7804  -21.2771  -14.4527 C   0  0  0  0  0  0  0  0  0  0  0  0
   20.1683  -19.9902  -14.7333 C   0  0  0  0  0  0  0  0  0  0  0  0
   21.4292  -19.6599  -15.2128 C   0  0  0  0  0  0  0  0  0  0  0  0
   22.3215  -20.6856  -15.4108 C   0  0  0  0  0  0  0  0  0  0  0  0
   23.6775  -20.3794  -15.9204 C   0  0  0  0  0  0  0  0  0  0  0  0
   23.8254  -20.6846  -17.4040 C   0  0  2  0  0  0  0  0  0  0  0  0
   25.1856  -20.4402  -17.8440 N   0  0  0  0  0  0  0  0  0  0  0  0
   22.8187  -20.0002  -18.2413 C   0  0  0  0  0  0  0  0  0  0  0  0
   22.9467  -18.7554  -18.5101 O   0  0  0  0  0  0  0  0  0  0  0  0
   21.9582  -21.9851  -15.1375 C   0  0  0  0  0  0  0  0  0  0  0  0
   20.6827  -22.2937  -14.6553 C   0  0  0  0  0  0  0  0  0  0  0  0
   21.6848  -20.6556  -18.7854 N   0  0  0  0  0  0  0  0  0  0  0  0
   20.6933  -19.8556  -19.5300 C   0  0  1  0  0  0  0  0  0  0  0  0
   20.4984  -20.4592  -20.9071 C   0  0  0  0  0  0  0  0  0  0  0  0
   19.4340  -19.7784  -21.7042 C   0  0  0  0  0  0  0  0  0  0  0  0
   19.2626  -20.3910  -23.0805 C   0  0  0  0  0  0  0  0  0  0  0  0
   18.2176  -19.5952  -23.8390 C   0  0  0  0  0  0  0  0  0  0  0  0
   17.8939  -20.2084  -25.1076 N   0  0  0  0  0  0  0  0  0  0  0  0
   19.4244  -19.9161  -18.8017 C   0  0  0  0  0  0  0  0  0  0  0  0
   18.5048  -18.8992  -18.9265 O   0  0  0  0  0  0  0  0  0  0  0  0
   19.1601  -20.8826  -18.0615 O   0  0  0  0  0  0  0  0  0  0  0  0
  2  3  1  0
  2  1  1  6
  3  4  1  0
  5  2  1  0
  5  6  2  0
  8  9  2  0
  8  7  1  0
 10  9  1  0
 11 10  2  0
 12 11  1  0
 13 12  1  1
 13 14  1  0
 14  5  1  0
 15 13  1  0
 15 19  1  0
 16 15  2  0
 17 11  1  0
 17 18  2  0
 18  8  1  0
 20 19  1  0
 20 26  1  0
 20 21  1  6
 22 21  1  0
 23 22  1  0
 24 23  1  0
 25 24  1  0
 26 28  2  0
 26 27  1  0
M  END
$$$$
