CYK.pdb
     RDKit          3D

 28 28  0  0  1  0  0  0  0  0999 V2000
   28.6988  -23.0445  -17.3793 N   0  0  0  0  0  0  0  0  0  0  0  0
   28.4994  -21.6626  -16.8983 C   0  0  1  0  0  0  0  0  0  0  0  0
   27.9185  -20.8643  -18.0665 C   0  0  0  0  0  0  0  0  0  0  0  0
   29.1675  -20.4680  -19.2965 S   0  0  0  0  0  0  0  0  0  0  0  0
   27.5168  -21.7366  -15.8091 C   0  0  0  0  0  0  0  0  0  0  0  0
   26.5805  -22.6069  -15.8190 O   0  0  0  0  0  0  0  0  0  0  0  0
   23.1035  -20.7470   -8.1984 O   0  0  0  0  0  0  0  0  0  0  0  0
   24.0445  -20.6257   -9.2359 C   0  0  0  0  0  0  0  0  0  0  0  0
   23.8095  -19.8448  -10.3405 C   0  0  0  0  0  0  0  0  0  0  0  0
   24.7166  -19.7030  -11.3826 C   0  0  0  0  0  0  0  0  0  0  0  0
   25.9049  -20.3861  -11.2868 C   0  0  0  0  0  0  0  0  0  0  0  0
   26.9018  -20.2636  -12.3745 C   0  0  0  0  0  0  0  0  0  0  0  0
   26.4610  -20.9654  -13.6510 C   0  0  2  0  0  0  0  0  0  0  0  0
   27.4958  -20.8834  -14.6640 N   0  0  0  0  0  0  0  0  0  0  0  0
   25.1423  -20.5108  -14.1383 C   0  0  0  0  0  0  0  0  0  0  0  0
   25.0277  -19.3723  -14.7118 O   0  0  0  0  0  0  0  0  0  0  0  0
   26.1658  -21.1760  -10.1898 C   0  0  0  0  0  0  0  0  0  0  0  0
   25.2370  -21.3036   -9.1526 C   0  0  0  0  0  0  0  0  0  0  0  0
   23.9583  -21.2807  -14.0094 N   0  0  0  0  0  0  0  0  0  0  0  0
   22.6992  -20.7416  -14.5583 C   0  0  1  0  0  0  0  0  0  0  0  0
   22.2977  -21.5529  -15.7746 C   0  0  0  0  0  0  0  0  0  0  0  0
   21.0609  -21.0444  -16.4408 C   0  0  0  0  0  0  0  0  0  0  0  0
   20.6833  -21.8635  -17.6595 C   0  0  0  0  0  0  0  0  0  0  0  0
   19.5161  -21.1890  -18.3547 C   0  0  0  0  0  0  0  0  0  0  0  0
   19.1607  -21.8647  -19.5824 N   0  0  0  0  0  0  0  0  0  0  0  0
   21.6629  -20.8797  -13.5330 C   0  0  0  0  0  0  0  0  0  0  0  0
   21.8615  -21.7123  -12.4547 O   0  0  0  0  0  0  0  0  0  0  0  0
   20.5915  -20.2503  -13.6212 O   0  0  0  0  0  0  0  0  0  0  0  0
  2  3  1  0
  2  1  1  6
  3  4  1  0
  5  2  1  0
  5  6  2  0
  8  9  2  0
  8  7  1  0
 10  9  1  0
 11 10  2  0
 12 11  1  0
 13 12  1  1
 13 14  1  0
 14  5  1  0
 15 13  1  0
 15 19  1  0
 16 15  2  0
 17 11  1  0
 17 18  2  0
 18  8  1  0
 20 19  1  0
 20 26  1  0
 20 21  1  6
 22 21  1  0
 23 22  1  0
 24 23  1  0
 25 24  1  0
 26 28  2  0
 26 27  1  0
M  END
$$$$
