CYK.pdb
     RDKit          3D

 28 28  0  0  1  0  0  0  0  0999 V2000
   26.4279  -24.6723  -16.7663 N   0  0  0  0  0  0  0  0  0  0  0  0
   26.3309  -23.2055  -16.6255 C   0  0  1  0  0  0  0  0  0  0  0  0
   25.2185  -22.7407  -17.5668 C   0  0  0  0  0  0  0  0  0  0  0  0
   25.0441  -20.9519  -17.5691 S   0  0  0  0  0  0  0  0  0  0  0  0
   25.9455  -22.9436  -15.2326 C   0  0  0  0  0  0  0  0  0  0  0  0
   25.0566  -23.6512  -14.6465 O   0  0  0  0  0  0  0  0  0  0  0  0
   25.0582  -19.4955   -7.1170 O   0  0  0  0  0  0  0  0  0  0  0  0
   25.5491  -19.8634   -8.3819 C   0  0  0  0  0  0  0  0  0  0  0  0
   26.1924  -21.0583   -8.5909 C   0  0  0  0  0  0  0  0  0  0  0  0
   26.6892  -21.4523   -9.8265 C   0  0  0  0  0  0  0  0  0  0  0  0
   26.5197  -20.5903  -10.8828 C   0  0  0  0  0  0  0  0  0  0  0  0
   27.0331  -20.9698  -12.2186 C   0  0  0  0  0  0  0  0  0  0  0  0
   25.9615  -21.5981  -13.0981 C   0  0  2  0  0  0  0  0  0  0  0  0
   26.4956  -21.9149  -14.4088 N   0  0  0  0  0  0  0  0  0  0  0  0
   24.7198  -20.7999  -13.1609 C   0  0  0  0  0  0  0  0  0  0  0  0
   24.6540  -19.7745  -13.9241 O   0  0  0  0  0  0  0  0  0  0  0  0
   25.8782  -19.3858  -10.7007 C   0  0  0  0  0  0  0  0  0  0  0  0
   25.3862  -19.0103   -9.4470 C   0  0  0  0  0  0  0  0  0  0  0  0
   23.5585  -21.1082  -12.4076 N   0  0  0  0  0  0  0  0  0  0  0  0
   22.3519  -20.2797  -12.5945 C   0  0  1  0  0  0  0  0  0  0  0  0
   21.7679  -20.5515  -13.9671 C   0  0  0  0  0  0  0  0  0  0  0  0
   20.4828  -19.8311  -14.2145 C   0  0  0  0  0  0  0  0  0  0  0  0
   19.9117  -20.1246  -15.5881 C   0  0  0  0  0  0  0  0  0  0  0  0
   18.6696  -19.2774  -15.7882 C   0  0  0  0  0  0  0  0  0  0  0  0
   18.0235  -19.5635  -17.0494 N   0  0  0  0  0  0  0  0  0  0  0  0
   21.3734  -20.6695  -11.5772 C   0  0  0  0  0  0  0  0  0  0  0  0
   21.6027  -21.7685  -10.7803 O   0  0  0  0  0  0  0  0  0  0  0  0
   20.3241  -20.0170  -11.4193 O   0  0  0  0  0  0  0  0  0  0  0  0
  2  3  1  0
  2  1  1  1
  3  4  1  0
  5  2  1  0
  5  6  2  0
  8  9  2  0
  8  7  1  0
 10  9  1  0
 11 10  2  0
 12 11  1  0
 13 12  1  1
 13 14  1  0
 14  5  1  0
 15 13  1  0
 15 19  1  0
 16 15  2  0
 17 11  1  0
 17 18  2  0
 18  8  1  0
 20 19  1  0
 20 26  1  0
 20 21  1  6
 22 21  1  0
 23 22  1  0
 24 23  1  0
 25 24  1  0
 26 28  2  0
 26 27  1  0
M  END
$$$$
