CYK.pdb
     RDKit          3D

 28 28  0  0  1  0  0  0  0  0999 V2000
   25.8966  -35.1744  -16.4321 N   0  0  0  0  0  0  0  0  0  0  0  0
   24.6861  -35.5846  -15.6924 C   0  0  1  0  0  0  0  0  0  0  0  0
   25.0165  -36.9057  -14.9959 C   0  0  0  0  0  0  0  0  0  0  0  0
   24.3833  -38.3211  -15.9047 S   0  0  0  0  0  0  0  0  0  0  0  0
   24.4360  -34.5421  -14.6886 C   0  0  0  0  0  0  0  0  0  0  0  0
   25.3987  -33.8959  -14.1499 O   0  0  0  0  0  0  0  0  0  0  0  0
   20.9342  -28.2047   -9.6493 O   0  0  0  0  0  0  0  0  0  0  0  0
   21.1168  -29.2378  -10.5851 C   0  0  0  0  0  0  0  0  0  0  0  0
   20.5517  -30.4777  -10.4162 C   0  0  0  0  0  0  0  0  0  0  0  0
   20.7119  -31.5196  -11.3204 C   0  0  0  0  0  0  0  0  0  0  0  0
   21.4780  -31.2800  -12.4355 C   0  0  0  0  0  0  0  0  0  0  0  0
   21.6752  -32.3621  -13.4266 C   0  0  0  0  0  0  0  0  0  0  0  0
   22.9657  -33.1353  -13.1965 C   0  0  2  0  0  0  0  0  0  0  0  0
   23.1461  -34.1469  -14.2200 N   0  0  0  0  0  0  0  0  0  0  0  0
   23.0827  -33.6763  -11.8266 C   0  0  0  0  0  0  0  0  0  0  0  0
   22.6243  -34.8401  -11.5550 O   0  0  0  0  0  0  0  0  0  0  0  0
   22.0561  -30.0456  -12.6292 C   0  0  0  0  0  0  0  0  0  0  0  0
   21.8808  -29.0114  -11.7048 C   0  0  0  0  0  0  0  0  0  0  0  0
   23.6917  -32.9672  -10.7601 N   0  0  0  0  0  0  0  0  0  0  0  0
   23.8385  -33.6393   -9.4547 C   0  0  1  0  0  0  0  0  0  0  0  0
   24.9465  -32.9658   -8.6688 C   0  0  0  0  0  0  0  0  0  0  0  0
   25.1126  -33.5189   -7.2910 C   0  0  0  0  0  0  0  0  0  0  0  0
   26.3297  -32.9540   -6.5850 C   0  0  0  0  0  0  0  0  0  0  0  0
   26.4332  -33.5907   -5.2123 C   0  0  0  0  0  0  0  0  0  0  0  0
   27.5882  -33.1128   -4.4859 N   0  0  0  0  0  0  0  0  0  0  0  0
   22.5788  -33.4878   -8.7237 C   0  0  0  0  0  0  0  0  0  0  0  0
   22.0977  -34.5204   -7.9506 O   0  0  0  0  0  0  0  0  0  0  0  0
   21.9266  -32.4286   -8.7910 O   0  0  0  0  0  0  0  0  0  0  0  0
  2  3  1  0
  2  1  1  6
  3  4  1  0
  5  2  1  0
  5  6  2  0
  8  9  2  0
  8  7  1  0
 10  9  1  0
 11 10  2  0
 12 11  1  0
 13 12  1  1
 13 14  1  0
 14  5  1  0
 15 13  1  0
 15 19  1  0
 16 15  2  0
 17 11  1  0
 17 18  2  0
 18  8  1  0
 20 19  1  0
 20 26  1  0
 20 21  1  1
 22 21  1  0
 23 22  1  0
 24 23  1  0
 25 24  1  0
 26 28  2  0
 26 27  1  0
M  END
$$$$
