CYK.pdb
     RDKit          3D

 28 28  0  0  1  0  0  0  0  0999 V2000
   28.5687  -10.8433  -18.6140 N   0  0  0  0  0  0  0  0  0  0  0  0
   28.2120   -9.9837  -17.4674 C   0  0  1  0  0  0  0  0  0  0  0  0
   28.5746   -8.5496  -17.8566 C   0  0  0  0  0  0  0  0  0  0  0  0
   30.3378   -8.2372  -17.7033 S   0  0  0  0  0  0  0  0  0  0  0  0
   26.7581  -10.0996  -17.2943 C   0  0  0  0  0  0  0  0  0  0  0  0
   25.9716  -10.1381  -18.3014 O   0  0  0  0  0  0  0  0  0  0  0  0
   18.6258  -11.9548  -14.5374 O   0  0  0  0  0  0  0  0  0  0  0  0
   20.0175  -11.7671  -14.6032 C   0  0  0  0  0  0  0  0  0  0  0  0
   20.6906  -11.0026  -13.6825 C   0  0  0  0  0  0  0  0  0  0  0  0
   22.0636  -10.7967  -13.7183 C   0  0  0  0  0  0  0  0  0  0  0  0
   22.7689  -11.3961  -14.7337 C   0  0  0  0  0  0  0  0  0  0  0  0
   24.2350  -11.2042  -14.8103 C   0  0  0  0  0  0  0  0  0  0  0  0
   24.6412  -10.2571  -15.9302 C   0  0  2  0  0  0  0  0  0  0  0  0
   26.0855  -10.1799  -16.0370 N   0  0  0  0  0  0  0  0  0  0  0  0
   24.0004   -8.9296  -15.8297 C   0  0  0  0  0  0  0  0  0  0  0  0
   24.4902   -8.0378  -15.0531 O   0  0  0  0  0  0  0  0  0  0  0  0
   22.1185  -12.1679  -15.6700 C   0  0  0  0  0  0  0  0  0  0  0  0
   20.7349  -12.3610  -15.6138 C   0  0  0  0  0  0  0  0  0  0  0  0
   22.8420   -8.5679  -16.5636 N   0  0  0  0  0  0  0  0  0  0  0  0
   22.3265   -7.1908  -16.4407 C   0  0  1  0  0  0  0  0  0  0  0  0
   21.6431   -6.7968  -17.7355 C   0  0  0  0  0  0  0  0  0  0  0  0
   21.1712   -5.3794  -17.7458 C   0  0  0  0  0  0  0  0  0  0  0  0
   20.6056   -4.9690  -19.0914 C   0  0  0  0  0  0  0  0  0  0  0  0
   20.0987   -3.5430  -18.9900 C   0  0  0  0  0  0  0  0  0  0  0  0
   19.6466   -3.0430  -20.2689 N   0  0  0  0  0  0  0  0  0  0  0  0
   21.3399   -7.1719  -15.3589 C   0  0  0  0  0  0  0  0  0  0  0  0
   20.2201   -7.9698  -15.4282 O   0  0  0  0  0  0  0  0  0  0  0  0
   21.4974   -6.4366  -14.3657 O   0  0  0  0  0  0  0  0  0  0  0  0
  2  3  1  0
  2  1  1  6
  3  4  1  0
  5  2  1  0
  5  6  2  0
  8  9  2  0
  8  7  1  0
 10  9  1  0
 11 10  2  0
 12 11  1  0
 13 12  1  1
 13 14  1  0
 14  5  1  0
 15 13  1  0
 15 19  1  0
 16 15  2  0
 17 11  1  0
 17 18  2  0
 18  8  1  0
 20 19  1  0
 20 26  1  0
 20 21  1  6
 22 21  1  0
 23 22  1  0
 24 23  1  0
 25 24  1  0
 26 28  2  0
 26 27  1  0
M  END
$$$$
