MFS.pdb
     RDKit          3D

 26 26  0  0  1  0  0  0  0  0999 V2000
   16.9690   -8.5208  -20.7501 C   0  0  0  0  0  0  0  0  0  0  0  0
   18.4342   -9.1076  -21.6253 S   0  0  0  0  0  0  0  0  0  0  0  0
   19.7679   -9.5074  -20.4591 C   0  0  0  0  0  0  0  0  0  0  0  0
   19.5712   -8.7827  -19.1447 C   0  0  0  0  0  0  0  0  0  0  0  0
   20.7607   -9.0518  -18.2277 C   0  0  2  0  0  0  0  0  0  0  0  0
   20.8108  -10.4503  -17.9435 N   0  0  0  0  0  0  0  0  0  0  0  0
   20.7451   -8.1933  -17.0437 C   0  0  0  0  0  0  0  0  0  0  0  0
   20.0288   -8.5738  -16.0645 O   0  0  0  0  0  0  0  0  0  0  0  0
   21.4479   -6.9909  -16.8924 N   0  0  0  0  0  0  0  0  0  0  0  0
   21.4107   -6.2196  -15.6898 C   0  0  1  0  0  0  0  0  0  0  0  0
   22.7236   -6.1572  -14.9599 C   0  0  0  0  0  0  0  0  0  0  0  0
   23.2691   -7.4660  -14.5979 C   0  0  0  0  0  0  0  0  0  0  0  0
   22.7711   -8.1567  -13.5346 C   0  0  0  0  0  0  0  0  0  0  0  0
   23.3315   -9.3851  -13.2482 C   0  0  0  0  0  0  0  0  0  0  0  0
   24.3689   -9.9193  -14.0046 C   0  0  0  0  0  0  0  0  0  0  0  0
   24.8625   -9.2252  -15.0657 C   0  0  0  0  0  0  0  0  0  0  0  0
   24.2984   -7.9793  -15.3608 C   0  0  0  0  0  0  0  0  0  0  0  0
   21.0094   -4.7943  -15.9690 C   0  0  0  0  0  0  0  0  0  0  0  0
   21.4900   -4.1854  -16.9718 O   0  0  0  0  0  0  0  0  0  0  0  0
   17.4379   -3.4317  -15.4701 O   0  0  0  0  0  0  0  0  0  0  0  0
   18.3190   -2.5636  -14.7979 C   0  0  0  0  0  0  0  0  0  0  0  0
   19.6741   -2.7427  -15.4711 C   0  0  2  0  0  0  0  0  0  0  0  0
   20.1086   -4.0942  -15.1530 N   0  0  0  0  0  0  0  0  0  0  0  0
   20.6183   -1.7281  -15.0015 C   0  0  0  0  0  0  0  0  0  0  0  0
   20.3561   -0.3899  -15.2173 O   0  0  0  0  0  0  0  0  0  0  0  0
   21.6704   -2.0423  -14.4021 O   0  0  0  0  0  0  0  0  0  0  0  0
  2  1  1  0
  3  2  1  0
  4  3  1  0
  4  5  1  0
  5  7  1  0
  5  6  1  1
  7  8  2  0
  9 10  1  0
  9  7  1  0
 10 11  1  6
 11 12  1  0
 12 17  2  0
 13 12  1  0
 13 14  2  0
 14 15  1  0
 15 16  2  0
 17 16  1  0
 18 10  1  0
 19 18  2  0
 21 20  1  0
 22 23  1  0
 22 21  1  1
 23 18  1  0
 24 22  1  0
 25 24  1  0
 26 24  2  0
M  END
$$$$
