MFS.pdb
     RDKit          3D

 26 26  0  0  1  0  0  0  0  0999 V2000
   18.9340  -11.4049  -22.7042 C   0  0  0  0  0  0  0  0  0  0  0  0
   18.8854  -10.4590  -21.1680 S   0  0  0  0  0  0  0  0  0  0  0  0
   17.9501  -11.3477  -19.8898 C   0  0  0  0  0  0  0  0  0  0  0  0
   17.7950  -10.4990  -18.6458 C   0  0  0  0  0  0  0  0  0  0  0  0
   19.0867  -10.5374  -17.8346 C   0  0  2  0  0  0  0  0  0  0  0  0
   19.3071  -11.8763  -17.3900 N   0  0  0  0  0  0  0  0  0  0  0  0
   19.0941   -9.5361  -16.7685 C   0  0  0  0  0  0  0  0  0  0  0  0
   18.3530   -9.7615  -15.7601 O   0  0  0  0  0  0  0  0  0  0  0  0
   19.8437   -8.3527  -16.7591 N   0  0  0  0  0  0  0  0  0  0  0  0
   19.7808   -7.4060  -15.6902 C   0  0  1  0  0  0  0  0  0  0  0  0
   21.1071   -7.1244  -15.0408 C   0  0  0  0  0  0  0  0  0  0  0  0
   21.6442   -8.2451  -14.2680 C   0  0  0  0  0  0  0  0  0  0  0  0
   22.6219   -9.0406  -14.7848 C   0  0  0  0  0  0  0  0  0  0  0  0
   23.0833  -10.0801  -14.0027 C   0  0  0  0  0  0  0  0  0  0  0  0
   22.5827  -10.3261  -12.7289 C   0  0  0  0  0  0  0  0  0  0  0  0
   21.6062   -9.5285  -12.2176 C   0  0  0  0  0  0  0  0  0  0  0  0
   21.1345   -8.4731  -13.0058 C   0  0  0  0  0  0  0  0  0  0  0  0
   19.2493   -6.0794  -16.1681 C   0  0  0  0  0  0  0  0  0  0  0  0
   19.7156   -5.5527  -17.2229 O   0  0  0  0  0  0  0  0  0  0  0  0
   15.7920   -2.7656  -15.7426 O   0  0  0  0  0  0  0  0  0  0  0  0
   16.3931   -3.9111  -15.1875 C   0  0  0  0  0  0  0  0  0  0  0  0
   17.6364   -4.1772  -16.0272 C   0  0  2  0  0  0  0  0  0  0  0  0
   18.2401   -5.3847  -15.4852 N   0  0  0  0  0  0  0  0  0  0  0  0
   18.5435   -3.0298  -15.9786 C   0  0  0  0  0  0  0  0  0  0  0  0
   18.4380   -2.0271  -16.9217 O   0  0  0  0  0  0  0  0  0  0  0  0
   19.4237   -2.9298  -15.0952 O   0  0  0  0  0  0  0  0  0  0  0  0
  2  1  1  0
  3  2  1  0
  4  3  1  0
  4  5  1  0
  5  7  1  0
  5  6  1  1
  7  8  2  0
  9 10  1  0
  9  7  1  0
 10 11  1  6
 11 12  1  0
 12 17  2  0
 13 12  1  0
 13 14  2  0
 14 15  1  0
 15 16  2  0
 17 16  1  0
 18 10  1  0
 19 18  2  0
 21 20  1  0
 22 23  1  0
 22 21  1  1
 23 18  1  0
 24 22  1  0
 25 24  1  0
 26 24  2  0
M  END
$$$$
