MFS.pdb
     RDKit          3D

 26 26  0  0  1  0  0  0  0  0999 V2000
   16.8126  -11.0597  -20.9695 C   0  0  0  0  0  0  0  0  0  0  0  0
   17.7464  -12.5911  -20.7690 S   0  0  0  0  0  0  0  0  0  0  0  0
   19.1980  -12.3302  -19.7093 C   0  0  0  0  0  0  0  0  0  0  0  0
   18.8333  -11.5193  -18.4840 C   0  0  0  0  0  0  0  0  0  0  0  0
   20.0928  -11.2109  -17.6798 C   0  0  2  0  0  0  0  0  0  0  0  0
   20.5831  -12.4273  -17.1150 N   0  0  0  0  0  0  0  0  0  0  0  0
   19.8747  -10.1377  -16.7103 C   0  0  0  0  0  0  0  0  0  0  0  0
   19.1675  -10.4159  -15.6909 O   0  0  0  0  0  0  0  0  0  0  0  0
   20.3747   -8.8325  -16.8045 N   0  0  0  0  0  0  0  0  0  0  0  0
   20.1176   -7.8327  -15.8160 C   0  0  1  0  0  0  0  0  0  0  0  0
   21.3268   -7.4357  -15.0156 C   0  0  0  0  0  0  0  0  0  0  0  0
   21.7326   -8.4241  -14.0156 C   0  0  0  0  0  0  0  0  0  0  0  0
   21.1195   -8.4750  -12.8001 C   0  0  0  0  0  0  0  0  0  0  0  0
   21.5513   -9.4315  -11.9035 C   0  0  0  0  0  0  0  0  0  0  0  0
   22.5745  -10.3226  -12.2081 C   0  0  0  0  0  0  0  0  0  0  0  0
   23.1834  -10.2672  -13.4236 C   0  0  0  0  0  0  0  0  0  0  0  0
   22.7499   -9.2997  -14.3366 C   0  0  0  0  0  0  0  0  0  0  0  0
   19.5877   -6.5696  -16.4438 C   0  0  0  0  0  0  0  0  0  0  0  0
   20.2237   -6.0178  -17.3917 O   0  0  0  0  0  0  0  0  0  0  0  0
   15.8310   -3.6172  -16.9277 O   0  0  0  0  0  0  0  0  0  0  0  0
   16.4114   -4.6566  -16.1764 C   0  0  0  0  0  0  0  0  0  0  0  0
   17.8288   -4.8162  -16.7121 C   0  0  2  0  0  0  0  0  0  0  0  0
   18.3969   -5.9622  -16.0190 N   0  0  0  0  0  0  0  0  0  0  0  0
   18.6009   -3.5926  -16.4928 C   0  0  0  0  0  0  0  0  0  0  0  0
   18.7329   -2.6690  -17.5104 O   0  0  0  0  0  0  0  0  0  0  0  0
   19.1523   -3.3559  -15.3951 O   0  0  0  0  0  0  0  0  0  0  0  0
  2  1  1  0
  3  2  1  0
  4  3  1  0
  4  5  1  0
  5  7  1  0
  5  6  1  1
  7  8  2  0
  9 10  1  0
  9  7  1  0
 10 11  1  6
 11 12  1  0
 12 17  2  0
 13 12  1  0
 13 14  2  0
 14 15  1  0
 15 16  2  0
 17 16  1  0
 18 10  1  0
 19 18  2  0
 21 20  1  0
 22 23  1  0
 22 21  1  1
 23 18  1  0
 24 22  1  0
 25 24  1  0
 26 24  2  0
M  END
$$$$
