MFS.pdb
     RDKit          3D

 26 26  0  0  1  0  0  0  0  0999 V2000
   35.5361  -36.2518  -21.8606 C   0  0  0  0  0  0  0  0  0  0  0  0
   36.0229  -34.5779  -22.3276 S   0  0  0  0  0  0  0  0  0  0  0  0
   36.0970  -33.4952  -20.8713 C   0  0  0  0  0  0  0  0  0  0  0  0
   35.1066  -33.9404  -19.8165 C   0  0  0  0  0  0  0  0  0  0  0  0
   34.9148  -32.8272  -18.7908 C   0  0  2  0  0  0  0  0  0  0  0  0
   36.1194  -32.6887  -18.0366 N   0  0  0  0  0  0  0  0  0  0  0  0
   33.7133  -33.0288  -17.9816 C   0  0  0  0  0  0  0  0  0  0  0  0
   33.7839  -33.8897  -17.0484 O   0  0  0  0  0  0  0  0  0  0  0  0
   32.4934  -32.3592  -18.1425 N   0  0  0  0  0  0  0  0  0  0  0  0
   31.3338  -32.6673  -17.3659 C   0  0  1  0  0  0  0  0  0  0  0  0
   30.3234  -31.5558  -17.3041 C   0  0  0  0  0  0  0  0  0  0  0  0
   29.1619  -31.8497  -16.4637 C   0  0  0  0  0  0  0  0  0  0  0  0
   29.2849  -31.9217  -15.1089 C   0  0  0  0  0  0  0  0  0  0  0  0
   28.1496  -32.2029  -14.3759 C   0  0  0  0  0  0  0  0  0  0  0  0
   26.9129  -32.4091  -14.9774 C   0  0  0  0  0  0  0  0  0  0  0  0
   26.7959  -32.3360  -16.3309 C   0  0  0  0  0  0  0  0  0  0  0  0
   27.9433  -32.0513  -17.0793 C   0  0  0  0  0  0  0  0  0  0  0  0
   30.6125  -33.8698  -17.9176 C   0  0  0  0  0  0  0  0  0  0  0  0
   30.3439  -33.9352  -19.1549 O   0  0  0  0  0  0  0  0  0  0  0  0
   28.6319  -36.2961  -15.5069 O   0  0  0  0  0  0  0  0  0  0  0  0
   29.3065  -37.0545  -16.4823 C   0  0  0  0  0  0  0  0  0  0  0  0
   29.5403  -36.1107  -17.6553 C   0  0  2  0  0  0  0  0  0  0  0  0
   30.2156  -34.9442  -17.1079 N   0  0  0  0  0  0  0  0  0  0  0  0
   28.2717  -35.7695  -18.3000 C   0  0  0  0  0  0  0  0  0  0  0  0
   27.5116  -34.7236  -17.8157 O   0  0  0  0  0  0  0  0  0  0  0  0
   27.8501  -36.4065  -19.2907 O   0  0  0  0  0  0  0  0  0  0  0  0
  2  1  1  0
  3  2  1  0
  4  3  1  0
  4  5  1  0
  5  7  1  0
  5  6  1  1
  7  8  2  0
  9 10  1  0
  9  7  1  0
 10 11  1  6
 11 12  1  0
 12 17  2  0
 13 12  1  0
 13 14  2  0
 14 15  1  0
 15 16  2  0
 17 16  1  0
 18 10  1  0
 19 18  2  0
 21 20  1  0
 22 23  1  0
 22 21  1  1
 23 18  1  0
 24 22  1  0
 25 24  1  0
 26 24  2  0
M  END
$$$$
