MFS.pdb
     RDKit          3D

 26 26  0  0  1  0  0  0  0  0999 V2000
   26.0072  -16.5438  -16.4676 C   0  0  0  0  0  0  0  0  0  0  0  0
   27.7455  -16.2302  -16.0973 S   0  0  0  0  0  0  0  0  0  0  0  0
   28.4773  -17.6265  -15.1956 C   0  0  0  0  0  0  0  0  0  0  0  0
   27.4020  -18.5560  -14.6745 C   0  0  0  0  0  0  0  0  0  0  0  0
   28.0350  -19.6306  -13.7954 C   0  0  2  0  0  0  0  0  0  0  0  0
   28.9318  -20.4036  -14.5936 N   0  0  0  0  0  0  0  0  0  0  0  0
   27.0294  -20.4163  -13.0809 C   0  0  0  0  0  0  0  0  0  0  0  0
   26.6993  -21.5328  -13.5920 O   0  0  0  0  0  0  0  0  0  0  0  0
   26.3983  -20.0491  -11.8853 N   0  0  0  0  0  0  0  0  0  0  0  0
   25.4044  -20.8599  -11.2548 C   0  0  1  0  0  0  0  0  0  0  0  0
   25.1557  -20.5154   -9.8127 C   0  0  0  0  0  0  0  0  0  0  0  0
   26.3693  -20.4385   -8.9984 C   0  0  0  0  0  0  0  0  0  0  0  0
   27.4253  -21.2629   -9.2455 C   0  0  0  0  0  0  0  0  0  0  0  0
   28.5389  -21.1378   -8.4396 C   0  0  0  0  0  0  0  0  0  0  0  0
   28.6034  -20.2101   -7.4058 C   0  0  0  0  0  0  0  0  0  0  0  0
   27.5457  -19.3892   -7.1635 C   0  0  0  0  0  0  0  0  0  0  0  0
   26.4141  -19.5113   -7.9771 C   0  0  0  0  0  0  0  0  0  0  0  0
   24.0770  -20.7395  -11.9575 C   0  0  0  0  0  0  0  0  0  0  0  0
   23.6327  -19.5971  -12.2814 O   0  0  0  0  0  0  0  0  0  0  0  0
   22.8741  -23.0055  -14.7427 O   0  0  0  0  0  0  0  0  0  0  0  0
   21.8495  -23.0144  -13.7775 C   0  0  0  0  0  0  0  0  0  0  0  0
   22.0223  -21.7307  -12.9751 C   0  0  2  0  0  0  0  0  0  0  0  0
   23.2925  -21.8574  -12.2773 N   0  0  0  0  0  0  0  0  0  0  0  0
   20.8978  -21.5441  -12.0573 C   0  0  0  0  0  0  0  0  0  0  0  0
   21.1183  -21.5097  -10.6949 O   0  0  0  0  0  0  0  0  0  0  0  0
   19.7266  -21.4131  -12.4771 O   0  0  0  0  0  0  0  0  0  0  0  0
  2  1  1  0
  3  2  1  0
  4  3  1  0
  4  5  1  0
  5  7  1  0
  5  6  1  6
  7  8  2  0
  9 10  1  0
  9  7  1  0
 10 11  1  1
 11 12  1  0
 12 17  2  0
 13 12  1  0
 13 14  2  0
 14 15  1  0
 15 16  2  0
 17 16  1  0
 18 10  1  0
 19 18  2  0
 21 20  1  0
 22 23  1  0
 22 21  1  1
 23 18  1  0
 24 22  1  0
 25 24  1  0
 26 24  2  0
M  END
$$$$
