MFS.pdb
     RDKit          3D

 26 26  0  0  1  0  0  0  0  0999 V2000
   28.0715  -20.6283  -21.3615 C   0  0  0  0  0  0  0  0  0  0  0  0
   28.0244  -21.8077  -19.9962 S   0  0  0  0  0  0  0  0  0  0  0  0
   26.4289  -21.7338  -19.1317 C   0  0  0  0  0  0  0  0  0  0  0  0
   26.3608  -22.7741  -18.0341 C   0  0  0  0  0  0  0  0  0  0  0  0
   27.3230  -22.3984  -16.9111 C   0  0  2  0  0  0  0  0  0  0  0  0
   28.3979  -23.3384  -16.8973 N   0  0  0  0  0  0  0  0  0  0  0  0
   26.6358  -22.2453  -15.6291 C   0  0  0  0  0  0  0  0  0  0  0  0
   26.0157  -23.2612  -15.1819 O   0  0  0  0  0  0  0  0  0  0  0  0
   26.6000  -21.0809  -14.8510 N   0  0  0  0  0  0  0  0  0  0  0  0
   25.8649  -20.9899  -13.6287 C   0  0  1  0  0  0  0  0  0  0  0  0
   26.4877  -20.0832  -12.6040 C   0  0  0  0  0  0  0  0  0  0  0  0
   26.0454  -20.3382  -11.2325 C   0  0  0  0  0  0  0  0  0  0  0  0
   26.6492  -21.2952  -10.4741 C   0  0  0  0  0  0  0  0  0  0  0  0
   26.1825  -21.4842   -9.1889 C   0  0  0  0  0  0  0  0  0  0  0  0
   25.1341  -20.7359   -8.6651 C   0  0  0  0  0  0  0  0  0  0  0  0
   24.5346  -19.7812   -9.4270 C   0  0  0  0  0  0  0  0  0  0  0  0
   25.0034  -19.5851  -10.7305 C   0  0  0  0  0  0  0  0  0  0  0  0
   24.4713  -20.4694  -13.8686 C   0  0  0  0  0  0  0  0  0  0  0  0
   24.3020  -19.3013  -14.3315 O   0  0  0  0  0  0  0  0  0  0  0  0
   21.2316  -22.8815  -13.3500 O   0  0  0  0  0  0  0  0  0  0  0  0
   21.1641  -21.8905  -14.3476 C   0  0  0  0  0  0  0  0  0  0  0  0
   21.9861  -20.7183  -13.8262 C   0  0  2  0  0  0  0  0  0  0  0  0
   23.3270  -21.2341  -13.5977 N   0  0  0  0  0  0  0  0  0  0  0  0
   21.3844  -20.1705  -12.6099 C   0  0  0  0  0  0  0  0  0  0  0  0
   22.0321  -20.3073  -11.3984 O   0  0  0  0  0  0  0  0  0  0  0  0
   20.2852  -19.5738  -12.6364 O   0  0  0  0  0  0  0  0  0  0  0  0
  2  1  1  0
  3  2  1  0
  4  3  1  0
  4  5  1  0
  5  7  1  0
  5  6  1  1
  7  8  2  0
  9 10  1  0
  9  7  1  0
 10 11  1  1
 11 12  1  0
 12 17  2  0
 13 12  1  0
 13 14  2  0
 14 15  1  0
 15 16  2  0
 17 16  1  0
 18 10  1  0
 19 18  2  0
 21 20  1  0
 22 23  1  0
 22 21  1  1
 23 18  1  0
 24 22  1  0
 25 24  1  0
 26 24  2  0
M  END
$$$$
