MFS.pdb
     RDKit          3D

 26 26  0  0  1  0  0  0  0  0999 V2000
   23.3770  -20.7777  -19.6745 C   0  0  0  0  0  0  0  0  0  0  0  0
   24.9267  -20.2059  -20.4016 S   0  0  0  0  0  0  0  0  0  0  0  0
   26.3512  -20.8358  -19.4675 C   0  0  0  0  0  0  0  0  0  0  0  0
   25.8998  -21.7283  -18.3311 C   0  0  0  0  0  0  0  0  0  0  0  0
   26.9032  -21.6455  -17.1845 C   0  0  2  0  0  0  0  0  0  0  0  0
   27.9529  -22.5824  -17.4279 N   0  0  0  0  0  0  0  0  0  0  0  0
   26.2570  -21.7853  -15.8799 C   0  0  0  0  0  0  0  0  0  0  0  0
   25.8779  -22.9521  -15.5458 O   0  0  0  0  0  0  0  0  0  0  0  0
   26.0189  -20.7499  -14.9667 N   0  0  0  0  0  0  0  0  0  0  0  0
   25.3796  -20.9624  -13.7062 C   0  0  1  0  0  0  0  0  0  0  0  0
   25.8070  -20.0016  -12.6317 C   0  0  0  0  0  0  0  0  0  0  0  0
   25.2351  -20.2846  -11.3147 C   0  0  0  0  0  0  0  0  0  0  0  0
   24.0153  -19.7887  -10.9656 C   0  0  0  0  0  0  0  0  0  0  0  0
   23.5348  -20.0938   -9.7081 C   0  0  0  0  0  0  0  0  0  0  0  0
   24.2530  -20.8780   -8.8120 C   0  0  0  0  0  0  0  0  0  0  0  0
   25.4709  -21.3707   -9.1660 C   0  0  0  0  0  0  0  0  0  0  0  0
   25.9631  -21.0648  -10.4394 C   0  0  0  0  0  0  0  0  0  0  0  0
   23.8833  -20.8316  -13.8254 C   0  0  0  0  0  0  0  0  0  0  0  0
   23.3749  -19.7650  -14.2852 O   0  0  0  0  0  0  0  0  0  0  0  0
   19.6048  -22.9918  -13.6838 O   0  0  0  0  0  0  0  0  0  0  0  0
   20.9961  -23.1314  -13.5208 C   0  0  0  0  0  0  0  0  0  0  0  0
   21.5633  -21.7176  -13.5558 C   0  0  2  0  0  0  0  0  0  0  0  0
   23.0069  -21.8578  -13.4427 N   0  0  0  0  0  0  0  0  0  0  0  0
   20.9950  -20.9100  -12.4759 C   0  0  0  0  0  0  0  0  0  0  0  0
   21.7886  -20.5200  -11.4157 O   0  0  0  0  0  0  0  0  0  0  0  0
   19.7945  -20.5580  -12.4856 O   0  0  0  0  0  0  0  0  0  0  0  0
  2  1  1  0
  3  2  1  0
  4  3  1  0
  4  5  1  0
  5  7  1  0
  5  6  1  6
  7  8  2  0
  9 10  1  0
  9  7  1  0
 10 11  1  1
 11 12  1  0
 12 17  2  0
 13 12  1  0
 13 14  2  0
 14 15  1  0
 15 16  2  0
 17 16  1  0
 18 10  1  0
 19 18  2  0
 21 20  1  0
 22 23  1  0
 22 21  1  1
 23 18  1  0
 24 22  1  0
 25 24  1  0
 26 24  2  0
M  END
$$$$
