MFS.pdb
     RDKit          3D

 26 26  0  0  1  0  0  0  0  0999 V2000
   20.0865  -11.4308  -23.5418 C   0  0  0  0  0  0  0  0  0  0  0  0
   19.6978  -10.5567  -22.0114 S   0  0  0  0  0  0  0  0  0  0  0  0
   20.9910  -10.8274  -20.7652 C   0  0  0  0  0  0  0  0  0  0  0  0
   20.7280   -9.9993  -19.5255 C   0  0  0  0  0  0  0  0  0  0  0  0
   21.8816  -10.1689  -18.5413 C   0  0  2  0  0  0  0  0  0  0  0  0
   21.9226  -11.5315  -18.1164 N   0  0  0  0  0  0  0  0  0  0  0  0
   21.8191   -9.1961  -17.4509 C   0  0  0  0  0  0  0  0  0  0  0  0
   21.2411   -9.5656  -16.3804 O   0  0  0  0  0  0  0  0  0  0  0  0
   22.3384   -7.8953  -17.4807 N   0  0  0  0  0  0  0  0  0  0  0  0
   22.2382   -6.9971  -16.3736 C   0  0  1  0  0  0  0  0  0  0  0  0
   23.5483   -6.7135  -15.6928 C   0  0  0  0  0  0  0  0  0  0  0  0
   24.2860   -7.9124  -15.2928 C   0  0  0  0  0  0  0  0  0  0  0  0
   23.8126   -8.7226  -14.3053 C   0  0  0  0  0  0  0  0  0  0  0  0
   24.5581   -9.8370  -13.9774 C   0  0  0  0  0  0  0  0  0  0  0  0
   25.7535  -10.1423  -14.6189 C   0  0  0  0  0  0  0  0  0  0  0  0
   26.2216   -9.3297  -15.6046 C   0  0  0  0  0  0  0  0  0  0  0  0
   25.4702   -8.1985  -15.9413 C   0  0  0  0  0  0  0  0  0  0  0  0
   21.6825   -5.6638  -16.8025 C   0  0  0  0  0  0  0  0  0  0  0  0
   22.2813   -4.9830  -17.6887 O   0  0  0  0  0  0  0  0  0  0  0  0
   18.2682   -4.4120  -15.1807 O   0  0  0  0  0  0  0  0  0  0  0  0
   18.4325   -3.9886  -16.5131 C   0  0  0  0  0  0  0  0  0  0  0  0
   19.9363   -3.8789  -16.7326 C   0  0  2  0  0  0  0  0  0  0  0  0
   20.5073   -5.1286  -16.2547 N   0  0  0  0  0  0  0  0  0  0  0  0
   20.4740   -2.7144  -16.0281 C   0  0  0  0  0  0  0  0  0  0  0  0
   20.1138   -1.4419  -16.4243 O   0  0  0  0  0  0  0  0  0  0  0  0
   21.2613   -2.8402  -15.0641 O   0  0  0  0  0  0  0  0  0  0  0  0
  2  1  1  0
  3  2  1  0
  4  3  1  0
  4  5  1  0
  5  7  1  0
  5  6  1  1
  7  8  2  0
  9 10  1  0
  9  7  1  0
 10 11  1  6
 11 12  1  0
 12 17  2  0
 13 12  1  0
 13 14  2  0
 14 15  1  0
 15 16  2  0
 17 16  1  0
 18 10  1  0
 19 18  2  0
 21 20  1  0
 22 23  1  0
 22 21  1  1
 23 18  1  0
 24 22  1  0
 25 24  1  0
 26 24  2  0
M  END
$$$$
