MFS.pdb
     RDKit          3D

 26 26  0  0  1  0  0  0  0  0999 V2000
   26.2900  -16.8459  -17.1916 C   0  0  0  0  0  0  0  0  0  0  0  0
   27.7902  -16.2784  -16.3643 S   0  0  0  0  0  0  0  0  0  0  0  0
   28.5290  -17.6121  -15.3773 C   0  0  0  0  0  0  0  0  0  0  0  0
   27.5202  -18.7088  -15.1104 C   0  0  0  0  0  0  0  0  0  0  0  0
   28.1008  -19.7082  -14.1143 C   0  0  2  0  0  0  0  0  0  0  0  0
   29.0614  -20.5205  -14.7899 N   0  0  0  0  0  0  0  0  0  0  0  0
   27.0557  -20.4582  -13.4184 C   0  0  0  0  0  0  0  0  0  0  0  0
   26.6941  -21.5612  -13.9374 O   0  0  0  0  0  0  0  0  0  0  0  0
   26.4183  -20.0704  -12.2326 N   0  0  0  0  0  0  0  0  0  0  0  0
   25.4130  -20.8648  -11.5996 C   0  0  1  0  0  0  0  0  0  0  0  0
   25.2004  -20.5422  -10.1467 C   0  0  0  0  0  0  0  0  0  0  0  0
   26.4002  -20.6843   -9.3209 C   0  0  0  0  0  0  0  0  0  0  0  0
   26.5176  -20.0092   -8.1435 C   0  0  0  0  0  0  0  0  0  0  0  0
   27.6755  -20.1885   -7.4141 C   0  0  0  0  0  0  0  0  0  0  0  0
   28.7000  -21.0238   -7.8458 C   0  0  0  0  0  0  0  0  0  0  0  0
   28.5775  -21.6956   -9.0226 C   0  0  0  0  0  0  0  0  0  0  0  0
   27.4059  -21.5179   -9.7665 C   0  0  0  0  0  0  0  0  0  0  0  0
   24.0771  -20.6925  -12.2750 C   0  0  0  0  0  0  0  0  0  0  0  0
   23.6982  -19.5408  -12.6457 O   0  0  0  0  0  0  0  0  0  0  0  0
   20.2252  -22.7467  -14.2609 O   0  0  0  0  0  0  0  0  0  0  0  0
   21.4966  -22.9358  -13.6869 C   0  0  0  0  0  0  0  0  0  0  0  0
   21.8981  -21.5840  -13.1098 C   0  0  2  0  0  0  0  0  0  0  0  0
   23.2139  -21.7710  -12.5183 N   0  0  0  0  0  0  0  0  0  0  0  0
   20.9074  -21.1281  -12.1340 C   0  0  0  0  0  0  0  0  0  0  0  0
   19.6741  -20.6790  -12.5619 O   0  0  0  0  0  0  0  0  0  0  0  0
   21.1489  -21.1337  -10.9065 O   0  0  0  0  0  0  0  0  0  0  0  0
  2  1  1  0
  3  2  1  0
  4  3  1  0
  4  5  1  0
  5  7  1  0
  5  6  1  6
  7  8  2  0
  9 10  1  0
  9  7  1  0
 10 11  1  1
 11 12  1  0
 12 17  2  0
 13 12  1  0
 13 14  2  0
 14 15  1  0
 15 16  2  0
 17 16  1  0
 18 10  1  0
 19 18  2  0
 21 20  1  0
 22 23  1  0
 22 21  1  1
 23 18  1  0
 24 22  1  0
 25 24  1  0
 26 24  2  0
M  END
$$$$
