MFS.pdb
     RDKit          3D

 26 26  0  0  1  0  0  0  0  0999 V2000
   16.2820  -11.8977  -21.5628 C   0  0  0  0  0  0  0  0  0  0  0  0
   17.5405  -13.1905  -21.5178 S   0  0  0  0  0  0  0  0  0  0  0  0
   19.1414  -12.5173  -20.9864 C   0  0  0  0  0  0  0  0  0  0  0  0
   18.9890  -11.6931  -19.7257 C   0  0  0  0  0  0  0  0  0  0  0  0
   20.0007  -12.1592  -18.6830 C   0  0  2  0  0  0  0  0  0  0  0  0
   19.7243  -13.5213  -18.3554 N   0  0  0  0  0  0  0  0  0  0  0  0
   20.0556  -11.2586  -17.5319 C   0  0  0  0  0  0  0  0  0  0  0  0
   19.1972  -11.4444  -16.6124 O   0  0  0  0  0  0  0  0  0  0  0  0
   20.9681  -10.2109  -17.3522 N   0  0  0  0  0  0  0  0  0  0  0  0
   20.8856   -9.2923  -16.2604 C   0  0  1  0  0  0  0  0  0  0  0  0
   22.2071   -8.9931  -15.6089 C   0  0  0  0  0  0  0  0  0  0  0  0
   22.1265   -8.0346  -14.5061 C   0  0  0  0  0  0  0  0  0  0  0  0
   21.7944   -8.4459  -13.2506 C   0  0  0  0  0  0  0  0  0  0  0  0
   21.7363   -7.4899  -12.2567 C   0  0  0  0  0  0  0  0  0  0  0  0
   22.0034   -6.1479  -12.5047 C   0  0  0  0  0  0  0  0  0  0  0  0
   22.3347   -5.7426  -13.7606 C   0  0  0  0  0  0  0  0  0  0  0  0
   22.3952   -6.7072  -14.7722 C   0  0  0  0  0  0  0  0  0  0  0  0
   20.3189   -7.9685  -16.7039 C   0  0  0  0  0  0  0  0  0  0  0  0
   20.8667   -7.3305  -17.6528 O   0  0  0  0  0  0  0  0  0  0  0  0
   16.6776   -7.1027  -15.7714 O   0  0  0  0  0  0  0  0  0  0  0  0
   17.1839   -6.3463  -16.8452 C   0  0  0  0  0  0  0  0  0  0  0  0
   18.6564   -6.1120  -16.5317 C   0  0  2  0  0  0  0  0  0  0  0  0
   19.1882   -7.3963  -16.1026 N   0  0  0  0  0  0  0  0  0  0  0  0
   18.8046   -5.0767  -15.5082 C   0  0  0  0  0  0  0  0  0  0  0  0
   18.4660   -3.7695  -15.7956 O   0  0  0  0  0  0  0  0  0  0  0  0
   19.2351   -5.3454  -14.3647 O   0  0  0  0  0  0  0  0  0  0  0  0
  2  1  1  0
  3  2  1  0
  4  3  1  0
  4  5  1  0
  5  7  1  0
  5  6  1  1
  7  8  2  0
  9 10  1  0
  9  7  1  0
 10 11  1  6
 11 12  1  0
 12 17  2  0
 13 12  1  0
 13 14  2  0
 14 15  1  0
 15 16  2  0
 17 16  1  0
 18 10  1  0
 19 18  2  0
 21 20  1  0
 22 23  1  0
 22 21  1  1
 23 18  1  0
 24 22  1  0
 25 24  1  0
 26 24  2  0
M  END
$$$$
