YAQ.pdb
     RDKit          3D

 27 27  0  0  1  0  0  0  0  0999 V2000
   31.2069  -15.7645  -19.0749 O   0  0  0  0  0  0  0  0  0  0  0  0
   30.2895  -16.4985  -18.3133 C   0  0  0  0  0  0  0  0  0  0  0  0
   30.6511  -17.0604  -17.1157 C   0  0  0  0  0  0  0  0  0  0  0  0
   29.6930  -17.7650  -16.4292 C   0  0  0  0  0  0  0  0  0  0  0  0
   28.3973  -17.9221  -16.9006 C   0  0  0  0  0  0  0  0  0  0  0  0
   27.4420  -18.7125  -16.0590 C   0  0  0  0  0  0  0  0  0  0  0  0
   28.0204  -20.0779  -15.7871 C   0  0  2  0  0  0  0  0  0  0  0  0
   28.2577  -20.8067  -17.0227 N   0  0  0  0  0  0  0  0  0  0  0  0
   27.1439  -20.8955  -14.9244 C   0  0  0  0  0  0  0  0  0  0  0  0
   26.3679  -21.7800  -15.4139 O   0  0  0  0  0  0  0  0  0  0  0  0
   28.0602  -17.3532  -18.0960 C   0  0  0  0  0  0  0  0  0  0  0  0
   29.0211  -16.6352  -18.8050 C   0  0  0  0  0  0  0  0  0  0  0  0
   26.5585  -21.3466  -11.2480 C   0  0  0  0  0  0  0  0  0  0  0  0
   26.2478  -21.5430  -12.7252 C   0  0  2  0  0  0  0  0  0  0  0  0
   27.1367  -20.7256  -13.5074 N   0  0  0  0  0  0  0  0  0  0  0  0
   24.8306  -21.0601  -12.9041 C   0  0  0  0  0  0  0  0  0  0  0  0
   24.5982  -19.8706  -13.2204 O   0  0  0  0  0  0  0  0  0  0  0  0
   21.2925  -18.7207   -9.5507 N   0  0  0  0  0  0  0  0  0  0  0  0
   20.3887  -19.0243  -10.5962 C   0  0  0  0  0  0  0  0  0  0  0  0
   19.2512  -18.4418  -10.5554 O   0  0  0  0  0  0  0  0  0  0  0  0
   20.6808  -19.9411  -11.6969 C   0  0  0  0  0  0  0  0  0  0  0  0
   21.9764  -20.6402  -11.6813 C   0  0  0  0  0  0  0  0  0  0  0  0
   22.3514  -21.5017  -12.8273 C   0  0  2  0  0  0  0  0  0  0  0  0
   23.7381  -21.9492  -12.7161 N   0  0  0  0  0  0  0  0  0  0  0  0
   21.9266  -21.1554  -14.1668 C   0  0  0  0  0  0  0  0  0  0  0  0
   20.7524  -20.9355  -14.5320 O   0  0  0  0  0  0  0  0  0  0  0  0
   22.8872  -21.0458  -15.1912 O   0  0  0  0  0  0  0  0  0  0  0  0
  2  1  1  0
  3  2  2  0
  4  3  1  0
  5 11  1  0
  5  4  2  0
  6  5  1  0
  7  8  1  6
  7  9  1  0
  7  6  1  0
  9 10  2  0
 11 12  2  0
 12  2  1  0
 14 13  1  1
 14 16  1  0
 15 14  1  0
 15  9  1  0
 16 24  1  0
 16 17  2  0
 18 19  1  0
 19 21  1  0
 20 19  2  0
 22 21  1  0
 23 22  1  1
 24 23  1  0
 25 23  1  0
 25 27  1  0
 26 25  2  0
M  END
$$$$
