YAQ.pdb
     RDKit          3D

 27 27  0  0  1  0  0  0  0  0999 V2000
   26.2755  -20.6648   -7.5169 O   0  0  0  0  0  0  0  0  0  0  0  0
   25.9068  -20.6172   -8.8668 C   0  0  0  0  0  0  0  0  0  0  0  0
   26.8516  -20.6332   -9.8609 C   0  0  0  0  0  0  0  0  0  0  0  0
   26.4084  -20.5838  -11.1597 C   0  0  0  0  0  0  0  0  0  0  0  0
   25.0620  -20.5198  -11.4897 C   0  0  0  0  0  0  0  0  0  0  0  0
   24.7039  -20.4715  -12.9441 C   0  0  0  0  0  0  0  0  0  0  0  0
   25.6681  -21.3240  -13.7292 C   0  0  2  0  0  0  0  0  0  0  0  0
   26.9994  -20.7394  -13.7435 N   0  0  0  0  0  0  0  0  0  0  0  0
   25.2308  -21.5222  -15.1257 C   0  0  0  0  0  0  0  0  0  0  0  0
   25.3271  -20.5910  -15.9906 O   0  0  0  0  0  0  0  0  0  0  0  0
   24.1392  -20.5052  -10.4826 C   0  0  0  0  0  0  0  0  0  0  0  0
   24.5727  -20.5545   -9.1591 C   0  0  0  0  0  0  0  0  0  0  0  0
   24.1520  -24.3799  -17.2739 C   0  0  0  0  0  0  0  0  0  0  0  0
   24.2975  -22.9025  -16.9376 C   0  0  2  0  0  0  0  0  0  0  0  0
   24.6858  -22.7681  -15.5587 N   0  0  0  0  0  0  0  0  0  0  0  0
   22.9251  -22.3098  -17.1347 C   0  0  0  0  0  0  0  0  0  0  0  0
   22.0077  -22.5407  -16.3135 O   0  0  0  0  0  0  0  0  0  0  0  0
   20.0338  -18.6373  -14.7385 N   0  0  0  0  0  0  0  0  0  0  0  0
   20.5636  -18.3068  -16.0083 C   0  0  0  0  0  0  0  0  0  0  0  0
   20.1244  -17.2348  -16.5494 O   0  0  0  0  0  0  0  0  0  0  0  0
   21.5663  -19.1025  -16.7144 C   0  0  0  0  0  0  0  0  0  0  0  0
   21.2820  -19.4840  -18.1076 C   0  0  0  0  0  0  0  0  0  0  0  0
   21.3274  -20.9140  -18.4936 C   0  0  2  0  0  0  0  0  0  0  0  0
   22.6535  -21.4802  -18.2559 N   0  0  0  0  0  0  0  0  0  0  0  0
   20.6818  -21.3597  -19.7098 C   0  0  0  0  0  0  0  0  0  0  0  0
   19.4500  -21.4350  -19.9032 O   0  0  0  0  0  0  0  0  0  0  0  0
   21.4707  -21.7590  -20.8062 O   0  0  0  0  0  0  0  0  0  0  0  0
  2  1  1  0
  3  2  2  0
  4  3  1  0
  5 11  1  0
  5  4  2  0
  6  5  1  0
  7  8  1  6
  7  9  1  0
  7  6  1  0
  9 10  2  0
 11 12  2  0
 12  2  1  0
 14 13  1  1
 14 16  1  0
 15 14  1  0
 15  9  1  0
 16 24  1  0
 16 17  2  0
 18 19  1  0
 19 21  1  0
 20 19  2  0
 22 21  1  0
 23 22  1  6
 24 23  1  0
 25 23  1  0
 25 27  1  0
 26 25  2  0
M  END
$$$$
