YAQ.pdb
     RDKit          3D

 27 27  0  0  1  0  0  0  0  0999 V2000
   28.7939  -20.1025   -4.0976 O   0  0  0  0  0  0  0  0  0  0  0  0
   28.3056  -19.9877   -5.4049 C   0  0  0  0  0  0  0  0  0  0  0  0
   29.0867  -19.4800   -6.4115 C   0  0  0  0  0  0  0  0  0  0  0  0
   28.5340  -19.4004   -7.6660 C   0  0  0  0  0  0  0  0  0  0  0  0
   27.2367  -19.8097   -7.9403 C   0  0  0  0  0  0  0  0  0  0  0  0
   26.7479  -19.6736   -9.3504 C   0  0  0  0  0  0  0  0  0  0  0  0
   26.7507  -21.0255  -10.0176 C   0  0  2  0  0  0  0  0  0  0  0  0
   28.1060  -21.5110  -10.2218 N   0  0  0  0  0  0  0  0  0  0  0  0
   26.0604  -21.0068  -11.3230 C   0  0  0  0  0  0  0  0  0  0  0  0
   26.6783  -20.7090  -12.3971 O   0  0  0  0  0  0  0  0  0  0  0  0
   26.4777  -20.3123   -6.9217 C   0  0  0  0  0  0  0  0  0  0  0  0
   27.0238  -20.3994   -5.6427 C   0  0  0  0  0  0  0  0  0  0  0  0
   22.6965  -21.9857  -12.6459 C   0  0  0  0  0  0  0  0  0  0  0  0
   24.0737  -21.3435  -12.7366 C   0  0  2  0  0  0  0  0  0  0  0  0
   24.6732  -21.3253  -11.4289 N   0  0  0  0  0  0  0  0  0  0  0  0
   23.8264  -19.9292  -13.1974 C   0  0  0  0  0  0  0  0  0  0  0  0
   23.5008  -19.0400  -12.3774 O   0  0  0  0  0  0  0  0  0  0  0  0
   27.2766  -15.5780  -15.2768 N   0  0  0  0  0  0  0  0  0  0  0  0
   27.1197  -16.6865  -16.1421 C   0  0  0  0  0  0  0  0  0  0  0  0
   28.0413  -16.8696  -17.0092 O   0  0  0  0  0  0  0  0  0  0  0  0
   25.9910  -17.6146  -16.0948 C   0  0  0  0  0  0  0  0  0  0  0  0
   25.0061  -17.4418  -15.0144 C   0  0  0  0  0  0  0  0  0  0  0  0
   23.7462  -18.2212  -15.0476 C   0  0  2  0  0  0  0  0  0  0  0  0
   23.9599  -19.5855  -14.5697 N   0  0  0  0  0  0  0  0  0  0  0  0
   22.8476  -18.1028  -16.1760 C   0  0  0  0  0  0  0  0  0  0  0  0
   22.7378  -18.9169  -17.1170 O   0  0  0  0  0  0  0  0  0  0  0  0
   21.9985  -16.9829  -16.2704 O   0  0  0  0  0  0  0  0  0  0  0  0
  2  1  1  0
  3  2  2  0
  4  3  1  0
  5 11  1  0
  5  4  2  0
  6  5  1  0
  7  8  1  6
  7  9  1  0
  7  6  1  0
  9 10  2  0
 11 12  2  0
 12  2  1  0
 14 13  1  1
 14 16  1  0
 15 14  1  0
 15  9  1  0
 16 24  1  0
 16 17  2  0
 18 19  1  0
 19 21  1  0
 20 19  2  0
 22 21  1  0
 23 22  1  6
 24 23  1  0
 25 23  1  0
 25 27  1  0
 26 25  2  0
M  END
$$$$
