YAQ.pdb
     RDKit          3D

 27 27  0  0  1  0  0  0  0  0999 V2000
   19.0889  -17.6578  -21.5816 O   0  0  0  0  0  0  0  0  0  0  0  0
   19.2040  -16.7413  -20.5293 C   0  0  0  0  0  0  0  0  0  0  0  0
   19.8361  -17.0799  -19.3602 C   0  0  0  0  0  0  0  0  0  0  0  0
   19.9071  -16.1244  -18.3764 C   0  0  0  0  0  0  0  0  0  0  0  0
   19.3703  -14.8536  -18.5264 C   0  0  0  0  0  0  0  0  0  0  0  0
   19.5131  -13.8985  -17.3805 C   0  0  0  0  0  0  0  0  0  0  0  0
   20.6071  -12.9067  -17.6842 C   0  0  2  0  0  0  0  0  0  0  0  0
   21.8916  -13.5693  -17.8436 N   0  0  0  0  0  0  0  0  0  0  0  0
   20.7397  -11.8797  -16.6313 C   0  0  0  0  0  0  0  0  0  0  0  0
   19.7334  -11.2119  -16.2242 O   0  0  0  0  0  0  0  0  0  0  0  0
   18.7456  -14.5392  -19.6999 C   0  0  0  0  0  0  0  0  0  0  0  0
   18.6648  -15.4978  -20.7081 C   0  0  0  0  0  0  0  0  0  0  0  0
   23.4339  -10.4993  -14.4267 C   0  0  0  0  0  0  0  0  0  0  0  0
   22.1154  -10.4394  -15.1850 C   0  0  2  0  0  0  0  0  0  0  0  0
   22.0025  -11.5997  -16.0283 N   0  0  0  0  0  0  0  0  0  0  0  0
   22.2015   -9.2009  -16.0407 C   0  0  0  0  0  0  0  0  0  0  0  0
   22.5945   -9.2730  -17.2278 O   0  0  0  0  0  0  0  0  0  0  0  0
   20.2984   -7.6938  -20.2562 N   0  0  0  0  0  0  0  0  0  0  0  0
   19.6332   -6.6154  -19.6263 C   0  0  0  0  0  0  0  0  0  0  0  0
   18.9998   -5.8097  -20.3908 O   0  0  0  0  0  0  0  0  0  0  0  0
   19.6264   -6.3824  -18.1830 C   0  0  0  0  0  0  0  0  0  0  0  0
   20.3419   -7.3453  -17.3297 C   0  0  0  0  0  0  0  0  0  0  0  0
   21.3527   -6.8510  -16.3653 C   0  0  2  0  0  0  0  0  0  0  0  0
   21.8371   -7.9334  -15.5114 N   0  0  0  0  0  0  0  0  0  0  0  0
   21.1586   -5.5835  -15.6942 C   0  0  0  0  0  0  0  0  0  0  0  0
   21.3716   -4.4533  -16.1816 O   0  0  0  0  0  0  0  0  0  0  0  0
   20.6897   -5.5680  -14.3661 O   0  0  0  0  0  0  0  0  0  0  0  0
  2  1  1  0
  3  2  2  0
  4  3  1  0
  5 11  1  0
  5  4  2  0
  6  5  1  0
  7  8  1  1
  7  9  1  0
  7  6  1  0
  9 10  2  0
 11 12  2  0
 12  2  1  0
 14 13  1  6
 14 16  1  0
 15 14  1  0
 15  9  1  0
 16 24  1  0
 16 17  2  0
 18 19  1  0
 19 21  1  0
 20 19  2  0
 22 21  1  0
 23 22  1  1
 24 23  1  0
 25 23  1  0
 25 27  1  0
 26 25  2  0
M  END
$$$$
