YAQ.pdb
     RDKit          3D

 27 27  0  0  1  0  0  0  0  0999 V2000
   26.5022  -20.4746   -6.7966 O   0  0  0  0  0  0  0  0  0  0  0  0
   26.4655  -20.4375   -8.1959 C   0  0  0  0  0  0  0  0  0  0  0  0
   26.5738  -19.2519   -8.8768 C   0  0  0  0  0  0  0  0  0  0  0  0
   26.5288  -19.3004  -10.2484 C   0  0  0  0  0  0  0  0  0  0  0  0
   26.3804  -20.4876  -10.9514 C   0  0  0  0  0  0  0  0  0  0  0  0
   26.3465  -20.4104  -12.4476 C   0  0  0  0  0  0  0  0  0  0  0  0
   24.9208  -20.2540  -12.9122 C   0  0  2  0  0  0  0  0  0  0  0  0
   24.1569  -21.4714  -12.6921 N   0  0  0  0  0  0  0  0  0  0  0  0
   24.8342  -19.9014  -14.3436 C   0  0  0  0  0  0  0  0  0  0  0  0
   24.9442  -20.7867  -15.2538 O   0  0  0  0  0  0  0  0  0  0  0  0
   26.2746  -21.6561  -10.2516 C   0  0  0  0  0  0  0  0  0  0  0  0
   26.3182  -21.6239   -8.8592 C   0  0  0  0  0  0  0  0  0  0  0  0
   24.2721  -16.7952  -16.3765 C   0  0  0  0  0  0  0  0  0  0  0  0
   24.5896  -18.2696  -16.1702 C   0  0  2  0  0  0  0  0  0  0  0  0
   24.6206  -18.5531  -14.7600 N   0  0  0  0  0  0  0  0  0  0  0  0
   25.9653  -18.4686  -16.7546 C   0  0  0  0  0  0  0  0  0  0  0  0
   26.9878  -18.2079  -16.0797 O   0  0  0  0  0  0  0  0  0  0  0  0
   30.2490  -22.9677  -16.1578 N   0  0  0  0  0  0  0  0  0  0  0  0
   29.0042  -22.7452  -16.7929 C   0  0  0  0  0  0  0  0  0  0  0  0
   28.0522  -23.5386  -16.4780 O   0  0  0  0  0  0  0  0  0  0  0  0
   28.7528  -21.6793  -17.7613 C   0  0  0  0  0  0  0  0  0  0  0  0
   27.6216  -20.7728  -17.5048 C   0  0  0  0  0  0  0  0  0  0  0  0
   27.3001  -19.7142  -18.4907 C   0  0  2  0  0  0  0  0  0  0  0  0
   26.1206  -18.9553  -18.0807 N   0  0  0  0  0  0  0  0  0  0  0  0
   27.3860  -19.9911  -19.9088 C   0  0  0  0  0  0  0  0  0  0  0  0
   26.4223  -20.1821  -20.6802 O   0  0  0  0  0  0  0  0  0  0  0  0
   28.6507  -20.0648  -20.5244 O   0  0  0  0  0  0  0  0  0  0  0  0
  2  1  1  0
  3  2  2  0
  4  3  1  0
  5 11  1  0
  5  4  2  0
  6  5  1  0
  7  8  1  6
  7  9  1  0
  7  6  1  0
  9 10  2  0
 11 12  2  0
 12  2  1  0
 14 13  1  1
 14 16  1  0
 15 14  1  0
 15  9  1  0
 16 24  1  0
 16 17  2  0
 18 19  1  0
 19 21  1  0
 20 19  2  0
 22 21  1  0
 23 22  1  1
 24 23  1  0
 25 23  1  0
 25 27  1  0
 26 25  2  0
M  END
$$$$
