YAQ.pdb
     RDKit          3D

 27 27  0  0  1  0  0  0  0  0999 V2000
   21.6141  -13.8646  -20.4878 O   0  0  0  0  0  0  0  0  0  0  0  0
   22.1148  -14.9190  -19.7146 C   0  0  0  0  0  0  0  0  0  0  0  0
   22.5538  -14.7115  -18.4319 C   0  0  0  0  0  0  0  0  0  0  0  0
   23.0304  -15.7976  -17.7398 C   0  0  0  0  0  0  0  0  0  0  0  0
   23.0799  -17.0718  -18.2873 C   0  0  0  0  0  0  0  0  0  0  0  0
   23.6204  -18.1763  -17.4308 C   0  0  0  0  0  0  0  0  0  0  0  0
   25.1131  -18.2745  -17.6174 C   0  0  2  0  0  0  0  0  0  0  0  0
   25.4469  -18.8899  -18.8917 N   0  0  0  0  0  0  0  0  0  0  0  0
   25.7619  -19.0498  -16.5409 C   0  0  0  0  0  0  0  0  0  0  0  0
   25.5901  -20.3080  -16.4322 O   0  0  0  0  0  0  0  0  0  0  0  0
   22.6369  -17.2542  -19.5666 C   0  0  0  0  0  0  0  0  0  0  0  0
   22.1505  -16.1621  -20.2826 C   0  0  0  0  0  0  0  0  0  0  0  0
   28.1164  -18.4119  -13.6979 C   0  0  0  0  0  0  0  0  0  0  0  0
   27.0128  -19.1679  -14.4242 C   0  0  2  0  0  0  0  0  0  0  0  0
   26.6092  -18.4165  -15.5829 N   0  0  0  0  0  0  0  0  0  0  0  0
   25.8670  -19.2407  -13.4467 C   0  0  0  0  0  0  0  0  0  0  0  0
   24.7674  -18.7030  -13.7130 O   0  0  0  0  0  0  0  0  0  0  0  0
   23.0912  -19.2726  -13.8113 N   0  0  0  0  0  0  0  0  0  0  0  0
   22.3636  -20.4394  -13.4775 C   0  0  0  0  0  0  0  0  0  0  0  0
   21.0960  -20.3877  -13.6374 O   0  0  0  0  0  0  0  0  0  0  0  0
   22.9691  -21.6726  -12.9778 C   0  0  0  0  0  0  0  0  0  0  0  0
   24.4196  -21.6710  -12.7257 C   0  0  0  0  0  0  0  0  0  0  0  0
   24.9732  -20.7890  -11.6714 C   0  0  2  0  0  0  0  0  0  0  0  0
   26.0192  -19.9213  -12.2085 N   0  0  0  0  0  0  0  0  0  0  0  0
   25.2342  -21.3132  -10.3479 C   0  0  0  0  0  0  0  0  0  0  0  0
   24.4822  -21.2121   -9.3556 O   0  0  0  0  0  0  0  0  0  0  0  0
   26.4345  -22.0082  -10.1027 O   0  0  0  0  0  0  0  0  0  0  0  0
  2  1  1  0
  3  2  2  0
  4  3  1  0
  5 11  1  0
  5  4  2  0
  6  5  1  0
  7  8  1  6
  7  9  1  0
  7  6  1  0
  9 10  2  0
 11 12  2  0
 12  2  1  0
 14 13  1  1
 14 16  1  0
 15 14  1  0
 15  9  1  0
 16 24  1  0
 16 17  2  0
 18 19  1  0
 19 21  1  0
 20 19  2  0
 22 21  1  0
 23 22  1  6
 24 23  1  0
 25 23  1  0
 25 27  1  0
 26 25  2  0
M  END
$$$$
