YAQ.pdb
     RDKit          3D

 27 27  0  0  1  0  0  0  0  0999 V2000
   23.0935  -21.7259   -7.5055 O   0  0  0  0  0  0  0  0  0  0  0  0
   23.4163  -21.4823   -8.8460 C   0  0  0  0  0  0  0  0  0  0  0  0
   22.4957  -21.6775   -9.8437 C   0  0  0  0  0  0  0  0  0  0  0  0
   22.8904  -21.4158  -11.1326 C   0  0  0  0  0  0  0  0  0  0  0  0
   24.1655  -20.9691  -11.4495 C   0  0  0  0  0  0  0  0  0  0  0  0
   24.4754  -20.7175  -12.8939 C   0  0  0  0  0  0  0  0  0  0  0  0
   24.4677  -19.2336  -13.1601 C   0  0  2  0  0  0  0  0  0  0  0  0
   23.1227  -18.6881  -13.0724 N   0  0  0  0  0  0  0  0  0  0  0  0
   25.0203  -18.9004  -14.4884 C   0  0  0  0  0  0  0  0  0  0  0  0
   24.2765  -18.8408  -15.5215 O   0  0  0  0  0  0  0  0  0  0  0  0
   25.0654  -20.7818  -10.4389 C   0  0  0  0  0  0  0  0  0  0  0  0
   24.6805  -21.0431   -9.1254 C   0  0  0  0  0  0  0  0  0  0  0  0
   28.2639  -17.6360  -15.8470 C   0  0  0  0  0  0  0  0  0  0  0  0
   26.8742  -18.2450  -15.9691 C   0  0  2  0  0  0  0  0  0  0  0  0
   26.4108  -18.6297  -14.6625 N   0  0  0  0  0  0  0  0  0  0  0  0
   27.0495  -19.4748  -16.8239 C   0  0  0  0  0  0  0  0  0  0  0  0
   27.1954  -20.6015  -16.2965 O   0  0  0  0  0  0  0  0  0  0  0  0
   22.0496  -19.9508  -17.1502 N   0  0  0  0  0  0  0  0  0  0  0  0
   22.2756  -20.6037  -18.3850 C   0  0  0  0  0  0  0  0  0  0  0  0
   21.2626  -21.1620  -18.9300 O   0  0  0  0  0  0  0  0  0  0  0  0
   23.5721  -20.6675  -19.0575 C   0  0  0  0  0  0  0  0  0  0  0  0
   24.7150  -20.0055  -18.4073 C   0  0  0  0  0  0  0  0  0  0  0  0
   26.0430  -20.0361  -19.0643 C   0  0  2  0  0  0  0  0  0  0  0  0
   27.0514  -19.3720  -18.2412 N   0  0  0  0  0  0  0  0  0  0  0  0
   26.1565  -19.7908  -20.4861 C   0  0  0  0  0  0  0  0  0  0  0  0
   26.4356  -20.6399  -21.3587 O   0  0  0  0  0  0  0  0  0  0  0  0
   25.9444  -18.4901  -20.9834 O   0  0  0  0  0  0  0  0  0  0  0  0
  2  1  1  0
  3  2  2  0
  4  3  1  0
  5 11  1  0
  5  4  2  0
  6  5  1  0
  7  8  1  6
  7  9  1  0
  7  6  1  0
  9 10  2  0
 11 12  2  0
 12  2  1  0
 14 13  1  1
 14 16  1  0
 15 14  1  0
 15  9  1  0
 16 24  1  0
 16 17  2  0
 18 19  1  0
 19 21  1  0
 20 19  2  0
 22 21  1  0
 23 22  1  1
 24 23  1  0
 25 23  1  0
 25 27  1  0
 26 25  2  0
M  END
$$$$
