LVR.pdb
     RDKit          3D

 27 26  0  0  1  0  0  0  0  0999 V2000
    6.1173  -12.0188   25.7276 C   0  0  0  0  0  0  0  0  0  0  0  0
    7.1752  -13.0674   25.9993 C   0  0  1  0  0  0  0  0  0  0  0  0
    8.0700  -12.5766   27.1240 C   0  0  0  0  0  0  0  0  0  0  0  0
    6.5658  -14.3731   26.4519 C   0  0  0  0  0  0  0  0  0  0  0  0
    5.9477  -15.0348   25.2372 C   0  0  2  0  0  0  0  0  0  0  0  0
    5.3514  -16.2725   25.6988 N   0  0  0  0  0  0  0  0  0  0  0  0
    6.9489  -15.3568   24.2080 C   0  0  0  0  0  0  0  0  0  0  0  0
    7.7391  -16.3192   24.3632 O   0  0  0  0  0  0  0  0  0  0  0  0
    8.1046  -12.8234   20.8333 C   0  0  0  0  0  0  0  0  0  0  0  0
    7.8291  -14.3044   20.6727 C   0  0  2  0  0  0  0  0  0  0  0  0
    6.4466  -14.4524   20.1183 C   0  0  0  0  0  0  0  0  0  0  0  0
    8.0309  -15.0097   21.9885 C   0  0  2  0  0  0  0  0  0  0  0  0
    7.0943  -14.6261   22.9965 N   0  0  0  0  0  0  0  0  0  0  0  0
    9.4514  -14.8910   22.4802 C   0  0  0  0  0  0  0  0  0  0  0  0
    9.7833  -13.9772   23.2744 O   0  0  0  0  0  0  0  0  0  0  0  0
   10.0815  -19.5154   28.6640 N   0  0  0  0  0  0  0  0  0  0  0  0
   11.3589  -19.5904   28.0652 C   0  0  0  0  0  0  0  0  0  0  0  0
   12.0765  -20.6536   28.2023 N   0  0  0  0  0  0  0  0  0  0  0  0
   11.9145  -18.5262   27.2963 N   0  0  0  0  0  0  0  0  0  0  0  0
   11.0461  -17.8298   26.3786 C   0  0  0  0  0  0  0  0  0  0  0  0
   11.6693  -17.8637   24.9970 C   0  0  0  0  0  0  0  0  0  0  0  0
   10.7723  -17.1398   24.0518 C   0  0  0  0  0  0  0  0  0  0  0  0
   11.4563  -16.3356   22.9922 C   0  0  2  0  0  0  0  0  0  0  0  0
   10.4499  -15.8020   22.0630 N   0  0  0  0  0  0  0  0  0  0  0  0
   12.4424  -17.1665   22.2853 C   0  0  0  0  0  0  0  0  0  0  0  0
   12.1926  -17.8700   21.2627 O   0  0  0  0  0  0  0  0  0  0  0  0
   13.7493  -17.2099   22.7348 O   0  0  0  0  0  0  0  0  0  0  0  0
  2  1  1  1
  2  3  1  0
  4  5  1  0
  4  2  1  0
  5  6  1  1
  7  5  1  0
  7  8  2  0
 10 11  1  1
 10  9  1  0
 10 12  1  0
 12 13  1  1
 13  7  1  0
 14 15  2  0
 14 12  1  0
 16 17  1  0
 17 18  2  0
 19 17  1  0
 19 20  1  0
 21 20  1  0
 21 22  1  0
 23 22  1  1
 23 24  1  0
 23 25  1  0
 24 14  1  0
 25 27  1  0
 26 25  2  0
M  END
$$$$
