LVR.pdb
     RDKit          3D

 27 26  0  0  1  0  0  0  0  0999 V2000
    8.1004  -19.3862   15.1844 C   0  0  0  0  0  0  0  0  0  0  0  0
    8.1056  -17.8769   15.0645 C   0  0  1  0  0  0  0  0  0  0  0  0
    6.6688  -17.3870   15.0179 C   0  0  0  0  0  0  0  0  0  0  0  0
    8.7611  -17.2229   16.2577 C   0  0  0  0  0  0  0  0  0  0  0  0
    8.7668  -15.7275   16.0140 C   0  0  2  0  0  0  0  0  0  0  0  0
    9.4691  -15.5146   14.7642 N   0  0  0  0  0  0  0  0  0  0  0  0
    9.4731  -14.9926   17.0752 C   0  0  0  0  0  0  0  0  0  0  0  0
   10.2075  -14.0141   16.7957 O   0  0  0  0  0  0  0  0  0  0  0  0
    8.2275  -12.5333   18.0453 C   0  0  0  0  0  0  0  0  0  0  0  0
    7.9661  -13.4616   19.2137 C   0  0  2  0  0  0  0  0  0  0  0  0
    7.5843  -12.6170   20.3890 C   0  0  0  0  0  0  0  0  0  0  0  0
    9.1729  -14.3291   19.4599 C   0  0  2  0  0  0  0  0  0  0  0  0
    9.3815  -15.3230   18.4555 N   0  0  0  0  0  0  0  0  0  0  0  0
    9.1608  -14.9335   20.8414 C   0  0  0  0  0  0  0  0  0  0  0  0
    9.0264  -14.2107   21.8589 O   0  0  0  0  0  0  0  0  0  0  0  0
   15.8926  -15.9255   21.2607 N   0  0  0  0  0  0  0  0  0  0  0  0
   15.3642  -15.3066   20.1059 C   0  0  0  0  0  0  0  0  0  0  0  0
   15.8972  -14.2237   19.6506 N   0  0  0  0  0  0  0  0  0  0  0  0
   14.2429  -15.8272   19.3958 N   0  0  0  0  0  0  0  0  0  0  0  0
   13.8654  -17.1981   19.6390 C   0  0  0  0  0  0  0  0  0  0  0  0
   12.9680  -17.2473   20.8600 C   0  0  0  0  0  0  0  0  0  0  0  0
   11.5895  -16.8512   20.4543 C   0  0  0  0  0  0  0  0  0  0  0  0
   10.5485  -16.9270   21.5258 C   0  0  2  0  0  0  0  0  0  0  0  0
    9.3001  -16.3282   21.0323 N   0  0  0  0  0  0  0  0  0  0  0  0
   11.0214  -16.2427   22.7385 C   0  0  0  0  0  0  0  0  0  0  0  0
   10.9350  -14.9963   22.9437 O   0  0  0  0  0  0  0  0  0  0  0  0
   11.6068  -16.9755   23.7543 O   0  0  0  0  0  0  0  0  0  0  0  0
  2  1  1  1
  2  3  1  0
  4  5  1  0
  4  2  1  0
  5  6  1  6
  7  5  1  0
  7  8  2  0
 10 11  1  1
 10  9  1  0
 10 12  1  0
 12 13  1  6
 13  7  1  0
 14 15  2  0
 14 12  1  0
 16 17  1  0
 17 18  2  0
 19 17  1  0
 19 20  1  0
 21 20  1  0
 21 22  1  0
 23 22  1  6
 23 24  1  0
 23 25  1  0
 24 14  1  0
 25 27  1  0
 26 25  2  0
M  END
$$$$
