LVR.pdb
     RDKit          3D

 27 26  0  0  1  0  0  0  0  0999 V2000
    6.8013  -11.1962   27.4208 C   0  0  0  0  0  0  0  0  0  0  0  0
    6.0657  -12.2542   26.6258 C   0  0  1  0  0  0  0  0  0  0  0  0
    5.1008  -11.5666   25.6757 C   0  0  0  0  0  0  0  0  0  0  0  0
    7.0100  -13.0783   25.7829 C   0  0  0  0  0  0  0  0  0  0  0  0
    6.1784  -14.0891   25.0198 C   0  0  2  0  0  0  0  0  0  0  0  0
    5.5988  -14.9778   26.0071 N   0  0  0  0  0  0  0  0  0  0  0  0
    6.9904  -14.8918   24.0916 C   0  0  0  0  0  0  0  0  0  0  0  0
    7.4453  -16.0080   24.4409 O   0  0  0  0  0  0  0  0  0  0  0  0
    6.8305  -14.6642   19.9541 C   0  0  0  0  0  0  0  0  0  0  0  0
    8.2378  -14.7508   20.5082 C   0  0  2  0  0  0  0  0  0  0  0  0
    9.0302  -15.6387   19.6004 C   0  0  0  0  0  0  0  0  0  0  0  0
    8.1986  -15.2280   21.9366 C   0  0  2  0  0  0  0  0  0  0  0  0
    7.3125  -14.4786   22.7694 N   0  0  0  0  0  0  0  0  0  0  0  0
    9.5780  -15.3194   22.5388 C   0  0  0  0  0  0  0  0  0  0  0  0
    9.9486  -14.5105   23.4243 O   0  0  0  0  0  0  0  0  0  0  0  0
    9.9399  -16.5946   27.6987 N   0  0  0  0  0  0  0  0  0  0  0  0
   11.2454  -17.0085   28.0454 C   0  0  0  0  0  0  0  0  0  0  0  0
   11.9475  -16.3105   28.8723 N   0  0  0  0  0  0  0  0  0  0  0  0
   11.8468  -18.1882   27.5171 N   0  0  0  0  0  0  0  0  0  0  0  0
   11.3459  -18.7002   26.2649 C   0  0  0  0  0  0  0  0  0  0  0  0
   12.0712  -18.0055   25.1292 C   0  0  0  0  0  0  0  0  0  0  0  0
   11.0597  -17.4773   24.1702 C   0  0  0  0  0  0  0  0  0  0  0  0
   11.6063  -16.7547   22.9801 C   0  0  2  0  0  0  0  0  0  0  0  0
   10.4933  -16.3158   22.1259 N   0  0  0  0  0  0  0  0  0  0  0  0
   12.5302  -17.6271   22.2400 C   0  0  0  0  0  0  0  0  0  0  0  0
   12.2651  -18.1873   21.1359 O   0  0  0  0  0  0  0  0  0  0  0  0
   13.7907  -17.8788   22.7494 O   0  0  0  0  0  0  0  0  0  0  0  0
  2  1  1  6
  2  3  1  0
  4  5  1  0
  4  2  1  0
  5  6  1  1
  7  5  1  0
  7  8  2  0
 10 11  1  6
 10  9  1  0
 10 12  1  0
 12 13  1  1
 13  7  1  0
 14 15  2  0
 14 12  1  0
 16 17  1  0
 17 18  2  0
 19 17  1  0
 19 20  1  0
 21 20  1  0
 21 22  1  0
 23 22  1  1
 23 24  1  0
 23 25  1  0
 24 14  1  0
 25 27  1  0
 26 25  2  0
M  END
$$$$
