LVR.pdb
     RDKit          3D

 27 26  0  0  1  0  0  0  0  0999 V2000
    6.8932  -12.3225   19.0653 C   0  0  0  0  0  0  0  0  0  0  0  0
    8.2105  -13.0691   19.0536 C   0  0  1  0  0  0  0  0  0  0  0  0
    9.2654  -12.2063   19.7237 C   0  0  0  0  0  0  0  0  0  0  0  0
    8.1291  -14.3600   19.8335 C   0  0  0  0  0  0  0  0  0  0  0  0
    9.5343  -14.9149   19.9474 C   0  0  2  0  0  0  0  0  0  0  0  0
    9.9598  -15.2433   18.6015 N   0  0  0  0  0  0  0  0  0  0  0  0
    9.5857  -16.1387   20.7628 C   0  0  0  0  0  0  0  0  0  0  0  0
    8.8420  -16.2714   21.7649 O   0  0  0  0  0  0  0  0  0  0  0  0
   10.3324  -19.9817   19.4411 C   0  0  0  0  0  0  0  0  0  0  0  0
   11.1334  -19.5869   20.6649 C   0  0  2  0  0  0  0  0  0  0  0  0
   11.2211  -20.7855   21.5572 C   0  0  0  0  0  0  0  0  0  0  0  0
   10.5049  -18.3874   21.3248 C   0  0  2  0  0  0  0  0  0  0  0  0
   10.4541  -17.2310   20.4878 N   0  0  0  0  0  0  0  0  0  0  0  0
   11.1411  -18.0782   22.6566 C   0  0  0  0  0  0  0  0  0  0  0  0
   12.3132  -17.6335   22.7221 O   0  0  0  0  0  0  0  0  0  0  0  0
    9.1676  -14.1748   28.2837 N   0  0  0  0  0  0  0  0  0  0  0  0
   10.2684  -14.5023   29.1063 C   0  0  0  0  0  0  0  0  0  0  0  0
   10.1641  -14.4215   30.3896 N   0  0  0  0  0  0  0  0  0  0  0  0
   11.5235  -14.9293   28.5822 N   0  0  0  0  0  0  0  0  0  0  0  0
   11.5326  -15.5812   27.2952 C   0  0  0  0  0  0  0  0  0  0  0  0
   10.5367  -16.7240   27.3208 C   0  0  0  0  0  0  0  0  0  0  0  0
   10.1335  -17.0361   25.9201 C   0  0  0  0  0  0  0  0  0  0  0  0
   11.0354  -17.9685   25.1755 C   0  0  2  0  0  0  0  0  0  0  0  0
   10.4393  -18.2791   23.8682 N   0  0  0  0  0  0  0  0  0  0  0  0
   11.2566  -19.1918   25.9611 C   0  0  0  0  0  0  0  0  0  0  0  0
   10.5801  -20.2558   25.8454 O   0  0  0  0  0  0  0  0  0  0  0  0
   12.2676  -19.2270   26.9037 O   0  0  0  0  0  0  0  0  0  0  0  0
  2  1  1  1
  2  3  1  0
  4  5  1  0
  4  2  1  0
  5  6  1  6
  7  5  1  0
  7  8  2  0
 10 11  1  1
 10  9  1  0
 10 12  1  0
 12 13  1  6
 13  7  1  0
 14 15  2  0
 14 12  1  0
 16 17  1  0
 17 18  2  0
 19 17  1  0
 19 20  1  0
 21 20  1  0
 21 22  1  0
 23 22  1  1
 23 24  1  0
 23 25  1  0
 24 14  1  0
 25 27  1  0
 26 25  2  0
M  END
$$$$
