LVR.pdb
     RDKit          3D

 27 26  0  0  1  0  0  0  0  0999 V2000
    7.8762  -12.1228   26.2310 C   0  0  0  0  0  0  0  0  0  0  0  0
    6.9203  -13.1908   25.7425 C   0  0  1  0  0  0  0  0  0  0  0  0
    5.5630  -12.9597   26.3834 C   0  0  0  0  0  0  0  0  0  0  0  0
    6.7240  -13.1243   24.2465 C   0  0  0  0  0  0  0  0  0  0  0  0
    8.0360  -13.5119   23.5953 C   0  0  2  0  0  0  0  0  0  0  0  0
    7.8754  -13.2833   22.1731 N   0  0  0  0  0  0  0  0  0  0  0  0
    8.3638  -14.9311   23.8038 C   0  0  0  0  0  0  0  0  0  0  0  0
    8.0154  -15.5202   24.8557 O   0  0  0  0  0  0  0  0  0  0  0  0
    8.7195  -17.7830   20.8687 C   0  0  0  0  0  0  0  0  0  0  0  0
    9.8301  -17.8531   21.8967 C   0  0  2  0  0  0  0  0  0  0  0  0
   10.1117  -19.2986   22.1642 C   0  0  0  0  0  0  0  0  0  0  0  0
    9.4405  -17.0759   23.1270 C   0  0  2  0  0  0  0  0  0  0  0  0
    9.0778  -15.7202   22.8603 N   0  0  0  0  0  0  0  0  0  0  0  0
   10.4897  -17.1651   24.2064 C   0  0  0  0  0  0  0  0  0  0  0  0
   11.5787  -16.5501   24.0978 O   0  0  0  0  0  0  0  0  0  0  0  0
   13.7880  -17.9598   31.1626 N   0  0  0  0  0  0  0  0  0  0  0  0
   12.6245  -18.6594   31.5532 C   0  0  0  0  0  0  0  0  0  0  0  0
   12.7185  -19.7016   32.3076 N   0  0  0  0  0  0  0  0  0  0  0  0
   11.3153  -18.2665   31.1484 N   0  0  0  0  0  0  0  0  0  0  0  0
   11.1981  -17.2959   30.0874 C   0  0  0  0  0  0  0  0  0  0  0  0
   11.8199  -17.8709   28.8300 C   0  0  0  0  0  0  0  0  0  0  0  0
   10.9011  -17.6159   27.6844 C   0  0  0  0  0  0  0  0  0  0  0  0
   11.3413  -18.1612   26.3630 C   0  0  2  0  0  0  0  0  0  0  0  0
   10.2799  -17.9417   25.3699 N   0  0  0  0  0  0  0  0  0  0  0  0
   11.6623  -19.5908   26.4884 C   0  0  0  0  0  0  0  0  0  0  0  0
   10.9030  -20.5355   26.1222 O   0  0  0  0  0  0  0  0  0  0  0  0
   12.8711  -19.9757   27.0381 O   0  0  0  0  0  0  0  0  0  0  0  0
  2  1  1  1
  2  3  1  0
  4  5  1  0
  4  2  1  0
  5  6  1  6
  7  5  1  0
  7  8  2  0
 10 11  1  1
 10  9  1  0
 10 12  1  0
 12 13  1  6
 13  7  1  0
 14 15  2  0
 14 12  1  0
 16 17  1  0
 17 18  2  0
 19 17  1  0
 19 20  1  0
 21 20  1  0
 21 22  1  0
 23 22  1  1
 23 24  1  0
 23 25  1  0
 24 14  1  0
 25 27  1  0
 26 25  2  0
M  END
$$$$
