LVR.pdb
     RDKit          3D

 27 26  0  0  1  0  0  0  0  0999 V2000
    5.6822  -12.6409   25.6899 C   0  0  0  0  0  0  0  0  0  0  0  0
    6.8288  -13.4851   26.2046 C   0  0  1  0  0  0  0  0  0  0  0  0
    7.4105  -12.8168   27.4380 C   0  0  0  0  0  0  0  0  0  0  0  0
    6.3677  -14.8623   26.6194 C   0  0  0  0  0  0  0  0  0  0  0  0
    5.8979  -15.5825   25.3720 C   0  0  2  0  0  0  0  0  0  0  0  0
    5.3979  -16.8728   25.8027 N   0  0  0  0  0  0  0  0  0  0  0  0
    6.9906  -15.8043   24.4118 C   0  0  0  0  0  0  0  0  0  0  0  0
    7.7633  -16.7852   24.5374 O   0  0  0  0  0  0  0  0  0  0  0  0
    6.8265  -14.3653   20.5199 C   0  0  0  0  0  0  0  0  0  0  0  0
    8.2165  -14.3585   21.1225 C   0  0  2  0  0  0  0  0  0  0  0  0
    9.1793  -14.7612   20.0495 C   0  0  0  0  0  0  0  0  0  0  0  0
    8.2548  -15.2520   22.3347 C   0  0  2  0  0  0  0  0  0  0  0  0
    7.2479  -14.9522   23.3025 N   0  0  0  0  0  0  0  0  0  0  0  0
    9.6263  -15.2963   22.9598 C   0  0  0  0  0  0  0  0  0  0  0  0
   10.1779  -14.2484   23.3763 O   0  0  0  0  0  0  0  0  0  0  0  0
   10.5738  -14.2332   28.3090 N   0  0  0  0  0  0  0  0  0  0  0  0
   11.1021  -15.4303   28.8417 C   0  0  0  0  0  0  0  0  0  0  0  0
   11.8451  -15.3970   29.8958 N   0  0  0  0  0  0  0  0  0  0  0  0
   10.8527  -16.7089   28.2628 N   0  0  0  0  0  0  0  0  0  0  0  0
   11.7695  -17.1862   27.2563 C   0  0  0  0  0  0  0  0  0  0  0  0
   11.5854  -16.3603   25.9984 C   0  0  0  0  0  0  0  0  0  0  0  0
   11.8764  -17.2208   24.8166 C   0  0  0  0  0  0  0  0  0  0  0  0
   11.7485  -16.5582   23.4817 C   0  0  2  0  0  0  0  0  0  0  0  0
   10.3309  -16.5154   23.0953 N   0  0  0  0  0  0  0  0  0  0  0  0
   12.5490  -17.2798   22.4811 C   0  0  0  0  0  0  0  0  0  0  0  0
   12.1933  -18.3521   21.9095 O   0  0  0  0  0  0  0  0  0  0  0  0
   13.7846  -16.7852   22.1063 O   0  0  0  0  0  0  0  0  0  0  0  0
  2  1  1  1
  2  3  1  0
  4  5  1  0
  4  2  1  0
  5  6  1  1
  7  5  1  0
  7  8  2  0
 10 11  1  6
 10  9  1  0
 10 12  1  0
 12 13  1  1
 13  7  1  0
 14 15  2  0
 14 12  1  0
 16 17  1  0
 17 18  2  0
 19 17  1  0
 19 20  1  0
 21 20  1  0
 21 22  1  0
 23 22  1  1
 23 24  1  0
 23 25  1  0
 24 14  1  0
 25 27  1  0
 26 25  2  0
M  END
$$$$
