LVR.pdb
     RDKit          3D

 27 26  0  0  1  0  0  0  0  0999 V2000
    7.7946  -16.6137   18.6023 C   0  0  0  0  0  0  0  0  0  0  0  0
    6.9495  -16.7186   19.8543 C   0  0  1  0  0  0  0  0  0  0  0  0
    6.4383  -18.1432   19.9790 C   0  0  0  0  0  0  0  0  0  0  0  0
    7.7533  -16.4229   21.0984 C   0  0  0  0  0  0  0  0  0  0  0  0
    7.6512  -14.9351   21.3660 C   0  0  2  0  0  0  0  0  0  0  0  0
    8.5534  -14.2847   20.4368 N   0  0  0  0  0  0  0  0  0  0  0  0
    8.0624  -14.5856   22.7349 C   0  0  0  0  0  0  0  0  0  0  0  0
    9.2719  -14.3957   23.0107 O   0  0  0  0  0  0  0  0  0  0  0  0
    6.3746  -12.0319   25.3394 C   0  0  0  0  0  0  0  0  0  0  0  0
    6.6062  -13.3891   25.9714 C   0  0  2  0  0  0  0  0  0  0  0  0
    7.0467  -13.1637   27.3841 C   0  0  0  0  0  0  0  0  0  0  0  0
    7.5931  -14.1764   25.1494 C   0  0  2  0  0  0  0  0  0  0  0  0
    7.1509  -14.4403   23.8170 N   0  0  0  0  0  0  0  0  0  0  0  0
    8.0279  -15.4401   25.8478 C   0  0  0  0  0  0  0  0  0  0  0  0
    7.1939  -16.3289   26.1483 O   0  0  0  0  0  0  0  0  0  0  0  0
   13.8251  -17.8978   22.0069 N   0  0  0  0  0  0  0  0  0  0  0  0
   12.5449  -18.3888   21.6666 C   0  0  0  0  0  0  0  0  0  0  0  0
   12.2432  -18.6084   20.4318 N   0  0  0  0  0  0  0  0  0  0  0  0
   11.5397  -18.6628   22.6396 N   0  0  0  0  0  0  0  0  0  0  0  0
   11.8406  -18.3785   24.0216 C   0  0  0  0  0  0  0  0  0  0  0  0
   10.6006  -17.8102   24.6834 C   0  0  0  0  0  0  0  0  0  0  0  0
   10.9074  -17.5387   26.1166 C   0  0  0  0  0  0  0  0  0  0  0  0
    9.8225  -16.8694   26.8990 C   0  0  2  0  0  0  0  0  0  0  0  0
    9.3837  -15.6619   26.1847 N   0  0  0  0  0  0  0  0  0  0  0  0
   10.3029  -16.5410   28.2496 C   0  0  0  0  0  0  0  0  0  0  0  0
   10.5583  -15.3708   28.6597 O   0  0  0  0  0  0  0  0  0  0  0  0
   10.5014  -17.5529   29.1707 O   0  0  0  0  0  0  0  0  0  0  0  0
  2  1  1  6
  2  3  1  0
  4  5  1  0
  4  2  1  0
  5  6  1  6
  7  5  1  0
  7  8  2  0
 10 11  1  1
 10  9  1  0
 10 12  1  0
 12 13  1  6
 13  7  1  0
 14 15  2  0
 14 12  1  0
 16 17  1  0
 17 18  2  0
 19 17  1  0
 19 20  1  0
 21 20  1  0
 21 22  1  0
 23 22  1  6
 23 24  1  0
 23 25  1  0
 24 14  1  0
 25 27  1  0
 26 25  2  0
M  END
$$$$
