TWV.pdb
     RDKit          3D

 29 30  0  0  1  0  0  0  0  0999 V2000
   17.1389  -26.0790   -4.5698 C   0  0  0  0  0  0  0  0  0  0  0  0
   16.4710  -24.7833   -4.9603 C   0  0  1  0  0  0  0  0  0  0  0  0
   16.6378  -24.6536   -6.3588 O   0  0  0  0  0  0  0  0  0  0  0  0
   14.9681  -24.8041   -4.7081 C   0  0  2  0  0  0  0  0  0  0  0  0
   14.5073  -23.4927   -5.2228 N   0  0  0  0  0  0  0  0  0  0  0  0
   14.6897  -24.8850   -3.2566 C   0  0  0  0  0  0  0  0  0  0  0  0
   14.4216  -23.8396   -2.5820 O   0  0  0  0  0  0  0  0  0  0  0  0
   14.6987  -26.0859   -2.5371 N   0  0  0  0  0  0  0  0  0  0  0  0
   14.3067  -26.1780   -1.1366 C   0  0  1  0  0  0  0  0  0  0  0  0
   13.9478  -27.6272   -0.8778 C   0  0  0  0  0  0  0  0  0  0  0  0
   12.5696  -27.8244   -1.4090 C   0  0  0  0  0  0  0  0  0  0  0  0
   11.5095  -26.9457   -1.3866 C   0  0  0  0  0  0  0  0  0  0  0  0
   10.4557  -27.5201   -1.9697 N   0  0  0  0  0  0  0  0  0  0  0  0
   10.7585  -28.7616   -2.3900 C   0  0  0  0  0  0  0  0  0  0  0  0
   10.0929  -29.7847   -3.0341 C   0  0  0  0  0  0  0  0  0  0  0  0
   10.6966  -30.9871   -3.3403 C   0  0  0  0  0  0  0  0  0  0  0  0
   12.0075  -31.1711   -2.9908 C   0  0  0  0  0  0  0  0  0  0  0  0
   12.7002  -30.1664   -2.3455 C   0  0  0  0  0  0  0  0  0  0  0  0
   12.0791  -28.9662   -2.0459 C   0  0  0  0  0  0  0  0  0  0  0  0
   15.3330  -25.6675   -0.2288 C   0  0  0  0  0  0  0  0  0  0  0  0
   16.5282  -26.0201   -0.3914 O   0  0  0  0  0  0  0  0  0  0  0  0
   15.7888  -22.0088    0.7092 C   0  0  0  0  0  0  0  0  0  0  0  0
   15.4961  -22.7908    1.9926 C   0  0  1  0  0  0  0  0  0  0  0  0
   14.0596  -22.7096    2.3899 C   0  0  0  0  0  0  0  0  0  0  0  0
   15.9514  -24.2333    1.7517 C   0  0  2  0  0  0  0  0  0  0  0  0
   15.0027  -24.7950    0.8140 N   0  0  0  0  0  0  0  0  0  0  0  0
   15.8421  -24.9245    3.0605 C   0  0  0  0  0  0  0  0  0  0  0  0
   16.7098  -24.7152    3.9386 O   0  0  0  0  0  0  0  0  0  0  0  0
   14.8089  -25.7994    3.3510 O   0  0  0  0  0  0  0  0  0  0  0  0
  2  1  1  6
  2  3  1  0
  4  2  1  0
  4  5  1  1
  6  4  1  0
  6  7  2  0
  8  6  1  0
  9  8  1  0
  9 10  1  1
 11 10  1  0
 11 19  1  0
 12 13  1  0
 12 11  2  0
 13 14  1  0
 14 19  2  0
 14 15  1  0
 15 16  2  0
 16 17  1  0
 18 17  2  0
 19 18  1  0
 20  9  1  0
 21 20  2  0
 23 22  1  6
 23 24  1  0
 23 25  1  0
 25 27  1  0
 25 26  1  6
 26 20  1  0
 27 29  1  0
 28 27  2  0
M  END
$$$$
