TWV.pdb
     RDKit          3D

 29 30  0  0  1  0  0  0  0  0999 V2000
   28.8740  -18.4022  -15.1850 C   0  0  0  0  0  0  0  0  0  0  0  0
   27.8282  -19.0782  -14.3324 C   0  0  1  0  0  0  0  0  0  0  0  0
   26.9622  -19.7538  -15.2234 O   0  0  0  0  0  0  0  0  0  0  0  0
   28.4217  -20.1449  -13.4199 C   0  0  2  0  0  0  0  0  0  0  0  0
   28.8706  -21.2003  -14.3589 N   0  0  0  0  0  0  0  0  0  0  0  0
   27.3793  -20.6970  -12.5257 C   0  0  0  0  0  0  0  0  0  0  0  0
   26.8096  -21.8041  -12.7894 O   0  0  0  0  0  0  0  0  0  0  0  0
   26.9548  -20.0600  -11.3535 N   0  0  0  0  0  0  0  0  0  0  0  0
   25.8583  -20.5544  -10.5310 C   0  0  1  0  0  0  0  0  0  0  0  0
   26.0196  -19.9235   -9.1628 C   0  0  0  0  0  0  0  0  0  0  0  0
   27.2446  -20.5219   -8.5613 C   0  0  0  0  0  0  0  0  0  0  0  0
   28.1273  -21.4150   -9.1265 C   0  0  0  0  0  0  0  0  0  0  0  0
   29.0881  -21.6948   -8.2441 N   0  0  0  0  0  0  0  0  0  0  0  0
   28.8931  -21.0237   -7.0946 C   0  0  0  0  0  0  0  0  0  0  0  0
   29.5379  -20.9232   -5.8786 C   0  0  0  0  0  0  0  0  0  0  0  0
   29.0757  -20.1197   -4.8565 C   0  0  0  0  0  0  0  0  0  0  0  0
   27.9323  -19.3942   -5.0580 C   0  0  0  0  0  0  0  0  0  0  0  0
   27.2645  -19.4736   -6.2635 C   0  0  0  0  0  0  0  0  0  0  0  0
   27.7422  -20.2849   -7.2784 C   0  0  0  0  0  0  0  0  0  0  0  0
   24.5476  -20.3056  -11.1295 C   0  0  0  0  0  0  0  0  0  0  0  0
   24.1517  -19.1215  -11.2726 O   0  0  0  0  0  0  0  0  0  0  0  0
   21.1128  -22.3858  -13.9706 C   0  0  0  0  0  0  0  0  0  0  0  0
   22.3992  -22.5029  -13.1487 C   0  0  1  0  0  0  0  0  0  0  0  0
   23.5982  -22.7428  -14.0047 C   0  0  0  0  0  0  0  0  0  0  0  0
   22.5221  -21.2180  -12.3239 C   0  0  2  0  0  0  0  0  0  0  0  0
   23.7320  -21.3646  -11.5432 N   0  0  0  0  0  0  0  0  0  0  0  0
   21.3396  -21.1884  -11.4275 C   0  0  0  0  0  0  0  0  0  0  0  0
   21.3445  -21.8796  -10.3834 O   0  0  0  0  0  0  0  0  0  0  0  0
   20.2213  -20.4197  -11.7032 O   0  0  0  0  0  0  0  0  0  0  0  0
  2  1  1  6
  2  3  1  0
  4  2  1  0
  4  5  1  6
  6  4  1  0
  6  7  2  0
  8  6  1  0
  9  8  1  0
  9 10  1  1
 11 10  1  0
 11 19  1  0
 12 13  1  0
 12 11  2  0
 13 14  1  0
 14 19  2  0
 14 15  1  0
 15 16  2  0
 16 17  1  0
 18 17  2  0
 19 18  1  0
 20  9  1  0
 21 20  2  0
 23 22  1  6
 23 24  1  0
 23 25  1  0
 25 27  1  0
 25 26  1  1
 26 20  1  0
 27 29  1  0
 28 27  2  0
M  END
$$$$
