TWV.pdb
     RDKit          3D

 29 30  0  0  1  0  0  0  0  0999 V2000
   27.7847  -24.7229  -16.8233 C   0  0  0  0  0  0  0  0  0  0  0  0
   28.7796  -23.6075  -16.6145 C   0  0  1  0  0  0  0  0  0  0  0  0
   29.5642  -23.5469  -17.7897 O   0  0  0  0  0  0  0  0  0  0  0  0
   28.1077  -22.2464  -16.4771 C   0  0  2  0  0  0  0  0  0  0  0  0
   29.2454  -21.3000  -16.3925 N   0  0  0  0  0  0  0  0  0  0  0  0
   27.3240  -22.1823  -15.2231 C   0  0  0  0  0  0  0  0  0  0  0  0
   26.2048  -22.7792  -15.1191 O   0  0  0  0  0  0  0  0  0  0  0  0
   27.7451  -21.4800  -14.0875 N   0  0  0  0  0  0  0  0  0  0  0  0
   26.9442  -21.3734  -12.8748 C   0  0  1  0  0  0  0  0  0  0  0  0
   27.8383  -20.7660  -11.8129 C   0  0  0  0  0  0  0  0  0  0  0  0
   27.0133  -20.6540  -10.5770 C   0  0  0  0  0  0  0  0  0  0  0  0
   25.6415  -20.6131  -10.4641 C   0  0  0  0  0  0  0  0  0  0  0  0
   25.3139  -20.5085   -9.1749 N   0  0  0  0  0  0  0  0  0  0  0  0
   26.4145  -20.4764   -8.4020 C   0  0  0  0  0  0  0  0  0  0  0  0
   26.6801  -20.3811   -7.0511 C   0  0  0  0  0  0  0  0  0  0  0  0
   27.9636  -20.3734   -6.5447 C   0  0  0  0  0  0  0  0  0  0  0  0
   29.0141  -20.4640   -7.4181 C   0  0  0  0  0  0  0  0  0  0  0  0
   28.7808  -20.5604   -8.7752 C   0  0  0  0  0  0  0  0  0  0  0  0
   27.4865  -20.5667   -9.2662 C   0  0  0  0  0  0  0  0  0  0  0  0
   25.7047  -20.6256  -13.0814 C   0  0  0  0  0  0  0  0  0  0  0  0
   25.7637  -19.3979  -13.3430 O   0  0  0  0  0  0  0  0  0  0  0  0
   21.1825  -20.8926  -14.6977 C   0  0  0  0  0  0  0  0  0  0  0  0
   22.5823  -21.4553  -14.4365 C   0  0  1  0  0  0  0  0  0  0  0  0
   23.4337  -21.4464  -15.6624 C   0  0  0  0  0  0  0  0  0  0  0  0
   23.1920  -20.6292  -13.2998 C   0  0  2  0  0  0  0  0  0  0  0  0
   24.4593  -21.2570  -12.9920 N   0  0  0  0  0  0  0  0  0  0  0  0
   22.2652  -20.7644  -12.1485 C   0  0  0  0  0  0  0  0  0  0  0  0
   22.1661  -21.8693  -11.5678 O   0  0  0  0  0  0  0  0  0  0  0  0
   21.4991  -19.7070  -11.6875 O   0  0  0  0  0  0  0  0  0  0  0  0
  2  1  1  6
  2  3  1  0
  4  2  1  0
  4  5  1  1
  6  4  1  0
  6  7  2  0
  8  6  1  0
  9  8  1  0
  9 10  1  1
 11 10  1  0
 11 19  1  0
 12 13  1  0
 12 11  2  0
 13 14  1  0
 14 19  2  0
 14 15  1  0
 15 16  2  0
 16 17  1  0
 18 17  2  0
 19 18  1  0
 20  9  1  0
 21 20  2  0
 23 22  1  6
 23 24  1  0
 23 25  1  0
 25 27  1  0
 25 26  1  1
 26 20  1  0
 27 29  1  0
 28 27  2  0
M  END
$$$$
