TWV.pdb
     RDKit          3D

 29 30  0  0  1  0  0  0  0  0999 V2000
   28.7373  -19.0764  -16.0304 C   0  0  0  0  0  0  0  0  0  0  0  0
   27.8621  -19.5345  -14.8896 C   0  0  1  0  0  0  0  0  0  0  0  0
   26.5762  -19.7543  -15.4360 O   0  0  0  0  0  0  0  0  0  0  0  0
   28.3146  -20.8688  -14.3083 C   0  0  2  0  0  0  0  0  0  0  0  0
   27.9753  -21.8471  -15.3689 N   0  0  0  0  0  0  0  0  0  0  0  0
   27.5440  -21.1866  -13.0852 C   0  0  0  0  0  0  0  0  0  0  0  0
   26.4661  -21.8605  -13.1469 O   0  0  0  0  0  0  0  0  0  0  0  0
   27.9340  -20.7816  -11.8031 N   0  0  0  0  0  0  0  0  0  0  0  0
   27.1024  -20.9696  -10.6213 C   0  0  1  0  0  0  0  0  0  0  0  0
   27.9739  -20.6619   -9.4205 C   0  0  0  0  0  0  0  0  0  0  0  0
   27.0681  -20.6224   -8.2379 C   0  0  0  0  0  0  0  0  0  0  0  0
   25.7597  -21.0419   -8.1471 C   0  0  0  0  0  0  0  0  0  0  0  0
   25.3186  -20.8265   -6.9064 N   0  0  0  0  0  0  0  0  0  0  0  0
   26.2804  -20.2739   -6.1453 C   0  0  0  0  0  0  0  0  0  0  0  0
   26.3939  -19.8492   -4.8371 C   0  0  0  0  0  0  0  0  0  0  0  0
   27.5557  -19.3036   -4.3309 C   0  0  0  0  0  0  0  0  0  0  0  0
   28.6379  -19.1792   -5.1603 C   0  0  0  0  0  0  0  0  0  0  0  0
   28.5556  -19.5948   -6.4741 C   0  0  0  0  0  0  0  0  0  0  0  0
   27.3820  -20.1401   -6.9656 C   0  0  0  0  0  0  0  0  0  0  0  0
   25.8759  -20.1745  -10.6622 C   0  0  0  0  0  0  0  0  0  0  0  0
   25.9521  -18.9224  -10.5870 O   0  0  0  0  0  0  0  0  0  0  0  0
   24.3381  -19.1688  -13.1039 C   0  0  0  0  0  0  0  0  0  0  0  0
   23.2155  -20.0509  -12.5509 C   0  0  1  0  0  0  0  0  0  0  0  0
   23.2207  -21.4170  -13.1523 C   0  0  0  0  0  0  0  0  0  0  0  0
   23.3821  -20.0857  -11.0287 C   0  0  2  0  0  0  0  0  0  0  0  0
   24.6240  -20.7875  -10.7837 N   0  0  0  0  0  0  0  0  0  0  0  0
   22.2400  -20.8770  -10.5067 C   0  0  0  0  0  0  0  0  0  0  0  0
   22.4224  -22.0701  -10.1733 O   0  0  0  0  0  0  0  0  0  0  0  0
   20.9696  -20.3427  -10.3729 O   0  0  0  0  0  0  0  0  0  0  0  0
  2  1  1  6
  2  3  1  0
  4  2  1  0
  4  5  1  6
  6  4  1  0
  6  7  2  0
  8  6  1  0
  9  8  1  0
  9 10  1  1
 11 10  1  0
 11 19  1  0
 12 13  1  0
 12 11  2  0
 13 14  1  0
 14 19  2  0
 14 15  1  0
 15 16  2  0
 16 17  1  0
 18 17  2  0
 19 18  1  0
 20  9  1  0
 21 20  2  0
 23 22  1  6
 23 24  1  0
 23 25  1  0
 25 27  1  0
 25 26  1  6
 26 20  1  0
 27 29  1  0
 28 27  2  0
M  END
$$$$
