TWV.pdb
     RDKit          3D

 29 30  0  0  1  0  0  0  0  0999 V2000
   25.2318  -18.0790  -17.4194 C   0  0  0  0  0  0  0  0  0  0  0  0
   26.0193  -19.1645  -18.1115 C   0  0  1  0  0  0  0  0  0  0  0  0
   26.3504  -18.6632  -19.3919 O   0  0  0  0  0  0  0  0  0  0  0  0
   27.3408  -19.4606  -17.4123 C   0  0  2  0  0  0  0  0  0  0  0  0
   27.9729  -20.4863  -18.2758 N   0  0  0  0  0  0  0  0  0  0  0  0
   27.0969  -20.0343  -16.0698 C   0  0  0  0  0  0  0  0  0  0  0  0
   26.3048  -21.0179  -15.9121 O   0  0  0  0  0  0  0  0  0  0  0  0
   27.7047  -19.5515  -14.9047 N   0  0  0  0  0  0  0  0  0  0  0  0
   27.3669  -20.0341  -13.5718 C   0  0  1  0  0  0  0  0  0  0  0  0
   28.4844  -19.5894  -12.6501 C   0  0  0  0  0  0  0  0  0  0  0  0
   28.3361  -20.3761  -11.3933 C   0  0  0  0  0  0  0  0  0  0  0  0
   28.7463  -21.6655  -11.1368 C   0  0  0  0  0  0  0  0  0  0  0  0
   28.4172  -21.9857   -9.8840 N   0  0  0  0  0  0  0  0  0  0  0  0
   27.7959  -20.9598   -9.2747 C   0  0  0  0  0  0  0  0  0  0  0  0
   27.2518  -20.7237   -8.0286 C   0  0  0  0  0  0  0  0  0  0  0  0
   26.6610  -19.5234   -7.6908 C   0  0  0  0  0  0  0  0  0  0  0  0
   26.6133  -18.5283   -8.6300 C   0  0  0  0  0  0  0  0  0  0  0  0
   27.1488  -18.7341   -9.8856 C   0  0  0  0  0  0  0  0  0  0  0  0
   27.7379  -19.9446  -10.2076 C   0  0  0  0  0  0  0  0  0  0  0  0
   26.0450  -19.5919  -13.1300 C   0  0  0  0  0  0  0  0  0  0  0  0
   25.7377  -18.3775  -13.2299 O   0  0  0  0  0  0  0  0  0  0  0  0
   22.9830  -19.7104  -14.2738 C   0  0  0  0  0  0  0  0  0  0  0  0
   22.7833  -20.5655  -13.0195 C   0  0  1  0  0  0  0  0  0  0  0  0
   22.8406  -22.0273  -13.3159 C   0  0  0  0  0  0  0  0  0  0  0  0
   23.8517  -20.1353  -12.0096 C   0  0  2  0  0  0  0  0  0  0  0  0
   25.1219  -20.5000  -12.5998 N   0  0  0  0  0  0  0  0  0  0  0  0
   23.6104  -20.9399  -10.7860 C   0  0  0  0  0  0  0  0  0  0  0  0
   24.3585  -21.9119  -10.5341 O   0  0  0  0  0  0  0  0  0  0  0  0
   22.5814  -20.6551   -9.9043 O   0  0  0  0  0  0  0  0  0  0  0  0
  2  1  1  1
  2  3  1  0
  4  2  1  0
  4  5  1  6
  6  4  1  0
  6  7  2  0
  8  6  1  0
  9  8  1  0
  9 10  1  1
 11 10  1  0
 11 19  1  0
 12 13  1  0
 12 11  2  0
 13 14  1  0
 14 19  2  0
 14 15  1  0
 15 16  2  0
 16 17  1  0
 18 17  2  0
 19 18  1  0
 20  9  1  0
 21 20  2  0
 23 22  1  6
 23 24  1  0
 23 25  1  0
 25 27  1  0
 25 26  1  6
 26 20  1  0
 27 29  1  0
 28 27  2  0
M  END
$$$$
