TWV.pdb
     RDKit          3D

 29 30  0  0  1  0  0  0  0  0999 V2000
   28.7576  -20.3325  -17.1882 C   0  0  0  0  0  0  0  0  0  0  0  0
   27.8268  -20.5327  -16.0173 C   0  0  1  0  0  0  0  0  0  0  0  0
   26.5741  -20.9003  -16.5611 O   0  0  0  0  0  0  0  0  0  0  0  0
   28.2598  -21.6863  -15.1202 C   0  0  2  0  0  0  0  0  0  0  0  0
   27.9780  -22.8910  -15.9366 N   0  0  0  0  0  0  0  0  0  0  0  0
   27.4339  -21.7232  -13.8925 C   0  0  0  0  0  0  0  0  0  0  0  0
   26.3079  -22.3162  -13.8784 O   0  0  0  0  0  0  0  0  0  0  0  0
   27.8203  -21.1257  -12.6869 N   0  0  0  0  0  0  0  0  0  0  0  0
   26.9481  -21.0461  -11.5222 C   0  0  1  0  0  0  0  0  0  0  0  0
   27.7634  -20.4221  -10.4078 C   0  0  0  0  0  0  0  0  0  0  0  0
   26.8992  -20.4304   -9.1939 C   0  0  0  0  0  0  0  0  0  0  0  0
   25.5383  -20.6250   -9.1131 C   0  0  0  0  0  0  0  0  0  0  0  0
   25.1637  -20.5538   -7.8345 N   0  0  0  0  0  0  0  0  0  0  0  0
   26.2215  -20.3171   -7.0378 C   0  0  0  0  0  0  0  0  0  0  0  0
   26.4309  -20.1512   -5.6838 C   0  0  0  0  0  0  0  0  0  0  0  0
   27.6801  -19.9121   -5.1489 C   0  0  0  0  0  0  0  0  0  0  0  0
   28.7532  -19.8366   -5.9958 C   0  0  0  0  0  0  0  0  0  0  0  0
   28.5759  -19.9981   -7.3552 C   0  0  0  0  0  0  0  0  0  0  0  0
   27.3155  -20.2374   -7.8751 C   0  0  0  0  0  0  0  0  0  0  0  0
   25.7040  -20.3288  -11.7972 C   0  0  0  0  0  0  0  0  0  0  0  0
   25.7367  -19.0844  -11.9694 O   0  0  0  0  0  0  0  0  0  0  0  0
   22.9620  -22.4094  -13.6212 C   0  0  0  0  0  0  0  0  0  0  0  0
   22.9075  -20.8795  -13.6464 C   0  0  1  0  0  0  0  0  0  0  0  0
   21.5961  -20.3678  -14.1428 C   0  0  0  0  0  0  0  0  0  0  0  0
   23.2195  -20.3969  -12.2266 C   0  0  2  0  0  0  0  0  0  0  0  0
   24.4826  -21.0075  -11.8710 N   0  0  0  0  0  0  0  0  0  0  0  0
   22.1367  -20.9295  -11.3625 C   0  0  0  0  0  0  0  0  0  0  0  0
   22.2463  -22.0805  -10.8817 O   0  0  0  0  0  0  0  0  0  0  0  0
   21.0000  -20.1970  -11.0648 O   0  0  0  0  0  0  0  0  0  0  0  0
  2  1  1  6
  2  3  1  0
  4  2  1  0
  4  5  1  6
  6  4  1  0
  6  7  2  0
  8  6  1  0
  9  8  1  0
  9 10  1  1
 11 10  1  0
 11 19  1  0
 12 13  1  0
 12 11  2  0
 13 14  1  0
 14 19  2  0
 14 15  1  0
 15 16  2  0
 16 17  1  0
 18 17  2  0
 19 18  1  0
 20  9  1  0
 21 20  2  0
 23 22  1  1
 23 24  1  0
 23 25  1  0
 25 27  1  0
 25 26  1  1
 26 20  1  0
 27 29  1  0
 28 27  2  0
M  END
$$$$
