PWK.pdb
     RDKit          3D

 31 33  0  0  1  0  0  0  0  0999 V2000
    6.9214  -15.2921   20.9893 N   0  0  0  0  0  0  0  0  0  0  0  0
    6.0801  -14.7029   19.9374 C   0  0  0  0  0  0  0  0  0  0  0  0
    6.6523  -13.3147   19.7111 C   0  0  0  0  0  0  0  0  0  0  0  0
    7.9018  -13.2582   20.5986 C   0  0  0  0  0  0  0  0  0  0  0  0
    8.2202  -14.7249   20.7620 C   0  0  1  0  0  0  0  0  0  0  0  0
    9.1376  -14.9986   21.8712 C   0  0  0  0  0  0  0  0  0  0  0  0
   10.3012  -14.5641   21.8368 O   0  0  0  0  0  0  0  0  0  0  0  0
    8.6908  -15.7565   22.9757 N   0  0  0  0  0  0  0  0  0  0  0  0
    9.5499  -15.9926   24.0962 C   0  0  1  0  0  0  0  0  0  0  0  0
    8.7565  -16.2205   25.3378 C   0  0  0  0  0  0  0  0  0  0  0  0
    7.6910  -15.2044   25.5182 C   0  0  0  0  0  0  0  0  0  0  0  0
    6.3388  -15.3697   25.2591 C   0  0  0  0  0  0  0  0  0  0  0  0
    5.6790  -14.2242   25.5467 N   0  0  0  0  0  0  0  0  0  0  0  0
    6.5687  -13.3197   25.9858 C   0  0  0  0  0  0  0  0  0  0  0  0
    6.3703  -12.0169   26.3960 C   0  0  0  0  0  0  0  0  0  0  0  0
    7.4588  -11.2725   26.8109 C   0  0  0  0  0  0  0  0  0  0  0  0
    8.7167  -11.8513   26.8043 C   0  0  0  0  0  0  0  0  0  0  0  0
    8.8902  -13.1538   26.3905 C   0  0  0  0  0  0  0  0  0  0  0  0
    7.8129  -13.8991   25.9771 C   0  0  0  0  0  0  0  0  0  0  0  0
   10.5403  -17.0789   23.8704 C   0  0  0  0  0  0  0  0  0  0  0  0
   10.1291  -18.2117   23.5450 O   0  0  0  0  0  0  0  0  0  0  0  0
   11.9086  -16.8033   24.0289 N   0  0  0  0  0  0  0  0  0  0  0  0
   12.8343  -17.9652   23.7306 C   0  0  1  0  0  0  0  0  0  0  0  0
   14.0387  -17.3500   23.1020 C   0  0  0  0  0  0  0  0  0  0  0  0
   15.2138  -18.1181   22.7489 C   0  0  0  0  0  0  0  0  0  0  0  0
   16.4095  -17.4936   22.1229 C   0  0  0  0  0  0  0  0  0  0  0  0
   17.4642  -18.6066   21.8517 C   0  0  0  0  0  0  0  0  0  0  0  0
   18.5220  -18.0979   21.0092 N   0  0  0  0  0  0  0  0  0  0  0  0
   13.0576  -18.5124   25.0859 C   0  0  0  0  0  0  0  0  0  0  0  0
   12.7746  -17.9007   26.2497 O   0  0  0  0  0  0  0  0  0  0  0  0
   13.5764  -19.6843   25.1876 O   0  0  0  0  0  0  0  0  0  0  0  0
  1  2  1  0
  2  3  1  0
  4  3  1  0
  5  1  1  0
  5  4  1  0
  5  6  1  1
  7  6  2  0
  8  6  1  0
  9  8  1  0
  9 10  1  1
 10 11  1  0
 11 19  1  0
 12 11  2  0
 12 13  1  0
 13 14  1  0
 14 15  1  0
 15 16  2  0
 17 16  1  0
 18 17  2  0
 19 14  2  0
 19 18  1  0
 20  9  1  0
 21 20  2  0
 22 20  1  0
 23 22  1  0
 24 25  1  0
 23 24  1  1
 26 27  1  0
 26 25  1  0
 28 27  1  0
 29 23  1  0
 29 30  1  0
 31 29  2  0
M  END
$$$$
