PWK.pdb
     RDKit          3D

 31 33  0  0  1  0  0  0  0  0999 V2000
    7.9727  -15.4167   18.4215 N   0  0  0  0  0  0  0  0  0  0  0  0
    7.6244  -14.8464   17.1120 C   0  0  0  0  0  0  0  0  0  0  0  0
    7.6265  -13.3432   17.3273 C   0  0  0  0  0  0  0  0  0  0  0  0
    8.1147  -13.1563   18.7691 C   0  0  0  0  0  0  0  0  0  0  0  0
    8.8584  -14.4491   19.0040 C   0  0  1  0  0  0  0  0  0  0  0  0
    9.1109  -14.7229   20.4211 C   0  0  0  0  0  0  0  0  0  0  0  0
   10.2608  -14.6146   20.8796 O   0  0  0  0  0  0  0  0  0  0  0  0
    8.0417  -15.1090   21.2587 N   0  0  0  0  0  0  0  0  0  0  0  0
    8.2090  -15.1650   22.6794 C   0  0  1  0  0  0  0  0  0  0  0  0
    6.9034  -14.9876   23.3774 C   0  0  0  0  0  0  0  0  0  0  0  0
    7.0676  -14.8198   24.8421 C   0  0  0  0  0  0  0  0  0  0  0  0
    6.9798  -15.8156   25.8030 C   0  0  0  0  0  0  0  0  0  0  0  0
    7.1892  -15.2824   27.0286 N   0  0  0  0  0  0  0  0  0  0  0  0
    7.4107  -13.9657   26.8873 C   0  0  0  0  0  0  0  0  0  0  0  0
    7.6709  -13.0087   27.8472 C   0  0  0  0  0  0  0  0  0  0  0  0
    7.8672  -11.6990   27.4508 C   0  0  0  0  0  0  0  0  0  0  0  0
    7.7979  -11.3815   26.1048 C   0  0  0  0  0  0  0  0  0  0  0  0
    7.5368  -12.3541   25.1646 C   0  0  0  0  0  0  0  0  0  0  0  0
    7.3408  -13.6575   25.5517 C   0  0  0  0  0  0  0  0  0  0  0  0
    8.9215  -16.3831   23.1488 C   0  0  0  0  0  0  0  0  0  0  0  0
    8.5454  -17.4990   22.7345 O   0  0  0  0  0  0  0  0  0  0  0  0
    9.9957  -16.2472   24.0438 N   0  0  0  0  0  0  0  0  0  0  0  0
   10.7465  -17.5291   24.3420 C   0  0  1  0  0  0  0  0  0  0  0  0
   12.1196  -17.3086   23.8035 C   0  0  0  0  0  0  0  0  0  0  0  0
   13.1302  -18.3451   23.7930 C   0  0  0  0  0  0  0  0  0  0  0  0
   13.5771  -19.0028   22.5364 C   0  0  0  0  0  0  0  0  0  0  0  0
   14.8761  -18.2989   22.0444 C   0  0  0  0  0  0  0  0  0  0  0  0
   16.0405  -18.9958   22.5403 N   0  0  0  0  0  0  0  0  0  0  0  0
   10.6630  -17.5766   25.8174 C   0  0  0  0  0  0  0  0  0  0  0  0
   10.9940  -18.6176   26.6020 O   0  0  0  0  0  0  0  0  0  0  0  0
   10.2300  -16.5343   26.4331 O   0  0  0  0  0  0  0  0  0  0  0  0
  1  2  1  0
  2  3  1  0
  4  3  1  0
  5  1  1  0
  5  4  1  0
  5  6  1  1
  7  6  2  0
  8  6  1  0
  9  8  1  0
  9 10  1  1
 10 11  1  0
 11 19  1  0
 12 11  2  0
 12 13  1  0
 13 14  1  0
 14 15  1  0
 15 16  2  0
 17 16  1  0
 18 17  2  0
 19 14  2  0
 19 18  1  0
 20  9  1  0
 21 20  2  0
 22 20  1  0
 23 22  1  0
 24 25  1  0
 23 24  1  1
 26 27  1  0
 26 25  1  0
 28 27  1  0
 29 23  1  0
 29 30  1  0
 31 29  2  0
M  END
$$$$
