PWK.pdb
     RDKit          3D

 31 33  0  0  1  0  0  0  0  0999 V2000
    7.6891  -15.0933   18.6646 N   0  0  0  0  0  0  0  0  0  0  0  0
    7.4104  -14.5635   17.3219 C   0  0  0  0  0  0  0  0  0  0  0  0
    7.7160  -13.0791   17.4163 C   0  0  0  0  0  0  0  0  0  0  0  0
    8.2855  -12.8869   18.8272 C   0  0  0  0  0  0  0  0  0  0  0  0
    8.7690  -14.2807   19.1480 C   0  0  1  0  0  0  0  0  0  0  0  0
    9.0162  -14.4938   20.5764 C   0  0  0  0  0  0  0  0  0  0  0  0
   10.0553  -14.0566   21.0992 O   0  0  0  0  0  0  0  0  0  0  0  0
    8.0681  -15.1967   21.3515 N   0  0  0  0  0  0  0  0  0  0  0  0
    8.1766  -15.2388   22.7783 C   0  0  1  0  0  0  0  0  0  0  0  0
    6.8601  -14.9630   23.4216 C   0  0  0  0  0  0  0  0  0  0  0  0
    6.9788  -14.7811   24.8890 C   0  0  0  0  0  0  0  0  0  0  0  0
    7.0719  -15.7847   25.8413 C   0  0  0  0  0  0  0  0  0  0  0  0
    7.1684  -15.2331   27.0729 N   0  0  0  0  0  0  0  0  0  0  0  0
    7.1401  -13.8969   26.9439 C   0  0  0  0  0  0  0  0  0  0  0  0
    7.2091  -12.9172   27.9135 C   0  0  0  0  0  0  0  0  0  0  0  0
    7.1593  -11.5902   27.5291 C   0  0  0  0  0  0  0  0  0  0  0  0
    7.0420  -11.2788   26.1850 C   0  0  0  0  0  0  0  0  0  0  0  0
    6.9749  -12.2743   25.2350 C   0  0  0  0  0  0  0  0  0  0  0  0
    7.0239  -13.5949   25.6101 C   0  0  0  0  0  0  0  0  0  0  0  0
    8.7875  -16.4930   23.2937 C   0  0  0  0  0  0  0  0  0  0  0  0
    8.2870  -17.5877   22.9627 O   0  0  0  0  0  0  0  0  0  0  0  0
    9.9080  -16.4139   24.1370 N   0  0  0  0  0  0  0  0  0  0  0  0
   10.6301  -17.7261   24.3668 C   0  0  1  0  0  0  0  0  0  0  0  0
   11.9294  -17.5848   23.6484 C   0  0  0  0  0  0  0  0  0  0  0  0
   12.2234  -18.2916   22.4198 C   0  0  0  0  0  0  0  0  0  0  0  0
   13.5423  -18.1849   21.7410 C   0  0  0  0  0  0  0  0  0  0  0  0
   13.4674  -18.9561   20.3902 C   0  0  0  0  0  0  0  0  0  0  0  0
   14.7426  -18.9030   19.7132 N   0  0  0  0  0  0  0  0  0  0  0  0
   10.7392  -17.7419   25.8412 C   0  0  0  0  0  0  0  0  0  0  0  0
   11.1086  -18.7873   26.6025 O   0  0  0  0  0  0  0  0  0  0  0  0
   10.4535  -16.6640   26.4809 O   0  0  0  0  0  0  0  0  0  0  0  0
  1  2  1  0
  2  3  1  0
  4  3  1  0
  5  1  1  0
  5  4  1  0
  5  6  1  1
  7  6  2  0
  8  6  1  0
  9  8  1  0
  9 10  1  1
 10 11  1  0
 11 19  1  0
 12 11  2  0
 12 13  1  0
 13 14  1  0
 14 15  1  0
 15 16  2  0
 17 16  1  0
 18 17  2  0
 19 14  2  0
 19 18  1  0
 20  9  1  0
 21 20  2  0
 22 20  1  0
 23 22  1  0
 24 25  1  0
 23 24  1  6
 26 27  1  0
 26 25  1  0
 28 27  1  0
 29 23  1  0
 29 30  1  0
 31 29  2  0
M  END
$$$$
