PWK.pdb
     RDKit          3D

 31 33  0  0  1  0  0  0  0  0999 V2000
    6.9395  -15.9561   21.1198 N   0  0  0  0  0  0  0  0  0  0  0  0
    6.0942  -15.5222   19.9979 C   0  0  0  0  0  0  0  0  0  0  0  0
    6.5160  -14.0898   19.7220 C   0  0  0  0  0  0  0  0  0  0  0  0
    7.7016  -13.8440   20.6632 C   0  0  0  0  0  0  0  0  0  0  0  0
    8.1756  -15.2536   20.9230 C   0  0  1  0  0  0  0  0  0  0  0  0
    9.0575  -15.3628   22.0881 C   0  0  0  0  0  0  0  0  0  0  0  0
   10.1425  -14.7574   22.1050 O   0  0  0  0  0  0  0  0  0  0  0  0
    8.6663  -16.1578   23.1875 N   0  0  0  0  0  0  0  0  0  0  0  0
    9.4720  -16.2191   24.3692 C   0  0  1  0  0  0  0  0  0  0  0  0
    8.6218  -16.3257   25.5894 C   0  0  0  0  0  0  0  0  0  0  0  0
    7.5919  -15.2599   25.6515 C   0  0  0  0  0  0  0  0  0  0  0  0
    6.2367  -15.4043   25.3959 C   0  0  0  0  0  0  0  0  0  0  0  0
    5.6160  -14.2128   25.5557 N   0  0  0  0  0  0  0  0  0  0  0  0
    6.5342  -13.2990   25.9084 C   0  0  0  0  0  0  0  0  0  0  0  0
    6.3793  -11.9544   26.1790 C   0  0  0  0  0  0  0  0  0  0  0  0
    7.4906  -11.2091   26.5265 C   0  0  0  0  0  0  0  0  0  0  0  0
    8.7270  -11.8287   26.5940 C   0  0  0  0  0  0  0  0  0  0  0  0
    8.8570  -13.1726   26.3196 C   0  0  0  0  0  0  0  0  0  0  0  0
    7.7569  -13.9190   25.9738 C   0  0  0  0  0  0  0  0  0  0  0  0
   10.5104  -17.2830   24.3290 C   0  0  0  0  0  0  0  0  0  0  0  0
   10.2182  -18.3924   23.8368 O   0  0  0  0  0  0  0  0  0  0  0  0
   11.7890  -17.0133   24.8444 N   0  0  0  0  0  0  0  0  0  0  0  0
   12.7832  -18.1497   24.7174 C   0  0  1  0  0  0  0  0  0  0  0  0
   14.0397  -17.5129   24.2281 C   0  0  0  0  0  0  0  0  0  0  0  0
   15.2751  -18.2490   24.0621 C   0  0  0  0  0  0  0  0  0  0  0  0
   16.5168  -17.6079   23.5535 C   0  0  0  0  0  0  0  0  0  0  0  0
   17.6511  -18.6744   23.5315 C   0  0  0  0  0  0  0  0  0  0  0  0
   18.8731  -18.0939   23.0243 N   0  0  0  0  0  0  0  0  0  0  0  0
   12.8423  -18.6394   26.1112 C   0  0  0  0  0  0  0  0  0  0  0  0
   13.3655  -19.8074   26.5248 O   0  0  0  0  0  0  0  0  0  0  0  0
   12.3472  -17.8957   27.0357 O   0  0  0  0  0  0  0  0  0  0  0  0
  1  2  1  0
  2  3  1  0
  4  3  1  0
  5  1  1  0
  5  4  1  0
  5  6  1  1
  7  6  2  0
  8  6  1  0
  9  8  1  0
  9 10  1  1
 10 11  1  0
 11 19  1  0
 12 11  2  0
 12 13  1  0
 13 14  1  0
 14 15  1  0
 15 16  2  0
 17 16  1  0
 18 17  2  0
 19 14  2  0
 19 18  1  0
 20  9  1  0
 21 20  2  0
 22 20  1  0
 23 22  1  0
 24 25  1  0
 23 24  1  1
 26 27  1  0
 26 25  1  0
 28 27  1  0
 29 23  1  0
 29 30  1  0
 31 29  2  0
M  END
$$$$
