PWK.pdb
     RDKit          3D

 31 33  0  0  1  0  0  0  0  0999 V2000
    7.7133  -15.3108   18.5716 N   0  0  0  0  0  0  0  0  0  0  0  0
    7.4605  -14.8385   17.2025 C   0  0  0  0  0  0  0  0  0  0  0  0
    7.8077  -13.3605   17.2285 C   0  0  0  0  0  0  0  0  0  0  0  0
    8.3713  -13.1168   18.6339 C   0  0  0  0  0  0  0  0  0  0  0  0
    8.8121  -14.5066   19.0255 C   0  0  1  0  0  0  0  0  0  0  0  0
    9.0418  -14.6576   20.4647 C   0  0  0  0  0  0  0  0  0  0  0  0
   10.1104  -14.2709   20.9674 O   0  0  0  0  0  0  0  0  0  0  0  0
    8.0432  -15.2433   21.2732 N   0  0  0  0  0  0  0  0  0  0  0  0
    8.1764  -15.2663   22.6983 C   0  0  1  0  0  0  0  0  0  0  0  0
    6.8580  -15.0513   23.3606 C   0  0  0  0  0  0  0  0  0  0  0  0
    6.9917  -14.8368   24.8223 C   0  0  0  0  0  0  0  0  0  0  0  0
    7.0319  -15.8180   25.8013 C   0  0  0  0  0  0  0  0  0  0  0  0
    7.1633  -15.2397   27.0173 N   0  0  0  0  0  0  0  0  0  0  0  0
    7.2094  -13.9081   26.8522 C   0  0  0  0  0  0  0  0  0  0  0  0
    7.3364  -12.9080   27.7948 C   0  0  0  0  0  0  0  0  0  0  0  0
    7.3597  -11.5911   27.3747 C   0  0  0  0  0  0  0  0  0  0  0  0
    7.2553  -11.3100   26.0229 C   0  0  0  0  0  0  0  0  0  0  0  0
    7.1294  -12.3253   25.1003 C   0  0  0  0  0  0  0  0  0  0  0  0
    7.1056  -13.6360   25.5109 C   0  0  0  0  0  0  0  0  0  0  0  0
    8.8580  -16.4832   23.2145 C   0  0  0  0  0  0  0  0  0  0  0  0
    8.4782  -17.6028   22.8138 O   0  0  0  0  0  0  0  0  0  0  0  0
    9.9081  -16.3421   24.1367 N   0  0  0  0  0  0  0  0  0  0  0  0
   10.6396  -17.6251   24.4752 C   0  0  1  0  0  0  0  0  0  0  0  0
   12.0010  -17.4617   23.8889 C   0  0  0  0  0  0  0  0  0  0  0  0
   13.0495  -18.4446   24.0628 C   0  0  0  0  0  0  0  0  0  0  0  0
   14.3929  -18.2873   23.4449 C   0  0  0  0  0  0  0  0  0  0  0  0
   15.2690  -19.5100   23.8475 C   0  0  0  0  0  0  0  0  0  0  0  0
   16.5150  -19.4944   23.1162 N   0  0  0  0  0  0  0  0  0  0  0  0
   10.5975  -17.6008   25.9529 C   0  0  0  0  0  0  0  0  0  0  0  0
   10.3605  -16.5266   26.7266 O   0  0  0  0  0  0  0  0  0  0  0  0
   10.8101  -18.7013   26.5827 O   0  0  0  0  0  0  0  0  0  0  0  0
  1  2  1  0
  2  3  1  0
  4  3  1  0
  5  1  1  0
  5  4  1  0
  5  6  1  1
  7  6  2  0
  8  6  1  0
  9  8  1  0
  9 10  1  1
 10 11  1  0
 11 19  1  0
 12 11  2  0
 12 13  1  0
 13 14  1  0
 14 15  1  0
 15 16  2  0
 17 16  1  0
 18 17  2  0
 19 14  2  0
 19 18  1  0
 20  9  1  0
 21 20  2  0
 22 20  1  0
 23 22  1  0
 24 25  1  0
 23 24  1  1
 26 27  1  0
 26 25  1  0
 28 27  1  0
 29 23  1  0
 29 30  1  0
 31 29  2  0
M  END
$$$$
