PWK.pdb
     RDKit          3D

 31 33  0  0  1  0  0  0  0  0999 V2000
    7.8566  -15.0747   18.2902 N   0  0  0  0  0  0  0  0  0  0  0  0
    7.5474  -14.4532   16.9943 C   0  0  0  0  0  0  0  0  0  0  0  0
    7.6793  -12.9598   17.2356 C   0  0  0  0  0  0  0  0  0  0  0  0
    8.1935  -12.8412   18.6756 C   0  0  0  0  0  0  0  0  0  0  0  0
    8.8263  -14.1965   18.8808 C   0  0  1  0  0  0  0  0  0  0  0  0
    9.0663  -14.5164   20.2904 C   0  0  0  0  0  0  0  0  0  0  0  0
   10.1894  -14.3285   20.7877 O   0  0  0  0  0  0  0  0  0  0  0  0
    8.0155  -15.0375   21.0765 N   0  0  0  0  0  0  0  0  0  0  0  0
    8.1325  -15.1054   22.5017 C   0  0  1  0  0  0  0  0  0  0  0  0
    6.8091  -14.8969   23.1560 C   0  0  0  0  0  0  0  0  0  0  0  0
    6.9191  -14.8159   24.6330 C   0  0  0  0  0  0  0  0  0  0  0  0
    6.8905  -15.8785   25.5234 C   0  0  0  0  0  0  0  0  0  0  0  0
    7.0208  -15.4142   26.7874 N   0  0  0  0  0  0  0  0  0  0  0  0
    7.1332  -14.0771   26.7398 C   0  0  0  0  0  0  0  0  0  0  0  0
    7.2853  -13.1692   27.7682 C   0  0  0  0  0  0  0  0  0  0  0  0
    7.3802  -11.8239   27.4649 C   0  0  0  0  0  0  0  0  0  0  0  0
    7.3203  -11.4226   26.1410 C   0  0  0  0  0  0  0  0  0  0  0  0
    7.1681  -12.3474   25.1312 C   0  0  0  0  0  0  0  0  0  0  0  0
    7.0733  -13.6858   25.4256 C   0  0  0  0  0  0  0  0  0  0  0  0
    8.7962  -16.3445   22.9876 C   0  0  0  0  0  0  0  0  0  0  0  0
    8.3686  -17.4504   22.5969 O   0  0  0  0  0  0  0  0  0  0  0  0
    9.8831  -16.2391   23.8711 N   0  0  0  0  0  0  0  0  0  0  0  0
   10.5733  -17.5483   24.1960 C   0  0  1  0  0  0  0  0  0  0  0  0
   11.8502  -17.5150   23.4263 C   0  0  0  0  0  0  0  0  0  0  0  0
   11.9335  -17.9040   22.0344 C   0  0  0  0  0  0  0  0  0  0  0  0
   13.1371  -17.6283   21.2057 C   0  0  0  0  0  0  0  0  0  0  0  0
   12.8325  -18.0452   19.7366 C   0  0  0  0  0  0  0  0  0  0  0  0
   13.9801  -17.7902   18.8967 N   0  0  0  0  0  0  0  0  0  0  0  0
   10.7335  -17.4350   25.6614 C   0  0  0  0  0  0  0  0  0  0  0  0
   10.2733  -16.4391   26.4395 O   0  0  0  0  0  0  0  0  0  0  0  0
   11.3761  -18.3649   26.2738 O   0  0  0  0  0  0  0  0  0  0  0  0
  1  2  1  0
  2  3  1  0
  4  3  1  0
  5  1  1  0
  5  4  1  0
  5  6  1  1
  7  6  2  0
  8  6  1  0
  9  8  1  0
  9 10  1  1
 10 11  1  0
 11 19  1  0
 12 11  2  0
 12 13  1  0
 13 14  1  0
 14 15  1  0
 15 16  2  0
 17 16  1  0
 18 17  2  0
 19 14  2  0
 19 18  1  0
 20  9  1  0
 21 20  2  0
 22 20  1  0
 23 22  1  0
 24 25  1  0
 23 24  1  6
 26 27  1  0
 26 25  1  0
 28 27  1  0
 29 23  1  0
 29 30  1  0
 31 29  2  0
M  END
$$$$
