YGL.pdb
     RDKit          3D

 25 25  0  0  1  0  0  0  0  0999 V2000
    8.1878  -12.8041   15.4682 O   0  0  0  0  0  0  0  0  0  0  0  0
    7.9085  -13.3097   16.7273 C   0  0  0  0  0  0  0  0  0  0  0  0
    6.6816  -13.8922   16.9848 C   0  0  0  0  0  0  0  0  0  0  0  0
    6.4204  -14.3889   18.2390 C   0  0  0  0  0  0  0  0  0  0  0  0
    7.3433  -14.3292   19.2629 C   0  0  0  0  0  0  0  0  0  0  0  0
    7.0514  -14.8691   20.6158 C   0  0  0  0  0  0  0  0  0  0  0  0
    7.8264  -16.1473   20.8211 C   0  0  2  0  0  0  0  0  0  0  0  0
    7.2859  -17.1403   19.9120 N   0  0  0  0  0  0  0  0  0  0  0  0
    7.6720  -16.6727   22.2003 C   0  0  0  0  0  0  0  0  0  0  0  0
    6.8335  -17.5746   22.4177 O   0  0  0  0  0  0  0  0  0  0  0  0
    8.5614  -13.7449   18.9878 C   0  0  0  0  0  0  0  0  0  0  0  0
    8.8221  -13.2522   17.7461 C   0  0  0  0  0  0  0  0  0  0  0  0
    8.4294  -16.2106   23.3181 N   0  0  0  0  0  0  0  0  0  0  0  0
    8.1177  -16.5299   24.6752 C   0  0  0  0  0  0  0  0  0  0  0  0
    9.0656  -15.8506   25.6336 C   0  0  0  0  0  0  0  0  0  0  0  0
   10.2556  -15.6396   25.2816 O   0  0  0  0  0  0  0  0  0  0  0  0
    6.7486  -11.6348   27.4051 C   0  0  0  0  0  0  0  0  0  0  0  0
    7.7262  -12.6680   26.9874 C   0  0  1  0  0  0  0  0  0  0  0  0
    8.5409  -12.0964   25.8211 C   0  0  0  0  0  0  0  0  0  0  0  0
    8.5632  -13.3230   27.9922 C   0  0  0  0  0  0  0  0  0  0  0  0
    9.4460  -14.4564   27.6702 C   0  0  2  0  0  0  0  0  0  0  0  0
    8.6435  -15.4465   26.9197 N   0  0  0  0  0  0  0  0  0  0  0  0
   10.1778  -15.1158   28.7435 C   0  0  0  0  0  0  0  0  0  0  0  0
    9.8633  -16.4700   29.0124 O   0  0  0  0  0  0  0  0  0  0  0  0
   11.0643  -14.6477   29.4787 O   0  0  0  0  0  0  0  0  0  0  0  0
  2  3  2  0
  2  1  1  0
  4  3  1  0
  5  4  2  0
  6  7  1  0
  6  5  1  0
  7  8  1  6
  9 10  2  0
  9  7  1  0
 11  5  1  0
 11 12  2  0
 12  2  1  0
 13  9  1  0
 14 13  1  0
 15 22  1  0
 15 14  1  0
 16 15  2  0
 18 19  1  6
 18 17  1  0
 20 18  1  0
 21 20  1  1
 21 22  1  0
 23 21  1  0
 24 23  1  0
 25 23  2  0
M  END
$$$$
