YGL.pdb
     RDKit          3D

 25 25  0  0  1  0  0  0  0  0999 V2000
    6.3720  -11.5646   27.3968 O   0  0  0  0  0  0  0  0  0  0  0  0
    6.8321  -12.7768   26.9091 C   0  0  0  0  0  0  0  0  0  0  0  0
    8.1820  -13.0722   26.9459 C   0  0  0  0  0  0  0  0  0  0  0  0
    8.6222  -14.2790   26.4582 C   0  0  0  0  0  0  0  0  0  0  0  0
    7.7619  -15.2180   25.9274 C   0  0  0  0  0  0  0  0  0  0  0  0
    8.2475  -16.5202   25.4025 C   0  0  0  0  0  0  0  0  0  0  0  0
    7.4076  -17.6345   25.9766 C   0  0  2  0  0  0  0  0  0  0  0  0
    8.2099  -18.3230   26.9701 N   0  0  0  0  0  0  0  0  0  0  0  0
    7.0257  -18.6285   24.9431 C   0  0  0  0  0  0  0  0  0  0  0  0
    7.6500  -19.7102   24.8789 O   0  0  0  0  0  0  0  0  0  0  0  0
    6.4192  -14.9061   25.8989 C   0  0  0  0  0  0  0  0  0  0  0  0
    5.9811  -13.7113   26.3815 C   0  0  0  0  0  0  0  0  0  0  0  0
    5.9742  -18.4316   23.9985 N   0  0  0  0  0  0  0  0  0  0  0  0
    6.0576  -18.8173   22.6255 C   0  0  0  0  0  0  0  0  0  0  0  0
    7.1646  -18.0801   21.9116 C   0  0  0  0  0  0  0  0  0  0  0  0
    7.6769  -18.5836   20.8778 O   0  0  0  0  0  0  0  0  0  0  0  0
    7.4150  -12.8752   19.4854 C   0  0  0  0  0  0  0  0  0  0  0  0
    8.2720  -13.9721   19.9956 C   0  0  1  0  0  0  0  0  0  0  0  0
    9.6048  -13.3568   20.4381 C   0  0  0  0  0  0  0  0  0  0  0  0
    7.7348  -14.9171   20.9741 C   0  0  0  0  0  0  0  0  0  0  0  0
    8.5317  -16.0267   21.5231 C   0  0  2  0  0  0  0  0  0  0  0  0
    7.6381  -16.8347   22.3810 N   0  0  0  0  0  0  0  0  0  0  0  0
    9.7710  -15.7315   22.2296 C   0  0  0  0  0  0  0  0  0  0  0  0
   10.9571  -15.6480   21.4607 O   0  0  0  0  0  0  0  0  0  0  0  0
    9.9427  -15.5368   23.4454 O   0  0  0  0  0  0  0  0  0  0  0  0
  2  3  2  0
  2  1  1  0
  4  3  1  0
  5  4  2  0
  6  7  1  0
  6  5  1  0
  7  8  1  1
  9 10  2  0
  9  7  1  0
 11  5  1  0
 11 12  2  0
 12  2  1  0
 13  9  1  0
 14 13  1  0
 15 22  1  0
 15 14  1  0
 16 15  2  0
 18 19  1  1
 18 17  1  0
 20 18  1  0
 21 20  1  1
 21 22  1  0
 23 21  1  0
 24 23  1  0
 25 23  2  0
M  END
$$$$
