YGL.pdb
     RDKit          3D

 25 25  0  0  1  0  0  0  0  0999 V2000
   10.5450  -19.1319   30.1093 O   0  0  0  0  0  0  0  0  0  0  0  0
    9.5967  -18.9694   29.1127 C   0  0  0  0  0  0  0  0  0  0  0  0
    9.3041  -17.7066   28.6326 C   0  0  0  0  0  0  0  0  0  0  0  0
    8.3608  -17.5625   27.6439 C   0  0  0  0  0  0  0  0  0  0  0  0
    7.6866  -18.6389   27.1052 C   0  0  0  0  0  0  0  0  0  0  0  0
    6.6683  -18.4729   26.0363 C   0  0  0  0  0  0  0  0  0  0  0  0
    7.2223  -18.9950   24.7335 C   0  0  2  0  0  0  0  0  0  0  0  0
    8.3428  -18.1515   24.3624 N   0  0  0  0  0  0  0  0  0  0  0  0
    6.2241  -18.9200   23.6381 C   0  0  0  0  0  0  0  0  0  0  0  0
    5.7333  -19.9787   23.1884 O   0  0  0  0  0  0  0  0  0  0  0  0
    7.9914  -19.8907   27.5963 C   0  0  0  0  0  0  0  0  0  0  0  0
    8.9254  -20.0356   28.5756 C   0  0  0  0  0  0  0  0  0  0  0  0
    5.7763  -17.6989   23.0505 N   0  0  0  0  0  0  0  0  0  0  0  0
    6.4155  -17.0721   21.9373 C   0  0  0  0  0  0  0  0  0  0  0  0
    7.2183  -15.8685   22.3679 C   0  0  0  0  0  0  0  0  0  0  0  0
    7.8017  -15.1703   21.4979 O   0  0  0  0  0  0  0  0  0  0  0  0
    8.0978  -12.6833   27.0935 C   0  0  0  0  0  0  0  0  0  0  0  0
    7.1483  -13.2927   26.1317 C   0  0  1  0  0  0  0  0  0  0  0  0
    5.7670  -12.6774   26.3848 C   0  0  0  0  0  0  0  0  0  0  0  0
    7.4897  -13.3464   24.7106 C   0  0  0  0  0  0  0  0  0  0  0  0
    8.2761  -14.4455   24.1264 C   0  0  2  0  0  0  0  0  0  0  0  0
    7.3283  -15.5092   23.7297 N   0  0  0  0  0  0  0  0  0  0  0  0
    9.3779  -15.0163   24.8897 C   0  0  0  0  0  0  0  0  0  0  0  0
   10.5699  -14.2576   24.9830 O   0  0  0  0  0  0  0  0  0  0  0  0
    9.4241  -16.1049   25.4883 O   0  0  0  0  0  0  0  0  0  0  0  0
  2  3  2  0
  2  1  1  0
  4  3  1  0
  5  4  2  0
  6  7  1  0
  6  5  1  0
  7  8  1  6
  9 10  2  0
  9  7  1  0
 11  5  1  0
 11 12  2  0
 12  2  1  0
 13  9  1  0
 14 13  1  0
 15 22  1  0
 15 14  1  0
 16 15  2  0
 18 19  1  6
 18 17  1  0
 20 18  1  0
 21 20  1  1
 21 22  1  0
 23 21  1  0
 24 23  1  0
 25 23  2  0
M  END
$$$$
