YGL.pdb
     RDKit          3D

 25 25  0  0  1  0  0  0  0  0999 V2000
    8.9270  -12.1910   16.7244 O   0  0  0  0  0  0  0  0  0  0  0  0
    8.4480  -13.0150   17.7297 C   0  0  0  0  0  0  0  0  0  0  0  0
    8.9416  -12.8996   19.0157 C   0  0  0  0  0  0  0  0  0  0  0  0
    8.4558  -13.7245   20.0014 C   0  0  0  0  0  0  0  0  0  0  0  0
    7.4847  -14.6735   19.7568 C   0  0  0  0  0  0  0  0  0  0  0  0
    6.9658  -15.5608   20.8294 C   0  0  0  0  0  0  0  0  0  0  0  0
    7.8697  -16.7613   20.9651 C   0  0  2  0  0  0  0  0  0  0  0  0
    7.5713  -17.6629   19.8684 N   0  0  0  0  0  0  0  0  0  0  0  0
    7.6246  -17.4985   22.2294 C   0  0  0  0  0  0  0  0  0  0  0  0
    6.6681  -18.3019   22.2898 O   0  0  0  0  0  0  0  0  0  0  0  0
    7.0042  -14.7743   18.4684 C   0  0  0  0  0  0  0  0  0  0  0  0
    7.4840  -13.9582   17.4906 C   0  0  0  0  0  0  0  0  0  0  0  0
    8.4207  -17.3511   23.4047 N   0  0  0  0  0  0  0  0  0  0  0  0
    7.8836  -17.0627   24.6966 C   0  0  0  0  0  0  0  0  0  0  0  0
    8.6953  -16.0079   25.4088 C   0  0  0  0  0  0  0  0  0  0  0  0
    9.7244  -15.5403   24.8548 O   0  0  0  0  0  0  0  0  0  0  0  0
    6.4404  -13.3642   26.1001 C   0  0  0  0  0  0  0  0  0  0  0  0
    7.2863  -12.7061   27.1243 C   0  0  1  0  0  0  0  0  0  0  0  0
    6.3782  -11.8121   27.9767 C   0  0  0  0  0  0  0  0  0  0  0  0
    8.2051  -13.5087   27.9311 C   0  0  0  0  0  0  0  0  0  0  0  0
    9.1350  -14.4836   27.3373 C   0  0  2  0  0  0  0  0  0  0  0  0
    8.3227  -15.5343   26.6865 N   0  0  0  0  0  0  0  0  0  0  0  0
   10.1601  -15.0911   28.1754 C   0  0  0  0  0  0  0  0  0  0  0  0
   11.2531  -14.2784   28.5627 O   0  0  0  0  0  0  0  0  0  0  0  0
   10.2156  -16.2537   28.6122 O   0  0  0  0  0  0  0  0  0  0  0  0
  2  3  2  0
  2  1  1  0
  4  3  1  0
  5  4  2  0
  6  7  1  0
  6  5  1  0
  7  8  1  6
  9 10  2  0
  9  7  1  0
 11  5  1  0
 11 12  2  0
 12  2  1  0
 13  9  1  0
 14 13  1  0
 15 22  1  0
 15 14  1  0
 16 15  2  0
 18 19  1  1
 18 17  1  0
 20 18  1  0
 21 20  1  1
 21 22  1  0
 23 21  1  0
 24 23  1  0
 25 23  2  0
M  END
$$$$
