YGL.pdb
     RDKit          3D

 25 25  0  0  1  0  0  0  0  0999 V2000
   11.5041  -19.4670   30.3134 O   0  0  0  0  0  0  0  0  0  0  0  0
   10.3938  -19.2315   29.5191 C   0  0  0  0  0  0  0  0  0  0  0  0
    9.4949  -20.2499   29.2634 C   0  0  0  0  0  0  0  0  0  0  0  0
    8.3986  -19.9998   28.4736 C   0  0  0  0  0  0  0  0  0  0  0  0
    8.1563  -18.7597   27.9196 C   0  0  0  0  0  0  0  0  0  0  0  0
    6.9680  -18.4991   27.0669 C   0  0  0  0  0  0  0  0  0  0  0  0
    7.0218  -19.3894   25.8499 C   0  0  2  0  0  0  0  0  0  0  0  0
    8.2073  -20.2178   25.9629 N   0  0  0  0  0  0  0  0  0  0  0  0
    7.1420  -18.6055   24.5956 C   0  0  0  0  0  0  0  0  0  0  0  0
    8.2747  -18.4233   24.0980 O   0  0  0  0  0  0  0  0  0  0  0  0
    9.0634  -17.7561   28.1854 C   0  0  0  0  0  0  0  0  0  0  0  0
   10.1499  -18.0018   28.9675 C   0  0  0  0  0  0  0  0  0  0  0  0
    6.0322  -18.0337   23.9042 N   0  0  0  0  0  0  0  0  0  0  0  0
    6.1578  -17.2174   22.7386 C   0  0  0  0  0  0  0  0  0  0  0  0
    6.9268  -15.9519   23.0315 C   0  0  0  0  0  0  0  0  0  0  0  0
    6.6640  -14.9044   22.3849 O   0  0  0  0  0  0  0  0  0  0  0  0
    7.5533  -11.5909   25.4996 C   0  0  0  0  0  0  0  0  0  0  0  0
    7.1250  -12.8747   26.1047 C   0  0  1  0  0  0  0  0  0  0  0  0
    5.8002  -12.6281   26.8358 C   0  0  0  0  0  0  0  0  0  0  0  0
    7.1014  -14.0887   25.2893 C   0  0  0  0  0  0  0  0  0  0  0  0
    8.3065  -14.6285   24.6382 C   0  0  2  0  0  0  0  0  0  0  0  0
    7.9372  -15.9195   24.0183 N   0  0  0  0  0  0  0  0  0  0  0  0
    9.5291  -14.7786   25.4160 C   0  0  0  0  0  0  0  0  0  0  0  0
    9.9741  -16.0956   25.6856 O   0  0  0  0  0  0  0  0  0  0  0  0
   10.2593  -13.8917   25.8912 O   0  0  0  0  0  0  0  0  0  0  0  0
  2  3  2  0
  2  1  1  0
  4  3  1  0
  5  4  2  0
  6  7  1  0
  6  5  1  0
  7  8  1  1
  9 10  2  0
  9  7  1  0
 11  5  1  0
 11 12  2  0
 12  2  1  0
 13  9  1  0
 14 13  1  0
 15 22  1  0
 15 14  1  0
 16 15  2  0
 18 19  1  6
 18 17  1  0
 20 18  1  0
 21 20  1  1
 21 22  1  0
 23 21  1  0
 24 23  1  0
 25 23  2  0
M  END
$$$$
