YGL.pdb
     RDKit          3D

 25 25  0  0  1  0  0  0  0  0999 V2000
    8.1152  -13.4615   15.4945 O   0  0  0  0  0  0  0  0  0  0  0  0
    7.8174  -13.8150   16.8004 C   0  0  0  0  0  0  0  0  0  0  0  0
    8.2322  -13.0140   17.8479 C   0  0  0  0  0  0  0  0  0  0  0  0
    7.9285  -13.3787   19.1375 C   0  0  0  0  0  0  0  0  0  0  0  0
    7.2187  -14.5245   19.4321 C   0  0  0  0  0  0  0  0  0  0  0  0
    6.8953  -14.9103   20.8299 C   0  0  0  0  0  0  0  0  0  0  0  0
    8.1594  -15.3346   21.5360 C   0  0  2  0  0  0  0  0  0  0  0  0
    8.7380  -16.4305   20.7817 N   0  0  0  0  0  0  0  0  0  0  0  0
    7.8872  -15.8305   22.9078 C   0  0  0  0  0  0  0  0  0  0  0  0
    7.3236  -15.0733   23.7281 O   0  0  0  0  0  0  0  0  0  0  0  0
    6.8133  -15.3110   18.3748 C   0  0  0  0  0  0  0  0  0  0  0  0
    7.1130  -14.9516   17.0968 C   0  0  0  0  0  0  0  0  0  0  0  0
    8.2309  -17.1380   23.3650 N   0  0  0  0  0  0  0  0  0  0  0  0
    8.0306  -17.5887   24.7057 C   0  0  0  0  0  0  0  0  0  0  0  0
    9.0687  -17.0172   25.6409 C   0  0  0  0  0  0  0  0  0  0  0  0
   10.2809  -17.3123   25.4743 O   0  0  0  0  0  0  0  0  0  0  0  0
    7.2505  -13.7131   26.7368 C   0  0  0  0  0  0  0  0  0  0  0  0
    8.5247  -13.3629   27.4087 C   0  0  1  0  0  0  0  0  0  0  0  0
    8.2987  -12.0646   28.1922 C   0  0  0  0  0  0  0  0  0  0  0  0
    9.2358  -14.3755   28.1886 C   0  0  0  0  0  0  0  0  0  0  0  0
    9.7578  -15.6144   27.5885 C   0  0  2  0  0  0  0  0  0  0  0  0
    8.7064  -16.1565   26.7009 N   0  0  0  0  0  0  0  0  0  0  0  0
   10.2697  -16.6655   28.4577 C   0  0  0  0  0  0  0  0  0  0  0  0
    9.4811  -17.8321   28.6059 O   0  0  0  0  0  0  0  0  0  0  0  0
   11.3296  -16.6866   29.1070 O   0  0  0  0  0  0  0  0  0  0  0  0
  2  3  2  0
  2  1  1  0
  4  3  1  0
  5  4  2  0
  6  7  1  0
  6  5  1  0
  7  8  1  6
  9 10  2  0
  9  7  1  0
 11  5  1  0
 11 12  2  0
 12  2  1  0
 13  9  1  0
 14 13  1  0
 15 22  1  0
 15 14  1  0
 16 15  2  0
 18 19  1  1
 18 17  1  0
 20 18  1  0
 21 20  1  1
 21 22  1  0
 23 21  1  0
 24 23  1  0
 25 23  2  0
M  END
$$$$
