YGL.pdb
     RDKit          3D

 25 25  0  0  1  0  0  0  0  0999 V2000
    0.0823  -20.3092   21.3489 O   0  0  0  0  0  0  0  0  0  0  0  0
    1.3087  -19.7433   21.6567 C   0  0  0  0  0  0  0  0  0  0  0  0
    1.7345  -18.6071   20.9945 C   0  0  0  0  0  0  0  0  0  0  0  0
    2.9537  -18.0583   21.3116 C   0  0  0  0  0  0  0  0  0  0  0  0
    3.7788  -18.6013   22.2748 C   0  0  0  0  0  0  0  0  0  0  0  0
    5.0954  -18.0005   22.6106 C   0  0  0  0  0  0  0  0  0  0  0  0
    5.9719  -17.9999   21.3825 C   0  0  2  0  0  0  0  0  0  0  0  0
    6.1766  -19.3808   20.9876 N   0  0  0  0  0  0  0  0  0  0  0  0
    7.3061  -17.4103   21.6551 C   0  0  0  0  0  0  0  0  0  0  0  0
    8.2396  -18.1589   22.0184 O   0  0  0  0  0  0  0  0  0  0  0  0
    3.3378  -19.7344   22.9248 C   0  0  0  0  0  0  0  0  0  0  0  0
    2.1306  -20.2796   22.6122 C   0  0  0  0  0  0  0  0  0  0  0  0
    7.6035  -16.0202   21.5287 N   0  0  0  0  0  0  0  0  0  0  0  0
    8.8933  -15.4584   21.7764 C   0  0  0  0  0  0  0  0  0  0  0  0
    9.1098  -15.2012   23.2481 C   0  0  0  0  0  0  0  0  0  0  0  0
   10.2022  -14.7108   23.6363 O   0  0  0  0  0  0  0  0  0  0  0  0
    5.6117  -12.5892   26.3154 C   0  0  0  0  0  0  0  0  0  0  0  0
    6.8820  -13.1862   25.8382 C   0  0  1  0  0  0  0  0  0  0  0  0
    8.0118  -12.2011   26.1606 C   0  0  0  0  0  0  0  0  0  0  0  0
    7.2159  -14.5641   26.1975 C   0  0  0  0  0  0  0  0  0  0  0  0
    8.3799  -15.2689   25.6352 C   0  0  2  0  0  0  0  0  0  0  0  0
    8.1095  -15.5001   24.1997 N   0  0  0  0  0  0  0  0  0  0  0  0
    8.8371  -16.5014   26.2631 C   0  0  0  0  0  0  0  0  0  0  0  0
    8.8697  -17.6690   25.4626 O   0  0  0  0  0  0  0  0  0  0  0  0
    9.2137  -16.6813   27.4341 O   0  0  0  0  0  0  0  0  0  0  0  0
  2  3  2  0
  2  1  1  0
  4  3  1  0
  5  4  2  0
  6  7  1  0
  6  5  1  0
  7  8  1  1
  9 10  2  0
  9  7  1  0
 11  5  1  0
 11 12  2  0
 12  2  1  0
 13  9  1  0
 14 13  1  0
 15 22  1  0
 15 14  1  0
 16 15  2  0
 18 19  1  1
 18 17  1  0
 20 18  1  0
 21 20  1  1
 21 22  1  0
 23 21  1  0
 24 23  1  0
 25 23  2  0
M  END
$$$$
