ICL.pdb
     RDKit          3D

 23 22  0  0  1  0  0  0  0  0999 V2000
   28.2495  -17.9854  -17.6361 C   0  0  0  0  0  0  0  0  0  0  0  0
   28.6412  -19.1009  -16.7003 C   0  0  0  0  0  0  0  0  0  0  0  0
   27.5496  -19.5571  -15.8007 C   0  0  2  0  0  0  0  0  0  0  0  0
   27.1076  -18.3581  -14.9619 C   0  0  0  0  0  0  0  0  0  0  0  0
   27.8583  -20.7258  -14.9223 C   0  0  2  0  0  0  0  0  0  0  0  0
   28.0104  -21.8802  -15.8344 N   0  0  0  0  0  0  0  0  0  0  0  0
   26.8593  -21.0855  -13.9257 C   0  0  0  0  0  0  0  0  0  0  0  0
   25.7939  -21.6969  -14.3149 O   0  0  0  0  0  0  0  0  0  0  0  0
   26.8875  -20.8549  -12.5296 N   0  0  0  0  0  0  0  0  0  0  0  0
   25.7707  -21.0886  -11.6591 C   0  0  1  0  0  0  0  0  0  0  0  0
   26.3289  -20.8938  -10.2361 C   0  0  0  0  0  0  0  0  0  0  0  0
   25.0201  -21.2012   -9.0153 S   0  0  0  0  0  0  0  0  0  0  0  0
   24.5904  -20.2607  -11.8929 C   0  0  0  0  0  0  0  0  0  0  0  0
   24.7275  -19.0530  -12.3054 O   0  0  0  0  0  0  0  0  0  0  0  0
   21.6987  -20.7224  -16.3050 C   0  0  0  0  0  0  0  0  0  0  0  0
   21.4273  -19.9911  -14.9775 C   0  0  2  0  0  0  0  0  0  0  0  0
   21.3702  -18.5360  -15.2787 C   0  0  0  0  0  0  0  0  0  0  0  0
   22.4861  -20.4058  -14.0287 C   0  0  0  0  0  0  0  0  0  0  0  0
   22.1467  -20.2010  -12.5807 C   0  0  2  0  0  0  0  0  0  0  0  0
   23.2343  -20.6400  -11.7134 N   0  0  0  0  0  0  0  0  0  0  0  0
   20.8670  -20.8036  -12.2141 C   0  0  0  0  0  0  0  0  0  0  0  0
   19.7665  -19.9391  -12.0492 O   0  0  0  0  0  0  0  0  0  0  0  0
   20.6281  -22.0169  -12.0259 O   0  0  0  0  0  0  0  0  0  0  0  0
  2  1  1  0
  2  3  1  0
  3  4  1  1
  5  7  1  0
  5  3  1  0
  5  6  1  6
  7  8  2  0
  9 10  1  0
  9  7  1  0
 10 11  1  1
 11 12  1  0
 13 10  1  0
 14 13  2  0
 16 15  1  6
 17 16  1  0
 18 16  1  0
 19 18  1  6
 19 20  1  0
 20 13  1  0
 21 22  1  0
 21 19  1  0
 23 21  2  0
M  END
$$$$
