ICL.pdb
     RDKit          3D

 23 22  0  0  1  0  0  0  0  0999 V2000
   14.4160  -12.8795  -11.5622 C   0  0  0  0  0  0  0  0  0  0  0  0
   14.6170  -11.8554  -10.4739 C   0  0  0  0  0  0  0  0  0  0  0  0
   15.0739  -10.5272  -10.9598 C   0  0  2  0  0  0  0  0  0  0  0  0
   16.3662  -10.7405  -11.7480 C   0  0  0  0  0  0  0  0  0  0  0  0
   15.2621   -9.4693   -9.9214 C   0  0  2  0  0  0  0  0  0  0  0  0
   13.9228   -9.2436   -9.3357 N   0  0  0  0  0  0  0  0  0  0  0  0
   15.7631   -8.1795  -10.3753 C   0  0  0  0  0  0  0  0  0  0  0  0
   15.2304   -7.6453  -11.4200 O   0  0  0  0  0  0  0  0  0  0  0  0
   16.7931   -7.3888   -9.8122 N   0  0  0  0  0  0  0  0  0  0  0  0
   17.2239   -6.1330  -10.3571 C   0  0  1  0  0  0  0  0  0  0  0  0
   16.9352   -5.1003   -9.2505 C   0  0  0  0  0  0  0  0  0  0  0  0
   15.1625   -5.1019   -8.8559 S   0  0  0  0  0  0  0  0  0  0  0  0
   18.6129   -6.0699  -10.8039 C   0  0  0  0  0  0  0  0  0  0  0  0
   19.5653   -6.1788   -9.9503 O   0  0  0  0  0  0  0  0  0  0  0  0
   21.7429   -8.4473  -12.1576 C   0  0  0  0  0  0  0  0  0  0  0  0
   20.7076   -8.1134  -13.2471 C   0  0  2  0  0  0  0  0  0  0  0  0
   20.9241   -9.0656  -14.3686 C   0  0  0  0  0  0  0  0  0  0  0  0
   20.8777   -6.6811  -13.5836 C   0  0  0  0  0  0  0  0  0  0  0  0
   20.4766   -5.7287  -12.4946 C   0  0  2  0  0  0  0  0  0  0  0  0
   19.0726   -5.8941  -12.1355 N   0  0  0  0  0  0  0  0  0  0  0  0
   20.8081   -4.3415  -12.8129 C   0  0  0  0  0  0  0  0  0  0  0  0
   22.1716   -3.9858  -12.8201 O   0  0  0  0  0  0  0  0  0  0  0  0
   20.0115   -3.4162  -13.0843 O   0  0  0  0  0  0  0  0  0  0  0  0
  2  1  1  0
  2  3  1  0
  3  4  1  1
  5  7  1  0
  5  3  1  0
  5  6  1  6
  7  8  2  0
  9 10  1  0
  9  7  1  0
 10 11  1  1
 11 12  1  0
 13 10  1  0
 14 13  2  0
 16 15  1  1
 17 16  1  0
 18 16  1  0
 19 18  1  6
 19 20  1  0
 20 13  1  0
 21 22  1  0
 21 19  1  0
 23 21  2  0
M  END
$$$$
