ICL.pdb
     RDKit          3D

 23 22  0  0  1  0  0  0  0  0999 V2000
   16.5446  -13.5545  -18.5303 C   0  0  0  0  0  0  0  0  0  0  0  0
   17.9554  -13.1528  -18.1812 C   0  0  0  0  0  0  0  0  0  0  0  0
   18.0503  -12.0408  -17.1997 C   0  0  2  0  0  0  0  0  0  0  0  0
   17.2714  -10.8538  -17.7661 C   0  0  0  0  0  0  0  0  0  0  0  0
   19.4286  -11.6217  -16.8027 C   0  0  2  0  0  0  0  0  0  0  0  0
   20.0169  -12.7905  -16.1129 N   0  0  0  0  0  0  0  0  0  0  0  0
   19.5393  -10.4823  -15.9026 C   0  0  0  0  0  0  0  0  0  0  0  0
   18.9950  -10.5632  -14.7374 O   0  0  0  0  0  0  0  0  0  0  0  0
   20.1875   -9.2444  -16.1271 N   0  0  0  0  0  0  0  0  0  0  0  0
   20.0889   -8.1195  -15.2415 C   0  0  1  0  0  0  0  0  0  0  0  0
   21.5331   -7.6029  -15.0935 C   0  0  0  0  0  0  0  0  0  0  0  0
   21.5477   -6.1056  -14.0661 S   0  0  0  0  0  0  0  0  0  0  0  0
   19.1759   -7.0564  -15.6533 C   0  0  0  0  0  0  0  0  0  0  0  0
   19.2133   -6.6114  -16.8567 O   0  0  0  0  0  0  0  0  0  0  0  0
   13.6945   -4.6029  -14.5489 C   0  0  0  0  0  0  0  0  0  0  0  0
   15.0039   -4.4402  -15.3423 C   0  0  2  0  0  0  0  0  0  0  0  0
   14.6563   -4.5063  -16.7865 C   0  0  0  0  0  0  0  0  0  0  0  0
   15.9360   -5.4860  -14.8613 C   0  0  0  0  0  0  0  0  0  0  0  0
   17.3570   -5.3170  -15.3151 C   0  0  2  0  0  0  0  0  0  0  0  0
   18.1967   -6.4153  -14.8500 N   0  0  0  0  0  0  0  0  0  0  0  0
   17.9069   -4.0101  -14.9616 C   0  0  0  0  0  0  0  0  0  0  0  0
   18.9682   -3.9821  -14.0351 O   0  0  0  0  0  0  0  0  0  0  0  0
   17.5410   -2.8938  -15.3912 O   0  0  0  0  0  0  0  0  0  0  0  0
  2  1  1  0
  2  3  1  0
  3  4  1  6
  5  7  1  0
  5  3  1  0
  5  6  1  1
  7  8  2  0
  9 10  1  0
  9  7  1  0
 10 11  1  6
 11 12  1  0
 13 10  1  0
 14 13  2  0
 16 15  1  1
 17 16  1  0
 18 16  1  0
 19 18  1  1
 19 20  1  0
 20 13  1  0
 21 22  1  0
 21 19  1  0
 23 21  2  0
M  END
$$$$
