ICL.pdb
     RDKit          3D

 23 22  0  0  1  0  0  0  0  0999 V2000
   14.1110  -21.9965    0.9334 C   0  0  0  0  0  0  0  0  0  0  0  0
   15.3519  -21.9613    1.7892 C   0  0  0  0  0  0  0  0  0  0  0  0
   15.4492  -20.7741    2.6781 C   0  0  2  0  0  0  0  0  0  0  0  0
   15.4574  -19.5293    1.7910 C   0  0  0  0  0  0  0  0  0  0  0  0
   16.6028  -20.7486    3.6275 C   0  0  2  0  0  0  0  0  0  0  0  0
   16.5059  -22.0028    4.4055 N   0  0  0  0  0  0  0  0  0  0  0  0
   16.6513  -19.6472    4.5789 C   0  0  0  0  0  0  0  0  0  0  0  0
   16.7994  -18.4496    4.1271 O   0  0  0  0  0  0  0  0  0  0  0  0
   16.5529  -19.6993    5.9898 N   0  0  0  0  0  0  0  0  0  0  0  0
   16.7021  -18.5552    6.8432 C   0  0  1  0  0  0  0  0  0  0  0  0
   15.6932  -18.7784    7.9864 C   0  0  0  0  0  0  0  0  0  0  0  0
   15.6066  -17.2933    9.0279 S   0  0  0  0  0  0  0  0  0  0  0  0
   18.0479  -18.3061    7.3532 C   0  0  0  0  0  0  0  0  0  0  0  0
   18.8654  -19.2838    7.5059 O   0  0  0  0  0  0  0  0  0  0  0  0
   21.8934  -13.6741    8.8603 C   0  0  0  0  0  0  0  0  0  0  0  0
   21.7103  -15.2027    8.8366 C   0  0  2  0  0  0  0  0  0  0  0  0
   22.9030  -15.7798    8.1615 C   0  0  0  0  0  0  0  0  0  0  0  0
   20.4109  -15.4744    8.1800 C   0  0  0  0  0  0  0  0  0  0  0  0
   19.9267  -16.8896    8.3082 C   0  0  2  0  0  0  0  0  0  0  0  0
   18.6006  -17.0519    7.7226 N   0  0  0  0  0  0  0  0  0  0  0  0
   19.9902  -17.3816    9.6827 C   0  0  0  0  0  0  0  0  0  0  0  0
   18.8869  -17.1162   10.5182 O   0  0  0  0  0  0  0  0  0  0  0  0
   20.9238  -18.0215   10.2151 O   0  0  0  0  0  0  0  0  0  0  0  0
  2  1  1  0
  2  3  1  0
  3  4  1  6
  5  7  1  0
  5  3  1  0
  5  6  1  1
  7  8  2  0
  9 10  1  0
  9  7  1  0
 10 11  1  1
 11 12  1  0
 13 10  1  0
 14 13  2  0
 16 15  1  6
 17 16  1  0
 18 16  1  0
 19 18  1  1
 19 20  1  0
 20 13  1  0
 21 22  1  0
 21 19  1  0
 23 21  2  0
M  END
$$$$
