ICL.pdb
     RDKit          3D

 23 22  0  0  1  0  0  0  0  0999 V2000
   29.6903  -21.1453   -6.5017 C   0  0  0  0  0  0  0  0  0  0  0  0
   28.3381  -21.0778   -7.1656 C   0  0  0  0  0  0  0  0  0  0  0  0
   27.7429  -19.7166   -7.2055 C   0  0  2  0  0  0  0  0  0  0  0  0
   27.5548  -19.2496   -5.7622 C   0  0  0  0  0  0  0  0  0  0  0  0
   26.4692  -19.5714   -7.9733 C   0  0  2  0  0  0  0  0  0  0  0  0
   25.5342  -20.5538   -7.3829 N   0  0  0  0  0  0  0  0  0  0  0  0
   26.5276  -19.8302   -9.4051 C   0  0  0  0  0  0  0  0  0  0  0  0
   27.2811  -19.0823  -10.1355 O   0  0  0  0  0  0  0  0  0  0  0  0
   25.8511  -20.8280  -10.1465 N   0  0  0  0  0  0  0  0  0  0  0  0
   25.9474  -20.9668  -11.5716 C   0  0  1  0  0  0  0  0  0  0  0  0
   25.7730  -22.4748  -11.8363 C   0  0  0  0  0  0  0  0  0  0  0  0
   24.0938  -22.9894  -11.3747 S   0  0  0  0  0  0  0  0  0  0  0  0
   25.0105  -20.1697  -12.3590 C   0  0  0  0  0  0  0  0  0  0  0  0
   23.9361  -19.7240  -11.8161 O   0  0  0  0  0  0  0  0  0  0  0  0
   22.9641  -18.2035  -17.0258 C   0  0  0  0  0  0  0  0  0  0  0  0
   23.9339  -17.2750  -16.2723 C   0  0  2  0  0  0  0  0  0  0  0  0
   24.5855  -16.4020  -17.2844 C   0  0  0  0  0  0  0  0  0  0  0  0
   24.8479  -18.1417  -15.4932 C   0  0  0  0  0  0  0  0  0  0  0  0
   24.1774  -18.9725  -14.4377 C   0  0  2  0  0  0  0  0  0  0  0  0
   25.1414  -19.8026  -13.7240 N   0  0  0  0  0  0  0  0  0  0  0  0
   23.0576  -19.7502  -14.9636 C   0  0  0  0  0  0  0  0  0  0  0  0
   21.7627  -19.2229  -14.7882 O   0  0  0  0  0  0  0  0  0  0  0  0
   23.1129  -20.8475  -15.5614 O   0  0  0  0  0  0  0  0  0  0  0  0
  2  1  1  0
  2  3  1  0
  3  4  1  1
  5  7  1  0
  5  3  1  0
  5  6  1  1
  7  8  2  0
  9 10  1  0
  9  7  1  0
 10 11  1  1
 11 12  1  0
 13 10  1  0
 14 13  2  0
 16 15  1  6
 17 16  1  0
 18 16  1  0
 19 18  1  6
 19 20  1  0
 20 13  1  0
 21 22  1  0
 21 19  1  0
 23 21  2  0
M  END
$$$$
