MSN.pdb
     RDKit          3D

 23 22  0  0  1  0  0  0  0  0999 V2000
    8.0964  -11.5499   20.1030 C   0  0  0  0  0  0  0  0  0  0  0  0
    7.5386  -12.9448   19.0937 S   0  0  0  0  0  0  0  0  0  0  0  0
    8.4495  -14.4220   19.6246 C   0  0  0  0  0  0  0  0  0  0  0  0
    8.5161  -14.3753   21.1509 C   0  0  0  0  0  0  0  0  0  0  0  0
    9.1782  -15.6760   21.5773 C   0  0  2  0  0  0  0  0  0  0  0  0
    8.4208  -16.8203   21.0951 N   0  0  0  0  0  0  0  0  0  0  0  0
    9.1127  -15.7098   23.0683 C   0  0  0  0  0  0  0  0  0  0  0  0
   10.0070  -15.1807   23.7976 O   0  0  0  0  0  0  0  0  0  0  0  0
    6.1643  -17.8824   24.6466 O   0  0  0  0  0  0  0  0  0  0  0  0
    6.5340  -16.8507   25.5188 C   0  0  0  0  0  0  0  0  0  0  0  0
    7.9985  -16.5367   25.1839 C   0  0  2  0  0  0  0  0  0  0  0  0
    8.0366  -16.3411   23.7453 N   0  0  0  0  0  0  0  0  0  0  0  0
    8.8933  -17.6128   25.6226 C   0  0  0  0  0  0  0  0  0  0  0  0
    9.6472  -18.1299   24.7523 O   0  0  0  0  0  0  0  0  0  0  0  0
    9.5622  -21.7558   24.5993 N   0  0  0  0  0  0  0  0  0  0  0  0
    9.8999  -21.2907   25.8836 C   0  0  0  0  0  0  0  0  0  0  0  0
    9.8270  -22.0366   26.9151 O   0  0  0  0  0  0  0  0  0  0  0  0
   10.3523  -19.9220   26.0929 C   0  0  0  0  0  0  0  0  0  0  0  0
    9.8212  -19.2099   27.2823 C   0  0  2  0  0  0  0  0  0  0  0  0
    8.9678  -18.1046   26.9404 N   0  0  0  0  0  0  0  0  0  0  0  0
   10.8612  -18.7986   28.2556 C   0  0  0  0  0  0  0  0  0  0  0  0
   11.7053  -19.6465   28.6061 O   0  0  0  0  0  0  0  0  0  0  0  0
   10.9489  -17.5383   28.7936 O   0  0  0  0  0  0  0  0  0  0  0  0
  2  1  1  0
  3  2  1  0
  4  5  1  0
  4  3  1  0
  5  7  1  0
  5  6  1  6
  7  8  2  0
  9 10  1  0
 11 10  1  6
 11 13  1  0
 12  7  1  0
 12 11  1  0
 13 20  1  0
 14 13  2  0
 16 15  1  0
 17 16  2  0
 18 16  1  0
 19 18  1  6
 20 19  1  0
 21 23  1  0
 21 19  1  0
 22 21  2  0
M  END
$$$$
