MSN.pdb
     RDKit          3D

 23 22  0  0  1  0  0  0  0  0999 V2000
    8.0005  -11.6773   19.6250 C   0  0  0  0  0  0  0  0  0  0  0  0
    6.6453  -12.8734   19.5328 S   0  0  0  0  0  0  0  0  0  0  0  0
    7.2663  -14.4725   20.1251 C   0  0  0  0  0  0  0  0  0  0  0  0
    8.6138  -14.7038   19.4419 C   0  0  0  0  0  0  0  0  0  0  0  0
    9.1658  -15.9893   20.0377 C   0  0  2  0  0  0  0  0  0  0  0  0
    8.1044  -16.9659   20.2254 N   0  0  0  0  0  0  0  0  0  0  0  0
    9.6752  -15.6361   21.3957 C   0  0  0  0  0  0  0  0  0  0  0  0
   10.7767  -15.0295   21.5691 O   0  0  0  0  0  0  0  0  0  0  0  0
    7.5865  -16.9308   24.6810 O   0  0  0  0  0  0  0  0  0  0  0  0
    8.1762  -15.6658   24.7992 C   0  0  0  0  0  0  0  0  0  0  0  0
    9.4280  -15.7133   23.9125 C   0  0  2  0  0  0  0  0  0  0  0  0
    8.9437  -15.9656   22.5667 N   0  0  0  0  0  0  0  0  0  0  0  0
   10.3701  -16.7418   24.3663 C   0  0  0  0  0  0  0  0  0  0  0  0
   10.1840  -17.9200   23.9536 O   0  0  0  0  0  0  0  0  0  0  0  0
   13.5779  -16.9710   23.1767 N   0  0  0  0  0  0  0  0  0  0  0  0
   14.3414  -16.9033   24.3567 C   0  0  0  0  0  0  0  0  0  0  0  0
   15.5719  -16.5697   24.3492 O   0  0  0  0  0  0  0  0  0  0  0  0
   13.7526  -17.2148   25.6522 C   0  0  0  0  0  0  0  0  0  0  0  0
   12.3124  -17.5745   25.6701 C   0  0  2  0  0  0  0  0  0  0  0  0
   11.4608  -16.5050   25.2255 N   0  0  0  0  0  0  0  0  0  0  0  0
   11.8429  -18.1267   26.9635 C   0  0  0  0  0  0  0  0  0  0  0  0
   10.9208  -17.5322   27.5555 O   0  0  0  0  0  0  0  0  0  0  0  0
   12.3647  -19.2548   27.5474 O   0  0  0  0  0  0  0  0  0  0  0  0
  2  1  1  0
  3  2  1  0
  4  5  1  0
  4  3  1  0
  5  7  1  0
  5  6  1  1
  7  8  2  0
  9 10  1  0
 11 10  1  1
 11 13  1  0
 12  7  1  0
 12 11  1  0
 13 20  1  0
 14 13  2  0
 16 15  1  0
 17 16  2  0
 18 16  1  0
 19 18  1  1
 20 19  1  0
 21 23  1  0
 21 19  1  0
 22 21  2  0
M  END
$$$$
