MSN.pdb
     RDKit          3D

 23 22  0  0  1  0  0  0  0  0999 V2000
    8.6156  -11.5599   18.9778 C   0  0  0  0  0  0  0  0  0  0  0  0
    7.2060  -12.6564   18.6836 S   0  0  0  0  0  0  0  0  0  0  0  0
    7.6721  -14.3264   19.2196 C   0  0  0  0  0  0  0  0  0  0  0  0
    8.9907  -14.1943   19.9811 C   0  0  0  0  0  0  0  0  0  0  0  0
    9.3721  -15.6059   20.3984 C   0  0  2  0  0  0  0  0  0  0  0  0
    8.2527  -16.5163   20.2142 N   0  0  0  0  0  0  0  0  0  0  0  0
    9.6478  -15.5488   21.8644 C   0  0  0  0  0  0  0  0  0  0  0  0
   10.6486  -14.9305   22.3415 O   0  0  0  0  0  0  0  0  0  0  0  0
    6.7815  -16.6293   24.5221 O   0  0  0  0  0  0  0  0  0  0  0  0
    7.7917  -15.7407   24.9117 C   0  0  0  0  0  0  0  0  0  0  0  0
    9.0684  -16.2466   24.2262 C   0  0  2  0  0  0  0  0  0  0  0  0
    8.7950  -16.1894   22.8010 N   0  0  0  0  0  0  0  0  0  0  0  0
    9.4181  -17.5996   24.6714 C   0  0  0  0  0  0  0  0  0  0  0  0
    8.9953  -18.5650   23.9768 O   0  0  0  0  0  0  0  0  0  0  0  0
   11.3134  -19.7978   22.3596 N   0  0  0  0  0  0  0  0  0  0  0  0
   11.7182  -20.1056   23.6716 C   0  0  0  0  0  0  0  0  0  0  0  0
   11.8711  -21.3074   24.0690 O   0  0  0  0  0  0  0  0  0  0  0  0
   11.9832  -19.0532   24.6432 C   0  0  0  0  0  0  0  0  0  0  0  0
   11.1038  -19.0007   25.8382 C   0  0  2  0  0  0  0  0  0  0  0  0
   10.1885  -17.8924   25.8137 N   0  0  0  0  0  0  0  0  0  0  0  0
   11.8319  -19.0619   27.1283 C   0  0  0  0  0  0  0  0  0  0  0  0
   12.4683  -18.0534   27.4915 O   0  0  0  0  0  0  0  0  0  0  0  0
   11.8461  -20.1648   27.9463 O   0  0  0  0  0  0  0  0  0  0  0  0
  2  1  1  0
  3  2  1  0
  4  5  1  0
  4  3  1  0
  5  7  1  0
  5  6  1  1
  7  8  2  0
  9 10  1  0
 11 10  1  1
 11 13  1  0
 12  7  1  0
 12 11  1  0
 13 20  1  0
 14 13  2  0
 16 15  1  0
 17 16  2  0
 18 16  1  0
 19 18  1  6
 20 19  1  0
 21 23  1  0
 21 19  1  0
 22 21  2  0
M  END
$$$$
