MSN.pdb
     RDKit          3D

 23 22  0  0  1  0  0  0  0  0999 V2000
    8.1472  -11.6294   26.3475 C   0  0  0  0  0  0  0  0  0  0  0  0
    6.6079  -12.3352   26.9861 S   0  0  0  0  0  0  0  0  0  0  0  0
    6.0692  -13.6363   25.8415 C   0  0  0  0  0  0  0  0  0  0  0  0
    7.2705  -14.5548   25.6193 C   0  0  0  0  0  0  0  0  0  0  0  0
    6.8050  -15.6161   24.6349 C   0  0  2  0  0  0  0  0  0  0  0  0
    5.7814  -16.4585   25.2335 N   0  0  0  0  0  0  0  0  0  0  0  0
    7.9864  -16.4898   24.3719 C   0  0  0  0  0  0  0  0  0  0  0  0
    8.2469  -17.5086   25.0831 O   0  0  0  0  0  0  0  0  0  0  0  0
    9.6128  -15.6040   21.1813 O   0  0  0  0  0  0  0  0  0  0  0  0
   10.5838  -16.4908   21.6636 C   0  0  0  0  0  0  0  0  0  0  0  0
    9.9939  -17.0830   22.9508 C   0  0  2  0  0  0  0  0  0  0  0  0
    8.8812  -16.2188   23.3039 N   0  0  0  0  0  0  0  0  0  0  0  0
   10.9980  -17.1601   24.0171 C   0  0  0  0  0  0  0  0  0  0  0  0
   11.3644  -16.0747   24.5470 O   0  0  0  0  0  0  0  0  0  0  0  0
    9.8049  -19.8775   27.1064 N   0  0  0  0  0  0  0  0  0  0  0  0
   10.9686  -19.1354   27.3803 C   0  0  0  0  0  0  0  0  0  0  0  0
   11.0063  -18.2476   28.2946 O   0  0  0  0  0  0  0  0  0  0  0  0
   12.1939  -19.3517   26.6229 C   0  0  0  0  0  0  0  0  0  0  0  0
   12.5213  -18.3572   25.5704 C   0  0  2  0  0  0  0  0  0  0  0  0
   11.5771  -18.3553   24.4864 N   0  0  0  0  0  0  0  0  0  0  0  0
   13.9123  -18.4468   25.0650 C   0  0  0  0  0  0  0  0  0  0  0  0
   14.0900  -18.8753   23.9080 O   0  0  0  0  0  0  0  0  0  0  0  0
   15.0162  -18.0854   25.7974 O   0  0  0  0  0  0  0  0  0  0  0  0
  2  1  1  0
  3  2  1  0
  4  5  1  0
  4  3  1  0
  5  7  1  0
  5  6  1  1
  7  8  2  0
  9 10  1  0
 11 10  1  6
 11 13  1  0
 12  7  1  0
 12 11  1  0
 13 20  1  0
 14 13  2  0
 16 15  1  0
 17 16  2  0
 18 16  1  0
 19 18  1  1
 20 19  1  0
 21 23  1  0
 21 19  1  0
 22 21  2  0
M  END
$$$$
