MSN.pdb
     RDKit          3D

 23 22  0  0  1  0  0  0  0  0999 V2000
    7.8410  -11.7041   26.6577 C   0  0  0  0  0  0  0  0  0  0  0  0
    6.0843  -12.1242   26.5434 S   0  0  0  0  0  0  0  0  0  0  0  0
    5.9316  -13.9302   26.6343 C   0  0  0  0  0  0  0  0  0  0  0  0
    7.1754  -14.5132   25.9642 C   0  0  0  0  0  0  0  0  0  0  0  0
    6.6738  -15.6183   25.0481 C   0  0  2  0  0  0  0  0  0  0  0  0
    6.1079  -16.7112   25.8234 N   0  0  0  0  0  0  0  0  0  0  0  0
    7.8761  -16.1600   24.3486 C   0  0  0  0  0  0  0  0  0  0  0  0
    8.6908  -16.9510   24.9162 O   0  0  0  0  0  0  0  0  0  0  0  0
    8.9646  -14.4800   20.9201 O   0  0  0  0  0  0  0  0  0  0  0  0
    9.0904  -15.8707   20.8112 C   0  0  0  0  0  0  0  0  0  0  0  0
    9.2695  -16.3792   22.2482 C   0  0  2  0  0  0  0  0  0  0  0  0
    8.1662  -15.8120   23.0033 N   0  0  0  0  0  0  0  0  0  0  0  0
   10.5744  -15.9944   22.7963 C   0  0  0  0  0  0  0  0  0  0  0  0
   10.7166  -14.7959   23.1657 O   0  0  0  0  0  0  0  0  0  0  0  0
   12.2440  -19.3663   25.3787 N   0  0  0  0  0  0  0  0  0  0  0  0
   12.5898  -18.0037   25.4405 C   0  0  0  0  0  0  0  0  0  0  0  0
   12.1348  -17.2297   26.3458 O   0  0  0  0  0  0  0  0  0  0  0  0
   13.4925  -17.4119   24.4624 C   0  0  0  0  0  0  0  0  0  0  0  0
   12.9111  -16.4252   23.5176 C   0  0  2  0  0  0  0  0  0  0  0  0
   11.6719  -16.8660   22.9374 N   0  0  0  0  0  0  0  0  0  0  0  0
   13.8538  -15.9612   22.4716 C   0  0  0  0  0  0  0  0  0  0  0  0
   14.9417  -15.4739   22.8362 O   0  0  0  0  0  0  0  0  0  0  0  0
   13.5981  -16.0367   21.1245 O   0  0  0  0  0  0  0  0  0  0  0  0
  2  1  1  0
  3  2  1  0
  4  5  1  0
  4  3  1  0
  5  7  1  0
  5  6  1  1
  7  8  2  0
  9 10  1  0
 11 10  1  6
 11 13  1  0
 12  7  1  0
 12 11  1  0
 13 20  1  0
 14 13  2  0
 16 15  1  0
 17 16  2  0
 18 16  1  0
 19 18  1  6
 20 19  1  0
 21 23  1  0
 21 19  1  0
 22 21  2  0
M  END
$$$$
