MSN.pdb
     RDKit          3D

 23 22  0  0  1  0  0  0  0  0999 V2000
    7.8810  -11.1555   26.2523 C   0  0  0  0  0  0  0  0  0  0  0  0
    6.3362  -11.9089   26.8193 S   0  0  0  0  0  0  0  0  0  0  0  0
    5.8914  -13.2250   25.6516 C   0  0  0  0  0  0  0  0  0  0  0  0
    7.0865  -14.1751   25.5803 C   0  0  0  0  0  0  0  0  0  0  0  0
    6.6797  -15.2823   24.6207 C   0  0  2  0  0  0  0  0  0  0  0  0
    5.5765  -16.0566   25.1675 N   0  0  0  0  0  0  0  0  0  0  0  0
    7.8503  -16.2036   24.5243 C   0  0  0  0  0  0  0  0  0  0  0  0
    8.0891  -17.0892   25.4020 O   0  0  0  0  0  0  0  0  0  0  0  0
   11.5844  -15.7313   22.2953 O   0  0  0  0  0  0  0  0  0  0  0  0
   10.5556  -16.6184   21.9539 C   0  0  0  0  0  0  0  0  0  0  0  0
    9.9001  -17.0160   23.2835 C   0  0  2  0  0  0  0  0  0  0  0  0
    8.7588  -16.1308   23.4361 N   0  0  0  0  0  0  0  0  0  0  0  0
   10.8424  -16.9062   24.4020 C   0  0  0  0  0  0  0  0  0  0  0  0
   10.8712  -15.8114   25.0295 O   0  0  0  0  0  0  0  0  0  0  0  0
    9.5188  -20.4582   28.2740 N   0  0  0  0  0  0  0  0  0  0  0  0
   10.2786  -19.3002   28.0256 C   0  0  0  0  0  0  0  0  0  0  0  0
   10.9220  -18.7011   28.9490 O   0  0  0  0  0  0  0  0  0  0  0  0
   10.3641  -18.7294   26.6881 C   0  0  0  0  0  0  0  0  0  0  0  0
   11.7198  -18.4022   26.1792 C   0  0  2  0  0  0  0  0  0  0  0  0
   11.7113  -17.9328   24.8204 N   0  0  0  0  0  0  0  0  0  0  0  0
   12.7128  -19.4878   26.3617 C   0  0  0  0  0  0  0  0  0  0  0  0
   12.4784  -20.5926   25.8338 O   0  0  0  0  0  0  0  0  0  0  0  0
   13.8757  -19.3474   27.0784 O   0  0  0  0  0  0  0  0  0  0  0  0
  2  1  1  0
  3  2  1  0
  4  5  1  0
  4  3  1  0
  5  7  1  0
  5  6  1  1
  7  8  2  0
  9 10  1  0
 11 10  1  6
 11 13  1  0
 12  7  1  0
 12 11  1  0
 13 20  1  0
 14 13  2  0
 16 15  1  0
 17 16  2  0
 18 16  1  0
 19 18  1  6
 20 19  1  0
 21 23  1  0
 21 19  1  0
 22 21  2  0
M  END
$$$$
