MSN.pdb
     RDKit          3D

 23 22  0  0  1  0  0  0  0  0999 V2000
    7.6378  -17.5982   16.5907 C   0  0  0  0  0  0  0  0  0  0  0  0
    8.2591  -16.2148   15.6029 S   0  0  0  0  0  0  0  0  0  0  0  0
    7.8826  -14.6772   16.4904 C   0  0  0  0  0  0  0  0  0  0  0  0
    8.3787  -14.8617   17.9243 C   0  0  0  0  0  0  0  0  0  0  0  0
    7.9009  -13.6376   18.6894 C   0  0  2  0  0  0  0  0  0  0  0  0
    8.3952  -12.4185   18.0689 N   0  0  0  0  0  0  0  0  0  0  0  0
    8.5258  -13.7197   20.0426 C   0  0  0  0  0  0  0  0  0  0  0  0
    9.7433  -13.4226   20.2454 O   0  0  0  0  0  0  0  0  0  0  0  0
    6.4877  -15.7162   23.0068 O   0  0  0  0  0  0  0  0  0  0  0  0
    7.2106  -14.5974   23.4400 C   0  0  0  0  0  0  0  0  0  0  0  0
    8.3815  -14.4612   22.4572 C   0  0  2  0  0  0  0  0  0  0  0  0
    7.7798  -14.1376   21.1756 N   0  0  0  0  0  0  0  0  0  0  0  0
    9.1826  -15.6885   22.4014 C   0  0  0  0  0  0  0  0  0  0  0  0
    9.2797  -16.2661   21.2833 O   0  0  0  0  0  0  0  0  0  0  0  0
   13.5122  -15.1375   20.8111 N   0  0  0  0  0  0  0  0  0  0  0  0
   12.5203  -15.9307   21.4167 C   0  0  0  0  0  0  0  0  0  0  0  0
   11.9403  -16.8812   20.7956 O   0  0  0  0  0  0  0  0  0  0  0  0
   12.1085  -15.6979   22.7944 C   0  0  0  0  0  0  0  0  0  0  0  0
   11.2103  -16.7068   23.4102 C   0  0  2  0  0  0  0  0  0  0  0  0
    9.8464  -16.2620   23.5034 N   0  0  0  0  0  0  0  0  0  0  0  0
   11.6902  -17.2299   24.7118 C   0  0  0  0  0  0  0  0  0  0  0  0
   12.2822  -18.3269   24.7213 O   0  0  0  0  0  0  0  0  0  0  0  0
   11.5204  -16.5763   25.9075 O   0  0  0  0  0  0  0  0  0  0  0  0
  2  1  1  0
  3  2  1  0
  4  5  1  0
  4  3  1  0
  5  7  1  0
  5  6  1  6
  7  8  2  0
  9 10  1  0
 11 10  1  1
 11 13  1  0
 12  7  1  0
 12 11  1  0
 13 20  1  0
 14 13  2  0
 16 15  1  0
 17 16  2  0
 18 16  1  0
 19 18  1  1
 20 19  1  0
 21 23  1  0
 21 19  1  0
 22 21  2  0
M  END
$$$$
