MSN.pdb
     RDKit          3D

 23 22  0  0  1  0  0  0  0  0999 V2000
   10.8805  -13.2016   28.7413 C   0  0  0  0  0  0  0  0  0  0  0  0
    9.6704  -14.5408   28.8737 S   0  0  0  0  0  0  0  0  0  0  0  0
   10.5564  -16.0544   29.3400 C   0  0  0  0  0  0  0  0  0  0  0  0
   11.2425  -16.5720   28.0761 C   0  0  0  0  0  0  0  0  0  0  0  0
   10.1604  -17.2812   27.2773 C   0  0  2  0  0  0  0  0  0  0  0  0
    9.7441  -18.5030   27.9478 N   0  0  0  0  0  0  0  0  0  0  0  0
   10.7915  -17.6880   25.9871 C   0  0  0  0  0  0  0  0  0  0  0  0
   11.4864  -18.7446   25.8767 O   0  0  0  0  0  0  0  0  0  0  0  0
    9.8690  -15.4790   23.0113 O   0  0  0  0  0  0  0  0  0  0  0  0
   10.6441  -16.5105   22.4662 C   0  0  0  0  0  0  0  0  0  0  0  0
   11.4757  -17.0585   23.6341 C   0  0  2  0  0  0  0  0  0  0  0  0
   10.6418  -16.9043   24.8131 N   0  0  0  0  0  0  0  0  0  0  0  0
   12.7549  -16.3524   23.7616 C   0  0  0  0  0  0  0  0  0  0  0  0
   13.0041  -15.8013   24.8695 O   0  0  0  0  0  0  0  0  0  0  0  0
   17.7872  -15.5854   23.8979 N   0  0  0  0  0  0  0  0  0  0  0  0
   16.7600  -15.5987   24.8595 C   0  0  0  0  0  0  0  0  0  0  0  0
   16.9916  -15.4218   26.1007 O   0  0  0  0  0  0  0  0  0  0  0  0
   15.3723  -15.8176   24.4744 C   0  0  0  0  0  0  0  0  0  0  0  0
   15.0757  -15.8717   23.0207 C   0  0  2  0  0  0  0  0  0  0  0  0
   13.7174  -16.2486   22.7385 N   0  0  0  0  0  0  0  0  0  0  0  0
   16.0301  -16.6936   22.2387 C   0  0  0  0  0  0  0  0  0  0  0  0
   17.1944  -16.2697   22.1014 O   0  0  0  0  0  0  0  0  0  0  0  0
   15.7063  -17.8945   21.6567 O   0  0  0  0  0  0  0  0  0  0  0  0
  2  1  1  0
  3  2  1  0
  4  5  1  0
  4  3  1  0
  5  7  1  0
  5  6  1  1
  7  8  2  0
  9 10  1  0
 11 10  1  6
 11 13  1  0
 12  7  1  0
 12 11  1  0
 13 20  1  0
 14 13  2  0
 16 15  1  0
 17 16  2  0
 18 16  1  0
 19 18  1  1
 20 19  1  0
 21 23  1  0
 21 19  1  0
 22 21  2  0
M  END
$$$$
