LYC.pdb
     RDKit          3D

 27 27  0  0  1  0  0  0  0  0999 V2000
   32.5890  -26.0317  -19.5169 C   0  0  0  0  0  0  0  0  0  0  0  0
   31.9776  -25.6877  -18.1751 C   0  0  1  0  0  0  0  0  0  0  0  0
   32.7375  -24.4708  -17.6380 C   0  0  0  0  0  0  0  0  0  0  0  0
   30.5442  -25.2787  -18.2880 C   0  0  0  0  0  0  0  0  0  0  0  0
   29.9434  -24.7499  -17.0247 C   0  0  2  0  0  0  0  0  0  0  0  0
   30.1087  -25.7959  -16.0028 N   0  0  0  0  0  0  0  0  0  0  0  0
   28.4940  -24.4767  -17.1043 C   0  0  0  0  0  0  0  0  0  0  0  0
   28.1171  -23.5947  -17.9438 O   0  0  0  0  0  0  0  0  0  0  0  0
   19.8786  -26.8179  -16.0879 O   0  0  0  0  0  0  0  0  0  0  0  0
   21.2607  -26.6889  -16.2620 C   0  0  0  0  0  0  0  0  0  0  0  0
   21.8445  -26.4348  -17.4733 C   0  0  0  0  0  0  0  0  0  0  0  0
   23.2346  -26.3160  -17.5860 C   0  0  0  0  0  0  0  0  0  0  0  0
   24.0452  -26.4516  -16.4838 C   0  0  0  0  0  0  0  0  0  0  0  0
   25.5077  -26.3348  -16.5551 C   0  0  0  0  0  0  0  0  0  0  0  0
   26.0748  -24.9560  -16.5319 C   0  0  2  0  0  0  0  0  0  0  0  0
   27.5291  -25.1439  -16.2998 N   0  0  0  0  0  0  0  0  0  0  0  0
   25.5952  -24.0765  -15.4582 C   0  0  0  0  0  0  0  0  0  0  0  0
   25.9701  -24.3272  -14.2690 O   0  0  0  0  0  0  0  0  0  0  0  0
   23.4208  -26.7076  -15.2775 C   0  0  0  0  0  0  0  0  0  0  0  0
   22.0538  -26.8282  -15.1454 C   0  0  0  0  0  0  0  0  0  0  0  0
   24.7427  -22.9540  -15.6385 N   0  0  0  0  0  0  0  0  0  0  0  0
   24.3078  -22.1942  -14.5083 C   0  0  1  0  0  0  0  0  0  0  0  0
   24.4948  -20.6939  -14.7333 C   0  0  0  0  0  0  0  0  0  0  0  0
   23.0384  -19.9918  -15.5566 S   0  0  0  0  0  0  0  0  0  0  0  0
   22.9225  -22.4521  -14.1027 C   0  0  0  0  0  0  0  0  0  0  0  0
   22.3744  -22.0255  -12.9113 O   0  0  0  0  0  0  0  0  0  0  0  0
   22.1505  -23.1036  -14.8660 O   0  0  0  0  0  0  0  0  0  0  0  0
  2  1  1  6
  3  2  1  0
  4  5  1  0
  4  2  1  0
  5  6  1  1
  7  5  1  0
  7  8  2  0
  9 10  1  0
 10 11  2  0
 11 12  1  0
 13 12  2  0
 13 14  1  0
 15 14  1  1
 15 16  1  0
 16  7  1  0
 17 15  1  0
 18 17  2  0
 19 13  1  0
 20 10  1  0
 20 19  2  0
 21 17  1  0
 22 21  1  0
 22 25  1  0
 22 23  1  6
 24 23  1  0
 25 26  1  0
 27 25  2  0
M  END
$$$$
