LYC.pdb
     RDKit          3D

 27 27  0  0  1  0  0  0  0  0999 V2000
   28.2801  -16.4633  -16.9563 C   0  0  0  0  0  0  0  0  0  0  0  0
   27.4572  -17.7299  -16.8512 C   0  0  1  0  0  0  0  0  0  0  0  0
   28.4448  -18.8993  -16.7912 C   0  0  0  0  0  0  0  0  0  0  0  0
   26.6533  -17.7865  -15.5922 C   0  0  0  0  0  0  0  0  0  0  0  0
   26.0775  -19.1304  -15.2777 C   0  0  2  0  0  0  0  0  0  0  0  0
   25.0008  -19.3722  -16.2513 N   0  0  0  0  0  0  0  0  0  0  0  0
   25.4557  -19.2321  -13.9417 C   0  0  0  0  0  0  0  0  0  0  0  0
   24.7451  -18.2459  -13.5580 O   0  0  0  0  0  0  0  0  0  0  0  0
   19.0809  -20.5612  -14.6716 O   0  0  0  0  0  0  0  0  0  0  0  0
   20.2575  -20.7992  -13.9530 C   0  0  0  0  0  0  0  0  0  0  0  0
   20.3766  -20.5683  -12.6095 C   0  0  0  0  0  0  0  0  0  0  0  0
   21.5807  -20.8258  -11.9440 C   0  0  0  0  0  0  0  0  0  0  0  0
   22.6707  -21.3163  -12.6235 C   0  0  0  0  0  0  0  0  0  0  0  0
   23.9532  -21.6011  -11.9664 C   0  0  0  0  0  0  0  0  0  0  0  0
   24.8922  -20.4552  -11.7978 C   0  0  2  0  0  0  0  0  0  0  0  0
   25.6165  -20.3603  -13.0903 N   0  0  0  0  0  0  0  0  0  0  0  0
   25.9190  -20.6068  -10.7589 C   0  0  0  0  0  0  0  0  0  0  0  0
   26.5847  -21.6901  -10.7311 O   0  0  0  0  0  0  0  0  0  0  0  0
   22.5136  -21.5373  -13.9789 C   0  0  0  0  0  0  0  0  0  0  0  0
   21.3366  -21.2902  -14.6529 C   0  0  0  0  0  0  0  0  0  0  0  0
   26.2381  -19.6326   -9.7748 N   0  0  0  0  0  0  0  0  0  0  0  0
   26.6644  -20.0409   -8.4727 C   0  0  1  0  0  0  0  0  0  0  0  0
   27.0991  -18.8469   -7.6230 C   0  0  0  0  0  0  0  0  0  0  0  0
   27.6152  -19.3993   -5.9736 S   0  0  0  0  0  0  0  0  0  0  0  0
   25.6734  -20.8260   -7.7302 C   0  0  0  0  0  0  0  0  0  0  0  0
   25.9886  -21.8815   -6.9003 O   0  0  0  0  0  0  0  0  0  0  0  0
   24.4421  -20.5490   -7.8309 O   0  0  0  0  0  0  0  0  0  0  0  0
  2  1  1  1
  3  2  1  0
  4  5  1  0
  4  2  1  0
  5  6  1  6
  7  5  1  0
  7  8  2  0
  9 10  1  0
 10 11  2  0
 11 12  1  0
 13 12  2  0
 13 14  1  0
 15 14  1  6
 15 16  1  0
 16  7  1  0
 17 15  1  0
 18 17  2  0
 19 13  1  0
 20 10  1  0
 20 19  2  0
 21 17  1  0
 22 21  1  0
 22 25  1  0
 22 23  1  1
 24 23  1  0
 25 26  1  0
 27 25  2  0
M  END
$$$$
