YAF.pdb
     RDKit          3D

 29 30  0  0  1  0  0  0  0  0999 V2000
    8.3910  -22.2464   29.3818 O   0  0  0  0  0  0  0  0  0  0  0  0
    8.1358  -21.2750   28.4033 C   0  0  0  0  0  0  0  0  0  0  0  0
    6.8448  -20.9347   28.0512 C   0  0  0  0  0  0  0  0  0  0  0  0
    6.5566  -19.9851   27.0944 C   0  0  0  0  0  0  0  0  0  0  0  0
    7.5832  -19.3321   26.4460 C   0  0  0  0  0  0  0  0  0  0  0  0
    7.3444  -18.3067   25.4134 C   0  0  0  0  0  0  0  0  0  0  0  0
    6.8124  -18.9428   24.1276 C   0  0  2  0  0  0  0  0  0  0  0  0
    7.4685  -20.2145   23.9709 N   0  0  0  0  0  0  0  0  0  0  0  0
    7.1099  -18.0395   22.9939 C   0  0  0  0  0  0  0  0  0  0  0  0
    8.0992  -18.3631   22.2611 O   0  0  0  0  0  0  0  0  0  0  0  0
    8.8753  -19.6654   26.7911 C   0  0  0  0  0  0  0  0  0  0  0  0
    9.1559  -20.6146   27.7473 C   0  0  0  0  0  0  0  0  0  0  0  0
    5.9753  -14.7475   21.5466 C   0  0  0  0  0  0  0  0  0  0  0  0
    6.9779  -15.8320   21.9307 C   0  0  2  0  0  0  0  0  0  0  0  0
    6.3649  -16.8678   22.6985 N   0  0  0  0  0  0  0  0  0  0  0  0
    8.0933  -15.1665   22.6578 C   0  0  0  0  0  0  0  0  0  0  0  0
    8.8422  -14.3487   22.0867 O   0  0  0  0  0  0  0  0  0  0  0  0
    8.2835  -15.4823   24.0070 N   0  0  0  0  0  0  0  0  0  0  0  0
    9.2999  -14.8871   24.8520 C   0  0  1  0  0  0  0  0  0  0  0  0
    8.5898  -14.5174   26.1368 C   0  0  0  0  0  0  0  0  0  0  0  0
    7.7781  -13.3064   26.0676 C   0  0  0  0  0  0  0  0  0  0  0  0
    6.4121  -13.3324   26.2488 C   0  0  0  0  0  0  0  0  0  0  0  0
    5.6528  -12.1585   26.1813 C   0  0  0  0  0  0  0  0  0  0  0  0
    6.2652  -10.9431   25.9297 C   0  0  0  0  0  0  0  0  0  0  0  0
    7.6314  -10.9130   25.7480 C   0  0  0  0  0  0  0  0  0  0  0  0
    8.3673  -12.0945   25.8197 C   0  0  0  0  0  0  0  0  0  0  0  0
   10.3543  -15.8986   25.0588 C   0  0  0  0  0  0  0  0  0  0  0  0
   11.5452  -15.5194   25.6454 O   0  0  0  0  0  0  0  0  0  0  0  0
   10.2243  -17.0911   24.7278 O   0  0  0  0  0  0  0  0  0  0  0  0
  2 12  2  0
  2  1  1  0
  3  2  1  0
  4  5  1  0
  4  3  2  0
  5 11  2  0
  6  5  1  0
  7  8  1  6
  7  6  1  0
  9  7  1  0
 10  9  2  0
 11 12  1  0
 14 13  1  1
 14 16  1  0
 14 15  1  0
 15  9  1  0
 16 17  2  0
 18 19  1  0
 18 16  1  0
 19 20  1  1
 20 21  1  0
 21 22  2  0
 22 23  1  0
 24 23  2  0
 25 24  1  0
 26 25  2  0
 26 21  1  0
 27 19  1  0
 28 27  1  0
 29 27  2  0
M  END
$$$$
