YAF.pdb
     RDKit          3D

 29 30  0  0  1  0  0  0  0  0999 V2000
   13.2545  -22.6031   16.1848 O   0  0  0  0  0  0  0  0  0  0  0  0
   12.7118  -21.6549   17.0640 C   0  0  0  0  0  0  0  0  0  0  0  0
   12.6378  -20.3196   16.7209 C   0  0  0  0  0  0  0  0  0  0  0  0
   12.1111  -19.3605   17.5593 C   0  0  0  0  0  0  0  0  0  0  0  0
   11.6305  -19.7237   18.7994 C   0  0  0  0  0  0  0  0  0  0  0  0
   11.0547  -18.7484   19.7440 C   0  0  0  0  0  0  0  0  0  0  0  0
    9.5455  -18.9555   19.8873 C   0  0  2  0  0  0  0  0  0  0  0  0
    8.9356  -18.5668   18.6427 N   0  0  0  0  0  0  0  0  0  0  0  0
    9.0576  -18.1234   21.0097 C   0  0  0  0  0  0  0  0  0  0  0  0
    9.3937  -16.8958   20.9877 O   0  0  0  0  0  0  0  0  0  0  0  0
   11.7002  -21.0546   19.1504 C   0  0  0  0  0  0  0  0  0  0  0  0
   12.2275  -22.0071   18.3084 C   0  0  0  0  0  0  0  0  0  0  0  0
    6.5519  -18.2989   23.7937 C   0  0  0  0  0  0  0  0  0  0  0  0
    7.7270  -17.6987   23.0271 C   0  0  2  0  0  0  0  0  0  0  0  0
    8.2584  -18.6185   22.0732 N   0  0  0  0  0  0  0  0  0  0  0  0
    8.7385  -17.2700   24.0315 C   0  0  0  0  0  0  0  0  0  0  0  0
    9.6535  -18.0349   24.3967 O   0  0  0  0  0  0  0  0  0  0  0  0
    8.6380  -15.9790   24.5602 N   0  0  0  0  0  0  0  0  0  0  0  0
    9.5598  -15.4159   25.5269 C   0  0  1  0  0  0  0  0  0  0  0  0
    9.4263  -13.9147   25.3839 C   0  0  0  0  0  0  0  0  0  0  0  0
    8.1494  -13.3632   25.8257 C   0  0  0  0  0  0  0  0  0  0  0  0
    7.9740  -12.8555   27.0949 C   0  0  0  0  0  0  0  0  0  0  0  0
    6.7414  -12.3283   27.4973 C   0  0  0  0  0  0  0  0  0  0  0  0
    5.6703  -12.3076   26.6212 C   0  0  0  0  0  0  0  0  0  0  0  0
    5.8417  -12.8144   25.3506 C   0  0  0  0  0  0  0  0  0  0  0  0
    7.0782  -13.3344   24.9719 C   0  0  0  0  0  0  0  0  0  0  0  0
    9.1525  -15.8959   26.8616 C   0  0  0  0  0  0  0  0  0  0  0  0
   10.0268  -15.7604   27.9215 O   0  0  0  0  0  0  0  0  0  0  0  0
    8.0475  -16.4232   27.0845 O   0  0  0  0  0  0  0  0  0  0  0  0
  2 12  2  0
  2  1  1  0
  3  2  1  0
  4  5  1  0
  4  3  2  0
  5 11  2  0
  6  5  1  0
  7  8  1  6
  7  6  1  0
  9  7  1  0
 10  9  2  0
 11 12  1  0
 14 13  1  1
 14 16  1  0
 14 15  1  0
 15  9  1  0
 16 17  2  0
 18 19  1  0
 18 16  1  0
 19 20  1  1
 20 21  1  0
 21 22  2  0
 22 23  1  0
 24 23  2  0
 25 24  1  0
 26 25  2  0
 26 21  1  0
 27 19  1  0
 28 27  1  0
 29 27  2  0
M  END
$$$$
