YAF.pdb
     RDKit          3D

 29 30  0  0  1  0  0  0  0  0999 V2000
    7.3226  -13.3034   15.7137 O   0  0  0  0  0  0  0  0  0  0  0  0
    7.3618  -13.6983   17.0586 C   0  0  0  0  0  0  0  0  0  0  0  0
    7.0329  -14.9846   17.4375 C   0  0  0  0  0  0  0  0  0  0  0  0
    7.0601  -15.4076   18.7492 C   0  0  0  0  0  0  0  0  0  0  0  0
    7.4281  -14.5283   19.7451 C   0  0  0  0  0  0  0  0  0  0  0  0
    7.4782  -14.9159   21.1672 C   0  0  0  0  0  0  0  0  0  0  0  0
    8.9149  -14.8760   21.6917 C   0  0  2  0  0  0  0  0  0  0  0  0
    9.7637  -15.4314   20.6703 N   0  0  0  0  0  0  0  0  0  0  0  0
    8.9856  -15.6673   22.9403 C   0  0  0  0  0  0  0  0  0  0  0  0
    8.0521  -15.4725   23.7836 O   0  0  0  0  0  0  0  0  0  0  0  0
    7.7582  -13.2420   19.3762 C   0  0  0  0  0  0  0  0  0  0  0  0
    7.7288  -12.8263   18.0646 C   0  0  0  0  0  0  0  0  0  0  0  0
   11.0225  -18.4020   24.5389 C   0  0  0  0  0  0  0  0  0  0  0  0
   10.0333  -17.2406   24.5049 C   0  0  2  0  0  0  0  0  0  0  0  0
   10.0143  -16.6021   23.2281 N   0  0  0  0  0  0  0  0  0  0  0  0
   10.4067  -16.3084   25.6037 C   0  0  0  0  0  0  0  0  0  0  0  0
   11.2730  -15.4264   25.4387 O   0  0  0  0  0  0  0  0  0  0  0  0
    9.7582  -16.4459   26.8353 N   0  0  0  0  0  0  0  0  0  0  0  0
   10.1304  -15.7324   28.0409 C   0  0  1  0  0  0  0  0  0  0  0  0
    8.8410  -15.1476   28.5772 C   0  0  0  0  0  0  0  0  0  0  0  0
    8.3547  -13.9691   27.8669 C   0  0  0  0  0  0  0  0  0  0  0  0
    9.1501  -12.8629   27.6586 C   0  0  0  0  0  0  0  0  0  0  0  0
    8.6646  -11.7441   26.9719 C   0  0  0  0  0  0  0  0  0  0  0  0
    7.3685  -11.7294   26.4870 C   0  0  0  0  0  0  0  0  0  0  0  0
    6.5698  -12.8339   26.6932 C   0  0  0  0  0  0  0  0  0  0  0  0
    7.0745  -13.9369   27.3797 C   0  0  0  0  0  0  0  0  0  0  0  0
   10.7371  -16.7088   28.9663 C   0  0  0  0  0  0  0  0  0  0  0  0
   10.7391  -18.0469   28.6266 O   0  0  0  0  0  0  0  0  0  0  0  0
   11.2537  -16.3846   30.0510 O   0  0  0  0  0  0  0  0  0  0  0  0
  2 12  2  0
  2  1  1  0
  3  2  1  0
  4  5  1  0
  4  3  2  0
  5 11  2  0
  6  5  1  0
  7  8  1  6
  7  6  1  0
  9  7  1  0
 10  9  2  0
 11 12  1  0
 14 13  1  6
 14 16  1  0
 14 15  1  0
 15  9  1  0
 16 17  2  0
 18 19  1  0
 18 16  1  0
 19 20  1  1
 20 21  1  0
 21 22  2  0
 22 23  1  0
 24 23  2  0
 25 24  1  0
 26 25  2  0
 26 21  1  0
 27 19  1  0
 28 27  1  0
 29 27  2  0
M  END
$$$$
