YAF.pdb
     RDKit          3D

 29 30  0  0  1  0  0  0  0  0999 V2000
    6.3532  -13.5095   15.2163 O   0  0  0  0  0  0  0  0  0  0  0  0
    7.1043  -14.1954   16.1816 C   0  0  0  0  0  0  0  0  0  0  0  0
    7.6615  -13.5346   17.2583 C   0  0  0  0  0  0  0  0  0  0  0  0
    8.4052  -14.1760   18.2256 C   0  0  0  0  0  0  0  0  0  0  0  0
    8.6169  -15.5355   18.1378 C   0  0  0  0  0  0  0  0  0  0  0  0
    9.4023  -16.2824   19.1379 C   0  0  0  0  0  0  0  0  0  0  0  0
    8.5100  -16.7572   20.2865 C   0  0  2  0  0  0  0  0  0  0  0  0
    7.5964  -15.6882   20.5946 N   0  0  0  0  0  0  0  0  0  0  0  0
    9.3668  -17.0853   21.4476 C   0  0  0  0  0  0  0  0  0  0  0  0
   10.1640  -18.0666   21.2993 O   0  0  0  0  0  0  0  0  0  0  0  0
    8.0644  -16.2034   17.0663 C   0  0  0  0  0  0  0  0  0  0  0  0
    7.3228  -15.5567   16.1041 C   0  0  0  0  0  0  0  0  0  0  0  0
   11.3020  -14.9780   23.0815 C   0  0  0  0  0  0  0  0  0  0  0  0
   10.5434  -16.2543   23.4341 C   0  0  2  0  0  0  0  0  0  0  0  0
    9.3389  -16.3770   22.6775 N   0  0  0  0  0  0  0  0  0  0  0  0
   10.2957  -16.2312   24.9017 C   0  0  0  0  0  0  0  0  0  0  0  0
   11.2105  -15.9727   25.7091 O   0  0  0  0  0  0  0  0  0  0  0  0
    9.0028  -16.5084   25.3576 N   0  0  0  0  0  0  0  0  0  0  0  0
    8.6100  -16.5137   26.7529 C   0  0  1  0  0  0  0  0  0  0  0  0
    7.2293  -15.8936   26.7851 C   0  0  0  0  0  0  0  0  0  0  0  0
    7.1913  -14.4568   26.5324 C   0  0  0  0  0  0  0  0  0  0  0  0
    7.8947  -13.5607   27.3082 C   0  0  0  0  0  0  0  0  0  0  0  0
    7.8467  -12.1865   27.0465 C   0  0  0  0  0  0  0  0  0  0  0  0
    7.0867  -11.7008   25.9969 C   0  0  0  0  0  0  0  0  0  0  0  0
    6.3817  -12.5938   25.2185 C   0  0  0  0  0  0  0  0  0  0  0  0
    6.4445  -13.9580   25.4977 C   0  0  0  0  0  0  0  0  0  0  0  0
    8.6112  -17.9168   27.2100 C   0  0  0  0  0  0  0  0  0  0  0  0
    8.8435  -18.9231   26.2937 O   0  0  0  0  0  0  0  0  0  0  0  0
    8.4112  -18.2445   28.3937 O   0  0  0  0  0  0  0  0  0  0  0  0
  2 12  2  0
  2  1  1  0
  3  2  1  0
  4  5  1  0
  4  3  2  0
  5 11  2  0
  6  5  1  0
  7  8  1  1
  7  6  1  0
  9  7  1  0
 10  9  2  0
 11 12  1  0
 14 13  1  6
 14 16  1  0
 14 15  1  0
 15  9  1  0
 16 17  2  0
 18 19  1  0
 18 16  1  0
 19 20  1  6
 20 21  1  0
 21 22  2  0
 22 23  1  0
 24 23  2  0
 25 24  1  0
 26 25  2  0
 26 21  1  0
 27 19  1  0
 28 27  1  0
 29 27  2  0
M  END
$$$$
