NRI.pdb
     RDKit          3D

 28 27  0  0  1  0  0  0  0  0999 V2000
   17.1086  -17.9253  -16.9187 N   0  0  0  0  0  0  0  0  0  0  0  0
   18.1468  -18.8050  -16.5374 C   0  0  0  0  0  0  0  0  0  0  0  0
   18.1521  -19.9783  -16.9617 O   0  0  0  0  0  0  0  0  0  0  0  0
   19.2194  -18.3289  -15.6382 C   0  0  0  0  0  0  0  0  0  0  0  0
   20.0938  -19.4774  -15.2144 C   0  0  2  0  0  0  0  0  0  0  0  0
   19.4730  -20.1431  -14.1106 N   0  0  0  0  0  0  0  0  0  0  0  0
   21.4349  -18.9464  -14.8347 C   0  0  0  0  0  0  0  0  0  0  0  0
   21.5049  -18.0594  -13.9578 O   0  0  0  0  0  0  0  0  0  0  0  0
   25.9339  -23.0812  -14.5649 N   0  0  0  0  0  0  0  0  0  0  0  0
   26.3905  -22.6185  -13.3019 C   0  0  0  0  0  0  0  0  0  0  0  0
   26.2406  -23.3161  -12.2240 N   0  0  0  0  0  0  0  0  0  0  0  0
   27.0246  -21.3583  -13.2331 N   0  0  0  0  0  0  0  0  0  0  0  0
   27.3050  -20.5465  -14.3956 C   0  0  0  0  0  0  0  0  0  0  0  0
   26.2543  -19.4896  -14.5024 C   0  0  0  0  0  0  0  0  0  0  0  0
   24.9389  -20.0501  -14.9431 C   0  0  0  0  0  0  0  0  0  0  0  0
   23.9193  -18.9620  -15.0306 C   0  0  2  0  0  0  0  0  0  0  0  0
   22.6245  -19.4169  -15.4367 N   0  0  0  0  0  0  0  0  0  0  0  0
   24.4069  -18.0001  -16.0624 C   0  0  0  0  0  0  0  0  0  0  0  0
   24.1013  -18.2603  -17.2547 O   0  0  0  0  0  0  0  0  0  0  0  0
   26.5571  -23.0207  -11.2997 C   0  0  0  0  0  0  0  0  0  0  0  0
   26.3547  -12.1660  -16.5657 C   0  0  0  0  0  0  0  0  0  0  0  0
   26.2959  -13.5427  -17.1156 C   0  0  2  0  0  0  0  0  0  0  0  0
   25.8128  -14.6191  -16.2217 C   0  0  0  0  0  0  0  0  0  0  0  0
   26.4808  -14.5675  -14.8663 C   0  0  2  0  0  0  0  0  0  0  0  0
   25.6374  -15.9834  -16.7881 N   0  0  0  0  0  0  0  0  0  0  0  0
   25.1659  -16.8675  -15.7075 C   0  0  0  0  0  0  0  0  0  0  0  0
   26.8463  -16.6272  -17.3271 O   0  0  0  0  0  0  0  0  0  0  0  0
   27.2596  -16.4517  -18.6488 O   0  0  0  0  0  0  0  0  0  0  0  0
  2  1  1  0
  2  3  2  0
  4  2  1  0
  5  4  1  0
  5  6  1  1
  7  8  2  0
  7  5  1  0
 10  9  1  0
 10 12  1  0
 11 10  2  0
 12 13  1  0
 13 14  1  0
 14 15  1  0
 16 15  1  6
 16 17  1  0
 17  7  1  0
 18 19  2  0
 18 16  1  0
 21 22  1  0
 21 20  1  0
 22 23  1  1
 24 22  1  0
 24 25  1  6
 25 18  1  0
 26 24  1  0
 27 26  1  0
 28 26  2  0
M  END
$$$$
