NRI.pdb
     RDKit          3D

 28 27  0  0  1  0  0  0  0  0999 V2000
   25.2706  -16.7341  -17.9842 N   0  0  0  0  0  0  0  0  0  0  0  0
   25.8447  -16.2343  -16.7935 C   0  0  0  0  0  0  0  0  0  0  0  0
   26.6670  -15.2974  -16.8476 O   0  0  0  0  0  0  0  0  0  0  0  0
   25.4671  -16.8251  -15.4920 C   0  0  0  0  0  0  0  0  0  0  0  0
   24.4673  -17.9316  -15.6910 C   0  0  2  0  0  0  0  0  0  0  0  0
   23.2421  -17.3628  -16.1624 N   0  0  0  0  0  0  0  0  0  0  0  0
   24.2661  -18.6374  -14.3926 C   0  0  0  0  0  0  0  0  0  0  0  0
   23.8506  -17.9856  -13.4111 O   0  0  0  0  0  0  0  0  0  0  0  0
   26.6443  -24.4584  -15.7364 N   0  0  0  0  0  0  0  0  0  0  0  0
   25.5551  -24.5528  -16.6432 C   0  0  0  0  0  0  0  0  0  0  0  0
   25.7328  -24.7885  -17.9018 N   0  0  0  0  0  0  0  0  0  0  0  0
   24.2446  -24.3820  -16.1450 N   0  0  0  0  0  0  0  0  0  0  0  0
   23.9564  -24.0388  -14.7710 C   0  0  0  0  0  0  0  0  0  0  0  0
   24.2926  -22.5983  -14.5599 C   0  0  0  0  0  0  0  0  0  0  0  0
   23.9861  -22.1502  -13.1657 C   0  0  0  0  0  0  0  0  0  0  0  0
   24.3281  -20.7052  -13.0028 C   0  0  2  0  0  0  0  0  0  0  0  0
   24.5311  -20.0180  -14.2418 N   0  0  0  0  0  0  0  0  0  0  0  0
   25.6091  -20.6518  -12.2387 C   0  0  0  0  0  0  0  0  0  0  0  0
   26.6520  -20.4534  -12.9135 O   0  0  0  0  0  0  0  0  0  0  0  0
   24.9773  -24.8706  -18.5832 C   0  0  0  0  0  0  0  0  0  0  0  0
   26.3334  -20.7300   -6.3684 C   0  0  0  0  0  0  0  0  0  0  0  0
   25.9957  -20.9536   -7.7957 C   0  0  2  0  0  0  0  0  0  0  0  0
   26.6884  -20.1201   -8.8039 C   0  0  0  0  0  0  0  0  0  0  0  0
   26.1842  -18.6947   -8.7984 C   0  0  1  0  0  0  0  0  0  0  0  0
   26.9331  -20.6985  -10.1524 N   0  0  0  0  0  0  0  0  0  0  0  0
   25.6348  -20.8158  -10.8397 C   0  0  0  0  0  0  0  0  0  0  0  0
   27.5228  -22.0467  -10.1877 O   0  0  0  0  0  0  0  0  0  0  0  0
   28.8754  -22.2769   -9.9313 O   0  0  0  0  0  0  0  0  0  0  0  0
  2  1  1  0
  2  3  2  0
  4  2  1  0
  5  4  1  0
  5  6  1  1
  7  8  2  0
  7  5  1  0
 10  9  1  0
 10 12  1  0
 11 10  2  0
 12 13  1  0
 13 14  1  0
 14 15  1  0
 16 15  1  6
 16 17  1  0
 17  7  1  0
 18 19  2  0
 18 16  1  0
 21 22  1  0
 21 20  1  0
 22 23  1  6
 24 22  1  0
 24 25  1  1
 25 18  1  0
 26 24  1  0
 27 26  1  0
 28 26  2  0
M  END
$$$$
