NRI.pdb
     RDKit          3D

 28 27  0  0  1  0  0  0  0  0999 V2000
   26.9384  -19.9279  -23.0580 N   0  0  0  0  0  0  0  0  0  0  0  0
   26.7482  -19.0907  -21.9354 C   0  0  0  0  0  0  0  0  0  0  0  0
   26.5013  -17.8788  -22.1008 O   0  0  0  0  0  0  0  0  0  0  0  0
   26.8434  -19.6565  -20.5729 C   0  0  0  0  0  0  0  0  0  0  0  0
   26.4530  -18.6243  -19.5503 C   0  0  2  0  0  0  0  0  0  0  0  0
   27.5783  -17.7765  -19.3021 N   0  0  0  0  0  0  0  0  0  0  0  0
   26.0216  -19.3211  -18.3041 C   0  0  0  0  0  0  0  0  0  0  0  0
   25.0834  -20.1434  -18.3680 O   0  0  0  0  0  0  0  0  0  0  0  0
   25.7519  -22.1352  -11.4364 N   0  0  0  0  0  0  0  0  0  0  0  0
   25.9016  -20.9826  -10.6199 C   0  0  0  0  0  0  0  0  0  0  0  0
   25.3451  -20.8928   -9.4565 N   0  0  0  0  0  0  0  0  0  0  0  0
   26.6826  -19.9095  -11.1027 N   0  0  0  0  0  0  0  0  0  0  0  0
   27.4979  -19.9941  -12.2932 C   0  0  0  0  0  0  0  0  0  0  0  0
   26.5994  -20.1757  -13.4731 C   0  0  0  0  0  0  0  0  0  0  0  0
   27.1381  -19.5026  -14.6960 C   0  0  0  0  0  0  0  0  0  0  0  0
   26.2204  -19.7269  -15.8531 C   0  0  2  0  0  0  0  0  0  0  0  0
   26.6423  -19.0782  -17.0572 N   0  0  0  0  0  0  0  0  0  0  0  0
   24.8974  -19.1535  -15.4680 C   0  0  0  0  0  0  0  0  0  0  0  0
   24.8453  -17.9019  -15.3528 O   0  0  0  0  0  0  0  0  0  0  0  0
   25.4820  -20.1127   -8.8127 C   0  0  0  0  0  0  0  0  0  0  0  0
   19.4316  -18.6533  -17.1512 C   0  0  0  0  0  0  0  0  0  0  0  0
   20.2991  -18.6638  -15.9477 C   0  0  2  0  0  0  0  0  0  0  0  0
   21.6432  -19.2705  -16.0754 C   0  0  0  0  0  0  0  0  0  0  0  0
   21.6159  -20.5280  -16.9144 C   0  0  2  0  0  0  0  0  0  0  0  0
   22.5073  -19.3364  -14.8662 N   0  0  0  0  0  0  0  0  0  0  0  0
   23.7770  -19.9791  -15.2489 C   0  0  0  0  0  0  0  0  0  0  0  0
   21.9898  -20.1242  -13.7357 O   0  0  0  0  0  0  0  0  0  0  0  0
   21.1641  -19.5706  -12.7559 O   0  0  0  0  0  0  0  0  0  0  0  0
  2  1  1  0
  2  3  2  0
  4  2  1  0
  5  4  1  0
  5  6  1  1
  7  8  2  0
  7  5  1  0
 10  9  1  0
 10 12  1  0
 11 10  2  0
 12 13  1  0
 13 14  1  0
 14 15  1  0
 16 15  1  1
 16 17  1  0
 17  7  1  0
 18 19  2  0
 18 16  1  0
 21 22  1  0
 21 20  1  0
 22 23  1  6
 24 22  1  0
 24 25  1  1
 25 18  1  0
 26 24  1  0
 27 26  1  0
 28 26  2  0
M  END
$$$$
