NRI.pdb
     RDKit          3D

 28 27  0  0  1  0  0  0  0  0999 V2000
   19.3586  -21.4807  -11.8822 N   0  0  0  0  0  0  0  0  0  0  0  0
   17.9846  -21.1719  -11.7634 C   0  0  0  0  0  0  0  0  0  0  0  0
   17.6253  -19.9840  -11.6349 O   0  0  0  0  0  0  0  0  0  0  0  0
   16.9827  -22.2586  -11.7920 C   0  0  0  0  0  0  0  0  0  0  0  0
   17.6661  -23.5985  -11.8212 C   0  0  2  0  0  0  0  0  0  0  0  0
   17.5879  -24.1241  -13.1495 N   0  0  0  0  0  0  0  0  0  0  0  0
   16.9920  -24.5037  -10.8460 C   0  0  0  0  0  0  0  0  0  0  0  0
   15.7657  -24.7102  -10.9646 O   0  0  0  0  0  0  0  0  0  0  0  0
   20.7614  -31.5141   -9.8305 N   0  0  0  0  0  0  0  0  0  0  0  0
   21.4644  -30.2807   -9.8768 C   0  0  0  0  0  0  0  0  0  0  0  0
   22.7278  -30.2244  -10.1447 N   0  0  0  0  0  0  0  0  0  0  0  0
   20.7532  -29.0877   -9.6205 N   0  0  0  0  0  0  0  0  0  0  0  0
   19.3170  -29.0375   -9.4667 C   0  0  0  0  0  0  0  0  0  0  0  0
   18.9067  -27.6113   -9.2929 C   0  0  0  0  0  0  0  0  0  0  0  0
   17.4272  -27.4714   -9.1201 C   0  0  0  0  0  0  0  0  0  0  0  0
   17.0698  -26.0401   -8.8853 C   0  0  2  0  0  0  0  0  0  0  0  0
   17.6991  -25.1323   -9.7953 N   0  0  0  0  0  0  0  0  0  0  0  0
   17.5386  -25.7018   -7.5093 C   0  0  0  0  0  0  0  0  0  0  0  0
   18.6025  -25.0349   -7.4319 O   0  0  0  0  0  0  0  0  0  0  0  0
   23.2777  -29.3645  -10.1435 C   0  0  0  0  0  0  0  0  0  0  0  0
   14.1073  -23.4955   -4.1334 C   0  0  0  0  0  0  0  0  0  0  0  0
   15.3486  -23.9144   -4.8298 C   0  0  2  0  0  0  0  0  0  0  0  0
   16.0411  -25.1238   -4.3308 C   0  0  0  0  0  0  0  0  0  0  0  0
   16.1561  -25.1250   -2.8232 C   0  0  2  0  0  0  0  0  0  0  0  0
   17.2501  -25.5969   -5.0570 N   0  0  0  0  0  0  0  0  0  0  0  0
   16.8202  -26.1122   -6.3690 C   0  0  0  0  0  0  0  0  0  0  0  0
   18.0023  -26.6945   -4.4278 O   0  0  0  0  0  0  0  0  0  0  0  0
   17.7868  -28.0332   -4.7589 O   0  0  0  0  0  0  0  0  0  0  0  0
  2  1  1  0
  2  3  2  0
  4  2  1  0
  5  4  1  0
  5  6  1  6
  7  8  2  0
  7  5  1  0
 10  9  1  0
 10 12  1  0
 11 10  2  0
 12 13  1  0
 13 14  1  0
 14 15  1  0
 16 15  1  6
 16 17  1  0
 17  7  1  0
 18 19  2  0
 18 16  1  0
 21 22  1  0
 21 20  1  0
 22 23  1  6
 24 22  1  0
 24 25  1  1
 25 18  1  0
 26 24  1  0
 27 26  1  0
 28 26  2  0
M  END
$$$$
