NRI.pdb
     RDKit          3D

 28 27  0  0  1  0  0  0  0  0999 V2000
   24.4947  -21.1278   -9.0466 N   0  0  0  0  0  0  0  0  0  0  0  0
   25.8054  -20.6158   -8.9152 C   0  0  0  0  0  0  0  0  0  0  0  0
   26.3243  -20.5234   -7.7843 O   0  0  0  0  0  0  0  0  0  0  0  0
   26.5526  -20.1931  -10.1188 C   0  0  0  0  0  0  0  0  0  0  0  0
   25.6830  -20.3095  -11.3411 C   0  0  2  0  0  0  0  0  0  0  0  0
   25.2842  -21.6752  -11.4913 N   0  0  0  0  0  0  0  0  0  0  0  0
   26.4566  -19.8434  -12.5280 C   0  0  0  0  0  0  0  0  0  0  0  0
   26.9161  -18.6817  -12.5288 O   0  0  0  0  0  0  0  0  0  0  0  0
   29.9218  -25.9545  -16.0863 N   0  0  0  0  0  0  0  0  0  0  0  0
   28.5888  -25.4738  -16.1852 C   0  0  0  0  0  0  0  0  0  0  0  0
   27.5750  -26.2749  -16.2248 N   0  0  0  0  0  0  0  0  0  0  0  0
   28.3763  -24.0787  -16.2419 N   0  0  0  0  0  0  0  0  0  0  0  0
   29.4370  -23.1078  -16.0959 C   0  0  0  0  0  0  0  0  0  0  0  0
   28.9628  -22.0176  -15.1908 C   0  0  0  0  0  0  0  0  0  0  0  0
   27.7735  -21.3029  -15.7505 C   0  0  0  0  0  0  0  0  0  0  0  0
   27.3488  -20.2090  -14.8262 C   0  0  2  0  0  0  0  0  0  0  0  0
   26.6839  -20.6759  -13.6479 N   0  0  0  0  0  0  0  0  0  0  0  0
   26.3852  -19.3577  -15.5842 C   0  0  0  0  0  0  0  0  0  0  0  0
   25.1844  -19.7325  -15.5747 O   0  0  0  0  0  0  0  0  0  0  0  0
   26.6112  -25.9750  -16.3762 C   0  0  0  0  0  0  0  0  0  0  0  0
   27.1012  -14.0524  -15.3707 C   0  0  0  0  0  0  0  0  0  0  0  0
   26.4692  -15.3919  -15.4564 C   0  0  2  0  0  0  0  0  0  0  0  0
   26.2118  -15.9448  -16.8051 C   0  0  0  0  0  0  0  0  0  0  0  0
   25.4465  -14.9735  -17.6751 C   0  0  2  0  0  0  0  0  0  0  0  0
   25.7850  -17.3654  -16.9176 N   0  0  0  0  0  0  0  0  0  0  0  0
   26.8099  -18.2013  -16.2676 C   0  0  0  0  0  0  0  0  0  0  0  0
   25.6456  -17.8995  -18.2821 O   0  0  0  0  0  0  0  0  0  0  0  0
   24.4040  -18.0505  -18.9016 O   0  0  0  0  0  0  0  0  0  0  0  0
  2  1  1  0
  2  3  2  0
  4  2  1  0
  5  4  1  0
  5  6  1  6
  7  8  2  0
  7  5  1  0
 10  9  1  0
 10 12  1  0
 11 10  2  0
 12 13  1  0
 13 14  1  0
 14 15  1  0
 16 15  1  6
 16 17  1  0
 17  7  1  0
 18 19  2  0
 18 16  1  0
 21 22  1  0
 21 20  1  0
 22 23  1  6
 24 22  1  0
 24 25  1  1
 25 18  1  0
 26 24  1  0
 27 26  1  0
 28 26  2  0
M  END
$$$$
