NRI.pdb
     RDKit          3D

 28 27  0  0  1  0  0  0  0  0999 V2000
   29.6950  -24.9467  -18.4563 N   0  0  0  0  0  0  0  0  0  0  0  0
   30.6788  -24.2248  -17.7435 C   0  0  0  0  0  0  0  0  0  0  0  0
   31.8699  -24.5944  -17.7842 O   0  0  0  0  0  0  0  0  0  0  0  0
   30.2899  -23.0367  -16.9543 C   0  0  0  0  0  0  0  0  0  0  0  0
   28.7918  -22.9047  -16.9129 C   0  0  2  0  0  0  0  0  0  0  0  0
   28.3380  -22.4333  -18.1852 N   0  0  0  0  0  0  0  0  0  0  0  0
   28.4227  -21.9526  -15.8257 C   0  0  0  0  0  0  0  0  0  0  0  0
   28.7094  -22.2458  -14.6457 O   0  0  0  0  0  0  0  0  0  0  0  0
   25.0433  -19.5338  -18.9447 N   0  0  0  0  0  0  0  0  0  0  0  0
   23.9438  -18.6798  -18.6630 C   0  0  0  0  0  0  0  0  0  0  0  0
   22.7701  -18.8902  -19.1622 N   0  0  0  0  0  0  0  0  0  0  0  0
   24.1501  -17.5714  -17.8123 N   0  0  0  0  0  0  0  0  0  0  0  0
   25.3820  -17.3423  -17.0920 C   0  0  0  0  0  0  0  0  0  0  0  0
   25.8649  -18.6476  -16.5482 C   0  0  0  0  0  0  0  0  0  0  0  0
   26.9842  -18.4677  -15.5718 C   0  0  0  0  0  0  0  0  0  0  0  0
   27.4380  -19.7953  -15.0591 C   0  0  2  0  0  0  0  0  0  0  0  0
   27.7601  -20.7323  -16.0920 N   0  0  0  0  0  0  0  0  0  0  0  0
   26.3038  -20.3605  -14.2707 C   0  0  0  0  0  0  0  0  0  0  0  0
   25.4970  -21.0912  -14.9014 O   0  0  0  0  0  0  0  0  0  0  0  0
   21.9655  -18.2795  -19.0158 C   0  0  0  0  0  0  0  0  0  0  0  0
   24.7585  -21.1948   -8.3205 C   0  0  0  0  0  0  0  0  0  0  0  0
   24.5124  -21.4248   -9.7655 C   0  0  2  0  0  0  0  0  0  0  0  0
   25.4660  -20.8283  -10.7278 C   0  0  0  0  0  0  0  0  0  0  0  0
   26.1009  -19.5686  -10.1838 C   0  0  2  0  0  0  0  0  0  0  0  0
   25.0801  -20.7723  -12.1633 N   0  0  0  0  0  0  0  0  0  0  0  0
   26.1566  -20.0835  -12.8972 C   0  0  0  0  0  0  0  0  0  0  0  0
   23.8483  -20.0315  -12.4802 O   0  0  0  0  0  0  0  0  0  0  0  0
   22.5795  -20.5933  -12.3291 O   0  0  0  0  0  0  0  0  0  0  0  0
  2  1  1  0
  2  3  2  0
  4  2  1  0
  5  4  1  0
  5  6  1  6
  7  8  2  0
  7  5  1  0
 10  9  1  0
 10 12  1  0
 11 10  2  0
 12 13  1  0
 13 14  1  0
 14 15  1  0
 16 15  1  6
 16 17  1  0
 17  7  1  0
 18 19  2  0
 18 16  1  0
 21 22  1  0
 21 20  1  0
 22 23  1  6
 24 22  1  0
 24 25  1  6
 25 18  1  0
 26 24  1  0
 27 26  1  0
 28 26  2  0
M  END
$$$$
