NRI.pdb
     RDKit          3D

 28 27  0  0  1  0  0  0  0  0999 V2000
   26.2332  -13.3980  -15.4138 N   0  0  0  0  0  0  0  0  0  0  0  0
   24.8571  -13.3988  -15.0919 C   0  0  0  0  0  0  0  0  0  0  0  0
   24.3381  -12.3825  -14.5871 O   0  0  0  0  0  0  0  0  0  0  0  0
   24.0421  -14.6037  -15.3552 C   0  0  0  0  0  0  0  0  0  0  0  0
   24.9011  -15.7022  -15.9201 C   0  0  2  0  0  0  0  0  0  0  0  0
   25.1812  -15.4056  -17.2914 N   0  0  0  0  0  0  0  0  0  0  0  0
   24.1732  -16.9974  -15.7896 C   0  0  0  0  0  0  0  0  0  0  0  0
   23.1083  -17.1561  -16.4233 O   0  0  0  0  0  0  0  0  0  0  0  0
   24.5667  -23.8762  -17.2173 N   0  0  0  0  0  0  0  0  0  0  0  0
   24.9011  -24.5542  -16.0148 C   0  0  0  0  0  0  0  0  0  0  0  0
   25.4419  -25.7284  -16.0205 N   0  0  0  0  0  0  0  0  0  0  0  0
   24.6302  -23.9185  -14.7830 N   0  0  0  0  0  0  0  0  0  0  0  0
   23.9233  -22.6624  -14.6769 C   0  0  0  0  0  0  0  0  0  0  0  0
   24.8232  -21.5684  -15.1524 C   0  0  0  0  0  0  0  0  0  0  0  0
   24.7905  -20.3812  -14.2424 C   0  0  0  0  0  0  0  0  0  0  0  0
   23.9620  -19.2940  -14.8449 C   0  0  2  0  0  0  0  0  0  0  0  0
   24.6525  -18.0468  -14.9722 N   0  0  0  0  0  0  0  0  0  0  0  0
   22.8036  -19.0803  -13.9284 C   0  0  0  0  0  0  0  0  0  0  0  0
   23.0764  -18.6554  -12.7761 O   0  0  0  0  0  0  0  0  0  0  0  0
   25.7243  -26.2350  -15.1807 C   0  0  0  0  0  0  0  0  0  0  0  0
   17.7693  -16.1871  -13.6324 C   0  0  0  0  0  0  0  0  0  0  0  0
   18.4915  -17.3773  -13.1192 C   0  0  2  0  0  0  0  0  0  0  0  0
   19.6378  -17.8787  -13.9101 C   0  0  0  0  0  0  0  0  0  0  0  0
   19.3310  -17.9075  -15.3903 C   0  0  2  0  0  0  0  0  0  0  0  0
   20.3899  -19.0554  -13.3978 N   0  0  0  0  0  0  0  0  0  0  0  0
   21.4832  -19.3435  -14.3431 C   0  0  0  0  0  0  0  0  0  0  0  0
   19.6325  -20.3114  -13.2740 O   0  0  0  0  0  0  0  0  0  0  0  0
   18.8042  -20.5793  -12.1829 O   0  0  0  0  0  0  0  0  0  0  0  0
  2  1  1  0
  2  3  2  0
  4  2  1  0
  5  4  1  0
  5  6  1  6
  7  8  2  0
  7  5  1  0
 10  9  1  0
 10 12  1  0
 11 10  2  0
 12 13  1  0
 13 14  1  0
 14 15  1  0
 16 15  1  1
 16 17  1  0
 17  7  1  0
 18 19  2  0
 18 16  1  0
 21 22  1  0
 21 20  1  0
 22 23  1  1
 24 22  1  0
 24 25  1  6
 25 18  1  0
 26 24  1  0
 27 26  1  0
 28 26  2  0
M  END
$$$$
