HDC.pdb
     RDKit          3D

 25 25  0  0  1  0  0  0  0  0999 V2000
    9.6321  -14.7346   20.5874 N   0  0  0  0  0  0  0  0  0  0  0  0
    8.4732  -14.2770   21.3637 C   0  0  1  0  0  0  0  0  0  0  0  0
    7.2140  -14.4204   20.5843 C   0  0  0  0  0  0  0  0  0  0  0  0
    7.4411  -14.2285   19.1502 C   0  0  0  0  0  0  0  0  0  0  0  0
    7.7479  -13.0760   18.4732 C   0  0  0  0  0  0  0  0  0  0  0  0
    7.8358  -13.4044   17.1583 N   0  0  0  0  0  0  0  0  0  0  0  0
    7.5919  -14.7183   17.0169 C   0  0  0  0  0  0  0  0  0  0  0  0
    7.3519  -15.2210   18.2251 N   0  0  0  0  0  0  0  0  0  0  0  0
    8.3830  -15.0679   22.6135 C   0  0  0  0  0  0  0  0  0  0  0  0
    7.4159  -15.0284   23.4112 O   0  0  0  0  0  0  0  0  0  0  0  0
    9.4541  -15.9380   22.9531 N   0  0  0  0  0  0  0  0  0  0  0  0
    9.4593  -16.5767   24.2447 C   0  0  1  0  0  0  0  0  0  0  0  0
   10.3801  -17.7666   24.1604 C   0  0  0  0  0  0  0  0  0  0  0  0
   10.4050  -18.4395   25.4800 C   0  0  0  0  0  0  0  0  0  0  0  0
   11.4321  -18.9313   26.0147 O   0  0  0  0  0  0  0  0  0  0  0  0
   10.0366  -15.6837   25.2933 C   0  0  0  0  0  0  0  0  0  0  0  0
   11.2352  -15.3133   25.3102 O   0  0  0  0  0  0  0  0  0  0  0  0
    9.2112  -18.5429   26.1933 O   0  0  0  0  0  0  0  0  0  0  0  0
    9.1783  -15.2369   26.3176 N   0  0  0  0  0  0  0  0  0  0  0  0
    9.6662  -14.3949   27.3893 C   0  0  1  0  0  0  0  0  0  0  0  0
    8.5471  -13.4463   27.7596 C   0  0  0  0  0  0  0  0  0  0  0  0
    8.1315  -12.3893   26.3260 S   0  0  0  0  0  0  0  0  0  0  0  0
   10.0823  -15.2450   28.5102 C   0  0  0  0  0  0  0  0  0  0  0  0
    9.8904  -16.4786   28.4667 O   0  0  0  0  0  0  0  0  0  0  0  0
   10.6859  -14.6907   29.6155 O   0  0  0  0  0  0  0  0  0  0  0  0
  2  1  1  6
  2  9  1  0
  2  3  1  0
  4  3  1  0
  4  8  1  0
  5  6  1  0
  5  4  2  0
  6  7  1  0
  7  8  2  0
  9 10  2  0
 11 12  1  0
 11  9  1  0
 12 13  1  6
 13 14  1  0
 14 15  2  0
 14 18  1  0
 16 17  2  0
 16 12  1  0
 19 16  1  0
 20 19  1  0
 20 21  1  1
 21 22  1  0
 23 25  1  0
 23 20  1  0
 24 23  2  0
M  END
$$$$
