HDC.pdb
     RDKit          3D

 25 25  0  0  1  0  0  0  0  0999 V2000
    7.3449  -16.8689   17.8892 N   0  0  0  0  0  0  0  0  0  0  0  0
    8.6427  -16.2614   18.2079 C   0  0  1  0  0  0  0  0  0  0  0  0
    8.5277  -14.7833   18.3337 C   0  0  0  0  0  0  0  0  0  0  0  0
    8.0557  -14.1701   17.0902 C   0  0  0  0  0  0  0  0  0  0  0  0
    7.0445  -13.2621   16.9072 C   0  0  0  0  0  0  0  0  0  0  0  0
    6.9741  -13.0161   15.5733 N   0  0  0  0  0  0  0  0  0  0  0  0
    7.9098  -13.7458   14.9426 C   0  0  0  0  0  0  0  0  0  0  0  0
    8.5679  -14.4475   15.8616 N   0  0  0  0  0  0  0  0  0  0  0  0
    9.1492  -16.8354   19.4766 C   0  0  0  0  0  0  0  0  0  0  0  0
    8.4273  -17.3625   20.3564 O   0  0  0  0  0  0  0  0  0  0  0  0
   10.5459  -16.7972   19.7370 N   0  0  0  0  0  0  0  0  0  0  0  0
   11.0434  -17.3191   20.9845 C   0  0  1  0  0  0  0  0  0  0  0  0
   12.5298  -17.5168   20.8346 C   0  0  0  0  0  0  0  0  0  0  0  0
   12.7704  -18.4733   19.7293 C   0  0  0  0  0  0  0  0  0  0  0  0
   13.4033  -18.2065   18.6753 O   0  0  0  0  0  0  0  0  0  0  0  0
   10.8694  -16.3366   22.0957 C   0  0  0  0  0  0  0  0  0  0  0  0
   10.7005  -15.1062   21.9178 O   0  0  0  0  0  0  0  0  0  0  0  0
   12.2648  -19.7671   19.8513 O   0  0  0  0  0  0  0  0  0  0  0  0
   10.8980  -16.8293   23.4155 N   0  0  0  0  0  0  0  0  0  0  0  0
   10.4153  -16.0320   24.5231 C   0  0  1  0  0  0  0  0  0  0  0  0
    8.9891  -15.6392   24.2054 C   0  0  0  0  0  0  0  0  0  0  0  0
    8.3462  -14.5319   25.5115 S   0  0  0  0  0  0  0  0  0  0  0  0
   10.5250  -16.8170   25.7576 C   0  0  0  0  0  0  0  0  0  0  0  0
   10.3419  -18.0525   25.7336 O   0  0  0  0  0  0  0  0  0  0  0  0
   10.8297  -16.1992   26.9487 O   0  0  0  0  0  0  0  0  0  0  0  0
  2  1  1  1
  2  9  1  0
  2  3  1  0
  4  3  1  0
  4  8  1  0
  5  6  1  0
  5  4  2  0
  6  7  1  0
  7  8  2  0
  9 10  2  0
 11 12  1  0
 11  9  1  0
 12 13  1  6
 13 14  1  0
 14 15  2  0
 14 18  1  0
 16 17  2  0
 16 12  1  0
 19 16  1  0
 20 19  1  0
 20 21  1  6
 21 22  1  0
 23 25  1  0
 23 20  1  0
 24 23  2  0
M  END
$$$$
