HDC.pdb
     RDKit          3D

 25 25  0  0  1  0  0  0  0  0999 V2000
   10.1410  -15.2960   20.2042 N   0  0  0  0  0  0  0  0  0  0  0  0
    9.0623  -14.7624   21.0448 C   0  0  1  0  0  0  0  0  0  0  0  0
    7.7345  -14.9561   20.4021 C   0  0  0  0  0  0  0  0  0  0  0  0
    7.7229  -14.4586   19.0247 C   0  0  0  0  0  0  0  0  0  0  0  0
    7.9257  -13.1814   18.5683 C   0  0  0  0  0  0  0  0  0  0  0  0
    7.7910  -13.2210   17.2174 N   0  0  0  0  0  0  0  0  0  0  0  0
    7.5129  -14.4806   16.8408 C   0  0  0  0  0  0  0  0  0  0  0  0
    7.4710  -15.2341   17.9366 N   0  0  0  0  0  0  0  0  0  0  0  0
    9.0882  -15.4453   22.3596 C   0  0  0  0  0  0  0  0  0  0  0  0
    8.1969  -15.3354   23.2351 O   0  0  0  0  0  0  0  0  0  0  0  0
   10.1890  -16.2878   22.6731 N   0  0  0  0  0  0  0  0  0  0  0  0
   10.2411  -16.9263   23.9637 C   0  0  1  0  0  0  0  0  0  0  0  0
   11.2561  -18.0371   23.8813 C   0  0  0  0  0  0  0  0  0  0  0  0
   12.5888  -17.4418   23.6279 C   0  0  0  0  0  0  0  0  0  0  0  0
   12.8200  -16.2074   23.5524 O   0  0  0  0  0  0  0  0  0  0  0  0
   10.7395  -15.9912   25.0160 C   0  0  0  0  0  0  0  0  0  0  0  0
   11.4597  -14.9922   24.7759 O   0  0  0  0  0  0  0  0  0  0  0  0
   13.6757  -18.2988   23.4587 O   0  0  0  0  0  0  0  0  0  0  0  0
   10.3749  -16.2542   26.3514 N   0  0  0  0  0  0  0  0  0  0  0  0
   10.4966  -15.2379   27.3750 C   0  0  1  0  0  0  0  0  0  0  0  0
    9.3356  -14.2835   27.2002 C   0  0  0  0  0  0  0  0  0  0  0  0
    9.3639  -13.0244   28.5265 S   0  0  0  0  0  0  0  0  0  0  0  0
   10.5034  -15.8865   28.6908 C   0  0  0  0  0  0  0  0  0  0  0  0
   10.9145  -15.2659   29.6940 O   0  0  0  0  0  0  0  0  0  0  0  0
   10.0578  -17.1809   28.8293 O   0  0  0  0  0  0  0  0  0  0  0  0
  2  1  1  6
  2  9  1  0
  2  3  1  0
  4  3  1  0
  4  8  1  0
  5  6  1  0
  5  4  2  0
  6  7  1  0
  7  8  2  0
  9 10  2  0
 11 12  1  0
 11  9  1  0
 12 13  1  6
 13 14  1  0
 14 15  2  0
 14 18  1  0
 16 17  2  0
 16 12  1  0
 19 16  1  0
 20 19  1  0
 20 21  1  1
 21 22  1  0
 23 25  1  0
 23 20  1  0
 24 23  2  0
M  END
$$$$
