HDC.pdb
     RDKit          3D

 25 25  0  0  1  0  0  0  0  0999 V2000
    7.7603  -17.5598   18.7228 N   0  0  0  0  0  0  0  0  0  0  0  0
    8.6645  -16.5759   19.3305 C   0  0  1  0  0  0  0  0  0  0  0  0
    7.9322  -15.3396   19.7164 C   0  0  0  0  0  0  0  0  0  0  0  0
    7.6341  -14.5023   18.5523 C   0  0  0  0  0  0  0  0  0  0  0  0
    7.9523  -14.7135   17.2352 C   0  0  0  0  0  0  0  0  0  0  0  0
    7.4815  -13.6451   16.5412 N   0  0  0  0  0  0  0  0  0  0  0  0
    6.8886  -12.7937   17.3953 C   0  0  0  0  0  0  0  0  0  0  0  0
    6.9801  -13.3120   18.6172 N   0  0  0  0  0  0  0  0  0  0  0  0
    9.3020  -17.1757   20.5262 C   0  0  0  0  0  0  0  0  0  0  0  0
    8.7265  -17.9545   21.3231 O   0  0  0  0  0  0  0  0  0  0  0  0
   10.6586  -16.8613   20.8102 N   0  0  0  0  0  0  0  0  0  0  0  0
   11.2522  -17.3451   22.0307 C   0  0  1  0  0  0  0  0  0  0  0  0
   12.7477  -17.2281   21.8871 C   0  0  0  0  0  0  0  0  0  0  0  0
   13.3830  -17.7430   23.1224 C   0  0  0  0  0  0  0  0  0  0  0  0
   12.8919  -18.6331   23.8637 O   0  0  0  0  0  0  0  0  0  0  0  0
   10.8827  -16.4866   23.1955 C   0  0  0  0  0  0  0  0  0  0  0  0
   11.0310  -15.2409   23.2178 O   0  0  0  0  0  0  0  0  0  0  0  0
   14.6147  -17.2126   23.5043 O   0  0  0  0  0  0  0  0  0  0  0  0
   10.3371  -17.1209   24.3292 N   0  0  0  0  0  0  0  0  0  0  0  0
   10.0032  -16.3687   25.5202 C   0  0  1  0  0  0  0  0  0  0  0  0
    8.7917  -15.5237   25.1922 C   0  0  0  0  0  0  0  0  0  0  0  0
    7.2897  -16.5673   25.1945 S   0  0  0  0  0  0  0  0  0  0  0  0
    9.7584  -17.3062   26.6217 C   0  0  0  0  0  0  0  0  0  0  0  0
    9.4830  -16.8762   27.7618 O   0  0  0  0  0  0  0  0  0  0  0  0
    9.8302  -18.6635   26.4075 O   0  0  0  0  0  0  0  0  0  0  0  0
  2  1  1  1
  2  9  1  0
  2  3  1  0
  4  3  1  0
  4  8  1  0
  5  6  1  0
  5  4  2  0
  6  7  1  0
  7  8  2  0
  9 10  2  0
 11 12  1  0
 11  9  1  0
 12 13  1  6
 13 14  1  0
 14 15  2  0
 14 18  1  0
 16 17  2  0
 16 12  1  0
 19 16  1  0
 20 19  1  0
 20 21  1  6
 21 22  1  0
 23 25  1  0
 23 20  1  0
 24 23  2  0
M  END
$$$$
