HDC.pdb
     RDKit          3D

 25 25  0  0  1  0  0  0  0  0999 V2000
    6.6629  -16.3071   21.0749 N   0  0  0  0  0  0  0  0  0  0  0  0
    8.0822  -15.9523   21.1955 C   0  0  1  0  0  0  0  0  0  0  0  0
    8.2835  -14.4852   21.0507 C   0  0  0  0  0  0  0  0  0  0  0  0
    8.1164  -14.0512   19.6619 C   0  0  0  0  0  0  0  0  0  0  0  0
    6.9785  -13.6329   19.0210 C   0  0  0  0  0  0  0  0  0  0  0  0
    7.3280  -13.3615   17.7370 N   0  0  0  0  0  0  0  0  0  0  0  0
    8.6407  -13.6021   17.5793 C   0  0  0  0  0  0  0  0  0  0  0  0
    9.1217  -14.0211   18.7469 N   0  0  0  0  0  0  0  0  0  0  0  0
    8.5843  -16.4001   22.5157 C   0  0  0  0  0  0  0  0  0  0  0  0
    7.8709  -16.5376   23.5380 O   0  0  0  0  0  0  0  0  0  0  0  0
    9.9662  -16.7001   22.6580 N   0  0  0  0  0  0  0  0  0  0  0  0
   10.4509  -17.2026   23.9183 C   0  0  1  0  0  0  0  0  0  0  0  0
   11.8130  -17.8004   23.6765 C   0  0  0  0  0  0  0  0  0  0  0  0
   12.2498  -18.4956   24.9096 C   0  0  0  0  0  0  0  0  0  0  0  0
   11.5210  -18.6982   25.9149 O   0  0  0  0  0  0  0  0  0  0  0  0
   10.6552  -16.0994   24.9040 C   0  0  0  0  0  0  0  0  0  0  0  0
   11.4645  -15.1555   24.7355 O   0  0  0  0  0  0  0  0  0  0  0  0
   13.5611  -18.9653   24.9759 O   0  0  0  0  0  0  0  0  0  0  0  0
    9.8910  -16.1291   26.0874 N   0  0  0  0  0  0  0  0  0  0  0  0
   10.0344  -15.1020   27.0974 C   0  0  1  0  0  0  0  0  0  0  0  0
    8.7292  -14.3384   27.1494 C   0  0  0  0  0  0  0  0  0  0  0  0
    8.8405  -13.0060   28.3974 S   0  0  0  0  0  0  0  0  0  0  0  0
   10.3707  -15.7366   28.3766 C   0  0  0  0  0  0  0  0  0  0  0  0
   10.1548  -16.9550   28.5483 O   0  0  0  0  0  0  0  0  0  0  0  0
   10.9253  -14.9957   29.3949 O   0  0  0  0  0  0  0  0  0  0  0  0
  2  1  1  1
  2  9  1  0
  2  3  1  0
  4  3  1  0
  4  8  1  0
  5  6  1  0
  5  4  2  0
  6  7  1  0
  7  8  2  0
  9 10  2  0
 11 12  1  0
 11  9  1  0
 12 13  1  6
 13 14  1  0
 14 15  2  0
 14 18  1  0
 16 17  2  0
 16 12  1  0
 19 16  1  0
 20 19  1  0
 20 21  1  1
 21 22  1  0
 23 25  1  0
 23 20  1  0
 24 23  2  0
M  END
$$$$
