HDC.pdb
     RDKit          3D

 25 25  0  0  1  0  0  0  0  0999 V2000
    7.0431  -17.1904   20.2444 N   0  0  0  0  0  0  0  0  0  0  0  0
    8.1753  -16.3672   20.6865 C   0  0  1  0  0  0  0  0  0  0  0  0
    7.8103  -14.9253   20.7206 C   0  0  0  0  0  0  0  0  0  0  0  0
    7.7789  -14.3437   19.3767 C   0  0  0  0  0  0  0  0  0  0  0  0
    8.0725  -14.9354   18.1749 C   0  0  0  0  0  0  0  0  0  0  0  0
    7.9200  -13.9819   17.2199 N   0  0  0  0  0  0  0  0  0  0  0  0
    7.5438  -12.8318   17.8043 C   0  0  0  0  0  0  0  0  0  0  0  0
    7.4575  -13.0489   19.1141 N   0  0  0  0  0  0  0  0  0  0  0  0
    8.6000  -16.8097   22.0354 C   0  0  0  0  0  0  0  0  0  0  0  0
    7.8395  -17.3349   22.8832 O   0  0  0  0  0  0  0  0  0  0  0  0
    9.9579  -16.6370   22.4177 N   0  0  0  0  0  0  0  0  0  0  0  0
   10.3633  -16.9923   23.7539 C   0  0  1  0  0  0  0  0  0  0  0  0
   11.7715  -17.5231   23.6764 C   0  0  0  0  0  0  0  0  0  0  0  0
   12.2231  -17.8670   25.0447 C   0  0  0  0  0  0  0  0  0  0  0  0
   13.1310  -17.2638   25.6729 O   0  0  0  0  0  0  0  0  0  0  0  0
   10.4240  -15.7939   24.6430 C   0  0  0  0  0  0  0  0  0  0  0  0
   10.8568  -14.6750   24.2757 O   0  0  0  0  0  0  0  0  0  0  0  0
   11.6066  -18.9343   25.6968 O   0  0  0  0  0  0  0  0  0  0  0  0
    9.9670  -15.9381   25.9680 N   0  0  0  0  0  0  0  0  0  0  0  0
    9.8777  -14.7995   26.8576 C   0  0  1  0  0  0  0  0  0  0  0  0
    8.5874  -14.0781   26.5350 C   0  0  0  0  0  0  0  0  0  0  0  0
    8.3729  -12.6572   27.6665 S   0  0  0  0  0  0  0  0  0  0  0  0
    9.9297  -15.2744   28.2446 C   0  0  0  0  0  0  0  0  0  0  0  0
    9.7804  -16.4885   28.4980 O   0  0  0  0  0  0  0  0  0  0  0  0
   10.1428  -14.3875   29.2748 O   0  0  0  0  0  0  0  0  0  0  0  0
  2  1  1  1
  2  9  1  0
  2  3  1  0
  4  3  1  0
  4  8  1  0
  5  6  1  0
  5  4  2  0
  6  7  1  0
  7  8  2  0
  9 10  2  0
 11 12  1  0
 11  9  1  0
 12 13  1  6
 13 14  1  0
 14 15  2  0
 14 18  1  0
 16 17  2  0
 16 12  1  0
 19 16  1  0
 20 19  1  0
 20 21  1  1
 21 22  1  0
 23 25  1  0
 23 20  1  0
 24 23  2  0
M  END
$$$$
