HDC.pdb
     RDKit          3D

 25 25  0  0  1  0  0  0  0  0999 V2000
    9.4811  -14.1795   19.6287 N   0  0  0  0  0  0  0  0  0  0  0  0
    8.1753  -14.4921   20.2221 C   0  0  1  0  0  0  0  0  0  0  0  0
    7.3109  -15.2288   19.2610 C   0  0  0  0  0  0  0  0  0  0  0  0
    7.4950  -14.7478   17.8899 C   0  0  0  0  0  0  0  0  0  0  0  0
    7.8410  -13.4938   17.4561 C   0  0  0  0  0  0  0  0  0  0  0  0
    7.8612  -13.5393   16.0989 N   0  0  0  0  0  0  0  0  0  0  0  0
    7.5384  -14.7802   15.6966 C   0  0  0  0  0  0  0  0  0  0  0  0
    7.3155  -15.5160   16.7824 N   0  0  0  0  0  0  0  0  0  0  0  0
    8.3791  -15.3084   21.4419 C   0  0  0  0  0  0  0  0  0  0  0  0
    7.4544  -15.8200   22.1173 O   0  0  0  0  0  0  0  0  0  0  0  0
    9.7050  -15.5410   21.8976 N   0  0  0  0  0  0  0  0  0  0  0  0
    9.9093  -16.2479   23.1364 C   0  0  1  0  0  0  0  0  0  0  0  0
   11.2625  -16.9074   23.0663 C   0  0  0  0  0  0  0  0  0  0  0  0
   11.2138  -17.9789   22.0446 C   0  0  0  0  0  0  0  0  0  0  0  0
   10.2877  -18.8234   21.9348 O   0  0  0  0  0  0  0  0  0  0  0  0
    9.9687  -15.3100   24.2970 C   0  0  0  0  0  0  0  0  0  0  0  0
   10.7244  -14.3097   24.3465 O   0  0  0  0  0  0  0  0  0  0  0  0
   12.2633  -18.0711   21.1311 O   0  0  0  0  0  0  0  0  0  0  0  0
    9.1242  -15.5719   25.3941 N   0  0  0  0  0  0  0  0  0  0  0  0
    9.0756  -14.6782   26.5320 C   0  0  1  0  0  0  0  0  0  0  0  0
    7.7114  -14.0237   26.5306 C   0  0  0  0  0  0  0  0  0  0  0  0
    7.7619  -12.4852   27.5183 S   0  0  0  0  0  0  0  0  0  0  0  0
    9.3328  -15.4490   27.7534 C   0  0  0  0  0  0  0  0  0  0  0  0
    9.1637  -16.6867   27.7613 O   0  0  0  0  0  0  0  0  0  0  0  0
    9.7613  -14.8153   28.8972 O   0  0  0  0  0  0  0  0  0  0  0  0
  2  1  1  6
  2  9  1  0
  2  3  1  0
  4  3  1  0
  4  8  1  0
  5  6  1  0
  5  4  2  0
  6  7  1  0
  7  8  2  0
  9 10  2  0
 11 12  1  0
 11  9  1  0
 12 13  1  6
 13 14  1  0
 14 15  2  0
 14 18  1  0
 16 17  2  0
 16 12  1  0
 19 16  1  0
 20 19  1  0
 20 21  1  1
 21 22  1  0
 23 25  1  0
 23 20  1  0
 24 23  2  0
M  END
$$$$
