HDC.pdb
     RDKit          3D

 25 25  0  0  1  0  0  0  0  0999 V2000
    7.5914  -17.1836   19.8340 N   0  0  0  0  0  0  0  0  0  0  0  0
    8.5585  -16.2227   20.3783 C   0  0  1  0  0  0  0  0  0  0  0  0
    8.0307  -14.8332   20.3122 C   0  0  0  0  0  0  0  0  0  0  0  0
    7.9246  -14.3604   18.9300 C   0  0  0  0  0  0  0  0  0  0  0  0
    8.3059  -14.9896   17.7727 C   0  0  0  0  0  0  0  0  0  0  0  0
    8.0248  -14.1387   16.7521 N   0  0  0  0  0  0  0  0  0  0  0  0
    7.4860  -13.0146   17.2537 C   0  0  0  0  0  0  0  0  0  0  0  0
    7.4240  -13.1467   18.5762 N   0  0  0  0  0  0  0  0  0  0  0  0
    8.8587  -16.5794   21.7848 C   0  0  0  0  0  0  0  0  0  0  0  0
    8.0035  -16.9604   22.6193 O   0  0  0  0  0  0  0  0  0  0  0  0
   10.2011  -16.4912   22.2430 N   0  0  0  0  0  0  0  0  0  0  0  0
   10.4943  -16.7847   23.6228 C   0  0  1  0  0  0  0  0  0  0  0  0
   11.9600  -17.1225   23.7149 C   0  0  0  0  0  0  0  0  0  0  0  0
   12.2053  -18.3731   22.9597 C   0  0  0  0  0  0  0  0  0  0  0  0
   11.4871  -19.4038   23.0269 O   0  0  0  0  0  0  0  0  0  0  0  0
   10.2933  -15.5862   24.4908 C   0  0  0  0  0  0  0  0  0  0  0  0
   10.6695  -14.4301   24.1804 O   0  0  0  0  0  0  0  0  0  0  0  0
   13.3084  -18.4271   22.1083 O   0  0  0  0  0  0  0  0  0  0  0  0
    9.6432  -15.7745   25.7266 N   0  0  0  0  0  0  0  0  0  0  0  0
    9.4639  -14.6770   26.6534 C   0  0  1  0  0  0  0  0  0  0  0  0
    8.0543  -14.1592   26.4684 C   0  0  0  0  0  0  0  0  0  0  0  0
    7.7687  -12.7317   27.5756 S   0  0  0  0  0  0  0  0  0  0  0  0
    9.7159  -15.1591   28.0159 C   0  0  0  0  0  0  0  0  0  0  0  0
    9.7811  -16.3853   28.2453 O   0  0  0  0  0  0  0  0  0  0  0  0
    9.8820  -14.2656   29.0491 O   0  0  0  0  0  0  0  0  0  0  0  0
  2  1  1  1
  2  9  1  0
  2  3  1  0
  4  3  1  0
  4  8  1  0
  5  6  1  0
  5  4  2  0
  6  7  1  0
  7  8  2  0
  9 10  2  0
 11 12  1  0
 11  9  1  0
 12 13  1  6
 13 14  1  0
 14 15  2  0
 14 18  1  0
 16 17  2  0
 16 12  1  0
 19 16  1  0
 20 19  1  0
 20 21  1  1
 21 22  1  0
 23 25  1  0
 23 20  1  0
 24 23  2  0
M  END
$$$$
