HDC.pdb
     RDKit          3D

 25 25  0  0  1  0  0  0  0  0999 V2000
    8.0193  -17.1560   19.3466 N   0  0  0  0  0  0  0  0  0  0  0  0
    8.4960  -16.0524   20.1891 C   0  0  1  0  0  0  0  0  0  0  0  0
    7.6511  -14.8401   20.0152 C   0  0  0  0  0  0  0  0  0  0  0  0
    7.8072  -14.2595   18.6797 C   0  0  0  0  0  0  0  0  0  0  0  0
    8.4665  -13.1154   18.3094 C   0  0  0  0  0  0  0  0  0  0  0  0
    8.3079  -12.9878   16.9666 N   0  0  0  0  0  0  0  0  0  0  0  0
    7.5737  -14.0173   16.5116 C   0  0  0  0  0  0  0  0  0  0  0  0
    7.2684  -14.7909   17.5501 N   0  0  0  0  0  0  0  0  0  0  0  0
    8.4746  -16.4801   21.6076 C   0  0  0  0  0  0  0  0  0  0  0  0
    7.5285  -17.1008   22.1486 O   0  0  0  0  0  0  0  0  0  0  0  0
    9.5919  -16.1770   22.4320 N   0  0  0  0  0  0  0  0  0  0  0  0
    9.5456  -16.5150   23.8319 C   0  0  1  0  0  0  0  0  0  0  0  0
   10.8287  -17.2291   24.1705 C   0  0  0  0  0  0  0  0  0  0  0  0
   10.7939  -17.6106   25.6015 C   0  0  0  0  0  0  0  0  0  0  0  0
    9.7475  -17.8763   26.2474 O   0  0  0  0  0  0  0  0  0  0  0  0
    9.5175  -15.2919   24.6884 C   0  0  0  0  0  0  0  0  0  0  0  0
   10.4516  -14.4558   24.7399 O   0  0  0  0  0  0  0  0  0  0  0  0
   12.0005  -17.6850   26.2966 O   0  0  0  0  0  0  0  0  0  0  0  0
    8.3726  -15.0732   25.4800 N   0  0  0  0  0  0  0  0  0  0  0  0
    8.2469  -13.8899   26.3044 C   0  0  1  0  0  0  0  0  0  0  0  0
    6.9452  -13.2167   25.9279 C   0  0  0  0  0  0  0  0  0  0  0  0
    5.9433  -12.9224   27.4294 S   0  0  0  0  0  0  0  0  0  0  0  0
    8.2916  -14.2868   27.7160 C   0  0  0  0  0  0  0  0  0  0  0  0
    8.0679  -15.4719   28.0418 O   0  0  0  0  0  0  0  0  0  0  0  0
    8.5798  -13.3583   28.6898 O   0  0  0  0  0  0  0  0  0  0  0  0
  2  1  1  6
  2  9  1  0
  2  3  1  0
  4  3  1  0
  4  8  1  0
  5  6  1  0
  5  4  2  0
  6  7  1  0
  7  8  2  0
  9 10  2  0
 11 12  1  0
 11  9  1  0
 12 13  1  1
 13 14  1  0
 14 15  2  0
 14 18  1  0
 16 17  2  0
 16 12  1  0
 19 16  1  0
 20 19  1  0
 20 21  1  1
 21 22  1  0
 23 25  1  0
 23 20  1  0
 24 23  2  0
M  END
$$$$
