HDC.pdb
     RDKit          3D

 25 25  0  0  1  0  0  0  0  0999 V2000
   10.5043  -15.0997   19.9330 N   0  0  0  0  0  0  0  0  0  0  0  0
    9.2019  -15.0257   20.6064 C   0  0  1  0  0  0  0  0  0  0  0  0
    8.1225  -15.5903   19.7521 C   0  0  0  0  0  0  0  0  0  0  0  0
    7.8789  -14.7605   18.5701 C   0  0  0  0  0  0  0  0  0  0  0  0
    8.5810  -13.6705   18.1232 C   0  0  0  0  0  0  0  0  0  0  0  0
    7.9524  -13.2310   17.0024 N   0  0  0  0  0  0  0  0  0  0  0  0
    6.8923  -14.0191   16.7561 C   0  0  0  0  0  0  0  0  0  0  0  0
    6.8455  -14.9487   17.7067 N   0  0  0  0  0  0  0  0  0  0  0  0
    9.2729  -15.7721   21.8845 C   0  0  0  0  0  0  0  0  0  0  0  0
    8.3074  -15.9313   22.6691 O   0  0  0  0  0  0  0  0  0  0  0  0
   10.5099  -16.3567   22.2694 N   0  0  0  0  0  0  0  0  0  0  0  0
   10.6241  -16.9705   23.5679 C   0  0  1  0  0  0  0  0  0  0  0  0
   11.8548  -17.8400   23.5537 C   0  0  0  0  0  0  0  0  0  0  0  0
   11.6505  -18.9325   22.5743 C   0  0  0  0  0  0  0  0  0  0  0  0
   10.8419  -19.8851   22.7212 O   0  0  0  0  0  0  0  0  0  0  0  0
   10.8530  -15.9515   24.6354 C   0  0  0  0  0  0  0  0  0  0  0  0
   11.2069  -14.7698   24.4063 O   0  0  0  0  0  0  0  0  0  0  0  0
   12.4015  -18.9178   21.3995 O   0  0  0  0  0  0  0  0  0  0  0  0
   10.6577  -16.3495   25.9729 N   0  0  0  0  0  0  0  0  0  0  0  0
   10.6169  -15.3777   27.0451 C   0  0  1  0  0  0  0  0  0  0  0  0
    9.4148  -14.4916   26.8021 C   0  0  0  0  0  0  0  0  0  0  0  0
    9.3195  -13.2074   28.1010 S   0  0  0  0  0  0  0  0  0  0  0  0
   10.5478  -16.0870   28.3274 C   0  0  0  0  0  0  0  0  0  0  0  0
    9.9219  -17.1645   28.4153 O   0  0  0  0  0  0  0  0  0  0  0  0
   11.1708  -15.5714   29.4407 O   0  0  0  0  0  0  0  0  0  0  0  0
  2  1  1  6
  2  9  1  0
  2  3  1  0
  4  3  1  0
  4  8  1  0
  5  6  1  0
  5  4  2  0
  6  7  1  0
  7  8  2  0
  9 10  2  0
 11 12  1  0
 11  9  1  0
 12 13  1  6
 13 14  1  0
 14 15  2  0
 14 18  1  0
 16 17  2  0
 16 12  1  0
 19 16  1  0
 20 19  1  0
 20 21  1  6
 21 22  1  0
 23 25  1  0
 23 20  1  0
 24 23  2  0
M  END
$$$$
