HDC.pdb
     RDKit          3D

 25 25  0  0  1  0  0  0  0  0999 V2000
    5.9038  -16.2729   21.7002 N   0  0  0  0  0  0  0  0  0  0  0  0
    7.2958  -15.8742   21.9421 C   0  0  1  0  0  0  0  0  0  0  0  0
    7.4458  -14.3945   21.9009 C   0  0  0  0  0  0  0  0  0  0  0  0
    7.8811  -13.9318   20.5813 C   0  0  0  0  0  0  0  0  0  0  0  0
    8.1940  -14.6709   19.4693 C   0  0  0  0  0  0  0  0  0  0  0  0
    8.5645  -13.7904   18.5039 N   0  0  0  0  0  0  0  0  0  0  0  0
    8.4864  -12.5420   18.9952 C   0  0  0  0  0  0  0  0  0  0  0  0
    8.0717  -12.6252   20.2566 N   0  0  0  0  0  0  0  0  0  0  0  0
    7.7246  -16.3857   23.2650 C   0  0  0  0  0  0  0  0  0  0  0  0
    6.9458  -16.6441   24.2136 O   0  0  0  0  0  0  0  0  0  0  0  0
    9.1090  -16.6063   23.4989 N   0  0  0  0  0  0  0  0  0  0  0  0
    9.5330  -17.1254   24.7744 C   0  0  1  0  0  0  0  0  0  0  0  0
   10.6636  -18.0889   24.5206 C   0  0  0  0  0  0  0  0  0  0  0  0
   11.0794  -18.6808   25.8134 C   0  0  0  0  0  0  0  0  0  0  0  0
   10.3302  -18.8132   26.8153 O   0  0  0  0  0  0  0  0  0  0  0  0
   10.0973  -16.0488   25.6419 C   0  0  0  0  0  0  0  0  0  0  0  0
   11.1559  -15.4275   25.3818 O   0  0  0  0  0  0  0  0  0  0  0  0
   12.3935  -19.1284   25.9447 O   0  0  0  0  0  0  0  0  0  0  0  0
    9.3936  -15.7191   26.8173 N   0  0  0  0  0  0  0  0  0  0  0  0
    9.8755  -14.6909   27.7153 C   0  0  1  0  0  0  0  0  0  0  0  0
    8.7238  -13.7440   27.9725 C   0  0  0  0  0  0  0  0  0  0  0  0
    8.0374  -13.1573   26.3820 S   0  0  0  0  0  0  0  0  0  0  0  0
   10.3722  -15.3250   28.9414 C   0  0  0  0  0  0  0  0  0  0  0  0
   10.2894  -16.5631   29.0852 O   0  0  0  0  0  0  0  0  0  0  0  0
   10.9318  -14.5618   29.9403 O   0  0  0  0  0  0  0  0  0  0  0  0
  2  1  1  1
  2  9  1  0
  2  3  1  0
  4  3  1  0
  4  8  1  0
  5  6  1  0
  5  4  2  0
  6  7  1  0
  7  8  2  0
  9 10  2  0
 11 12  1  0
 11  9  1  0
 12 13  1  6
 13 14  1  0
 14 15  2  0
 14 18  1  0
 16 17  2  0
 16 12  1  0
 19 16  1  0
 20 19  1  0
 20 21  1  1
 21 22  1  0
 23 25  1  0
 23 20  1  0
 24 23  2  0
M  END
$$$$
