ELY.pdb
     RDKit          3D

 30 30  0  0  1  0  0  0  0  0999 V2000
    9.2867  -18.4972   19.0370 N   0  0  0  0  0  0  0  0  0  0  0  0
   10.5844  -18.0446   19.4568 C   0  0  1  0  0  0  0  0  0  0  0  0
   11.4357  -17.6035   18.3054 C   0  0  0  0  0  0  0  0  0  0  0  0
   11.6758  -18.6400   17.2635 C   0  0  0  0  0  0  0  0  0  0  0  0
   12.5964  -18.2518   16.1939 C   0  0  0  0  0  0  0  0  0  0  0  0
   13.8008  -17.9615   16.3034 O   0  0  0  0  0  0  0  0  0  0  0  0
   10.5052  -16.9331   20.4391 C   0  0  0  0  0  0  0  0  0  0  0  0
   11.6165  -16.5453   20.9225 O   0  0  0  0  0  0  0  0  0  0  0  0
   12.0805  -18.1946   14.8876 O   0  0  0  0  0  0  0  0  0  0  0  0
    7.0990  -12.5600   20.2100 C   0  0  0  0  0  0  0  0  0  0  0  0
    8.1866  -13.6109   20.2743 C   0  0  2  0  0  0  0  0  0  0  0  0
    7.8287  -14.6769   19.2365 C   0  0  0  0  0  0  0  0  0  0  0  0
    8.1644  -14.2819   21.6092 C   0  0  0  0  0  0  0  0  0  0  0  0
    9.2880  -15.2732   21.8068 C   0  0  2  0  0  0  0  0  0  0  0  0
    9.2883  -16.3207   20.8354 N   0  0  0  0  0  0  0  0  0  0  0  0
    9.1074  -15.8207   23.1999 C   0  0  0  0  0  0  0  0  0  0  0  0
    8.2492  -16.7165   23.4252 O   0  0  0  0  0  0  0  0  0  0  0  0
    6.0052  -10.6132   27.0120 O   0  0  0  0  0  0  0  0  0  0  0  0
    6.5128  -11.8789   26.7177 C   0  0  0  0  0  0  0  0  0  0  0  0
    7.8496  -12.1645   26.8959 C   0  0  0  0  0  0  0  0  0  0  0  0
    8.3836  -13.4052   26.6146 C   0  0  0  0  0  0  0  0  0  0  0  0
    7.5961  -14.4311   26.1358 C   0  0  0  0  0  0  0  0  0  0  0  0
    8.1181  -15.7722   25.8107 C   0  0  0  0  0  0  0  0  0  0  0  0
    9.6199  -15.8122   25.6685 C   0  0  2  0  0  0  0  0  0  0  0  0
    9.8720  -15.3664   24.2883 N   0  0  0  0  0  0  0  0  0  0  0  0
   10.0766  -17.2033   25.8618 C   0  0  0  0  0  0  0  0  0  0  0  0
   11.0278  -17.4574   26.8696 O   0  0  0  0  0  0  0  0  0  0  0  0
    6.2435  -14.1332   25.9585 C   0  0  0  0  0  0  0  0  0  0  0  0
    5.7105  -12.8937   26.2398 C   0  0  0  0  0  0  0  0  0  0  0  0
    9.6734  -18.1685   25.1890 O   0  0  0  0  0  0  0  0  0  0  0  0
  2  3  1  0
  2  1  1  6
  3  4  1  0
  4  5  1  0
  5  9  1  0
  5  6  2  0
  7  8  2  0
  7  2  1  0
 11 12  1  6
 11 10  1  0
 13 11  1  0
 14 13  1  6
 14 15  1  0
 15  7  1  0
 16 25  1  0
 16 14  1  0
 17 16  2  0
 19 18  1  0
 20 19  2  0
 21 20  1  0
 22 28  1  0
 22 21  2  0
 23 22  1  0
 24 25  1  0
 24 23  1  6
 26 24  1  0
 27 26  1  0
 28 29  2  0
 29 19  1  0
 30 26  2  0
M  END
$$$$
