ELY.pdb
     RDKit          3D

 30 30  0  0  1  0  0  0  0  0999 V2000
   10.7943  -19.6026   19.6843 N   0  0  0  0  0  0  0  0  0  0  0  0
    9.8485  -19.1753   20.6782 C   0  0  1  0  0  0  0  0  0  0  0  0
   10.0384  -19.8788   21.9874 C   0  0  0  0  0  0  0  0  0  0  0  0
    9.8601  -21.3566   21.9424 C   0  0  0  0  0  0  0  0  0  0  0  0
    9.8514  -22.0266   23.2436 C   0  0  0  0  0  0  0  0  0  0  0  0
    9.0729  -22.9168   23.6287 O   0  0  0  0  0  0  0  0  0  0  0  0
    9.9020  -17.7101   20.9169 C   0  0  0  0  0  0  0  0  0  0  0  0
   11.0458  -17.1707   20.7755 O   0  0  0  0  0  0  0  0  0  0  0  0
   10.8252  -21.6339   24.1782 O   0  0  0  0  0  0  0  0  0  0  0  0
    6.3665  -12.6851   21.8422 C   0  0  0  0  0  0  0  0  0  0  0  0
    7.7331  -13.3362   21.8438 C   0  0  2  0  0  0  0  0  0  0  0  0
    8.5246  -12.6981   20.7004 C   0  0  0  0  0  0  0  0  0  0  0  0
    7.6021  -14.7894   21.5214 C   0  0  0  0  0  0  0  0  0  0  0  0
    8.9141  -15.5386   21.5618 C   0  0  2  0  0  0  0  0  0  0  0  0
    8.7726  -16.9318   21.2798 N   0  0  0  0  0  0  0  0  0  0  0  0
    9.4677  -15.3153   22.9463 C   0  0  0  0  0  0  0  0  0  0  0  0
    9.7078  -14.1468   23.3547 O   0  0  0  0  0  0  0  0  0  0  0  0
    5.9142  -11.5230   26.6429 O   0  0  0  0  0  0  0  0  0  0  0  0
    6.6443  -12.7027   26.4953 C   0  0  0  0  0  0  0  0  0  0  0  0
    7.9919  -12.7418   26.7833 C   0  0  0  0  0  0  0  0  0  0  0  0
    8.7428  -13.8914   26.6482 C   0  0  0  0  0  0  0  0  0  0  0  0
    8.1744  -15.0701   26.2132 C   0  0  0  0  0  0  0  0  0  0  0  0
    8.9335  -16.3237   26.0426 C   0  0  0  0  0  0  0  0  0  0  0  0
   10.1825  -16.1594   25.2119 C   0  0  2  0  0  0  0  0  0  0  0  0
    9.7357  -16.3779   23.8263 N   0  0  0  0  0  0  0  0  0  0  0  0
   11.1591  -17.1907   25.6167 C   0  0  0  0  0  0  0  0  0  0  0  0
   11.7220  -17.1047   26.9053 O   0  0  0  0  0  0  0  0  0  0  0  0
    6.8092  -15.0215   25.9240 C   0  0  0  0  0  0  0  0  0  0  0  0
    6.0594  -13.8730   26.0592 C   0  0  0  0  0  0  0  0  0  0  0  0
   11.5176  -18.1339   24.8896 O   0  0  0  0  0  0  0  0  0  0  0  0
  2  3  1  0
  2  1  1  6
  3  4  1  0
  4  5  1  0
  5  9  1  0
  5  6  2  0
  7  8  2  0
  7  2  1  0
 11 12  1  6
 11 10  1  0
 13 11  1  0
 14 13  1  1
 14 15  1  0
 15  7  1  0
 16 25  1  0
 16 14  1  0
 17 16  2  0
 19 18  1  0
 20 19  2  0
 21 20  1  0
 22 28  1  0
 22 21  2  0
 23 22  1  0
 24 25  1  0
 24 23  1  1
 26 24  1  0
 27 26  1  0
 28 29  2  0
 29 19  1  0
 30 26  2  0
M  END
$$$$
