ELY.pdb
     RDKit          3D

 30 30  0  0  1  0  0  0  0  0999 V2000
    9.8492  -19.3418   18.5366 N   0  0  0  0  0  0  0  0  0  0  0  0
   11.0265  -18.5298   18.6770 C   0  0  1  0  0  0  0  0  0  0  0  0
   11.5605  -18.0648   17.3564 C   0  0  0  0  0  0  0  0  0  0  0  0
   12.5438  -18.9806   16.7146 C   0  0  0  0  0  0  0  0  0  0  0  0
   13.3186  -18.3988   15.6176 C   0  0  0  0  0  0  0  0  0  0  0  0
   12.9559  -18.2409   14.4384 O   0  0  0  0  0  0  0  0  0  0  0  0
   10.7947  -17.3416   19.5379 C   0  0  0  0  0  0  0  0  0  0  0  0
   11.8336  -16.6764   19.8494 O   0  0  0  0  0  0  0  0  0  0  0  0
   14.6228  -17.9627   15.9090 O   0  0  0  0  0  0  0  0  0  0  0  0
    6.4104  -13.3668   21.2138 C   0  0  0  0  0  0  0  0  0  0  0  0
    7.8613  -13.7813   21.0937 C   0  0  2  0  0  0  0  0  0  0  0  0
    8.4167  -13.0804   19.8521 C   0  0  0  0  0  0  0  0  0  0  0  0
    7.9488  -15.2507   20.8365 C   0  0  0  0  0  0  0  0  0  0  0  0
    9.3654  -15.7767   20.8088 C   0  0  2  0  0  0  0  0  0  0  0  0
    9.5134  -16.9453   20.0007 N   0  0  0  0  0  0  0  0  0  0  0  0
    9.7232  -16.0580   22.2462 C   0  0  0  0  0  0  0  0  0  0  0  0
    9.3647  -17.1368   22.7917 O   0  0  0  0  0  0  0  0  0  0  0  0
   10.3518  -15.2560   30.8682 O   0  0  0  0  0  0  0  0  0  0  0  0
   10.1980  -15.1326   29.4870 C   0  0  0  0  0  0  0  0  0  0  0  0
   10.5270  -13.9605   28.8401 C   0  0  0  0  0  0  0  0  0  0  0  0
   10.3871  -13.8055   27.4763 C   0  0  0  0  0  0  0  0  0  0  0  0
    9.9055  -14.8276   26.6858 C   0  0  0  0  0  0  0  0  0  0  0  0
    9.7278  -14.7109   25.2257 C   0  0  0  0  0  0  0  0  0  0  0  0
   10.8007  -15.4167   24.4334 C   0  0  2  0  0  0  0  0  0  0  0  0
   10.4576  -15.1489   23.0270 N   0  0  0  0  0  0  0  0  0  0  0  0
   10.7296  -16.8629   24.7243 C   0  0  0  0  0  0  0  0  0  0  0  0
   11.8725  -17.4916   25.2565 O   0  0  0  0  0  0  0  0  0  0  0  0
    9.5750  -16.0111   27.3491 C   0  0  0  0  0  0  0  0  0  0  0  0
    9.7150  -16.1656   28.7115 C   0  0  0  0  0  0  0  0  0  0  0  0
    9.7210  -17.5638   24.5285 O   0  0  0  0  0  0  0  0  0  0  0  0
  2  3  1  0
  2  1  1  6
  3  4  1  0
  4  5  1  0
  5  9  1  0
  5  6  2  0
  7  8  2  0
  7  2  1  0
 11 12  1  6
 11 10  1  0
 13 11  1  0
 14 13  1  1
 14 15  1  0
 15  7  1  0
 16 25  1  0
 16 14  1  0
 17 16  2  0
 19 18  1  0
 20 19  2  0
 21 20  1  0
 22 28  1  0
 22 21  2  0
 23 22  1  0
 24 25  1  0
 24 23  1  1
 26 24  1  0
 27 26  1  0
 28 29  2  0
 29 19  1  0
 30 26  2  0
M  END
$$$$
