ELY.pdb
     RDKit          3D

 30 30  0  0  1  0  0  0  0  0999 V2000
    9.6308  -18.1538   17.7575 N   0  0  0  0  0  0  0  0  0  0  0  0
   10.8808  -17.7880   18.3647 C   0  0  1  0  0  0  0  0  0  0  0  0
   11.8452  -17.2025   17.3786 C   0  0  0  0  0  0  0  0  0  0  0  0
   12.0006  -17.9721   16.1133 C   0  0  0  0  0  0  0  0  0  0  0  0
   12.9678  -17.4242   15.1614 C   0  0  0  0  0  0  0  0  0  0  0  0
   12.7288  -16.9095   14.0546 O   0  0  0  0  0  0  0  0  0  0  0  0
   10.7062  -16.8263   19.4832 C   0  0  0  0  0  0  0  0  0  0  0  0
   11.7769  -16.4530   20.0605 O   0  0  0  0  0  0  0  0  0  0  0  0
   14.3261  -17.4757   15.5196 O   0  0  0  0  0  0  0  0  0  0  0  0
    8.7813  -12.7698   19.4652 C   0  0  0  0  0  0  0  0  0  0  0  0
    7.7689  -13.8787   19.6571 C   0  0  2  0  0  0  0  0  0  0  0  0
    6.4045  -13.2046   19.8160 C   0  0  0  0  0  0  0  0  0  0  0  0
    8.0457  -14.6018   20.9352 C   0  0  0  0  0  0  0  0  0  0  0  0
    9.3602  -15.3477   20.9356 C   0  0  2  0  0  0  0  0  0  0  0  0
    9.4443  -16.3353   19.9068 N   0  0  0  0  0  0  0  0  0  0  0  0
    9.4728  -15.9729   22.3029 C   0  0  0  0  0  0  0  0  0  0  0  0
    9.0693  -17.1513   22.4990 O   0  0  0  0  0  0  0  0  0  0  0  0
   10.4329  -15.9922   31.1860 O   0  0  0  0  0  0  0  0  0  0  0  0
   10.4512  -15.6795   29.8265 C   0  0  0  0  0  0  0  0  0  0  0  0
    9.7439  -14.6016   29.3384 C   0  0  0  0  0  0  0  0  0  0  0  0
    9.7406  -14.2651   28.0004 C   0  0  0  0  0  0  0  0  0  0  0  0
   10.4530  -15.0000   27.0762 C   0  0  0  0  0  0  0  0  0  0  0  0
   10.4758  -14.6890   25.6341 C   0  0  0  0  0  0  0  0  0  0  0  0
    9.9697  -15.8177   24.7698 C   0  0  2  0  0  0  0  0  0  0  0  0
   10.0215  -15.2844   23.3985 N   0  0  0  0  0  0  0  0  0  0  0  0
    8.5792  -16.1259   25.1604 C   0  0  0  0  0  0  0  0  0  0  0  0
    8.3557  -17.2242   26.0140 O   0  0  0  0  0  0  0  0  0  0  0  0
   11.1666  -16.0898   27.5791 C   0  0  0  0  0  0  0  0  0  0  0  0
   11.1697  -16.4255   28.9159 C   0  0  0  0  0  0  0  0  0  0  0  0
    7.5891  -15.4751   24.7822 O   0  0  0  0  0  0  0  0  0  0  0  0
  2  3  1  0
  2  1  1  6
  3  4  1  0
  4  5  1  0
  5  9  1  0
  5  6  2  0
  7  8  2  0
  7  2  1  0
 11 12  1  1
 11 10  1  0
 13 11  1  0
 14 13  1  1
 14 15  1  0
 15  7  1  0
 16 25  1  0
 16 14  1  0
 17 16  2  0
 19 18  1  0
 20 19  2  0
 21 20  1  0
 22 28  1  0
 22 21  2  0
 23 22  1  0
 24 25  1  0
 24 23  1  1
 26 24  1  0
 27 26  1  0
 28 29  2  0
 29 19  1  0
 30 26  2  0
M  END
$$$$
