ELY.pdb
     RDKit          3D

 30 30  0  0  1  0  0  0  0  0999 V2000
   11.2464  -17.5594   18.2493 N   0  0  0  0  0  0  0  0  0  0  0  0
   10.9675  -17.9668   19.5989 C   0  0  1  0  0  0  0  0  0  0  0  0
   12.0681  -18.7988   20.1835 C   0  0  0  0  0  0  0  0  0  0  0  0
   11.6500  -20.1368   20.6861 C   0  0  0  0  0  0  0  0  0  0  0  0
   12.7170  -20.9454   21.2774 C   0  0  0  0  0  0  0  0  0  0  0  0
   13.9192  -20.6453   21.3863 O   0  0  0  0  0  0  0  0  0  0  0  0
   10.7196  -16.8112   20.4987 C   0  0  0  0  0  0  0  0  0  0  0  0
   11.7472  -16.1326   20.8190 O   0  0  0  0  0  0  0  0  0  0  0  0
   12.3641  -22.2075   21.7858 O   0  0  0  0  0  0  0  0  0  0  0  0
    8.9435  -12.9021   19.9983 C   0  0  0  0  0  0  0  0  0  0  0  0
    7.9362  -14.0171   20.1820 C   0  0  2  0  0  0  0  0  0  0  0  0
    6.5507  -13.3870   20.0251 C   0  0  0  0  0  0  0  0  0  0  0  0
    8.0154  -14.5464   21.5771 C   0  0  0  0  0  0  0  0  0  0  0  0
    9.2752  -15.3340   21.8547 C   0  0  2  0  0  0  0  0  0  0  0  0
    9.4355  -16.4581   20.9879 N   0  0  0  0  0  0  0  0  0  0  0  0
    9.1759  -15.7657   23.2959 C   0  0  0  0  0  0  0  0  0  0  0  0
    8.3441  -16.6487   23.6398 O   0  0  0  0  0  0  0  0  0  0  0  0
    5.5554  -10.8400   26.6195 O   0  0  0  0  0  0  0  0  0  0  0  0
    6.2467  -12.0392   26.4452 C   0  0  0  0  0  0  0  0  0  0  0  0
    5.6315  -13.1351   25.8786 C   0  0  0  0  0  0  0  0  0  0  0  0
    6.2861  -14.3352   25.6921 C   0  0  0  0  0  0  0  0  0  0  0  0
    7.6028  -14.4978   26.0684 C   0  0  0  0  0  0  0  0  0  0  0  0
    8.3458  -15.7614   25.8999 C   0  0  0  0  0  0  0  0  0  0  0  0
    9.8312  -15.5637   25.7221 C   0  0  2  0  0  0  0  0  0  0  0  0
    9.9895  -15.2145   24.3007 N   0  0  0  0  0  0  0  0  0  0  0  0
   10.5178  -16.8346   26.0293 C   0  0  0  0  0  0  0  0  0  0  0  0
   10.5795  -17.2493   27.3743 O   0  0  0  0  0  0  0  0  0  0  0  0
    8.2182  -13.3829   26.6412 C   0  0  0  0  0  0  0  0  0  0  0  0
    7.5639  -12.1842   26.8271 C   0  0  0  0  0  0  0  0  0  0  0  0
   11.0470  -17.5650   25.1729 O   0  0  0  0  0  0  0  0  0  0  0  0
  2  3  1  0
  2  1  1  6
  3  4  1  0
  4  5  1  0
  5  9  1  0
  5  6  2  0
  7  8  2  0
  7  2  1  0
 11 12  1  1
 11 10  1  0
 13 11  1  0
 14 13  1  6
 14 15  1  0
 15  7  1  0
 16 25  1  0
 16 14  1  0
 17 16  2  0
 19 18  1  0
 20 19  2  0
 21 20  1  0
 22 28  1  0
 22 21  2  0
 23 22  1  0
 24 25  1  0
 24 23  1  6
 26 24  1  0
 27 26  1  0
 28 29  2  0
 29 19  1  0
 30 26  2  0
M  END
$$$$
