ELY.pdb
     RDKit          3D

 30 30  0  0  1  0  0  0  0  0999 V2000
    9.1835  -18.5925   18.0088 N   0  0  0  0  0  0  0  0  0  0  0  0
   10.4973  -18.0671   18.2602 C   0  0  1  0  0  0  0  0  0  0  0  0
   11.1260  -17.4877   17.0297 C   0  0  0  0  0  0  0  0  0  0  0  0
   11.3248  -18.4484   15.9094 C   0  0  0  0  0  0  0  0  0  0  0  0
   11.9995  -17.9046   14.7300 C   0  0  0  0  0  0  0  0  0  0  0  0
   13.1815  -18.0843   14.3869 O   0  0  0  0  0  0  0  0  0  0  0  0
   10.4976  -17.0304   19.3241 C   0  0  0  0  0  0  0  0  0  0  0  0
   11.6448  -16.6318   19.7040 O   0  0  0  0  0  0  0  0  0  0  0  0
   11.2435  -17.0838   13.8751 O   0  0  0  0  0  0  0  0  0  0  0  0
    8.5712  -12.8937   19.7021 C   0  0  0  0  0  0  0  0  0  0  0  0
    7.6516  -14.0637   19.9794 C   0  0  2  0  0  0  0  0  0  0  0  0
    6.2795  -13.4742   20.3123 C   0  0  0  0  0  0  0  0  0  0  0  0
    8.1154  -14.7951   21.1971 C   0  0  0  0  0  0  0  0  0  0  0  0
    9.3952  -15.5710   20.9860 C   0  0  2  0  0  0  0  0  0  0  0  0
    9.3163  -16.4972   19.9013 N   0  0  0  0  0  0  0  0  0  0  0  0
    9.6616  -16.2789   22.2902 C   0  0  0  0  0  0  0  0  0  0  0  0
    9.0692  -17.3586   22.5607 O   0  0  0  0  0  0  0  0  0  0  0  0
   15.8360  -18.2622   20.6050 O   0  0  0  0  0  0  0  0  0  0  0  0
   14.9985  -17.7495   21.5961 C   0  0  0  0  0  0  0  0  0  0  0  0
   14.3639  -18.5862   22.4892 C   0  0  0  0  0  0  0  0  0  0  0  0
   13.5297  -18.1119   23.4806 C   0  0  0  0  0  0  0  0  0  0  0  0
   13.2877  -16.7622   23.6269 C   0  0  0  0  0  0  0  0  0  0  0  0
   12.3980  -16.2040   24.6630 C   0  0  0  0  0  0  0  0  0  0  0  0
   10.9425  -16.5382   24.4463 C   0  0  2  0  0  0  0  0  0  0  0  0
   10.5641  -15.7775   23.2439 N   0  0  0  0  0  0  0  0  0  0  0  0
   10.1720  -16.0807   25.6202 C   0  0  0  0  0  0  0  0  0  0  0  0
    9.2223  -15.0567   25.4348 O   0  0  0  0  0  0  0  0  0  0  0  0
   13.9346  -15.9221   22.7183 C   0  0  0  0  0  0  0  0  0  0  0  0
   14.7679  -16.3963   21.7282 C   0  0  0  0  0  0  0  0  0  0  0  0
   10.3087  -16.5437   26.7664 O   0  0  0  0  0  0  0  0  0  0  0  0
  2  3  1  0
  2  1  1  6
  3  4  1  0
  4  5  1  0
  5  9  1  0
  5  6  2  0
  7  8  2  0
  7  2  1  0
 11 12  1  1
 11 10  1  0
 13 11  1  0
 14 13  1  1
 14 15  1  0
 15  7  1  0
 16 25  1  0
 16 14  1  0
 17 16  2  0
 19 18  1  0
 20 19  2  0
 21 20  1  0
 22 28  1  0
 22 21  2  0
 23 22  1  0
 24 25  1  0
 24 23  1  1
 26 24  1  0
 27 26  1  0
 28 29  2  0
 29 19  1  0
 30 26  2  0
M  END
$$$$
