KCH.pdb
     RDKit          3D

 26 26  0  0  1  0  0  0  0  0999 V2000
   34.4922  -28.9647  -17.9340 N   0  0  0  0  0  0  0  0  0  0  0  0
   33.2427  -29.0780  -18.6655 C   0  0  1  0  0  0  0  0  0  0  0  0
   33.2570  -30.2570  -19.5500 C   0  0  0  0  0  0  0  0  0  0  0  0
   34.1728  -30.3198  -20.6989 C   0  0  0  0  0  0  0  0  0  0  0  0
   35.6153  -30.4607  -20.5756 C   0  0  0  0  0  0  0  0  0  0  0  0
   36.4446  -30.6642  -21.7840 C   0  0  0  0  0  0  0  0  0  0  0  0
   37.8805  -30.6666  -21.4220 N   0  0  0  0  0  0  0  0  0  0  0  0
   32.1133  -29.2246  -17.6416 C   0  0  0  0  0  0  0  0  0  0  0  0
   32.3307  -29.6570  -16.4884 O   0  0  0  0  0  0  0  0  0  0  0  0
   30.8033  -28.8745  -17.9790 N   0  0  0  0  0  0  0  0  0  0  0  0
   29.7330  -28.8214  -17.0281 C   0  0  1  0  0  0  0  0  0  0  0  0
   28.8200  -27.6470  -17.1914 C   0  0  0  0  0  0  0  0  0  0  0  0
   29.4092  -26.2049  -16.2607 S   0  0  0  0  0  0  0  0  0  0  0  0
   28.9282  -30.0537  -17.1330 C   0  0  0  0  0  0  0  0  0  0  0  0
   28.5511  -30.5329  -18.2430 O   0  0  0  0  0  0  0  0  0  0  0  0
   28.5384  -30.7630  -15.9701 N   0  0  0  0  0  0  0  0  0  0  0  0
   27.7480  -31.9822  -16.0436 C   0  0  1  0  0  0  0  0  0  0  0  0
   27.7826  -32.6092  -14.6743 C   0  0  0  0  0  0  0  0  0  0  0  0
   26.9915  -33.8513  -14.6238 C   0  0  0  0  0  0  0  0  0  0  0  0
   25.6225  -33.9445  -14.3714 C   0  0  0  0  0  0  0  0  0  0  0  0
   25.2846  -35.2451  -14.4116 N   0  0  0  0  0  0  0  0  0  0  0  0
   26.4015  -35.9434  -14.6797 C   0  0  0  0  0  0  0  0  0  0  0  0
   27.4278  -35.1011  -14.8069 N   0  0  0  0  0  0  0  0  0  0  0  0
   26.3673  -31.6968  -16.4720 C   0  0  0  0  0  0  0  0  0  0  0  0
   25.6712  -30.5605  -16.0722 O   0  0  0  0  0  0  0  0  0  0  0  0
   25.7789  -32.4944  -17.2250 O   0  0  0  0  0  0  0  0  0  0  0  0
  2  3  1  0
  2  1  1  1
  4  3  1  0
  5  4  1  0
  6  7  1  0
  6  5  1  0
  8  2  1  0
  8  9  2  0
 10  8  1  0
 11 10  1  0
 11 12  1  6
 12 13  1  0
 14 11  1  0
 15 14  2  0
 16 14  1  0
 17 24  1  0
 17 16  1  0
 17 18  1  1
 19 23  1  0
 19 18  1  0
 20 19  2  0
 21 20  1  0
 21 22  1  0
 22 23  2  0
 24 25  1  0
 26 24  2  0
M  END
$$$$
