KCH.pdb
     RDKit          3D

 26 26  0  0  1  0  0  0  0  0999 V2000
   23.6449  -20.6919  -16.8155 N   0  0  0  0  0  0  0  0  0  0  0  0
   23.3053  -20.6484  -15.4042 C   0  0  1  0  0  0  0  0  0  0  0  0
   24.0556  -21.6700  -14.6518 C   0  0  0  0  0  0  0  0  0  0  0  0
   24.9017  -22.6462  -15.3546 C   0  0  0  0  0  0  0  0  0  0  0  0
   24.6365  -24.0762  -15.3783 C   0  0  0  0  0  0  0  0  0  0  0  0
   25.5448  -24.9848  -16.1123 C   0  0  0  0  0  0  0  0  0  0  0  0
   25.0968  -26.3878  -15.9569 N   0  0  0  0  0  0  0  0  0  0  0  0
   23.6724  -19.2580  -14.8776 C   0  0  0  0  0  0  0  0  0  0  0  0
   23.3683  -18.8981  -13.7191 O   0  0  0  0  0  0  0  0  0  0  0  0
   24.3620  -18.3538  -15.6897 N   0  0  0  0  0  0  0  0  0  0  0  0
   24.6830  -17.0178  -15.2840 C   0  0  1  0  0  0  0  0  0  0  0  0
   26.0836  -16.8436  -14.7866 C   0  0  0  0  0  0  0  0  0  0  0  0
   27.2728  -17.7777  -15.7898 S   0  0  0  0  0  0  0  0  0  0  0  0
   24.4768  -16.1015  -16.4221 C   0  0  0  0  0  0  0  0  0  0  0  0
   24.5233  -16.4860  -17.6279 O   0  0  0  0  0  0  0  0  0  0  0  0
   24.2132  -14.7267  -16.2040 N   0  0  0  0  0  0  0  0  0  0  0  0
   23.9797  -13.8058  -17.3058 C   0  0  1  0  0  0  0  0  0  0  0  0
   25.3050  -13.5993  -17.9917 C   0  0  0  0  0  0  0  0  0  0  0  0
   26.3783  -13.3057  -17.0259 C   0  0  0  0  0  0  0  0  0  0  0  0
   27.6106  -13.9547  -16.9436 C   0  0  0  0  0  0  0  0  0  0  0  0
   28.3033  -13.3959  -15.9359 N   0  0  0  0  0  0  0  0  0  0  0  0
   27.5333  -12.4305  -15.4046 C   0  0  0  0  0  0  0  0  0  0  0  0
   26.3746  -12.3786  -16.0632 N   0  0  0  0  0  0  0  0  0  0  0  0
   22.9668  -14.3343  -18.2362 C   0  0  0  0  0  0  0  0  0  0  0  0
   23.2729  -15.2226  -19.2623 O   0  0  0  0  0  0  0  0  0  0  0  0
   21.7785  -13.9836  -18.1169 O   0  0  0  0  0  0  0  0  0  0  0  0
  2  3  1  0
  2  1  1  6
  4  3  1  0
  5  4  1  0
  6  7  1  0
  6  5  1  0
  8  2  1  0
  8  9  2  0
 10  8  1  0
 11 10  1  0
 11 12  1  6
 12 13  1  0
 14 11  1  0
 15 14  2  0
 16 14  1  0
 17 24  1  0
 17 16  1  0
 17 18  1  6
 19 23  1  0
 19 18  1  0
 20 19  2  0
 21 20  1  0
 21 22  1  0
 22 23  2  0
 24 25  1  0
 26 24  2  0
M  END
$$$$
