KCH.pdb
     RDKit          3D

 26 26  0  0  1  0  0  0  0  0999 V2000
   25.8027  -32.3906  -14.0994 N   0  0  0  0  0  0  0  0  0  0  0  0
   25.5192  -33.5822  -13.3191 C   0  0  1  0  0  0  0  0  0  0  0  0
   26.2399  -34.7483  -13.8606 C   0  0  0  0  0  0  0  0  0  0  0  0
   25.7228  -35.4696  -15.0332 C   0  0  0  0  0  0  0  0  0  0  0  0
   25.8931  -36.8990  -15.2423 C   0  0  0  0  0  0  0  0  0  0  0  0
   27.2517  -37.4707  -15.3723 C   0  0  0  0  0  0  0  0  0  0  0  0
   27.1708  -38.9360  -15.5714 N   0  0  0  0  0  0  0  0  0  0  0  0
   25.9816  -33.3212  -11.8826 C   0  0  0  0  0  0  0  0  0  0  0  0
   27.1020  -32.8217  -11.6388 O   0  0  0  0  0  0  0  0  0  0  0  0
   25.1522  -33.6392  -10.8040 N   0  0  0  0  0  0  0  0  0  0  0  0
   25.4655  -33.3084   -9.4458 C   0  0  1  0  0  0  0  0  0  0  0  0
   24.4051  -32.5213   -8.7418 C   0  0  0  0  0  0  0  0  0  0  0  0
   24.7949  -30.7493   -8.7100 S   0  0  0  0  0  0  0  0  0  0  0  0
   25.7040  -34.5504   -8.6856 C   0  0  0  0  0  0  0  0  0  0  0  0
   24.9576  -35.5686   -8.7860 O   0  0  0  0  0  0  0  0  0  0  0  0
   26.8011  -34.6529   -7.7952 N   0  0  0  0  0  0  0  0  0  0  0  0
   27.0431  -35.8538   -7.0104 C   0  0  1  0  0  0  0  0  0  0  0  0
   28.3358  -35.6380   -6.2676 C   0  0  0  0  0  0  0  0  0  0  0  0
   28.7844  -36.8654   -5.5869 C   0  0  0  0  0  0  0  0  0  0  0  0
   28.7871  -38.1514   -6.1279 C   0  0  0  0  0  0  0  0  0  0  0  0
   29.2685  -38.9896   -5.1935 N   0  0  0  0  0  0  0  0  0  0  0  0
   29.5577  -38.2559   -4.1049 C   0  0  0  0  0  0  0  0  0  0  0  0
   29.2650  -36.9770   -4.3449 N   0  0  0  0  0  0  0  0  0  0  0  0
   25.9270  -36.1196   -6.0858 C   0  0  0  0  0  0  0  0  0  0  0  0
   25.2716  -35.1137   -5.3828 O   0  0  0  0  0  0  0  0  0  0  0  0
   25.5371  -37.2887   -5.9111 O   0  0  0  0  0  0  0  0  0  0  0  0
  2  3  1  0
  2  1  1  6
  4  3  1  0
  5  4  1  0
  6  7  1  0
  6  5  1  0
  8  2  1  0
  8  9  2  0
 10  8  1  0
 11 10  1  0
 11 12  1  1
 12 13  1  0
 14 11  1  0
 15 14  2  0
 16 14  1  0
 17 24  1  0
 17 16  1  0
 17 18  1  1
 19 23  1  0
 19 18  1  0
 20 19  2  0
 21 20  1  0
 21 22  1  0
 22 23  2  0
 24 25  1  0
 26 24  2  0
M  END
$$$$
