KCH.pdb
     RDKit          3D

 26 26  0  0  1  0  0  0  0  0999 V2000
   25.0449  -17.4159  -20.2328 N   0  0  0  0  0  0  0  0  0  0  0  0
   25.1463  -17.2114  -18.7985 C   0  0  1  0  0  0  0  0  0  0  0  0
   24.2343  -16.1418  -18.3549 C   0  0  0  0  0  0  0  0  0  0  0  0
   24.2995  -14.8033  -18.9605 C   0  0  0  0  0  0  0  0  0  0  0  0
   23.3130  -14.2924  -19.8995 C   0  0  0  0  0  0  0  0  0  0  0  0
   23.3966  -12.8925  -20.3714 C   0  0  0  0  0  0  0  0  0  0  0  0
   24.7097  -12.6482  -21.0112 N   0  0  0  0  0  0  0  0  0  0  0  0
   24.7619  -18.5246  -18.1107 C   0  0  0  0  0  0  0  0  0  0  0  0
   23.9786  -19.3376  -18.6489 O   0  0  0  0  0  0  0  0  0  0  0  0
   25.2843  -18.8442  -16.8547 N   0  0  0  0  0  0  0  0  0  0  0  0
   25.0280  -20.0863  -16.1885 C   0  0  1  0  0  0  0  0  0  0  0  0
   26.2368  -20.7168  -15.5715 C   0  0  0  0  0  0  0  0  0  0  0  0
   27.0329  -19.6102  -14.3738 S   0  0  0  0  0  0  0  0  0  0  0  0
   24.0240  -19.8712  -15.1287 C   0  0  0  0  0  0  0  0  0  0  0  0
   23.8565  -18.7514  -14.5613 O   0  0  0  0  0  0  0  0  0  0  0  0
   23.1913  -20.9328  -14.6963 N   0  0  0  0  0  0  0  0  0  0  0  0
   22.2355  -20.7658  -13.6124 C   0  0  1  0  0  0  0  0  0  0  0  0
   22.9730  -20.1060  -12.4765 C   0  0  0  0  0  0  0  0  0  0  0  0
   24.1325  -20.9051  -12.0428 C   0  0  0  0  0  0  0  0  0  0  0  0
   24.5343  -22.1291  -12.5785 C   0  0  0  0  0  0  0  0  0  0  0  0
   25.6306  -22.5299  -11.9115 N   0  0  0  0  0  0  0  0  0  0  0  0
   25.9072  -21.5910  -10.9900 C   0  0  0  0  0  0  0  0  0  0  0  0
   25.0031  -20.6138  -11.0716 N   0  0  0  0  0  0  0  0  0  0  0  0
   21.0772  -19.9631  -14.0426 C   0  0  0  0  0  0  0  0  0  0  0  0
   20.0177  -19.6507  -13.1967 O   0  0  0  0  0  0  0  0  0  0  0  0
   21.0239  -19.5354  -15.2103 O   0  0  0  0  0  0  0  0  0  0  0  0
  2  3  1  0
  2  1  1  6
  4  3  1  0
  5  4  1  0
  6  7  1  0
  6  5  1  0
  8  2  1  0
  8  9  2  0
 10  8  1  0
 11 10  1  0
 11 12  1  1
 12 13  1  0
 14 11  1  0
 15 14  2  0
 16 14  1  0
 17 24  1  0
 17 16  1  0
 17 18  1  1
 19 23  1  0
 19 18  1  0
 20 19  2  0
 21 20  1  0
 21 22  1  0
 22 23  2  0
 24 25  1  0
 26 24  2  0
M  END
$$$$
