KCH.pdb
     RDKit          3D

 26 26  0  0  1  0  0  0  0  0999 V2000
   27.4049  -22.0297  -17.9779 N   0  0  0  0  0  0  0  0  0  0  0  0
   26.7339  -20.7924  -17.6201 C   0  0  1  0  0  0  0  0  0  0  0  0
   25.8583  -20.3346  -18.7140 C   0  0  0  0  0  0  0  0  0  0  0  0
   26.4307  -19.8699  -19.9864 C   0  0  0  0  0  0  0  0  0  0  0  0
   27.6584  -20.3979  -20.5607 C   0  0  0  0  0  0  0  0  0  0  0  0
   28.1916  -19.8282  -21.8179 C   0  0  0  0  0  0  0  0  0  0  0  0
   28.4496  -18.3794  -21.6515 N   0  0  0  0  0  0  0  0  0  0  0  0
   25.8886  -21.0630  -16.3721 C   0  0  0  0  0  0  0  0  0  0  0  0
   24.8586  -21.7705  -16.4229 O   0  0  0  0  0  0  0  0  0  0  0  0
   26.2552  -20.5189  -15.1383 N   0  0  0  0  0  0  0  0  0  0  0  0
   25.4916  -20.7006  -13.9399 C   0  0  1  0  0  0  0  0  0  0  0  0
   26.1650  -20.2068  -12.6980 C   0  0  0  0  0  0  0  0  0  0  0  0
   27.9318  -19.8958  -12.9716 S   0  0  0  0  0  0  0  0  0  0  0  0
   24.1990  -20.0020  -14.0766 C   0  0  0  0  0  0  0  0  0  0  0  0
   24.0663  -18.9308  -14.7391 O   0  0  0  0  0  0  0  0  0  0  0  0
   23.0319  -20.5145  -13.4582 N   0  0  0  0  0  0  0  0  0  0  0  0
   21.6998  -20.0973  -13.8681 C   0  0  1  0  0  0  0  0  0  0  0  0
   21.5497  -20.4759  -15.3184 C   0  0  0  0  0  0  0  0  0  0  0  0
   20.2256  -20.1011  -15.8450 C   0  0  0  0  0  0  0  0  0  0  0  0
   19.2000  -19.4843  -15.1278 C   0  0  0  0  0  0  0  0  0  0  0  0
   18.1603  -19.3124  -15.9626 N   0  0  0  0  0  0  0  0  0  0  0  0
   18.5203  -19.8037  -17.1609 C   0  0  0  0  0  0  0  0  0  0  0  0
   19.7646  -20.2781  -17.0869 N   0  0  0  0  0  0  0  0  0  0  0  0
   20.6632  -20.7312  -13.0346 C   0  0  0  0  0  0  0  0  0  0  0  0
   19.5147  -20.0646  -12.6194 O   0  0  0  0  0  0  0  0  0  0  0  0
   20.8009  -21.9147  -12.6747 O   0  0  0  0  0  0  0  0  0  0  0  0
  2  3  1  0
  2  1  1  6
  4  3  1  0
  5  4  1  0
  6  7  1  0
  6  5  1  0
  8  2  1  0
  8  9  2  0
 10  8  1  0
 11 10  1  0
 11 12  1  1
 12 13  1  0
 14 11  1  0
 15 14  2  0
 16 14  1  0
 17 24  1  0
 17 16  1  0
 17 18  1  6
 19 23  1  0
 19 18  1  0
 20 19  2  0
 21 20  1  0
 21 22  1  0
 22 23  2  0
 24 25  1  0
 26 24  2  0
M  END
$$$$
