KCH.pdb
     RDKit          3D

 26 26  0  0  1  0  0  0  0  0999 V2000
   18.9116  -14.8727  -17.3679 N   0  0  0  0  0  0  0  0  0  0  0  0
   18.1266  -13.6512  -17.3947 C   0  0  1  0  0  0  0  0  0  0  0  0
   16.8537  -13.8291  -16.6731 C   0  0  0  0  0  0  0  0  0  0  0  0
   15.8118  -14.7221  -17.2021 C   0  0  0  0  0  0  0  0  0  0  0  0
   14.9776  -14.3996  -18.3493 C   0  0  0  0  0  0  0  0  0  0  0  0
   13.9392  -15.3526  -18.7998 C   0  0  0  0  0  0  0  0  0  0  0  0
   12.8908  -15.4913  -17.7630 N   0  0  0  0  0  0  0  0  0  0  0  0
   18.9477  -12.5527  -16.7132 C   0  0  0  0  0  0  0  0  0  0  0  0
   19.7513  -12.8160  -15.7917 O   0  0  0  0  0  0  0  0  0  0  0  0
   18.8141  -11.2200  -17.1115 N   0  0  0  0  0  0  0  0  0  0  0  0
   19.5829  -10.1497  -16.5495 C   0  0  1  0  0  0  0  0  0  0  0  0
   20.5711   -9.5382  -17.4925 C   0  0  0  0  0  0  0  0  0  0  0  0
   19.9857   -9.5980  -19.2091 S   0  0  0  0  0  0  0  0  0  0  0  0
   18.6700   -9.0893  -16.0812 C   0  0  0  0  0  0  0  0  0  0  0  0
   17.6129   -8.7722  -16.7025 O   0  0  0  0  0  0  0  0  0  0  0  0
   18.9477   -8.3700  -14.8926 N   0  0  0  0  0  0  0  0  0  0  0  0
   18.0762   -7.3061  -14.4180 C   0  0  1  0  0  0  0  0  0  0  0  0
   18.1789   -7.2942  -12.9151 C   0  0  0  0  0  0  0  0  0  0  0  0
   17.3954   -8.3838  -12.3069 C   0  0  0  0  0  0  0  0  0  0  0  0
   16.6685   -9.3565  -12.9940 C   0  0  0  0  0  0  0  0  0  0  0  0
   16.0983  -10.1638  -12.0827 N   0  0  0  0  0  0  0  0  0  0  0  0
   16.4545   -9.7140  -10.8670 C   0  0  0  0  0  0  0  0  0  0  0  0
   17.2357   -8.6419  -11.0054 N   0  0  0  0  0  0  0  0  0  0  0  0
   18.4597   -6.0060  -14.9957 C   0  0  0  0  0  0  0  0  0  0  0  0
   17.5723   -4.9413  -15.1172 O   0  0  0  0  0  0  0  0  0  0  0  0
   19.6240   -5.8307  -15.3993 O   0  0  0  0  0  0  0  0  0  0  0  0
  2  3  1  0
  2  1  1  1
  4  3  1  0
  5  4  1  0
  6  7  1  0
  6  5  1  0
  8  2  1  0
  8  9  2  0
 10  8  1  0
 11 10  1  0
 11 12  1  6
 12 13  1  0
 14 11  1  0
 15 14  2  0
 16 14  1  0
 17 24  1  0
 17 16  1  0
 17 18  1  1
 19 23  1  0
 19 18  1  0
 20 19  2  0
 21 20  1  0
 21 22  1  0
 22 23  2  0
 24 25  1  0
 26 24  2  0
M  END
$$$$
