DPY.pdb
     RDKit          3D

 28 29  0  0  1  0  0  0  0  0999 V2000
   22.7602  -14.1364  -17.7931 N   0  0  0  0  0  0  0  0  0  0  0  0
   23.7032  -13.0861  -17.9770 C   0  0  1  0  0  0  0  0  0  0  0  0
   23.6685  -12.5667  -19.4101 C   0  0  0  0  0  0  0  0  0  0  0  0
   23.8326  -13.7333  -20.3109 C   0  0  0  0  0  0  0  0  0  0  0  0
   24.5610  -14.6819  -19.9827 O   0  0  0  0  0  0  0  0  0  0  0  0
   23.6603  -11.9951  -16.9975 C   0  0  0  0  0  0  0  0  0  0  0  0
   22.5520  -11.8168  -16.3708 O   0  0  0  0  0  0  0  0  0  0  0  0
   23.1845  -13.8075  -21.5421 O   0  0  0  0  0  0  0  0  0  0  0  0
   24.7339  -11.1182  -16.6800 N   0  0  0  0  0  0  0  0  0  0  0  0
   26.0863  -11.0423  -17.1415 C   0  0  0  0  0  0  0  0  0  0  0  0
   26.8575  -10.6949  -15.8587 C   0  0  0  0  0  0  0  0  0  0  0  0
   25.9734   -9.5963  -15.3161 C   0  0  0  0  0  0  0  0  0  0  0  0
   24.6068  -10.0300  -15.7187 C   0  0  1  0  0  0  0  0  0  0  0  0
   23.7667   -8.9277  -16.2638 C   0  0  0  0  0  0  0  0  0  0  0  0
   23.5272   -8.8855  -17.4974 O   0  0  0  0  0  0  0  0  0  0  0  0
   18.1402   -9.6500  -11.8939 O   0  0  0  0  0  0  0  0  0  0  0  0
   18.8141   -9.1298  -12.9745 C   0  0  0  0  0  0  0  0  0  0  0  0
   19.4173   -9.9830  -13.8817 C   0  0  0  0  0  0  0  0  0  0  0  0
   20.0923   -9.4674  -14.9638 C   0  0  0  0  0  0  0  0  0  0  0  0
   20.2045   -8.0932  -15.2024 C   0  0  0  0  0  0  0  0  0  0  0  0
   20.9627   -7.5898  -16.3643 C   0  0  0  0  0  0  0  0  0  0  0  0
   22.2325   -6.9344  -15.9582 C   0  0  2  0  0  0  0  0  0  0  0  0
   23.2088   -7.9022  -15.4632 N   0  0  0  0  0  0  0  0  0  0  0  0
   21.9975   -5.8561  -15.0106 C   0  0  0  0  0  0  0  0  0  0  0  0
   22.4608   -5.9352  -13.8211 O   0  0  0  0  0  0  0  0  0  0  0  0
   19.5902   -7.2685  -14.2766 C   0  0  0  0  0  0  0  0  0  0  0  0
   18.9151   -7.7790  -13.1944 C   0  0  0  0  0  0  0  0  0  0  0  0
   21.2939   -4.7057  -15.2874 O   0  0  0  0  0  0  0  0  0  0  0  0
  2  1  1  1
  2  6  1  0
  3  2  1  0
  3  4  1  0
  4  5  2  0
  6  9  1  0
  7  6  2  0
  8  4  1  0
  9 13  1  0
  9 10  1  0
 10 11  1  0
 11 12  1  0
 13 12  1  0
 13 14  1  6
 14 23  1  0
 15 14  2  0
 16 17  1  0
 17 27  2  0
 18 17  1  0
 18 19  2  0
 19 20  1  0
 20 26  2  0
 20 21  1  0
 22 21  1  1
 22 23  1  0
 22 24  1  0
 24 28  1  0
 25 24  2  0
 27 26  1  0
M  END
$$$$
