DPY.pdb
     RDKit          3D

 28 29  0  0  1  0  0  0  0  0999 V2000
   27.2571  -22.6630  -16.3795 N   0  0  0  0  0  0  0  0  0  0  0  0
   26.9910  -21.5755  -15.5006 C   0  0  1  0  0  0  0  0  0  0  0  0
   26.7255  -20.2941  -16.2830 C   0  0  0  0  0  0  0  0  0  0  0  0
   27.9698  -19.9528  -17.0143 C   0  0  0  0  0  0  0  0  0  0  0  0
   28.1537  -20.3687  -18.1680 O   0  0  0  0  0  0  0  0  0  0  0  0
   25.9751  -21.8077  -14.4683 C   0  0  0  0  0  0  0  0  0  0  0  0
   24.9379  -22.4851  -14.8122 O   0  0  0  0  0  0  0  0  0  0  0  0
   28.9651  -19.1635  -16.4418 O   0  0  0  0  0  0  0  0  0  0  0  0
   26.0351  -21.3506  -13.1229 N   0  0  0  0  0  0  0  0  0  0  0  0
   27.0497  -20.6671  -12.3806 C   0  0  0  0  0  0  0  0  0  0  0  0
   26.9672  -21.3424  -11.0030 C   0  0  0  0  0  0  0  0  0  0  0  0
   25.4700  -21.3331  -10.8007 C   0  0  0  0  0  0  0  0  0  0  0  0
   24.9398  -21.5303  -12.1783 C   0  0  1  0  0  0  0  0  0  0  0  0
   23.7933  -20.6398  -12.5102 C   0  0  0  0  0  0  0  0  0  0  0  0
   24.0157  -19.4986  -12.9888 O   0  0  0  0  0  0  0  0  0  0  0  0
   20.0100  -24.4345  -17.1426 O   0  0  0  0  0  0  0  0  0  0  0  0
   20.2958  -23.3043  -16.4124 C   0  0  0  0  0  0  0  0  0  0  0  0
   21.5666  -23.1259  -15.8944 C   0  0  0  0  0  0  0  0  0  0  0  0
   21.8570  -21.9972  -15.1635 C   0  0  0  0  0  0  0  0  0  0  0  0
   20.9138  -20.9955  -14.9095 C   0  0  0  0  0  0  0  0  0  0  0  0
   21.2683  -19.8157  -14.0966 C   0  0  0  0  0  0  0  0  0  0  0  0
   21.3143  -20.1331  -12.6461 C   0  0  2  0  0  0  0  0  0  0  0  0
   22.4394  -21.0051  -12.3166 N   0  0  0  0  0  0  0  0  0  0  0  0
   20.0464  -20.6696  -12.1765 C   0  0  0  0  0  0  0  0  0  0  0  0
   19.9932  -21.8460  -11.6774 O   0  0  0  0  0  0  0  0  0  0  0  0
   19.6538  -21.2050  -15.4414 C   0  0  0  0  0  0  0  0  0  0  0  0
   19.3592  -22.3306  -16.1719 C   0  0  0  0  0  0  0  0  0  0  0  0
   18.8450  -19.9987  -12.2184 O   0  0  0  0  0  0  0  0  0  0  0  0
  2  1  1  6
  2  6  1  0
  3  2  1  0
  3  4  1  0
  4  5  2  0
  6  9  1  0
  7  6  2  0
  8  4  1  0
  9 13  1  0
  9 10  1  0
 10 11  1  0
 11 12  1  0
 13 12  1  0
 13 14  1  6
 14 23  1  0
 15 14  2  0
 16 17  1  0
 17 27  2  0
 18 17  1  0
 18 19  2  0
 19 20  1  0
 20 26  2  0
 20 21  1  0
 22 21  1  6
 22 23  1  0
 22 24  1  0
 24 28  1  0
 25 24  2  0
 27 26  1  0
M  END
$$$$
