DPY.pdb
     RDKit          3D

 28 29  0  0  1  0  0  0  0  0999 V2000
   25.9901  -20.0675  -17.4595 N   0  0  0  0  0  0  0  0  0  0  0  0
   26.6856  -19.4118  -16.4049 C   0  0  1  0  0  0  0  0  0  0  0  0
   26.2649  -17.9501  -16.3001 C   0  0  0  0  0  0  0  0  0  0  0  0
   26.7262  -17.2643  -17.5315 C   0  0  0  0  0  0  0  0  0  0  0  0
   25.9048  -16.8033  -18.3381 O   0  0  0  0  0  0  0  0  0  0  0  0
   26.6690  -20.0817  -15.1000 C   0  0  0  0  0  0  0  0  0  0  0  0
   25.6005  -20.7250  -14.7880 O   0  0  0  0  0  0  0  0  0  0  0  0
   28.0800  -17.1138  -17.8251 O   0  0  0  0  0  0  0  0  0  0  0  0
   27.7279  -20.0827  -14.1507 N   0  0  0  0  0  0  0  0  0  0  0  0
   29.0259  -19.4804  -14.1528 C   0  0  0  0  0  0  0  0  0  0  0  0
   29.8987  -20.5667  -13.5054 C   0  0  0  0  0  0  0  0  0  0  0  0
   29.0221  -20.9359  -12.3315 C   0  0  0  0  0  0  0  0  0  0  0  0
   27.6442  -20.7827  -12.8751 C   0  0  1  0  0  0  0  0  0  0  0  0
   26.7083  -20.0927  -11.9446 C   0  0  0  0  0  0  0  0  0  0  0  0
   26.6997  -18.8363  -11.8962 O   0  0  0  0  0  0  0  0  0  0  0  0
   20.5051  -22.7692  -13.8296 O   0  0  0  0  0  0  0  0  0  0  0  0
   21.3009  -21.9348  -13.0793 C   0  0  0  0  0  0  0  0  0  0  0  0
   22.4410  -21.3872  -13.6407 C   0  0  0  0  0  0  0  0  0  0  0  0
   23.2399  -20.5523  -12.8943 C   0  0  0  0  0  0  0  0  0  0  0  0
   22.9547  -20.2188  -11.5656 C   0  0  0  0  0  0  0  0  0  0  0  0
   23.8586  -19.3392  -10.7991 C   0  0  0  0  0  0  0  0  0  0  0  0
   24.9416  -20.1034  -10.1283 C   0  0  2  0  0  0  0  0  0  0  0  0
   25.8084  -20.7768  -11.0926 N   0  0  0  0  0  0  0  0  0  0  0  0
   24.4099  -21.0205   -9.1322 C   0  0  0  0  0  0  0  0  0  0  0  0
   24.6613  -22.2720   -9.2135 O   0  0  0  0  0  0  0  0  0  0  0  0
   21.8080  -20.7831  -11.0352 C   0  0  0  0  0  0  0  0  0  0  0  0
   21.0073  -21.6174  -11.7769 C   0  0  0  0  0  0  0  0  0  0  0  0
   23.6284  -20.6508   -8.0609 O   0  0  0  0  0  0  0  0  0  0  0  0
  2  1  1  6
  2  6  1  0
  3  2  1  0
  3  4  1  0
  4  5  2  0
  6  9  1  0
  7  6  2  0
  8  4  1  0
  9 13  1  0
  9 10  1  0
 10 11  1  0
 11 12  1  0
 13 12  1  0
 13 14  1  1
 14 23  1  0
 15 14  2  0
 16 17  1  0
 17 27  2  0
 18 17  1  0
 18 19  2  0
 19 20  1  0
 20 26  2  0
 20 21  1  0
 22 21  1  6
 22 23  1  0
 22 24  1  0
 24 28  1  0
 25 24  2  0
 27 26  1  0
M  END
$$$$
