DPY.pdb
     RDKit          3D

 28 29  0  0  1  0  0  0  0  0999 V2000
   23.9544  -13.9139  -18.8838 N   0  0  0  0  0  0  0  0  0  0  0  0
   24.7246  -12.7246  -18.7480 C   0  0  1  0  0  0  0  0  0  0  0  0
   24.6013  -11.8499  -19.9907 C   0  0  0  0  0  0  0  0  0  0  0  0
   24.9470  -12.6901  -21.1629 C   0  0  0  0  0  0  0  0  0  0  0  0
   25.9638  -13.3999  -21.1481 O   0  0  0  0  0  0  0  0  0  0  0  0
   24.5222  -11.9564  -17.5149 C   0  0  0  0  0  0  0  0  0  0  0  0
   23.3949  -12.1030  -16.9144 O   0  0  0  0  0  0  0  0  0  0  0  0
   24.1546  -12.7140  -22.3087 O   0  0  0  0  0  0  0  0  0  0  0  0
   25.4605  -11.0648  -16.9255 N   0  0  0  0  0  0  0  0  0  0  0  0
   26.8123  -10.7308  -17.2550 C   0  0  0  0  0  0  0  0  0  0  0  0
   27.4730  -10.6128  -15.8728 C   0  0  0  0  0  0  0  0  0  0  0  0
   26.4330   -9.7801  -15.1603 C   0  0  0  0  0  0  0  0  0  0  0  0
   25.1523  -10.2565  -15.7525 C   0  0  1  0  0  0  0  0  0  0  0  0
   24.2058   -9.1578  -16.0914 C   0  0  0  0  0  0  0  0  0  0  0  0
   24.3857   -8.4891  -17.1409 O   0  0  0  0  0  0  0  0  0  0  0  0
   17.9066  -12.5641  -15.4746 O   0  0  0  0  0  0  0  0  0  0  0  0
   18.7390  -11.5188  -15.8019 C   0  0  0  0  0  0  0  0  0  0  0  0
   18.4996  -10.2614  -15.2762 C   0  0  0  0  0  0  0  0  0  0  0  0
   19.3292   -9.2131  -15.6006 C   0  0  0  0  0  0  0  0  0  0  0  0
   20.4289   -9.3533  -16.4544 C   0  0  0  0  0  0  0  0  0  0  0  0
   21.2731   -8.1908  -16.7924 C   0  0  0  0  0  0  0  0  0  0  0  0
   22.1289   -7.7744  -15.6518 C   0  0  2  0  0  0  0  0  0  0  0  0
   23.0923   -8.8113  -15.2890 N   0  0  0  0  0  0  0  0  0  0  0  0
   21.3306   -7.3431  -14.5149 C   0  0  0  0  0  0  0  0  0  0  0  0
   20.5648   -6.3239  -14.6187 O   0  0  0  0  0  0  0  0  0  0  0  0
   20.6397  -10.6230  -16.9624 C   0  0  0  0  0  0  0  0  0  0  0  0
   19.8138  -11.6728  -16.6411 C   0  0  0  0  0  0  0  0  0  0  0  0
   21.3196   -7.9581  -13.2833 O   0  0  0  0  0  0  0  0  0  0  0  0
  2  1  1  6
  2  6  1  0
  3  2  1  0
  3  4  1  0
  4  5  2  0
  6  9  1  0
  7  6  2  0
  8  4  1  0
  9 13  1  0
  9 10  1  0
 10 11  1  0
 11 12  1  0
 13 12  1  0
 13 14  1  6
 14 23  1  0
 15 14  2  0
 16 17  1  0
 17 27  2  0
 18 17  1  0
 18 19  2  0
 19 20  1  0
 20 26  2  0
 20 21  1  0
 22 21  1  6
 22 23  1  0
 22 24  1  0
 24 28  1  0
 25 24  2  0
 27 26  1  0
M  END
$$$$
