DPY.pdb
     RDKit          3D

 28 29  0  0  1  0  0  0  0  0999 V2000
   25.6270   -6.6581  -19.3270 N   0  0  0  0  0  0  0  0  0  0  0  0
   25.0443   -7.1378  -18.1202 C   0  0  1  0  0  0  0  0  0  0  0  0
   23.7326   -6.4191  -17.8244 C   0  0  0  0  0  0  0  0  0  0  0  0
   24.0483   -4.9858  -17.6111 C   0  0  0  0  0  0  0  0  0  0  0  0
   23.4392   -4.1086  -18.2415 O   0  0  0  0  0  0  0  0  0  0  0  0
   24.9116   -8.5934  -17.9963 C   0  0  0  0  0  0  0  0  0  0  0  0
   24.6057   -9.2444  -19.0619 O   0  0  0  0  0  0  0  0  0  0  0  0
   25.0267   -4.5757  -16.7077 O   0  0  0  0  0  0  0  0  0  0  0  0
   25.0907   -9.3475  -16.8039 N   0  0  0  0  0  0  0  0  0  0  0  0
   25.3758   -8.9657  -15.4546 C   0  0  0  0  0  0  0  0  0  0  0  0
   26.3588  -10.0556  -15.0002 C   0  0  0  0  0  0  0  0  0  0  0  0
   25.6385  -11.2816  -15.5109 C   0  0  0  0  0  0  0  0  0  0  0  0
   25.0010  -10.8018  -16.7684 C   0  0  1  0  0  0  0  0  0  0  0  0
   23.5930  -11.2571  -16.9357 C   0  0  0  0  0  0  0  0  0  0  0  0
   22.6582  -10.5591  -16.4667 O   0  0  0  0  0  0  0  0  0  0  0  0
   16.1487  -14.7219  -19.9564 O   0  0  0  0  0  0  0  0  0  0  0  0
   17.4374  -14.2717  -19.7857 C   0  0  0  0  0  0  0  0  0  0  0  0
   18.4917  -15.1641  -19.8674 C   0  0  0  0  0  0  0  0  0  0  0  0
   19.7821  -14.7186  -19.6974 C   0  0  0  0  0  0  0  0  0  0  0  0
   20.0934  -13.3789  -19.4402 C   0  0  0  0  0  0  0  0  0  0  0  0
   21.4930  -12.9560  -19.2389 C   0  0  0  0  0  0  0  0  0  0  0  0
   21.8499  -12.8809  -17.7988 C   0  0  2  0  0  0  0  0  0  0  0  0
   23.2329  -12.4519  -17.6038 N   0  0  0  0  0  0  0  0  0  0  0  0
   21.5587  -14.1291  -17.1109 C   0  0  0  0  0  0  0  0  0  0  0  0
   22.4487  -15.0450  -17.0399 O   0  0  0  0  0  0  0  0  0  0  0  0
   19.0164  -12.5134  -19.3648 C   0  0  0  0  0  0  0  0  0  0  0  0
   17.7261  -12.9540  -19.5339 C   0  0  0  0  0  0  0  0  0  0  0  0
   20.3624  -14.4294  -16.4996 O   0  0  0  0  0  0  0  0  0  0  0  0
  2  1  1  6
  2  6  1  0
  3  2  1  0
  3  4  1  0
  4  5  2  0
  6  9  1  0
  7  6  2  0
  8  4  1  0
  9 13  1  0
  9 10  1  0
 10 11  1  0
 11 12  1  0
 13 12  1  0
 13 14  1  1
 14 23  1  0
 15 14  2  0
 16 17  1  0
 17 27  2  0
 18 17  1  0
 18 19  2  0
 19 20  1  0
 20 26  2  0
 20 21  1  0
 22 21  1  6
 22 23  1  0
 22 24  1  0
 24 28  1  0
 25 24  2  0
 27 26  1  0
M  END
$$$$
