DPY.pdb
     RDKit          3D

 28 29  0  0  1  0  0  0  0  0999 V2000
   26.9180  -20.0978  -17.1266 N   0  0  0  0  0  0  0  0  0  0  0  0
   27.4013  -19.3940  -15.9877 C   0  0  1  0  0  0  0  0  0  0  0  0
   26.8338  -17.9797  -15.9390 C   0  0  0  0  0  0  0  0  0  0  0  0
   27.4490  -17.2143  -17.0504 C   0  0  0  0  0  0  0  0  0  0  0  0
   28.6492  -17.3623  -17.3252 O   0  0  0  0  0  0  0  0  0  0  0  0
   27.2744  -20.0802  -14.6974 C   0  0  0  0  0  0  0  0  0  0  0  0
   26.2033  -20.7642  -14.5032 O   0  0  0  0  0  0  0  0  0  0  0  0
   26.7133  -16.3130  -17.8170 O   0  0  0  0  0  0  0  0  0  0  0  0
   28.2291  -20.0558  -13.6437 N   0  0  0  0  0  0  0  0  0  0  0  0
   29.5094  -19.4296  -13.5162 C   0  0  0  0  0  0  0  0  0  0  0  0
   30.3297  -20.4957  -12.7734 C   0  0  0  0  0  0  0  0  0  0  0  0
   29.3429  -20.8739  -11.6936 C   0  0  0  0  0  0  0  0  0  0  0  0
   28.0261  -20.7495  -12.3780 C   0  0  1  0  0  0  0  0  0  0  0  0
   26.9869  -20.0713  -11.5549 C   0  0  0  0  0  0  0  0  0  0  0  0
   26.9147  -18.8160  -11.5625 O   0  0  0  0  0  0  0  0  0  0  0  0
   20.7610  -22.6037  -13.7906 O   0  0  0  0  0  0  0  0  0  0  0  0
   21.5862  -21.8130  -13.0249 C   0  0  0  0  0  0  0  0  0  0  0  0
   21.2249  -21.5012  -11.7260 C   0  0  0  0  0  0  0  0  0  0  0  0
   22.0468  -20.7109  -10.9565 C   0  0  0  0  0  0  0  0  0  0  0  0
   23.2581  -20.1927  -11.4279 C   0  0  0  0  0  0  0  0  0  0  0  0
   24.0916  -19.3272  -10.5708 C   0  0  0  0  0  0  0  0  0  0  0  0
   25.1251  -20.1014   -9.8363 C   0  0  2  0  0  0  0  0  0  0  0  0
   26.0549  -20.7657  -10.7467 N   0  0  0  0  0  0  0  0  0  0  0  0
   24.5251  -21.0285   -8.8895 C   0  0  0  0  0  0  0  0  0  0  0  0
   24.7610  -22.2822   -8.9822 O   0  0  0  0  0  0  0  0  0  0  0  0
   23.5892  -20.5234  -12.7300 C   0  0  0  0  0  0  0  0  0  0  0  0
   22.7714  -21.3124  -13.5022 C   0  0  0  0  0  0  0  0  0  0  0  0
   23.6918  -20.6665   -7.8552 O   0  0  0  0  0  0  0  0  0  0  0  0
  2  1  1  6
  2  6  1  0
  3  2  1  0
  3  4  1  0
  4  5  2  0
  6  9  1  0
  7  6  2  0
  8  4  1  0
  9 13  1  0
  9 10  1  0
 10 11  1  0
 11 12  1  0
 13 12  1  0
 13 14  1  1
 14 23  1  0
 15 14  2  0
 16 17  1  0
 17 27  2  0
 18 17  1  0
 18 19  2  0
 19 20  1  0
 20 26  2  0
 20 21  1  0
 22 21  1  6
 22 23  1  0
 22 24  1  0
 24 28  1  0
 25 24  2  0
 27 26  1  0
M  END
$$$$
