DPY.pdb
     RDKit          3D

 28 29  0  0  1  0  0  0  0  0999 V2000
   28.3091  -22.5532  -18.1014 N   0  0  0  0  0  0  0  0  0  0  0  0
   27.3819  -21.5801  -17.6329 C   0  0  1  0  0  0  0  0  0  0  0  0
   25.9506  -21.9846  -17.9682 C   0  0  0  0  0  0  0  0  0  0  0  0
   25.4211  -20.9905  -18.9329 C   0  0  0  0  0  0  0  0  0  0  0  0
   25.6312  -21.1218  -20.1481 O   0  0  0  0  0  0  0  0  0  0  0  0
   27.5217  -21.1710  -16.2312 C   0  0  0  0  0  0  0  0  0  0  0  0
   27.9512  -22.0572  -15.4047 O   0  0  0  0  0  0  0  0  0  0  0  0
   24.6783  -19.8872  -18.5175 O   0  0  0  0  0  0  0  0  0  0  0  0
   27.2244  -19.8833  -15.7058 N   0  0  0  0  0  0  0  0  0  0  0  0
   26.6803  -18.7009  -16.3003 C   0  0  0  0  0  0  0  0  0  0  0  0
   27.5035  -17.5853  -15.6379 C   0  0  0  0  0  0  0  0  0  0  0  0
   27.4444  -18.0413  -14.1987 C   0  0  0  0  0  0  0  0  0  0  0  0
   27.4571  -19.5262  -14.3120 C   0  0  1  0  0  0  0  0  0  0  0  0
   26.4797  -20.2020  -13.4144 C   0  0  0  0  0  0  0  0  0  0  0  0
   25.3358  -20.4885  -13.8507 O   0  0  0  0  0  0  0  0  0  0  0  0
   28.4430  -18.3327   -6.1909 O   0  0  0  0  0  0  0  0  0  0  0  0
   28.0007  -19.2180   -7.1465 C   0  0  0  0  0  0  0  0  0  0  0  0
   26.6592  -19.2483   -7.4843 C   0  0  0  0  0  0  0  0  0  0  0  0
   26.2123  -20.1319   -8.4393 C   0  0  0  0  0  0  0  0  0  0  0  0
   27.0619  -21.0234   -9.1036 C   0  0  0  0  0  0  0  0  0  0  0  0
   26.5282  -21.9705  -10.1019 C   0  0  0  0  0  0  0  0  0  0  0  0
   25.8296  -21.2734  -11.2122 C   0  0  2  0  0  0  0  0  0  0  0  0
   26.7634  -20.5499  -12.0719 N   0  0  0  0  0  0  0  0  0  0  0  0
   24.7616  -20.4185  -10.7177 C   0  0  0  0  0  0  0  0  0  0  0  0
   23.7137  -20.9365  -10.1985 O   0  0  0  0  0  0  0  0  0  0  0  0
   28.3964  -20.9670   -8.7422 C   0  0  0  0  0  0  0  0  0  0  0  0
   28.8471  -20.0863   -7.7891 C   0  0  0  0  0  0  0  0  0  0  0  0
   24.7746  -19.0425  -10.7558 O   0  0  0  0  0  0  0  0  0  0  0  0
  2  1  1  1
  2  6  1  0
  3  2  1  0
  3  4  1  0
  4  5  2  0
  6  9  1  0
  7  6  2  0
  8  4  1  0
  9 13  1  0
  9 10  1  0
 10 11  1  0
 11 12  1  0
 13 12  1  0
 13 14  1  1
 14 23  1  0
 15 14  2  0
 16 17  1  0
 17 27  2  0
 18 17  1  0
 18 19  2  0
 19 20  1  0
 20 26  2  0
 20 21  1  0
 22 21  1  1
 22 23  1  0
 22 24  1  0
 24 28  1  0
 25 24  2  0
 27 26  1  0
M  END
$$$$
