DPY.pdb
     RDKit          3D

 28 29  0  0  1  0  0  0  0  0999 V2000
   22.9974  -18.8403  -17.5758 N   0  0  0  0  0  0  0  0  0  0  0  0
   24.0263  -18.2192  -16.8132 C   0  0  1  0  0  0  0  0  0  0  0  0
   23.4680  -17.0762  -15.9727 C   0  0  0  0  0  0  0  0  0  0  0  0
   22.9519  -16.0468  -16.9072 C   0  0  0  0  0  0  0  0  0  0  0  0
   22.1979  -15.1506  -16.4994 O   0  0  0  0  0  0  0  0  0  0  0  0
   24.8804  -19.1134  -16.0241 C   0  0  0  0  0  0  0  0  0  0  0  0
   24.3026  -20.0922  -15.4232 O   0  0  0  0  0  0  0  0  0  0  0  0
   23.2892  -16.0469  -18.2591 O   0  0  0  0  0  0  0  0  0  0  0  0
   26.2885  -18.9938  -15.8644 N   0  0  0  0  0  0  0  0  0  0  0  0
   27.2416  -18.0582  -16.3778 C   0  0  0  0  0  0  0  0  0  0  0  0
   28.4477  -18.9538  -16.7004 C   0  0  0  0  0  0  0  0  0  0  0  0
   28.5060  -19.7739  -15.4327 C   0  0  0  0  0  0  0  0  0  0  0  0
   27.0727  -19.9185  -15.0555 C   0  0  1  0  0  0  0  0  0  0  0  0
   26.8137  -19.7138  -13.6033 C   0  0  0  0  0  0  0  0  0  0  0  0
   26.8869  -18.5553  -13.1199 O   0  0  0  0  0  0  0  0  0  0  0  0
   20.0631  -20.7461  -11.9042 O   0  0  0  0  0  0  0  0  0  0  0  0
   21.3879  -20.4587  -11.6703 C   0  0  0  0  0  0  0  0  0  0  0  0
   21.8184  -20.2134  -10.3782 C   0  0  0  0  0  0  0  0  0  0  0  0
   23.1422  -19.9256  -10.1394 C   0  0  0  0  0  0  0  0  0  0  0  0
   24.1003  -19.8662  -11.1574 C   0  0  0  0  0  0  0  0  0  0  0  0
   25.5039  -19.5268  -10.8521 C   0  0  0  0  0  0  0  0  0  0  0  0
   26.4388  -20.6062  -11.2616 C   0  0  2  0  0  0  0  0  0  0  0  0
   26.4833  -20.7639  -12.7134 N   0  0  0  0  0  0  0  0  0  0  0  0
   26.1413  -21.8569  -10.5811 C   0  0  0  0  0  0  0  0  0  0  0  0
   26.1016  -21.8982   -9.3033 O   0  0  0  0  0  0  0  0  0  0  0  0
   23.6367  -20.1164  -12.4369 C   0  0  0  0  0  0  0  0  0  0  0  0
   22.3156  -20.4042  -12.6801 C   0  0  0  0  0  0  0  0  0  0  0  0
   25.8845  -23.0533  -11.2117 O   0  0  0  0  0  0  0  0  0  0  0  0
  2  1  1  1
  2  6  1  0
  3  2  1  0
  3  4  1  0
  4  5  2  0
  6  9  1  0
  7  6  2  0
  8  4  1  0
  9 13  1  0
  9 10  1  0
 10 11  1  0
 11 12  1  0
 13 12  1  0
 13 14  1  1
 14 23  1  0
 15 14  2  0
 16 17  1  0
 17 27  2  0
 18 17  1  0
 18 19  2  0
 19 20  1  0
 20 26  2  0
 20 21  1  0
 22 21  1  6
 22 23  1  0
 22 24  1  0
 24 28  1  0
 25 24  2  0
 27 26  1  0
M  END
$$$$
