DPY.pdb
     RDKit          3D

 28 29  0  0  1  0  0  0  0  0999 V2000
   24.2026  -19.1752  -17.7097 N   0  0  0  0  0  0  0  0  0  0  0  0
   25.1958  -18.6862  -16.8151 C   0  0  1  0  0  0  0  0  0  0  0  0
   24.8560  -17.2779  -16.3398 C   0  0  0  0  0  0  0  0  0  0  0  0
   25.1780  -16.3445  -17.4464 C   0  0  0  0  0  0  0  0  0  0  0  0
   25.9328  -16.6970  -18.3650 O   0  0  0  0  0  0  0  0  0  0  0  0
   25.5576  -19.5684  -15.7004 C   0  0  0  0  0  0  0  0  0  0  0  0
   24.6053  -20.2345  -15.1505 O   0  0  0  0  0  0  0  0  0  0  0  0
   24.6527  -15.0548  -17.4957 O   0  0  0  0  0  0  0  0  0  0  0  0
   26.8661  -19.7518  -15.1744 N   0  0  0  0  0  0  0  0  0  0  0  0
   28.1374  -19.2049  -15.5378 C   0  0  0  0  0  0  0  0  0  0  0  0
   29.0783  -20.4080  -15.3707 C   0  0  0  0  0  0  0  0  0  0  0  0
   28.6095  -20.9172  -14.0277 C   0  0  0  0  0  0  0  0  0  0  0  0
   27.1479  -20.6326  -14.0478 C   0  0  1  0  0  0  0  0  0  0  0  0
   26.6340  -20.0565  -12.7744 C   0  0  0  0  0  0  0  0  0  0  0  0
   26.6331  -18.8090  -12.6166 O   0  0  0  0  0  0  0  0  0  0  0  0
   19.8857  -21.8421  -12.5069 O   0  0  0  0  0  0  0  0  0  0  0  0
   21.0366  -21.2390  -12.0550 C   0  0  0  0  0  0  0  0  0  0  0  0
   21.2437  -21.0896  -10.6950 C   0  0  0  0  0  0  0  0  0  0  0  0
   22.3930  -20.4872  -10.2384 C   0  0  0  0  0  0  0  0  0  0  0  0
   23.3883  -20.0057  -11.0960 C   0  0  0  0  0  0  0  0  0  0  0  0
   24.5915  -19.3428  -10.5565 C   0  0  0  0  0  0  0  0  0  0  0  0
   25.7311  -20.2856  -10.4179 C   0  0  2  0  0  0  0  0  0  0  0  0
   26.1356  -20.8416  -11.7071 N   0  0  0  0  0  0  0  0  0  0  0  0
   25.4508  -21.3212   -9.4356 C   0  0  0  0  0  0  0  0  0  0  0  0
   25.1559  -21.0015   -8.2328 O   0  0  0  0  0  0  0  0  0  0  0  0
   23.1499  -20.1709  -12.4490 C   0  0  0  0  0  0  0  0  0  0  0  0
   22.0035  -20.7719  -12.9095 C   0  0  0  0  0  0  0  0  0  0  0  0
   25.4717  -22.6737   -9.6914 O   0  0  0  0  0  0  0  0  0  0  0  0
  2  1  1  1
  2  6  1  0
  3  2  1  0
  3  4  1  0
  4  5  2  0
  6  9  1  0
  7  6  2  0
  8  4  1  0
  9 13  1  0
  9 10  1  0
 10 11  1  0
 11 12  1  0
 13 12  1  0
 13 14  1  1
 14 23  1  0
 15 14  2  0
 16 17  1  0
 17 27  2  0
 18 17  1  0
 18 19  2  0
 19 20  1  0
 20 26  2  0
 20 21  1  0
 22 21  1  6
 22 23  1  0
 22 24  1  0
 24 28  1  0
 25 24  2  0
 27 26  1  0
M  END
$$$$
