DPY.pdb
     RDKit          3D

 28 29  0  0  1  0  0  0  0  0999 V2000
   23.4706  -19.5493  -17.6761 N   0  0  0  0  0  0  0  0  0  0  0  0
   24.6211  -19.0668  -16.9908 C   0  0  1  0  0  0  0  0  0  0  0  0
   24.4284  -17.6189  -16.5537 C   0  0  0  0  0  0  0  0  0  0  0  0
   24.2117  -16.8093  -17.7773 C   0  0  0  0  0  0  0  0  0  0  0  0
   23.4765  -15.8111  -17.7471 O   0  0  0  0  0  0  0  0  0  0  0  0
   25.1270  -19.9060  -15.8992 C   0  0  0  0  0  0  0  0  0  0  0  0
   24.2556  -20.5431  -15.2009 O   0  0  0  0  0  0  0  0  0  0  0  0
   24.8167  -17.1342  -18.9896 O   0  0  0  0  0  0  0  0  0  0  0  0
   26.4937  -20.0771  -15.5450 N   0  0  0  0  0  0  0  0  0  0  0  0
   27.7084  -19.5890  -16.1227 C   0  0  0  0  0  0  0  0  0  0  0  0
   28.6496  -20.7962  -15.9899 C   0  0  0  0  0  0  0  0  0  0  0  0
   28.3660  -21.1878  -14.5585 C   0  0  0  0  0  0  0  0  0  0  0  0
   26.9191  -20.8729  -14.4004 C   0  0  1  0  0  0  0  0  0  0  0  0
   26.5935  -20.1872  -13.1192 C   0  0  0  0  0  0  0  0  0  0  0  0
   26.6625  -18.9334  -13.0545 O   0  0  0  0  0  0  0  0  0  0  0  0
   19.9431  -21.9175  -11.5859 O   0  0  0  0  0  0  0  0  0  0  0  0
   21.1483  -21.2887  -11.3752 C   0  0  0  0  0  0  0  0  0  0  0  0
   21.5158  -20.9232  -10.0921 C   0  0  0  0  0  0  0  0  0  0  0  0
   22.7200  -20.2942   -9.8765 C   0  0  0  0  0  0  0  0  0  0  0  0
   23.6152  -19.9967  -10.9099 C   0  0  0  0  0  0  0  0  0  0  0  0
   24.8837  -19.2962  -10.6294 C   0  0  0  0  0  0  0  0  0  0  0  0
   26.0456  -20.2217  -10.6455 C   0  0  2  0  0  0  0  0  0  0  0  0
   26.2030  -20.8729  -11.9439 N   0  0  0  0  0  0  0  0  0  0  0  0
   25.9797  -21.1804   -9.5535 C   0  0  0  0  0  0  0  0  0  0  0  0
   25.9366  -20.7711   -8.3424 O   0  0  0  0  0  0  0  0  0  0  0  0
   23.2173  -20.3755  -12.1799 C   0  0  0  0  0  0  0  0  0  0  0  0
   22.0156  -21.0039  -12.3999 C   0  0  0  0  0  0  0  0  0  0  0  0
   25.9556  -22.5480   -9.7084 O   0  0  0  0  0  0  0  0  0  0  0  0
  2  1  1  1
  2  6  1  0
  3  2  1  0
  3  4  1  0
  4  5  2  0
  6  9  1  0
  7  6  2  0
  8  4  1  0
  9 13  1  0
  9 10  1  0
 10 11  1  0
 11 12  1  0
 13 12  1  0
 13 14  1  1
 14 23  1  0
 15 14  2  0
 16 17  1  0
 17 27  2  0
 18 17  1  0
 18 19  2  0
 19 20  1  0
 20 26  2  0
 20 21  1  0
 22 21  1  6
 22 23  1  0
 22 24  1  0
 24 28  1  0
 25 24  2  0
 27 26  1  0
M  END
$$$$
