DPY.pdb
     RDKit          3D

 28 29  0  0  1  0  0  0  0  0999 V2000
   28.6330  -22.2402  -18.0085 N   0  0  0  0  0  0  0  0  0  0  0  0
   27.5711  -21.4046  -17.5612 C   0  0  1  0  0  0  0  0  0  0  0  0
   26.2185  -21.9704  -17.9795 C   0  0  0  0  0  0  0  0  0  0  0  0
   25.9475  -21.5022  -19.3604 C   0  0  0  0  0  0  0  0  0  0  0  0
   26.2129  -20.3368  -19.6912 O   0  0  0  0  0  0  0  0  0  0  0  0
   27.5930  -21.0284  -16.1436 C   0  0  0  0  0  0  0  0  0  0  0  0
   28.0016  -21.9178  -15.3100 O   0  0  0  0  0  0  0  0  0  0  0  0
   25.3926  -22.3409  -20.3248 O   0  0  0  0  0  0  0  0  0  0  0  0
   27.2027  -19.7692  -15.6099 N   0  0  0  0  0  0  0  0  0  0  0  0
   26.6645  -18.5898  -16.2155 C   0  0  0  0  0  0  0  0  0  0  0  0
   27.3851  -17.4658  -15.4550 C   0  0  0  0  0  0  0  0  0  0  0  0
   27.2234  -17.9679  -14.0392 C   0  0  0  0  0  0  0  0  0  0  0  0
   27.3035  -19.4471  -14.1920 C   0  0  1  0  0  0  0  0  0  0  0  0
   26.2815  -20.1857  -13.3998 C   0  0  0  0  0  0  0  0  0  0  0  0
   25.1626  -20.4364  -13.9156 O   0  0  0  0  0  0  0  0  0  0  0  0
   28.5146  -18.5918   -6.3674 O   0  0  0  0  0  0  0  0  0  0  0  0
   27.9433  -19.4335   -7.2934 C   0  0  0  0  0  0  0  0  0  0  0  0
   26.5654  -19.5369   -7.3678 C   0  0  0  0  0  0  0  0  0  0  0  0
   25.9896  -20.3773   -8.2922 C   0  0  0  0  0  0  0  0  0  0  0  0
   26.7405  -21.1521   -9.1831 C   0  0  0  0  0  0  0  0  0  0  0  0
   26.0749  -22.0589  -10.1386 C   0  0  0  0  0  0  0  0  0  0  0  0
   25.4783  -21.3215  -11.2820 C   0  0  2  0  0  0  0  0  0  0  0  0
   26.4949  -20.6329  -12.0737 N   0  0  0  0  0  0  0  0  0  0  0  0
   24.4202  -20.4241  -10.8447 C   0  0  0  0  0  0  0  0  0  0  0  0
   24.6210  -19.1612  -10.8171 O   0  0  0  0  0  0  0  0  0  0  0  0
   28.1146  -21.0252   -9.0821 C   0  0  0  0  0  0  0  0  0  0  0  0
   28.6940  -20.1871   -8.1604 C   0  0  0  0  0  0  0  0  0  0  0  0
   23.1661  -20.8244  -10.4422 O   0  0  0  0  0  0  0  0  0  0  0  0
  2  1  1  1
  2  6  1  0
  3  2  1  0
  3  4  1  0
  4  5  2  0
  6  9  1  0
  7  6  2  0
  8  4  1  0
  9 13  1  0
  9 10  1  0
 10 11  1  0
 11 12  1  0
 13 12  1  0
 13 14  1  1
 14 23  1  0
 15 14  2  0
 16 17  1  0
 17 27  2  0
 18 17  1  0
 18 19  2  0
 19 20  1  0
 20 26  2  0
 20 21  1  0
 22 21  1  1
 22 23  1  0
 22 24  1  0
 24 28  1  0
 25 24  2  0
 27 26  1  0
M  END
$$$$
