PFK.pdb
     RDKit          3D

 28 29  0  0  1  0  0  0  0  0999 V2000
   27.1850  -18.5297  -14.1526 N   0  0  0  0  0  0  0  0  0  0  0  0
   28.1888  -18.1198  -13.1582 C   0  0  0  0  0  0  0  0  0  0  0  0
   29.4172  -18.8035  -13.7158 C   0  0  0  0  0  0  0  0  0  0  0  0
   28.8774  -20.1833  -14.0283 C   0  0  0  0  0  0  0  0  0  0  0  0
   27.4244  -19.9258  -14.3335 C   0  0  1  0  0  0  0  0  0  0  0  0
   26.5219  -20.6960  -13.4455 C   0  0  0  0  0  0  0  0  0  0  0  0
   26.5581  -21.9440  -13.4888 O   0  0  0  0  0  0  0  0  0  0  0  0
   25.6169  -20.0842  -12.5467 N   0  0  0  0  0  0  0  0  0  0  0  0
   24.6126  -20.7975  -11.7759 C   0  0  1  0  0  0  0  0  0  0  0  0
   24.5252  -20.3034  -10.3696 C   0  0  0  0  0  0  0  0  0  0  0  0
   25.8125  -20.4213   -9.6504 C   0  0  0  0  0  0  0  0  0  0  0  0
   26.2341  -19.5603   -8.6622 C   0  0  0  0  0  0  0  0  0  0  0  0
   27.4404  -19.7487   -8.0462 C   0  0  0  0  0  0  0  0  0  0  0  0
   28.2568  -20.8026   -8.4018 C   0  0  0  0  0  0  0  0  0  0  0  0
   27.8517  -21.6784   -9.3919 C   0  0  0  0  0  0  0  0  0  0  0  0
   26.6394  -21.4786  -10.0023 C   0  0  0  0  0  0  0  0  0  0  0  0
   23.3094  -20.7726  -12.5049 C   0  0  0  0  0  0  0  0  0  0  0  0
   22.8995  -19.7591  -13.1225 O   0  0  0  0  0  0  0  0  0  0  0  0
   22.4766  -21.9105  -12.5254 N   0  0  0  0  0  0  0  0  0  0  0  0
   21.1583  -21.8733  -13.2802 C   0  0  1  0  0  0  0  0  0  0  0  0
   20.8664  -23.3099  -13.4454 C   0  0  0  0  0  0  0  0  0  0  0  0
   19.6283  -23.8033  -14.0306 C   0  0  0  0  0  0  0  0  0  0  0  0
   19.4474  -25.2590  -14.1384 C   0  0  0  0  0  0  0  0  0  0  0  0
   18.0465  -25.5744  -14.7501 C   0  0  0  0  0  0  0  0  0  0  0  0
   18.0443  -27.0105  -14.9609 N   0  0  0  0  0  0  0  0  0  0  0  0
   20.2674  -21.1133  -12.3562 C   0  0  0  0  0  0  0  0  0  0  0  0
   20.5782  -21.0547  -11.1104 O   0  0  0  0  0  0  0  0  0  0  0  0
   19.1269  -20.4531  -12.7316 O   0  0  0  0  0  0  0  0  0  0  0  0
  1  5  1  0
  2  3  1  0
  2  1  1  0
  3  4  1  0
  4  5  1  0
  5  6  1  1
  6  7  2  0
  8  6  1  0
  8  9  1  0
  9 17  1  0
 10 11  1  0
  9 10  1  1
 11 12  2  0
 12 13  1  0
 14 13  2  0
 15 14  1  0
 16 11  1  0
 16 15  2  0
 17 18  2  0
 19 17  1  0
 19 20  1  0
 20 26  1  0
 20 21  1  1
 22 21  1  0
 23 22  1  0
 24 23  1  0
 24 25  1  0
 26 27  2  0
 26 28  1  0
M  END
$$$$
