PFK.pdb
     RDKit          3D

 28 29  0  0  1  0  0  0  0  0999 V2000
   27.7213  -20.3800  -16.5036 N   0  0  0  0  0  0  0  0  0  0  0  0
   29.1589  -20.6094  -16.2910 C   0  0  0  0  0  0  0  0  0  0  0  0
   29.3745  -21.8158  -17.1773 C   0  0  0  0  0  0  0  0  0  0  0  0
   28.1933  -22.6833  -16.7969 C   0  0  0  0  0  0  0  0  0  0  0  0
   27.1419  -21.6808  -16.3968 C   0  0  1  0  0  0  0  0  0  0  0  0
   26.6672  -21.8925  -15.0090 C   0  0  0  0  0  0  0  0  0  0  0  0
   25.8576  -22.8172  -14.7856 O   0  0  0  0  0  0  0  0  0  0  0  0
   27.0881  -21.0946  -13.9193 N   0  0  0  0  0  0  0  0  0  0  0  0
   26.4533  -21.0843  -12.6122 C   0  0  1  0  0  0  0  0  0  0  0  0
   27.3839  -20.6289  -11.5371 C   0  0  0  0  0  0  0  0  0  0  0  0
   26.7018  -20.4627  -10.2350 C   0  0  0  0  0  0  0  0  0  0  0  0
   25.8610  -21.3962   -9.6717 C   0  0  0  0  0  0  0  0  0  0  0  0
   25.2757  -21.1601   -8.4584 C   0  0  0  0  0  0  0  0  0  0  0  0
   25.5156  -19.9848   -7.7767 C   0  0  0  0  0  0  0  0  0  0  0  0
   26.3567  -19.0346   -8.3254 C   0  0  0  0  0  0  0  0  0  0  0  0
   26.9377  -19.2833   -9.5431 C   0  0  0  0  0  0  0  0  0  0  0  0
   25.1815  -20.3042  -12.6781 C   0  0  0  0  0  0  0  0  0  0  0  0
   25.1476  -19.0933  -13.0085 O   0  0  0  0  0  0  0  0  0  0  0  0
   23.9488  -20.9133  -12.3650 N   0  0  0  0  0  0  0  0  0  0  0  0
   22.6521  -20.1438  -12.5527 C   0  0  1  0  0  0  0  0  0  0  0  0
   22.3299  -20.4378  -13.9620 C   0  0  0  0  0  0  0  0  0  0  0  0
   21.4897  -19.5737  -14.7782 C   0  0  0  0  0  0  0  0  0  0  0  0
   21.2424  -19.9685  -16.1733 C   0  0  0  0  0  0  0  0  0  0  0  0
   20.3644  -18.8894  -16.8810 C   0  0  0  0  0  0  0  0  0  0  0  0
   20.2235  -19.3582  -18.2475 N   0  0  0  0  0  0  0  0  0  0  0  0
   21.7559  -20.7461  -11.5237 C   0  0  0  0  0  0  0  0  0  0  0  0
   21.0059  -19.9676  -10.8283 O   0  0  0  0  0  0  0  0  0  0  0  0
   21.6570  -22.0864  -11.2564 O   0  0  0  0  0  0  0  0  0  0  0  0
  1  5  1  0
  2  3  1  0
  2  1  1  0
  3  4  1  0
  4  5  1  0
  5  6  1  1
  6  7  2  0
  8  6  1  0
  8  9  1  0
  9 17  1  0
 10 11  1  0
  9 10  1  1
 11 12  2  0
 12 13  1  0
 14 13  2  0
 15 14  1  0
 16 11  1  0
 16 15  2  0
 17 18  2  0
 19 17  1  0
 19 20  1  0
 20 26  1  0
 20 21  1  6
 22 21  1  0
 23 22  1  0
 24 23  1  0
 24 25  1  0
 26 27  2  0
 26 28  1  0
M  END
$$$$
