PFK.pdb
     RDKit          3D

 28 29  0  0  1  0  0  0  0  0999 V2000
   27.1435  -21.5576  -15.8450 N   0  0  0  0  0  0  0  0  0  0  0  0
   27.5083  -20.6267  -16.9243 C   0  0  0  0  0  0  0  0  0  0  0  0
   28.8060  -20.0743  -16.3782 C   0  0  0  0  0  0  0  0  0  0  0  0
   28.4277  -19.7833  -14.9412 C   0  0  0  0  0  0  0  0  0  0  0  0
   27.3609  -20.8068  -14.6499 C   0  0  1  0  0  0  0  0  0  0  0  0
   26.0862  -20.1805  -14.2268 C   0  0  0  0  0  0  0  0  0  0  0  0
   26.0702  -19.4986  -13.1802 O   0  0  0  0  0  0  0  0  0  0  0  0
   24.8804  -20.3175  -14.9539 N   0  0  0  0  0  0  0  0  0  0  0  0
   23.6393  -19.6362  -14.6268 C   0  0  1  0  0  0  0  0  0  0  0  0
   23.3257  -18.5414  -15.5924 C   0  0  0  0  0  0  0  0  0  0  0  0
   24.4045  -17.5322  -15.6692 C   0  0  0  0  0  0  0  0  0  0  0  0
   25.3499  -17.4773  -16.6686 C   0  0  0  0  0  0  0  0  0  0  0  0
   26.3105  -16.5039  -16.6622 C   0  0  0  0  0  0  0  0  0  0  0  0
   26.3513  -15.5601  -15.6567 C   0  0  0  0  0  0  0  0  0  0  0  0
   25.4110  -15.5980  -14.6438 C   0  0  0  0  0  0  0  0  0  0  0  0
   24.4525  -16.5794  -14.6615 C   0  0  0  0  0  0  0  0  0  0  0  0
   22.5419  -20.6378  -14.4749 C   0  0  0  0  0  0  0  0  0  0  0  0
   22.3066  -21.5189  -15.3381 O   0  0  0  0  0  0  0  0  0  0  0  0
   21.7147  -20.6285  -13.3329 N   0  0  0  0  0  0  0  0  0  0  0  0
   20.6331  -21.6834  -13.1699 C   0  0  1  0  0  0  0  0  0  0  0  0
   20.3791  -21.6309  -11.7177 C   0  0  0  0  0  0  0  0  0  0  0  0
   19.3299  -22.4043  -11.0698 C   0  0  0  0  0  0  0  0  0  0  0  0
   19.6308  -23.0235   -9.7700 C   0  0  0  0  0  0  0  0  0  0  0  0
   18.3704  -23.7741   -9.2368 C   0  0  0  0  0  0  0  0  0  0  0  0
   18.8020  -24.3998   -8.0003 N   0  0  0  0  0  0  0  0  0  0  0  0
   19.5434  -21.1822  -14.0565 C   0  0  0  0  0  0  0  0  0  0  0  0
   18.7920  -22.0378  -14.6529 O   0  0  0  0  0  0  0  0  0  0  0  0
   19.2651  -19.8607  -14.2881 O   0  0  0  0  0  0  0  0  0  0  0  0
  1  5  1  0
  2  3  1  0
  2  1  1  0
  3  4  1  0
  4  5  1  0
  5  6  1  6
  6  7  2  0
  8  6  1  0
  8  9  1  0
  9 17  1  0
 10 11  1  0
  9 10  1  6
 11 12  2  0
 12 13  1  0
 14 13  2  0
 15 14  1  0
 16 11  1  0
 16 15  2  0
 17 18  2  0
 19 17  1  0
 19 20  1  0
 20 26  1  0
 20 21  1  1
 22 21  1  0
 23 22  1  0
 24 23  1  0
 24 25  1  0
 26 27  2  0
 26 28  1  0
M  END
$$$$
