PFK.pdb
     RDKit          3D

 28 29  0  0  1  0  0  0  0  0999 V2000
   28.3079  -21.7958  -13.2125 N   0  0  0  0  0  0  0  0  0  0  0  0
   27.4640  -21.0532  -14.1618 C   0  0  0  0  0  0  0  0  0  0  0  0
   28.1825  -19.7224  -14.1790 C   0  0  0  0  0  0  0  0  0  0  0  0
   28.4099  -19.4845  -12.7010 C   0  0  0  0  0  0  0  0  0  0  0  0
   28.5125  -20.8783  -12.1376 C   0  0  1  0  0  0  0  0  0  0  0  0
   27.5041  -21.1296  -11.0811 C   0  0  0  0  0  0  0  0  0  0  0  0
   26.9641  -22.2545  -11.0216 O   0  0  0  0  0  0  0  0  0  0  0  0
   27.1213  -20.1531  -10.1318 N   0  0  0  0  0  0  0  0  0  0  0  0
   26.1208  -20.3571   -9.0979 C   0  0  1  0  0  0  0  0  0  0  0  0
   26.2854  -19.4062   -7.9586 C   0  0  0  0  0  0  0  0  0  0  0  0
   27.3736  -19.8093   -7.0413 C   0  0  0  0  0  0  0  0  0  0  0  0
   27.7677  -21.1107   -6.8252 C   0  0  0  0  0  0  0  0  0  0  0  0
   28.7895  -21.3916   -5.9607 C   0  0  0  0  0  0  0  0  0  0  0  0
   29.4439  -20.3791   -5.2897 C   0  0  0  0  0  0  0  0  0  0  0  0
   29.0631  -19.0656   -5.4929 C   0  0  0  0  0  0  0  0  0  0  0  0
   28.0367  -18.7969   -6.3626 C   0  0  0  0  0  0  0  0  0  0  0  0
   24.7576  -20.3362   -9.7077 C   0  0  0  0  0  0  0  0  0  0  0  0
   23.7090  -20.4159   -9.0217 O   0  0  0  0  0  0  0  0  0  0  0  0
   24.5977  -20.2238  -11.1042 N   0  0  0  0  0  0  0  0  0  0  0  0
   23.2154  -20.0015  -11.6949 C   0  0  1  0  0  0  0  0  0  0  0  0
   23.5383  -19.6513  -13.0911 C   0  0  0  0  0  0  0  0  0  0  0  0
   22.5193  -19.3856  -14.0959 C   0  0  0  0  0  0  0  0  0  0  0  0
   22.9594  -19.1387  -15.4774 C   0  0  0  0  0  0  0  0  0  0  0  0
   21.7183  -18.9044  -16.3945 C   0  0  0  0  0  0  0  0  0  0  0  0
   22.2520  -18.8610  -17.7436 N   0  0  0  0  0  0  0  0  0  0  0  0
   22.5443  -21.3153  -11.4746 C   0  0  0  0  0  0  0  0  0  0  0  0
   21.2966  -21.3256  -11.1662 O   0  0  0  0  0  0  0  0  0  0  0  0
   23.1557  -22.5369  -11.5823 O   0  0  0  0  0  0  0  0  0  0  0  0
  1  5  1  0
  2  3  1  0
  2  1  1  0
  3  4  1  0
  4  5  1  0
  5  6  1  1
  6  7  2  0
  8  6  1  0
  8  9  1  0
  9 17  1  0
 10 11  1  0
  9 10  1  1
 11 12  2  0
 12 13  1  0
 14 13  2  0
 15 14  1  0
 16 11  1  0
 16 15  2  0
 17 18  2  0
 19 17  1  0
 19 20  1  0
 20 26  1  0
 20 21  1  6
 22 21  1  0
 23 22  1  0
 24 23  1  0
 24 25  1  0
 26 27  2  0
 26 28  1  0
M  END
$$$$
