PFK.pdb
     RDKit          3D

 28 29  0  0  1  0  0  0  0  0999 V2000
   27.8644  -22.3868  -16.3532 N   0  0  0  0  0  0  0  0  0  0  0  0
   27.0300  -22.7607  -17.5058 C   0  0  0  0  0  0  0  0  0  0  0  0
   26.9958  -21.4461  -18.2530 C   0  0  0  0  0  0  0  0  0  0  0  0
   26.7088  -20.4703  -17.1313 C   0  0  0  0  0  0  0  0  0  0  0  0
   27.3294  -21.1328  -15.9286 C   0  0  1  0  0  0  0  0  0  0  0  0
   26.3434  -21.3627  -14.8464 C   0  0  0  0  0  0  0  0  0  0  0  0
   25.8668  -22.5083  -14.7014 O   0  0  0  0  0  0  0  0  0  0  0  0
   25.9134  -20.3432  -13.9649 N   0  0  0  0  0  0  0  0  0  0  0  0
   24.9568  -20.5349  -12.8880 C   0  0  1  0  0  0  0  0  0  0  0  0
   25.2575  -19.6726  -11.7067 C   0  0  0  0  0  0  0  0  0  0  0  0
   26.1792  -20.3267  -10.7523 C   0  0  0  0  0  0  0  0  0  0  0  0
   25.8079  -20.8089   -9.5173 C   0  0  0  0  0  0  0  0  0  0  0  0
   26.7281  -21.4051   -8.6999 C   0  0  0  0  0  0  0  0  0  0  0  0
   28.0435  -21.5347   -9.0957 C   0  0  0  0  0  0  0  0  0  0  0  0
   28.4366  -21.0568  -10.3321 C   0  0  0  0  0  0  0  0  0  0  0  0
   27.5039  -20.4608  -11.1428 C   0  0  0  0  0  0  0  0  0  0  0  0
   23.5688  -20.3718  -13.4148 C   0  0  0  0  0  0  0  0  0  0  0  0
   23.2304  -19.4044  -14.1402 O   0  0  0  0  0  0  0  0  0  0  0  0
   22.5694  -21.3187  -13.1094 N   0  0  0  0  0  0  0  0  0  0  0  0
   21.1885  -21.1927  -13.7309 C   0  0  1  0  0  0  0  0  0  0  0  0
   20.8910  -22.5929  -14.0875 C   0  0  0  0  0  0  0  0  0  0  0  0
   19.6137  -23.0128  -14.6453 C   0  0  0  0  0  0  0  0  0  0  0  0
   19.4225  -24.4425  -14.9334 C   0  0  0  0  0  0  0  0  0  0  0  0
   18.0121  -24.6718  -15.5615 C   0  0  0  0  0  0  0  0  0  0  0  0
   17.8990  -26.1109  -15.7133 N   0  0  0  0  0  0  0  0  0  0  0  0
   20.3798  -20.5989  -12.6272 C   0  0  0  0  0  0  0  0  0  0  0  0
   19.1848  -20.2014  -12.8842 O   0  0  0  0  0  0  0  0  0  0  0  0
   20.8088  -20.4448  -11.3349 O   0  0  0  0  0  0  0  0  0  0  0  0
  1  5  1  0
  2  3  1  0
  2  1  1  0
  3  4  1  0
  4  5  1  0
  5  6  1  1
  6  7  2  0
  8  6  1  0
  8  9  1  0
  9 17  1  0
 10 11  1  0
  9 10  1  1
 11 12  2  0
 12 13  1  0
 14 13  2  0
 15 14  1  0
 16 11  1  0
 16 15  2  0
 17 18  2  0
 19 17  1  0
 19 20  1  0
 20 26  1  0
 20 21  1  1
 22 21  1  0
 23 22  1  0
 24 23  1  0
 24 25  1  0
 26 27  2  0
 26 28  1  0
M  END
$$$$
