PFK.pdb
     RDKit          3D

 28 29  0  0  1  0  0  0  0  0999 V2000
   30.6944  -20.8462  -10.2370 N   0  0  0  0  0  0  0  0  0  0  0  0
   31.3687  -20.7393   -8.9338 C   0  0  0  0  0  0  0  0  0  0  0  0
   31.9860  -22.1165   -8.8346 C   0  0  0  0  0  0  0  0  0  0  0  0
   30.8261  -22.9964   -9.2505 C   0  0  0  0  0  0  0  0  0  0  0  0
   30.0415  -22.1152  -10.1878 C   0  0  1  0  0  0  0  0  0  0  0  0
   28.6417  -21.9282   -9.7387 C   0  0  0  0  0  0  0  0  0  0  0  0
   27.9546  -22.9383   -9.4776 O   0  0  0  0  0  0  0  0  0  0  0  0
   28.0424  -20.6554   -9.5904 N   0  0  0  0  0  0  0  0  0  0  0  0
   26.6685  -20.4356   -9.1712 C   0  0  1  0  0  0  0  0  0  0  0  0
   26.5600  -19.3700   -8.1310 C   0  0  0  0  0  0  0  0  0  0  0  0
   27.3309  -19.6937   -6.9107 C   0  0  0  0  0  0  0  0  0  0  0  0
   28.4597  -19.0201   -6.5011 C   0  0  0  0  0  0  0  0  0  0  0  0
   29.1077  -19.3858   -5.3537 C   0  0  0  0  0  0  0  0  0  0  0  0
   28.6444  -20.4343   -4.5858 C   0  0  0  0  0  0  0  0  0  0  0  0
   27.5126  -21.1236   -4.9799 C   0  0  0  0  0  0  0  0  0  0  0  0
   26.8715  -20.7471   -6.1330 C   0  0  0  0  0  0  0  0  0  0  0  0
   25.8102  -20.1967  -10.3699 C   0  0  0  0  0  0  0  0  0  0  0  0
   26.0578  -19.2971  -11.2101 O   0  0  0  0  0  0  0  0  0  0  0  0
   24.6680  -20.9899  -10.6044 N   0  0  0  0  0  0  0  0  0  0  0  0
   23.8603  -20.8006  -11.8775 C   0  0  1  0  0  0  0  0  0  0  0  0
   23.4180  -22.1793  -12.1600 C   0  0  0  0  0  0  0  0  0  0  0  0
   22.4903  -22.5082  -13.2324 C   0  0  0  0  0  0  0  0  0  0  0  0
   22.1899  -23.9276  -13.4746 C   0  0  0  0  0  0  0  0  0  0  0  0
   21.2685  -24.0674  -14.7267 C   0  0  0  0  0  0  0  0  0  0  0  0
   20.9850  -25.4874  -14.8267 N   0  0  0  0  0  0  0  0  0  0  0  0
   22.8043  -19.8332  -11.4606 C   0  0  0  0  0  0  0  0  0  0  0  0
   22.4889  -19.7638  -10.2165 O   0  0  0  0  0  0  0  0  0  0  0  0
   22.1336  -18.9901  -12.3073 O   0  0  0  0  0  0  0  0  0  0  0  0
  1  5  1  0
  2  3  1  0
  2  1  1  0
  3  4  1  0
  4  5  1  0
  5  6  1  1
  6  7  2  0
  8  6  1  0
  8  9  1  0
  9 17  1  0
 10 11  1  0
  9 10  1  1
 11 12  2  0
 12 13  1  0
 14 13  2  0
 15 14  1  0
 16 11  1  0
 16 15  2  0
 17 18  2  0
 19 17  1  0
 19 20  1  0
 20 26  1  0
 20 21  1  1
 22 21  1  0
 23 22  1  0
 24 23  1  0
 24 25  1  0
 26 27  2  0
 26 28  1  0
M  END
$$$$
