PFK.pdb
     RDKit          3D

 28 29  0  0  1  0  0  0  0  0999 V2000
   29.3803  -20.1891  -11.7960 N   0  0  0  0  0  0  0  0  0  0  0  0
   30.4049  -19.6909  -10.8650 C   0  0  0  0  0  0  0  0  0  0  0  0
   31.3610  -20.8628  -10.8624 C   0  0  0  0  0  0  0  0  0  0  0  0
   30.4069  -22.0288  -10.7117 C   0  0  0  0  0  0  0  0  0  0  0  0
   29.1455  -21.5313  -11.3690 C   0  0  1  0  0  0  0  0  0  0  0  0
   27.9871  -21.5553  -10.4451 C   0  0  0  0  0  0  0  0  0  0  0  0
   27.6452  -22.6448   -9.9385 O   0  0  0  0  0  0  0  0  0  0  0  0
   27.2457  -20.3989  -10.1069 N   0  0  0  0  0  0  0  0  0  0  0  0
   25.8932  -20.4136   -9.5759 C   0  0  1  0  0  0  0  0  0  0  0  0
   25.6937  -19.3845   -8.5126 C   0  0  0  0  0  0  0  0  0  0  0  0
   26.4893  -19.6681   -7.2982 C   0  0  0  0  0  0  0  0  0  0  0  0
   26.3028  -20.7617   -6.4829 C   0  0  0  0  0  0  0  0  0  0  0  0
   27.0901  -20.9474   -5.3802 C   0  0  0  0  0  0  0  0  0  0  0  0
   28.0843  -20.0446   -5.0637 C   0  0  0  0  0  0  0  0  0  0  0  0
   28.2876  -18.9397   -5.8695 C   0  0  0  0  0  0  0  0  0  0  0  0
   27.4912  -18.7648   -6.9729 C   0  0  0  0  0  0  0  0  0  0  0  0
   24.9124  -20.3178  -10.6982 C   0  0  0  0  0  0  0  0  0  0  0  0
   25.0738  -19.5425  -11.6726 O   0  0  0  0  0  0  0  0  0  0  0  0
   23.7468  -21.1115  -10.7024 N   0  0  0  0  0  0  0  0  0  0  0  0
   22.8351  -21.1155  -11.9181 C   0  0  1  0  0  0  0  0  0  0  0  0
   22.9063  -22.5267  -12.3420 C   0  0  0  0  0  0  0  0  0  0  0  0
   22.9950  -22.9298  -13.7378 C   0  0  0  0  0  0  0  0  0  0  0  0
   23.1159  -24.3650  -14.0359 C   0  0  0  0  0  0  0  0  0  0  0  0
   23.1515  -24.5836  -15.5809 C   0  0  0  0  0  0  0  0  0  0  0  0
   24.5347  -24.3590  -15.9595 N   0  0  0  0  0  0  0  0  0  0  0  0
   21.5326  -20.6517  -11.3585 C   0  0  0  0  0  0  0  0  0  0  0  0
   21.3923  -20.6051  -10.0817 O   0  0  0  0  0  0  0  0  0  0  0  0
   20.4537  -20.2562  -12.1050 O   0  0  0  0  0  0  0  0  0  0  0  0
  1  5  1  0
  2  3  1  0
  2  1  1  0
  3  4  1  0
  4  5  1  0
  5  6  1  1
  6  7  2  0
  8  6  1  0
  8  9  1  0
  9 17  1  0
 10 11  1  0
  9 10  1  1
 11 12  2  0
 12 13  1  0
 14 13  2  0
 15 14  1  0
 16 11  1  0
 16 15  2  0
 17 18  2  0
 19 17  1  0
 19 20  1  0
 20 26  1  0
 20 21  1  1
 22 21  1  0
 23 22  1  0
 24 23  1  0
 24 25  1  0
 26 27  2  0
 26 28  1  0
M  END
$$$$
