WHQ.pdb
     RDKit          3D

 34 36  0  0  1  0  0  0  0  0999 V2000
    6.1481  -17.2117   23.9742 N   0  0  0  0  0  0  0  0  0  0  0  0
    7.1562  -16.2149   23.8410 C   0  0  1  0  0  0  0  0  0  0  0  0
    7.7677  -15.8252   25.1658 C   0  0  0  0  0  0  0  0  0  0  0  0
    6.9210  -14.8537   25.8641 C   0  0  0  0  0  0  0  0  0  0  0  0
    5.7702  -15.1397   26.5482 C   0  0  0  0  0  0  0  0  0  0  0  0
    5.3005  -13.9689   27.0400 N   0  0  0  0  0  0  0  0  0  0  0  0
    6.0894  -12.9575   26.7058 C   0  0  0  0  0  0  0  0  0  0  0  0
    6.0629  -11.5987   26.9472 C   0  0  0  0  0  0  0  0  0  0  0  0
    7.0691  -10.8119   26.4379 C   0  0  0  0  0  0  0  0  0  0  0  0
    8.0901  -11.3341   25.7028 C   0  0  0  0  0  0  0  0  0  0  0  0
    8.1228  -12.6806   25.4594 C   0  0  0  0  0  0  0  0  0  0  0  0
    7.1286  -13.4974   25.9561 C   0  0  0  0  0  0  0  0  0  0  0  0
    8.2815  -16.6391   22.9336 C   0  0  0  0  0  0  0  0  0  0  0  0
    8.7867  -17.7749   23.0890 O   0  0  0  0  0  0  0  0  0  0  0  0
    8.7768  -15.7943   21.9212 N   0  0  0  0  0  0  0  0  0  0  0  0
   10.0147  -15.8017   21.2422 C   0  0  1  0  0  0  0  0  0  0  0  0
   10.3004  -14.5718   20.3644 C   0  0  0  0  0  0  0  0  0  0  0  0
    9.2715  -14.4079   19.3083 C   0  0  0  0  0  0  0  0  0  0  0  0
    8.4216  -15.4112   18.8891 C   0  0  0  0  0  0  0  0  0  0  0  0
    7.6099  -14.9285   17.9155 N   0  0  0  0  0  0  0  0  0  0  0  0
    7.9408  -13.6411   17.7220 C   0  0  0  0  0  0  0  0  0  0  0  0
    8.9417  -13.3414   18.5665 N   0  0  0  0  0  0  0  0  0  0  0  0
   11.2127  -16.1537   21.9695 C   0  0  0  0  0  0  0  0  0  0  0  0
   11.7179  -15.2917   22.7455 O   0  0  0  0  0  0  0  0  0  0  0  0
   12.0191  -21.2889   24.9254 N   0  0  0  0  0  0  0  0  0  0  0  0
   11.3572  -20.0572   25.2171 C   0  0  0  0  0  0  0  0  0  0  0  0
   10.4946  -20.0654   26.1177 O   0  0  0  0  0  0  0  0  0  0  0  0
   11.6933  -18.8280   24.4676 C   0  0  0  0  0  0  0  0  0  0  0  0
   12.8297  -18.9673   23.5061 C   0  0  0  0  0  0  0  0  0  0  0  0
   13.0665  -17.7043   22.7578 C   0  0  2  0  0  0  0  0  0  0  0  0
   11.8922  -17.3997   21.8963 N   0  0  0  0  0  0  0  0  0  0  0  0
   14.2303  -17.7672   21.8573 C   0  0  0  0  0  0  0  0  0  0  0  0
   14.1158  -17.6917   20.6177 O   0  0  0  0  0  0  0  0  0  0  0  0
   15.4999  -17.9144   22.3778 O   0  0  0  0  0  0  0  0  0  0  0  0
  2  1  1  1
  2 13  1  0
  2  3  1  0
  4  3  1  0
  4  5  2  0
  6  5  1  0
  7  6  1  0
  8  7  2  0
  9  8  1  0
 10  9  2  0
 10 11  1  0
 11 12  2  0
 12  7  1  0
 12  4  1  0
 13 14  2  0
 15 16  1  0
 15 13  1  0
 16 17  1  1
 18 17  1  0
 19 18  2  0
 20 21  1  0
 20 19  1  0
 21 22  2  0
 22 18  1  0
 23 31  1  0
 23 16  1  0
 24 23  2  0
 25 26  1  0
 26 27  2  0
 26 28  1  0
 28 29  1  0
 30 29  1  6
 30 31  1  0
 30 32  1  0
 32 34  1  0
 33 32  2  0
M  END
$$$$
