WHQ.pdb
     RDKit          3D

 34 36  0  0  1  0  0  0  0  0999 V2000
    6.2596  -17.5906   24.7801 N   0  0  0  0  0  0  0  0  0  0  0  0
    7.3079  -16.8002   24.2286 C   0  0  1  0  0  0  0  0  0  0  0  0
    7.9293  -15.8689   25.2421 C   0  0  0  0  0  0  0  0  0  0  0  0
    6.9660  -14.8520   25.6739 C   0  0  0  0  0  0  0  0  0  0  0  0
    5.7189  -15.0950   26.1836 C   0  0  0  0  0  0  0  0  0  0  0  0
    5.1600  -13.8917   26.4536 N   0  0  0  0  0  0  0  0  0  0  0  0
    5.9833  -12.9002   26.1435 C   0  0  0  0  0  0  0  0  0  0  0  0
    5.9016  -11.5245   26.2211 C   0  0  0  0  0  0  0  0  0  0  0  0
    6.9713  -10.7690   25.8014 C   0  0  0  0  0  0  0  0  0  0  0  0
    8.1077  -11.3383   25.3118 C   0  0  0  0  0  0  0  0  0  0  0  0
    8.1957  -12.7019   25.2319 C   0  0  0  0  0  0  0  0  0  0  0  0
    7.1404  -13.4883   25.6447 C   0  0  0  0  0  0  0  0  0  0  0  0
    8.4187  -17.6305   23.6404 C   0  0  0  0  0  0  0  0  0  0  0  0
    8.6953  -18.7313   24.1708 O   0  0  0  0  0  0  0  0  0  0  0  0
    9.1499  -17.2016   22.5155 N   0  0  0  0  0  0  0  0  0  0  0  0
   10.4229  -17.5899   22.0441 C   0  0  1  0  0  0  0  0  0  0  0  0
   10.8300  -17.0171   20.6763 C   0  0  0  0  0  0  0  0  0  0  0  0
   12.1517  -17.5333   20.2433 C   0  0  0  0  0  0  0  0  0  0  0  0
   13.3491  -17.2070   20.8470 C   0  0  0  0  0  0  0  0  0  0  0  0
   14.3589  -17.8478   20.2072 N   0  0  0  0  0  0  0  0  0  0  0  0
   13.8094  -18.5676   19.2151 C   0  0  0  0  0  0  0  0  0  0  0  0
   12.4812  -18.3691   19.2486 N   0  0  0  0  0  0  0  0  0  0  0  0
   11.5539  -17.5249   22.9411 C   0  0  0  0  0  0  0  0  0  0  0  0
   11.7857  -16.4324   23.5353 O   0  0  0  0  0  0  0  0  0  0  0  0
   10.8999  -17.8719   27.6214 N   0  0  0  0  0  0  0  0  0  0  0  0
   11.0582  -19.1867   27.0863 C   0  0  0  0  0  0  0  0  0  0  0  0
   10.3390  -20.0908   27.5560 O   0  0  0  0  0  0  0  0  0  0  0  0
   12.0446  -19.4488   26.0168 C   0  0  0  0  0  0  0  0  0  0  0  0
   12.8566  -18.2631   25.6044 C   0  0  0  0  0  0  0  0  0  0  0  0
   13.4952  -18.4761   24.2785 C   0  0  2  0  0  0  0  0  0  0  0  0
   12.4492  -18.5910   23.2266 N   0  0  0  0  0  0  0  0  0  0  0  0
   14.2895  -19.7142   24.2039 C   0  0  0  0  0  0  0  0  0  0  0  0
   13.9635  -20.6693   23.4711 O   0  0  0  0  0  0  0  0  0  0  0  0
   15.4364  -19.8465   24.9600 O   0  0  0  0  0  0  0  0  0  0  0  0
  2  1  1  1
  2 13  1  0
  2  3  1  0
  4  3  1  0
  4  5  2  0
  6  5  1  0
  7  6  1  0
  8  7  2  0
  9  8  1  0
 10  9  2  0
 10 11  1  0
 11 12  2  0
 12  7  1  0
 12  4  1  0
 13 14  2  0
 15 16  1  0
 15 13  1  0
 16 17  1  6
 18 17  1  0
 19 18  2  0
 20 21  1  0
 20 19  1  0
 21 22  2  0
 22 18  1  0
 23 31  1  0
 23 16  1  0
 24 23  2  0
 25 26  1  0
 26 27  2  0
 26 28  1  0
 28 29  1  0
 30 29  1  1
 30 31  1  0
 30 32  1  0
 32 34  1  0
 33 32  2  0
M  END
$$$$
