WHQ.pdb
     RDKit          3D

 34 36  0  0  1  0  0  0  0  0999 V2000
    6.4273  -17.2639   23.4048 N   0  0  0  0  0  0  0  0  0  0  0  0
    7.2612  -16.1358   23.1601 C   0  0  1  0  0  0  0  0  0  0  0  0
    7.9700  -15.6555   24.4041 C   0  0  0  0  0  0  0  0  0  0  0  0
    7.0410  -14.9539   25.2945 C   0  0  0  0  0  0  0  0  0  0  0  0
    5.9966  -15.5232   25.9722 C   0  0  0  0  0  0  0  0  0  0  0  0
    5.3953  -14.5349   26.6758 N   0  0  0  0  0  0  0  0  0  0  0  0
    6.0003  -13.3716   26.4816 C   0  0  0  0  0  0  0  0  0  0  0  0
    5.7907  -12.0903   26.9502 C   0  0  0  0  0  0  0  0  0  0  0  0
    6.6309  -11.0837   26.5358 C   0  0  0  0  0  0  0  0  0  0  0  0
    7.6629  -11.3142   25.6772 C   0  0  0  0  0  0  0  0  0  0  0  0
    7.8768  -12.5823   25.2085 C   0  0  0  0  0  0  0  0  0  0  0  0
    7.0520  -13.6142   25.6049 C   0  0  0  0  0  0  0  0  0  0  0  0
    8.3146  -16.4028   22.1168 C   0  0  0  0  0  0  0  0  0  0  0  0
    8.7723  -17.5635   22.0045 O   0  0  0  0  0  0  0  0  0  0  0  0
    8.7949  -15.3849   21.2700 N   0  0  0  0  0  0  0  0  0  0  0  0
    9.9109  -15.3589   20.4055 C   0  0  1  0  0  0  0  0  0  0  0  0
    9.9830  -14.1592   19.4463 C   0  0  0  0  0  0  0  0  0  0  0  0
    8.8260  -14.1361   18.5181 C   0  0  0  0  0  0  0  0  0  0  0  0
    7.8125  -13.2004   18.5627 C   0  0  0  0  0  0  0  0  0  0  0  0
    6.9179  -13.4666   17.5787 N   0  0  0  0  0  0  0  0  0  0  0  0
    7.3581  -14.5528   16.9223 C   0  0  0  0  0  0  0  0  0  0  0  0
    8.5068  -14.9449   17.4980 N   0  0  0  0  0  0  0  0  0  0  0  0
   11.2260  -15.6115   20.9487 C   0  0  0  0  0  0  0  0  0  0  0  0
   11.7445  -14.7329   21.6967 O   0  0  0  0  0  0  0  0  0  0  0  0
   12.4347  -17.7982   25.6669 N   0  0  0  0  0  0  0  0  0  0  0  0
   11.8987  -18.6687   24.6693 C   0  0  0  0  0  0  0  0  0  0  0  0
   11.2214  -19.6415   25.0567 O   0  0  0  0  0  0  0  0  0  0  0  0
   12.1493  -18.4121   23.2352 C   0  0  0  0  0  0  0  0  0  0  0  0
   12.9197  -17.1643   22.9437 C   0  0  0  0  0  0  0  0  0  0  0  0
   13.2468  -17.0529   21.4974 C   0  0  2  0  0  0  0  0  0  0  0  0
   12.0093  -16.7749   20.7194 N   0  0  0  0  0  0  0  0  0  0  0  0
   13.8194  -18.2858   20.9304 C   0  0  0  0  0  0  0  0  0  0  0  0
   13.1990  -18.9892   20.1083 O   0  0  0  0  0  0  0  0  0  0  0  0
   15.0821  -18.6976   21.3052 O   0  0  0  0  0  0  0  0  0  0  0  0
  2  1  1  1
  2 13  1  0
  2  3  1  0
  4  3  1  0
  4  5  2  0
  6  5  1  0
  7  6  1  0
  8  7  2  0
  9  8  1  0
 10  9  2  0
 10 11  1  0
 11 12  2  0
 12  7  1  0
 12  4  1  0
 13 14  2  0
 15 16  1  0
 15 13  1  0
 16 17  1  1
 18 17  1  0
 19 18  2  0
 20 21  1  0
 20 19  1  0
 21 22  2  0
 22 18  1  0
 23 31  1  0
 23 16  1  0
 24 23  2  0
 25 26  1  0
 26 27  2  0
 26 28  1  0
 28 29  1  0
 30 29  1  1
 30 31  1  0
 30 32  1  0
 32 34  1  0
 33 32  2  0
M  END
$$$$
