WHQ.pdb
     RDKit          3D

 34 36  0  0  1  0  0  0  0  0999 V2000
    6.6493  -17.8128   24.9677 N   0  0  0  0  0  0  0  0  0  0  0  0
    6.8809  -16.5426   24.3672 C   0  0  1  0  0  0  0  0  0  0  0  0
    7.8163  -15.6777   25.1782 C   0  0  0  0  0  0  0  0  0  0  0  0
    7.0636  -14.7299   26.0049 C   0  0  0  0  0  0  0  0  0  0  0  0
    6.1136  -15.0566   26.9348 C   0  0  0  0  0  0  0  0  0  0  0  0
    5.6673  -13.8957   27.4698 N   0  0  0  0  0  0  0  0  0  0  0  0
    6.2813  -12.8519   26.9307 C   0  0  0  0  0  0  0  0  0  0  0  0
    6.1974  -11.4868   27.1170 C   0  0  0  0  0  0  0  0  0  0  0  0
    7.0036  -10.6616   26.3688 C   0  0  0  0  0  0  0  0  0  0  0  0
    7.8817  -11.1517   25.4500 C   0  0  0  0  0  0  0  0  0  0  0  0
    7.9703  -12.5043   25.2599 C   0  0  0  0  0  0  0  0  0  0  0  0
    7.1756  -13.3593   25.9944 C   0  0  0  0  0  0  0  0  0  0  0  0
    7.4561  -16.6484   22.9789 C   0  0  0  0  0  0  0  0  0  0  0  0
    8.2245  -17.6020   22.7150 O   0  0  0  0  0  0  0  0  0  0  0  0
    7.1531  -15.7064   21.9765 N   0  0  0  0  0  0  0  0  0  0  0  0
    7.8448  -15.3695   20.7926 C   0  0  1  0  0  0  0  0  0  0  0  0
    7.4361  -14.0395   20.1377 C   0  0  0  0  0  0  0  0  0  0  0  0
    8.0010  -13.9108   18.7721 C   0  0  0  0  0  0  0  0  0  0  0  0
    7.2596  -13.5982   17.6508 C   0  0  0  0  0  0  0  0  0  0  0  0
    8.0801  -13.5606   16.5714 N   0  0  0  0  0  0  0  0  0  0  0  0
    9.3202  -13.8447   17.0027 C   0  0  0  0  0  0  0  0  0  0  0  0
    9.2578  -14.0531   18.3284 N   0  0  0  0  0  0  0  0  0  0  0  0
    9.2845  -15.4906   20.7618 C   0  0  0  0  0  0  0  0  0  0  0  0
    9.9483  -14.9958   21.7182 O   0  0  0  0  0  0  0  0  0  0  0  0
   11.4436  -19.7839   23.1110 N   0  0  0  0  0  0  0  0  0  0  0  0
   12.0707  -18.5179   23.3207 C   0  0  0  0  0  0  0  0  0  0  0  0
   12.5565  -18.2947   24.4474 O   0  0  0  0  0  0  0  0  0  0  0  0
   12.1309  -17.5199   22.2318 C   0  0  0  0  0  0  0  0  0  0  0  0
   11.2122  -17.7853   21.0825 C   0  0  0  0  0  0  0  0  0  0  0  0
   11.3603  -16.7562   20.0193 C   0  0  2  0  0  0  0  0  0  0  0  0
   10.0423  -16.1247   19.7403 N   0  0  0  0  0  0  0  0  0  0  0  0
   11.8322  -17.3044   18.7362 C   0  0  0  0  0  0  0  0  0  0  0  0
   11.5077  -18.4416   18.3403 O   0  0  0  0  0  0  0  0  0  0  0  0
   12.6617  -16.5545   17.9274 O   0  0  0  0  0  0  0  0  0  0  0  0
  2  1  1  1
  2 13  1  0
  2  3  1  0
  4  3  1  0
  4  5  2  0
  6  5  1  0
  7  6  1  0
  8  7  2  0
  9  8  1  0
 10  9  2  0
 10 11  1  0
 11 12  2  0
 12  7  1  0
 12  4  1  0
 13 14  2  0
 15 16  1  0
 15 13  1  0
 16 17  1  1
 18 17  1  0
 19 18  2  0
 20 21  1  0
 20 19  1  0
 21 22  2  0
 22 18  1  0
 23 31  1  0
 23 16  1  0
 24 23  2  0
 25 26  1  0
 26 27  2  0
 26 28  1  0
 28 29  1  0
 30 29  1  1
 30 31  1  0
 30 32  1  0
 32 34  1  0
 33 32  2  0
M  END
$$$$
