WHQ.pdb
     RDKit          3D

 34 36  0  0  1  0  0  0  0  0999 V2000
    8.9442  -15.6776   20.5944 N   0  0  0  0  0  0  0  0  0  0  0  0
    8.6829  -15.8330   21.9856 C   0  0  1  0  0  0  0  0  0  0  0  0
    7.2641  -15.4705   22.3550 C   0  0  0  0  0  0  0  0  0  0  0  0
    7.1416  -14.0306   22.5994 C   0  0  0  0  0  0  0  0  0  0  0  0
    7.0709  -13.0580   21.6386 C   0  0  0  0  0  0  0  0  0  0  0  0
    6.9651  -11.8718   22.2826 N   0  0  0  0  0  0  0  0  0  0  0  0
    6.9648  -12.0385   23.5977 C   0  0  0  0  0  0  0  0  0  0  0  0
    6.8814  -11.1790   24.6745 C   0  0  0  0  0  0  0  0  0  0  0  0
    6.9109  -11.7003   25.9467 C   0  0  0  0  0  0  0  0  0  0  0  0
    7.0200  -13.0387   26.1747 C   0  0  0  0  0  0  0  0  0  0  0  0
    7.1032  -13.8969   25.1116 C   0  0  0  0  0  0  0  0  0  0  0  0
    7.0764  -13.4062   23.8230 C   0  0  0  0  0  0  0  0  0  0  0  0
    8.9302  -17.2365   22.4738 C   0  0  0  0  0  0  0  0  0  0  0  0
    8.6395  -18.1966   21.7233 O   0  0  0  0  0  0  0  0  0  0  0  0
    9.4767  -17.4940   23.7462 N   0  0  0  0  0  0  0  0  0  0  0  0
   10.7283  -18.0321   24.1171 C   0  0  1  0  0  0  0  0  0  0  0  0
   11.9350  -17.5333   23.3049 C   0  0  0  0  0  0  0  0  0  0  0  0
   11.9962  -18.1798   21.9711 C   0  0  0  0  0  0  0  0  0  0  0  0
   11.4206  -19.3977   21.6708 C   0  0  0  0  0  0  0  0  0  0  0  0
   11.6631  -19.6955   20.3699 N   0  0  0  0  0  0  0  0  0  0  0  0
   12.3802  -18.6827   19.8557 C   0  0  0  0  0  0  0  0  0  0  0  0
   12.5731  -17.7780   20.8300 N   0  0  0  0  0  0  0  0  0  0  0  0
   11.0855  -18.0795   25.5165 C   0  0  0  0  0  0  0  0  0  0  0  0
   11.6439  -17.0658   26.0273 O   0  0  0  0  0  0  0  0  0  0  0  0
    6.5495  -19.7290   28.8106 N   0  0  0  0  0  0  0  0  0  0  0  0
    7.2495  -20.6080   27.9288 C   0  0  0  0  0  0  0  0  0  0  0  0
    6.6177  -21.5736   27.4559 O   0  0  0  0  0  0  0  0  0  0  0  0
    8.6710  -20.3680   27.6013 C   0  0  0  0  0  0  0  0  0  0  0  0
    9.2637  -19.1457   28.2257 C   0  0  0  0  0  0  0  0  0  0  0  0
   10.6960  -18.9878   27.8586 C   0  0  2  0  0  0  0  0  0  0  0  0
   10.8656  -19.1767   26.3925 N   0  0  0  0  0  0  0  0  0  0  0  0
   11.5777  -19.9755   28.5040 C   0  0  0  0  0  0  0  0  0  0  0  0
   11.6504  -20.0910   29.7437 O   0  0  0  0  0  0  0  0  0  0  0  0
   12.3591  -20.8123   27.7335 O   0  0  0  0  0  0  0  0  0  0  0  0
  2  1  1  6
  2 13  1  0
  2  3  1  0
  4  3  1  0
  4  5  2  0
  6  5  1  0
  7  6  1  0
  8  7  2  0
  9  8  1  0
 10  9  2  0
 10 11  1  0
 11 12  2  0
 12  7  1  0
 12  4  1  0
 13 14  2  0
 15 16  1  0
 15 13  1  0
 16 17  1  6
 18 17  1  0
 19 18  2  0
 20 21  1  0
 20 19  1  0
 21 22  2  0
 22 18  1  0
 23 31  1  0
 23 16  1  0
 24 23  2  0
 25 26  1  0
 26 27  2  0
 26 28  1  0
 28 29  1  0
 30 29  1  6
 30 31  1  0
 30 32  1  0
 32 34  1  0
 33 32  2  0
M  END
$$$$
