WHQ.pdb
     RDKit          3D

 34 36  0  0  1  0  0  0  0  0999 V2000
    7.1101  -17.4621   26.0414 N   0  0  0  0  0  0  0  0  0  0  0  0
    7.2076  -16.3540   25.1524 C   0  0  1  0  0  0  0  0  0  0  0  0
    8.3633  -15.4407   25.4858 C   0  0  0  0  0  0  0  0  0  0  0  0
    8.0151  -14.5427   26.5906 C   0  0  0  0  0  0  0  0  0  0  0  0
    8.3094  -14.7464   27.9119 C   0  0  0  0  0  0  0  0  0  0  0  0
    7.8144  -13.6879   28.5958 N   0  0  0  0  0  0  0  0  0  0  0  0
    7.2230  -12.8251   27.7816 C   0  0  0  0  0  0  0  0  0  0  0  0
    6.5776  -11.6189   27.9654 C   0  0  0  0  0  0  0  0  0  0  0  0
    6.0640  -10.9646   26.8704 C   0  0  0  0  0  0  0  0  0  0  0  0
    6.1735  -11.4718   25.6110 C   0  0  0  0  0  0  0  0  0  0  0  0
    6.8122  -12.6675   25.4212 C   0  0  0  0  0  0  0  0  0  0  0  0
    7.3386  -13.3489   26.4987 C   0  0  0  0  0  0  0  0  0  0  0  0
    7.3645  -16.7709   23.7133 C   0  0  0  0  0  0  0  0  0  0  0  0
    7.7939  -17.9205   23.4614 O   0  0  0  0  0  0  0  0  0  0  0  0
    7.0424  -15.9045   22.6506 N   0  0  0  0  0  0  0  0  0  0  0  0
    7.7191  -15.6453   21.4388 C   0  0  1  0  0  0  0  0  0  0  0  0
    7.4164  -14.2873   20.7839 C   0  0  0  0  0  0  0  0  0  0  0  0
    7.9449  -14.2226   19.3993 C   0  0  0  0  0  0  0  0  0  0  0  0
    8.5836  -15.2668   18.7617 C   0  0  0  0  0  0  0  0  0  0  0  0
    8.9378  -14.8752   17.5124 N   0  0  0  0  0  0  0  0  0  0  0  0
    8.5299  -13.6042   17.3619 C   0  0  0  0  0  0  0  0  0  0  0  0
    7.9342  -13.2245   18.5047 N   0  0  0  0  0  0  0  0  0  0  0  0
    9.1382  -15.9053   21.3574 C   0  0  0  0  0  0  0  0  0  0  0  0
    9.9252  -15.1371   21.9825 O   0  0  0  0  0  0  0  0  0  0  0  0
   11.7114  -20.8440   22.9631 N   0  0  0  0  0  0  0  0  0  0  0  0
   11.4211  -19.6149   23.6305 C   0  0  0  0  0  0  0  0  0  0  0  0
   11.3416  -19.6392   24.8747 O   0  0  0  0  0  0  0  0  0  0  0  0
   11.2230  -18.3697   22.8586 C   0  0  0  0  0  0  0  0  0  0  0  0
   11.4832  -18.4899   21.3913 C   0  0  0  0  0  0  0  0  0  0  0  0
   11.2141  -17.2094   20.6848 C   0  0  2  0  0  0  0  0  0  0  0  0
    9.7480  -16.9619   20.6283 N   0  0  0  0  0  0  0  0  0  0  0  0
   11.6855  -17.2007   19.2894 C   0  0  0  0  0  0  0  0  0  0  0  0
   12.8955  -17.2758   18.9967 O   0  0  0  0  0  0  0  0  0  0  0  0
   10.7782  -17.1072   18.2538 O   0  0  0  0  0  0  0  0  0  0  0  0
  2  1  1  1
  2 13  1  0
  2  3  1  0
  4  3  1  0
  4  5  2  0
  6  5  1  0
  7  6  1  0
  8  7  2  0
  9  8  1  0
 10  9  2  0
 10 11  1  0
 11 12  2  0
 12  7  1  0
 12  4  1  0
 13 14  2  0
 15 16  1  0
 15 13  1  0
 16 17  1  1
 18 17  1  0
 19 18  2  0
 20 21  1  0
 20 19  1  0
 21 22  2  0
 22 18  1  0
 23 31  1  0
 23 16  1  0
 24 23  2  0
 25 26  1  0
 26 27  2  0
 26 28  1  0
 28 29  1  0
 30 29  1  6
 30 31  1  0
 30 32  1  0
 32 34  1  0
 33 32  2  0
M  END
$$$$
