WHQ.pdb
     RDKit          3D

 34 36  0  0  1  0  0  0  0  0999 V2000
    6.4249  -17.0281   23.7961 N   0  0  0  0  0  0  0  0  0  0  0  0
    7.2573  -15.9357   23.4198 C   0  0  1  0  0  0  0  0  0  0  0  0
    7.9399  -15.2903   24.6023 C   0  0  0  0  0  0  0  0  0  0  0  0
    6.9629  -14.6195   25.4649 C   0  0  0  0  0  0  0  0  0  0  0  0
    6.0344  -15.2397   26.2569 C   0  0  0  0  0  0  0  0  0  0  0  0
    5.3354  -14.2650   26.8851 N   0  0  0  0  0  0  0  0  0  0  0  0
    5.7691  -13.0623   26.5353 C   0  0  0  0  0  0  0  0  0  0  0  0
    5.4084  -11.7746   26.8772 C   0  0  0  0  0  0  0  0  0  0  0  0
    6.0869  -10.7205   26.3119 C   0  0  0  0  0  0  0  0  0  0  0  0
    7.1036  -10.9101   25.4254 C   0  0  0  0  0  0  0  0  0  0  0  0
    7.4666  -12.1843   25.0818 C   0  0  0  0  0  0  0  0  0  0  0  0
    6.8061  -13.2634   25.6310 C   0  0  0  0  0  0  0  0  0  0  0  0
    8.3319  -16.3297   22.4402 C   0  0  0  0  0  0  0  0  0  0  0  0
    8.9471  -17.4062   22.6198 O   0  0  0  0  0  0  0  0  0  0  0  0
    8.6599  -15.5217   21.3342 N   0  0  0  0  0  0  0  0  0  0  0  0
    9.9147  -15.1907   20.7778 C   0  0  1  0  0  0  0  0  0  0  0  0
    9.9298  -13.9637   19.8510 C   0  0  0  0  0  0  0  0  0  0  0  0
    9.0582  -14.1664   18.6679 C   0  0  0  0  0  0  0  0  0  0  0  0
    8.4231  -15.3537   18.3649 C   0  0  0  0  0  0  0  0  0  0  0  0
    7.7091  -15.1971   17.2223 N   0  0  0  0  0  0  0  0  0  0  0  0
    7.8894  -13.9317   16.8093 C   0  0  0  0  0  0  0  0  0  0  0  0
    8.7030  -13.3233   17.6884 N   0  0  0  0  0  0  0  0  0  0  0  0
   11.0754  -15.1499   21.6376 C   0  0  0  0  0  0  0  0  0  0  0  0
   11.0375  -14.4074   22.6611 O   0  0  0  0  0  0  0  0  0  0  0  0
   11.0689  -19.2229   25.0808 N   0  0  0  0  0  0  0  0  0  0  0  0
   12.4247  -18.8699   25.3591 C   0  0  0  0  0  0  0  0  0  0  0  0
   12.9869  -19.4469   26.3111 O   0  0  0  0  0  0  0  0  0  0  0  0
   13.1198  -17.8543   24.5401 C   0  0  0  0  0  0  0  0  0  0  0  0
   12.2900  -17.2428   23.4571 C   0  0  0  0  0  0  0  0  0  0  0  0
   13.1035  -16.3549   22.5848 C   0  0  2  0  0  0  0  0  0  0  0  0
   12.2800  -15.8779   21.4410 N   0  0  0  0  0  0  0  0  0  0  0  0
   14.2741  -17.0268   21.9952 C   0  0  0  0  0  0  0  0  0  0  0  0
   15.2436  -17.3995   22.6856 O   0  0  0  0  0  0  0  0  0  0  0  0
   14.3239  -17.2633   20.6365 O   0  0  0  0  0  0  0  0  0  0  0  0
  2  1  1  1
  2 13  1  0
  2  3  1  0
  4  3  1  0
  4  5  2  0
  6  5  1  0
  7  6  1  0
  8  7  2  0
  9  8  1  0
 10  9  2  0
 10 11  1  0
 11 12  2  0
 12  7  1  0
 12  4  1  0
 13 14  2  0
 15 16  1  0
 15 13  1  0
 16 17  1  1
 18 17  1  0
 19 18  2  0
 20 21  1  0
 20 19  1  0
 21 22  2  0
 22 18  1  0
 23 31  1  0
 23 16  1  0
 24 23  2  0
 25 26  1  0
 26 27  2  0
 26 28  1  0
 28 29  1  0
 30 29  1  6
 30 31  1  0
 30 32  1  0
 32 34  1  0
 33 32  2  0
M  END
$$$$
