WHQ.pdb
     RDKit          3D

 34 36  0  0  1  0  0  0  0  0999 V2000
    8.9254  -16.2771   21.5880 N   0  0  0  0  0  0  0  0  0  0  0  0
    8.5873  -15.7299   22.8585 C   0  0  1  0  0  0  0  0  0  0  0  0
    7.2460  -15.0357   22.8545 C   0  0  0  0  0  0  0  0  0  0  0  0
    6.9076  -14.5495   24.1951 C   0  0  0  0  0  0  0  0  0  0  0  0
    6.3073  -15.2805   25.1847 C   0  0  0  0  0  0  0  0  0  0  0  0
    6.1749  -14.4633   26.2560 N   0  0  0  0  0  0  0  0  0  0  0  0
    6.6577  -13.2556   26.0005 C   0  0  0  0  0  0  0  0  0  0  0  0
    6.7634  -12.0893   26.7312 C   0  0  0  0  0  0  0  0  0  0  0  0
    7.3353  -10.9850   26.1444 C   0  0  0  0  0  0  0  0  0  0  0  0
    7.8001  -11.0087   24.8642 C   0  0  0  0  0  0  0  0  0  0  0  0
    7.6985  -12.1617   24.1336 C   0  0  0  0  0  0  0  0  0  0  0  0
    7.1300  -13.2870   24.6930 C   0  0  0  0  0  0  0  0  0  0  0  0
    8.5543  -16.7661   23.9514 C   0  0  0  0  0  0  0  0  0  0  0  0
    8.4478  -16.3861   25.1404 O   0  0  0  0  0  0  0  0  0  0  0  0
    8.6402  -18.1437   23.6706 N   0  0  0  0  0  0  0  0  0  0  0  0
    8.8016  -19.2492   24.5338 C   0  0  1  0  0  0  0  0  0  0  0  0
    8.5562  -20.6294   23.9017 C   0  0  0  0  0  0  0  0  0  0  0  0
    8.5952  -21.7075   24.9200 C   0  0  0  0  0  0  0  0  0  0  0  0
    7.9105  -21.6703   26.1177 C   0  0  0  0  0  0  0  0  0  0  0  0
    8.1637  -22.8086   26.8103 N   0  0  0  0  0  0  0  0  0  0  0  0
    8.9950  -23.5537   26.0632 C   0  0  0  0  0  0  0  0  0  0  0  0
    9.2461  -22.8792   24.9288 N   0  0  0  0  0  0  0  0  0  0  0  0
    9.9723  -19.3158   25.3783 C   0  0  0  0  0  0  0  0  0  0  0  0
   11.0972  -19.5007   24.8300 O   0  0  0  0  0  0  0  0  0  0  0  0
   11.1949  -14.9379   27.9586 N   0  0  0  0  0  0  0  0  0  0  0  0
   10.3370  -15.7178   28.7929 C   0  0  0  0  0  0  0  0  0  0  0  0
    9.4869  -15.1104   29.4738 O   0  0  0  0  0  0  0  0  0  0  0  0
   10.4673  -17.1897   28.8368 C   0  0  0  0  0  0  0  0  0  0  0  0
   11.5518  -17.7522   27.9751 C   0  0  0  0  0  0  0  0  0  0  0  0
   11.2525  -19.1508   27.5683 C   0  0  2  0  0  0  0  0  0  0  0  0
    9.9826  -19.1910   26.7939 N   0  0  0  0  0  0  0  0  0  0  0  0
   11.0668  -20.0647   28.7083 C   0  0  0  0  0  0  0  0  0  0  0  0
   11.9770  -20.2966   29.5288 O   0  0  0  0  0  0  0  0  0  0  0  0
    9.8549  -20.6975   28.8967 O   0  0  0  0  0  0  0  0  0  0  0  0
  2  1  1  6
  2 13  1  0
  2  3  1  0
  4  3  1  0
  4  5  2  0
  6  5  1  0
  7  6  1  0
  8  7  2  0
  9  8  1  0
 10  9  2  0
 10 11  1  0
 11 12  2  0
 12  7  1  0
 12  4  1  0
 13 14  2  0
 15 16  1  0
 15 13  1  0
 16 17  1  6
 18 17  1  0
 19 18  2  0
 20 21  1  0
 20 19  1  0
 21 22  2  0
 22 18  1  0
 23 31  1  0
 23 16  1  0
 24 23  2  0
 25 26  1  0
 26 27  2  0
 26 28  1  0
 28 29  1  0
 30 29  1  1
 30 31  1  0
 30 32  1  0
 32 34  1  0
 33 32  2  0
M  END
$$$$
