WHQ.pdb
     RDKit          3D

 34 36  0  0  1  0  0  0  0  0999 V2000
    5.7945  -18.0155   24.7548 N   0  0  0  0  0  0  0  0  0  0  0  0
    6.4115  -16.7728   24.4341 C   0  0  1  0  0  0  0  0  0  0  0  0
    7.5019  -16.3961   25.4087 C   0  0  0  0  0  0  0  0  0  0  0  0
    7.0507  -15.3302   26.3080 C   0  0  0  0  0  0  0  0  0  0  0  0
    6.3596  -15.5068   27.4764 C   0  0  0  0  0  0  0  0  0  0  0  0
    6.1400  -14.2762   27.9966 N   0  0  0  0  0  0  0  0  0  0  0  0
    6.6534  -13.3300   27.2230 C   0  0  0  0  0  0  0  0  0  0  0  0
    6.7039  -11.9526   27.2960 C   0  0  0  0  0  0  0  0  0  0  0  0
    7.3343  -11.2551   26.2925 C   0  0  0  0  0  0  0  0  0  0  0  0
    7.9098  -11.8834   25.2298 C   0  0  0  0  0  0  0  0  0  0  0  0
    7.8635  -13.2491   25.1508 C   0  0  0  0  0  0  0  0  0  0  0  0
    7.2388  -13.9782   26.1410 C   0  0  0  0  0  0  0  0  0  0  0  0
    7.0168  -16.7593   23.0547 C   0  0  0  0  0  0  0  0  0  0  0  0
    7.1881  -17.8486   22.4600 O   0  0  0  0  0  0  0  0  0  0  0  0
    7.3932  -15.5588   22.4213 N   0  0  0  0  0  0  0  0  0  0  0  0
    8.0388  -15.3348   21.1858 C   0  0  1  0  0  0  0  0  0  0  0  0
    7.9176  -13.9103   20.6194 C   0  0  0  0  0  0  0  0  0  0  0  0
    8.5038  -13.8149   19.2600 C   0  0  0  0  0  0  0  0  0  0  0  0
    7.7703  -13.6009   18.1107 C   0  0  0  0  0  0  0  0  0  0  0  0
    8.6106  -13.5676   17.0466 N   0  0  0  0  0  0  0  0  0  0  0  0
    9.8552  -13.7574   17.5148 C   0  0  0  0  0  0  0  0  0  0  0  0
    9.7760  -13.9047   18.8478 N   0  0  0  0  0  0  0  0  0  0  0  0
    9.3942  -15.8026   21.0066 C   0  0  0  0  0  0  0  0  0  0  0  0
   10.3153  -15.2375   21.6643 O   0  0  0  0  0  0  0  0  0  0  0  0
   13.6184  -13.7845   18.7750 N   0  0  0  0  0  0  0  0  0  0  0  0
   12.8715  -14.5049   17.7935 C   0  0  0  0  0  0  0  0  0  0  0  0
   13.0014  -14.1596   16.6022 O   0  0  0  0  0  0  0  0  0  0  0  0
   11.9803  -15.6147   18.1931 C   0  0  0  0  0  0  0  0  0  0  0  0
   12.0048  -15.9488   19.6502 C   0  0  0  0  0  0  0  0  0  0  0  0
   11.2364  -17.1894   19.9362 C   0  0  2  0  0  0  0  0  0  0  0  0
    9.8011  -16.8576   20.1457 N   0  0  0  0  0  0  0  0  0  0  0  0
   11.6793  -17.8834   21.1575 C   0  0  0  0  0  0  0  0  0  0  0  0
   12.8343  -18.3372   21.2817 O   0  0  0  0  0  0  0  0  0  0  0  0
   10.8063  -18.0498   22.2133 O   0  0  0  0  0  0  0  0  0  0  0  0
  2  1  1  1
  2 13  1  0
  2  3  1  0
  4  3  1  0
  4  5  2  0
  6  5  1  0
  7  6  1  0
  8  7  2  0
  9  8  1  0
 10  9  2  0
 10 11  1  0
 11 12  2  0
 12  7  1  0
 12  4  1  0
 13 14  2  0
 15 16  1  0
 15 13  1  0
 16 17  1  1
 18 17  1  0
 19 18  2  0
 20 21  1  0
 20 19  1  0
 21 22  2  0
 22 18  1  0
 23 31  1  0
 23 16  1  0
 24 23  2  0
 25 26  1  0
 26 27  2  0
 26 28  1  0
 28 29  1  0
 30 29  1  1
 30 31  1  0
 30 32  1  0
 32 34  1  0
 33 32  2  0
M  END
$$$$
