WHQ.pdb
     RDKit          3D

 34 36  0  0  1  0  0  0  0  0999 V2000
    7.0300  -17.0471   25.5116 N   0  0  0  0  0  0  0  0  0  0  0  0
    7.3496  -15.8654   24.7841 C   0  0  1  0  0  0  0  0  0  0  0  0
    8.5627  -15.1538   25.3343 C   0  0  0  0  0  0  0  0  0  0  0  0
    8.2301  -14.4358   26.5680 C   0  0  0  0  0  0  0  0  0  0  0  0
    8.6387  -14.7779   27.8290 C   0  0  0  0  0  0  0  0  0  0  0  0
    8.1157  -13.8612   28.6772 N   0  0  0  0  0  0  0  0  0  0  0  0
    7.3988  -12.9576   28.0240 C   0  0  0  0  0  0  0  0  0  0  0  0
    6.6770  -11.8451   28.4067 C   0  0  0  0  0  0  0  0  0  0  0  0
    6.0323  -11.1055   27.4432 C   0  0  0  0  0  0  0  0  0  0  0  0
    6.0855  -11.4386   26.1235 C   0  0  0  0  0  0  0  0  0  0  0  0
    6.7994  -12.5405   25.7367 C   0  0  0  0  0  0  0  0  0  0  0  0
    7.4574  -13.3036   26.6784 C   0  0  0  0  0  0  0  0  0  0  0  0
    7.6069  -16.1295   23.3235 C   0  0  0  0  0  0  0  0  0  0  0  0
    7.8757  -17.2978   22.9597 O   0  0  0  0  0  0  0  0  0  0  0  0
    7.5535  -15.1009   22.3628 N   0  0  0  0  0  0  0  0  0  0  0  0
    7.8864  -15.1066   20.9907 C   0  0  1  0  0  0  0  0  0  0  0  0
    7.3655  -13.9125   20.1738 C   0  0  0  0  0  0  0  0  0  0  0  0
    7.6500  -14.0790   18.7274 C   0  0  0  0  0  0  0  0  0  0  0  0
    8.4631  -13.2392   17.9937 C   0  0  0  0  0  0  0  0  0  0  0  0
    8.5082  -13.6738   16.7097 N   0  0  0  0  0  0  0  0  0  0  0  0
    7.7363  -14.7705   16.6323 C   0  0  0  0  0  0  0  0  0  0  0  0
    7.2265  -15.0026   17.8533 N   0  0  0  0  0  0  0  0  0  0  0  0
    9.2482  -15.3909   20.5996 C   0  0  0  0  0  0  0  0  0  0  0  0
    9.5007  -15.5347   19.3685 O   0  0  0  0  0  0  0  0  0  0  0  0
   10.2873  -20.4289   22.9274 N   0  0  0  0  0  0  0  0  0  0  0  0
   11.5984  -20.2167   22.4019 C   0  0  0  0  0  0  0  0  0  0  0  0
   12.4195  -21.1494   22.5069 O   0  0  0  0  0  0  0  0  0  0  0  0
   11.9525  -18.9318   21.7624 C   0  0  0  0  0  0  0  0  0  0  0  0
   10.9910  -17.8154   22.0168 C   0  0  0  0  0  0  0  0  0  0  0  0
   11.3864  -16.5809   21.2882 C   0  0  2  0  0  0  0  0  0  0  0  0
   10.3539  -15.5273   21.4820 N   0  0  0  0  0  0  0  0  0  0  0  0
   11.5074  -16.7737   19.8330 C   0  0  0  0  0  0  0  0  0  0  0  0
   10.6972  -17.4661   19.1852 O   0  0  0  0  0  0  0  0  0  0  0  0
   12.5426  -16.1793   19.1405 O   0  0  0  0  0  0  0  0  0  0  0  0
  2  1  1  1
  2 13  1  0
  2  3  1  0
  4  3  1  0
  4  5  2  0
  6  5  1  0
  7  6  1  0
  8  7  2  0
  9  8  1  0
 10  9  2  0
 10 11  1  0
 11 12  2  0
 12  7  1  0
 12  4  1  0
 13 14  2  0
 15 16  1  0
 15 13  1  0
 16 17  1  1
 18 17  1  0
 19 18  2  0
 20 21  1  0
 20 19  1  0
 21 22  2  0
 22 18  1  0
 23 31  1  0
 23 16  1  0
 24 23  2  0
 25 26  1  0
 26 27  2  0
 26 28  1  0
 28 29  1  0
 30 29  1  1
 30 31  1  0
 30 32  1  0
 32 34  1  0
 33 32  2  0
M  END
$$$$
