TNM.pdb
     RDKit          3D

 24 23  0  0  1  0  0  0  0  0999 V2000
   28.3547  -21.4089  -13.6256 C   0  0  0  0  0  0  0  0  0  0  0  0
   28.3962  -20.0552  -14.2955 C   0  0  1  0  0  0  0  0  0  0  0  0
   29.0938  -20.0499  -15.4833 O   0  0  0  0  0  0  0  0  0  0  0  0
   27.0222  -19.4472  -14.3996 C   0  0  2  0  0  0  0  0  0  0  0  0
   27.1860  -18.1180  -14.9712 N   0  0  0  0  0  0  0  0  0  0  0  0
   26.3150  -19.3737  -13.0886 C   0  0  0  0  0  0  0  0  0  0  0  0
   26.5249  -18.4247  -12.2726 O   0  0  0  0  0  0  0  0  0  0  0  0
   22.8003  -18.8841  -12.3231 N   0  0  0  0  0  0  0  0  0  0  0  0
   22.4055  -20.1956  -11.9246 C   0  0  0  0  0  0  0  0  0  0  0  0
   21.2006  -20.5128  -12.0401 O   0  0  0  0  0  0  0  0  0  0  0  0
   23.4250  -21.1143  -11.3973 C   0  0  0  0  0  0  0  0  0  0  0  0
   24.7426  -20.3651  -11.3848 C   0  0  2  0  0  0  0  0  0  0  0  0
   25.3733  -20.3552  -12.6842 N   0  0  0  0  0  0  0  0  0  0  0  0
   25.5912  -20.9251  -10.3346 C   0  0  0  0  0  0  0  0  0  0  0  0
   26.1810  -22.0406  -10.4414 O   0  0  0  0  0  0  0  0  0  0  0  0
   27.8799  -17.5698   -5.2759 C   0  0  0  0  0  0  0  0  0  0  0  0
   28.9386  -19.0529   -5.3116 S   0  0  0  0  0  0  0  0  0  0  0  0
   27.8914  -20.3987   -5.9862 C   0  0  0  0  0  0  0  0  0  0  0  0
   27.2536  -19.8630   -7.2443 C   0  0  0  0  0  0  0  0  0  0  0  0
   26.4011  -20.8681   -7.9599 C   0  0  2  0  0  0  0  0  0  0  0  0
   25.7846  -20.2073   -9.1234 N   0  0  0  0  0  0  0  0  0  0  0  0
   25.3490  -21.4017   -7.0935 C   0  0  0  0  0  0  0  0  0  0  0  0
   24.1371  -21.1463   -7.2952 O   0  0  0  0  0  0  0  0  0  0  0  0
   25.6661  -22.2130   -6.0142 O   0  0  0  0  0  0  0  0  0  0  0  0
  2  1  1  6
  2  3  1  0
  2  4  1  0
  4  5  1  1
  6  4  1  0
  6  7  2  0
  8  9  1  0
  9 11  1  0
 10  9  2  0
 12 11  1  6
 12 13  1  0
 13  6  1  0
 14 12  1  0
 15 14  2  0
 16 17  1  0
 17 18  1  0
 18 19  1  0
 20 19  1  1
 20 21  1  0
 20 22  1  0
 21 14  1  0
 22 24  1  0
 23 22  2  0
M  END
$$$$
