TNM.pdb
     RDKit          3D

 24 23  0  0  1  0  0  0  0  0999 V2000
   17.0706   -4.5358  -15.8365 C   0  0  0  0  0  0  0  0  0  0  0  0
   16.6313   -5.2373  -17.1007 C   0  0  1  0  0  0  0  0  0  0  0  0
   16.8221   -4.4880  -18.2408 O   0  0  0  0  0  0  0  0  0  0  0  0
   17.2037   -6.6276  -17.1892 C   0  0  2  0  0  0  0  0  0  0  0  0
   16.7624   -7.1907  -18.4574 N   0  0  0  0  0  0  0  0  0  0  0  0
   16.7931   -7.5018  -16.0528 C   0  0  0  0  0  0  0  0  0  0  0  0
   15.5729   -7.7660  -15.8249 O   0  0  0  0  0  0  0  0  0  0  0  0
   19.4065  -11.2675  -15.2460 N   0  0  0  0  0  0  0  0  0  0  0  0
   18.2970  -10.9215  -14.4189 C   0  0  0  0  0  0  0  0  0  0  0  0
   17.2603  -11.6180  -14.4958 O   0  0  0  0  0  0  0  0  0  0  0  0
   18.4172   -9.7674  -13.5162 C   0  0  0  0  0  0  0  0  0  0  0  0
   17.3750   -8.7525  -13.9421 C   0  0  2  0  0  0  0  0  0  0  0  0
   17.7389   -8.0836  -15.1694 N   0  0  0  0  0  0  0  0  0  0  0  0
   17.1342   -7.8326  -12.8318 C   0  0  0  0  0  0  0  0  0  0  0  0
   17.2385   -6.5752  -12.9387 O   0  0  0  0  0  0  0  0  0  0  0  0
   12.3647   -4.0282   -9.1176 C   0  0  0  0  0  0  0  0  0  0  0  0
   12.9635   -5.1747  -10.4017 S   0  0  0  0  0  0  0  0  0  0  0  0
   14.5488   -5.8474   -9.7715 C   0  0  0  0  0  0  0  0  0  0  0  0
   15.0757   -6.7823  -10.8322 C   0  0  0  0  0  0  0  0  0  0  0  0
   16.3836   -7.4219  -10.4726 C   0  0  2  0  0  0  0  0  0  0  0  0
   16.7625   -8.3425  -11.5585 N   0  0  0  0  0  0  0  0  0  0  0  0
   16.2954   -8.1670   -9.2159 C   0  0  0  0  0  0  0  0  0  0  0  0
   16.2646   -9.4213   -9.1947 O   0  0  0  0  0  0  0  0  0  0  0  0
   16.2430   -7.5001   -8.0009 O   0  0  0  0  0  0  0  0  0  0  0  0
  2  1  1  1
  2  3  1  0
  2  4  1  0
  4  5  1  6
  6  4  1  0
  6  7  2  0
  8  9  1  0
  9 11  1  0
 10  9  2  0
 12 11  1  1
 12 13  1  0
 13  6  1  0
 14 12  1  0
 15 14  2  0
 16 17  1  0
 17 18  1  0
 18 19  1  0
 20 19  1  6
 20 21  1  0
 20 22  1  0
 21 14  1  0
 22 24  1  0
 23 22  2  0
M  END
$$$$
