TNM.pdb
     RDKit          3D

 24 23  0  0  1  0  0  0  0  0999 V2000
   15.1061  -10.1400  -15.0971 C   0  0  0  0  0  0  0  0  0  0  0  0
   16.2683   -9.5178  -15.8356 C   0  0  1  0  0  0  0  0  0  0  0  0
   16.1605   -8.1522  -15.9811 O   0  0  0  0  0  0  0  0  0  0  0  0
   17.5888   -9.9616  -15.2631 C   0  0  2  0  0  0  0  0  0  0  0  0
   17.6141  -11.4161  -15.3270 N   0  0  0  0  0  0  0  0  0  0  0  0
   17.8070   -9.4914  -13.8648 C   0  0  0  0  0  0  0  0  0  0  0  0
   17.2998  -10.0989  -12.8727 O   0  0  0  0  0  0  0  0  0  0  0  0
   21.9961   -7.6548  -13.4830 N   0  0  0  0  0  0  0  0  0  0  0  0
   21.1796   -7.8569  -12.3310 C   0  0  0  0  0  0  0  0  0  0  0  0
   21.4831   -8.7810  -11.5439 O   0  0  0  0  0  0  0  0  0  0  0  0
   20.0217   -6.9762  -12.1183 C   0  0  0  0  0  0  0  0  0  0  0  0
   18.7771   -7.8340  -12.2307 C   0  0  2  0  0  0  0  0  0  0  0  0
   18.5898   -8.3456  -13.5685 N   0  0  0  0  0  0  0  0  0  0  0  0
   17.6331   -7.0683  -11.7392 C   0  0  0  0  0  0  0  0  0  0  0  0
   17.0209   -6.2100  -12.4405 O   0  0  0  0  0  0  0  0  0  0  0  0
   12.0313   -7.2161   -6.2215 C   0  0  0  0  0  0  0  0  0  0  0  0
   13.5453   -7.9557   -6.9161 S   0  0  0  0  0  0  0  0  0  0  0  0
   14.1072   -6.8051   -8.2287 C   0  0  0  0  0  0  0  0  0  0  0  0
   15.3968   -7.3665   -8.7750 C   0  0  0  0  0  0  0  0  0  0  0  0
   15.9284   -6.6094   -9.9554 C   0  0  2  0  0  0  0  0  0  0  0  0
   17.1601   -7.2744  -10.4150 N   0  0  0  0  0  0  0  0  0  0  0  0
   16.2283   -5.2175   -9.6166 C   0  0  0  0  0  0  0  0  0  0  0  0
   17.3705   -4.8636   -9.2361 O   0  0  0  0  0  0  0  0  0  0  0  0
   15.2478   -4.2408   -9.7079 O   0  0  0  0  0  0  0  0  0  0  0  0
  2  1  1  1
  2  3  1  0
  2  4  1  0
  4  5  1  1
  6  4  1  0
  6  7  2  0
  8  9  1  0
  9 11  1  0
 10  9  2  0
 12 11  1  6
 12 13  1  0
 13  6  1  0
 14 12  1  0
 15 14  2  0
 16 17  1  0
 17 18  1  0
 18 19  1  0
 20 19  1  1
 20 21  1  0
 20 22  1  0
 21 14  1  0
 22 24  1  0
 23 22  2  0
M  END
$$$$
