TNM.pdb
     RDKit          3D

 24 23  0  0  1  0  0  0  0  0999 V2000
   29.0319  -18.8537  -17.5775 C   0  0  0  0  0  0  0  0  0  0  0  0
   28.1708  -18.9992  -16.3445 C   0  0  1  0  0  0  0  0  0  0  0  0
   28.7956  -18.5940  -15.1856 O   0  0  0  0  0  0  0  0  0  0  0  0
   26.8107  -18.3837  -16.5440 C   0  0  2  0  0  0  0  0  0  0  0  0
   27.0190  -16.9697  -16.8223 N   0  0  0  0  0  0  0  0  0  0  0  0
   25.9104  -18.5626  -15.3686 C   0  0  0  0  0  0  0  0  0  0  0  0
   25.7157  -17.6280  -14.5323 O   0  0  0  0  0  0  0  0  0  0  0  0
   21.3957  -19.9164  -12.6583 N   0  0  0  0  0  0  0  0  0  0  0  0
   22.3758  -20.8861  -13.0239 C   0  0  0  0  0  0  0  0  0  0  0  0
   22.5698  -21.8526  -12.2532 O   0  0  0  0  0  0  0  0  0  0  0  0
   23.1133  -20.7100  -14.2835 C   0  0  0  0  0  0  0  0  0  0  0  0
   24.4186  -20.0164  -13.9477 C   0  0  2  0  0  0  0  0  0  0  0  0
   25.2253  -19.7806  -15.1224 N   0  0  0  0  0  0  0  0  0  0  0  0
   25.1096  -20.7896  -12.9175 C   0  0  0  0  0  0  0  0  0  0  0  0
   25.7693  -21.8414  -13.1662 O   0  0  0  0  0  0  0  0  0  0  0  0
   30.6961  -21.3751  -10.0563 C   0  0  0  0  0  0  0  0  0  0  0  0
   29.5300  -20.3056   -9.1518 S   0  0  0  0  0  0  0  0  0  0  0  0
   27.9124  -21.1674   -9.2106 C   0  0  0  0  0  0  0  0  0  0  0  0
   27.1185  -20.5247  -10.3211 C   0  0  0  0  0  0  0  0  0  0  0  0
   25.7619  -21.1327  -10.5185 C   0  0  2  0  0  0  0  0  0  0  0  0
   25.0587  -20.3663  -11.5618 N   0  0  0  0  0  0  0  0  0  0  0  0
   24.9724  -21.1087   -9.2863 C   0  0  0  0  0  0  0  0  0  0  0  0
   25.2954  -21.7905   -8.2836 O   0  0  0  0  0  0  0  0  0  0  0  0
   23.8332  -20.3231   -9.1920 O   0  0  0  0  0  0  0  0  0  0  0  0
  2  1  1  6
  2  3  1  0
  2  4  1  0
  4  5  1  1
  6  4  1  0
  6  7  2  0
  8  9  1  0
  9 11  1  0
 10  9  2  0
 12 11  1  6
 12 13  1  0
 13  6  1  0
 14 12  1  0
 15 14  2  0
 16 17  1  0
 17 18  1  0
 18 19  1  0
 20 19  1  1
 20 21  1  0
 20 22  1  0
 21 14  1  0
 22 24  1  0
 23 22  2  0
M  END
$$$$
