TNM.pdb
     RDKit          3D

 24 23  0  0  1  0  0  0  0  0999 V2000
   18.3864  -15.4202  -17.6096 C   0  0  0  0  0  0  0  0  0  0  0  0
   18.9688  -14.0516  -17.3429 C   0  0  1  0  0  0  0  0  0  0  0  0
   20.3437  -14.0454  -17.2578 O   0  0  0  0  0  0  0  0  0  0  0  0
   18.4181  -13.0214  -18.2937 C   0  0  2  0  0  0  0  0  0  0  0  0
   18.8942  -13.3713  -19.6245 N   0  0  0  0  0  0  0  0  0  0  0  0
   18.8165  -11.6284  -17.9405 C   0  0  0  0  0  0  0  0  0  0  0  0
   19.6699  -10.9871  -18.6268 O   0  0  0  0  0  0  0  0  0  0  0  0
   18.9303   -6.9822  -16.3472 N   0  0  0  0  0  0  0  0  0  0  0  0
   17.6889   -7.4419  -15.8158 C   0  0  0  0  0  0  0  0  0  0  0  0
   16.8754   -6.5922  -15.3895 O   0  0  0  0  0  0  0  0  0  0  0  0
   17.4191   -8.8869  -15.7910 C   0  0  0  0  0  0  0  0  0  0  0  0
   18.5690   -9.5718  -16.5026 C   0  0  2  0  0  0  0  0  0  0  0  0
   18.2659  -10.9470  -16.8242 N   0  0  0  0  0  0  0  0  0  0  0  0
   19.7780   -9.4198  -15.6954 C   0  0  0  0  0  0  0  0  0  0  0  0
   20.2718  -10.3584  -15.0035 O   0  0  0  0  0  0  0  0  0  0  0  0
   26.7387  -10.1701  -15.0110 C   0  0  0  0  0  0  0  0  0  0  0  0
   25.0882  -10.2523  -15.7796 S   0  0  0  0  0  0  0  0  0  0  0  0
   24.0939   -8.9410  -14.9705 C   0  0  0  0  0  0  0  0  0  0  0  0
   22.6966   -9.0485  -15.5299 C   0  0  0  0  0  0  0  0  0  0  0  0
   21.7424   -8.0427  -14.9582 C   0  0  2  0  0  0  0  0  0  0  0  0
   20.4562   -8.1713  -15.6651 N   0  0  0  0  0  0  0  0  0  0  0  0
   22.2416   -6.6751  -15.1082 C   0  0  0  0  0  0  0  0  0  0  0  0
   22.0943   -6.0336  -16.1765 O   0  0  0  0  0  0  0  0  0  0  0  0
   22.8983   -6.0438  -14.0623 O   0  0  0  0  0  0  0  0  0  0  0  0
  2  1  1  6
  2  3  1  0
  2  4  1  0
  4  5  1  6
  6  4  1  0
  6  7  2  0
  8  9  1  0
  9 11  1  0
 10  9  2  0
 12 11  1  1
 12 13  1  0
 13  6  1  0
 14 12  1  0
 15 14  2  0
 16 17  1  0
 17 18  1  0
 18 19  1  0
 20 19  1  6
 20 21  1  0
 20 22  1  0
 21 14  1  0
 22 24  1  0
 23 22  2  0
M  END
$$$$
