TNM.pdb
     RDKit          3D

 24 23  0  0  1  0  0  0  0  0999 V2000
   15.4185  -13.2895  -11.4018 C   0  0  0  0  0  0  0  0  0  0  0  0
   15.6679  -11.8087  -11.5700 C   0  0  1  0  0  0  0  0  0  0  0  0
   15.9093  -11.4356  -12.8739 O   0  0  0  0  0  0  0  0  0  0  0  0
   14.6007  -10.9879  -10.8949 C   0  0  2  0  0  0  0  0  0  0  0  0
   13.3600  -11.2215  -11.6204 N   0  0  0  0  0  0  0  0  0  0  0  0
   14.9216   -9.5321  -10.8542 C   0  0  0  0  0  0  0  0  0  0  0  0
   14.7081   -8.7764  -11.8512 O   0  0  0  0  0  0  0  0  0  0  0  0
   16.1571   -4.9256   -9.7073 N   0  0  0  0  0  0  0  0  0  0  0  0
   15.8249   -5.4614   -8.4277 C   0  0  0  0  0  0  0  0  0  0  0  0
   15.6996   -4.6689   -7.4676 O   0  0  0  0  0  0  0  0  0  0  0  0
   15.6452   -6.9142   -8.2914 C   0  0  0  0  0  0  0  0  0  0  0  0
   15.8739   -7.5263   -9.6591 C   0  0  2  0  0  0  0  0  0  0  0  0
   15.4797   -8.9151   -9.7046 N   0  0  0  0  0  0  0  0  0  0  0  0
   17.2669   -7.3078  -10.0443 C   0  0  0  0  0  0  0  0  0  0  0  0
   18.2335   -7.9568   -9.5463 O   0  0  0  0  0  0  0  0  0  0  0  0
   22.6323   -9.4076  -14.0099 C   0  0  0  0  0  0  0  0  0  0  0  0
   20.9364   -9.3586  -13.3440 S   0  0  0  0  0  0  0  0  0  0  0  0
   20.6642   -7.6300  -12.7958 C   0  0  0  0  0  0  0  0  0  0  0  0
   19.2968   -7.5868  -12.1593 C   0  0  0  0  0  0  0  0  0  0  0  0
   18.9471   -6.2490  -11.5787 C   0  0  2  0  0  0  0  0  0  0  0  0
   17.5850   -6.3276  -11.0229 N   0  0  0  0  0  0  0  0  0  0  0  0
   18.9970   -5.1900  -12.5877 C   0  0  0  0  0  0  0  0  0  0  0  0
   17.9589   -4.7707  -13.1544 O   0  0  0  0  0  0  0  0  0  0  0  0
   20.2061   -4.6146  -12.9492 O   0  0  0  0  0  0  0  0  0  0  0  0
  2  1  1  6
  2  3  1  0
  2  4  1  0
  4  5  1  6
  6  4  1  0
  6  7  2  0
  8  9  1  0
  9 11  1  0
 10  9  2  0
 12 11  1  1
 12 13  1  0
 13  6  1  0
 14 12  1  0
 15 14  2  0
 16 17  1  0
 17 18  1  0
 18 19  1  0
 20 19  1  6
 20 21  1  0
 20 22  1  0
 21 14  1  0
 22 24  1  0
 23 22  2  0
M  END
$$$$
