KMT.pdb
     RDKit          3D

 25 24  0  0  1  0  0  0  0  0999 V2000
   20.8517  -20.7120  -12.8125 N   0  0  0  0  0  0  0  0  0  0  0  0
   21.9478  -21.4640  -13.3227 C   0  0  1  0  0  0  0  0  0  0  0  0
   21.7213  -21.9253  -14.7222 C   0  0  0  0  0  0  0  0  0  0  0  0
   21.0682  -23.2395  -14.8926 C   0  0  0  0  0  0  0  0  0  0  0  0
   21.8695  -24.4302  -14.4979 C   0  0  0  0  0  0  0  0  0  0  0  0
   21.0725  -25.7117  -14.8408 C   0  0  0  0  0  0  0  0  0  0  0  0
   21.8525  -26.8650  -14.4378 N   0  0  0  0  0  0  0  0  0  0  0  0
   23.2478  -20.7570  -13.1636 C   0  0  0  0  0  0  0  0  0  0  0  0
   23.2718  -19.5288  -13.4097 O   0  0  0  0  0  0  0  0  0  0  0  0
   28.6129  -21.2164   -9.2275 C   0  0  0  0  0  0  0  0  0  0  0  0
   26.8691  -21.1008   -8.6752 S   0  0  0  0  0  0  0  0  0  0  0  0
   25.9025  -20.5835  -10.1134 C   0  0  0  0  0  0  0  0  0  0  0  0
   26.4409  -21.0906  -11.3989 C   0  0  0  0  0  0  0  0  0  0  0  0
   25.6938  -20.6761  -12.6176 C   0  0  2  0  0  0  0  0  0  0  0  0
   24.4374  -21.3773  -12.7582 N   0  0  0  0  0  0  0  0  0  0  0  0
   26.4495  -20.8218  -13.8898 C   0  0  0  0  0  0  0  0  0  0  0  0
   27.0342  -21.9172  -14.1008 O   0  0  0  0  0  0  0  0  0  0  0  0
   25.6624  -21.4649  -17.1041 C   0  0  0  0  0  0  0  0  0  0  0  0
   26.4883  -20.1963  -17.2985 C   0  0  1  0  0  0  0  0  0  0  0  0
   25.5915  -19.1268  -17.2926 O   0  0  0  0  0  0  0  0  0  0  0  0
   27.3469  -20.0531  -16.0594 C   0  0  2  0  0  0  0  0  0  0  0  0
   26.5588  -19.8296  -14.8717 N   0  0  0  0  0  0  0  0  0  0  0  0
   28.4100  -19.0512  -16.2368 C   0  0  0  0  0  0  0  0  0  0  0  0
   29.4068  -19.1647  -17.1862 O   0  0  0  0  0  0  0  0  0  0  0  0
   28.4153  -18.0428  -15.4917 O   0  0  0  0  0  0  0  0  0  0  0  0
  2  1  1  6
  2  3  1  0
  4  5  1  0
  4  3  1  0
  6  5  1  0
  6  7  1  0
  8  2  1  0
  9  8  2  0
 11 10  1  0
 11 12  1  0
 13 12  1  0
 14 13  1  1
 14 15  1  0
 15  8  1  0
 16 14  1  0
 16 17  2  0
 19 21  1  0
 19 18  1  1
 20 19  1  0
 21 22  1  1
 22 16  1  0
 23 21  1  0
 24 23  1  0
 25 23  2  0
M  END
$$$$
