KMT.pdb
     RDKit          3D

 25 24  0  0  1  0  0  0  0  0999 V2000
   27.8407  -22.0275  -16.4457 N   0  0  0  0  0  0  0  0  0  0  0  0
   27.4644  -20.8955  -15.6682 C   0  0  1  0  0  0  0  0  0  0  0  0
   26.9219  -19.7851  -16.5021 C   0  0  0  0  0  0  0  0  0  0  0  0
   27.8844  -19.0678  -17.3634 C   0  0  0  0  0  0  0  0  0  0  0  0
   28.9002  -19.9059  -18.0573 C   0  0  0  0  0  0  0  0  0  0  0  0
   29.8125  -18.9915  -18.9098 C   0  0  0  0  0  0  0  0  0  0  0  0
   30.8289  -19.8092  -19.5416 N   0  0  0  0  0  0  0  0  0  0  0  0
   26.5583  -21.2523  -14.5427 C   0  0  0  0  0  0  0  0  0  0  0  0
   25.7533  -22.1949  -14.7252 O   0  0  0  0  0  0  0  0  0  0  0  0
   27.8757  -20.9833   -8.2453 C   0  0  0  0  0  0  0  0  0  0  0  0
   26.1078  -20.5134   -8.1322 S   0  0  0  0  0  0  0  0  0  0  0  0
   25.3569  -20.9316   -9.7233 C   0  0  0  0  0  0  0  0  0  0  0  0
   26.2207  -20.6105  -10.8853 C   0  0  0  0  0  0  0  0  0  0  0  0
   25.6614  -20.9613  -12.2192 C   0  0  2  0  0  0  0  0  0  0  0  0
   26.5512  -20.6028  -13.3008 N   0  0  0  0  0  0  0  0  0  0  0  0
   24.3251  -20.3761  -12.5066 C   0  0  0  0  0  0  0  0  0  0  0  0
   24.2881  -19.2604  -13.0899 O   0  0  0  0  0  0  0  0  0  0  0  0
   22.1100  -22.1869  -14.6413 C   0  0  0  0  0  0  0  0  0  0  0  0
   21.9784  -20.6963  -14.3409 C   0  0  1  0  0  0  0  0  0  0  0  0
   20.7469  -20.2886  -14.8560 O   0  0  0  0  0  0  0  0  0  0  0  0
   21.8843  -20.5722  -12.8345 C   0  0  2  0  0  0  0  0  0  0  0  0
   23.1034  -20.9750  -12.1762 N   0  0  0  0  0  0  0  0  0  0  0  0
   20.6939  -21.2503  -12.2978 C   0  0  0  0  0  0  0  0  0  0  0  0
   19.4038  -20.9170  -12.6615 O   0  0  0  0  0  0  0  0  0  0  0  0
   20.8534  -22.1774  -11.4688 O   0  0  0  0  0  0  0  0  0  0  0  0
  2  1  1  6
  2  3  1  0
  4  5  1  0
  4  3  1  0
  6  5  1  0
  6  7  1  0
  8  2  1  0
  9  8  2  0
 11 10  1  0
 11 12  1  0
 13 12  1  0
 14 13  1  1
 14 15  1  0
 15  8  1  0
 16 14  1  0
 16 17  2  0
 19 21  1  0
 19 18  1  1
 20 19  1  0
 21 22  1  1
 22 16  1  0
 23 21  1  0
 24 23  1  0
 25 23  2  0
M  END
$$$$
