KMT.pdb
     RDKit          3D

 25 24  0  0  1  0  0  0  0  0999 V2000
   18.1115  -11.2654  -17.0910 N   0  0  0  0  0  0  0  0  0  0  0  0
   19.4736  -11.4917  -16.7432 C   0  0  1  0  0  0  0  0  0  0  0  0
   20.0160  -12.7432  -17.3450 C   0  0  0  0  0  0  0  0  0  0  0  0
   19.7564  -14.0004  -16.6137 C   0  0  0  0  0  0  0  0  0  0  0  0
   18.4714  -14.6872  -16.9183 C   0  0  0  0  0  0  0  0  0  0  0  0
   18.3895  -15.9945  -16.0941 C   0  0  0  0  0  0  0  0  0  0  0  0
   17.1409  -16.6616  -16.4049 N   0  0  0  0  0  0  0  0  0  0  0  0
   20.3365  -10.3111  -17.0196 C   0  0  0  0  0  0  0  0  0  0  0  0
   21.5465  -10.3931  -16.7048 O   0  0  0  0  0  0  0  0  0  0  0  0
   21.6728   -8.8091  -23.1984 C   0  0  0  0  0  0  0  0  0  0  0  0
   20.9611   -7.5974  -22.0218 S   0  0  0  0  0  0  0  0  0  0  0  0
   21.2498   -8.2548  -20.3620 C   0  0  0  0  0  0  0  0  0  0  0  0
   20.5469   -7.4979  -19.2978 C   0  0  0  0  0  0  0  0  0  0  0  0
   20.7438   -8.0032  -17.9117 C   0  0  2  0  0  0  0  0  0  0  0  0
   19.8812   -9.1224  -17.6061 N   0  0  0  0  0  0  0  0  0  0  0  0
   20.5695   -6.9808  -16.8464 C   0  0  0  0  0  0  0  0  0  0  0  0
   19.3933   -6.6620  -16.5282 O   0  0  0  0  0  0  0  0  0  0  0  0
   22.6264   -6.8562  -13.5882 C   0  0  0  0  0  0  0  0  0  0  0  0
   21.2951   -6.1268  -13.7461 C   0  0  1  0  0  0  0  0  0  0  0  0
   21.2660   -5.1261  -12.7734 O   0  0  0  0  0  0  0  0  0  0  0  0
   21.3485   -5.4290  -15.0890 C   0  0  2  0  0  0  0  0  0  0  0  0
   21.6182   -6.3454  -16.1703 N   0  0  0  0  0  0  0  0  0  0  0  0
   22.2620   -4.2755  -15.0762 C   0  0  0  0  0  0  0  0  0  0  0  0
   22.1112   -3.1994  -14.2235 O   0  0  0  0  0  0  0  0  0  0  0  0
   23.2267   -4.2644  -15.8771 O   0  0  0  0  0  0  0  0  0  0  0  0
  2  1  1  6
  2  3  1  0
  4  5  1  0
  4  3  1  0
  6  5  1  0
  6  7  1  0
  8  2  1  0
  9  8  2  0
 11 10  1  0
 11 12  1  0
 13 12  1  0
 14 13  1  6
 14 15  1  0
 15  8  1  0
 16 14  1  0
 16 17  2  0
 19 21  1  0
 19 18  1  1
 20 19  1  0
 21 22  1  6
 22 16  1  0
 23 21  1  0
 24 23  1  0
 25 23  2  0
M  END
$$$$
