KMT.pdb
     RDKit          3D

 25 24  0  0  1  0  0  0  0  0999 V2000
   20.4965  -13.2606  -17.4129 N   0  0  0  0  0  0  0  0  0  0  0  0
   20.3577  -11.8506  -17.5552 C   0  0  1  0  0  0  0  0  0  0  0  0
   18.9326  -11.4131  -17.5414 C   0  0  0  0  0  0  0  0  0  0  0  0
   17.9827  -12.2128  -18.3419 C   0  0  0  0  0  0  0  0  0  0  0  0
   16.5910  -11.6920  -18.4278 C   0  0  0  0  0  0  0  0  0  0  0  0
   15.7406  -12.6617  -19.2831 C   0  0  0  0  0  0  0  0  0  0  0  0
   14.4209  -12.0891  -19.4600 N   0  0  0  0  0  0  0  0  0  0  0  0
   21.1911  -11.0943  -16.5814 C   0  0  0  0  0  0  0  0  0  0  0  0
   21.1597  -11.4632  -15.3845 O   0  0  0  0  0  0  0  0  0  0  0  0
   26.9534  -11.5366  -15.1554 C   0  0  0  0  0  0  0  0  0  0  0  0
   26.9480   -9.7187  -15.3889 S   0  0  0  0  0  0  0  0  0  0  0  0
   25.2415   -9.1700  -15.1499 C   0  0  0  0  0  0  0  0  0  0  0  0
   24.3013   -9.7103  -16.1617 C   0  0  0  0  0  0  0  0  0  0  0  0
   22.8729   -9.3348  -15.9780 C   0  0  2  0  0  0  0  0  0  0  0  0
   22.0026  -10.0028  -16.9196 N   0  0  0  0  0  0  0  0  0  0  0  0
   22.5993   -7.8752  -16.0508 C   0  0  0  0  0  0  0  0  0  0  0  0
   22.2897   -7.3931  -17.1724 O   0  0  0  0  0  0  0  0  0  0  0  0
   20.6417   -6.3535  -16.8217 C   0  0  0  0  0  0  0  0  0  0  0  0
   20.7400   -5.5698  -15.5158 C   0  0  1  0  0  0  0  0  0  0  0  0
   20.0051   -6.2787  -14.5642 O   0  0  0  0  0  0  0  0  0  0  0  0
   22.1906   -5.6376  -15.0865 C   0  0  2  0  0  0  0  0  0  0  0  0
   22.6605   -6.9962  -14.9626 N   0  0  0  0  0  0  0  0  0  0  0  0
   22.4487   -4.8316  -13.8828 C   0  0  0  0  0  0  0  0  0  0  0  0
   22.2213   -3.4707  -13.8196 O   0  0  0  0  0  0  0  0  0  0  0  0
   22.8974   -5.4040  -12.8615 O   0  0  0  0  0  0  0  0  0  0  0  0
  2  1  1  1
  2  3  1  0
  4  5  1  0
  4  3  1  0
  6  5  1  0
  6  7  1  0
  8  2  1  0
  9  8  2  0
 11 10  1  0
 11 12  1  0
 13 12  1  0
 14 13  1  6
 14 15  1  0
 15  8  1  0
 16 14  1  0
 16 17  2  0
 19 21  1  0
 19 18  1  6
 20 19  1  0
 21 22  1  1
 22 16  1  0
 23 21  1  0
 24 23  1  0
 25 23  2  0
M  END
$$$$
