KMT.pdb
     RDKit          3D

 25 24  0  0  1  0  0  0  0  0999 V2000
   28.4730  -21.5862  -15.9393 N   0  0  0  0  0  0  0  0  0  0  0  0
   28.0393  -20.6150  -14.9926 C   0  0  1  0  0  0  0  0  0  0  0  0
   27.6886  -19.3136  -15.6298 C   0  0  0  0  0  0  0  0  0  0  0  0
   28.4365  -18.9467  -16.8498 C   0  0  0  0  0  0  0  0  0  0  0  0
   28.0632  -17.6551  -17.4887 C   0  0  0  0  0  0  0  0  0  0  0  0
   28.9733  -17.4178  -18.7178 C   0  0  0  0  0  0  0  0  0  0  0  0
   28.5815  -16.1749  -19.3523 N   0  0  0  0  0  0  0  0  0  0  0  0
   26.9540  -21.1235  -14.1103 C   0  0  0  0  0  0  0  0  0  0  0  0
   26.2471  -22.0620  -14.5455 O   0  0  0  0  0  0  0  0  0  0  0  0
   26.1320  -19.5068   -7.7328 C   0  0  0  0  0  0  0  0  0  0  0  0
   25.3978  -21.1830   -7.8355 S   0  0  0  0  0  0  0  0  0  0  0  0
   24.9489  -21.4476   -9.5672 C   0  0  0  0  0  0  0  0  0  0  0  0
   25.9724  -20.9591  -10.5227 C   0  0  0  0  0  0  0  0  0  0  0  0
   25.6600  -21.1682  -11.9629 C   0  0  2  0  0  0  0  0  0  0  0  0
   26.6769  -20.6200  -12.8321 N   0  0  0  0  0  0  0  0  0  0  0  0
   24.3427  -20.6328  -12.3975 C   0  0  0  0  0  0  0  0  0  0  0  0
   24.2406  -19.3875  -12.5556 O   0  0  0  0  0  0  0  0  0  0  0  0
   22.7757  -20.3754  -15.2257 C   0  0  0  0  0  0  0  0  0  0  0  0
   21.5988  -20.9494  -14.4417 C   0  0  1  0  0  0  0  0  0  0  0  0
   21.5699  -22.3200  -14.7040 O   0  0  0  0  0  0  0  0  0  0  0  0
   21.9462  -20.7924  -12.9762 C   0  0  2  0  0  0  0  0  0  0  0  0
   23.2061  -21.4124  -12.6442 N   0  0  0  0  0  0  0  0  0  0  0  0
   20.8474  -21.2254  -12.0986 C   0  0  0  0  0  0  0  0  0  0  0  0
   19.5792  -20.6804  -12.1477 O   0  0  0  0  0  0  0  0  0  0  0  0
   21.0684  -22.1338  -11.2630 O   0  0  0  0  0  0  0  0  0  0  0  0
  2  1  1  6
  2  3  1  0
  4  5  1  0
  4  3  1  0
  6  5  1  0
  6  7  1  0
  8  2  1  0
  9  8  2  0
 11 10  1  0
 11 12  1  0
 13 12  1  0
 14 13  1  1
 14 15  1  0
 15  8  1  0
 16 14  1  0
 16 17  2  0
 19 21  1  0
 19 18  1  6
 20 19  1  0
 21 22  1  1
 22 16  1  0
 23 21  1  0
 24 23  1  0
 25 23  2  0
M  END
$$$$
