ECE.pdb
     RDKit          3D

 25 24  0  0  1  0  0  0  0  0999 V2000
   17.7188  -10.8898  -17.1335 N   0  0  0  0  0  0  0  0  0  0  0  0
   17.5408  -11.1109  -15.6812 C   0  0  1  0  0  0  0  0  0  0  0  0
   17.5250  -12.5693  -15.3864 C   0  0  0  0  0  0  0  0  0  0  0  0
   16.4268  -13.3638  -15.9900 C   0  0  0  0  0  0  0  0  0  0  0  0
   15.5098  -13.8917  -14.9188 C   0  0  0  0  0  0  0  0  0  0  0  0
   15.7046  -15.0413  -14.5025 O   0  0  0  0  0  0  0  0  0  0  0  0
   18.7202  -10.4730  -15.0496 C   0  0  0  0  0  0  0  0  0  0  0  0
   18.8067  -10.5379  -13.7968 O   0  0  0  0  0  0  0  0  0  0  0  0
   14.4783  -13.1552  -14.3926 O   0  0  0  0  0  0  0  0  0  0  0  0
   19.7286   -9.8071  -15.8128 N   0  0  0  0  0  0  0  0  0  0  0  0
   20.8281   -9.2131  -15.1298 C   0  0  1  0  0  0  0  0  0  0  0  0
   22.1567   -9.8508  -15.4892 C   0  0  0  0  0  0  0  0  0  0  0  0
   23.4609   -8.9578  -14.6481 S   0  0  0  0  0  0  0  0  0  0  0  0
   20.8898   -7.7295  -15.3343 C   0  0  0  0  0  0  0  0  0  0  0  0
   20.9363   -7.2326  -16.4884 O   0  0  0  0  0  0  0  0  0  0  0  0
   20.8998   -6.8039  -14.2564 N   0  0  0  0  0  0  0  0  0  0  0  0
   20.9763   -5.3671  -14.4399 C   0  0  1  0  0  0  0  0  0  0  0  0
   19.6586   -4.6872  -14.2602 C   0  0  0  0  0  0  0  0  0  0  0  0
   19.7062   -3.2058  -14.5080 C   0  0  0  0  0  0  0  0  0  0  0  0
   18.4389   -2.5014  -14.3169 C   0  0  0  0  0  0  0  0  0  0  0  0
   18.2132   -1.2890  -14.4368 O   0  0  0  0  0  0  0  0  0  0  0  0
   22.0426   -4.7668  -13.5896 C   0  0  0  0  0  0  0  0  0  0  0  0
   22.5339   -5.3289  -12.6044 O   0  0  0  0  0  0  0  0  0  0  0  0
   17.3283   -3.2891  -13.9503 O   0  0  0  0  0  0  0  0  0  0  0  0
   22.4954   -3.5044  -13.9414 O   0  0  0  0  0  0  0  0  0  0  0  0
  2  1  1  6
  2  7  1  0
  3  2  1  0
  4  3  1  0
  5  4  1  0
  6  5  2  0
  7 10  1  0
  7  8  2  0
  9  5  1  0
 10 11  1  0
 11 12  1  6
 13 12  1  0
 14 11  1  0
 14 16  1  0
 15 14  2  0
 17 18  1  1
 17 22  1  0
 17 16  1  0
 19 18  1  0
 19 20  1  0
 20 24  1  0
 21 20  2  0
 22 25  1  0
 23 22  2  0
M  END
$$$$
