ECE.pdb
     RDKit          3D

 25 24  0  0  1  0  0  0  0  0999 V2000
   26.8211  -22.3093  -15.7231 N   0  0  0  0  0  0  0  0  0  0  0  0
   26.5003  -21.1687  -14.8366 C   0  0  1  0  0  0  0  0  0  0  0  0
   26.0122  -20.0179  -15.6438 C   0  0  0  0  0  0  0  0  0  0  0  0
   24.9848  -20.3091  -16.6741 C   0  0  0  0  0  0  0  0  0  0  0  0
   24.6891  -19.0753  -17.4849 C   0  0  0  0  0  0  0  0  0  0  0  0
   25.3033  -18.0370  -17.2070 O   0  0  0  0  0  0  0  0  0  0  0  0
   25.4226  -21.6655  -13.9485 C   0  0  0  0  0  0  0  0  0  0  0  0
   24.7281  -22.6256  -14.3690 O   0  0  0  0  0  0  0  0  0  0  0  0
   23.7750  -19.0588  -18.5084 O   0  0  0  0  0  0  0  0  0  0  0  0
   25.1662  -21.0924  -12.6645 N   0  0  0  0  0  0  0  0  0  0  0  0
   24.1201  -21.6357  -11.8654 C   0  0  1  0  0  0  0  0  0  0  0  0
   24.2606  -21.2850  -10.3962 C   0  0  0  0  0  0  0  0  0  0  0  0
   23.7812  -19.5745  -10.1726 S   0  0  0  0  0  0  0  0  0  0  0  0
   22.7619  -21.2472  -12.3663 C   0  0  0  0  0  0  0  0  0  0  0  0
   22.5961  -20.2147  -13.0645 O   0  0  0  0  0  0  0  0  0  0  0  0
   21.5934  -22.0068  -12.0898 N   0  0  0  0  0  0  0  0  0  0  0  0
   20.2605  -21.5907  -12.4823 C   0  0  1  0  0  0  0  0  0  0  0  0
   19.2022  -22.5564  -12.0600 C   0  0  0  0  0  0  0  0  0  0  0  0
   17.8434  -22.2446  -12.6212 C   0  0  0  0  0  0  0  0  0  0  0  0
   16.8037  -23.2270  -12.3170 C   0  0  0  0  0  0  0  0  0  0  0  0
   15.6036  -23.1885  -12.6227 O   0  0  0  0  0  0  0  0  0  0  0  0
   19.9701  -20.2007  -12.0306 C   0  0  0  0  0  0  0  0  0  0  0  0
   20.2835  -19.7597  -10.9191 O   0  0  0  0  0  0  0  0  0  0  0  0
   17.2044  -24.3637  -11.5852 O   0  0  0  0  0  0  0  0  0  0  0  0
   19.3097  -19.3710  -12.9237 O   0  0  0  0  0  0  0  0  0  0  0  0
  2  1  1  6
  2  7  1  0
  3  2  1  0
  4  3  1  0
  5  4  1  0
  6  5  2  0
  7 10  1  0
  7  8  2  0
  9  5  1  0
 10 11  1  0
 11 12  1  1
 13 12  1  0
 14 11  1  0
 14 16  1  0
 15 14  2  0
 17 18  1  1
 17 22  1  0
 17 16  1  0
 19 18  1  0
 19 20  1  0
 20 24  1  0
 21 20  2  0
 22 25  1  0
 23 22  2  0
M  END
$$$$
