ECE.pdb
     RDKit          3D

 25 24  0  0  1  0  0  0  0  0999 V2000
   24.8768  -20.0140  -15.6358 N   0  0  0  0  0  0  0  0  0  0  0  0
   23.9004  -21.1233  -15.5599 C   0  0  1  0  0  0  0  0  0  0  0  0
   24.6126  -22.4298  -15.5656 C   0  0  0  0  0  0  0  0  0  0  0  0
   25.3072  -22.8096  -16.8205 C   0  0  0  0  0  0  0  0  0  0  0  0
   26.7999  -22.7321  -16.6392 C   0  0  0  0  0  0  0  0  0  0  0  0
   27.2324  -22.3160  -15.5564 O   0  0  0  0  0  0  0  0  0  0  0  0
   23.1984  -20.9278  -14.2692 C   0  0  0  0  0  0  0  0  0  0  0  0
   23.8819  -20.5077  -13.3010 O   0  0  0  0  0  0  0  0  0  0  0  0
   27.6887  -23.1010  -17.6177 O   0  0  0  0  0  0  0  0  0  0  0  0
   21.8043  -21.1989  -14.1094 N   0  0  0  0  0  0  0  0  0  0  0  0
   21.1998  -20.9685  -12.8407 C   0  0  1  0  0  0  0  0  0  0  0  0
   20.5698  -19.5929  -12.7312 C   0  0  0  0  0  0  0  0  0  0  0  0
   18.9651  -19.6389  -13.5242 S   0  0  0  0  0  0  0  0  0  0  0  0
   20.2014  -22.0287  -12.4858 C   0  0  0  0  0  0  0  0  0  0  0  0
   19.5324  -22.6165  -13.3736 O   0  0  0  0  0  0  0  0  0  0  0  0
   19.9501  -22.4318  -11.1468 N   0  0  0  0  0  0  0  0  0  0  0  0
   18.9191  -23.3843  -10.7810 C   0  0  1  0  0  0  0  0  0  0  0  0
   18.9905  -23.7959   -9.3470 C   0  0  0  0  0  0  0  0  0  0  0  0
   18.1048  -24.9623   -9.0101 C   0  0  0  0  0  0  0  0  0  0  0  0
   18.0717  -25.3308   -7.5953 C   0  0  0  0  0  0  0  0  0  0  0  0
   18.6895  -24.8103   -6.6558 O   0  0  0  0  0  0  0  0  0  0  0  0
   17.5650  -22.8919  -11.1609 C   0  0  0  0  0  0  0  0  0  0  0  0
   17.2059  -21.7142  -11.0503 O   0  0  0  0  0  0  0  0  0  0  0  0
   17.2367  -26.4115   -7.2442 O   0  0  0  0  0  0  0  0  0  0  0  0
   16.6719  -23.8248  -11.6652 O   0  0  0  0  0  0  0  0  0  0  0  0
  2  1  1  1
  2  7  1  0
  3  2  1  0
  4  3  1  0
  5  4  1  0
  6  5  2  0
  7 10  1  0
  7  8  2  0
  9  5  1  0
 10 11  1  0
 11 12  1  6
 13 12  1  0
 14 11  1  0
 14 16  1  0
 15 14  2  0
 17 18  1  1
 17 22  1  0
 17 16  1  0
 19 18  1  0
 19 20  1  0
 20 24  1  0
 21 20  2  0
 22 25  1  0
 23 22  2  0
M  END
$$$$
