ECE.pdb
     RDKit          3D

 25 24  0  0  1  0  0  0  0  0999 V2000
   19.0828  -12.0940  -17.9300 N   0  0  0  0  0  0  0  0  0  0  0  0
   18.3800  -11.5210  -16.7606 C   0  0  1  0  0  0  0  0  0  0  0  0
   17.8487  -12.6128  -15.9005 C   0  0  0  0  0  0  0  0  0  0  0  0
   17.2850  -13.7980  -16.5929 C   0  0  0  0  0  0  0  0  0  0  0  0
   16.8092  -14.8154  -15.5901 C   0  0  0  0  0  0  0  0  0  0  0  0
   16.9125  -16.0134  -15.8848 O   0  0  0  0  0  0  0  0  0  0  0  0
   19.4155  -10.7515  -16.0310 C   0  0  0  0  0  0  0  0  0  0  0  0
   19.0698  -10.1986  -14.9559 O   0  0  0  0  0  0  0  0  0  0  0  0
   16.2714  -14.4688  -14.3760 O   0  0  0  0  0  0  0  0  0  0  0  0
   20.7563  -10.6300  -16.5107 N   0  0  0  0  0  0  0  0  0  0  0  0
   21.7001   -9.8966  -15.7363 C   0  0  1  0  0  0  0  0  0  0  0  0
   23.1186  -10.4085  -15.8998 C   0  0  0  0  0  0  0  0  0  0  0  0
   24.1964   -9.4397  -14.8485 S   0  0  0  0  0  0  0  0  0  0  0  0
   21.6420   -8.4248  -16.0142 C   0  0  0  0  0  0  0  0  0  0  0  0
   21.8855   -7.9683  -17.1602 O   0  0  0  0  0  0  0  0  0  0  0  0
   21.3136   -7.4661  -15.0183 N   0  0  0  0  0  0  0  0  0  0  0  0
   21.3591   -6.0340  -15.2444 C   0  0  1  0  0  0  0  0  0  0  0  0
   20.0061   -5.4340  -15.4446 C   0  0  0  0  0  0  0  0  0  0  0  0
   20.0323   -3.9468  -15.6595 C   0  0  0  0  0  0  0  0  0  0  0  0
   18.7235   -3.3213  -15.8450 C   0  0  0  0  0  0  0  0  0  0  0  0
   17.6121   -3.8685  -15.8705 O   0  0  0  0  0  0  0  0  0  0  0  0
   22.1329   -5.3398  -14.1768 C   0  0  0  0  0  0  0  0  0  0  0  0
   22.1067   -5.6677  -12.9852 O   0  0  0  0  0  0  0  0  0  0  0  0
   18.7118   -1.9219  -16.0174 O   0  0  0  0  0  0  0  0  0  0  0  0
   22.9211   -4.2668  -14.5639 O   0  0  0  0  0  0  0  0  0  0  0  0
  2  1  1  6
  2  7  1  0
  3  2  1  0
  4  3  1  0
  5  4  1  0
  6  5  2  0
  7 10  1  0
  7  8  2  0
  9  5  1  0
 10 11  1  0
 11 12  1  6
 13 12  1  0
 14 11  1  0
 14 16  1  0
 15 14  2  0
 17 18  1  1
 17 22  1  0
 17 16  1  0
 19 18  1  0
 19 20  1  0
 20 24  1  0
 21 20  2  0
 22 25  1  0
 23 22  2  0
M  END
$$$$
