ECE.pdb
     RDKit          3D

 25 24  0  0  1  0  0  0  0  0999 V2000
   20.7898  -13.1632  -17.6995 N   0  0  0  0  0  0  0  0  0  0  0  0
   19.6996  -12.3287  -17.1474 C   0  0  1  0  0  0  0  0  0  0  0  0
   18.8769  -13.1278  -16.1994 C   0  0  0  0  0  0  0  0  0  0  0  0
   19.5396  -14.2830  -15.5453 C   0  0  0  0  0  0  0  0  0  0  0  0
   18.6041  -14.9399  -14.5653 C   0  0  0  0  0  0  0  0  0  0  0  0
   17.4669  -14.4666  -14.4416 O   0  0  0  0  0  0  0  0  0  0  0  0
   20.3858  -11.2287  -16.4291 C   0  0  0  0  0  0  0  0  0  0  0  0
   19.6884  -10.5244  -15.6554 O   0  0  0  0  0  0  0  0  0  0  0  0
   18.9605  -16.0309  -13.8129 O   0  0  0  0  0  0  0  0  0  0  0  0
   21.7802  -10.9620  -16.5938 N   0  0  0  0  0  0  0  0  0  0  0  0
   22.3714   -9.9047  -15.8449 C   0  0  1  0  0  0  0  0  0  0  0  0
   23.8742  -10.0545  -15.7026 C   0  0  0  0  0  0  0  0  0  0  0  0
   24.2084  -11.1188  -14.3021 S   0  0  0  0  0  0  0  0  0  0  0  0
   22.0327   -8.5550  -16.4021 C   0  0  0  0  0  0  0  0  0  0  0  0
   22.0253   -8.3456  -17.6419 O   0  0  0  0  0  0  0  0  0  0  0  0
   21.7037   -7.4437  -15.5803 N   0  0  0  0  0  0  0  0  0  0  0  0
   21.3925   -6.1280  -16.1057 C   0  0  1  0  0  0  0  0  0  0  0  0
   20.6856   -5.2598  -15.1171 C   0  0  0  0  0  0  0  0  0  0  0  0
   20.2851   -3.9207  -15.6692 C   0  0  0  0  0  0  0  0  0  0  0  0
   19.5768   -3.0479  -14.7337 C   0  0  0  0  0  0  0  0  0  0  0  0
   19.2821   -3.2743  -13.5516 O   0  0  0  0  0  0  0  0  0  0  0  0
   22.6028   -5.4692  -16.6727 C   0  0  0  0  0  0  0  0  0  0  0  0
   23.6667   -5.3392  -16.0570 O   0  0  0  0  0  0  0  0  0  0  0  0
   19.1739   -1.7896  -15.2263 O   0  0  0  0  0  0  0  0  0  0  0  0
   22.5085   -4.9808  -17.9669 O   0  0  0  0  0  0  0  0  0  0  0  0
  2  1  1  1
  2  7  1  0
  3  2  1  0
  4  3  1  0
  5  4  1  0
  6  5  2  0
  7 10  1  0
  7  8  2  0
  9  5  1  0
 10 11  1  0
 11 12  1  6
 13 12  1  0
 14 11  1  0
 14 16  1  0
 15 14  2  0
 17 18  1  1
 17 22  1  0
 17 16  1  0
 19 18  1  0
 19 20  1  0
 20 24  1  0
 21 20  2  0
 22 25  1  0
 23 22  2  0
M  END
$$$$
