ECE.pdb
     RDKit          3D

 25 24  0  0  1  0  0  0  0  0999 V2000
   22.1492  -12.3041  -18.7709 N   0  0  0  0  0  0  0  0  0  0  0  0
   22.9729  -11.1105  -18.4768 C   0  0  1  0  0  0  0  0  0  0  0  0
   22.9519  -10.1788  -19.6368 C   0  0  0  0  0  0  0  0  0  0  0  0
   21.6203   -9.8152  -20.1810 C   0  0  0  0  0  0  0  0  0  0  0  0
   21.7701   -8.9224  -21.3841 C   0  0  0  0  0  0  0  0  0  0  0  0
   20.7399   -8.5069  -21.9306 O   0  0  0  0  0  0  0  0  0  0  0  0
   22.3271  -10.4799  -17.3011 C   0  0  0  0  0  0  0  0  0  0  0  0
   21.0726  -10.5359  -17.2356 O   0  0  0  0  0  0  0  0  0  0  0  0
   22.9914   -8.5562  -21.8917 O   0  0  0  0  0  0  0  0  0  0  0  0
   23.0788   -9.8305  -16.2737 N   0  0  0  0  0  0  0  0  0  0  0  0
   22.3934   -9.3391  -15.1261 C   0  0  1  0  0  0  0  0  0  0  0  0
   22.9182   -9.9293  -13.8309 C   0  0  0  0  0  0  0  0  0  0  0  0
   21.9331   -9.2939  -12.4775 S   0  0  0  0  0  0  0  0  0  0  0  0
   22.4012   -7.8418  -15.0572 C   0  0  0  0  0  0  0  0  0  0  0  0
   23.4627   -7.1879  -15.2210 O   0  0  0  0  0  0  0  0  0  0  0  0
   21.2304   -7.0769  -14.8067 N   0  0  0  0  0  0  0  0  0  0  0  0
   21.2332   -5.6316  -14.6843 C   0  0  1  0  0  0  0  0  0  0  0  0
   19.9019   -5.0209  -14.9769 C   0  0  0  0  0  0  0  0  0  0  0  0
   19.9154   -3.5181  -14.9774 C   0  0  0  0  0  0  0  0  0  0  0  0
   18.6371   -2.8841  -15.2977 C   0  0  0  0  0  0  0  0  0  0  0  0
   18.4375   -1.7322  -15.7083 O   0  0  0  0  0  0  0  0  0  0  0  0
   21.7759   -5.1990  -13.3657 C   0  0  0  0  0  0  0  0  0  0  0  0
   21.5992   -5.8211  -12.3122 O   0  0  0  0  0  0  0  0  0  0  0  0
   17.4806   -3.6713  -15.1214 O   0  0  0  0  0  0  0  0  0  0  0  0
   22.5189   -4.0287  -13.3413 O   0  0  0  0  0  0  0  0  0  0  0  0
  2  1  1  6
  2  7  1  0
  3  2  1  0
  4  3  1  0
  5  4  1  0
  6  5  2  0
  7 10  1  0
  7  8  2  0
  9  5  1  0
 10 11  1  0
 11 12  1  1
 13 12  1  0
 14 11  1  0
 14 16  1  0
 15 14  2  0
 17 18  1  1
 17 22  1  0
 17 16  1  0
 19 18  1  0
 19 20  1  0
 20 24  1  0
 21 20  2  0
 22 25  1  0
 23 22  2  0
M  END
$$$$
