ECE.pdb
     RDKit          3D

 25 24  0  0  1  0  0  0  0  0999 V2000
   17.6840  -11.4310  -13.1470 N   0  0  0  0  0  0  0  0  0  0  0  0
   17.0045  -10.4240  -13.9920 C   0  0  1  0  0  0  0  0  0  0  0  0
   15.9534  -11.0779  -14.8177 C   0  0  0  0  0  0  0  0  0  0  0  0
   15.0593  -12.0395  -14.1266 C   0  0  0  0  0  0  0  0  0  0  0  0
   15.5815  -13.4438  -14.2766 C   0  0  0  0  0  0  0  0  0  0  0  0
   15.6931  -13.9026  -15.4210 O   0  0  0  0  0  0  0  0  0  0  0  0
   16.3880   -9.4747  -13.0352 C   0  0  0  0  0  0  0  0  0  0  0  0
   15.1725   -9.1988  -13.2016 O   0  0  0  0  0  0  0  0  0  0  0  0
   15.9344  -14.2250  -13.2049 O   0  0  0  0  0  0  0  0  0  0  0  0
   17.1250   -8.8858  -11.9615 N   0  0  0  0  0  0  0  0  0  0  0  0
   16.4908   -7.9021  -11.1502 C   0  0  1  0  0  0  0  0  0  0  0  0
   16.5375   -8.2405   -9.6722 C   0  0  0  0  0  0  0  0  0  0  0  0
   15.8842   -6.8513   -8.7508 S   0  0  0  0  0  0  0  0  0  0  0  0
   17.0412   -6.5283  -11.3879 C   0  0  0  0  0  0  0  0  0  0  0  0
   18.2473   -6.2606  -11.1538 O   0  0  0  0  0  0  0  0  0  0  0  0
   16.2501   -5.4577  -11.8844 N   0  0  0  0  0  0  0  0  0  0  0  0
   16.7561   -4.1107  -12.0675 C   0  0  1  0  0  0  0  0  0  0  0  0
   16.8570   -3.7182  -13.5051 C   0  0  0  0  0  0  0  0  0  0  0  0
   17.4325   -2.3461  -13.7161 C   0  0  0  0  0  0  0  0  0  0  0  0
   17.5516   -1.9288  -15.1127 C   0  0  0  0  0  0  0  0  0  0  0  0
   17.2528   -2.5704  -16.1297 O   0  0  0  0  0  0  0  0  0  0  0  0
   15.9783   -3.1245  -11.2657 C   0  0  0  0  0  0  0  0  0  0  0  0
   14.8516   -3.3464  -10.8084 O   0  0  0  0  0  0  0  0  0  0  0  0
   18.0695   -0.6378  -15.3434 O   0  0  0  0  0  0  0  0  0  0  0  0
   16.5711   -1.8933  -11.0309 O   0  0  0  0  0  0  0  0  0  0  0  0
  2  1  1  1
  2  7  1  0
  3  2  1  0
  4  3  1  0
  5  4  1  0
  6  5  2  0
  7 10  1  0
  7  8  2  0
  9  5  1  0
 10 11  1  0
 11 12  1  1
 13 12  1  0
 14 11  1  0
 14 16  1  0
 15 14  2  0
 17 18  1  6
 17 22  1  0
 17 16  1  0
 19 18  1  0
 19 20  1  0
 20 24  1  0
 21 20  2  0
 22 25  1  0
 23 22  2  0
M  END
$$$$
