EFR.pdb
     RDKit          3D

 32 32  0  0  1  0  0  0  0  0999 V2000
    9.3568  -16.2845   18.9400 N   0  0  0  0  0  0  0  0  0  0  0  0
    8.2969  -16.1335   19.8887 C   0  0  1  0  0  0  0  0  0  0  0  0
    7.6557  -17.4818   20.0941 C   0  0  0  0  0  0  0  0  0  0  0  0
    7.8000  -18.2916   18.8205 C   0  0  0  0  0  0  0  0  0  0  0  0
    7.1266  -19.5956   18.9567 C   0  0  0  0  0  0  0  0  0  0  0  0
    6.3189  -19.9827   18.0763 O   0  0  0  0  0  0  0  0  0  0  0  0
    8.7014  -15.4845   21.1426 C   0  0  0  0  0  0  0  0  0  0  0  0
    9.8037  -15.7697   21.6791 O   0  0  0  0  0  0  0  0  0  0  0  0
    7.3652  -20.4129   20.0422 O   0  0  0  0  0  0  0  0  0  0  0  0
    7.9176  -14.5141   21.8374 N   0  0  0  0  0  0  0  0  0  0  0  0
    8.0709  -14.2197   23.2476 C   0  0  1  0  0  0  0  0  0  0  0  0
    7.0987  -13.1663   23.7011 C   0  0  0  0  0  0  0  0  0  0  0  0
    7.1620  -12.8011   25.1013 C   0  0  0  0  0  0  0  0  0  0  0  0
    8.2039  -12.0731   25.6256 C   0  0  0  0  0  0  0  0  0  0  0  0
    8.2567  -11.7211   26.9714 C   0  0  0  0  0  0  0  0  0  0  0  0
    7.2138  -12.1296   27.7865 C   0  0  0  0  0  0  0  0  0  0  0  0
    6.1527  -12.8614   27.2934 C   0  0  0  0  0  0  0  0  0  0  0  0
    6.1382  -13.1898   25.9540 C   0  0  0  0  0  0  0  0  0  0  0  0
    8.0341  -15.4480   24.0739 C   0  0  0  0  0  0  0  0  0  0  0  0
    7.2432  -16.3942   23.8375 O   0  0  0  0  0  0  0  0  0  0  0  0
   14.5640  -19.5660   23.4718 N   0  0  0  0  0  0  0  0  0  0  0  0
   13.7631  -20.6928   23.7523 C   0  0  0  0  0  0  0  0  0  0  0  0
   14.2847  -21.8381   23.9548 N   0  0  0  0  0  0  0  0  0  0  0  0
   12.3433  -20.5778   23.8163 N   0  0  0  0  0  0  0  0  0  0  0  0
   11.6462  -19.3670   23.5025 C   0  0  0  0  0  0  0  0  0  0  0  0
   10.9240  -18.7908   24.7080 C   0  0  0  0  0  0  0  0  0  0  0  0
   10.2752  -17.4806   24.3548 C   0  0  0  0  0  0  0  0  0  0  0  0
    9.4903  -16.8994   25.5082 C   0  0  2  0  0  0  0  0  0  0  0  0
    8.9046  -15.6318   25.1993 N   0  0  0  0  0  0  0  0  0  0  0  0
   10.3080  -16.8960   26.7245 C   0  0  0  0  0  0  0  0  0  0  0  0
   10.8315  -17.9941   27.1070 O   0  0  0  0  0  0  0  0  0  0  0  0
   10.5588  -15.7925   27.4945 O   0  0  0  0  0  0  0  0  0  0  0  0
  2  1  1  6
  2  7  1  0
  2  3  1  0
  3  4  1  0
  4  5  1  0
  5  9  1  0
  6  5  2  0
  7  8  2  0
  7 10  1  0
 10 11  1  0
 11 12  1  1
 12 13  1  0
 13 18  2  0
 13 14  1  0
 14 15  2  0
 15 16  1  0
 17 16  2  0
 18 17  1  0
 19 29  1  0
 19 11  1  0
 20 19  2  0
 22 21  1  0
 22 24  1  0
 23 22  2  0
 24 25  1  0
 25 26  1  0
 26 27  1  0
 28 27  1  6
 28 29  1  0
 28 30  1  0
 30 32  1  0
 31 30  2  0
M  END
$$$$
