EFR.pdb
     RDKit          3D

 32 32  0  0  1  0  0  0  0  0999 V2000
   10.1486  -18.5318   18.5330 N   0  0  0  0  0  0  0  0  0  0  0  0
   11.1470  -17.6011   18.9613 C   0  0  1  0  0  0  0  0  0  0  0  0
   11.4691  -16.6927   17.8027 C   0  0  0  0  0  0  0  0  0  0  0  0
   11.4445  -17.5045   16.5225 C   0  0  0  0  0  0  0  0  0  0  0  0
   11.7432  -16.6485   15.3605 C   0  0  0  0  0  0  0  0  0  0  0  0
   12.9271  -16.3070   15.1172 O   0  0  0  0  0  0  0  0  0  0  0  0
   10.8035  -16.8758   20.1912 C   0  0  0  0  0  0  0  0  0  0  0  0
   11.6064  -16.0395   20.6814 O   0  0  0  0  0  0  0  0  0  0  0  0
   10.7407  -16.2073   14.5216 O   0  0  0  0  0  0  0  0  0  0  0  0
    9.5825  -17.0442   20.9121 N   0  0  0  0  0  0  0  0  0  0  0  0
    9.2174  -16.2506   22.0679 C   0  0  1  0  0  0  0  0  0  0  0  0
    7.8523  -15.6407   21.9106 C   0  0  0  0  0  0  0  0  0  0  0  0
    7.7640  -14.4941   21.0300 C   0  0  0  0  0  0  0  0  0  0  0  0
    7.3451  -14.5993   19.7247 C   0  0  0  0  0  0  0  0  0  0  0  0
    7.2578  -13.4928   18.8846 C   0  0  0  0  0  0  0  0  0  0  0  0
    7.6100  -12.2582   19.4050 C   0  0  0  0  0  0  0  0  0  0  0  0
    8.0348  -12.1168   20.7104 C   0  0  0  0  0  0  0  0  0  0  0  0
    8.1073  -13.2380   21.5101 C   0  0  0  0  0  0  0  0  0  0  0  0
    9.3807  -17.0079   23.3299 C   0  0  0  0  0  0  0  0  0  0  0  0
    9.1913  -18.2472   23.4000 O   0  0  0  0  0  0  0  0  0  0  0  0
   12.6238  -18.8800   31.5532 N   0  0  0  0  0  0  0  0  0  0  0  0
   12.5712  -18.0002   30.4520 C   0  0  0  0  0  0  0  0  0  0  0  0
   13.3636  -18.1346   29.4626 N   0  0  0  0  0  0  0  0  0  0  0  0
   11.6257  -16.9334   30.4183 N   0  0  0  0  0  0  0  0  0  0  0  0
   11.3317  -16.1921   29.2290 C   0  0  0  0  0  0  0  0  0  0  0  0
   10.7263  -17.0643   28.1430 C   0  0  0  0  0  0  0  0  0  0  0  0
   10.4866  -16.2592   26.8953 C   0  0  0  0  0  0  0  0  0  0  0  0
    9.8833  -17.0877   25.7845 C   0  0  2  0  0  0  0  0  0  0  0  0
    9.7676  -16.3680   24.5542 N   0  0  0  0  0  0  0  0  0  0  0  0
    8.6304  -17.7003   26.2351 C   0  0  0  0  0  0  0  0  0  0  0  0
    8.6858  -18.6087   27.1283 O   0  0  0  0  0  0  0  0  0  0  0  0
    7.3869  -17.3709   25.7674 O   0  0  0  0  0  0  0  0  0  0  0  0
  2  1  1  6
  2  7  1  0
  2  3  1  0
  3  4  1  0
  4  5  1  0
  5  9  1  0
  6  5  2  0
  7  8  2  0
  7 10  1  0
 10 11  1  0
 11 12  1  6
 12 13  1  0
 13 18  2  0
 13 14  1  0
 14 15  2  0
 15 16  1  0
 17 16  2  0
 18 17  1  0
 19 29  1  0
 19 11  1  0
 20 19  2  0
 22 21  1  0
 22 24  1  0
 23 22  2  0
 24 25  1  0
 25 26  1  0
 26 27  1  0
 28 27  1  1
 28 29  1  0
 28 30  1  0
 30 32  1  0
 31 30  2  0
M  END
$$$$
