EFR.pdb
     RDKit          3D

 32 32  0  0  1  0  0  0  0  0999 V2000
    9.9033  -17.1948   19.8978 N   0  0  0  0  0  0  0  0  0  0  0  0
    8.6906  -17.1819   20.6565 C   0  0  1  0  0  0  0  0  0  0  0  0
    8.2002  -18.6015   20.7811 C   0  0  0  0  0  0  0  0  0  0  0  0
    7.6466  -19.0476   19.4420 C   0  0  0  0  0  0  0  0  0  0  0  0
    8.7029  -19.6750   18.6279 C   0  0  0  0  0  0  0  0  0  0  0  0
    9.1233  -19.1029   17.5918 O   0  0  0  0  0  0  0  0  0  0  0  0
    8.7968  -16.4877   21.9463 C   0  0  0  0  0  0  0  0  0  0  0  0
    9.8189  -16.6360   22.6658 O   0  0  0  0  0  0  0  0  0  0  0  0
    9.2491  -20.8917   18.9807 O   0  0  0  0  0  0  0  0  0  0  0  0
    7.7962  -15.6196   22.4793 N   0  0  0  0  0  0  0  0  0  0  0  0
    7.8779  -15.0121   23.7920 C   0  0  1  0  0  0  0  0  0  0  0  0
    6.9691  -13.8200   23.9068 C   0  0  0  0  0  0  0  0  0  0  0  0
    6.9436  -13.1596   25.1957 C   0  0  0  0  0  0  0  0  0  0  0  0
    5.7698  -12.8100   25.8204 C   0  0  0  0  0  0  0  0  0  0  0  0
    5.7519  -12.1797   27.0615 C   0  0  0  0  0  0  0  0  0  0  0  0
    6.9689  -11.9076   27.6646 C   0  0  0  0  0  0  0  0  0  0  0  0
    8.1656  -12.2447   27.0657 C   0  0  0  0  0  0  0  0  0  0  0  0
    8.1401  -12.8681   25.8358 C   0  0  0  0  0  0  0  0  0  0  0  0
    7.6825  -16.0061   24.8721 C   0  0  0  0  0  0  0  0  0  0  0  0
    6.5430  -16.3454   25.2758 O   0  0  0  0  0  0  0  0  0  0  0  0
    7.6829  -21.2116   22.9208 N   0  0  0  0  0  0  0  0  0  0  0  0
    6.4566  -21.5734   23.5166 C   0  0  0  0  0  0  0  0  0  0  0  0
    5.6957  -22.4449   22.9815 N   0  0  0  0  0  0  0  0  0  0  0  0
    6.0359  -20.9701   24.7382 N   0  0  0  0  0  0  0  0  0  0  0  0
    6.9535  -20.5424   25.7508 C   0  0  0  0  0  0  0  0  0  0  0  0
    7.8057  -19.3703   25.2961 C   0  0  0  0  0  0  0  0  0  0  0  0
    8.7304  -18.9341   26.3993 C   0  0  0  0  0  0  0  0  0  0  0  0
    8.6188  -17.4553   26.6907 C   0  0  2  0  0  0  0  0  0  0  0  0
    8.7889  -16.6446   25.5251 N   0  0  0  0  0  0  0  0  0  0  0  0
    9.5024  -17.0917   27.8021 C   0  0  0  0  0  0  0  0  0  0  0  0
    9.3548  -17.6933   28.9167 O   0  0  0  0  0  0  0  0  0  0  0  0
   10.4881  -16.1441   27.7389 O   0  0  0  0  0  0  0  0  0  0  0  0
  2  1  1  1
  2  7  1  0
  2  3  1  0
  3  4  1  0
  4  5  1  0
  5  9  1  0
  6  5  2  0
  7  8  2  0
  7 10  1  0
 10 11  1  0
 11 12  1  6
 12 13  1  0
 13 18  2  0
 13 14  1  0
 14 15  2  0
 15 16  1  0
 17 16  2  0
 18 17  1  0
 19 29  1  0
 19 11  1  0
 20 19  2  0
 22 21  1  0
 22 24  1  0
 23 22  2  0
 24 25  1  0
 25 26  1  0
 26 27  1  0
 28 27  1  6
 28 29  1  0
 28 30  1  0
 30 32  1  0
 31 30  2  0
M  END
$$$$
