EFR.pdb
     RDKit          3D

 32 32  0  0  1  0  0  0  0  0999 V2000
    8.4632  -17.2077   19.0644 N   0  0  0  0  0  0  0  0  0  0  0  0
    8.0437  -17.4795   20.4048 C   0  0  1  0  0  0  0  0  0  0  0  0
    8.5431  -18.8501   20.7836 C   0  0  0  0  0  0  0  0  0  0  0  0
    7.9380  -19.8700   19.8389 C   0  0  0  0  0  0  0  0  0  0  0  0
    8.3876  -21.2296   20.1875 C   0  0  0  0  0  0  0  0  0  0  0  0
    9.6136  -21.5015   20.2096 O   0  0  0  0  0  0  0  0  0  0  0  0
    8.4126  -16.4380   21.3722 C   0  0  0  0  0  0  0  0  0  0  0  0
    9.5657  -15.9338   21.3547 O   0  0  0  0  0  0  0  0  0  0  0  0
    7.4827  -22.2245   20.4947 O   0  0  0  0  0  0  0  0  0  0  0  0
    7.5372  -15.9240   22.3763 N   0  0  0  0  0  0  0  0  0  0  0  0
    7.9633  -15.0218   23.4267 C   0  0  1  0  0  0  0  0  0  0  0  0
    6.8127  -14.2180   23.9654 C   0  0  0  0  0  0  0  0  0  0  0  0
    7.1097  -13.3538   25.0893 C   0  0  0  0  0  0  0  0  0  0  0  0
    6.5552  -13.5466   26.3325 C   0  0  0  0  0  0  0  0  0  0  0  0
    6.8484  -12.7153   27.4099 C   0  0  0  0  0  0  0  0  0  0  0  0
    7.7297  -11.6682   27.1959 C   0  0  0  0  0  0  0  0  0  0  0  0
    8.3042  -11.4458   25.9611 C   0  0  0  0  0  0  0  0  0  0  0  0
    7.9876  -12.2923   24.9194 C   0  0  0  0  0  0  0  0  0  0  0  0
    8.7322  -15.7252   24.4788 C   0  0  0  0  0  0  0  0  0  0  0  0
    8.2975  -16.7515   25.0569 O   0  0  0  0  0  0  0  0  0  0  0  0
   15.8413  -16.8274   23.0097 N   0  0  0  0  0  0  0  0  0  0  0  0
   16.3452  -16.5885   24.3053 C   0  0  0  0  0  0  0  0  0  0  0  0
   17.5183  -16.1218   24.4806 N   0  0  0  0  0  0  0  0  0  0  0  0
   15.5507  -16.8647   25.4567 N   0  0  0  0  0  0  0  0  0  0  0  0
   14.2600  -17.4802   25.3815 C   0  0  0  0  0  0  0  0  0  0  0  0
   13.2322  -16.7669   26.2427 C   0  0  0  0  0  0  0  0  0  0  0  0
   12.3460  -15.8986   25.3923 C   0  0  0  0  0  0  0  0  0  0  0  0
   10.8815  -16.0782   25.7197 C   0  0  2  0  0  0  0  0  0  0  0  0
   10.0266  -15.2744   24.9023 N   0  0  0  0  0  0  0  0  0  0  0  0
   10.6612  -15.9072   27.1585 C   0  0  0  0  0  0  0  0  0  0  0  0
   10.3667  -14.7452   27.5936 O   0  0  0  0  0  0  0  0  0  0  0  0
   10.7474  -16.9093   28.0868 O   0  0  0  0  0  0  0  0  0  0  0  0
  2  1  1  6
  2  7  1  0
  2  3  1  0
  3  4  1  0
  4  5  1  0
  5  9  1  0
  6  5  2  0
  7  8  2  0
  7 10  1  0
 10 11  1  0
 11 12  1  1
 12 13  1  0
 13 18  2  0
 13 14  1  0
 14 15  2  0
 15 16  1  0
 17 16  2  0
 18 17  1  0
 19 29  1  0
 19 11  1  0
 20 19  2  0
 22 21  1  0
 22 24  1  0
 23 22  2  0
 24 25  1  0
 25 26  1  0
 26 27  1  0
 28 27  1  1
 28 29  1  0
 28 30  1  0
 30 32  1  0
 31 30  2  0
M  END
$$$$
