EFR.pdb
     RDKit          3D

 32 32  0  0  1  0  0  0  0  0999 V2000
    7.1496  -15.2086   18.8156 N   0  0  0  0  0  0  0  0  0  0  0  0
    8.3654  -14.5151   19.1109 C   0  0  1  0  0  0  0  0  0  0  0  0
    8.4037  -13.2600   18.2774 C   0  0  0  0  0  0  0  0  0  0  0  0
    7.5176  -13.4521   17.0622 C   0  0  0  0  0  0  0  0  0  0  0  0
    8.1498  -14.3728   16.1005 C   0  0  0  0  0  0  0  0  0  0  0  0
    8.3411  -15.5746   16.4111 O   0  0  0  0  0  0  0  0  0  0  0  0
    8.5842  -14.2698   20.5422 C   0  0  0  0  0  0  0  0  0  0  0  0
    9.6713  -13.7789   20.9441 O   0  0  0  0  0  0  0  0  0  0  0  0
    8.5417  -13.9413   14.8501 O   0  0  0  0  0  0  0  0  0  0  0  0
    7.6277  -14.5523   21.5640 N   0  0  0  0  0  0  0  0  0  0  0  0
    7.8603  -14.3019   22.9719 C   0  0  1  0  0  0  0  0  0  0  0  0
    6.6618  -13.6733   23.6268 C   0  0  0  0  0  0  0  0  0  0  0  0
    6.8278  -13.2717   25.0085 C   0  0  0  0  0  0  0  0  0  0  0  0
    7.4704  -12.1096   25.3649 C   0  0  0  0  0  0  0  0  0  0  0  0
    7.6227  -11.7267   26.6945 C   0  0  0  0  0  0  0  0  0  0  0  0
    7.1010  -12.5606   27.6699 C   0  0  0  0  0  0  0  0  0  0  0  0
    6.4504  -13.7341   27.3475 C   0  0  0  0  0  0  0  0  0  0  0  0
    6.3205  -14.0776   26.0181 C   0  0  0  0  0  0  0  0  0  0  0  0
    8.3461  -15.5120   23.6737 C   0  0  0  0  0  0  0  0  0  0  0  0
    7.7481  -16.6140   23.6067 O   0  0  0  0  0  0  0  0  0  0  0  0
   12.7714  -21.1632   23.7973 N   0  0  0  0  0  0  0  0  0  0  0  0
   13.2729  -20.8281   25.0724 C   0  0  0  0  0  0  0  0  0  0  0  0
   13.0612  -21.5775   26.0816 N   0  0  0  0  0  0  0  0  0  0  0  0
   14.0326  -19.6370   25.2649 N   0  0  0  0  0  0  0  0  0  0  0  0
   13.5282  -18.3338   24.9524 C   0  0  0  0  0  0  0  0  0  0  0  0
   12.0368  -18.2167   25.2150 C   0  0  0  0  0  0  0  0  0  0  0  0
   11.5512  -16.8335   24.8783 C   0  0  0  0  0  0  0  0  0  0  0  0
   10.0605  -16.6840   25.0777 C   0  0  2  0  0  0  0  0  0  0  0  0
    9.5354  -15.4978   24.4759 N   0  0  0  0  0  0  0  0  0  0  0  0
    9.7238  -16.8301   26.4966 C   0  0  0  0  0  0  0  0  0  0  0  0
    8.9495  -17.7828   26.8417 O   0  0  0  0  0  0  0  0  0  0  0  0
   10.1804  -16.0142   27.4962 O   0  0  0  0  0  0  0  0  0  0  0  0
  2  1  1  1
  2  7  1  0
  2  3  1  0
  3  4  1  0
  4  5  1  0
  5  9  1  0
  6  5  2  0
  7  8  2  0
  7 10  1  0
 10 11  1  0
 11 12  1  1
 12 13  1  0
 13 18  2  0
 13 14  1  0
 14 15  2  0
 15 16  1  0
 17 16  2  0
 18 17  1  0
 19 29  1  0
 19 11  1  0
 20 19  2  0
 22 21  1  0
 22 24  1  0
 23 22  2  0
 24 25  1  0
 25 26  1  0
 26 27  1  0
 28 27  1  1
 28 29  1  0
 28 30  1  0
 30 32  1  0
 31 30  2  0
M  END
$$$$
