EFR.pdb
     RDKit          3D

 32 32  0  0  1  0  0  0  0  0999 V2000
    6.8831  -17.4729   19.4469 N   0  0  0  0  0  0  0  0  0  0  0  0
    8.2142  -16.9490   19.4602 C   0  0  1  0  0  0  0  0  0  0  0  0
    8.4591  -16.2573   18.1438 C   0  0  0  0  0  0  0  0  0  0  0  0
    8.1783  -17.2333   17.0182 C   0  0  0  0  0  0  0  0  0  0  0  0
    8.3607  -16.5809   15.7093 C   0  0  0  0  0  0  0  0  0  0  0  0
    7.7234  -15.5347   15.4324 O   0  0  0  0  0  0  0  0  0  0  0  0
    8.5165  -16.1071   20.6249 C   0  0  0  0  0  0  0  0  0  0  0  0
    9.6382  -15.5454   20.7294 O   0  0  0  0  0  0  0  0  0  0  0  0
    9.2265  -17.0979   14.7677 O   0  0  0  0  0  0  0  0  0  0  0  0
    7.6076  -15.8587   21.6978 N   0  0  0  0  0  0  0  0  0  0  0  0
    7.9567  -15.1096   22.8877 C   0  0  1  0  0  0  0  0  0  0  0  0
    6.7606  -14.4101   23.4711 C   0  0  0  0  0  0  0  0  0  0  0  0
    6.9890  -13.6708   24.6955 C   0  0  0  0  0  0  0  0  0  0  0  0
    7.5180  -12.4017   24.7012 C   0  0  0  0  0  0  0  0  0  0  0  0
    7.7307  -11.6945   25.8811 C   0  0  0  0  0  0  0  0  0  0  0  0
    7.3902  -12.3116   27.0736 C   0  0  0  0  0  0  0  0  0  0  0  0
    6.8573  -13.5843   27.1044 C   0  0  0  0  0  0  0  0  0  0  0  0
    6.6622  -14.2512   25.9131 C   0  0  0  0  0  0  0  0  0  0  0  0
    8.6862  -15.9440   23.8697 C   0  0  0  0  0  0  0  0  0  0  0  0
    8.2022  -17.0001   24.3461 O   0  0  0  0  0  0  0  0  0  0  0  0
   16.3969  -17.7418   23.6090 N   0  0  0  0  0  0  0  0  0  0  0  0
   15.8664  -19.0226   23.8694 C   0  0  0  0  0  0  0  0  0  0  0  0
   16.6279  -20.0345   24.0140 N   0  0  0  0  0  0  0  0  0  0  0  0
   14.4581  -19.2178   23.9776 N   0  0  0  0  0  0  0  0  0  0  0  0
   13.5093  -18.1637   23.7800 C   0  0  0  0  0  0  0  0  0  0  0  0
   13.1952  -17.4242   25.0689 C   0  0  0  0  0  0  0  0  0  0  0  0
   12.3194  -16.2332   24.7912 C   0  0  0  0  0  0  0  0  0  0  0  0
   10.8523  -16.5429   24.9804 C   0  0  2  0  0  0  0  0  0  0  0  0
    9.9966  -15.5944   24.3376 N   0  0  0  0  0  0  0  0  0  0  0  0
   10.5576  -16.7418   26.4022 C   0  0  0  0  0  0  0  0  0  0  0  0
   11.2090  -17.6349   27.0380 O   0  0  0  0  0  0  0  0  0  0  0  0
    9.6255  -16.0354   27.1133 O   0  0  0  0  0  0  0  0  0  0  0  0
  2  1  1  1
  2  7  1  0
  2  3  1  0
  3  4  1  0
  4  5  1  0
  5  9  1  0
  6  5  2  0
  7  8  2  0
  7 10  1  0
 10 11  1  0
 11 12  1  1
 12 13  1  0
 13 18  2  0
 13 14  1  0
 14 15  2  0
 15 16  1  0
 17 16  2  0
 18 17  1  0
 19 29  1  0
 19 11  1  0
 20 19  2  0
 22 21  1  0
 22 24  1  0
 23 22  2  0
 24 25  1  0
 25 26  1  0
 26 27  1  0
 28 27  1  1
 28 29  1  0
 28 30  1  0
 30 32  1  0
 31 30  2  0
M  END
$$$$
