EFR.pdb
     RDKit          3D

 32 32  0  0  1  0  0  0  0  0999 V2000
    8.8415  -18.4258   18.8129 N   0  0  0  0  0  0  0  0  0  0  0  0
   10.1334  -18.0278   19.2810 C   0  0  1  0  0  0  0  0  0  0  0  0
   10.7627  -17.1494   18.2303 C   0  0  0  0  0  0  0  0  0  0  0  0
    9.9956  -17.3119   16.9327 C   0  0  0  0  0  0  0  0  0  0  0  0
   10.6053  -16.4989   15.8653 C   0  0  0  0  0  0  0  0  0  0  0  0
   11.8551  -16.4202   15.7691 O   0  0  0  0  0  0  0  0  0  0  0  0
   10.1268  -17.4214   20.6185 C   0  0  0  0  0  0  0  0  0  0  0  0
   11.1880  -16.9575   21.1114 O   0  0  0  0  0  0  0  0  0  0  0  0
    9.8264  -15.8130   14.9564 O   0  0  0  0  0  0  0  0  0  0  0  0
    8.9688  -17.3069   21.4460 N   0  0  0  0  0  0  0  0  0  0  0  0
    8.9655  -16.6428   22.7336 C   0  0  1  0  0  0  0  0  0  0  0  0
    7.7952  -15.7091   22.8708 C   0  0  0  0  0  0  0  0  0  0  0  0
    7.7630  -14.5884   21.9538 C   0  0  0  0  0  0  0  0  0  0  0  0
    7.2031  -14.6783   20.7013 C   0  0  0  0  0  0  0  0  0  0  0  0
    7.1710  -13.5962   19.8262 C   0  0  0  0  0  0  0  0  0  0  0  0
    7.7275  -12.4025   20.2555 C   0  0  0  0  0  0  0  0  0  0  0  0
    8.2977  -12.2773   21.5060 C   0  0  0  0  0  0  0  0  0  0  0  0
    8.3093  -13.3734   22.3430 C   0  0  0  0  0  0  0  0  0  0  0  0
    9.0816  -17.6074   23.8512 C   0  0  0  0  0  0  0  0  0  0  0  0
    8.2018  -18.4713   24.0882 O   0  0  0  0  0  0  0  0  0  0  0  0
   12.6084  -19.0296   30.8079 N   0  0  0  0  0  0  0  0  0  0  0  0
   13.0893  -20.3113   30.4679 C   0  0  0  0  0  0  0  0  0  0  0  0
   13.3152  -21.1895   31.3638 N   0  0  0  0  0  0  0  0  0  0  0  0
   13.3361  -20.6578   29.1070 N   0  0  0  0  0  0  0  0  0  0  0  0
   13.2065  -19.7225   28.0305 C   0  0  0  0  0  0  0  0  0  0  0  0
   11.8146  -19.7348   27.4229 C   0  0  0  0  0  0  0  0  0  0  0  0
   11.7290  -18.7536   26.2861 C   0  0  0  0  0  0  0  0  0  0  0  0
   10.3042  -18.5082   25.8457 C   0  0  2  0  0  0  0  0  0  0  0  0
   10.2123  -17.6131   24.7342 N   0  0  0  0  0  0  0  0  0  0  0  0
    9.4812  -18.1172   26.9936 C   0  0  0  0  0  0  0  0  0  0  0  0
    8.7171  -18.9926   27.5190 O   0  0  0  0  0  0  0  0  0  0  0  0
    9.4665  -16.8692   27.5557 O   0  0  0  0  0  0  0  0  0  0  0  0
  2  1  1  6
  2  7  1  0
  2  3  1  0
  3  4  1  0
  4  5  1  0
  5  9  1  0
  6  5  2  0
  7  8  2  0
  7 10  1  0
 10 11  1  0
 11 12  1  1
 12 13  1  0
 13 18  2  0
 13 14  1  0
 14 15  2  0
 15 16  1  0
 17 16  2  0
 18 17  1  0
 19 29  1  0
 19 11  1  0
 20 19  2  0
 22 21  1  0
 22 24  1  0
 23 22  2  0
 24 25  1  0
 25 26  1  0
 26 27  1  0
 28 27  1  1
 28 29  1  0
 28 30  1  0
 30 32  1  0
 31 30  2  0
M  END
$$$$
