EFR.pdb
     RDKit          3D

 32 32  0  0  1  0  0  0  0  0999 V2000
    8.9118  -18.2150   20.6193 N   0  0  0  0  0  0  0  0  0  0  0  0
   10.1384  -17.5682   20.9709 C   0  0  1  0  0  0  0  0  0  0  0  0
   10.7843  -17.0675   19.7046 C   0  0  0  0  0  0  0  0  0  0  0  0
   10.6237  -18.1190   18.6243 C   0  0  0  0  0  0  0  0  0  0  0  0
   11.2187  -17.6558   17.3580 C   0  0  0  0  0  0  0  0  0  0  0  0
   12.4658  -17.6598   17.2091 O   0  0  0  0  0  0  0  0  0  0  0  0
    9.9963  -16.5310   22.0010 C   0  0  0  0  0  0  0  0  0  0  0  0
   11.0069  -15.9083   22.4196 O   0  0  0  0  0  0  0  0  0  0  0  0
   10.4288  -17.2120   16.3176 O   0  0  0  0  0  0  0  0  0  0  0  0
    8.7554  -16.1501   22.5957 N   0  0  0  0  0  0  0  0  0  0  0  0
    8.6437  -15.1843   23.6698 C   0  0  1  0  0  0  0  0  0  0  0  0
    7.3442  -14.4311   23.6029 C   0  0  0  0  0  0  0  0  0  0  0  0
    7.1017  -13.4824   24.6701 C   0  0  0  0  0  0  0  0  0  0  0  0
    6.2313  -13.7422   25.7021 C   0  0  0  0  0  0  0  0  0  0  0  0
    6.0060  -12.8281   26.7275 C   0  0  0  0  0  0  0  0  0  0  0  0
    6.6933  -11.6262   26.6829 C   0  0  0  0  0  0  0  0  0  0  0  0
    7.5741  -11.3328   25.6619 C   0  0  0  0  0  0  0  0  0  0  0  0
    7.7691  -12.2655   24.6649 C   0  0  0  0  0  0  0  0  0  0  0  0
    8.8988  -15.7994   24.9925 C   0  0  0  0  0  0  0  0  0  0  0  0
    8.9730  -15.1212   26.0465 O   0  0  0  0  0  0  0  0  0  0  0  0
    5.5521  -22.2434   26.5175 N   0  0  0  0  0  0  0  0  0  0  0  0
    5.7605  -22.2025   25.1230 C   0  0  0  0  0  0  0  0  0  0  0  0
    4.8396  -22.5402   24.3088 N   0  0  0  0  0  0  0  0  0  0  0  0
    7.0126  -21.7804   24.5871 N   0  0  0  0  0  0  0  0  0  0  0  0
    8.0840  -21.2949   25.4036 C   0  0  0  0  0  0  0  0  0  0  0  0
    8.0902  -19.7793   25.5020 C   0  0  0  0  0  0  0  0  0  0  0  0
    9.2002  -19.3161   26.4052 C   0  0  0  0  0  0  0  0  0  0  0  0
    9.3352  -17.8109   26.4233 C   0  0  2  0  0  0  0  0  0  0  0  0
    9.0767  -17.2143   25.1497 N   0  0  0  0  0  0  0  0  0  0  0  0
   10.6222  -17.4265   27.0098 C   0  0  0  0  0  0  0  0  0  0  0  0
   11.3898  -16.6598   26.3396 O   0  0  0  0  0  0  0  0  0  0  0  0
   11.0734  -17.8302   28.2374 O   0  0  0  0  0  0  0  0  0  0  0  0
  2  1  1  6
  2  7  1  0
  2  3  1  0
  3  4  1  0
  4  5  1  0
  5  9  1  0
  6  5  2  0
  7  8  2  0
  7 10  1  0
 10 11  1  0
 11 12  1  1
 12 13  1  0
 13 18  2  0
 13 14  1  0
 14 15  2  0
 15 16  1  0
 17 16  2  0
 18 17  1  0
 19 29  1  0
 19 11  1  0
 20 19  2  0
 22 21  1  0
 22 24  1  0
 23 22  2  0
 24 25  1  0
 25 26  1  0
 26 27  1  0
 28 27  1  6
 28 29  1  0
 28 30  1  0
 30 32  1  0
 31 30  2  0
M  END
$$$$
