EFR.pdb
     RDKit          3D

 32 32  0  0  1  0  0  0  0  0999 V2000
    9.8473  -16.7229   19.2382 N   0  0  0  0  0  0  0  0  0  0  0  0
    8.8258  -16.8081   20.2360 C   0  0  1  0  0  0  0  0  0  0  0  0
    8.6445  -18.2595   20.5989 C   0  0  0  0  0  0  0  0  0  0  0  0
    8.0250  -18.9851   19.4207 C   0  0  0  0  0  0  0  0  0  0  0  0
    7.7793  -20.3995   19.7544 C   0  0  0  0  0  0  0  0  0  0  0  0
    6.6490  -20.7632   20.1638 O   0  0  0  0  0  0  0  0  0  0  0  0
    9.0496  -15.9408   21.3999 C   0  0  0  0  0  0  0  0  0  0  0  0
   10.2068  -15.8003   21.8748 O   0  0  0  0  0  0  0  0  0  0  0  0
    8.7738  -21.3470   19.6261 O   0  0  0  0  0  0  0  0  0  0  0  0
    8.0223  -15.2098   22.0700 N   0  0  0  0  0  0  0  0  0  0  0  0
    8.2107  -14.5459   23.3438 C   0  0  1  0  0  0  0  0  0  0  0  0
    7.1655  -13.4906   23.5769 C   0  0  0  0  0  0  0  0  0  0  0  0
    7.2099  -12.8223   24.8612 C   0  0  0  0  0  0  0  0  0  0  0  0
    8.1468  -11.8609   25.1584 C   0  0  0  0  0  0  0  0  0  0  0  0
    8.1813  -11.2187   26.3930 C   0  0  0  0  0  0  0  0  0  0  0  0
    7.2305  -11.5781   27.3340 C   0  0  0  0  0  0  0  0  0  0  0  0
    6.2760  -12.5389   27.0691 C   0  0  0  0  0  0  0  0  0  0  0  0
    6.2759  -13.1516   25.8335 C   0  0  0  0  0  0  0  0  0  0  0  0
    8.3265  -15.5144   24.4580 C   0  0  0  0  0  0  0  0  0  0  0  0
    7.4127  -16.3282   24.7394 O   0  0  0  0  0  0  0  0  0  0  0  0
   14.2523  -17.8573   22.5704 N   0  0  0  0  0  0  0  0  0  0  0  0
   13.3300  -18.8679   22.2272 C   0  0  0  0  0  0  0  0  0  0  0  0
   13.3021  -19.3636   21.0532 N   0  0  0  0  0  0  0  0  0  0  0  0
   12.4015  -19.3622   23.1899 N   0  0  0  0  0  0  0  0  0  0  0  0
   12.2799  -18.8127   24.5066 C   0  0  0  0  0  0  0  0  0  0  0  0
   10.9735  -18.0620   24.6976 C   0  0  0  0  0  0  0  0  0  0  0  0
   10.9345  -17.4123   26.0536 C   0  0  0  0  0  0  0  0  0  0  0  0
    9.6740  -16.6063   26.2679 C   0  0  2  0  0  0  0  0  0  0  0  0
    9.4958  -15.5817   25.2865 N   0  0  0  0  0  0  0  0  0  0  0  0
    9.6128  -16.1228   27.6502 C   0  0  0  0  0  0  0  0  0  0  0  0
    9.9016  -14.9021   27.8795 O   0  0  0  0  0  0  0  0  0  0  0  0
    9.2655  -16.8875   28.7309 O   0  0  0  0  0  0  0  0  0  0  0  0
  2  1  1  6
  2  7  1  0
  2  3  1  0
  3  4  1  0
  4  5  1  0
  5  9  1  0
  6  5  2  0
  7  8  2  0
  7 10  1  0
 10 11  1  0
 11 12  1  1
 12 13  1  0
 13 18  2  0
 13 14  1  0
 14 15  2  0
 15 16  1  0
 17 16  2  0
 18 17  1  0
 19 29  1  0
 19 11  1  0
 20 19  2  0
 22 21  1  0
 22 24  1  0
 23 22  2  0
 24 25  1  0
 25 26  1  0
 26 27  1  0
 28 27  1  6
 28 29  1  0
 28 30  1  0
 30 32  1  0
 31 30  2  0
M  END
$$$$
