EFR.pdb
     RDKit          3D

 32 32  0  0  1  0  0  0  0  0999 V2000
    7.8264  -17.1168   19.1968 N   0  0  0  0  0  0  0  0  0  0  0  0
    9.1647  -16.7681   19.5624 C   0  0  1  0  0  0  0  0  0  0  0  0
    9.8501  -16.2001   18.3463 C   0  0  0  0  0  0  0  0  0  0  0  0
    9.3050  -16.8888   17.1106 C   0  0  0  0  0  0  0  0  0  0  0  0
    9.9916  -16.4019   15.9008 C   0  0  0  0  0  0  0  0  0  0  0  0
    9.3238  -16.0079   14.9127 O   0  0  0  0  0  0  0  0  0  0  0  0
    9.2575  -15.8983   20.7421 C   0  0  0  0  0  0  0  0  0  0  0  0
   10.3774  -15.4821   21.1384 O   0  0  0  0  0  0  0  0  0  0  0  0
   11.3687  -16.3673   15.8259 O   0  0  0  0  0  0  0  0  0  0  0  0
    8.1373  -15.4637   21.5134 N   0  0  0  0  0  0  0  0  0  0  0  0
    8.2541  -14.8300   22.8109 C   0  0  1  0  0  0  0  0  0  0  0  0
    7.0782  -13.9386   23.0986 C   0  0  0  0  0  0  0  0  0  0  0  0
    7.0601  -13.3082   24.4025 C   0  0  0  0  0  0  0  0  0  0  0  0
    7.8078  -12.1908   24.6902 C   0  0  0  0  0  0  0  0  0  0  0  0
    7.7825  -11.5867   25.9440 C   0  0  0  0  0  0  0  0  0  0  0  0
    6.9699  -12.1490   26.9148 C   0  0  0  0  0  0  0  0  0  0  0  0
    6.2065  -13.2701   26.6602 C   0  0  0  0  0  0  0  0  0  0  0  0
    6.2599  -13.8385   25.4049 C   0  0  0  0  0  0  0  0  0  0  0  0
    8.5202  -15.8159   23.8834 C   0  0  0  0  0  0  0  0  0  0  0  0
    7.7748  -16.8054   24.0875 O   0  0  0  0  0  0  0  0  0  0  0  0
   12.0138  -21.5201   25.8928 N   0  0  0  0  0  0  0  0  0  0  0  0
   12.8876  -21.5154   24.7855 C   0  0  0  0  0  0  0  0  0  0  0  0
   13.6325  -22.5176   24.5295 N   0  0  0  0  0  0  0  0  0  0  0  0
   12.9595  -20.3837   23.9210 N   0  0  0  0  0  0  0  0  0  0  0  0
   12.8855  -19.0353   24.3972 C   0  0  0  0  0  0  0  0  0  0  0  0
   11.4820  -18.6577   24.8380 C   0  0  0  0  0  0  0  0  0  0  0  0
   11.4564  -17.2463   25.3572 C   0  0  0  0  0  0  0  0  0  0  0  0
   10.0514  -16.7601   25.6293 C   0  0  2  0  0  0  0  0  0  0  0  0
    9.6518  -15.6992   24.7576 N   0  0  0  0  0  0  0  0  0  0  0  0
    9.8906  -16.4524   27.0531 C   0  0  0  0  0  0  0  0  0  0  0  0
   10.2078  -17.3451   27.9067 O   0  0  0  0  0  0  0  0  0  0  0  0
    9.4202  -15.2660   27.5479 O   0  0  0  0  0  0  0  0  0  0  0  0
  2  1  1  6
  2  7  1  0
  2  3  1  0
  3  4  1  0
  4  5  1  0
  5  9  1  0
  6  5  2  0
  7  8  2  0
  7 10  1  0
 10 11  1  0
 11 12  1  1
 12 13  1  0
 13 18  2  0
 13 14  1  0
 14 15  2  0
 15 16  1  0
 17 16  2  0
 18 17  1  0
 19 29  1  0
 19 11  1  0
 20 19  2  0
 22 21  1  0
 22 24  1  0
 23 22  2  0
 24 25  1  0
 25 26  1  0
 26 27  1  0
 28 27  1  1
 28 29  1  0
 28 30  1  0
 30 32  1  0
 31 30  2  0
M  END
$$$$
