EFR.pdb
     RDKit          3D

 32 32  0  0  1  0  0  0  0  0999 V2000
    8.7330  -17.3725   19.9993 N   0  0  0  0  0  0  0  0  0  0  0  0
    9.9774  -17.1656   20.6739 C   0  0  1  0  0  0  0  0  0  0  0  0
   11.0236  -16.8408   19.6389 C   0  0  0  0  0  0  0  0  0  0  0  0
   10.5858  -17.4119   18.3044 C   0  0  0  0  0  0  0  0  0  0  0  0
   11.6114  -17.1670   17.2747 C   0  0  0  0  0  0  0  0  0  0  0  0
   12.6512  -16.5236   17.5615 O   0  0  0  0  0  0  0  0  0  0  0  0
    9.9133  -16.1839   21.7643 C   0  0  0  0  0  0  0  0  0  0  0  0
   10.9701  -15.7574   22.2987 O   0  0  0  0  0  0  0  0  0  0  0  0
   11.4556  -17.6338   15.9858 O   0  0  0  0  0  0  0  0  0  0  0  0
    8.7015  -15.6465   22.2950 N   0  0  0  0  0  0  0  0  0  0  0  0
    8.6231  -14.9367   23.5555 C   0  0  1  0  0  0  0  0  0  0  0  0
    7.3672  -14.1158   23.6504 C   0  0  0  0  0  0  0  0  0  0  0  0
    7.1694  -13.3944   24.8907 C   0  0  0  0  0  0  0  0  0  0  0  0
    6.3121  -13.8363   25.8705 C   0  0  0  0  0  0  0  0  0  0  0  0
    6.1299  -13.1409   27.0625 C   0  0  0  0  0  0  0  0  0  0  0  0
    6.8471  -11.9695   27.2422 C   0  0  0  0  0  0  0  0  0  0  0  0
    7.7159  -11.4971   26.2797 C   0  0  0  0  0  0  0  0  0  0  0  0
    7.8680  -12.2157   25.1124 C   0  0  0  0  0  0  0  0  0  0  0  0
    8.8220  -15.8418   24.7106 C   0  0  0  0  0  0  0  0  0  0  0  0
    8.0610  -16.8130   24.9429 O   0  0  0  0  0  0  0  0  0  0  0  0
   11.2421  -21.5411   25.8304 N   0  0  0  0  0  0  0  0  0  0  0  0
   11.9375  -21.3538   24.6176 C   0  0  0  0  0  0  0  0  0  0  0  0
   11.9255  -22.2452   23.7065 N   0  0  0  0  0  0  0  0  0  0  0  0
   12.6748  -20.1567   24.3797 N   0  0  0  0  0  0  0  0  0  0  0  0
   12.7344  -19.0799   25.3217 C   0  0  0  0  0  0  0  0  0  0  0  0
   11.3584  -18.5277   25.6512 C   0  0  0  0  0  0  0  0  0  0  0  0
   11.4765  -17.3148   26.5328 C   0  0  0  0  0  0  0  0  0  0  0  0
   10.1591  -16.5918   26.6940 C   0  0  2  0  0  0  0  0  0  0  0  0
    9.9021  -15.6627   25.6377 N   0  0  0  0  0  0  0  0  0  0  0  0
   10.0640  -16.0086   28.0352 C   0  0  0  0  0  0  0  0  0  0  0  0
    9.7665  -16.7745   29.0104 O   0  0  0  0  0  0  0  0  0  0  0  0
   10.2720  -14.6882   28.3297 O   0  0  0  0  0  0  0  0  0  0  0  0
  2  1  1  6
  2  7  1  0
  2  3  1  0
  3  4  1  0
  4  5  1  0
  5  9  1  0
  6  5  2  0
  7  8  2  0
  7 10  1  0
 10 11  1  0
 11 12  1  1
 12 13  1  0
 13 18  2  0
 13 14  1  0
 14 15  2  0
 15 16  1  0
 17 16  2  0
 18 17  1  0
 19 29  1  0
 19 11  1  0
 20 19  2  0
 22 21  1  0
 22 24  1  0
 23 22  2  0
 24 25  1  0
 25 26  1  0
 26 27  1  0
 28 27  1  6
 28 29  1  0
 28 30  1  0
 30 32  1  0
 31 30  2  0
M  END
$$$$
