EFR.pdb
     RDKit          3D

 32 32  0  0  1  0  0  0  0  0999 V2000
    8.1323  -12.9894   18.2699 N   0  0  0  0  0  0  0  0  0  0  0  0
    7.9684  -14.1925   19.0263 C   0  0  1  0  0  0  0  0  0  0  0  0
    8.7684  -15.2801   18.3567 C   0  0  0  0  0  0  0  0  0  0  0  0
    8.2219  -15.5004   16.9598 C   0  0  0  0  0  0  0  0  0  0  0  0
    8.9084  -16.6295   16.3071 C   0  0  0  0  0  0  0  0  0  0  0  0
   10.0922  -16.5014   15.9077 O   0  0  0  0  0  0  0  0  0  0  0  0
    8.2668  -14.0476   20.4570 C   0  0  0  0  0  0  0  0  0  0  0  0
    9.4596  -13.9880   20.8547 O   0  0  0  0  0  0  0  0  0  0  0  0
    8.2742  -17.8406   16.1219 O   0  0  0  0  0  0  0  0  0  0  0  0
    7.2769  -13.9643   21.4826 N   0  0  0  0  0  0  0  0  0  0  0  0
    7.5902  -13.8492   22.8924 C   0  0  1  0  0  0  0  0  0  0  0  0
    6.4951  -13.1475   23.6464 C   0  0  0  0  0  0  0  0  0  0  0  0
    6.7303  -12.9333   25.0595 C   0  0  0  0  0  0  0  0  0  0  0  0
    7.5895  -11.9657   25.5242 C   0  0  0  0  0  0  0  0  0  0  0  0
    7.8077  -11.7616   26.8837 C   0  0  0  0  0  0  0  0  0  0  0  0
    7.1250  -12.5724   27.7756 C   0  0  0  0  0  0  0  0  0  0  0  0
    6.2554  -13.5531   27.3437 C   0  0  0  0  0  0  0  0  0  0  0  0
    6.0671  -13.7233   25.9882 C   0  0  0  0  0  0  0  0  0  0  0  0
    7.9658  -15.1549   23.4816 C   0  0  0  0  0  0  0  0  0  0  0  0
    7.2936  -16.1979   23.2893 O   0  0  0  0  0  0  0  0  0  0  0  0
   12.0848  -21.4905   21.8550 N   0  0  0  0  0  0  0  0  0  0  0  0
   12.1209  -20.8107   23.0904 C   0  0  0  0  0  0  0  0  0  0  0  0
   11.7078  -21.3663   24.1607 N   0  0  0  0  0  0  0  0  0  0  0  0
   12.6226  -19.4786   23.1727 N   0  0  0  0  0  0  0  0  0  0  0  0
   12.6683  -18.7391   24.3981 C   0  0  0  0  0  0  0  0  0  0  0  0
   11.2833  -18.3575   24.8910 C   0  0  0  0  0  0  0  0  0  0  0  0
   10.9135  -16.9826   24.4060 C   0  0  0  0  0  0  0  0  0  0  0  0
    9.5230  -16.5765   24.8373 C   0  0  2  0  0  0  0  0  0  0  0  0
    9.1263  -15.3074   24.3111 N   0  0  0  0  0  0  0  0  0  0  0  0
    9.3949  -16.6828   26.2934 C   0  0  0  0  0  0  0  0  0  0  0  0
    9.0109  -17.7931   26.7895 O   0  0  0  0  0  0  0  0  0  0  0  0
    9.6582  -15.6712   27.1770 O   0  0  0  0  0  0  0  0  0  0  0  0
  2  1  1  6
  2  7  1  0
  2  3  1  0
  3  4  1  0
  4  5  1  0
  5  9  1  0
  6  5  2  0
  7  8  2  0
  7 10  1  0
 10 11  1  0
 11 12  1  1
 12 13  1  0
 13 18  2  0
 13 14  1  0
 14 15  2  0
 15 16  1  0
 17 16  2  0
 18 17  1  0
 19 29  1  0
 19 11  1  0
 20 19  2  0
 22 21  1  0
 22 24  1  0
 23 22  2  0
 24 25  1  0
 25 26  1  0
 26 27  1  0
 28 27  1  1
 28 29  1  0
 28 30  1  0
 30 32  1  0
 31 30  2  0
M  END
$$$$
