PFY.pdb
     RDKit          3D

 31 33  0  0  1  0  0  0  0  0999 V2000
   28.1053  -21.0884  -17.9377 N   0  0  0  0  0  0  0  0  0  0  0  0
   29.4091  -20.4958  -18.1061 C   0  0  0  0  0  0  0  0  0  0  0  0
   30.3911  -21.6465  -18.1240 C   0  0  0  0  0  0  0  0  0  0  0  0
   29.7518  -22.6162  -17.1619 C   0  0  0  0  0  0  0  0  0  0  0  0
   28.2779  -22.3706  -17.3186 C   0  0  1  0  0  0  0  0  0  0  0  0
   27.5823  -22.3535  -15.9910 C   0  0  0  0  0  0  0  0  0  0  0  0
   27.6947  -23.3032  -15.1735 O   0  0  0  0  0  0  0  0  0  0  0  0
   26.7588  -21.2557  -15.5939 N   0  0  0  0  0  0  0  0  0  0  0  0
   26.2086  -21.1407  -14.2747 C   0  0  1  0  0  0  0  0  0  0  0  0
   26.7772  -19.9885  -13.4910 C   0  0  0  0  0  0  0  0  0  0  0  0
   27.5828  -20.4115  -12.3408 C   0  0  0  0  0  0  0  0  0  0  0  0
   26.9852  -20.6228  -11.1091 C   0  0  0  0  0  0  0  0  0  0  0  0
   27.7137  -21.0207  -10.0073 C   0  0  0  0  0  0  0  0  0  0  0  0
   29.0751  -21.2264  -10.0855 C   0  0  0  0  0  0  0  0  0  0  0  0
   29.6803  -21.0189  -11.3073 C   0  0  0  0  0  0  0  0  0  0  0  0
   28.9451  -20.6192  -12.4111 C   0  0  0  0  0  0  0  0  0  0  0  0
   24.7260  -21.0996  -14.2721 C   0  0  0  0  0  0  0  0  0  0  0  0
   24.1567  -20.6222  -15.2849 O   0  0  0  0  0  0  0  0  0  0  0  0
   16.1715  -21.9929  -12.5252 O   0  0  0  0  0  0  0  0  0  0  0  0
   17.5595  -22.0549  -12.4450 C   0  0  0  0  0  0  0  0  0  0  0  0
   18.2855  -22.8633  -13.2758 C   0  0  0  0  0  0  0  0  0  0  0  0
   19.6574  -22.9180  -13.1890 C   0  0  0  0  0  0  0  0  0  0  0  0
   20.3418  -22.1634  -12.2658 C   0  0  0  0  0  0  0  0  0  0  0  0
   21.8105  -22.1903  -12.1239 C   0  0  0  0  0  0  0  0  0  0  0  0
   22.4382  -21.4670  -13.2771 C   0  0  2  0  0  0  0  0  0  0  0  0
   23.9071  -21.5598  -13.2098 N   0  0  0  0  0  0  0  0  0  0  0  0
   22.0843  -20.0419  -13.3792 C   0  0  0  0  0  0  0  0  0  0  0  0
   22.6575  -19.1248  -12.7433 O   0  0  0  0  0  0  0  0  0  0  0  0
   19.6157  -21.3486  -11.4279 C   0  0  0  0  0  0  0  0  0  0  0  0
   18.2213  -21.2857  -11.5081 C   0  0  0  0  0  0  0  0  0  0  0  0
   21.0476  -19.6113  -14.2243 O   0  0  0  0  0  0  0  0  0  0  0  0
  1  2  1  0
  1  5  1  0
  2  3  1  0
  3  4  1  0
  5  6  1  1
  5  4  1  0
  6  7  2  0
  8  9  1  0
  8  6  1  0
  9 10  1  6
 11 12  2  0
 11 10  1  0
 13 12  1  0
 14 13  2  0
 15 14  1  0
 15 16  2  0
 16 11  1  0
 17  9  1  0
 18 17  2  0
 19 20  1  0
 20 21  2  0
 20 30  1  0
 21 22  1  0
 22 23  2  0
 23 24  1  0
 25 24  1  1
 25 27  1  0
 25 26  1  0
 26 17  1  0
 27 31  1  0
 28 27  2  0
 29 23  1  0
 30 29  2  0
M  END
$$$$
