PFY.pdb
     RDKit          3D

 31 33  0  0  1  0  0  0  0  0999 V2000
   43.5983   -8.7451   -5.0646 N   0  0  0  0  0  0  0  0  0  0  0  0
   43.2675  -10.1470   -5.1330 C   0  0  0  0  0  0  0  0  0  0  0  0
   43.0563  -10.4547   -6.5991 C   0  0  0  0  0  0  0  0  0  0  0  0
   42.4530   -9.1678   -7.1035 C   0  0  0  0  0  0  0  0  0  0  0  0
   43.0722   -8.1080   -6.2369 C   0  0  1  0  0  0  0  0  0  0  0  0
   42.0583   -7.0904   -5.8089 C   0  0  0  0  0  0  0  0  0  0  0  0
   41.2623   -7.3092   -4.8595 O   0  0  0  0  0  0  0  0  0  0  0  0
   41.9504   -5.8241   -6.4613 N   0  0  0  0  0  0  0  0  0  0  0  0
   40.9846   -4.8367   -6.0758 C   0  0  1  0  0  0  0  0  0  0  0  0
   41.5949   -3.4965   -5.7655 C   0  0  0  0  0  0  0  0  0  0  0  0
   42.4436   -3.5092   -4.5694 C   0  0  0  0  0  0  0  0  0  0  0  0
   41.8862   -3.3209   -3.3153 C   0  0  0  0  0  0  0  0  0  0  0  0
   42.6557   -3.3270   -2.1704 C   0  0  0  0  0  0  0  0  0  0  0  0
   44.0199   -3.5220   -2.2258 C   0  0  0  0  0  0  0  0  0  0  0  0
   44.5851   -3.7105   -3.4697 C   0  0  0  0  0  0  0  0  0  0  0  0
   43.8088   -3.7035   -4.6168 C   0  0  0  0  0  0  0  0  0  0  0  0
   39.8808   -4.6990   -7.0569 C   0  0  0  0  0  0  0  0  0  0  0  0
   40.1729   -4.7865   -8.2755 O   0  0  0  0  0  0  0  0  0  0  0  0
   38.4305  -10.6225   -6.8632 O   0  0  0  0  0  0  0  0  0  0  0  0
   37.9222   -9.3365   -7.0204 C   0  0  0  0  0  0  0  0  0  0  0  0
   37.8057   -8.7629   -8.2565 C   0  0  0  0  0  0  0  0  0  0  0  0
   37.3021   -7.4910   -8.4020 C   0  0  0  0  0  0  0  0  0  0  0  0
   36.9005   -6.7564   -7.3114 C   0  0  0  0  0  0  0  0  0  0  0  0
   36.3619   -5.3860   -7.4095 C   0  0  0  0  0  0  0  0  0  0  0  0
   37.4703   -4.4356   -7.7490 C   0  0  2  0  0  0  0  0  0  0  0  0
   38.5221   -4.4760   -6.7180 N   0  0  0  0  0  0  0  0  0  0  0  0
   37.0543   -3.0328   -7.9089 C   0  0  0  0  0  0  0  0  0  0  0  0
   37.4086   -2.1003   -7.1480 O   0  0  0  0  0  0  0  0  0  0  0  0
   37.0157   -7.3295   -6.0658 C   0  0  0  0  0  0  0  0  0  0  0  0
   37.5261   -8.6214   -5.9072 C   0  0  0  0  0  0  0  0  0  0  0  0
   36.2065   -2.6434   -8.9596 O   0  0  0  0  0  0  0  0  0  0  0  0
  1  2  1  0
  1  5  1  0
  2  3  1  0
  3  4  1  0
  5  6  1  1
  5  4  1  0
  6  7  2  0
  8  9  1  0
  8  6  1  0
  9 10  1  6
 11 12  2  0
 11 10  1  0
 13 12  1  0
 14 13  2  0
 15 14  1  0
 15 16  2  0
 16 11  1  0
 17  9  1  0
 18 17  2  0
 19 20  1  0
 20 21  2  0
 20 30  1  0
 21 22  1  0
 22 23  2  0
 23 24  1  0
 25 24  1  1
 25 27  1  0
 25 26  1  0
 26 17  1  0
 27 31  1  0
 28 27  2  0
 29 23  1  0
 30 29  2  0
M  END
$$$$
