PFY.pdb
     RDKit          3D

 31 33  0  0  1  0  0  0  0  0999 V2000
   28.7254  -21.3462  -17.8155 N   0  0  0  0  0  0  0  0  0  0  0  0
   30.1202  -21.7053  -17.7458 C   0  0  0  0  0  0  0  0  0  0  0  0
   30.1774  -23.0100  -16.9820 C   0  0  0  0  0  0  0  0  0  0  0  0
   29.0451  -22.8453  -15.9995 C   0  0  0  0  0  0  0  0  0  0  0  0
   28.0466  -21.9928  -16.7300 C   0  0  1  0  0  0  0  0  0  0  0  0
   27.4704  -20.9373  -15.8352 C   0  0  0  0  0  0  0  0  0  0  0  0
   28.1656  -20.3626  -14.9581 O   0  0  0  0  0  0  0  0  0  0  0  0
   26.1033  -20.5359  -15.9387 N   0  0  0  0  0  0  0  0  0  0  0  0
   25.5282  -19.5288  -15.0953 C   0  0  1  0  0  0  0  0  0  0  0  0
   25.1337  -18.2823  -15.8407 C   0  0  0  0  0  0  0  0  0  0  0  0
   26.2810  -17.5267  -16.3544 C   0  0  0  0  0  0  0  0  0  0  0  0
   26.6899  -17.6851  -17.6684 C   0  0  0  0  0  0  0  0  0  0  0  0
   27.7646  -16.9900  -18.1831 C   0  0  0  0  0  0  0  0  0  0  0  0
   28.4814  -16.1032  -17.4074 C   0  0  0  0  0  0  0  0  0  0  0  0
   28.0827  -15.9380  -16.0975 C   0  0  0  0  0  0  0  0  0  0  0  0
   27.0030  -16.6379  -15.5846 C   0  0  0  0  0  0  0  0  0  0  0  0
   24.3967  -20.0375  -14.2825 C   0  0  0  0  0  0  0  0  0  0  0  0
   23.6917  -20.9521  -14.7770 O   0  0  0  0  0  0  0  0  0  0  0  0
   18.6401  -21.9875   -7.9804 O   0  0  0  0  0  0  0  0  0  0  0  0
   19.6805  -21.3904   -8.6861 C   0  0  0  0  0  0  0  0  0  0  0  0
   19.4743  -20.2758   -9.4517 C   0  0  0  0  0  0  0  0  0  0  0  0
   20.5090  -19.6926  -10.1458 C   0  0  0  0  0  0  0  0  0  0  0  0
   21.7816  -20.2104  -10.0927 C   0  0  0  0  0  0  0  0  0  0  0  0
   22.9249  -19.6304  -10.8235 C   0  0  0  0  0  0  0  0  0  0  0  0
   22.9399  -20.1553  -12.2276 C   0  0  2  0  0  0  0  0  0  0  0  0
   24.0546  -19.5660  -12.9897 N   0  0  0  0  0  0  0  0  0  0  0  0
   21.7027  -19.9185  -12.9891 C   0  0  0  0  0  0  0  0  0  0  0  0
   20.7669  -20.7479  -13.0912 O   0  0  0  0  0  0  0  0  0  0  0  0
   21.9937  -21.3314   -9.3236 C   0  0  0  0  0  0  0  0  0  0  0  0
   20.9491  -21.9316   -8.6144 C   0  0  0  0  0  0  0  0  0  0  0  0
   21.4910  -18.7074  -13.6695 O   0  0  0  0  0  0  0  0  0  0  0  0
  1  2  1  0
  1  5  1  0
  2  3  1  0
  3  4  1  0
  5  6  1  1
  5  4  1  0
  6  7  2  0
  8  9  1  0
  8  6  1  0
  9 10  1  6
 11 12  2  0
 11 10  1  0
 13 12  1  0
 14 13  2  0
 15 14  1  0
 15 16  2  0
 16 11  1  0
 17  9  1  0
 18 17  2  0
 19 20  1  0
 20 21  2  0
 20 30  1  0
 21 22  1  0
 22 23  2  0
 23 24  1  0
 25 24  1  1
 25 27  1  0
 25 26  1  0
 26 17  1  0
 27 31  1  0
 28 27  2  0
 29 23  1  0
 30 29  2  0
M  END
$$$$
