PFY.pdb
     RDKit          3D

 31 33  0  0  1  0  0  0  0  0999 V2000
   27.6964  -20.9924  -17.2631 N   0  0  0  0  0  0  0  0  0  0  0  0
   29.1172  -20.7689  -17.3675 C   0  0  0  0  0  0  0  0  0  0  0  0
   29.7430  -22.1356  -17.5385 C   0  0  0  0  0  0  0  0  0  0  0  0
   28.8356  -23.0005  -16.7000 C   0  0  0  0  0  0  0  0  0  0  0  0
   27.4916  -22.3382  -16.8113 C   0  0  1  0  0  0  0  0  0  0  0  0
   26.7932  -22.2922  -15.4859 C   0  0  0  0  0  0  0  0  0  0  0  0
   26.5135  -23.3407  -14.8493 O   0  0  0  0  0  0  0  0  0  0  0  0
   26.4131  -21.0531  -14.8851 N   0  0  0  0  0  0  0  0  0  0  0  0
   25.7196  -20.9832  -13.6319 C   0  0  1  0  0  0  0  0  0  0  0  0
   26.2550  -19.9175  -12.7140 C   0  0  0  0  0  0  0  0  0  0  0  0
   26.2800  -20.3251  -11.3053 C   0  0  0  0  0  0  0  0  0  0  0  0
   27.3639  -21.0236  -10.7993 C   0  0  0  0  0  0  0  0  0  0  0  0
   27.4191  -21.4218   -9.4796 C   0  0  0  0  0  0  0  0  0  0  0  0
   26.3922  -21.1399   -8.6033 C   0  0  0  0  0  0  0  0  0  0  0  0
   25.3080  -20.4448   -9.0969 C   0  0  0  0  0  0  0  0  0  0  0  0
   25.2566  -20.0469  -10.4226 C   0  0  0  0  0  0  0  0  0  0  0  0
   24.2513  -20.8501  -13.7944 C   0  0  0  0  0  0  0  0  0  0  0  0
   23.8320  -19.9605  -14.5758 O   0  0  0  0  0  0  0  0  0  0  0  0
   15.5667  -21.6538  -13.8898 O   0  0  0  0  0  0  0  0  0  0  0  0
   16.9196  -21.9090  -13.6865 C   0  0  0  0  0  0  0  0  0  0  0  0
   17.4693  -21.8814  -12.4344 C   0  0  0  0  0  0  0  0  0  0  0  0
   18.8078  -22.1351  -12.2432 C   0  0  0  0  0  0  0  0  0  0  0  0
   19.6350  -22.4238  -13.3028 C   0  0  0  0  0  0  0  0  0  0  0  0
   21.0782  -22.6947  -13.1555 C   0  0  0  0  0  0  0  0  0  0  0  0
   21.8448  -21.4141  -13.2951 C   0  0  2  0  0  0  0  0  0  0  0  0
   23.2893  -21.6539  -13.1317 N   0  0  0  0  0  0  0  0  0  0  0  0
   21.4572  -20.3555  -12.3486 C   0  0  0  0  0  0  0  0  0  0  0  0
   21.9429  -20.2236  -11.1994 O   0  0  0  0  0  0  0  0  0  0  0  0
   19.0864  -22.4528  -14.5643 C   0  0  0  0  0  0  0  0  0  0  0  0
   17.7274  -22.1966  -14.7692 C   0  0  0  0  0  0  0  0  0  0  0  0
   20.4870  -19.3980  -12.6896 O   0  0  0  0  0  0  0  0  0  0  0  0
  1  2  1  0
  1  5  1  0
  2  3  1  0
  3  4  1  0
  5  6  1  1
  5  4  1  0
  6  7  2  0
  8  9  1  0
  8  6  1  0
  9 10  1  6
 11 12  2  0
 11 10  1  0
 13 12  1  0
 14 13  2  0
 15 14  1  0
 15 16  2  0
 16 11  1  0
 17  9  1  0
 18 17  2  0
 19 20  1  0
 20 21  2  0
 20 30  1  0
 21 22  1  0
 22 23  2  0
 23 24  1  0
 25 24  1  1
 25 27  1  0
 25 26  1  0
 26 17  1  0
 27 31  1  0
 28 27  2  0
 29 23  1  0
 30 29  2  0
M  END
$$$$
