PFY.pdb
     RDKit          3D

 31 33  0  0  1  0  0  0  0  0999 V2000
   39.0607  -24.0712    6.5865 N   0  0  0  0  0  0  0  0  0  0  0  0
   40.2963  -24.6236    6.0888 C   0  0  0  0  0  0  0  0  0  0  0  0
   40.3822  -24.2111    4.6358 C   0  0  0  0  0  0  0  0  0  0  0  0
   38.9329  -24.2351    4.2192 C   0  0  0  0  0  0  0  0  0  0  0  0
   38.1858  -23.8646    5.4690 C   0  0  1  0  0  0  0  0  0  0  0  0
   36.9702  -24.7218    5.6538 C   0  0  0  0  0  0  0  0  0  0  0  0
   36.9635  -25.6968    6.4490 O   0  0  0  0  0  0  0  0  0  0  0  0
   35.7625  -24.4696    4.9337 N   0  0  0  0  0  0  0  0  0  0  0  0
   34.5682  -25.2372    5.1358 C   0  0  1  0  0  0  0  0  0  0  0  0
   33.3077  -24.4534    4.8874 C   0  0  0  0  0  0  0  0  0  0  0  0
   33.1550  -23.3024    5.7833 C   0  0  0  0  0  0  0  0  0  0  0  0
   32.9311  -23.4954    7.1367 C   0  0  0  0  0  0  0  0  0  0  0  0
   32.7830  -22.4350    8.0066 C   0  0  0  0  0  0  0  0  0  0  0  0
   32.8519  -21.1308    7.5637 C   0  0  0  0  0  0  0  0  0  0  0  0
   33.0745  -20.9273    6.2179 C   0  0  0  0  0  0  0  0  0  0  0  0
   33.2226  -21.9948    5.3478 C   0  0  0  0  0  0  0  0  0  0  0  0
   34.5620  -26.5040    4.3644 C   0  0  0  0  0  0  0  0  0  0  0  0
   34.5464  -26.4205    3.1112 O   0  0  0  0  0  0  0  0  0  0  0  0
   38.6940  -33.1867    1.1680 O   0  0  0  0  0  0  0  0  0  0  0  0
   38.1805  -32.0833    1.8431 C   0  0  0  0  0  0  0  0  0  0  0  0
   38.2963  -31.9615    3.2005 C   0  0  0  0  0  0  0  0  0  0  0  0
   37.7855  -30.8671    3.8592 C   0  0  0  0  0  0  0  0  0  0  0  0
   37.1429  -29.8621    3.1755 C   0  0  0  0  0  0  0  0  0  0  0  0
   36.5691  -28.6717    3.8324 C   0  0  0  0  0  0  0  0  0  0  0  0
   35.1502  -28.9523    4.2261 C   0  0  2  0  0  0  0  0  0  0  0  0
   34.5724  -27.8000    4.9397 N   0  0  0  0  0  0  0  0  0  0  0  0
   34.9677  -30.1412    5.0744 C   0  0  0  0  0  0  0  0  0  0  0  0
   34.8353  -31.3087    4.6345 O   0  0  0  0  0  0  0  0  0  0  0  0
   37.0242  -29.9802    1.8098 C   0  0  0  0  0  0  0  0  0  0  0  0
   37.5400  -31.0882    1.1310 C   0  0  0  0  0  0  0  0  0  0  0  0
   34.9299  -30.0335    6.4749 O   0  0  0  0  0  0  0  0  0  0  0  0
  1  2  1  0
  1  5  1  0
  2  3  1  0
  3  4  1  0
  5  6  1  1
  5  4  1  0
  6  7  2  0
  8  9  1  0
  8  6  1  0
  9 10  1  6
 11 12  2  0
 11 10  1  0
 13 12  1  0
 14 13  2  0
 15 14  1  0
 15 16  2  0
 16 11  1  0
 17  9  1  0
 18 17  2  0
 19 20  1  0
 20 21  2  0
 20 30  1  0
 21 22  1  0
 22 23  2  0
 23 24  1  0
 25 24  1  1
 25 27  1  0
 25 26  1  0
 26 17  1  0
 27 31  1  0
 28 27  2  0
 29 23  1  0
 30 29  2  0
M  END
$$$$
