ISK.pdb
     RDKit          3D

 24 23  0  0  1  0  0  0  0  0999 V2000
    7.6392  -12.0071   19.2466 C   0  0  0  0  0  0  0  0  0  0  0  0
    7.7789  -13.4799   19.0439 C   0  0  0  0  0  0  0  0  0  0  0  0
    8.1278  -14.2297   20.2901 C   0  0  2  0  0  0  0  0  0  0  0  0
    9.4126  -13.7294   20.8963 C   0  0  0  0  0  0  0  0  0  0  0  0
    8.2422  -15.7179   20.0957 C   0  0  2  0  0  0  0  0  0  0  0  0
    7.0264  -16.2212   19.4960 N   0  0  0  0  0  0  0  0  0  0  0  0
    8.5282  -16.4334   21.3599 C   0  0  0  0  0  0  0  0  0  0  0  0
    7.5906  -16.5837   22.1815 O   0  0  0  0  0  0  0  0  0  0  0  0
   12.4332  -17.3746   22.5390 O   0  0  0  0  0  0  0  0  0  0  0  0
   11.4405  -18.3451   22.8043 C   0  0  0  0  0  0  0  0  0  0  0  0
   10.0961  -17.6109   22.8626 C   0  0  2  0  0  0  0  0  0  0  0  0
    9.8304  -16.9329   21.6280 N   0  0  0  0  0  0  0  0  0  0  0  0
   10.0818  -16.6954   24.0311 C   0  0  0  0  0  0  0  0  0  0  0  0
   10.5695  -15.5411   23.9189 O   0  0  0  0  0  0  0  0  0  0  0  0
    9.5438  -17.0416   25.2933 N   0  0  0  0  0  0  0  0  0  0  0  0
    9.5290  -16.1219   26.4393 C   0  0  1  0  0  0  0  0  0  0  0  0
    8.1683  -15.4980   26.6022 C   0  0  0  0  0  0  0  0  0  0  0  0
    8.1338  -14.0232   26.4172 C   0  0  0  0  0  0  0  0  0  0  0  0
    6.7134  -13.5192   26.6000 C   0  0  0  0  0  0  0  0  0  0  0  0
    6.6212  -12.0269   26.3977 C   0  0  0  0  0  0  0  0  0  0  0  0
    5.2747  -11.5658   26.6141 N   0  0  0  0  0  0  0  0  0  0  0  0
   10.0617  -16.7462   27.6477 C   0  0  0  0  0  0  0  0  0  0  0  0
   10.5212  -16.1089   28.7738 O   0  0  0  0  0  0  0  0  0  0  0  0
   10.1110  -18.0204   27.6716 O   0  0  0  0  0  0  0  0  0  0  0  0
  2  1  1  0
  3  4  1  6
  3  2  1  0
  3  5  1  0
  5  6  1  1
  7  5  1  0
  7  8  2  0
 10  9  1  0
 11 10  1  6
 11 12  1  0
 12  7  1  0
 13 11  1  0
 14 13  2  0
 15 13  1  0
 16 15  1  0
 16 17  1  1
 18 19  1  0
 18 17  1  0
 19 20  1  0
 20 21  1  0
 22 16  1  0
 23 22  1  0
 24 22  2  0
M  END
$$$$
