ISK.pdb
     RDKit          3D

 24 23  0  0  1  0  0  0  0  0999 V2000
    7.7270  -11.6704   19.2527 C   0  0  0  0  0  0  0  0  0  0  0  0
    7.9131  -13.0936   18.8409 C   0  0  0  0  0  0  0  0  0  0  0  0
    8.1835  -14.0213   19.9825 C   0  0  2  0  0  0  0  0  0  0  0  0
    9.3788  -13.5787   20.7849 C   0  0  0  0  0  0  0  0  0  0  0  0
    8.3927  -15.4535   19.5694 C   0  0  2  0  0  0  0  0  0  0  0  0
    7.2939  -15.8795   18.7315 N   0  0  0  0  0  0  0  0  0  0  0  0
    8.5388  -16.3616   20.7296 C   0  0  0  0  0  0  0  0  0  0  0  0
    7.7503  -16.2200   21.6965 O   0  0  0  0  0  0  0  0  0  0  0  0
   11.6044  -19.1385   20.8132 O   0  0  0  0  0  0  0  0  0  0  0  0
   10.4468  -19.4865   21.5457 C   0  0  0  0  0  0  0  0  0  0  0  0
    9.7298  -18.1798   21.9036 C   0  0  2  0  0  0  0  0  0  0  0  0
    9.5460  -17.3628   20.7403 N   0  0  0  0  0  0  0  0  0  0  0  0
   10.4788  -17.4820   22.9786 C   0  0  0  0  0  0  0  0  0  0  0  0
   11.3634  -16.6417   22.6715 O   0  0  0  0  0  0  0  0  0  0  0  0
   10.2602  -17.7035   24.3591 N   0  0  0  0  0  0  0  0  0  0  0  0
   11.0546  -17.0555   25.4118 C   0  0  1  0  0  0  0  0  0  0  0  0
   10.1579  -16.3637   26.4042 C   0  0  0  0  0  0  0  0  0  0  0  0
   10.8664  -15.7336   27.5494 C   0  0  0  0  0  0  0  0  0  0  0  0
    9.8548  -15.1127   28.4960 C   0  0  0  0  0  0  0  0  0  0  0  0
   10.5289  -14.3680   29.6217 C   0  0  0  0  0  0  0  0  0  0  0  0
    9.5584  -13.6685   30.4227 N   0  0  0  0  0  0  0  0  0  0  0  0
   12.0270  -17.9707   26.0040 C   0  0  0  0  0  0  0  0  0  0  0  0
   13.2992  -17.6679   26.4223 O   0  0  0  0  0  0  0  0  0  0  0  0
   11.6677  -19.1853   26.1534 O   0  0  0  0  0  0  0  0  0  0  0  0
  2  1  1  0
  3  4  1  6
  3  2  1  0
  3  5  1  0
  5  6  1  1
  7  5  1  0
  7  8  2  0
 10  9  1  0
 11 10  1  6
 11 12  1  0
 12  7  1  0
 13 11  1  0
 14 13  2  0
 15 13  1  0
 16 15  1  0
 16 17  1  1
 18 19  1  0
 18 17  1  0
 19 20  1  0
 20 21  1  0
 22 16  1  0
 23 22  1  0
 24 22  2  0
M  END
$$$$
