ISK.pdb
     RDKit          3D

 24 23  0  0  1  0  0  0  0  0999 V2000
    8.2446  -12.3875   18.1158 C   0  0  0  0  0  0  0  0  0  0  0  0
    7.6140  -13.3464   19.0711 C   0  0  0  0  0  0  0  0  0  0  0  0
    8.5501  -13.8553   20.1207 C   0  0  2  0  0  0  0  0  0  0  0  0
    9.7439  -14.5430   19.5121 C   0  0  0  0  0  0  0  0  0  0  0  0
    7.9101  -14.7972   21.1051 C   0  0  2  0  0  0  0  0  0  0  0  0
    6.6392  -14.2568   21.5338 N   0  0  0  0  0  0  0  0  0  0  0  0
    8.7765  -15.0677   22.2748 C   0  0  0  0  0  0  0  0  0  0  0  0
    9.0781  -14.1066   23.0244 O   0  0  0  0  0  0  0  0  0  0  0  0
    9.2699  -18.7573   23.8356 O   0  0  0  0  0  0  0  0  0  0  0  0
    9.7179  -17.6398   24.5760 C   0  0  0  0  0  0  0  0  0  0  0  0
   10.2197  -16.6015   23.5660 C   0  0  2  0  0  0  0  0  0  0  0  0
    9.2491  -16.3815   22.5345 N   0  0  0  0  0  0  0  0  0  0  0  0
   11.5363  -17.0284   23.0293 C   0  0  0  0  0  0  0  0  0  0  0  0
   11.6056  -18.0528   22.3023 O   0  0  0  0  0  0  0  0  0  0  0  0
   12.7483  -16.3445   23.2865 N   0  0  0  0  0  0  0  0  0  0  0  0
   14.0679  -16.8941   22.9463 C   0  0  1  0  0  0  0  0  0  0  0  0
   14.7333  -16.0595   21.8843 C   0  0  0  0  0  0  0  0  0  0  0  0
   13.9581  -15.9237   20.6230 C   0  0  0  0  0  0  0  0  0  0  0  0
   14.7656  -15.1311   19.6107 C   0  0  0  0  0  0  0  0  0  0  0  0
   14.0162  -14.9581   18.3126 C   0  0  0  0  0  0  0  0  0  0  0  0
   13.7369  -13.5672   18.0673 N   0  0  0  0  0  0  0  0  0  0  0  0
   14.8836  -17.1317   24.1346 C   0  0  0  0  0  0  0  0  0  0  0  0
   14.5513  -16.8465   25.4360 O   0  0  0  0  0  0  0  0  0  0  0  0
   16.0306  -17.6604   23.9575 O   0  0  0  0  0  0  0  0  0  0  0  0
  2  1  1  0
  3  4  1  6
  3  2  1  0
  3  5  1  0
  5  6  1  1
  7  5  1  0
  7  8  2  0
 10  9  1  0
 11 10  1  1
 11 12  1  0
 12  7  1  0
 13 11  1  0
 14 13  2  0
 15 13  1  0
 16 15  1  0
 16 17  1  6
 18 19  1  0
 18 17  1  0
 19 20  1  0
 20 21  1  0
 22 16  1  0
 23 22  1  0
 24 22  2  0
M  END
$$$$
