ISK.pdb
     RDKit          3D

 24 23  0  0  1  0  0  0  0  0999 V2000
    6.4758  -11.6665   27.4498 C   0  0  0  0  0  0  0  0  0  0  0  0
    5.9288  -12.7177   26.5413 C   0  0  0  0  0  0  0  0  0  0  0  0
    6.9810  -13.4981   25.8196 C   0  0  2  0  0  0  0  0  0  0  0  0
    7.8458  -12.6064   24.9679 C   0  0  0  0  0  0  0  0  0  0  0  0
    6.4362  -14.6008   24.9518 C   0  0  2  0  0  0  0  0  0  0  0  0
    5.5257  -15.4172   25.7237 N   0  0  0  0  0  0  0  0  0  0  0  0
    7.5057  -15.4376   24.3621 C   0  0  0  0  0  0  0  0  0  0  0  0
    8.0547  -16.2995   25.0918 O   0  0  0  0  0  0  0  0  0  0  0  0
    9.4912  -14.5310   20.7596 O   0  0  0  0  0  0  0  0  0  0  0  0
    9.0411  -15.8595   20.9336 C   0  0  0  0  0  0  0  0  0  0  0  0
    8.9132  -16.0983   22.4424 C   0  0  2  0  0  0  0  0  0  0  0  0
    7.8939  -15.2636   23.0071 N   0  0  0  0  0  0  0  0  0  0  0  0
   10.2349  -15.9018   23.0890 C   0  0  0  0  0  0  0  0  0  0  0  0
   10.4118  -14.9143   23.8482 O   0  0  0  0  0  0  0  0  0  0  0  0
   11.3363  -16.7710   22.9046 N   0  0  0  0  0  0  0  0  0  0  0  0
   12.3461  -17.0188   23.9429 C   0  0  1  0  0  0  0  0  0  0  0  0
   11.7131  -17.6315   25.1641 C   0  0  0  0  0  0  0  0  0  0  0  0
   12.6559  -17.9135   26.2786 C   0  0  0  0  0  0  0  0  0  0  0  0
   11.9016  -18.5364   27.4396 C   0  0  0  0  0  0  0  0  0  0  0  0
   12.8096  -18.8046   28.6143 C   0  0  0  0  0  0  0  0  0  0  0  0
   12.0906  -19.4621   29.6742 N   0  0  0  0  0  0  0  0  0  0  0  0
   13.4978  -17.7505   23.4214 C   0  0  0  0  0  0  0  0  0  0  0  0
   13.4795  -18.7935   22.5286 O   0  0  0  0  0  0  0  0  0  0  0  0
   14.6506  -17.3915   23.8325 O   0  0  0  0  0  0  0  0  0  0  0  0
  2  1  1  0
  3  4  1  6
  3  2  1  0
  3  5  1  0
  5  6  1  1
  7  5  1  0
  7  8  2  0
 10  9  1  0
 11 10  1  6
 11 12  1  0
 12  7  1  0
 13 11  1  0
 14 13  2  0
 15 13  1  0
 16 15  1  0
 16 17  1  1
 18 19  1  0
 18 17  1  0
 19 20  1  0
 20 21  1  0
 22 16  1  0
 23 22  1  0
 24 22  2  0
M  END
$$$$
