ISK.pdb
     RDKit          3D

 24 23  0  0  1  0  0  0  0  0999 V2000
    7.7432  -12.6117   18.9627 C   0  0  0  0  0  0  0  0  0  0  0  0
    8.5992  -12.9782   20.1301 C   0  0  0  0  0  0  0  0  0  0  0  0
    8.1429  -14.2071   20.8502 C   0  0  2  0  0  0  0  0  0  0  0  0
    6.7359  -14.0567   21.3661 C   0  0  0  0  0  0  0  0  0  0  0  0
    9.0299  -14.6066   21.9989 C   0  0  2  0  0  0  0  0  0  0  0  0
   10.4142  -14.5363   21.5868 N   0  0  0  0  0  0  0  0  0  0  0  0
    8.7133  -15.9576   22.5150 C   0  0  0  0  0  0  0  0  0  0  0  0
    7.5357  -16.1910   22.8829 O   0  0  0  0  0  0  0  0  0  0  0  0
   11.8128  -18.4995   23.4167 O   0  0  0  0  0  0  0  0  0  0  0  0
   10.6132  -19.1739   23.0947 C   0  0  0  0  0  0  0  0  0  0  0  0
    9.4668  -18.1765   23.2970 C   0  0  2  0  0  0  0  0  0  0  0  0
    9.7202  -16.9565   22.5885 N   0  0  0  0  0  0  0  0  0  0  0  0
    9.2500  -17.9587   24.7493 C   0  0  0  0  0  0  0  0  0  0  0  0
    9.6361  -16.8845   25.2784 O   0  0  0  0  0  0  0  0  0  0  0  0
    8.6234  -18.9004   25.5996 N   0  0  0  0  0  0  0  0  0  0  0  0
    8.6332  -18.7901   27.0649 C   0  0  1  0  0  0  0  0  0  0  0  0
    7.7813  -19.8661   27.6844 C   0  0  0  0  0  0  0  0  0  0  0  0
    6.6705  -20.3527   26.8242 C   0  0  0  0  0  0  0  0  0  0  0  0
    5.8823  -21.4191   27.5634 C   0  0  0  0  0  0  0  0  0  0  0  0
    4.8177  -22.0325   26.6878 C   0  0  0  0  0  0  0  0  0  0  0  0
    4.0969  -23.0538   27.4021 N   0  0  0  0  0  0  0  0  0  0  0  0
    9.9909  -18.7058   27.5973 C   0  0  0  0  0  0  0  0  0  0  0  0
   10.3722  -18.1911   28.8118 O   0  0  0  0  0  0  0  0  0  0  0  0
   10.9328  -19.1552   26.8642 O   0  0  0  0  0  0  0  0  0  0  0  0
  2  1  1  0
  3  4  1  1
  3  2  1  0
  3  5  1  0
  5  6  1  6
  7  5  1  0
  7  8  2  0
 10  9  1  0
 11 10  1  1
 11 12  1  0
 12  7  1  0
 13 11  1  0
 14 13  2  0
 15 13  1  0
 16 15  1  0
 16 17  1  1
 18 19  1  0
 18 17  1  0
 19 20  1  0
 20 21  1  0
 22 16  1  0
 23 22  1  0
 24 22  2  0
M  END
$$$$
