ISK.pdb
     RDKit          3D

 24 23  0  0  1  0  0  0  0  0999 V2000
    7.7998  -15.8113   15.9547 C   0  0  0  0  0  0  0  0  0  0  0  0
    7.5839  -14.6484   16.8662 C   0  0  0  0  0  0  0  0  0  0  0  0
    8.1724  -14.8327   18.2287 C   0  0  2  0  0  0  0  0  0  0  0  0
    7.7546  -16.1444   18.8399 C   0  0  0  0  0  0  0  0  0  0  0  0
    7.8336  -13.7293   19.1948 C   0  0  2  0  0  0  0  0  0  0  0  0
    8.1448  -12.4506   18.5954 N   0  0  0  0  0  0  0  0  0  0  0  0
    8.5352  -13.8760   20.4902 C   0  0  0  0  0  0  0  0  0  0  0  0
    9.7861  -13.7678   20.5028 O   0  0  0  0  0  0  0  0  0  0  0  0
    6.4668  -15.0830   23.8930 O   0  0  0  0  0  0  0  0  0  0  0  0
    7.5628  -14.2176   24.1113 C   0  0  0  0  0  0  0  0  0  0  0  0
    8.5036  -14.3696   22.9106 C   0  0  2  0  0  0  0  0  0  0  0  0
    7.8055  -14.1322   21.6814 N   0  0  0  0  0  0  0  0  0  0  0  0
    9.1479  -15.7063   22.9521 C   0  0  0  0  0  0  0  0  0  0  0  0
    8.6281  -16.6637   22.3228 O   0  0  0  0  0  0  0  0  0  0  0  0
   10.3361  -15.9833   23.6691 N   0  0  0  0  0  0  0  0  0  0  0  0
   10.9114  -17.3310   23.7794 C   0  0  1  0  0  0  0  0  0  0  0  0
   12.1372  -17.4578   22.9141 C   0  0  0  0  0  0  0  0  0  0  0  0
   12.7836  -18.7964   22.9430 C   0  0  0  0  0  0  0  0  0  0  0  0
   14.0203  -18.7849   22.0625 C   0  0  0  0  0  0  0  0  0  0  0  0
   14.6890  -20.1368   22.0232 C   0  0  0  0  0  0  0  0  0  0  0  0
   15.7379  -20.1577   21.0373 N   0  0  0  0  0  0  0  0  0  0  0  0
   11.1040  -17.7305   25.1712 C   0  0  0  0  0  0  0  0  0  0  0  0
   10.8368  -16.9819   26.2908 O   0  0  0  0  0  0  0  0  0  0  0  0
   11.5706  -18.8985   25.3825 O   0  0  0  0  0  0  0  0  0  0  0  0
  2  1  1  0
  3  4  1  1
  3  2  1  0
  3  5  1  0
  5  6  1  6
  7  5  1  0
  7  8  2  0
 10  9  1  0
 11 10  1  1
 11 12  1  0
 12  7  1  0
 13 11  1  0
 14 13  2  0
 15 13  1  0
 16 15  1  0
 16 17  1  6
 18 19  1  0
 18 17  1  0
 19 20  1  0
 20 21  1  0
 22 16  1  0
 23 22  1  0
 24 22  2  0
M  END
$$$$
