ISK.pdb
     RDKit          3D

 24 23  0  0  1  0  0  0  0  0999 V2000
    7.0046  -11.5222   27.5277 C   0  0  0  0  0  0  0  0  0  0  0  0
    6.2424  -12.4740   26.6660 C   0  0  0  0  0  0  0  0  0  0  0  0
    7.1108  -13.4074   25.8840 C   0  0  2  0  0  0  0  0  0  0  0  0
    8.0583  -12.6593   24.9834 C   0  0  0  0  0  0  0  0  0  0  0  0
    6.3454  -14.3990   25.0493 C   0  0  2  0  0  0  0  0  0  0  0  0
    5.3964  -15.1017   25.8840 N   0  0  0  0  0  0  0  0  0  0  0  0
    7.2331  -15.3599   24.3562 C   0  0  0  0  0  0  0  0  0  0  0  0
    7.6471  -16.3555   24.9997 O   0  0  0  0  0  0  0  0  0  0  0  0
    9.1063  -14.3620   20.8022 O   0  0  0  0  0  0  0  0  0  0  0  0
    8.6818  -15.7079   20.8797 C   0  0  0  0  0  0  0  0  0  0  0  0
    8.5263  -16.0469   22.3666 C   0  0  2  0  0  0  0  0  0  0  0  0
    7.6016  -15.1536   23.0002 N   0  0  0  0  0  0  0  0  0  0  0  0
    9.8604  -16.0435   23.0176 C   0  0  0  0  0  0  0  0  0  0  0  0
   10.2919  -14.9830   23.5391 O   0  0  0  0  0  0  0  0  0  0  0  0
   10.7002  -17.1800   23.0931 N   0  0  0  0  0  0  0  0  0  0  0  0
   11.9007  -17.2363   23.9386 C   0  0  1  0  0  0  0  0  0  0  0  0
   11.7329  -18.2577   25.0322 C   0  0  0  0  0  0  0  0  0  0  0  0
   12.9317  -18.4543   25.8893 C   0  0  0  0  0  0  0  0  0  0  0  0
   12.6700  -19.5708   26.8842 C   0  0  0  0  0  0  0  0  0  0  0  0
   13.8352  -19.7654   27.8227 C   0  0  0  0  0  0  0  0  0  0  0  0
   13.5296  -20.7640   28.8137 N   0  0  0  0  0  0  0  0  0  0  0  0
   13.1196  -17.3854   23.1474 C   0  0  0  0  0  0  0  0  0  0  0  0
   13.2053  -17.6506   21.8029 O   0  0  0  0  0  0  0  0  0  0  0  0
   14.2309  -17.2580   23.7602 O   0  0  0  0  0  0  0  0  0  0  0  0
  2  1  1  0
  3  4  1  6
  3  2  1  0
  3  5  1  0
  5  6  1  1
  7  5  1  0
  7  8  2  0
 10  9  1  0
 11 10  1  6
 11 12  1  0
 12  7  1  0
 13 11  1  0
 14 13  2  0
 15 13  1  0
 16 15  1  0
 16 17  1  1
 18 19  1  0
 18 17  1  0
 19 20  1  0
 20 21  1  0
 22 16  1  0
 23 22  1  0
 24 22  2  0
M  END
$$$$
