ISK.pdb
     RDKit          3D

 24 23  0  0  1  0  0  0  0  0999 V2000
    7.8691  -12.0508   19.0315 C   0  0  0  0  0  0  0  0  0  0  0  0
    7.3866  -13.1878   19.8707 C   0  0  0  0  0  0  0  0  0  0  0  0
    8.4536  -13.8101   20.7141 C   0  0  2  0  0  0  0  0  0  0  0  0
    9.6312  -14.2483   19.8836 C   0  0  0  0  0  0  0  0  0  0  0  0
    7.9817  -14.9859   21.5268 C   0  0  2  0  0  0  0  0  0  0  0  0
    6.7342  -14.6529   22.1780 N   0  0  0  0  0  0  0  0  0  0  0  0
    8.9840  -15.4228   22.5249 C   0  0  0  0  0  0  0  0  0  0  0  0
    9.1729  -14.6975   23.5324 O   0  0  0  0  0  0  0  0  0  0  0  0
   10.2517  -19.2213   22.8833 O   0  0  0  0  0  0  0  0  0  0  0  0
   10.6105  -18.2931   23.8869 C   0  0  0  0  0  0  0  0  0  0  0  0
   10.8146  -16.9395   23.1970 C   0  0  2  0  0  0  0  0  0  0  0  0
    9.7077  -16.6307   22.3402 N   0  0  0  0  0  0  0  0  0  0  0  0
   12.1118  -16.9418   22.4752 C   0  0  0  0  0  0  0  0  0  0  0  0
   12.1486  -17.2995   21.2696 O   0  0  0  0  0  0  0  0  0  0  0  0
   13.3397  -16.5598   23.0659 N   0  0  0  0  0  0  0  0  0  0  0  0
   14.5936  -16.4455   22.3084 C   0  0  1  0  0  0  0  0  0  0  0  0
   14.4605  -15.4223   21.2118 C   0  0  0  0  0  0  0  0  0  0  0  0
   15.6618  -15.2756   20.3482 C   0  0  0  0  0  0  0  0  0  0  0  0
   15.3896  -14.2463   19.2659 C   0  0  0  0  0  0  0  0  0  0  0  0
   16.5831  -14.0590   18.3621 C   0  0  0  0  0  0  0  0  0  0  0  0
   16.2824  -13.1254   17.3083 N   0  0  0  0  0  0  0  0  0  0  0  0
   15.7459  -16.2524   23.1852 C   0  0  0  0  0  0  0  0  0  0  0  0
   17.0642  -16.4881   22.8821 O   0  0  0  0  0  0  0  0  0  0  0  0
   15.5158  -15.8188   24.3624 O   0  0  0  0  0  0  0  0  0  0  0  0
  2  1  1  0
  3  4  1  6
  3  2  1  0
  3  5  1  0
  5  6  1  1
  7  5  1  0
  7  8  2  0
 10  9  1  0
 11 10  1  6
 11 12  1  0
 12  7  1  0
 13 11  1  0
 14 13  2  0
 15 13  1  0
 16 15  1  0
 16 17  1  6
 18 19  1  0
 18 17  1  0
 19 20  1  0
 20 21  1  0
 22 16  1  0
 23 22  1  0
 24 22  2  0
M  END
$$$$
