ISK.pdb
     RDKit          3D

 24 23  0  0  1  0  0  0  0  0999 V2000
    6.3766  -11.3617   26.8681 C   0  0  0  0  0  0  0  0  0  0  0  0
    5.9535  -12.6754   26.2981 C   0  0  0  0  0  0  0  0  0  0  0  0
    7.0736  -13.4576   25.6896 C   0  0  2  0  0  0  0  0  0  0  0  0
    7.7692  -12.6774   24.6052 C   0  0  0  0  0  0  0  0  0  0  0  0
    6.6529  -14.7871   25.1228 C   0  0  2  0  0  0  0  0  0  0  0  0
    5.9313  -15.5341   26.1290 N   0  0  0  0  0  0  0  0  0  0  0  0
    7.7999  -15.5758   24.6186 C   0  0  0  0  0  0  0  0  0  0  0  0
    8.4394  -16.2820   25.4365 O   0  0  0  0  0  0  0  0  0  0  0  0
    9.7799  -14.8562   21.0443 O   0  0  0  0  0  0  0  0  0  0  0  0
    9.3819  -16.1984   21.2382 C   0  0  0  0  0  0  0  0  0  0  0  0
    9.1852  -16.3972   22.7453 C   0  0  2  0  0  0  0  0  0  0  0  0
    8.1601  -15.5292   23.2456 N   0  0  0  0  0  0  0  0  0  0  0  0
   10.4820  -16.2104   23.4432 C   0  0  0  0  0  0  0  0  0  0  0  0
   10.6279  -15.2384   24.2285 O   0  0  0  0  0  0  0  0  0  0  0  0
   11.5924  -17.0726   23.2809 N   0  0  0  0  0  0  0  0  0  0  0  0
   12.3259  -17.6584   24.4114 C   0  0  1  0  0  0  0  0  0  0  0  0
   11.4346  -18.5774   25.2041 C   0  0  0  0  0  0  0  0  0  0  0  0
   12.1277  -19.3530   26.2663 C   0  0  0  0  0  0  0  0  0  0  0  0
   11.4448  -19.1133   27.6010 C   0  0  0  0  0  0  0  0  0  0  0  0
   12.1003  -19.8972   28.7110 C   0  0  0  0  0  0  0  0  0  0  0  0
   11.3422  -19.7854   29.9298 N   0  0  0  0  0  0  0  0  0  0  0  0
   13.5934  -18.2511   23.9920 C   0  0  0  0  0  0  0  0  0  0  0  0
   13.9162  -18.7121   22.7395 O   0  0  0  0  0  0  0  0  0  0  0  0
   14.5070  -18.3580   24.8755 O   0  0  0  0  0  0  0  0  0  0  0  0
  2  1  1  0
  3  4  1  6
  3  2  1  0
  3  5  1  0
  5  6  1  1
  7  5  1  0
  7  8  2  0
 10  9  1  0
 11 10  1  6
 11 12  1  0
 12  7  1  0
 13 11  1  0
 14 13  2  0
 15 13  1  0
 16 15  1  0
 16 17  1  6
 18 19  1  0
 18 17  1  0
 19 20  1  0
 20 21  1  0
 22 16  1  0
 23 22  1  0
 24 22  2  0
M  END
$$$$
