KGK.pdb
     RDKit          3D

 23 22  0  0  1  0  0  0  0  0999 V2000
    6.4743  -18.6738   21.7268 N   0  0  0  0  0  0  0  0  0  0  0  0
    7.0640  -18.3159   20.4599 C   0  0  1  0  0  0  0  0  0  0  0  0
    6.0867  -18.7226   19.3779 C   0  0  0  0  0  0  0  0  0  0  0  0
    5.4876  -20.0999   19.6626 C   0  0  0  0  0  0  0  0  0  0  0  0
    4.5295  -20.3930   18.5231 C   0  0  0  0  0  0  0  0  0  0  0  0
    3.8332  -21.7216   18.7115 C   0  0  0  0  0  0  0  0  0  0  0  0
    2.9170  -21.9951   17.6328 N   0  0  0  0  0  0  0  0  0  0  0  0
    7.2176  -16.8469   20.3821 C   0  0  0  0  0  0  0  0  0  0  0  0
    7.9428  -16.3567   19.4922 O   0  0  0  0  0  0  0  0  0  0  0  0
    6.5423  -16.0251   21.3141 N   0  0  0  0  0  0  0  0  0  0  0  0
    6.6543  -14.5913   21.3258 C   0  0  0  0  0  0  0  0  0  0  0  0
    7.8493  -14.1598   22.1179 C   0  0  0  0  0  0  0  0  0  0  0  0
    8.1888  -12.9528   22.0669 O   0  0  0  0  0  0  0  0  0  0  0  0
    8.5816  -15.0672   22.9013 N   0  0  0  0  0  0  0  0  0  0  0  0
    9.1878  -14.6463   24.2241 C   0  0  1  0  0  0  0  0  0  0  0  0
    7.9951  -14.3780   25.0505 C   0  0  0  0  0  0  0  0  0  0  0  0
    7.6350  -13.0735   25.5734 C   0  0  0  0  0  0  0  0  0  0  0  0
    6.5707  -12.8906   26.5830 C   0  0  0  0  0  0  0  0  0  0  0  0
    6.4910  -11.3499   26.8571 C   0  0  0  0  0  0  0  0  0  0  0  0
    5.3024  -11.0534   27.6135 N   0  0  0  0  0  0  0  0  0  0  0  0
   10.0509  -15.7707   24.5715 C   0  0  0  0  0  0  0  0  0  0  0  0
   11.2561  -15.6116   25.2925 O   0  0  0  0  0  0  0  0  0  0  0  0
    9.7874  -16.9394   24.2588 O   0  0  0  0  0  0  0  0  0  0  0  0
  2  1  1  1
  3  4  1  0
  3  2  1  0
  5  4  1  0
  5  6  1  0
  7  6  1  0
  8  2  1  0
  8  9  2  0
 10  8  1  0
 11 10  1  0
 11 12  1  0
 12 13  2  0
 12 14  1  0
 14 15  1  0
 15 16  1  1
 15 21  1  0
 17 16  1  0
 18 17  1  0
 19 18  1  0
 20 19  1  0
 21 23  2  0
 21 22  1  0
M  END
$$$$
