KGK.pdb
     RDKit          3D

 23 22  0  0  1  0  0  0  0  0999 V2000
    6.3393  -18.4833   20.2601 N   0  0  0  0  0  0  0  0  0  0  0  0
    7.4696  -17.5908   20.1770 C   0  0  1  0  0  0  0  0  0  0  0  0
    7.5658  -17.1192   18.7418 C   0  0  0  0  0  0  0  0  0  0  0  0
    8.0285  -18.2465   17.8188 C   0  0  0  0  0  0  0  0  0  0  0  0
    8.2180  -17.6253   16.4474 C   0  0  0  0  0  0  0  0  0  0  0  0
    8.7659  -18.6263   15.4558 C   0  0  0  0  0  0  0  0  0  0  0  0
    8.8360  -18.0699   14.1279 N   0  0  0  0  0  0  0  0  0  0  0  0
    7.2214  -16.3975   21.0147 C   0  0  0  0  0  0  0  0  0  0  0  0
    6.2720  -15.6393   20.7286 O   0  0  0  0  0  0  0  0  0  0  0  0
    8.0613  -16.1364   22.1222 N   0  0  0  0  0  0  0  0  0  0  0  0
    7.8910  -15.0015   22.9892 C   0  0  0  0  0  0  0  0  0  0  0  0
    8.7747  -15.1169   24.1923 C   0  0  0  0  0  0  0  0  0  0  0  0
    8.7103  -14.2152   25.0627 O   0  0  0  0  0  0  0  0  0  0  0  0
    9.6571  -16.1973   24.3584 N   0  0  0  0  0  0  0  0  0  0  0  0
   11.0777  -15.9802   24.8368 C   0  0  1  0  0  0  0  0  0  0  0  0
   11.3148  -17.1671   25.6809 C   0  0  0  0  0  0  0  0  0  0  0  0
   11.0040  -17.2438   27.0959 C   0  0  0  0  0  0  0  0  0  0  0  0
   11.2855  -18.4485   27.9051 C   0  0  0  0  0  0  0  0  0  0  0  0
   10.7065  -18.1593   29.3321 C   0  0  0  0  0  0  0  0  0  0  0  0
   11.0284  -19.2498   30.2154 N   0  0  0  0  0  0  0  0  0  0  0  0
   11.8317  -15.8324   23.5960 C   0  0  0  0  0  0  0  0  0  0  0  0
   13.1206  -15.2543   23.5521 O   0  0  0  0  0  0  0  0  0  0  0  0
   11.3947  -16.2024   22.4982 O   0  0  0  0  0  0  0  0  0  0  0  0
  2  1  1  6
  3  4  1  0
  3  2  1  0
  5  4  1  0
  5  6  1  0
  7  6  1  0
  8  2  1  0
  8  9  2  0
 10  8  1  0
 11 10  1  0
 11 12  1  0
 12 13  2  0
 12 14  1  0
 14 15  1  0
 15 16  1  6
 15 21  1  0
 17 16  1  0
 18 17  1  0
 19 18  1  0
 20 19  1  0
 21 23  2  0
 21 22  1  0
M  END
$$$$
