KGK.pdb
     RDKit          3D

 23 22  0  0  1  0  0  0  0  0999 V2000
   10.0869  -15.0026   17.3589 N   0  0  0  0  0  0  0  0  0  0  0  0
    9.0860  -14.1038   17.8800 C   0  0  1  0  0  0  0  0  0  0  0  0
    7.9383  -14.0877   16.8931 C   0  0  0  0  0  0  0  0  0  0  0  0
    8.4398  -14.2533   15.4585 C   0  0  0  0  0  0  0  0  0  0  0  0
    7.2111  -14.2139   14.5691 C   0  0  0  0  0  0  0  0  0  0  0  0
    7.5869  -14.1567   13.1059 C   0  0  0  0  0  0  0  0  0  0  0  0
    6.4205  -14.0593   12.2646 N   0  0  0  0  0  0  0  0  0  0  0  0
    8.5593  -14.6347   19.1560 C   0  0  0  0  0  0  0  0  0  0  0  0
    7.7114  -13.9715   19.7878 O   0  0  0  0  0  0  0  0  0  0  0  0
    9.0237  -15.8809   19.6371 N   0  0  0  0  0  0  0  0  0  0  0  0
    8.5331  -16.4916   20.8434 C   0  0  0  0  0  0  0  0  0  0  0  0
    8.9641  -15.7103   22.0457 C   0  0  0  0  0  0  0  0  0  0  0  0
   10.1344  -15.2580   22.0692 O   0  0  0  0  0  0  0  0  0  0  0  0
    8.0960  -15.4805   23.1259 N   0  0  0  0  0  0  0  0  0  0  0  0
    8.5644  -14.7403   24.3616 C   0  0  1  0  0  0  0  0  0  0  0  0
    7.3317  -14.0698   24.8181 C   0  0  0  0  0  0  0  0  0  0  0  0
    7.2657  -13.1416   25.9312 C   0  0  0  0  0  0  0  0  0  0  0  0
    5.9976  -12.5247   26.3746 C   0  0  0  0  0  0  0  0  0  0  0  0
    6.3665  -11.5851   27.5732 C   0  0  0  0  0  0  0  0  0  0  0  0
    5.1652  -11.0328   28.1430 N   0  0  0  0  0  0  0  0  0  0  0  0
    9.1429  -15.7957   25.1869 C   0  0  0  0  0  0  0  0  0  0  0  0
   10.1187  -15.5401   26.1769 O   0  0  0  0  0  0  0  0  0  0  0  0
    8.8195  -16.9858   25.0768 O   0  0  0  0  0  0  0  0  0  0  0  0
  2  1  1  6
  3  4  1  0
  3  2  1  0
  5  4  1  0
  5  6  1  0
  7  6  1  0
  8  2  1  0
  8  9  2  0
 10  8  1  0
 11 10  1  0
 11 12  1  0
 12 13  2  0
 12 14  1  0
 14 15  1  0
 15 16  1  1
 15 21  1  0
 17 16  1  0
 18 17  1  0
 19 18  1  0
 20 19  1  0
 21 23  2  0
 21 22  1  0
M  END
$$$$
