KGK.pdb
     RDKit          3D

 23 22  0  0  1  0  0  0  0  0999 V2000
    6.4646  -22.6827   19.9926 N   0  0  0  0  0  0  0  0  0  0  0  0
    7.0222  -21.3892   19.6812 C   0  0  1  0  0  0  0  0  0  0  0  0
    6.0340  -20.3466   20.1588 C   0  0  0  0  0  0  0  0  0  0  0  0
    4.6481  -20.9552   20.3735 C   0  0  0  0  0  0  0  0  0  0  0  0
    3.7838  -19.8538   20.9586 C   0  0  0  0  0  0  0  0  0  0  0  0
    2.3816  -20.3415   21.2441 C   0  0  0  0  0  0  0  0  0  0  0  0
    1.5535  -19.2872   21.7737 N   0  0  0  0  0  0  0  0  0  0  0  0
    8.2722  -21.1911   20.4464 C   0  0  0  0  0  0  0  0  0  0  0  0
    8.9663  -20.1771   20.2271 O   0  0  0  0  0  0  0  0  0  0  0  0
    8.6587  -22.1508   21.4106 N   0  0  0  0  0  0  0  0  0  0  0  0
    9.8722  -22.0528   22.1766 C   0  0  0  0  0  0  0  0  0  0  0  0
   10.0215  -20.6816   22.7590 C   0  0  0  0  0  0  0  0  0  0  0  0
   10.8652  -19.9085   22.2439 O   0  0  0  0  0  0  0  0  0  0  0  0
    9.2473  -20.2558   23.8510 N   0  0  0  0  0  0  0  0  0  0  0  0
    9.5793  -18.9784   24.5942 C   0  0  1  0  0  0  0  0  0  0  0  0
    8.3220  -18.2130   24.4902 C   0  0  0  0  0  0  0  0  0  0  0  0
    8.2388  -16.8203   24.0922 C   0  0  0  0  0  0  0  0  0  0  0  0
    6.9568  -16.0861   24.0402 C   0  0  0  0  0  0  0  0  0  0  0  0
    7.3111  -14.6220   23.6087 C   0  0  0  0  0  0  0  0  0  0  0  0
    6.1177  -13.8165   23.6035 N   0  0  0  0  0  0  0  0  0  0  0  0
   10.0118  -19.4540   25.9042 C   0  0  0  0  0  0  0  0  0  0  0  0
   10.9662  -18.7662   26.6875 O   0  0  0  0  0  0  0  0  0  0  0  0
    9.5734  -20.4914   26.4189 O   0  0  0  0  0  0  0  0  0  0  0  0
  2  1  1  1
  3  4  1  0
  3  2  1  0
  5  4  1  0
  5  6  1  0
  7  6  1  0
  8  2  1  0
  8  9  2  0
 10  8  1  0
 11 10  1  0
 11 12  1  0
 12 13  2  0
 12 14  1  0
 14 15  1  0
 15 16  1  1
 15 21  1  0
 17 16  1  0
 18 17  1  0
 19 18  1  0
 20 19  1  0
 21 23  2  0
 21 22  1  0
M  END
$$$$
