KGK.pdb
     RDKit          3D

 23 22  0  0  1  0  0  0  0  0999 V2000
    8.3631  -18.4478   19.9494 N   0  0  0  0  0  0  0  0  0  0  0  0
    9.7323  -18.9012   19.9292 C   0  0  1  0  0  0  0  0  0  0  0  0
    9.9328  -19.6696   18.6404 C   0  0  0  0  0  0  0  0  0  0  0  0
    9.2967  -21.0575   18.7191 C   0  0  0  0  0  0  0  0  0  0  0  0
    9.6936  -21.7822   17.4464 C   0  0  0  0  0  0  0  0  0  0  0  0
    9.0816  -23.1629   17.3803 C   0  0  0  0  0  0  0  0  0  0  0  0
    9.5649  -23.9006   16.2401 N   0  0  0  0  0  0  0  0  0  0  0  0
   10.6403  -17.7344   19.8894 C   0  0  0  0  0  0  0  0  0  0  0  0
   10.8533  -17.1655   18.7990 O   0  0  0  0  0  0  0  0  0  0  0  0
   11.2498  -17.2845   21.0836 N   0  0  0  0  0  0  0  0  0  0  0  0
   12.0375  -16.0836   21.1616 C   0  0  0  0  0  0  0  0  0  0  0  0
   12.5584  -15.8813   22.5506 C   0  0  0  0  0  0  0  0  0  0  0  0
   13.3621  -14.9382   22.7497 O   0  0  0  0  0  0  0  0  0  0  0  0
   12.1693  -16.7140   23.6128 N   0  0  0  0  0  0  0  0  0  0  0  0
   12.7089  -16.5005   25.0119 C   0  0  1  0  0  0  0  0  0  0  0  0
   11.4762  -16.3802   25.8141 C   0  0  0  0  0  0  0  0  0  0  0  0
   11.2794  -15.4126   26.8772 C   0  0  0  0  0  0  0  0  0  0  0  0
   10.0442  -15.3664   27.6880 C   0  0  0  0  0  0  0  0  0  0  0  0
   10.2204  -14.1675   28.6815 C   0  0  0  0  0  0  0  0  0  0  0  0
    9.0575  -14.0614   29.5236 N   0  0  0  0  0  0  0  0  0  0  0  0
   13.5770  -17.6554   25.2176 C   0  0  0  0  0  0  0  0  0  0  0  0
   14.5017  -17.7331   26.2837 O   0  0  0  0  0  0  0  0  0  0  0  0
   13.5634  -18.6450   24.4735 O   0  0  0  0  0  0  0  0  0  0  0  0
  2  1  1  6
  3  4  1  0
  3  2  1  0
  5  4  1  0
  5  6  1  0
  7  6  1  0
  8  2  1  0
  8  9  2  0
 10  8  1  0
 11 10  1  0
 11 12  1  0
 12 13  2  0
 12 14  1  0
 14 15  1  0
 15 16  1  1
 15 21  1  0
 17 16  1  0
 18 17  1  0
 19 18  1  0
 20 19  1  0
 21 23  2  0
 21 22  1  0
M  END
$$$$
