KGK.pdb
     RDKit          3D

 23 22  0  0  1  0  0  0  0  0999 V2000
    7.5699  -17.5413   18.6093 N   0  0  0  0  0  0  0  0  0  0  0  0
    8.8847  -16.9734   18.7822 C   0  0  1  0  0  0  0  0  0  0  0  0
    8.7751  -15.4905   18.4985 C   0  0  0  0  0  0  0  0  0  0  0  0
    7.9585  -15.2282   17.2330 C   0  0  0  0  0  0  0  0  0  0  0  0
    8.6707  -14.1145   16.4880 C   0  0  0  0  0  0  0  0  0  0  0  0
    7.9566  -13.7614   15.2033 C   0  0  0  0  0  0  0  0  0  0  0  0
    8.5963  -12.6594   14.5294 N   0  0  0  0  0  0  0  0  0  0  0  0
    9.3062  -17.1197   20.1923 C   0  0  0  0  0  0  0  0  0  0  0  0
   10.4609  -16.7782   20.5213 O   0  0  0  0  0  0  0  0  0  0  0  0
    8.3968  -17.6423   21.1410 N   0  0  0  0  0  0  0  0  0  0  0  0
    8.7487  -17.8959   22.5123 C   0  0  0  0  0  0  0  0  0  0  0  0
    9.0837  -16.6186   23.2180 C   0  0  0  0  0  0  0  0  0  0  0  0
   10.0571  -15.9476   22.7971 O   0  0  0  0  0  0  0  0  0  0  0  0
    8.3401  -16.1689   24.3217 N   0  0  0  0  0  0  0  0  0  0  0  0
    8.7445  -14.9226   25.0815 C   0  0  1  0  0  0  0  0  0  0  0  0
    7.4418  -14.3541   25.4780 C   0  0  0  0  0  0  0  0  0  0  0  0
    7.2733  -13.0853   26.1612 C   0  0  0  0  0  0  0  0  0  0  0  0
    5.9489  -12.5828   26.5842 C   0  0  0  0  0  0  0  0  0  0  0  0
    6.2139  -11.2272   27.3242 C   0  0  0  0  0  0  0  0  0  0  0  0
    4.9652  -10.6685   27.7733 N   0  0  0  0  0  0  0  0  0  0  0  0
    9.6375  -15.4343   26.1162 C   0  0  0  0  0  0  0  0  0  0  0  0
    9.7929  -16.8153   26.3736 O   0  0  0  0  0  0  0  0  0  0  0  0
   10.3191  -14.6951   26.8388 O   0  0  0  0  0  0  0  0  0  0  0  0
  2  1  1  1
  3  4  1  0
  3  2  1  0
  5  4  1  0
  5  6  1  0
  7  6  1  0
  8  2  1  0
  8  9  2  0
 10  8  1  0
 11 10  1  0
 11 12  1  0
 12 13  2  0
 12 14  1  0
 14 15  1  0
 15 16  1  1
 15 21  1  0
 17 16  1  0
 18 17  1  0
 19 18  1  0
 20 19  1  0
 21 23  2  0
 21 22  1  0
M  END
$$$$
