KGK.pdb
     RDKit          3D

 23 22  0  0  1  0  0  0  0  0999 V2000
    8.7222  -20.5850   22.5158 N   0  0  0  0  0  0  0  0  0  0  0  0
    9.0159  -20.7485   21.1130 C   0  0  1  0  0  0  0  0  0  0  0  0
    7.7033  -21.0112   20.4062 C   0  0  0  0  0  0  0  0  0  0  0  0
    7.6518  -22.4324   19.8451 C   0  0  0  0  0  0  0  0  0  0  0  0
    6.2584  -22.6156   19.2729 C   0  0  0  0  0  0  0  0  0  0  0  0
    6.0643  -24.0095   18.7209 C   0  0  0  0  0  0  0  0  0  0  0  0
    4.7145  -24.2104   18.2569 N   0  0  0  0  0  0  0  0  0  0  0  0
    9.5606  -19.4851   20.5702 C   0  0  0  0  0  0  0  0  0  0  0  0
    9.7735  -19.3909   19.3439 O   0  0  0  0  0  0  0  0  0  0  0  0
    9.8302  -18.4087   21.4469 N   0  0  0  0  0  0  0  0  0  0  0  0
   10.3484  -17.1425   21.0031 C   0  0  0  0  0  0  0  0  0  0  0  0
   10.4593  -16.1848   22.1486 C   0  0  0  0  0  0  0  0  0  0  0  0
   10.8911  -15.0299   21.9148 O   0  0  0  0  0  0  0  0  0  0  0  0
   10.0946  -16.5517   23.4546 N   0  0  0  0  0  0  0  0  0  0  0  0
   10.9398  -16.1480   24.6450 C   0  0  1  0  0  0  0  0  0  0  0  0
    9.9517  -16.1134   25.7405 C   0  0  0  0  0  0  0  0  0  0  0  0
   10.2678  -15.8030   27.1220 C   0  0  0  0  0  0  0  0  0  0  0  0
    9.7664  -14.5864   27.7956 C   0  0  0  0  0  0  0  0  0  0  0  0
   10.3564  -14.6180   29.2469 C   0  0  0  0  0  0  0  0  0  0  0  0
    9.9209  -13.4530   29.9722 N   0  0  0  0  0  0  0  0  0  0  0  0
   11.9898  -17.1611   24.6711 C   0  0  0  0  0  0  0  0  0  0  0  0
   13.3179  -16.8720   25.0588 O   0  0  0  0  0  0  0  0  0  0  0  0
   11.7901  -18.3417   24.3556 O   0  0  0  0  0  0  0  0  0  0  0  0
  2  1  1  1
  3  4  1  0
  3  2  1  0
  5  4  1  0
  5  6  1  0
  7  6  1  0
  8  2  1  0
  8  9  2  0
 10  8  1  0
 11 10  1  0
 11 12  1  0
 12 13  2  0
 12 14  1  0
 14 15  1  0
 15 16  1  1
 15 21  1  0
 17 16  1  0
 18 17  1  0
 19 18  1  0
 20 19  1  0
 21 23  2  0
 21 22  1  0
M  END
$$$$
