KGK.pdb
     RDKit          3D

 23 22  0  0  1  0  0  0  0  0999 V2000
    2.7514  -21.0617   18.7960 N   0  0  0  0  0  0  0  0  0  0  0  0
    2.6201  -19.8894   19.6264 C   0  0  1  0  0  0  0  0  0  0  0  0
    1.6990  -20.2505   20.7720 C   0  0  0  0  0  0  0  0  0  0  0  0
    2.0747  -21.6023   21.3791 C   0  0  0  0  0  0  0  0  0  0  0  0
    1.1129  -21.8364   22.5291 C   0  0  0  0  0  0  0  0  0  0  0  0
    1.3136  -23.1995   23.1515 C   0  0  0  0  0  0  0  0  0  0  0  0
    0.4086  -23.4156   24.2524 N   0  0  0  0  0  0  0  0  0  0  0  0
    3.9343  -19.5471   20.2120 C   0  0  0  0  0  0  0  0  0  0  0  0
    4.7798  -20.4498   20.3804 O   0  0  0  0  0  0  0  0  0  0  0  0
    4.2100  -18.2070   20.5702 N   0  0  0  0  0  0  0  0  0  0  0  0
    5.4613  -17.7860   21.1411 C   0  0  0  0  0  0  0  0  0  0  0  0
    5.4708  -18.0123   22.6210 C   0  0  0  0  0  0  0  0  0  0  0  0
    4.4249  -18.4489   23.1598 O   0  0  0  0  0  0  0  0  0  0  0  0
    6.6097  -17.7487   23.4000 N   0  0  0  0  0  0  0  0  0  0  0  0
    6.5700  -17.8707   24.9093 C   0  0  1  0  0  0  0  0  0  0  0  0
    7.6832  -18.7997   25.1835 C   0  0  0  0  0  0  0  0  0  0  0  0
    7.8981  -19.4727   26.4507 C   0  0  0  0  0  0  0  0  0  0  0  0
    8.9866  -19.0921   27.3756 C   0  0  0  0  0  0  0  0  0  0  0  0
    8.8012  -19.9787   28.6542 C   0  0  0  0  0  0  0  0  0  0  0  0
    9.8140  -19.6491   29.6231 N   0  0  0  0  0  0  0  0  0  0  0  0
    6.6753  -16.4873   25.3615 C   0  0  0  0  0  0  0  0  0  0  0  0
    7.2437  -15.4668   24.5657 O   0  0  0  0  0  0  0  0  0  0  0  0
    6.2750  -16.1127   26.4718 O   0  0  0  0  0  0  0  0  0  0  0  0
  2  1  1  6
  3  4  1  0
  3  2  1  0
  5  4  1  0
  5  6  1  0
  7  6  1  0
  8  2  1  0
  8  9  2  0
 10  8  1  0
 11 10  1  0
 11 12  1  0
 12 13  2  0
 12 14  1  0
 14 15  1  0
 15 16  1  1
 15 21  1  0
 17 16  1  0
 18 17  1  0
 19 18  1  0
 20 19  1  0
 21 23  2  0
 21 22  1  0
M  END
$$$$
