KGK.pdb
     RDKit          3D

 23 22  0  0  1  0  0  0  0  0999 V2000
    8.9630  -14.9267   18.3939 N   0  0  0  0  0  0  0  0  0  0  0  0
    8.9984  -13.7675   19.2517 C   0  0  1  0  0  0  0  0  0  0  0  0
    7.8587  -12.8633   18.8334 C   0  0  0  0  0  0  0  0  0  0  0  0
    6.8461  -13.6137   17.9682 C   0  0  0  0  0  0  0  0  0  0  0  0
    7.4357  -13.6688   16.5711 C   0  0  0  0  0  0  0  0  0  0  0  0
    6.4900  -14.3318   15.5956 C   0  0  0  0  0  0  0  0  0  0  0  0
    7.0554  -14.3935   14.2712 N   0  0  0  0  0  0  0  0  0  0  0  0
    8.7423  -14.1772   20.6495 C   0  0  0  0  0  0  0  0  0  0  0  0
    8.7923  -13.3191   21.5546 O   0  0  0  0  0  0  0  0  0  0  0  0
    8.4460  -15.5301   20.9361 N   0  0  0  0  0  0  0  0  0  0  0  0
    8.0086  -15.9834   22.2291 C   0  0  0  0  0  0  0  0  0  0  0  0
    9.1613  -16.0594   23.1815 C   0  0  0  0  0  0  0  0  0  0  0  0
   10.3075  -16.2542   22.7091 O   0  0  0  0  0  0  0  0  0  0  0  0
    8.9831  -15.9188   24.5678 N   0  0  0  0  0  0  0  0  0  0  0  0
   10.1538  -16.0329   25.5222 C   0  0  1  0  0  0  0  0  0  0  0  0
    9.6538  -15.3384   26.7244 C   0  0  0  0  0  0  0  0  0  0  0  0
   10.4158  -15.1597   27.9460 C   0  0  0  0  0  0  0  0  0  0  0  0
    9.8565  -14.4875   29.1378 C   0  0  0  0  0  0  0  0  0  0  0  0
   11.0090  -14.4526   30.1989 C   0  0  0  0  0  0  0  0  0  0  0  0
   10.5557  -13.7724   31.3841 N   0  0  0  0  0  0  0  0  0  0  0  0
   10.3974  -17.4703   25.5855 C   0  0  0  0  0  0  0  0  0  0  0  0
   11.6637  -18.0154   25.8972 O   0  0  0  0  0  0  0  0  0  0  0  0
    9.5132  -18.3101   25.3705 O   0  0  0  0  0  0  0  0  0  0  0  0
  2  1  1  6
  3  4  1  0
  3  2  1  0
  5  4  1  0
  5  6  1  0
  7  6  1  0
  8  2  1  0
  8  9  2  0
 10  8  1  0
 11 10  1  0
 11 12  1  0
 12 13  2  0
 12 14  1  0
 14 15  1  0
 15 16  1  1
 15 21  1  0
 17 16  1  0
 18 17  1  0
 19 18  1  0
 20 19  1  0
 21 23  2  0
 21 22  1  0
M  END
$$$$
