KGK.pdb
     RDKit          3D

 23 22  0  0  1  0  0  0  0  0999 V2000
    9.8402  -15.3274   17.9621 N   0  0  0  0  0  0  0  0  0  0  0  0
    9.0389  -14.3860   18.7055 C   0  0  1  0  0  0  0  0  0  0  0  0
    7.7284  -14.2271   17.9647 C   0  0  0  0  0  0  0  0  0  0  0  0
    7.8150  -14.8127   16.5553 C   0  0  0  0  0  0  0  0  0  0  0  0
    8.2502  -13.6778   15.6470 C   0  0  0  0  0  0  0  0  0  0  0  0
    8.1419  -14.0615   14.1888 C   0  0  0  0  0  0  0  0  0  0  0  0
    8.6230  -13.0094   13.3289 N   0  0  0  0  0  0  0  0  0  0  0  0
    8.7241  -14.9463   20.0376 C   0  0  0  0  0  0  0  0  0  0  0  0
    7.9463  -14.3256   20.7911 O   0  0  0  0  0  0  0  0  0  0  0  0
    9.3079  -16.1720   20.4337 N   0  0  0  0  0  0  0  0  0  0  0  0
    8.9573  -16.8542   21.6505 C   0  0  0  0  0  0  0  0  0  0  0  0
    9.1758  -15.9671   22.8367 C   0  0  0  0  0  0  0  0  0  0  0  0
   10.3556  -15.6692   23.1437 O   0  0  0  0  0  0  0  0  0  0  0  0
    8.1021  -15.4731   23.5959 N   0  0  0  0  0  0  0  0  0  0  0  0
    8.3388  -14.5795   24.7959 C   0  0  1  0  0  0  0  0  0  0  0  0
    6.9956  -14.0233   25.0491 C   0  0  0  0  0  0  0  0  0  0  0  0
    6.6467  -13.2109   26.1993 C   0  0  0  0  0  0  0  0  0  0  0  0
    5.9276  -11.9255   26.0730 C   0  0  0  0  0  0  0  0  0  0  0  0
    5.6905  -11.4139   27.5349 C   0  0  0  0  0  0  0  0  0  0  0  0
    5.0610  -10.1196   27.4990 N   0  0  0  0  0  0  0  0  0  0  0  0
    8.9266  -15.4843   25.7784 C   0  0  0  0  0  0  0  0  0  0  0  0
    9.0708  -16.8711   25.5466 O   0  0  0  0  0  0  0  0  0  0  0  0
    9.3386  -15.1002   26.8811 O   0  0  0  0  0  0  0  0  0  0  0  0
  2  1  1  6
  3  4  1  0
  3  2  1  0
  5  4  1  0
  5  6  1  0
  7  6  1  0
  8  2  1  0
  8  9  2  0
 10  8  1  0
 11 10  1  0
 11 12  1  0
 12 13  2  0
 12 14  1  0
 14 15  1  0
 15 16  1  1
 15 21  1  0
 17 16  1  0
 18 17  1  0
 19 18  1  0
 20 19  1  0
 21 23  2  0
 21 22  1  0
M  END
$$$$
