KGK.pdb
     RDKit          3D

 23 22  0  0  1  0  0  0  0  0999 V2000
    6.0296  -21.7829   21.8801 N   0  0  0  0  0  0  0  0  0  0  0  0
    4.8184  -21.1240   22.3041 C   0  0  1  0  0  0  0  0  0  0  0  0
    4.0409  -22.1113   23.1481 C   0  0  0  0  0  0  0  0  0  0  0  0
    3.6095  -23.3244   22.3239 C   0  0  0  0  0  0  0  0  0  0  0  0
    2.9214  -24.2730   23.2879 C   0  0  0  0  0  0  0  0  0  0  0  0
    2.2829  -25.4351   22.5618 C   0  0  0  0  0  0  0  0  0  0  0  0
    0.9576  -25.7051   23.0602 N   0  0  0  0  0  0  0  0  0  0  0  0
    5.1567  -19.9759   23.1729 C   0  0  0  0  0  0  0  0  0  0  0  0
    5.2773  -20.1571   24.4020 O   0  0  0  0  0  0  0  0  0  0  0  0
    5.3374  -18.6964   22.5982 N   0  0  0  0  0  0  0  0  0  0  0  0
    5.7998  -17.5566   23.3437 C   0  0  0  0  0  0  0  0  0  0  0  0
    7.1341  -17.1005   22.8404 C   0  0  0  0  0  0  0  0  0  0  0  0
    7.6803  -17.7644   21.9262 O   0  0  0  0  0  0  0  0  0  0  0  0
    7.7711  -15.9638   23.3653 N   0  0  0  0  0  0  0  0  0  0  0  0
    9.1156  -15.5073   22.8377 C   0  0  1  0  0  0  0  0  0  0  0  0
    8.8161  -14.1549   22.3293 C   0  0  0  0  0  0  0  0  0  0  0  0
    8.0011  -13.8785   21.1612 C   0  0  0  0  0  0  0  0  0  0  0  0
    8.5095  -13.1132   20.0031 C   0  0  0  0  0  0  0  0  0  0  0  0
    7.3174  -13.0120   18.9911 C   0  0  0  0  0  0  0  0  0  0  0  0
    7.7661  -12.3846   17.7755 N   0  0  0  0  0  0  0  0  0  0  0  0
    9.9963  -15.6501   23.9925 C   0  0  0  0  0  0  0  0  0  0  0  0
    9.5069  -15.7888   25.3112 O   0  0  0  0  0  0  0  0  0  0  0  0
   11.2307  -15.6592   23.8969 O   0  0  0  0  0  0  0  0  0  0  0  0
  2  1  1  1
  3  4  1  0
  3  2  1  0
  5  4  1  0
  5  6  1  0
  7  6  1  0
  8  2  1  0
  8  9  2  0
 10  8  1  0
 11 10  1  0
 11 12  1  0
 12 13  2  0
 12 14  1  0
 14 15  1  0
 15 16  1  1
 15 21  1  0
 17 16  1  0
 18 17  1  0
 19 18  1  0
 20 19  1  0
 21 23  2  0
 21 22  1  0
M  END
$$$$
