EDW.pdb
     RDKit          3D

 32 33  0  0  1  0  0  0  0  0999 V2000
   23.1105   -9.7543  -16.5603 N   0  0  0  0  0  0  0  0  0  0  0  0
   21.9533   -9.1436  -17.1574 C   0  0  1  0  0  0  0  0  0  0  0  0
   20.9756  -10.2146  -17.5900 C   0  0  0  0  0  0  0  0  0  0  0  0
   21.2848  -10.5712  -19.0352 C   0  0  0  0  0  0  0  0  0  0  0  0
   20.3229  -11.6227  -19.4433 C   0  0  0  0  0  0  0  0  0  0  0  0
   20.0720  -11.8233  -20.6598 O   0  0  0  0  0  0  0  0  0  0  0  0
   21.2607   -8.2382  -16.2071 C   0  0  0  0  0  0  0  0  0  0  0  0
   20.5955   -8.6579  -15.2301 O   0  0  0  0  0  0  0  0  0  0  0  0
   19.6728  -12.4136  -18.5101 O   0  0  0  0  0  0  0  0  0  0  0  0
   21.3726   -6.8175  -16.4393 N   0  0  0  0  0  0  0  0  0  0  0  0
   20.6765   -5.9431  -15.5482 C   0  0  1  0  0  0  0  0  0  0  0  0
   21.4691   -4.7028  -15.2239 C   0  0  0  0  0  0  0  0  0  0  0  0
   22.3912   -4.9233  -14.1009 C   0  0  0  0  0  0  0  0  0  0  0  0
   23.5675   -4.5079  -14.0987 O   0  0  0  0  0  0  0  0  0  0  0  0
   19.3704   -5.5427  -16.1723 C   0  0  0  0  0  0  0  0  0  0  0  0
   19.4085   -5.1395  -17.3698 O   0  0  0  0  0  0  0  0  0  0  0  0
   21.9663   -5.6198  -12.9793 O   0  0  0  0  0  0  0  0  0  0  0  0
   18.2070   -5.6359  -15.4100 N   0  0  0  0  0  0  0  0  0  0  0  0
   16.9061   -5.2578  -16.0061 C   0  0  1  0  0  0  0  0  0  0  0  0
   15.9687   -6.3346  -15.5549 C   0  0  0  0  0  0  0  0  0  0  0  0
   16.0808   -7.6023  -16.2992 C   0  0  0  0  0  0  0  0  0  0  0  0
   16.9045   -8.6946  -15.9629 C   0  0  0  0  0  0  0  0  0  0  0  0
   16.7725   -9.6485  -16.8770 N   0  0  0  0  0  0  0  0  0  0  0  0
   15.8954   -9.2750  -17.8355 C   0  0  0  0  0  0  0  0  0  0  0  0
   15.4167   -9.9044  -18.9647 C   0  0  0  0  0  0  0  0  0  0  0  0
   14.4871   -9.2169  -19.7262 C   0  0  0  0  0  0  0  0  0  0  0  0
   14.0541   -7.9527  -19.3734 C   0  0  0  0  0  0  0  0  0  0  0  0
   14.5376   -7.3469  -18.2568 C   0  0  0  0  0  0  0  0  0  0  0  0
   15.4668   -7.9971  -17.4693 C   0  0  0  0  0  0  0  0  0  0  0  0
   16.6305   -3.8988  -15.5328 C   0  0  0  0  0  0  0  0  0  0  0  0
   17.3610   -3.3130  -14.6964 O   0  0  0  0  0  0  0  0  0  0  0  0
   15.5289   -3.1384  -15.9739 O   0  0  0  0  0  0  0  0  0  0  0  0
  2  1  1  1
  2  3  1  0
  3  4  1  0
  4  5  1  0
  5  9  1  0
  5  6  2  0
  7  2  1  0
  8  7  2  0
 10  7  1  0
 11 10  1  0
 11 12  1  6
 13 12  1  0
 14 13  2  0
 15 11  1  0
 15 18  1  0
 16 15  2  0
 17 13  1  0
 19 30  1  0
 19 18  1  0
 19 20  1  1
 21 20  1  0
 21 22  2  0
 23 22  1  0
 24 23  1  0
 25 24  2  0
 26 25  1  0
 27 26  2  0
 27 28  1  0
 28 29  2  0
 29 24  1  0
 29 21  1  0
 30 32  1  0
 31 30  2  0
M  END
$$$$
