EDW.pdb
     RDKit          3D

 32 33  0  0  1  0  0  0  0  0999 V2000
   15.9598   -9.9597  -17.4369 N   0  0  0  0  0  0  0  0  0  0  0  0
   17.3145  -10.1588  -16.9967 C   0  0  1  0  0  0  0  0  0  0  0  0
   18.0782  -10.9524  -18.0345 C   0  0  0  0  0  0  0  0  0  0  0  0
   17.5377  -12.3734  -18.0248 C   0  0  0  0  0  0  0  0  0  0  0  0
   18.2502  -13.1067  -16.9515 C   0  0  0  0  0  0  0  0  0  0  0  0
   17.7289  -13.2425  -15.8144 O   0  0  0  0  0  0  0  0  0  0  0  0
   18.0173   -8.8684  -16.7883 C   0  0  0  0  0  0  0  0  0  0  0  0
   19.0471   -8.5442  -17.4266 O   0  0  0  0  0  0  0  0  0  0  0  0
   19.5019  -13.6626  -17.1595 O   0  0  0  0  0  0  0  0  0  0  0  0
   17.4723   -7.9650  -15.8025 N   0  0  0  0  0  0  0  0  0  0  0  0
   18.1810   -6.7487  -15.5542 C   0  0  1  0  0  0  0  0  0  0  0  0
   17.3649   -5.7592  -14.7625 C   0  0  0  0  0  0  0  0  0  0  0  0
   16.1425   -5.3653  -15.4771 C   0  0  0  0  0  0  0  0  0  0  0  0
   16.1309   -5.0738  -16.6899 O   0  0  0  0  0  0  0  0  0  0  0  0
   19.4427   -7.0594  -14.8013 C   0  0  0  0  0  0  0  0  0  0  0  0
   19.3916   -8.0065  -13.9655 O   0  0  0  0  0  0  0  0  0  0  0  0
   14.9321   -5.3053  -14.8025 O   0  0  0  0  0  0  0  0  0  0  0  0
   20.5823   -6.2994  -15.0605 N   0  0  0  0  0  0  0  0  0  0  0  0
   21.9007   -6.7630  -14.5734 C   0  0  1  0  0  0  0  0  0  0  0  0
   22.2299   -7.9266  -15.4563 C   0  0  0  0  0  0  0  0  0  0  0  0
   23.4143   -8.7005  -15.0416 C   0  0  0  0  0  0  0  0  0  0  0  0
   23.5137   -9.5233  -13.9025 C   0  0  0  0  0  0  0  0  0  0  0  0
   24.7369  -10.0344  -13.8290 N   0  0  0  0  0  0  0  0  0  0  0  0
   25.4967   -9.6085  -14.8629 C   0  0  0  0  0  0  0  0  0  0  0  0
   26.7994   -9.8618  -15.2355 C   0  0  0  0  0  0  0  0  0  0  0  0
   27.2552   -9.2569  -16.3943 C   0  0  0  0  0  0  0  0  0  0  0  0
   26.4421   -8.4328  -17.1493 C   0  0  0  0  0  0  0  0  0  0  0  0
   25.1601   -8.1935  -16.7663 C   0  0  0  0  0  0  0  0  0  0  0  0
   24.6657   -8.7764  -15.6165 C   0  0  0  0  0  0  0  0  0  0  0  0
   22.7873   -5.5992  -14.6536 C   0  0  0  0  0  0  0  0  0  0  0  0
   22.7000   -4.7447  -15.5693 O   0  0  0  0  0  0  0  0  0  0  0  0
   23.8068   -5.3417  -13.7152 O   0  0  0  0  0  0  0  0  0  0  0  0
  2  1  1  6
  2  3  1  0
  3  4  1  0
  4  5  1  0
  5  9  1  0
  5  6  2  0
  7  2  1  0
  8  7  2  0
 10  7  1  0
 11 10  1  0
 11 12  1  1
 13 12  1  0
 14 13  2  0
 15 11  1  0
 15 18  1  0
 16 15  2  0
 17 13  1  0
 19 30  1  0
 19 18  1  0
 19 20  1  6
 21 20  1  0
 21 22  2  0
 23 22  1  0
 24 23  1  0
 25 24  2  0
 26 25  1  0
 27 26  2  0
 27 28  1  0
 28 29  2  0
 29 24  1  0
 29 21  1  0
 30 32  1  0
 31 30  2  0
M  END
$$$$
