EDW.pdb
     RDKit          3D

 32 33  0  0  1  0  0  0  0  0999 V2000
   18.3292  -10.1374  -14.2570 N   0  0  0  0  0  0  0  0  0  0  0  0
   17.1352   -9.5138  -13.7530 C   0  0  1  0  0  0  0  0  0  0  0  0
   16.6180  -10.2883  -12.5601 C   0  0  0  0  0  0  0  0  0  0  0  0
   16.1064  -11.6292  -13.0617 C   0  0  0  0  0  0  0  0  0  0  0  0
   14.7061  -11.4273  -13.5038 C   0  0  0  0  0  0  0  0  0  0  0  0
   14.1425  -10.3122  -13.3552 O   0  0  0  0  0  0  0  0  0  0  0  0
   17.3871   -8.1151  -13.3254 C   0  0  0  0  0  0  0  0  0  0  0  0
   18.4786   -7.7403  -12.8344 O   0  0  0  0  0  0  0  0  0  0  0  0
   13.9755  -12.4479  -14.0901 O   0  0  0  0  0  0  0  0  0  0  0  0
   16.3133   -7.1643  -13.4922 N   0  0  0  0  0  0  0  0  0  0  0  0
   16.5721   -5.8033  -13.1403 C   0  0  1  0  0  0  0  0  0  0  0  0
   16.5352   -4.8838  -14.3340 C   0  0  0  0  0  0  0  0  0  0  0  0
   16.8312   -3.4935  -13.9606 C   0  0  0  0  0  0  0  0  0  0  0  0
   17.8108   -3.1750  -13.2570 O   0  0  0  0  0  0  0  0  0  0  0  0
   15.5481   -5.3507  -12.1392 C   0  0  0  0  0  0  0  0  0  0  0  0
   14.3440   -5.6548  -12.3753 O   0  0  0  0  0  0  0  0  0  0  0  0
   16.0052   -2.4669  -14.3933 O   0  0  0  0  0  0  0  0  0  0  0  0
   15.9738   -4.6321  -11.0232 N   0  0  0  0  0  0  0  0  0  0  0  0
   14.9843   -4.1786  -10.0203 C   0  0  1  0  0  0  0  0  0  0  0  0
   15.4740   -4.7624   -8.7314 C   0  0  0  0  0  0  0  0  0  0  0  0
   15.2081   -6.2031   -8.5658 C   0  0  0  0  0  0  0  0  0  0  0  0
   16.1441   -7.2448   -8.7174 C   0  0  0  0  0  0  0  0  0  0  0  0
   15.5432   -8.4133   -8.5263 N   0  0  0  0  0  0  0  0  0  0  0  0
   14.2321   -8.2375   -8.2478 C   0  0  0  0  0  0  0  0  0  0  0  0
   13.2084   -9.1157   -7.9630 C   0  0  0  0  0  0  0  0  0  0  0  0
   11.9628   -8.5717   -7.7002 C   0  0  0  0  0  0  0  0  0  0  0  0
   11.7495   -7.2062   -7.7211 C   0  0  0  0  0  0  0  0  0  0  0  0
   12.7706   -6.3551   -8.0047 C   0  0  0  0  0  0  0  0  0  0  0  0
   14.0289   -6.8558   -8.2735 C   0  0  0  0  0  0  0  0  0  0  0  0
   14.9589   -2.7169  -10.1178 C   0  0  0  0  0  0  0  0  0  0  0  0
   15.7030   -2.0785  -10.9021 O   0  0  0  0  0  0  0  0  0  0  0  0
   14.1018   -1.9084   -9.3444 O   0  0  0  0  0  0  0  0  0  0  0  0
  2  1  1  1
  2  3  1  0
  3  4  1  0
  4  5  1  0
  5  9  1  0
  5  6  2  0
  7  2  1  0
  8  7  2  0
 10  7  1  0
 11 10  1  0
 11 12  1  6
 13 12  1  0
 14 13  2  0
 15 11  1  0
 15 18  1  0
 16 15  2  0
 17 13  1  0
 19 30  1  0
 19 18  1  0
 19 20  1  1
 21 20  1  0
 21 22  2  0
 23 22  1  0
 24 23  1  0
 25 24  2  0
 26 25  1  0
 27 26  2  0
 27 28  1  0
 28 29  2  0
 29 24  1  0
 29 21  1  0
 30 32  1  0
 31 30  2  0
M  END
$$$$
