EDW.pdb
     RDKit          3D

 32 33  0  0  1  0  0  0  0  0999 V2000
   23.5534  -20.2948  -18.1629 N   0  0  0  0  0  0  0  0  0  0  0  0
   23.5966  -19.6460  -16.8800 C   0  0  1  0  0  0  0  0  0  0  0  0
   22.2405  -19.7374  -16.2147 C   0  0  0  0  0  0  0  0  0  0  0  0
   21.1903  -19.8373  -17.3094 C   0  0  0  0  0  0  0  0  0  0  0  0
   21.5609  -18.8631  -18.3634 C   0  0  0  0  0  0  0  0  0  0  0  0
   21.5075  -19.1840  -19.5789 O   0  0  0  0  0  0  0  0  0  0  0  0
   24.5981  -20.2739  -15.9827 C   0  0  0  0  0  0  0  0  0  0  0  0
   24.7965  -21.5118  -15.9458 O   0  0  0  0  0  0  0  0  0  0  0  0
   21.9748  -17.5784  -18.0515 O   0  0  0  0  0  0  0  0  0  0  0  0
   25.3638  -19.4005  -15.1249 N   0  0  0  0  0  0  0  0  0  0  0  0
   26.3680  -19.9952  -14.2996 C   0  0  1  0  0  0  0  0  0  0  0  0
   27.4542  -19.0204  -13.9232 C   0  0  0  0  0  0  0  0  0  0  0  0
   28.2863  -18.6583  -15.0793 C   0  0  0  0  0  0  0  0  0  0  0  0
   28.2579  -17.5283  -15.6069 O   0  0  0  0  0  0  0  0  0  0  0  0
   25.7270  -20.5242  -13.0487 C   0  0  0  0  0  0  0  0  0  0  0  0
   24.4701  -20.4200  -12.9620 O   0  0  0  0  0  0  0  0  0  0  0  0
   29.1517  -19.5907  -15.6318 O   0  0  0  0  0  0  0  0  0  0  0  0
   26.5390  -21.0915  -12.0679 N   0  0  0  0  0  0  0  0  0  0  0  0
   25.9328  -21.6051  -10.8192 C   0  0  1  0  0  0  0  0  0  0  0  0
   27.0973  -21.7978   -9.8980 C   0  0  0  0  0  0  0  0  0  0  0  0
   27.2186  -20.7827   -8.8356 C   0  0  0  0  0  0  0  0  0  0  0  0
   26.2813  -19.7742   -8.5375 C   0  0  0  0  0  0  0  0  0  0  0  0
   26.7383  -19.0230   -7.5427 N   0  0  0  0  0  0  0  0  0  0  0  0
   27.9499  -19.4590   -7.1311 C   0  0  0  0  0  0  0  0  0  0  0  0
   28.8121  -19.0357   -6.1424 C   0  0  0  0  0  0  0  0  0  0  0  0
   29.9886  -19.7474   -5.9814 C   0  0  0  0  0  0  0  0  0  0  0  0
   30.2905  -20.8372   -6.7761 C   0  0  0  0  0  0  0  0  0  0  0  0
   29.4287  -21.2401   -7.7469 C   0  0  0  0  0  0  0  0  0  0  0  0
   28.2443  -20.5578   -7.9416 C   0  0  0  0  0  0  0  0  0  0  0  0
   24.9326  -20.6104  -10.4230 C   0  0  0  0  0  0  0  0  0  0  0  0
   23.9345  -20.8989   -9.7181 O   0  0  0  0  0  0  0  0  0  0  0  0
   25.0058  -19.2535  -10.7970 O   0  0  0  0  0  0  0  0  0  0  0  0
  2  1  1  6
  2  3  1  0
  3  4  1  0
  4  5  1  0
  5  9  1  0
  5  6  2  0
  7  2  1  0
  8  7  2  0
 10  7  1  0
 11 10  1  0
 11 12  1  1
 13 12  1  0
 14 13  2  0
 15 11  1  0
 15 18  1  0
 16 15  2  0
 17 13  1  0
 19 30  1  0
 19 18  1  0
 19 20  1  1
 21 20  1  0
 21 22  2  0
 23 22  1  0
 24 23  1  0
 25 24  2  0
 26 25  1  0
 27 26  2  0
 27 28  1  0
 28 29  2  0
 29 24  1  0
 29 21  1  0
 30 32  1  0
 31 30  2  0
M  END
$$$$
