EDW.pdb
     RDKit          3D

 32 33  0  0  1  0  0  0  0  0999 V2000
   29.6108  -18.6438  -16.1280 N   0  0  0  0  0  0  0  0  0  0  0  0
   28.3343  -18.9838  -16.6970 C   0  0  1  0  0  0  0  0  0  0  0  0
   28.3617  -20.4114  -17.1985 C   0  0  0  0  0  0  0  0  0  0  0  0
   29.2492  -21.2168  -16.2630 C   0  0  0  0  0  0  0  0  0  0  0  0
   29.3972  -22.5682  -16.8538 C   0  0  0  0  0  0  0  0  0  0  0  0
   30.4309  -22.8731  -17.5031 O   0  0  0  0  0  0  0  0  0  0  0  0
   27.2412  -18.8620  -15.7006 C   0  0  0  0  0  0  0  0  0  0  0  0
   27.4315  -18.4586  -14.5284 O   0  0  0  0  0  0  0  0  0  0  0  0
   28.4135  -23.5336  -16.7138 O   0  0  0  0  0  0  0  0  0  0  0  0
   25.9106  -19.2301  -16.1237 N   0  0  0  0  0  0  0  0  0  0  0  0
   24.8355  -18.9923  -15.2123 C   0  0  1  0  0  0  0  0  0  0  0  0
   23.6209  -18.4161  -15.8938 C   0  0  0  0  0  0  0  0  0  0  0  0
   22.8505  -17.5477  -14.9924 C   0  0  0  0  0  0  0  0  0  0  0  0
   23.1506  -17.3798  -13.7933 O   0  0  0  0  0  0  0  0  0  0  0  0
   24.4592  -20.2852  -14.5474 C   0  0  0  0  0  0  0  0  0  0  0  0
   24.4327  -21.3172  -15.2770 O   0  0  0  0  0  0  0  0  0  0  0  0
   21.7357  -16.8709  -15.4643 O   0  0  0  0  0  0  0  0  0  0  0  0
   24.1645  -20.2772  -13.1849 N   0  0  0  0  0  0  0  0  0  0  0  0
   23.7412  -21.5287  -12.5176 C   0  0  1  0  0  0  0  0  0  0  0  0
   24.9872  -22.0324  -11.8576 C   0  0  0  0  0  0  0  0  0  0  0  0
   25.4565  -21.2181  -10.7217 C   0  0  0  0  0  0  0  0  0  0  0  0
   24.6439  -20.5350   -9.7957 C   0  0  0  0  0  0  0  0  0  0  0  0
   25.4095  -19.8793   -8.9316 N   0  0  0  0  0  0  0  0  0  0  0  0
   26.7184  -20.0722   -9.2094 C   0  0  0  0  0  0  0  0  0  0  0  0
   27.8787  -19.6298   -8.6109 C   0  0  0  0  0  0  0  0  0  0  0  0
   29.0761  -20.0510   -9.1636 C   0  0  0  0  0  0  0  0  0  0  0  0
   29.1119  -20.8801  -10.2689 C   0  0  0  0  0  0  0  0  0  0  0  0
   27.9576  -21.3060  -10.8467 C   0  0  0  0  0  0  0  0  0  0  0  0
   26.7414  -20.9089  -10.3276 C   0  0  0  0  0  0  0  0  0  0  0  0
   22.6304  -21.1556  -11.6379 C   0  0  0  0  0  0  0  0  0  0  0  0
   22.3874  -19.9646  -11.3238 O   0  0  0  0  0  0  0  0  0  0  0  0
   21.7457  -22.0963  -11.0735 O   0  0  0  0  0  0  0  0  0  0  0  0
  2  1  1  1
  2  3  1  0
  3  4  1  0
  4  5  1  0
  5  9  1  0
  5  6  2  0
  7  2  1  0
  8  7  2  0
 10  7  1  0
 11 10  1  0
 11 12  1  6
 13 12  1  0
 14 13  2  0
 15 11  1  0
 15 18  1  0
 16 15  2  0
 17 13  1  0
 19 30  1  0
 19 18  1  0
 19 20  1  1
 21 20  1  0
 21 22  2  0
 23 22  1  0
 24 23  1  0
 25 24  2  0
 26 25  1  0
 27 26  2  0
 27 28  1  0
 28 29  2  0
 29 24  1  0
 29 21  1  0
 30 32  1  0
 31 30  2  0
M  END
$$$$
