EDW.pdb
     RDKit          3D

 32 33  0  0  1  0  0  0  0  0999 V2000
   26.8462  -22.7858  -15.8919 N   0  0  0  0  0  0  0  0  0  0  0  0
   27.6196  -21.6628  -15.4342 C   0  0  1  0  0  0  0  0  0  0  0  0
   27.8745  -20.7141  -16.5853 C   0  0  0  0  0  0  0  0  0  0  0  0
   26.5591  -20.5083  -17.3194 C   0  0  0  0  0  0  0  0  0  0  0  0
   26.7418  -21.0193  -18.6988 C   0  0  0  0  0  0  0  0  0  0  0  0
   26.9212  -22.2470  -18.9081 O   0  0  0  0  0  0  0  0  0  0  0  0
   26.9169  -20.9149  -14.3621 C   0  0  0  0  0  0  0  0  0  0  0  0
   27.3891  -19.8805  -13.8330 O   0  0  0  0  0  0  0  0  0  0  0  0
   26.7218  -20.1727  -19.7952 O   0  0  0  0  0  0  0  0  0  0  0  0
   25.6364  -21.4207  -13.9270 N   0  0  0  0  0  0  0  0  0  0  0  0
   24.9535  -20.6999  -12.8987 C   0  0  1  0  0  0  0  0  0  0  0  0
   23.4589  -20.8839  -12.9631 C   0  0  0  0  0  0  0  0  0  0  0  0
   22.8572  -20.0846  -14.0397 C   0  0  0  0  0  0  0  0  0  0  0  0
   22.0062  -20.5422  -14.8287 O   0  0  0  0  0  0  0  0  0  0  0  0
   25.4489  -21.1657  -11.5596 C   0  0  0  0  0  0  0  0  0  0  0  0
   25.6656  -22.4042  -11.4289 O   0  0  0  0  0  0  0  0  0  0  0  0
   23.2300  -18.7600  -14.2131 O   0  0  0  0  0  0  0  0  0  0  0  0
   25.6394  -20.2228  -10.5506 N   0  0  0  0  0  0  0  0  0  0  0  0
   26.0274  -20.6678   -9.1934 C   0  0  1  0  0  0  0  0  0  0  0  0
   26.9606  -19.6012   -8.7102 C   0  0  0  0  0  0  0  0  0  0  0  0
   27.9596  -20.0549   -7.7253 C   0  0  0  0  0  0  0  0  0  0  0  0
   28.9238  -21.0629   -7.9221 C   0  0  0  0  0  0  0  0  0  0  0  0
   29.6290  -21.2264   -6.8090 N   0  0  0  0  0  0  0  0  0  0  0  0
   29.2039  -20.3803   -5.8443 C   0  0  0  0  0  0  0  0  0  0  0  0
   29.6135  -20.1557   -4.5473 C   0  0  0  0  0  0  0  0  0  0  0  0
   28.9489  -19.1721   -3.8352 C   0  0  0  0  0  0  0  0  0  0  0  0
   27.9174  -18.4431   -4.3964 C   0  0  0  0  0  0  0  0  0  0  0  0
   27.5262  -18.6786   -5.6767 C   0  0  0  0  0  0  0  0  0  0  0  0
   28.1619  -19.6514   -6.4221 C   0  0  0  0  0  0  0  0  0  0  0  0
   24.7731  -20.8346   -8.4546 C   0  0  0  0  0  0  0  0  0  0  0  0
   23.7131  -20.2462   -8.7806 O   0  0  0  0  0  0  0  0  0  0  0  0
   24.6510  -21.6650   -7.3224 O   0  0  0  0  0  0  0  0  0  0  0  0
  2  1  1  6
  2  3  1  0
  3  4  1  0
  4  5  1  0
  5  9  1  0
  5  6  2  0
  7  2  1  0
  8  7  2  0
 10  7  1  0
 11 10  1  0
 11 12  1  1
 13 12  1  0
 14 13  2  0
 15 11  1  0
 15 18  1  0
 16 15  2  0
 17 13  1  0
 19 30  1  0
 19 18  1  0
 19 20  1  1
 21 20  1  0
 21 22  2  0
 23 22  1  0
 24 23  1  0
 25 24  2  0
 26 25  1  0
 27 26  2  0
 27 28  1  0
 28 29  2  0
 29 24  1  0
 29 21  1  0
 30 32  1  0
 31 30  2  0
M  END
$$$$
