EDW.pdb
     RDKit          3D

 32 33  0  0  1  0  0  0  0  0999 V2000
   23.4405  -23.3323  -15.6423 N   0  0  0  0  0  0  0  0  0  0  0  0
   24.8171  -23.5782  -15.9784 C   0  0  1  0  0  0  0  0  0  0  0  0
   25.0423  -23.2994  -17.4487 C   0  0  0  0  0  0  0  0  0  0  0  0
   23.9073  -22.4118  -17.9337 C   0  0  0  0  0  0  0  0  0  0  0  0
   23.2973  -23.0812  -19.1072 C   0  0  0  0  0  0  0  0  0  0  0  0
   22.2009  -23.6889  -18.9991 O   0  0  0  0  0  0  0  0  0  0  0  0
   25.7345  -22.7134  -15.1954 C   0  0  0  0  0  0  0  0  0  0  0  0
   26.9832  -22.8025  -15.2712 O   0  0  0  0  0  0  0  0  0  0  0  0
   23.9059  -23.0621  -20.3516 O   0  0  0  0  0  0  0  0  0  0  0  0
   25.1389  -21.7356  -14.3156 N   0  0  0  0  0  0  0  0  0  0  0  0
   26.0151  -20.9688  -13.4865 C   0  0  1  0  0  0  0  0  0  0  0  0
   25.8289  -19.4846  -13.6714 C   0  0  0  0  0  0  0  0  0  0  0  0
   26.2825  -19.0392  -14.9965 C   0  0  0  0  0  0  0  0  0  0  0  0
   27.4870  -18.8954  -15.2872 O   0  0  0  0  0  0  0  0  0  0  0  0
   25.7642  -21.3204  -12.0481 C   0  0  0  0  0  0  0  0  0  0  0  0
   24.6046  -21.7282  -11.7528 O   0  0  0  0  0  0  0  0  0  0  0  0
   25.3562  -18.7583  -15.9898 O   0  0  0  0  0  0  0  0  0  0  0  0
   26.8058  -21.1802  -11.1324 N   0  0  0  0  0  0  0  0  0  0  0  0
   26.5471  -21.3817   -9.6891 C   0  0  1  0  0  0  0  0  0  0  0  0
   27.8986  -21.2688   -9.0546 C   0  0  0  0  0  0  0  0  0  0  0  0
   27.9585  -20.3731   -7.8851 C   0  0  0  0  0  0  0  0  0  0  0  0
   27.2874  -19.1426   -7.7441 C   0  0  0  0  0  0  0  0  0  0  0  0
   27.6022  -18.5961   -6.5757 N   0  0  0  0  0  0  0  0  0  0  0  0
   28.4607  -19.3866   -5.8933 C   0  0  0  0  0  0  0  0  0  0  0  0
   29.0573  -19.2733   -4.6558 C   0  0  0  0  0  0  0  0  0  0  0  0
   29.8859  -20.3076   -4.2557 C   0  0  0  0  0  0  0  0  0  0  0  0
   30.1088  -21.4096   -5.0596 C   0  0  0  0  0  0  0  0  0  0  0  0
   29.5127  -21.5042   -6.2775 C   0  0  0  0  0  0  0  0  0  0  0  0
   28.6792  -20.4944   -6.7155 C   0  0  0  0  0  0  0  0  0  0  0  0
   25.5543  -20.3704   -9.3170 C   0  0  0  0  0  0  0  0  0  0  0  0
   25.4760  -19.2565   -9.8908 O   0  0  0  0  0  0  0  0  0  0  0  0
   24.6085  -20.5613   -8.2897 O   0  0  0  0  0  0  0  0  0  0  0  0
  2  1  1  1
  2  3  1  0
  3  4  1  0
  4  5  1  0
  5  9  1  0
  5  6  2  0
  7  2  1  0
  8  7  2  0
 10  7  1  0
 11 10  1  0
 11 12  1  1
 13 12  1  0
 14 13  2  0
 15 11  1  0
 15 18  1  0
 16 15  2  0
 17 13  1  0
 19 30  1  0
 19 18  1  0
 19 20  1  1
 21 20  1  0
 21 22  2  0
 23 22  1  0
 24 23  1  0
 25 24  2  0
 26 25  1  0
 27 26  2  0
 27 28  1  0
 28 29  2  0
 29 24  1  0
 29 21  1  0
 30 32  1  0
 31 30  2  0
M  END
$$$$
