EDW.pdb
     RDKit          3D

 32 33  0  0  1  0  0  0  0  0999 V2000
   14.0471  -19.8096    3.0594 N   0  0  0  0  0  0  0  0  0  0  0  0
   14.3102  -19.8783    4.4717 C   0  0  1  0  0  0  0  0  0  0  0  0
   14.8811  -21.2358    4.8203 C   0  0  0  0  0  0  0  0  0  0  0  0
   16.1018  -21.4668    3.9440 C   0  0  0  0  0  0  0  0  0  0  0  0
   15.8704  -22.7226    3.1912 C   0  0  0  0  0  0  0  0  0  0  0  0
   14.8110  -23.3814    3.3557 O   0  0  0  0  0  0  0  0  0  0  0  0
   15.2827  -18.8415    4.8982 C   0  0  0  0  0  0  0  0  0  0  0  0
   15.7600  -17.9914    4.1092 O   0  0  0  0  0  0  0  0  0  0  0  0
   16.8019  -23.2108    2.2896 O   0  0  0  0  0  0  0  0  0  0  0  0
   15.6807  -18.8327    6.2861 N   0  0  0  0  0  0  0  0  0  0  0  0
   16.4589  -17.7253    6.7458 C   0  0  1  0  0  0  0  0  0  0  0  0
   15.8635  -17.0716    7.9664 C   0  0  0  0  0  0  0  0  0  0  0  0
   15.7357  -18.0177    9.0838 C   0  0  0  0  0  0  0  0  0  0  0  0
   16.0513  -19.2210    8.9920 O   0  0  0  0  0  0  0  0  0  0  0  0
   17.8465  -18.1998    7.0695 C   0  0  0  0  0  0  0  0  0  0  0  0
   17.9825  -19.4268    7.3419 O   0  0  0  0  0  0  0  0  0  0  0  0
   15.2462  -17.5857   10.3075 O   0  0  0  0  0  0  0  0  0  0  0  0
   18.8913  -17.2771    7.0525 N   0  0  0  0  0  0  0  0  0  0  0  0
   20.2783  -17.7336    7.2943 C   0  0  1  0  0  0  0  0  0  0  0  0
   21.0987  -16.9477    6.3189 C   0  0  0  0  0  0  0  0  0  0  0  0
   21.1173  -15.4932    6.5589 C   0  0  0  0  0  0  0  0  0  0  0  0
   21.9041  -14.8171    7.5118 C   0  0  0  0  0  0  0  0  0  0  0  0
   21.6350  -13.5176    7.4688 N   0  0  0  0  0  0  0  0  0  0  0  0
   20.6981  -13.2535    6.5308 C   0  0  0  0  0  0  0  0  0  0  0  0
   20.1056  -12.0856    6.1005 C   0  0  0  0  0  0  0  0  0  0  0  0
   19.1769  -12.1863    5.0788 C   0  0  0  0  0  0  0  0  0  0  0  0
   18.8539  -13.4042    4.5108 C   0  0  0  0  0  0  0  0  0  0  0  0
   19.4475  -14.5460    4.9483 C   0  0  0  0  0  0  0  0  0  0  0  0
   20.3790  -14.4905    5.9659 C   0  0  0  0  0  0  0  0  0  0  0  0
   20.5341  -17.4960    8.7173 C   0  0  0  0  0  0  0  0  0  0  0  0
   19.7845  -16.7836    9.4292 O   0  0  0  0  0  0  0  0  0  0  0  0
   21.6364  -18.0440    9.4035 O   0  0  0  0  0  0  0  0  0  0  0  0
  2  1  1  6
  2  3  1  0
  3  4  1  0
  4  5  1  0
  5  9  1  0
  5  6  2  0
  7  2  1  0
  8  7  2  0
 10  7  1  0
 11 10  1  0
 11 12  1  1
 13 12  1  0
 14 13  2  0
 15 11  1  0
 15 18  1  0
 16 15  2  0
 17 13  1  0
 19 30  1  0
 19 18  1  0
 19 20  1  6
 21 20  1  0
 21 22  2  0
 23 22  1  0
 24 23  1  0
 25 24  2  0
 26 25  1  0
 27 26  2  0
 27 28  1  0
 28 29  2  0
 29 24  1  0
 29 21  1  0
 30 32  1  0
 31 30  2  0
M  END
$$$$
