GMD.pdb
     RDKit          3D

 21 20  0  0  1  0  0  0  0  0999 V2000
   31.5673  -22.1929  -10.8436 N   0  0  0  0  0  0  0  0  0  0  0  0
   30.9465  -21.0448  -10.2613 C   0  0  0  0  0  0  0  0  0  0  0  0
   29.6488  -21.3653   -9.6120 C   0  0  0  0  0  0  0  0  0  0  0  0
   29.1713  -22.5220   -9.7650 O   0  0  0  0  0  0  0  0  0  0  0  0
   26.7718  -18.9905   -4.0743 C   0  0  0  0  0  0  0  0  0  0  0  0
   28.4750  -19.5473   -4.3277 S   0  0  0  0  0  0  0  0  0  0  0  0
   28.6622  -20.4501   -5.8882 C   0  0  0  0  0  0  0  0  0  0  0  0
   27.6217  -19.9142   -6.8550 C   0  0  0  0  0  0  0  0  0  0  0  0
   27.7100  -20.6557   -8.1932 C   0  0  2  0  0  0  0  0  0  0  0  0
   28.9762  -20.3832   -8.8423 N   0  0  0  0  0  0  0  0  0  0  0  0
   26.5670  -20.1594   -9.0168 C   0  0  0  0  0  0  0  0  0  0  0  0
   26.5848  -18.9538   -9.3616 O   0  0  0  0  0  0  0  0  0  0  0  0
   25.4928  -20.9643   -9.4159 N   0  0  0  0  0  0  0  0  0  0  0  0
   24.7069  -20.5811  -10.5650 C   0  0  1  0  0  0  0  0  0  0  0  0
   25.0393  -21.4088  -11.7587 C   0  0  0  0  0  0  0  0  0  0  0  0
   24.1413  -21.0863  -12.8822 C   0  0  0  0  0  0  0  0  0  0  0  0
   24.0030  -19.8490  -13.1768 O   0  0  0  0  0  0  0  0  0  0  0  0
   23.2737  -20.7284  -10.1584 C   0  0  0  0  0  0  0  0  0  0  0  0
   22.9032  -21.1930   -9.0538 O   0  0  0  0  0  0  0  0  0  0  0  0
   23.4329  -21.9659  -13.6513 O   0  0  0  0  0  0  0  0  0  0  0  0
   22.2932  -20.3295  -11.0509 O   0  0  0  0  0  0  0  0  0  0  0  0
  2  1  1  0
  3  2  1  0
  4  3  2  0
  6  7  1  0
  6  5  1  0
  7  8  1  0
  9  8  1  1
  9 11  1  0
  9 10  1  0
 10  3  1  0
 11 13  1  0
 12 11  2  0
 13 14  1  0
 14 15  1  6
 14 18  1  0
 16 17  2  0
 16 15  1  0
 18 19  2  0
 18 21  1  0
 20 16  1  0
M  END
$$$$
