GMD.pdb
     RDKit          3D

 21 20  0  0  1  0  0  0  0  0999 V2000
   23.4670  -15.9877  -17.0861 N   0  0  0  0  0  0  0  0  0  0  0  0
   23.7131  -14.7294  -17.7172 C   0  0  0  0  0  0  0  0  0  0  0  0
   24.0884  -13.6680  -16.7472 C   0  0  0  0  0  0  0  0  0  0  0  0
   23.5325  -13.6663  -15.6156 O   0  0  0  0  0  0  0  0  0  0  0  0
   29.3783   -9.5672  -16.7914 C   0  0  0  0  0  0  0  0  0  0  0  0
   29.3824  -11.3768  -16.7649 S   0  0  0  0  0  0  0  0  0  0  0  0
   27.7807  -12.0452  -16.2426 C   0  0  0  0  0  0  0  0  0  0  0  0
   26.7271  -10.9929  -16.5375 C   0  0  0  0  0  0  0  0  0  0  0  0
   25.3280  -11.5486  -16.2505 C   0  0  2  0  0  0  0  0  0  0  0  0
   25.0498  -12.6882  -17.1005 N   0  0  0  0  0  0  0  0  0  0  0  0
   24.3756  -10.4307  -16.5228 C   0  0  0  0  0  0  0  0  0  0  0  0
   24.1420  -10.1509  -17.7227 O   0  0  0  0  0  0  0  0  0  0  0  0
   23.7408   -9.6915  -15.5169 N   0  0  0  0  0  0  0  0  0  0  0  0
   22.8060   -8.6531  -15.8814 C   0  0  1  0  0  0  0  0  0  0  0  0
   21.9557   -8.2492  -14.7262 C   0  0  0  0  0  0  0  0  0  0  0  0
   20.7272   -7.5813  -15.1925 C   0  0  0  0  0  0  0  0  0  0  0  0
   19.9278   -7.1454  -14.2937 O   0  0  0  0  0  0  0  0  0  0  0  0
   23.6282   -7.5150  -16.4011 C   0  0  0  0  0  0  0  0  0  0  0  0
   24.8148   -7.2949  -16.0594 O   0  0  0  0  0  0  0  0  0  0  0  0
   20.3410   -7.3735  -16.4866 O   0  0  0  0  0  0  0  0  0  0  0  0
   23.0497   -6.6498  -17.3141 O   0  0  0  0  0  0  0  0  0  0  0  0
  2  1  1  0
  3  2  1  0
  4  3  2  0
  6  7  1  0
  6  5  1  0
  7  8  1  0
  9  8  1  6
  9 11  1  0
  9 10  1  0
 10  3  1  0
 11 13  1  0
 12 11  2  0
 13 14  1  0
 14 15  1  1
 14 18  1  0
 16 17  2  0
 16 15  1  0
 18 19  2  0
 18 21  1  0
 20 16  1  0
M  END
$$$$
