GMD.pdb
     RDKit          3D

 21 20  0  0  1  0  0  0  0  0999 V2000
   25.7107  -10.8781  -21.7102 N   0  0  0  0  0  0  0  0  0  0  0  0
   25.4768   -9.6272  -21.0598 C   0  0  0  0  0  0  0  0  0  0  0  0
   24.7601   -9.7812  -19.7672 C   0  0  0  0  0  0  0  0  0  0  0  0
   23.6025  -10.2805  -19.7792 O   0  0  0  0  0  0  0  0  0  0  0  0
   27.5429  -13.8086  -15.3969 C   0  0  0  0  0  0  0  0  0  0  0  0
   27.0735  -12.0759  -15.1670 S   0  0  0  0  0  0  0  0  0  0  0  0
   25.9817  -11.4936  -16.4915 C   0  0  0  0  0  0  0  0  0  0  0  0
   25.6667  -10.0342  -16.2169 C   0  0  0  0  0  0  0  0  0  0  0  0
   24.7058   -9.4904  -17.2796 C   0  0  2  0  0  0  0  0  0  0  0  0
   25.3766   -9.3719  -18.5581 N   0  0  0  0  0  0  0  0  0  0  0  0
   24.2549   -8.1553  -16.7844 C   0  0  0  0  0  0  0  0  0  0  0  0
   25.0960   -7.2251  -16.7856 O   0  0  0  0  0  0  0  0  0  0  0  0
   22.9571   -7.8970  -16.3258 N   0  0  0  0  0  0  0  0  0  0  0  0
   22.6371   -6.5916  -15.7981 C   0  0  1  0  0  0  0  0  0  0  0  0
   21.8220   -5.7955  -16.7585 C   0  0  0  0  0  0  0  0  0  0  0  0
   21.5020   -4.4709  -16.1967 C   0  0  0  0  0  0  0  0  0  0  0  0
   20.2856   -4.0837  -16.2821 O   0  0  0  0  0  0  0  0  0  0  0  0
   21.9159   -6.8283  -14.5078 C   0  0  0  0  0  0  0  0  0  0  0  0
   21.5039   -5.9116  -13.7574 O   0  0  0  0  0  0  0  0  0  0  0  0
   22.3641   -3.6014  -15.5902 O   0  0  0  0  0  0  0  0  0  0  0  0
   21.6867   -8.1355  -14.1135 O   0  0  0  0  0  0  0  0  0  0  0  0
  2  1  1  0
  3  2  1  0
  4  3  2  0
  6  7  1  0
  6  5  1  0
  7  8  1  0
  9  8  1  1
  9 11  1  0
  9 10  1  0
 10  3  1  0
 11 13  1  0
 12 11  2  0
 13 14  1  0
 14 15  1  6
 14 18  1  0
 16 17  2  0
 16 15  1  0
 18 19  2  0
 18 21  1  0
 20 16  1  0
M  END
$$$$
