GMD.pdb
     RDKit          3D

 21 20  0  0  1  0  0  0  0  0999 V2000
   20.6325  -13.3500  -16.6883 N   0  0  0  0  0  0  0  0  0  0  0  0
   20.9202  -12.0753  -17.2670 C   0  0  0  0  0  0  0  0  0  0  0  0
   21.5779  -11.1490  -16.3091 C   0  0  0  0  0  0  0  0  0  0  0  0
   20.9633  -10.8447  -15.2512 O   0  0  0  0  0  0  0  0  0  0  0  0
   28.0688  -12.7349  -15.0139 C   0  0  0  0  0  0  0  0  0  0  0  0
   27.3480  -11.1796  -15.5944 S   0  0  0  0  0  0  0  0  0  0  0  0
   25.5559  -11.1282  -15.3278 C   0  0  0  0  0  0  0  0  0  0  0  0
   25.0517   -9.7988  -15.8597 C   0  0  0  0  0  0  0  0  0  0  0  0
   23.5309   -9.7049  -15.6961 C   0  0  2  0  0  0  0  0  0  0  0  0
   22.8656  -10.6284  -16.5923 N   0  0  0  0  0  0  0  0  0  0  0  0
   23.1675   -8.2917  -16.0151 C   0  0  0  0  0  0  0  0  0  0  0  0
   23.1046   -7.9713  -17.2259 O   0  0  0  0  0  0  0  0  0  0  0  0
   22.8980   -7.3223  -15.0410 N   0  0  0  0  0  0  0  0  0  0  0  0
   22.3973   -6.0297  -15.4451 C   0  0  1  0  0  0  0  0  0  0  0  0
   21.0536   -6.1352  -16.0807 C   0  0  0  0  0  0  0  0  0  0  0  0
   20.5204   -4.7977  -16.3959 C   0  0  0  0  0  0  0  0  0  0  0  0
   21.2373   -4.0502  -17.1469 O   0  0  0  0  0  0  0  0  0  0  0  0
   22.3709   -5.1869  -14.2081 C   0  0  0  0  0  0  0  0  0  0  0  0
   22.6410   -5.6176  -13.0614 O   0  0  0  0  0  0  0  0  0  0  0  0
   19.3374   -4.2601  -15.9731 O   0  0  0  0  0  0  0  0  0  0  0  0
   22.0287   -3.8510  -14.3304 O   0  0  0  0  0  0  0  0  0  0  0  0
  2  1  1  0
  3  2  1  0
  4  3  2  0
  6  7  1  0
  6  5  1  0
  7  8  1  0
  9  8  1  6
  9 11  1  0
  9 10  1  0
 10  3  1  0
 11 13  1  0
 12 11  2  0
 13 14  1  0
 14 15  1  1
 14 18  1  0
 16 17  2  0
 16 15  1  0
 18 19  2  0
 18 21  1  0
 20 16  1  0
M  END
$$$$
