GMD.pdb
     RDKit          3D

 21 20  0  0  1  0  0  0  0  0999 V2000
   27.9564  -22.3081  -15.8860 N   0  0  0  0  0  0  0  0  0  0  0  0
   27.4108  -21.1282  -15.2921 C   0  0  0  0  0  0  0  0  0  0  0  0
   26.5314  -21.4273  -14.1321 C   0  0  0  0  0  0  0  0  0  0  0  0
   25.9251  -22.5324  -14.1087 O   0  0  0  0  0  0  0  0  0  0  0  0
   25.8751  -20.9102   -6.7217 C   0  0  0  0  0  0  0  0  0  0  0  0
   26.4616  -20.2095   -8.2838 S   0  0  0  0  0  0  0  0  0  0  0  0
   25.1568  -20.1848   -9.5417 C   0  0  0  0  0  0  0  0  0  0  0  0
   25.7819  -19.7087  -10.8406 C   0  0  0  0  0  0  0  0  0  0  0  0
   25.5009  -20.7132  -11.9634 C   0  0  2  0  0  0  0  0  0  0  0  0
   26.3882  -20.4826  -13.0851 N   0  0  0  0  0  0  0  0  0  0  0  0
   24.0747  -20.5059  -12.3558 C   0  0  0  0  0  0  0  0  0  0  0  0
   23.8133  -19.5154  -13.0791 O   0  0  0  0  0  0  0  0  0  0  0  0
   23.0316  -21.3525  -11.9602 N   0  0  0  0  0  0  0  0  0  0  0  0
   21.7004  -21.1259  -12.4717 C   0  0  1  0  0  0  0  0  0  0  0  0
   20.7549  -22.1910  -12.0336 C   0  0  0  0  0  0  0  0  0  0  0  0
   19.8362  -22.5538  -13.1276 C   0  0  0  0  0  0  0  0  0  0  0  0
   19.0261  -23.5193  -12.9079 O   0  0  0  0  0  0  0  0  0  0  0  0
   21.2902  -19.7719  -11.9824 C   0  0  0  0  0  0  0  0  0  0  0  0
   21.4558  -19.3729  -10.8048 O   0  0  0  0  0  0  0  0  0  0  0  0
   19.7508  -21.9718  -14.3610 O   0  0  0  0  0  0  0  0  0  0  0  0
   20.6913  -18.9030  -12.8787 O   0  0  0  0  0  0  0  0  0  0  0  0
  2  1  1  0
  3  2  1  0
  4  3  2  0
  6  7  1  0
  6  5  1  0
  7  8  1  0
  9  8  1  1
  9 11  1  0
  9 10  1  0
 10  3  1  0
 11 13  1  0
 12 11  2  0
 13 14  1  0
 14 15  1  1
 14 18  1  0
 16 17  2  0
 16 15  1  0
 18 19  2  0
 18 21  1  0
 20 16  1  0
M  END
$$$$
