WNN.pdb
     RDKit          3D

 31 32  0  0  1  0  0  0  0  0999 V2000
    6.6262  -17.6793   24.0282 N   0  0  0  0  0  0  0  0  0  0  0  0
    7.4704  -16.5816   23.5352 C   0  0  1  0  0  0  0  0  0  0  0  0
    8.3097  -16.0860   24.7026 C   0  0  0  0  0  0  0  0  0  0  0  0
    7.4374  -15.1929   25.5110 C   0  0  0  0  0  0  0  0  0  0  0  0
    6.3953  -15.6095   26.3103 C   0  0  0  0  0  0  0  0  0  0  0  0
    5.8450  -14.4966   26.8744 N   0  0  0  0  0  0  0  0  0  0  0  0
    6.4947  -13.3925   26.4659 C   0  0  0  0  0  0  0  0  0  0  0  0
    6.3144  -12.0421   26.7579 C   0  0  0  0  0  0  0  0  0  0  0  0
    7.1532  -11.1084   26.1810 C   0  0  0  0  0  0  0  0  0  0  0  0
    8.1603  -11.5193   25.3220 C   0  0  0  0  0  0  0  0  0  0  0  0
    8.3148  -12.8789   25.0498 C   0  0  0  0  0  0  0  0  0  0  0  0
    7.4879  -13.8207   25.6161 C   0  0  0  0  0  0  0  0  0  0  0  0
    8.3043  -17.0606   22.4143 C   0  0  0  0  0  0  0  0  0  0  0  0
    8.6390  -18.2942   22.4169 O   0  0  0  0  0  0  0  0  0  0  0  0
    7.3600  -16.8536   18.8173 N   0  0  0  0  0  0  0  0  0  0  0  0
    8.3792  -15.9829   18.3639 C   0  0  0  0  0  0  0  0  0  0  0  0
    8.1659  -15.2744   17.3568 O   0  0  0  0  0  0  0  0  0  0  0  0
    9.6560  -15.9211   19.0672 C   0  0  0  0  0  0  0  0  0  0  0  0
    9.6924  -16.7827   20.3357 C   0  0  2  0  0  0  0  0  0  0  0  0
    8.7707  -16.2824   21.3329 N   0  0  0  0  0  0  0  0  0  0  0  0
   11.0862  -16.8527   20.8268 C   0  0  0  0  0  0  0  0  0  0  0  0
   12.0330  -17.2641   20.0714 O   0  0  0  0  0  0  0  0  0  0  0  0
   15.9075  -15.5338   23.1008 N   0  0  0  0  0  0  0  0  0  0  0  0
   14.7323  -15.8028   23.8434 C   0  0  0  0  0  0  0  0  0  0  0  0
   14.8313  -16.3072   24.9815 O   0  0  0  0  0  0  0  0  0  0  0  0
   13.4055  -15.4985   23.2963 C   0  0  0  0  0  0  0  0  0  0  0  0
   12.8493  -16.7388   22.6286 C   0  0  2  0  0  0  0  0  0  0  0  0
   11.5015  -16.4845   22.1324 N   0  0  0  0  0  0  0  0  0  0  0  0
   12.9054  -17.8848   23.5246 C   0  0  0  0  0  0  0  0  0  0  0  0
   11.9452  -18.0138   24.5332 O   0  0  0  0  0  0  0  0  0  0  0  0
   13.7702  -18.7783   23.4529 O   0  0  0  0  0  0  0  0  0  0  0  0
  2  1  1  1
  2  3  1  0
  2 13  1  0
  3  4  1  0
  4  5  2  0
  6  5  1  0
  7  6  1  0
  8  7  2  0
  9  8  1  0
 10  9  2  0
 10 11  1  0
 11 12  2  0
 12  7  1  0
 12  4  1  0
 13 14  2  0
 15 16  1  0
 16 17  2  0
 19 18  1  6
 18 16  1  0
 20 13  1  0
 20 19  1  0
 21 22  2  0
 21 19  1  0
 23 24  1  0
 24 26  1  0
 24 25  2  0
 27 26  1  1
 27 28  1  0
 28 21  1  0
 29 27  1  0
 29 30  1  0
 31 29  2  0
M  END
$$$$
