WNN.pdb
     RDKit          3D

 31 32  0  0  1  0  0  0  0  0999 V2000
   10.3260  -16.9628   18.4935 N   0  0  0  0  0  0  0  0  0  0  0  0
   11.0359  -15.7153   18.8103 C   0  0  1  0  0  0  0  0  0  0  0  0
   10.9719  -15.5189   20.3170 C   0  0  0  0  0  0  0  0  0  0  0  0
    9.5756  -15.1215   20.6401 C   0  0  0  0  0  0  0  0  0  0  0  0
    8.7373  -15.7921   21.5039 C   0  0  0  0  0  0  0  0  0  0  0  0
    7.5512  -15.1196   21.5240 N   0  0  0  0  0  0  0  0  0  0  0  0
    7.6029  -14.0512   20.7093 C   0  0  0  0  0  0  0  0  0  0  0  0
    6.6639  -13.0708   20.3955 C   0  0  0  0  0  0  0  0  0  0  0  0
    7.0040  -12.0694   19.5070 C   0  0  0  0  0  0  0  0  0  0  0  0
    8.2679  -12.0477   18.9385 C   0  0  0  0  0  0  0  0  0  0  0  0
    9.1856  -13.0438   19.2732 C   0  0  0  0  0  0  0  0  0  0  0  0
    8.8622  -14.0476   20.1560 C   0  0  0  0  0  0  0  0  0  0  0  0
   12.4261  -15.7956   18.3183 C   0  0  0  0  0  0  0  0  0  0  0  0
   12.9040  -16.9602   18.0965 O   0  0  0  0  0  0  0  0  0  0  0  0
   16.8712  -14.4467   15.4615 N   0  0  0  0  0  0  0  0  0  0  0  0
   16.5702  -13.6311   16.5781 C   0  0  0  0  0  0  0  0  0  0  0  0
   17.4960  -13.0047   17.1369 O   0  0  0  0  0  0  0  0  0  0  0  0
   15.1976  -13.5303   17.0624 C   0  0  0  0  0  0  0  0  0  0  0  0
   14.6466  -14.8552   17.6045 C   0  0  2  0  0  0  0  0  0  0  0  0
   13.2840  -14.7031   18.0676 N   0  0  0  0  0  0  0  0  0  0  0  0
   15.5573  -15.3575   18.6567 C   0  0  0  0  0  0  0  0  0  0  0  0
   16.7259  -15.7901   18.3677 O   0  0  0  0  0  0  0  0  0  0  0  0
   17.3808  -12.8039   20.5951 N   0  0  0  0  0  0  0  0  0  0  0  0
   17.6992  -14.0719   21.1389 C   0  0  0  0  0  0  0  0  0  0  0  0
   18.8422  -14.5427   20.9616 O   0  0  0  0  0  0  0  0  0  0  0  0
   16.7088  -14.8370   21.9044 C   0  0  0  0  0  0  0  0  0  0  0  0
   16.1625  -15.9494   21.0339 C   0  0  2  0  0  0  0  0  0  0  0  0
   15.2433  -15.4080   20.0393 N   0  0  0  0  0  0  0  0  0  0  0  0
   15.5539  -16.9956   21.8430 C   0  0  0  0  0  0  0  0  0  0  0  0
   16.3454  -17.7089   22.7491 O   0  0  0  0  0  0  0  0  0  0  0  0
   14.3493  -17.3061   21.7816 O   0  0  0  0  0  0  0  0  0  0  0  0
  2  1  1  1
  2  3  1  0
  2 13  1  0
  3  4  1  0
  4  5  2  0
  6  5  1  0
  7  6  1  0
  8  7  2  0
  9  8  1  0
 10  9  2  0
 10 11  1  0
 11 12  2  0
 12  7  1  0
 12  4  1  0
 13 14  2  0
 15 16  1  0
 16 17  2  0
 19 18  1  1
 18 16  1  0
 20 13  1  0
 20 19  1  0
 21 22  2  0
 21 19  1  0
 23 24  1  0
 24 26  1  0
 24 25  2  0
 27 26  1  1
 27 28  1  0
 28 21  1  0
 29 27  1  0
 29 30  1  0
 31 29  2  0
M  END
$$$$
