WNN.pdb
     RDKit          3D

 31 32  0  0  1  0  0  0  0  0999 V2000
    6.5673  -17.3930   23.4645 N   0  0  0  0  0  0  0  0  0  0  0  0
    7.4076  -16.2169   23.1977 C   0  0  1  0  0  0  0  0  0  0  0  0
    8.3203  -16.0211   24.3984 C   0  0  0  0  0  0  0  0  0  0  0  0
    7.5651  -15.2021   25.3838 C   0  0  0  0  0  0  0  0  0  0  0  0
    6.6633  -15.6939   26.3021 C   0  0  0  0  0  0  0  0  0  0  0  0
    6.1856  -14.6323   27.0122 N   0  0  0  0  0  0  0  0  0  0  0  0
    6.7469  -13.4886   26.5824 C   0  0  0  0  0  0  0  0  0  0  0  0
    6.5897  -12.1637   26.9838 C   0  0  0  0  0  0  0  0  0  0  0  0
    7.3153  -11.1747   26.3485 C   0  0  0  0  0  0  0  0  0  0  0  0
    8.1878  -11.5058   25.3238 C   0  0  0  0  0  0  0  0  0  0  0  0
    8.3227  -12.8418   24.9451 C   0  0  0  0  0  0  0  0  0  0  0  0
    7.6074  -13.8379   25.5677 C   0  0  0  0  0  0  0  0  0  0  0  0
    8.1682  -16.4222   21.9485 C   0  0  0  0  0  0  0  0  0  0  0  0
    8.4907  -17.6220   21.6481 O   0  0  0  0  0  0  0  0  0  0  0  0
    6.9159  -15.0348   18.7834 N   0  0  0  0  0  0  0  0  0  0  0  0
    8.0017  -14.2060   18.4136 C   0  0  0  0  0  0  0  0  0  0  0  0
    7.7882  -13.2257   17.6686 O   0  0  0  0  0  0  0  0  0  0  0  0
    9.3459  -14.5003   18.8988 C   0  0  0  0  0  0  0  0  0  0  0  0
    9.3921  -15.6767   19.8820 C   0  0  2  0  0  0  0  0  0  0  0  0
    8.5760  -15.4147   21.0480 N   0  0  0  0  0  0  0  0  0  0  0  0
   10.8037  -15.9609   20.2221 C   0  0  0  0  0  0  0  0  0  0  0  0
   11.6437  -16.3060   19.3212 O   0  0  0  0  0  0  0  0  0  0  0  0
   13.4541  -13.8904   19.3465 N   0  0  0  0  0  0  0  0  0  0  0  0
   13.8708  -15.0296   20.0768 C   0  0  0  0  0  0  0  0  0  0  0  0
   14.4200  -15.9747   19.4729 O   0  0  0  0  0  0  0  0  0  0  0  0
   13.6668  -15.1147   21.5272 C   0  0  0  0  0  0  0  0  0  0  0  0
   12.7265  -16.2632   21.8280 C   0  0  2  0  0  0  0  0  0  0  0  0
   11.3509  -15.8820   21.5285 N   0  0  0  0  0  0  0  0  0  0  0  0
   12.8897  -16.7274   23.1982 C   0  0  0  0  0  0  0  0  0  0  0  0
   14.1414  -17.1849   23.6222 O   0  0  0  0  0  0  0  0  0  0  0  0
   11.9695  -16.7457   24.0374 O   0  0  0  0  0  0  0  0  0  0  0  0
  2  1  1  1
  2  3  1  0
  2 13  1  0
  3  4  1  0
  4  5  2  0
  6  5  1  0
  7  6  1  0
  8  7  2  0
  9  8  1  0
 10  9  2  0
 10 11  1  0
 11 12  2  0
 12  7  1  0
 12  4  1  0
 13 14  2  0
 15 16  1  0
 16 17  2  0
 19 18  1  6
 18 16  1  0
 20 13  1  0
 20 19  1  0
 21 22  2  0
 21 19  1  0
 23 24  1  0
 24 26  1  0
 24 25  2  0
 27 26  1  1
 27 28  1  0
 28 21  1  0
 29 27  1  0
 29 30  1  0
 31 29  2  0
M  END
$$$$
