WNN.pdb
     RDKit          3D

 31 32  0  0  1  0  0  0  0  0999 V2000
    8.4062  -17.3096   22.3335 N   0  0  0  0  0  0  0  0  0  0  0  0
    7.5196  -16.5090   23.1900 C   0  0  1  0  0  0  0  0  0  0  0  0
    6.2631  -16.1999   22.3909 C   0  0  0  0  0  0  0  0  0  0  0  0
    6.6990  -15.4771   21.1663 C   0  0  0  0  0  0  0  0  0  0  0  0
    6.6667  -15.9881   19.8871 C   0  0  0  0  0  0  0  0  0  0  0  0
    7.1513  -15.0252   19.0519 N   0  0  0  0  0  0  0  0  0  0  0  0
    7.4892  -13.9257   19.7482 C   0  0  0  0  0  0  0  0  0  0  0  0
    8.0176  -12.6979   19.3549 C   0  0  0  0  0  0  0  0  0  0  0  0
    8.2671  -11.7325   20.3108 C   0  0  0  0  0  0  0  0  0  0  0  0
    7.9920  -11.9909   21.6445 C   0  0  0  0  0  0  0  0  0  0  0  0
    7.4634  -13.2304   22.0061 C   0  0  0  0  0  0  0  0  0  0  0  0
    7.2095  -14.2019   21.0664 C   0  0  0  0  0  0  0  0  0  0  0  0
    7.2211  -17.2533   24.4301 C   0  0  0  0  0  0  0  0  0  0  0  0
    6.3346  -16.7635   25.2099 O   0  0  0  0  0  0  0  0  0  0  0  0
    7.1184  -20.4737   28.4853 N   0  0  0  0  0  0  0  0  0  0  0  0
    6.3982  -20.8874   27.3395 C   0  0  0  0  0  0  0  0  0  0  0  0
    5.5925  -21.8371   27.4415 O   0  0  0  0  0  0  0  0  0  0  0  0
    6.6011  -20.2101   26.0632 C   0  0  0  0  0  0  0  0  0  0  0  0
    7.6064  -19.0543   26.1425 C   0  0  2  0  0  0  0  0  0  0  0  0
    7.8241  -18.4619   24.8404 N   0  0  0  0  0  0  0  0  0  0  0  0
    8.8549  -19.5480   26.7640 C   0  0  0  0  0  0  0  0  0  0  0  0
    9.1966  -19.1818   27.9411 O   0  0  0  0  0  0  0  0  0  0  0  0
   13.6558  -18.0275   25.6570 N   0  0  0  0  0  0  0  0  0  0  0  0
   12.2500  -18.1367   25.5287 C   0  0  0  0  0  0  0  0  0  0  0  0
   11.5295  -17.1742   25.8664 O   0  0  0  0  0  0  0  0  0  0  0  0
   11.6308  -19.3599   25.0065 C   0  0  0  0  0  0  0  0  0  0  0  0
   11.2087  -20.2354   26.1680 C   0  0  2  0  0  0  0  0  0  0  0  0
    9.7652  -20.4434   26.1458 N   0  0  0  0  0  0  0  0  0  0  0  0
   11.6722  -19.6847   27.4335 C   0  0  0  0  0  0  0  0  0  0  0  0
   12.9812  -19.9412   27.8539 O   0  0  0  0  0  0  0  0  0  0  0  0
   10.9664  -18.9852   28.1844 O   0  0  0  0  0  0  0  0  0  0  0  0
  2  1  1  6
  2  3  1  0
  2 13  1  0
  3  4  1  0
  4  5  2  0
  6  5  1  0
  7  6  1  0
  8  7  2  0
  9  8  1  0
 10  9  2  0
 10 11  1  0
 11 12  2  0
 12  7  1  0
 12  4  1  0
 13 14  2  0
 15 16  1  0
 16 17  2  0
 19 18  1  6
 18 16  1  0
 20 13  1  0
 20 19  1  0
 21 22  2  0
 21 19  1  0
 23 24  1  0
 24 26  1  0
 24 25  2  0
 27 26  1  6
 27 28  1  0
 28 21  1  0
 29 27  1  0
 29 30  1  0
 31 29  2  0
M  END
$$$$
