WNN.pdb
     RDKit          3D

 31 32  0  0  1  0  0  0  0  0999 V2000
    8.2824  -16.6961   23.6955 N   0  0  0  0  0  0  0  0  0  0  0  0
    7.1082  -16.9380   22.8452 C   0  0  1  0  0  0  0  0  0  0  0  0
    6.0973  -15.8387   23.1322 C   0  0  0  0  0  0  0  0  0  0  0  0
    6.3375  -15.3874   24.5289 C   0  0  0  0  0  0  0  0  0  0  0  0
    6.2214  -16.1780   25.6514 C   0  0  0  0  0  0  0  0  0  0  0  0
    6.5164  -15.3984   26.7306 N   0  0  0  0  0  0  0  0  0  0  0  0
    6.8144  -14.1471   26.3389 C   0  0  0  0  0  0  0  0  0  0  0  0
    7.1763  -13.0070   27.0535 C   0  0  0  0  0  0  0  0  0  0  0  0
    7.4316  -11.8342   26.3700 C   0  0  0  0  0  0  0  0  0  0  0  0
    7.3265  -11.8007   24.9884 C   0  0  0  0  0  0  0  0  0  0  0  0
    6.9620  -12.9593   24.3019 C   0  0  0  0  0  0  0  0  0  0  0  0
    6.7044  -14.1347   24.9679 C   0  0  0  0  0  0  0  0  0  0  0  0
    7.5179  -16.9603   21.4264 C   0  0  0  0  0  0  0  0  0  0  0  0
    6.5998  -17.1275   20.5528 O   0  0  0  0  0  0  0  0  0  0  0  0
    8.1272  -12.4671   19.3992 N   0  0  0  0  0  0  0  0  0  0  0  0
    7.9336  -13.8332   19.7137 C   0  0  0  0  0  0  0  0  0  0  0  0
    7.2991  -14.5541   18.9141 O   0  0  0  0  0  0  0  0  0  0  0  0
    8.4694  -14.3818   20.9550 C   0  0  0  0  0  0  0  0  0  0  0  0
    9.4646  -15.5275   20.7323 C   0  0  2  0  0  0  0  0  0  0  0  0
    8.8342  -16.8137   20.9384 N   0  0  0  0  0  0  0  0  0  0  0  0
   10.6392  -15.3178   21.6071 C   0  0  0  0  0  0  0  0  0  0  0  0
   11.7863  -15.0356   21.1164 O   0  0  0  0  0  0  0  0  0  0  0  0
   13.2074  -17.8013   25.2194 N   0  0  0  0  0  0  0  0  0  0  0  0
   11.8522  -18.2028   25.1363 C   0  0  0  0  0  0  0  0  0  0  0  0
   11.4936  -19.2609   25.6943 O   0  0  0  0  0  0  0  0  0  0  0  0
   10.8677  -17.3962   24.4065 C   0  0  0  0  0  0  0  0  0  0  0  0
   11.5686  -16.2107   23.7766 C   0  0  2  0  0  0  0  0  0  0  0  0
   10.6166  -15.4025   23.0230 N   0  0  0  0  0  0  0  0  0  0  0  0
   12.6979  -16.6415   22.9651 C   0  0  0  0  0  0  0  0  0  0  0  0
   12.5344  -16.7828   21.5833 O   0  0  0  0  0  0  0  0  0  0  0  0
   13.8251  -16.8991   23.4280 O   0  0  0  0  0  0  0  0  0  0  0  0
  2  1  1  1
  2  3  1  0
  2 13  1  0
  3  4  1  0
  4  5  2  0
  6  5  1  0
  7  6  1  0
  8  7  2  0
  9  8  1  0
 10  9  2  0
 10 11  1  0
 11 12  2  0
 12  7  1  0
 12  4  1  0
 13 14  2  0
 15 16  1  0
 16 17  2  0
 19 18  1  1
 18 16  1  0
 20 13  1  0
 20 19  1  0
 21 22  2  0
 21 19  1  0
 23 24  1  0
 24 26  1  0
 24 25  2  0
 27 26  1  6
 27 28  1  0
 28 21  1  0
 29 27  1  0
 29 30  1  0
 31 29  2  0
M  END
$$$$
