WNN.pdb
     RDKit          3D

 31 32  0  0  1  0  0  0  0  0999 V2000
    7.1745  -18.1611   24.9245 N   0  0  0  0  0  0  0  0  0  0  0  0
    7.9365  -17.0507   24.3355 C   0  0  1  0  0  0  0  0  0  0  0  0
    8.4778  -16.2062   25.4786 C   0  0  0  0  0  0  0  0  0  0  0  0
    7.4063  -15.2426   25.8464 C   0  0  0  0  0  0  0  0  0  0  0  0
    6.1806  -15.5805   26.3774 C   0  0  0  0  0  0  0  0  0  0  0  0
    5.4866  -14.4223   26.5685 N   0  0  0  0  0  0  0  0  0  0  0  0
    6.2211  -13.3649   26.1808 C   0  0  0  0  0  0  0  0  0  0  0  0
    5.9585  -11.9966   26.1793 C   0  0  0  0  0  0  0  0  0  0  0  0
    6.9232  -11.1241   25.7144 C   0  0  0  0  0  0  0  0  0  0  0  0
    8.1363  -11.6132   25.2560 C   0  0  0  0  0  0  0  0  0  0  0  0
    8.3685  -12.9888   25.2703 C   0  0  0  0  0  0  0  0  0  0  0  0
    7.4183  -13.8704   25.7300 C   0  0  0  0  0  0  0  0  0  0  0  0
    9.0150  -17.5862   23.4804 C   0  0  0  0  0  0  0  0  0  0  0  0
    9.4178  -18.7756   23.7193 O   0  0  0  0  0  0  0  0  0  0  0  0
    9.8401  -17.0211   17.6227 N   0  0  0  0  0  0  0  0  0  0  0  0
    9.5284  -17.7991   18.7628 C   0  0  0  0  0  0  0  0  0  0  0  0
    9.5667  -19.0450   18.6740 O   0  0  0  0  0  0  0  0  0  0  0  0
    9.1681  -17.1476   20.0176 C   0  0  0  0  0  0  0  0  0  0  0  0
   10.0619  -17.5600   21.1940 C   0  0  2  0  0  0  0  0  0  0  0  0
    9.6484  -16.9070   22.4174 N   0  0  0  0  0  0  0  0  0  0  0  0
   11.4722  -17.2819   20.8439 C   0  0  0  0  0  0  0  0  0  0  0  0
   12.1444  -18.0916   20.1167 O   0  0  0  0  0  0  0  0  0  0  0  0
   14.7581  -15.6889   24.8555 N   0  0  0  0  0  0  0  0  0  0  0  0
   14.0846  -16.8418   24.3844 C   0  0  0  0  0  0  0  0  0  0  0  0
   14.5027  -17.9711   24.7152 O   0  0  0  0  0  0  0  0  0  0  0  0
   12.9073  -16.7283   23.5163 C   0  0  0  0  0  0  0  0  0  0  0  0
   13.3405  -16.2119   22.1601 C   0  0  2  0  0  0  0  0  0  0  0  0
   12.1959  -16.1347   21.2594 N   0  0  0  0  0  0  0  0  0  0  0  0
   14.4239  -17.0176   21.6155 C   0  0  0  0  0  0  0  0  0  0  0  0
   15.7143  -16.4813   21.5575 O   0  0  0  0  0  0  0  0  0  0  0  0
   14.2766  -18.1779   21.1874 O   0  0  0  0  0  0  0  0  0  0  0  0
  2  1  1  1
  2  3  1  0
  2 13  1  0
  3  4  1  0
  4  5  2  0
  6  5  1  0
  7  6  1  0
  8  7  2  0
  9  8  1  0
 10  9  2  0
 10 11  1  0
 11 12  2  0
 12  7  1  0
 12  4  1  0
 13 14  2  0
 15 16  1  0
 16 17  2  0
 19 18  1  6
 18 16  1  0
 20 13  1  0
 20 19  1  0
 21 22  2  0
 21 19  1  0
 23 24  1  0
 24 26  1  0
 24 25  2  0
 27 26  1  1
 27 28  1  0
 28 21  1  0
 29 27  1  0
 29 30  1  0
 31 29  2  0
M  END
$$$$
