WNN.pdb
     RDKit          3D

 31 32  0  0  1  0  0  0  0  0999 V2000
    7.3399  -16.8190   24.4964 N   0  0  0  0  0  0  0  0  0  0  0  0
    7.8685  -15.7045   23.6970 C   0  0  1  0  0  0  0  0  0  0  0  0
    9.0828  -15.1503   24.4258 C   0  0  0  0  0  0  0  0  0  0  0  0
    8.5929  -14.5892   25.7131 C   0  0  0  0  0  0  0  0  0  0  0  0
    8.7919  -15.1541   26.9540 C   0  0  0  0  0  0  0  0  0  0  0  0
    8.1878  -14.3454   27.8709 N   0  0  0  0  0  0  0  0  0  0  0  0
    7.6145  -13.2920   27.2630 C   0  0  0  0  0  0  0  0  0  0  0  0
    6.8935  -12.2076   27.7583 C   0  0  0  0  0  0  0  0  0  0  0  0
    6.4166  -11.2550   26.8790 C   0  0  0  0  0  0  0  0  0  0  0  0
    6.6573  -11.3846   25.5202 C   0  0  0  0  0  0  0  0  0  0  0  0
    7.3826  -12.4822   25.0556 C   0  0  0  0  0  0  0  0  0  0  0  0
    7.8639  -13.4390   25.9183 C   0  0  0  0  0  0  0  0  0  0  0  0
    8.2038  -16.1811   22.3400 C   0  0  0  0  0  0  0  0  0  0  0  0
    7.9938  -17.4155   22.0827 O   0  0  0  0  0  0  0  0  0  0  0  0
    9.2711  -13.1707   19.6709 N   0  0  0  0  0  0  0  0  0  0  0  0
    8.3357  -13.8072   18.8209 C   0  0  0  0  0  0  0  0  0  0  0  0
    7.7019  -13.1169   17.9942 O   0  0  0  0  0  0  0  0  0  0  0  0
    8.1209  -15.2471   18.9166 C   0  0  0  0  0  0  0  0  0  0  0  0
    9.0062  -15.9241   19.9705 C   0  0  2  0  0  0  0  0  0  0  0  0
    8.7374  -15.4000   21.2923 N   0  0  0  0  0  0  0  0  0  0  0  0
   10.4233  -15.7756   19.5720 C   0  0  0  0  0  0  0  0  0  0  0  0
   10.8353  -16.1843   18.4320 O   0  0  0  0  0  0  0  0  0  0  0  0
   13.7257  -15.3542   18.0865 N   0  0  0  0  0  0  0  0  0  0  0  0
   13.8375  -14.4985   19.2090 C   0  0  0  0  0  0  0  0  0  0  0  0
   13.9192  -13.2651   19.0308 O   0  0  0  0  0  0  0  0  0  0  0  0
   13.8586  -15.0387   20.5729 C   0  0  0  0  0  0  0  0  0  0  0  0
   12.6347  -15.9062   20.7804 C   0  0  2  0  0  0  0  0  0  0  0  0
   11.4312  -15.1870   20.3784 N   0  0  0  0  0  0  0  0  0  0  0  0
   12.5624  -16.3891   22.1520 C   0  0  0  0  0  0  0  0  0  0  0  0
   12.7603  -15.4912   23.2059 O   0  0  0  0  0  0  0  0  0  0  0  0
   12.3316  -17.5742   22.4577 O   0  0  0  0  0  0  0  0  0  0  0  0
  2  1  1  1
  2  3  1  0
  2 13  1  0
  3  4  1  0
  4  5  2  0
  6  5  1  0
  7  6  1  0
  8  7  2  0
  9  8  1  0
 10  9  2  0
 10 11  1  0
 11 12  2  0
 12  7  1  0
 12  4  1  0
 13 14  2  0
 15 16  1  0
 16 17  2  0
 19 18  1  6
 18 16  1  0
 20 13  1  0
 20 19  1  0
 21 22  2  0
 21 19  1  0
 23 24  1  0
 24 26  1  0
 24 25  2  0
 27 26  1  1
 27 28  1  0
 28 21  1  0
 29 27  1  0
 29 30  1  0
 31 29  2  0
M  END
$$$$
