WNN.pdb
     RDKit          3D

 31 32  0  0  1  0  0  0  0  0999 V2000
    6.4416  -17.3221   24.1046 N   0  0  0  0  0  0  0  0  0  0  0  0
    7.6617  -16.5340   23.8793 C   0  0  1  0  0  0  0  0  0  0  0  0
    8.1309  -16.0152   25.2297 C   0  0  0  0  0  0  0  0  0  0  0  0
    7.1298  -15.0096   25.6756 C   0  0  0  0  0  0  0  0  0  0  0  0
    5.8280  -15.2870   26.0316 C   0  0  0  0  0  0  0  0  0  0  0  0
    5.2384  -14.1053   26.3713 N   0  0  0  0  0  0  0  0  0  0  0  0
    6.1120  -13.0910   26.2454 C   0  0  0  0  0  0  0  0  0  0  0  0
    5.9905  -11.7214   26.4709 C   0  0  0  0  0  0  0  0  0  0  0  0
    7.0812  -10.9018   26.2549 C   0  0  0  0  0  0  0  0  0  0  0  0
    8.2796  -11.4444   25.8184 C   0  0  0  0  0  0  0  0  0  0  0  0
    8.3690  -12.8197   25.6017 C   0  0  0  0  0  0  0  0  0  0  0  0
    7.2922  -13.6489   25.8121 C   0  0  0  0  0  0  0  0  0  0  0  0
    8.6822  -17.3748   23.2214 C   0  0  0  0  0  0  0  0  0  0  0  0
    8.2994  -18.4970   22.7438 O   0  0  0  0  0  0  0  0  0  0  0  0
    8.7032  -16.8833   19.8779 N   0  0  0  0  0  0  0  0  0  0  0  0
    8.8011  -15.5593   20.3678 C   0  0  0  0  0  0  0  0  0  0  0  0
    8.0723  -14.6745   19.8701 O   0  0  0  0  0  0  0  0  0  0  0  0
    9.7419  -15.2419   21.4369 C   0  0  0  0  0  0  0  0  0  0  0  0
   10.5905  -16.4423   21.8747 C   0  0  2  0  0  0  0  0  0  0  0  0
   10.0489  -17.0568   23.0677 N   0  0  0  0  0  0  0  0  0  0  0  0
   11.9926  -16.0013   22.0428 C   0  0  0  0  0  0  0  0  0  0  0  0
   12.6249  -15.4311   21.0881 O   0  0  0  0  0  0  0  0  0  0  0  0
   12.2444  -19.3077   25.1261 N   0  0  0  0  0  0  0  0  0  0  0  0
   13.3210  -18.4157   24.9029 C   0  0  0  0  0  0  0  0  0  0  0  0
   13.7649  -17.7435   25.8572 O   0  0  0  0  0  0  0  0  0  0  0  0
   13.9197  -18.2708   23.5714 C   0  0  0  0  0  0  0  0  0  0  0  0
   14.0606  -16.7976   23.2500 C   0  0  2  0  0  0  0  0  0  0  0  0
   12.7506  -16.1565   23.2319 N   0  0  0  0  0  0  0  0  0  0  0  0
   14.7935  -16.6012   22.0075 C   0  0  0  0  0  0  0  0  0  0  0  0
   15.8707  -15.7095   21.9809 O   0  0  0  0  0  0  0  0  0  0  0  0
   14.5202  -17.1860   20.9423 O   0  0  0  0  0  0  0  0  0  0  0  0
  2  1  1  1
  2  3  1  0
  2 13  1  0
  3  4  1  0
  4  5  2  0
  6  5  1  0
  7  6  1  0
  8  7  2  0
  9  8  1  0
 10  9  2  0
 10 11  1  0
 11 12  2  0
 12  7  1  0
 12  4  1  0
 13 14  2  0
 15 16  1  0
 16 17  2  0
 19 18  1  1
 18 16  1  0
 20 13  1  0
 20 19  1  0
 21 22  2  0
 21 19  1  0
 23 24  1  0
 24 26  1  0
 24 25  2  0
 27 26  1  6
 27 28  1  0
 28 21  1  0
 29 27  1  0
 29 30  1  0
 31 29  2  0
M  END
$$$$
