WNN.pdb
     RDKit          3D

 31 32  0  0  1  0  0  0  0  0999 V2000
    6.6520  -17.8054   24.5113 N   0  0  0  0  0  0  0  0  0  0  0  0
    7.3934  -16.6309   24.0301 C   0  0  1  0  0  0  0  0  0  0  0  0
    8.2818  -16.1495   25.1667 C   0  0  0  0  0  0  0  0  0  0  0  0
    7.4723  -15.1955   25.9709 C   0  0  0  0  0  0  0  0  0  0  0  0
    6.6791  -15.5342   27.0454 C   0  0  0  0  0  0  0  0  0  0  0  0
    6.1026  -14.3864   27.5035 N   0  0  0  0  0  0  0  0  0  0  0  0
    6.4973  -13.3349   26.7642 C   0  0  0  0  0  0  0  0  0  0  0  0
    6.1923  -11.9773   26.8355 C   0  0  0  0  0  0  0  0  0  0  0  0
    6.7604  -11.1085   25.9241 C   0  0  0  0  0  0  0  0  0  0  0  0
    7.6233  -11.5908   24.9526 C   0  0  0  0  0  0  0  0  0  0  0  0
    7.9085  -12.9558   24.9077 C   0  0  0  0  0  0  0  0  0  0  0  0
    7.3509  -13.8334   25.8078 C   0  0  0  0  0  0  0  0  0  0  0  0
    8.1735  -16.9930   22.8295 C   0  0  0  0  0  0  0  0  0  0  0  0
    8.4782  -18.2250   22.6769 O   0  0  0  0  0  0  0  0  0  0  0  0
    6.5943  -14.7401   19.8548 N   0  0  0  0  0  0  0  0  0  0  0  0
    7.9743  -14.7606   19.5421 C   0  0  0  0  0  0  0  0  0  0  0  0
    8.5824  -13.6761   19.4169 O   0  0  0  0  0  0  0  0  0  0  0  0
    8.6671  -16.0330   19.3696 C   0  0  0  0  0  0  0  0  0  0  0  0
    9.3440  -16.5341   20.6515 C   0  0  2  0  0  0  0  0  0  0  0  0
    8.6181  -16.1041   21.8272 N   0  0  0  0  0  0  0  0  0  0  0  0
   10.7547  -16.0881   20.6535 C   0  0  0  0  0  0  0  0  0  0  0  0
   11.4702  -16.1547   19.5952 O   0  0  0  0  0  0  0  0  0  0  0  0
   12.4956  -17.1733   25.6778 N   0  0  0  0  0  0  0  0  0  0  0  0
   12.8936  -17.6274   24.3971 C   0  0  0  0  0  0  0  0  0  0  0  0
   13.9953  -18.2010   24.2678 O   0  0  0  0  0  0  0  0  0  0  0  0
   12.0330  -17.4339   23.2247 C   0  0  0  0  0  0  0  0  0  0  0  0
   12.5433  -16.2527   22.4260 C   0  0  2  0  0  0  0  0  0  0  0  0
   11.4328  -15.5601   21.7822 N   0  0  0  0  0  0  0  0  0  0  0  0
   13.5667  -16.6662   21.4767 C   0  0  0  0  0  0  0  0  0  0  0  0
   13.2844  -17.6911   20.5679 O   0  0  0  0  0  0  0  0  0  0  0  0
   14.7024  -16.1583   21.4177 O   0  0  0  0  0  0  0  0  0  0  0  0
  2  1  1  1
  2  3  1  0
  2 13  1  0
  3  4  1  0
  4  5  2  0
  6  5  1  0
  7  6  1  0
  8  7  2  0
  9  8  1  0
 10  9  2  0
 10 11  1  0
 11 12  2  0
 12  7  1  0
 12  4  1  0
 13 14  2  0
 15 16  1  0
 16 17  2  0
 19 18  1  6
 18 16  1  0
 20 13  1  0
 20 19  1  0
 21 22  2  0
 21 19  1  0
 23 24  1  0
 24 26  1  0
 24 25  2  0
 27 26  1  6
 27 28  1  0
 28 21  1  0
 29 27  1  0
 29 30  1  0
 31 29  2  0
M  END
$$$$
