WNN.pdb
     RDKit          3D

 31 32  0  0  1  0  0  0  0  0999 V2000
    7.1220  -17.3002   23.4807 N   0  0  0  0  0  0  0  0  0  0  0  0
    8.0260  -16.1454   23.3826 C   0  0  1  0  0  0  0  0  0  0  0  0
    8.5569  -15.8562   24.7781 C   0  0  0  0  0  0  0  0  0  0  0  0
    7.5092  -15.0701   25.4826 C   0  0  0  0  0  0  0  0  0  0  0  0
    6.3301  -15.5817   25.9793 C   0  0  0  0  0  0  0  0  0  0  0  0
    5.6438  -14.5476   26.5442 N   0  0  0  0  0  0  0  0  0  0  0  0
    6.3386  -13.4025   26.4263 C   0  0  0  0  0  0  0  0  0  0  0  0
    6.0662  -12.0993   26.8374 C   0  0  0  0  0  0  0  0  0  0  0  0
    6.9860  -11.1024   26.5762 C   0  0  0  0  0  0  0  0  0  0  0  0
    8.1643  -11.4040   25.9117 C   0  0  0  0  0  0  0  0  0  0  0  0
    8.4074  -12.7187   25.5130 C   0  0  0  0  0  0  0  0  0  0  0  0
    7.5018  -13.7223   25.7655 C   0  0  0  0  0  0  0  0  0  0  0  0
    9.1107  -16.4430   22.4255 C   0  0  0  0  0  0  0  0  0  0  0  0
    9.4927  -17.6591   22.3307 O   0  0  0  0  0  0  0  0  0  0  0  0
   13.5468  -13.9502   18.9526 N   0  0  0  0  0  0  0  0  0  0  0  0
   12.5806  -14.9637   19.1574 C   0  0  0  0  0  0  0  0  0  0  0  0
   12.7785  -16.0961   18.6673 O   0  0  0  0  0  0  0  0  0  0  0  0
   11.3752  -14.6810   19.9293 C   0  0  0  0  0  0  0  0  0  0  0  0
   11.0281  -15.7830   20.9381 C   0  0  2  0  0  0  0  0  0  0  0  0
    9.7707  -15.5078   21.5995 N   0  0  0  0  0  0  0  0  0  0  0  0
   12.1535  -15.9356   21.8863 C   0  0  0  0  0  0  0  0  0  0  0  0
   12.5795  -14.9427   22.5712 O   0  0  0  0  0  0  0  0  0  0  0  0
   12.1495  -19.7724   24.4960 N   0  0  0  0  0  0  0  0  0  0  0  0
   13.1420  -18.7691   24.6094 C   0  0  0  0  0  0  0  0  0  0  0  0
   13.1394  -18.0177   25.6069 O   0  0  0  0  0  0  0  0  0  0  0  0
   14.1691  -18.6007   23.5754 C   0  0  0  0  0  0  0  0  0  0  0  0
   14.0374  -17.2199   22.9675 C   0  0  2  0  0  0  0  0  0  0  0  0
   12.8478  -17.1491   22.1265 N   0  0  0  0  0  0  0  0  0  0  0  0
   15.2485  -16.8463   22.2511 C   0  0  0  0  0  0  0  0  0  0  0  0
   16.0868  -15.8639   22.7881 O   0  0  0  0  0  0  0  0  0  0  0  0
   15.5966  -17.3529   21.1679 O   0  0  0  0  0  0  0  0  0  0  0  0
  2  1  1  1
  2  3  1  0
  2 13  1  0
  3  4  1  0
  4  5  2  0
  6  5  1  0
  7  6  1  0
  8  7  2  0
  9  8  1  0
 10  9  2  0
 10 11  1  0
 11 12  2  0
 12  7  1  0
 12  4  1  0
 13 14  2  0
 15 16  1  0
 16 17  2  0
 19 18  1  6
 18 16  1  0
 20 13  1  0
 20 19  1  0
 21 22  2  0
 21 19  1  0
 23 24  1  0
 24 26  1  0
 24 25  2  0
 27 26  1  6
 27 28  1  0
 28 21  1  0
 29 27  1  0
 29 30  1  0
 31 29  2  0
M  END
$$$$
