END.pdb
     RDKit          3D

 26 25  0  0  1  0  0  0  0  0999 V2000
   10.9855  -15.2949   15.2876 N   0  0  0  0  0  0  0  0  0  0  0  0
   11.1796  -16.0946   16.4816 C   0  0  1  0  0  0  0  0  0  0  0  0
   12.5640  -16.7118   16.4969 C   0  0  0  0  0  0  0  0  0  0  0  0
   13.4472  -16.2935   15.3777 C   0  0  0  0  0  0  0  0  0  0  0  0
   14.3717  -17.3049   14.8951 C   0  0  0  0  0  0  0  0  0  0  0  0
   14.4187  -18.4639   15.3687 O   0  0  0  0  0  0  0  0  0  0  0  0
   11.1941  -15.1390   17.6445 C   0  0  0  0  0  0  0  0  0  0  0  0
   12.1937  -14.4381   17.7920 O   0  0  0  0  0  0  0  0  0  0  0  0
   15.2507  -17.0056   13.8683 O   0  0  0  0  0  0  0  0  0  0  0  0
    8.3920  -13.2297   17.4404 N   0  0  0  0  0  0  0  0  0  0  0  0
    7.8266  -13.2196   18.7291 C   0  0  0  0  0  0  0  0  0  0  0  0
    6.6407  -12.7306   18.8251 O   0  0  0  0  0  0  0  0  0  0  0  0
    8.5031  -13.7242   19.9322 C   0  0  0  0  0  0  0  0  0  0  0  0
    9.8844  -14.2751   19.6588 C   0  0  2  0  0  0  0  0  0  0  0  0
   10.1193  -15.0468   18.5248 N   0  0  0  0  0  0  0  0  0  0  0  0
   10.5229  -14.6730   20.9179 C   0  0  0  0  0  0  0  0  0  0  0  0
   10.4383  -13.9380   21.9666 O   0  0  0  0  0  0  0  0  0  0  0  0
   11.2605  -15.8672   21.0684 N   0  0  0  0  0  0  0  0  0  0  0  0
   11.9667  -16.1575   22.3116 C   0  0  1  0  0  0  0  0  0  0  0  0
   11.7181  -17.6112   22.6182 C   0  0  0  0  0  0  0  0  0  0  0  0
   12.3713  -17.9617   23.8884 C   0  0  0  0  0  0  0  0  0  0  0  0
   12.9413  -17.0584   24.5475 O   0  0  0  0  0  0  0  0  0  0  0  0
   13.3860  -15.7928   22.2188 C   0  0  0  0  0  0  0  0  0  0  0  0
   13.9592  -15.5306   21.1424 O   0  0  0  0  0  0  0  0  0  0  0  0
   12.3460  -19.2735   24.3314 O   0  0  0  0  0  0  0  0  0  0  0  0
   14.1253  -15.7385   23.4051 O   0  0  0  0  0  0  0  0  0  0  0  0
  2  1  1  6
  2  7  1  0
  3  2  1  0
  4  3  1  0
  5  6  2  0
  5  4  1  0
  7  8  2  0
  9  5  1  0
 10 11  1  0
 11 13  1  0
 12 11  2  0
 14 13  1  1
 15  7  1  0
 15 14  1  0
 16 14  1  0
 16 17  2  0
 18 16  1  0
 19 18  1  0
 19 20  1  6
 21 20  1  0
 21 25  1  0
 22 21  2  0
 23 26  1  0
 23 19  1  0
 24 23  2  0
M  END
$$$$
