END.pdb
     RDKit          3D

 26 25  0  0  1  0  0  0  0  0999 V2000
   11.0930  -15.2347   17.4977 N   0  0  0  0  0  0  0  0  0  0  0  0
   11.9073  -15.9280   18.4770 C   0  0  1  0  0  0  0  0  0  0  0  0
   13.3465  -15.4567   18.4109 C   0  0  0  0  0  0  0  0  0  0  0  0
   13.6467  -14.5192   17.2980 C   0  0  0  0  0  0  0  0  0  0  0  0
   15.0398  -14.1300   17.1627 C   0  0  0  0  0  0  0  0  0  0  0  0
   15.8334  -14.7059   16.3827 O   0  0  0  0  0  0  0  0  0  0  0  0
   11.4366  -15.4714   19.8319 C   0  0  0  0  0  0  0  0  0  0  0  0
   12.2642  -15.4418   20.7411 O   0  0  0  0  0  0  0  0  0  0  0  0
   15.5416  -13.0811   17.9140 O   0  0  0  0  0  0  0  0  0  0  0  0
    7.4094  -13.0476   18.9520 N   0  0  0  0  0  0  0  0  0  0  0  0
    7.9907  -13.0449   20.2336 C   0  0  0  0  0  0  0  0  0  0  0  0
    8.5237  -11.9373   20.6129 O   0  0  0  0  0  0  0  0  0  0  0  0
    8.0178  -14.2082   21.1312 C   0  0  0  0  0  0  0  0  0  0  0  0
    9.3729  -14.8741   21.2116 C   0  0  2  0  0  0  0  0  0  0  0  0
   10.1148  -15.0952   20.0551 N   0  0  0  0  0  0  0  0  0  0  0  0
    9.3569  -15.9192   22.2405 C   0  0  0  0  0  0  0  0  0  0  0  0
    9.3873  -17.1627   21.9245 O   0  0  0  0  0  0  0  0  0  0  0  0
    9.3093  -15.6429   23.6240 N   0  0  0  0  0  0  0  0  0  0  0  0
    9.6932  -16.6553   24.6019 C   0  0  1  0  0  0  0  0  0  0  0  0
   11.1097  -17.0517   24.2770 C   0  0  0  0  0  0  0  0  0  0  0  0
   11.1777  -18.5079   24.0830 C   0  0  0  0  0  0  0  0  0  0  0  0
   11.5293  -18.9556   22.9643 O   0  0  0  0  0  0  0  0  0  0  0  0
    9.4994  -16.1739   25.9754 C   0  0  0  0  0  0  0  0  0  0  0  0
    9.3170  -14.9741   26.2636 O   0  0  0  0  0  0  0  0  0  0  0  0
   10.8546  -19.3535   25.1310 O   0  0  0  0  0  0  0  0  0  0  0  0
    9.5213  -17.1178   27.0075 O   0  0  0  0  0  0  0  0  0  0  0  0
  2  1  1  6
  2  7  1  0
  3  2  1  0
  4  3  1  0
  5  6  2  0
  5  4  1  0
  7  8  2  0
  9  5  1  0
 10 11  1  0
 11 13  1  0
 12 11  2  0
 14 13  1  6
 15  7  1  0
 15 14  1  0
 16 14  1  0
 16 17  2  0
 18 16  1  0
 19 18  1  0
 19 20  1  1
 21 20  1  0
 21 25  1  0
 22 21  2  0
 23 26  1  0
 23 19  1  0
 24 23  2  0
M  END
$$$$
