END.pdb
     RDKit          3D

 26 25  0  0  1  0  0  0  0  0999 V2000
    8.6892  -12.5078   18.2892 N   0  0  0  0  0  0  0  0  0  0  0  0
    7.6939  -13.2317   19.0561 C   0  0  1  0  0  0  0  0  0  0  0  0
    7.3103  -14.5217   18.3586 C   0  0  0  0  0  0  0  0  0  0  0  0
    8.3221  -15.0396   17.4017 C   0  0  0  0  0  0  0  0  0  0  0  0
    8.7789  -16.3972   17.6439 C   0  0  0  0  0  0  0  0  0  0  0  0
    8.0357  -17.2910   18.1111 O   0  0  0  0  0  0  0  0  0  0  0  0
    8.3705  -13.6888   20.3206 C   0  0  0  0  0  0  0  0  0  0  0  0
    9.5629  -13.9820   20.2533 O   0  0  0  0  0  0  0  0  0  0  0  0
   10.0864  -16.7493   17.3554 O   0  0  0  0  0  0  0  0  0  0  0  0
    8.3176  -13.7263   26.1908 N   0  0  0  0  0  0  0  0  0  0  0  0
    7.6595  -14.5238   25.2361 C   0  0  0  0  0  0  0  0  0  0  0  0
    7.5434  -15.7725   25.5223 O   0  0  0  0  0  0  0  0  0  0  0  0
    7.1160  -14.0161   23.9686 C   0  0  0  0  0  0  0  0  0  0  0  0
    8.0222  -14.2636   22.7838 C   0  0  2  0  0  0  0  0  0  0  0  0
    7.6784  -13.7791   21.5253 N   0  0  0  0  0  0  0  0  0  0  0  0
    8.6151  -15.6018   22.8780 C   0  0  0  0  0  0  0  0  0  0  0  0
    8.3200  -16.5200   22.0312 O   0  0  0  0  0  0  0  0  0  0  0  0
    9.5348  -15.9722   23.8828 N   0  0  0  0  0  0  0  0  0  0  0  0
   10.4312  -17.1077   23.6936 C   0  0  1  0  0  0  0  0  0  0  0  0
   11.2663  -16.7987   22.4787 C   0  0  0  0  0  0  0  0  0  0  0  0
   12.2555  -17.8687   22.2803 C   0  0  0  0  0  0  0  0  0  0  0  0
   11.9957  -18.7937   21.4726 O   0  0  0  0  0  0  0  0  0  0  0  0
   11.2087  -17.3842   24.9081 C   0  0  0  0  0  0  0  0  0  0  0  0
   11.8928  -18.4152   25.0661 O   0  0  0  0  0  0  0  0  0  0  0  0
   13.4480  -17.8368   22.9836 O   0  0  0  0  0  0  0  0  0  0  0  0
   11.1745  -16.4356   25.9356 O   0  0  0  0  0  0  0  0  0  0  0  0
  2  1  1  6
  2  7  1  0
  3  2  1  0
  4  3  1  0
  5  6  2  0
  5  4  1  0
  7  8  2  0
  9  5  1  0
 10 11  1  0
 11 13  1  0
 12 11  2  0
 14 13  1  1
 15  7  1  0
 15 14  1  0
 16 14  1  0
 16 17  2  0
 18 16  1  0
 19 18  1  0
 19 20  1  6
 21 20  1  0
 21 25  1  0
 22 21  2  0
 23 26  1  0
 23 19  1  0
 24 23  2  0
M  END
$$$$
