END.pdb
     RDKit          3D

 26 25  0  0  1  0  0  0  0  0999 V2000
   11.1662  -16.8157   15.7330 N   0  0  0  0  0  0  0  0  0  0  0  0
   10.0391  -16.6693   16.6336 C   0  0  1  0  0  0  0  0  0  0  0  0
    9.7853  -17.9571   17.3920 C   0  0  0  0  0  0  0  0  0  0  0  0
   10.9213  -18.4243   18.2279 C   0  0  0  0  0  0  0  0  0  0  0  0
   10.7098  -19.6775   18.9318 C   0  0  0  0  0  0  0  0  0  0  0  0
    9.6275  -20.3070   18.8880 O   0  0  0  0  0  0  0  0  0  0  0  0
   10.4618  -15.6956   17.7008 C   0  0  0  0  0  0  0  0  0  0  0  0
   11.6679  -15.5210   17.8656 O   0  0  0  0  0  0  0  0  0  0  0  0
   11.7293  -20.2252   19.6915 O   0  0  0  0  0  0  0  0  0  0  0  0
    6.1531  -13.0807   18.8896 N   0  0  0  0  0  0  0  0  0  0  0  0
    7.5508  -13.0038   18.7437 C   0  0  0  0  0  0  0  0  0  0  0  0
    7.9859  -12.7767   17.5547 O   0  0  0  0  0  0  0  0  0  0  0  0
    8.5069  -13.1652   19.8480 C   0  0  0  0  0  0  0  0  0  0  0  0
    9.6450  -14.1069   19.5250 C   0  0  2  0  0  0  0  0  0  0  0  0
    9.5276  -15.0144   18.4765 N   0  0  0  0  0  0  0  0  0  0  0  0
   10.2936  -14.5515   20.7631 C   0  0  0  0  0  0  0  0  0  0  0  0
   10.4320  -13.7579   21.7622 O   0  0  0  0  0  0  0  0  0  0  0  0
   10.8016  -15.8558   20.9458 N   0  0  0  0  0  0  0  0  0  0  0  0
   11.4741  -16.2289   22.1856 C   0  0  1  0  0  0  0  0  0  0  0  0
   10.8151  -17.4945   22.6684 C   0  0  0  0  0  0  0  0  0  0  0  0
   11.4553  -17.9333   23.9176 C   0  0  0  0  0  0  0  0  0  0  0  0
   11.8044  -17.0682   24.7574 O   0  0  0  0  0  0  0  0  0  0  0  0
   12.9261  -16.3371   21.9956 C   0  0  0  0  0  0  0  0  0  0  0  0
   13.7209  -16.6133   22.9163 O   0  0  0  0  0  0  0  0  0  0  0  0
   11.6602  -19.2841   24.1435 O   0  0  0  0  0  0  0  0  0  0  0  0
   13.4347  -16.1179   20.7110 O   0  0  0  0  0  0  0  0  0  0  0  0
  2  1  1  6
  2  7  1  0
  3  2  1  0
  4  3  1  0
  5  6  2  0
  5  4  1  0
  7  8  2  0
  9  5  1  0
 10 11  1  0
 11 13  1  0
 12 11  2  0
 14 13  1  1
 15  7  1  0
 15 14  1  0
 16 14  1  0
 16 17  2  0
 18 16  1  0
 19 18  1  0
 19 20  1  6
 21 20  1  0
 21 25  1  0
 22 21  2  0
 23 26  1  0
 23 19  1  0
 24 23  2  0
M  END
$$$$
