END.pdb
     RDKit          3D

 26 25  0  0  1  0  0  0  0  0999 V2000
    9.3653  -18.9140   18.7794 N   0  0  0  0  0  0  0  0  0  0  0  0
   10.7734  -18.6119   18.6097 C   0  0  1  0  0  0  0  0  0  0  0  0
   11.0489  -18.0984   17.2103 C   0  0  0  0  0  0  0  0  0  0  0  0
   10.3945  -18.8692   16.1216 C   0  0  0  0  0  0  0  0  0  0  0  0
   10.6020  -18.3582   14.7776 C   0  0  0  0  0  0  0  0  0  0  0  0
    9.6728  -17.8964   14.0753 O   0  0  0  0  0  0  0  0  0  0  0  0
   11.0726  -17.4324   19.4957 C   0  0  0  0  0  0  0  0  0  0  0  0
   12.2333  -17.0279   19.5312 O   0  0  0  0  0  0  0  0  0  0  0  0
   11.8697  -18.3681   14.2214 O   0  0  0  0  0  0  0  0  0  0  0  0
    6.3679  -15.4796   21.5204 N   0  0  0  0  0  0  0  0  0  0  0  0
    7.6374  -15.5704   20.9200 C   0  0  0  0  0  0  0  0  0  0  0  0
    7.6938  -16.2092   19.8049 O   0  0  0  0  0  0  0  0  0  0  0  0
    8.8629  -14.9899   21.4865 C   0  0  0  0  0  0  0  0  0  0  0  0
   10.1002  -15.8159   21.2163 C   0  0  2  0  0  0  0  0  0  0  0  0
   10.0771  -16.8172   20.2501 N   0  0  0  0  0  0  0  0  0  0  0  0
   10.8137  -16.0740   22.4715 C   0  0  0  0  0  0  0  0  0  0  0  0
   10.8702  -15.1874   23.3976 O   0  0  0  0  0  0  0  0  0  0  0  0
   11.4758  -17.2893   22.7499 N   0  0  0  0  0  0  0  0  0  0  0  0
   12.2241  -17.4654   23.9900 C   0  0  1  0  0  0  0  0  0  0  0  0
   11.7585  -18.7652   24.5924 C   0  0  0  0  0  0  0  0  0  0  0  0
   11.3484  -18.5389   25.9865 C   0  0  0  0  0  0  0  0  0  0  0  0
   11.5459  -17.4116   26.5020 O   0  0  0  0  0  0  0  0  0  0  0  0
   13.6719  -17.3907   23.7569 C   0  0  0  0  0  0  0  0  0  0  0  0
   14.5157  -17.3734   24.6753 O   0  0  0  0  0  0  0  0  0  0  0  0
   10.7560  -19.5667   26.7007 O   0  0  0  0  0  0  0  0  0  0  0  0
   14.1182  -17.3373   22.4322 O   0  0  0  0  0  0  0  0  0  0  0  0
  2  1  1  6
  2  7  1  0
  3  2  1  0
  4  3  1  0
  5  6  2  0
  5  4  1  0
  7  8  2  0
  9  5  1  0
 10 11  1  0
 11 13  1  0
 12 11  2  0
 14 13  1  1
 15  7  1  0
 15 14  1  0
 16 14  1  0
 16 17  2  0
 18 16  1  0
 19 18  1  0
 19 20  1  6
 21 20  1  0
 21 25  1  0
 22 21  2  0
 23 26  1  0
 23 19  1  0
 24 23  2  0
M  END
$$$$
