END.pdb
     RDKit          3D

 26 25  0  0  1  0  0  0  0  0999 V2000
    8.6405  -12.6248   18.3938 N   0  0  0  0  0  0  0  0  0  0  0  0
    8.7082  -14.0732   18.4171 C   0  0  1  0  0  0  0  0  0  0  0  0
    9.9537  -14.5653   17.7069 C   0  0  0  0  0  0  0  0  0  0  0  0
   11.2285  -13.9936   18.2124 C   0  0  0  0  0  0  0  0  0  0  0  0
   12.4356  -14.4830   17.5690 C   0  0  0  0  0  0  0  0  0  0  0  0
   12.4148  -15.2055   16.5456 O   0  0  0  0  0  0  0  0  0  0  0  0
    8.9254  -14.4729   19.8520 C   0  0  0  0  0  0  0  0  0  0  0  0
    9.7625  -13.8440   20.4969 O   0  0  0  0  0  0  0  0  0  0  0  0
   13.6772  -14.1536   18.0850 O   0  0  0  0  0  0  0  0  0  0  0  0
    5.1646  -16.7771   20.7355 N   0  0  0  0  0  0  0  0  0  0  0  0
    5.9182  -16.7022   21.9216 C   0  0  0  0  0  0  0  0  0  0  0  0
    5.3377  -16.1526   22.9294 O   0  0  0  0  0  0  0  0  0  0  0  0
    7.2921  -17.2049   22.0609 C   0  0  0  0  0  0  0  0  0  0  0  0
    8.3440  -16.2059   21.6347 C   0  0  2  0  0  0  0  0  0  0  0  0
    8.2089  -15.5152   20.4340 N   0  0  0  0  0  0  0  0  0  0  0  0
    9.6757  -16.6876   22.0163 C   0  0  0  0  0  0  0  0  0  0  0  0
   10.3239  -17.5074   21.2715 O   0  0  0  0  0  0  0  0  0  0  0  0
   10.3306  -16.2941   23.2033 N   0  0  0  0  0  0  0  0  0  0  0  0
   11.6273  -16.8577   23.5633 C   0  0  1  0  0  0  0  0  0  0  0  0
   12.6549  -15.7975   23.2646 C   0  0  0  0  0  0  0  0  0  0  0  0
   13.9947  -16.3098   23.5893 C   0  0  0  0  0  0  0  0  0  0  0  0
   14.9687  -15.5185   23.5690 O   0  0  0  0  0  0  0  0  0  0  0  0
   11.6367  -17.3354   24.9517 C   0  0  0  0  0  0  0  0  0  0  0  0
   10.7430  -17.0631   25.7781 O   0  0  0  0  0  0  0  0  0  0  0  0
   14.1565  -17.6474   23.9095 O   0  0  0  0  0  0  0  0  0  0  0  0
   12.7076  -18.1379   25.3590 O   0  0  0  0  0  0  0  0  0  0  0  0
  2  1  1  1
  2  7  1  0
  3  2  1  0
  4  3  1  0
  5  6  2  0
  5  4  1  0
  7  8  2  0
  9  5  1  0
 10 11  1  0
 11 13  1  0
 12 11  2  0
 14 13  1  6
 15  7  1  0
 15 14  1  0
 16 14  1  0
 16 17  2  0
 18 16  1  0
 19 18  1  0
 19 20  1  1
 21 20  1  0
 21 25  1  0
 22 21  2  0
 23 26  1  0
 23 19  1  0
 24 23  2  0
M  END
$$$$
