END.pdb
     RDKit          3D

 26 25  0  0  1  0  0  0  0  0999 V2000
   10.2654  -15.7975   13.3379 N   0  0  0  0  0  0  0  0  0  0  0  0
    9.1353  -15.7449   14.2451 C   0  0  1  0  0  0  0  0  0  0  0  0
    8.5692  -17.1312   14.4808 C   0  0  0  0  0  0  0  0  0  0  0  0
    9.5776  -18.1691   14.8175 C   0  0  0  0  0  0  0  0  0  0  0  0
    9.0539  -19.5063   15.0372 C   0  0  0  0  0  0  0  0  0  0  0  0
    8.1027  -19.9808   14.3741 O   0  0  0  0  0  0  0  0  0  0  0  0
    9.6783  -15.3400   15.5893 C   0  0  0  0  0  0  0  0  0  0  0  0
   10.8987  -15.3599   15.7390 O   0  0  0  0  0  0  0  0  0  0  0  0
    9.6090  -20.3152   16.0140 O   0  0  0  0  0  0  0  0  0  0  0  0
    9.6534  -12.8940   20.2491 N   0  0  0  0  0  0  0  0  0  0  0  0
    8.3305  -13.2947   19.9848 C   0  0  0  0  0  0  0  0  0  0  0  0
    7.4541  -12.9812   20.8727 O   0  0  0  0  0  0  0  0  0  0  0  0
    7.9144  -14.0303   18.7825 C   0  0  0  0  0  0  0  0  0  0  0  0
    9.0714  -14.4508   17.9045 C   0  0  2  0  0  0  0  0  0  0  0  0
    8.8360  -14.9563   16.6295 N   0  0  0  0  0  0  0  0  0  0  0  0
   10.1177  -15.0758   18.7206 C   0  0  0  0  0  0  0  0  0  0  0  0
   10.0906  -16.3309   18.9874 O   0  0  0  0  0  0  0  0  0  0  0  0
   11.2088  -14.3613   19.2605 N   0  0  0  0  0  0  0  0  0  0  0  0
   12.1701  -15.0177   20.1401 C   0  0  1  0  0  0  0  0  0  0  0  0
   13.4473  -14.2242   20.0501 C   0  0  0  0  0  0  0  0  0  0  0  0
   14.1383  -14.5509   18.7937 C   0  0  0  0  0  0  0  0  0  0  0  0
   14.2727  -15.7562   18.4702 O   0  0  0  0  0  0  0  0  0  0  0  0
   11.6400  -15.1588   21.5022 C   0  0  0  0  0  0  0  0  0  0  0  0
   10.5166  -14.7421   21.8489 O   0  0  0  0  0  0  0  0  0  0  0  0
   14.6254  -13.5295   17.9954 O   0  0  0  0  0  0  0  0  0  0  0  0
   12.4440  -15.7959   22.4531 O   0  0  0  0  0  0  0  0  0  0  0  0
  2  1  1  6
  2  7  1  0
  3  2  1  0
  4  3  1  0
  5  6  2  0
  5  4  1  0
  7  8  2  0
  9  5  1  0
 10 11  1  0
 11 13  1  0
 12 11  2  0
 14 13  1  1
 15  7  1  0
 15 14  1  0
 16 14  1  0
 16 17  2  0
 18 16  1  0
 19 18  1  0
 19 20  1  1
 21 20  1  0
 21 25  1  0
 22 21  2  0
 23 26  1  0
 23 19  1  0
 24 23  2  0
M  END
$$$$
