END.pdb
     RDKit          3D

 26 25  0  0  1  0  0  0  0  0999 V2000
    9.3706  -17.7595   16.7239 N   0  0  0  0  0  0  0  0  0  0  0  0
   10.7118  -17.8790   17.2621 C   0  0  1  0  0  0  0  0  0  0  0  0
   11.7476  -17.5648   16.2008 C   0  0  0  0  0  0  0  0  0  0  0  0
   11.3010  -16.6083   15.1553 C   0  0  0  0  0  0  0  0  0  0  0  0
   12.2655  -16.3294   14.1054 C   0  0  0  0  0  0  0  0  0  0  0  0
   11.9298  -16.0489   12.9314 O   0  0  0  0  0  0  0  0  0  0  0  0
   10.8743  -16.7714   18.2684 C   0  0  0  0  0  0  0  0  0  0  0  0
   12.0105  -16.3440   18.4650 O   0  0  0  0  0  0  0  0  0  0  0  0
   13.6212  -16.3670   14.3832 O   0  0  0  0  0  0  0  0  0  0  0  0
    7.9895  -12.4114   19.1599 N   0  0  0  0  0  0  0  0  0  0  0  0
    8.0821  -13.8157   19.1635 C   0  0  0  0  0  0  0  0  0  0  0  0
    7.8200  -14.4049   18.0504 O   0  0  0  0  0  0  0  0  0  0  0  0
    8.4517  -14.6165   20.3390 C   0  0  0  0  0  0  0  0  0  0  0  0
    9.6682  -15.4862   20.1157 C   0  0  2  0  0  0  0  0  0  0  0  0
    9.7833  -16.2457   18.9553 N   0  0  0  0  0  0  0  0  0  0  0  0
   10.0970  -16.0827   21.3852 C   0  0  0  0  0  0  0  0  0  0  0  0
    9.4829  -17.0925   21.8853 O   0  0  0  0  0  0  0  0  0  0  0  0
   11.1928  -15.6032   22.1349 N   0  0  0  0  0  0  0  0  0  0  0  0
   11.5828  -16.2481   23.3842 C   0  0  1  0  0  0  0  0  0  0  0  0
   12.9521  -15.7240   23.7296 C   0  0  0  0  0  0  0  0  0  0  0  0
   13.9450  -16.3114   22.8175 C   0  0  0  0  0  0  0  0  0  0  0  0
   13.5880  -17.2327   22.0433 O   0  0  0  0  0  0  0  0  0  0  0  0
   10.5740  -16.0417   24.4310 C   0  0  0  0  0  0  0  0  0  0  0  0
    9.6132  -15.2550   24.3137 O   0  0  0  0  0  0  0  0  0  0  0  0
   15.2473  -15.8408   22.8290 O   0  0  0  0  0  0  0  0  0  0  0  0
   10.7057  -16.7704   25.6177 O   0  0  0  0  0  0  0  0  0  0  0  0
  2  1  1  6
  2  7  1  0
  3  2  1  0
  4  3  1  0
  5  6  2  0
  5  4  1  0
  7  8  2  0
  9  5  1  0
 10 11  1  0
 11 13  1  0
 12 11  2  0
 14 13  1  1
 15  7  1  0
 15 14  1  0
 16 14  1  0
 16 17  2  0
 18 16  1  0
 19 18  1  0
 19 20  1  1
 21 20  1  0
 21 25  1  0
 22 21  2  0
 23 26  1  0
 23 19  1  0
 24 23  2  0
M  END
$$$$
