END.pdb
     RDKit          3D

 26 25  0  0  1  0  0  0  0  0999 V2000
   11.3713  -14.8151   16.4553 N   0  0  0  0  0  0  0  0  0  0  0  0
   11.8230  -15.7974   17.4218 C   0  0  1  0  0  0  0  0  0  0  0  0
   13.3372  -15.8473   17.4712 C   0  0  0  0  0  0  0  0  0  0  0  0
   14.0198  -14.6355   16.9484 C   0  0  0  0  0  0  0  0  0  0  0  0
   15.4719  -14.6766   16.9633 C   0  0  0  0  0  0  0  0  0  0  0  0
   16.1589  -14.1013   17.8390 O   0  0  0  0  0  0  0  0  0  0  0  0
   11.4312  -15.2799   18.7799 C   0  0  0  0  0  0  0  0  0  0  0  0
   12.3179  -14.7963   19.4814 O   0  0  0  0  0  0  0  0  0  0  0  0
   16.1547  -15.3737   15.9813 O   0  0  0  0  0  0  0  0  0  0  0  0
    8.0926  -11.9962   19.3738 N   0  0  0  0  0  0  0  0  0  0  0  0
    7.9752  -13.3967   19.2997 C   0  0  0  0  0  0  0  0  0  0  0  0
    7.6807  -13.8814   18.1451 O   0  0  0  0  0  0  0  0  0  0  0  0
    8.1663  -14.3035   20.4402 C   0  0  0  0  0  0  0  0  0  0  0  0
    9.5081  -15.0005   20.4359 C   0  0  2  0  0  0  0  0  0  0  0  0
   10.1159  -15.3433   19.2318 N   0  0  0  0  0  0  0  0  0  0  0  0
    9.5818  -15.9514   21.5501 C   0  0  0  0  0  0  0  0  0  0  0  0
    9.3196  -17.1961   21.3792 O   0  0  0  0  0  0  0  0  0  0  0  0
    9.9397  -15.5787   22.8638 N   0  0  0  0  0  0  0  0  0  0  0  0
   10.5405  -16.5448   23.7771 C   0  0  1  0  0  0  0  0  0  0  0  0
   12.0329  -16.3776   23.6594 C   0  0  0  0  0  0  0  0  0  0  0  0
   12.7045  -17.3524   24.5320 C   0  0  0  0  0  0  0  0  0  0  0  0
   12.0067  -18.1770   25.1712 O   0  0  0  0  0  0  0  0  0  0  0  0
   10.0197  -16.3878   25.1410 C   0  0  0  0  0  0  0  0  0  0  0  0
    9.2985  -15.4339   25.4956 O   0  0  0  0  0  0  0  0  0  0  0  0
   14.0856  -17.3431   24.6322 O   0  0  0  0  0  0  0  0  0  0  0  0
   10.3549  -17.3646   26.0845 O   0  0  0  0  0  0  0  0  0  0  0  0
  2  1  1  6
  2  7  1  0
  3  2  1  0
  4  3  1  0
  5  6  2  0
  5  4  1  0
  7  8  2  0
  9  5  1  0
 10 11  1  0
 11 13  1  0
 12 11  2  0
 14 13  1  6
 15  7  1  0
 15 14  1  0
 16 14  1  0
 16 17  2  0
 18 16  1  0
 19 18  1  0
 19 20  1  1
 21 20  1  0
 21 25  1  0
 22 21  2  0
 23 26  1  0
 23 19  1  0
 24 23  2  0
M  END
$$$$
