END.pdb
     RDKit          3D

 26 25  0  0  1  0  0  0  0  0999 V2000
    8.9646  -17.2324   16.6533 N   0  0  0  0  0  0  0  0  0  0  0  0
   10.3180  -16.7125   16.6221 C   0  0  1  0  0  0  0  0  0  0  0  0
   10.4594  -15.6431   15.5570 C   0  0  0  0  0  0  0  0  0  0  0  0
   11.1124  -16.0944   14.3011 C   0  0  0  0  0  0  0  0  0  0  0  0
   10.3283  -16.9950   13.4737 C   0  0  0  0  0  0  0  0  0  0  0  0
    9.2692  -16.6449   12.9032 O   0  0  0  0  0  0  0  0  0  0  0  0
   10.5256  -15.9690   17.9143 C   0  0  0  0  0  0  0  0  0  0  0  0
   11.6156  -15.4273   18.0897 O   0  0  0  0  0  0  0  0  0  0  0  0
   10.7437  -18.3025   13.2880 O   0  0  0  0  0  0  0  0  0  0  0  0
    7.9348  -12.3154   19.6534 N   0  0  0  0  0  0  0  0  0  0  0  0
    7.7162  -13.7057   19.6586 C   0  0  0  0  0  0  0  0  0  0  0  0
    6.9769  -14.1677   18.7127 O   0  0  0  0  0  0  0  0  0  0  0  0
    8.2733  -14.6260   20.6597 C   0  0  0  0  0  0  0  0  0  0  0  0
    9.4905  -15.3791   20.1725 C   0  0  2  0  0  0  0  0  0  0  0  0
    9.5254  -15.8935   18.8799 N   0  0  0  0  0  0  0  0  0  0  0  0
   10.0466  -16.1897   21.2611 C   0  0  0  0  0  0  0  0  0  0  0  0
    9.5321  -17.3229   21.5747 O   0  0  0  0  0  0  0  0  0  0  0  0
   11.1642  -15.7947   22.0276 N   0  0  0  0  0  0  0  0  0  0  0  0
   11.6467  -16.6234   23.1272 C   0  0  1  0  0  0  0  0  0  0  0  0
   13.0339  -16.1369   23.4559 C   0  0  0  0  0  0  0  0  0  0  0  0
   13.9334  -16.4262   22.3288 C   0  0  0  0  0  0  0  0  0  0  0  0
   13.8990  -17.5647   21.8014 O   0  0  0  0  0  0  0  0  0  0  0  0
   10.7142  -16.6042   24.2612 C   0  0  0  0  0  0  0  0  0  0  0  0
    9.6919  -15.8904   24.2982 O   0  0  0  0  0  0  0  0  0  0  0  0
   14.7965  -15.4440   21.8729 O   0  0  0  0  0  0  0  0  0  0  0  0
   10.9952  -17.4337   25.3520 O   0  0  0  0  0  0  0  0  0  0  0  0
  2  1  1  1
  2  7  1  0
  3  2  1  0
  4  3  1  0
  5  6  2  0
  5  4  1  0
  7  8  2  0
  9  5  1  0
 10 11  1  0
 11 13  1  0
 12 11  2  0
 14 13  1  1
 15  7  1  0
 15 14  1  0
 16 14  1  0
 16 17  2  0
 18 16  1  0
 19 18  1  0
 19 20  1  1
 21 20  1  0
 21 25  1  0
 22 21  2  0
 23 26  1  0
 23 19  1  0
 24 23  2  0
M  END
$$$$
