END.pdb
     RDKit          3D

 26 25  0  0  1  0  0  0  0  0999 V2000
   10.5445  -16.3132   16.2762 N   0  0  0  0  0  0  0  0  0  0  0  0
   10.9273  -17.2063   17.3526 C   0  0  1  0  0  0  0  0  0  0  0  0
   12.3585  -17.6751   17.1799 C   0  0  0  0  0  0  0  0  0  0  0  0
   12.8213  -17.7638   15.7708 C   0  0  0  0  0  0  0  0  0  0  0  0
   14.0566  -17.0610   15.4696 C   0  0  0  0  0  0  0  0  0  0  0  0
   14.1645  -15.8150   15.5428 O   0  0  0  0  0  0  0  0  0  0  0  0
   10.9647  -16.3781   18.6091 C   0  0  0  0  0  0  0  0  0  0  0  0
   12.0655  -16.0083   19.0137 O   0  0  0  0  0  0  0  0  0  0  0  0
   15.1803  -17.7712   15.0829 O   0  0  0  0  0  0  0  0  0  0  0  0
    7.9686  -12.4661   19.4855 N   0  0  0  0  0  0  0  0  0  0  0  0
    7.8498  -13.8652   19.5799 C   0  0  0  0  0  0  0  0  0  0  0  0
    7.3292  -14.4606   18.5654 O   0  0  0  0  0  0  0  0  0  0  0  0
    8.2776  -14.6541   20.7437 C   0  0  0  0  0  0  0  0  0  0  0  0
    9.5638  -15.4151   20.5141 C   0  0  2  0  0  0  0  0  0  0  0  0
    9.8002  -16.0398   19.2932 N   0  0  0  0  0  0  0  0  0  0  0  0
    9.9590  -16.1124   21.7425 C   0  0  0  0  0  0  0  0  0  0  0  0
    9.3965  -17.2116   22.0923 O   0  0  0  0  0  0  0  0  0  0  0  0
   10.9653  -15.6390   22.6120 N   0  0  0  0  0  0  0  0  0  0  0  0
   11.2479  -16.3221   23.8699 C   0  0  1  0  0  0  0  0  0  0  0  0
   12.6207  -15.8774   24.3018 C   0  0  0  0  0  0  0  0  0  0  0  0
   13.6372  -16.6394   23.5608 C   0  0  0  0  0  0  0  0  0  0  0  0
   13.2658  -17.5622   22.7953 O   0  0  0  0  0  0  0  0  0  0  0  0
   10.1926  -16.0771   24.8610 C   0  0  0  0  0  0  0  0  0  0  0  0
   10.0816  -16.7251   25.9209 O   0  0  0  0  0  0  0  0  0  0  0  0
   14.9769  -16.3273   23.7201 O   0  0  0  0  0  0  0  0  0  0  0  0
    9.2689  -15.0612   24.5938 O   0  0  0  0  0  0  0  0  0  0  0  0
  2  1  1  6
  2  7  1  0
  3  2  1  0
  4  3  1  0
  5  6  2  0
  5  4  1  0
  7  8  2  0
  9  5  1  0
 10 11  1  0
 11 13  1  0
 12 11  2  0
 14 13  1  1
 15  7  1  0
 15 14  1  0
 16 14  1  0
 16 17  2  0
 18 16  1  0
 19 18  1  0
 19 20  1  1
 21 20  1  0
 21 25  1  0
 22 21  2  0
 23 26  1  0
 23 19  1  0
 24 23  2  0
M  END
$$$$
