END.pdb
     RDKit          3D

 26 25  0  0  1  0  0  0  0  0999 V2000
   10.4636  -13.6367   18.1863 N   0  0  0  0  0  0  0  0  0  0  0  0
    9.0893  -13.2282   18.4041 C   0  0  1  0  0  0  0  0  0  0  0  0
    8.1810  -13.8038   17.3357 C   0  0  0  0  0  0  0  0  0  0  0  0
    8.7296  -13.7544   15.9558 C   0  0  0  0  0  0  0  0  0  0  0  0
    7.9652  -14.4712   14.9496 C   0  0  0  0  0  0  0  0  0  0  0  0
    7.1454  -13.9062   14.1890 O   0  0  0  0  0  0  0  0  0  0  0  0
    8.6336  -13.9015   19.6709 C   0  0  0  0  0  0  0  0  0  0  0  0
    7.4598  -13.7497   20.0048 O   0  0  0  0  0  0  0  0  0  0  0  0
    8.1279  -15.8378   14.8003 O   0  0  0  0  0  0  0  0  0  0  0  0
    6.7281  -14.5080   22.0441 N   0  0  0  0  0  0  0  0  0  0  0  0
    6.8341  -15.8659   21.6898 C   0  0  0  0  0  0  0  0  0  0  0  0
    5.7329  -16.5297   21.6492 O   0  0  0  0  0  0  0  0  0  0  0  0
    8.1006  -16.5411   21.3742 C   0  0  0  0  0  0  0  0  0  0  0  0
    9.3016  -15.6243   21.4329 C   0  0  2  0  0  0  0  0  0  0  0  0
    9.5031  -14.6690   20.4412 N   0  0  0  0  0  0  0  0  0  0  0  0
   10.4656  -16.3563   21.9433 C   0  0  0  0  0  0  0  0  0  0  0  0
   10.3391  -17.2560   22.8498 O   0  0  0  0  0  0  0  0  0  0  0  0
   11.7823  -16.1327   21.4860 N   0  0  0  0  0  0  0  0  0  0  0  0
   12.9214  -16.2854   22.3847 C   0  0  1  0  0  0  0  0  0  0  0  0
   13.8776  -15.1673   22.0611 C   0  0  0  0  0  0  0  0  0  0  0  0
   14.2597  -15.2457   20.6431 C   0  0  0  0  0  0  0  0  0  0  0  0
   15.3465  -15.7938   20.3366 O   0  0  0  0  0  0  0  0  0  0  0  0
   12.4937  -16.3287   23.7887 C   0  0  0  0  0  0  0  0  0  0  0  0
   12.8642  -17.2070   24.5931 O   0  0  0  0  0  0  0  0  0  0  0  0
   13.4193  -14.7167   19.6780 O   0  0  0  0  0  0  0  0  0  0  0  0
   11.6260  -15.3278   24.2382 O   0  0  0  0  0  0  0  0  0  0  0  0
  2  1  1  6
  2  7  1  0
  3  2  1  0
  4  3  1  0
  5  6  2  0
  5  4  1  0
  7  8  2  0
  9  5  1  0
 10 11  1  0
 11 13  1  0
 12 11  2  0
 14 13  1  6
 15  7  1  0
 15 14  1  0
 16 14  1  0
 16 17  2  0
 18 16  1  0
 19 18  1  0
 19 20  1  1
 21 20  1  0
 21 25  1  0
 22 21  2  0
 23 26  1  0
 23 19  1  0
 24 23  2  0
M  END
$$$$
