ENG.pdb
     RDKit          3D

 22 21  0  0  1  0  0  0  0  0999 V2000
   23.3119  -37.3988  -12.4474 N   0  0  0  0  0  0  0  0  0  0  0  0
   24.5288  -37.6476  -11.7173 C   0  0  1  0  0  0  0  0  0  0  0  0
   25.3054  -38.7419  -12.3750 C   0  0  0  0  0  0  0  0  0  0  0  0
   24.6233  -40.0745  -12.2473 C   0  0  0  0  0  0  0  0  0  0  0  0
   25.3457  -40.9238  -11.2931 C   0  0  0  0  0  0  0  0  0  0  0  0
   26.5774  -41.1102  -11.4831 O   0  0  0  0  0  0  0  0  0  0  0  0
   25.3392  -36.4162  -11.5200 C   0  0  0  0  0  0  0  0  0  0  0  0
   26.5384  -36.4866  -11.2046 O   0  0  0  0  0  0  0  0  0  0  0  0
   24.7681  -41.5375  -10.1937 O   0  0  0  0  0  0  0  0  0  0  0  0
   26.5010  -34.4594  -14.2014 N   0  0  0  0  0  0  0  0  0  0  0  0
   25.7138  -33.3314  -13.9391 C   0  0  0  0  0  0  0  0  0  0  0  0
   25.4638  -32.5566  -14.9204 O   0  0  0  0  0  0  0  0  0  0  0  0
   25.1425  -32.9421  -12.6525 C   0  0  0  0  0  0  0  0  0  0  0  0
   25.4266  -33.8923  -11.5318 C   0  0  2  0  0  0  0  0  0  0  0  0
   24.7482  -35.1588  -11.6910 N   0  0  0  0  0  0  0  0  0  0  0  0
   25.2390  -33.3000  -10.2011 C   0  0  0  0  0  0  0  0  0  0  0  0
   24.1197  -33.2090   -9.6741 O   0  0  0  0  0  0  0  0  0  0  0  0
   26.3786  -32.8200   -9.5051 N   0  0  0  0  0  0  0  0  0  0  0  0
   26.2980  -32.1278   -8.2495 C   0  0  0  0  0  0  0  0  0  0  0  0
   26.0447  -33.1039   -7.1727 C   0  0  0  0  0  0  0  0  0  0  0  0
   25.9410  -32.7068   -5.8731 O   0  0  0  0  0  0  0  0  0  0  0  0
   25.9234  -34.3172   -7.4651 O   0  0  0  0  0  0  0  0  0  0  0  0
  2  1  1  6
  2  7  1  0
  2  3  1  0
  3  4  1  0
  4  5  1  0
  5  9  1  0
  6  5  2  0
  7 15  1  0
  8  7  2  0
 10 11  1  0
 11 13  1  0
 12 11  2  0
 14 13  1  6
 14 16  1  0
 15 14  1  0
 16 18  1  0
 16 17  2  0
 18 19  1  0
 19 20  1  0
 20 21  1  0
 22 20  2  0
M  END
$$$$
