ENG.pdb
     RDKit          3D

 22 21  0  0  1  0  0  0  0  0999 V2000
   17.2228   -8.9870  -17.1140 N   0  0  0  0  0  0  0  0  0  0  0  0
   17.1267   -9.4072  -15.7392 C   0  0  1  0  0  0  0  0  0  0  0  0
   17.3397  -10.8830  -15.6393 C   0  0  0  0  0  0  0  0  0  0  0  0
   18.6292  -11.3125  -16.2796 C   0  0  0  0  0  0  0  0  0  0  0  0
   18.8879  -12.7291  -15.9965 C   0  0  0  0  0  0  0  0  0  0  0  0
   19.0595  -13.5051  -16.9744 O   0  0  0  0  0  0  0  0  0  0  0  0
   18.0329   -8.6411  -14.8426 C   0  0  0  0  0  0  0  0  0  0  0  0
   18.0011   -8.8072  -13.6122 O   0  0  0  0  0  0  0  0  0  0  0  0
   18.9578  -13.2764  -14.7258 O   0  0  0  0  0  0  0  0  0  0  0  0
   22.0899   -5.6799  -13.1563 N   0  0  0  0  0  0  0  0  0  0  0  0
   22.2883   -6.3473  -14.3712 C   0  0  0  0  0  0  0  0  0  0  0  0
   23.4723   -6.3527  -14.8444 O   0  0  0  0  0  0  0  0  0  0  0  0
   21.2779   -7.0443  -15.1627 C   0  0  0  0  0  0  0  0  0  0  0  0
   19.8844   -6.9372  -14.6275 C   0  0  2  0  0  0  0  0  0  0  0  0
   18.9354   -7.7197  -15.3868 N   0  0  0  0  0  0  0  0  0  0  0  0
   19.4470   -5.5525  -14.4084 C   0  0  0  0  0  0  0  0  0  0  0  0
   19.9806   -4.8211  -13.5604 O   0  0  0  0  0  0  0  0  0  0  0  0
   18.3808   -5.0450  -15.1952 N   0  0  0  0  0  0  0  0  0  0  0  0
   17.8047   -3.7453  -14.9926 C   0  0  0  0  0  0  0  0  0  0  0  0
   18.7723   -2.7146  -15.4143 C   0  0  0  0  0  0  0  0  0  0  0  0
   18.4583   -1.3896  -15.3577 O   0  0  0  0  0  0  0  0  0  0  0  0
   19.9004   -3.0704  -15.8303 O   0  0  0  0  0  0  0  0  0  0  0  0
  2  1  1  6
  2  7  1  0
  2  3  1  0
  3  4  1  0
  4  5  1  0
  5  9  1  0
  6  5  2  0
  7 15  1  0
  8  7  2  0
 10 11  1  0
 11 13  1  0
 12 11  2  0
 14 13  1  6
 14 16  1  0
 15 14  1  0
 16 18  1  0
 16 17  2  0
 18 19  1  0
 19 20  1  0
 20 21  1  0
 22 20  2  0
M  END
$$$$
