ENG.pdb
     RDKit          3D

 22 21  0  0  1  0  0  0  0  0999 V2000
   21.7011  -11.4110  -15.7010 N   0  0  0  0  0  0  0  0  0  0  0  0
   21.0468  -10.9903  -16.9137 C   0  0  1  0  0  0  0  0  0  0  0  0
   19.9897  -11.9761  -17.2931 C   0  0  0  0  0  0  0  0  0  0  0  0
   20.3165  -13.3647  -16.8216 C   0  0  0  0  0  0  0  0  0  0  0  0
   19.2899  -14.3092  -17.2777 C   0  0  0  0  0  0  0  0  0  0  0  0
   18.4807  -14.7599  -16.4234 O   0  0  0  0  0  0  0  0  0  0  0  0
   20.5227   -9.6010  -16.8283 C   0  0  0  0  0  0  0  0  0  0  0  0
   20.0362   -9.0414  -17.8245 O   0  0  0  0  0  0  0  0  0  0  0  0
   19.1460  -14.7419  -18.5857 O   0  0  0  0  0  0  0  0  0  0  0  0
   17.2863   -5.4289  -15.0603 N   0  0  0  0  0  0  0  0  0  0  0  0
   18.3739   -6.0810  -14.4664 C   0  0  0  0  0  0  0  0  0  0  0  0
   19.0472   -5.4226  -13.6068 O   0  0  0  0  0  0  0  0  0  0  0  0
   18.8252   -7.4456  -14.7263 C   0  0  0  0  0  0  0  0  0  0  0  0
   20.1516   -7.5429  -15.4126 C   0  0  2  0  0  0  0  0  0  0  0  0
   20.5756   -8.9104  -15.6118 N   0  0  0  0  0  0  0  0  0  0  0  0
   21.1884   -6.6996  -14.8038 C   0  0  0  0  0  0  0  0  0  0  0  0
   21.7433   -7.0070  -13.7377 O   0  0  0  0  0  0  0  0  0  0  0  0
   21.5597   -5.4988  -15.4622 N   0  0  0  0  0  0  0  0  0  0  0  0
   22.6241   -4.6497  -15.0059 C   0  0  0  0  0  0  0  0  0  0  0  0
   22.0503   -3.4956  -14.2881 C   0  0  0  0  0  0  0  0  0  0  0  0
   21.3028   -3.6684  -13.1617 O   0  0  0  0  0  0  0  0  0  0  0  0
   22.2581   -2.3395  -14.7268 O   0  0  0  0  0  0  0  0  0  0  0  0
  2  1  1  1
  2  7  1  0
  2  3  1  0
  3  4  1  0
  4  5  1  0
  5  9  1  0
  6  5  2  0
  7 15  1  0
  8  7  2  0
 10 11  1  0
 11 13  1  0
 12 11  2  0
 14 13  1  1
 14 16  1  0
 15 14  1  0
 16 18  1  0
 16 17  2  0
 18 19  1  0
 19 20  1  0
 20 21  1  0
 22 20  2  0
M  END
$$$$
