ENG.pdb
     RDKit          3D

 22 21  0  0  1  0  0  0  0  0999 V2000
   21.3855  -12.0870  -16.2997 N   0  0  0  0  0  0  0  0  0  0  0  0
   20.6558  -10.8498  -16.4124 C   0  0  1  0  0  0  0  0  0  0  0  0
   19.2848  -11.0105  -15.8401 C   0  0  0  0  0  0  0  0  0  0  0  0
   18.9138  -12.4551  -15.6590 C   0  0  0  0  0  0  0  0  0  0  0  0
   17.5421  -12.5656  -15.1490 C   0  0  0  0  0  0  0  0  0  0  0  0
   16.9370  -11.5025  -14.8466 O   0  0  0  0  0  0  0  0  0  0  0  0
   21.3871   -9.6987  -15.8188 C   0  0  0  0  0  0  0  0  0  0  0  0
   21.6189   -9.6517  -14.5996 O   0  0  0  0  0  0  0  0  0  0  0  0
   16.8620  -13.7600  -14.9760 O   0  0  0  0  0  0  0  0  0  0  0  0
   24.2965   -5.2759  -15.3794 N   0  0  0  0  0  0  0  0  0  0  0  0
   24.6849   -6.2282  -16.3298 C   0  0  0  0  0  0  0  0  0  0  0  0
   25.8406   -6.0912  -16.8507 O   0  0  0  0  0  0  0  0  0  0  0  0
   23.9036   -7.3717  -16.7936 C   0  0  0  0  0  0  0  0  0  0  0  0
   22.5403   -7.4821  -16.1862 C   0  0  2  0  0  0  0  0  0  0  0  0
   21.8224   -8.6519  -16.6400 N   0  0  0  0  0  0  0  0  0  0  0  0
   21.7533   -6.2464  -16.2871 C   0  0  0  0  0  0  0  0  0  0  0  0
   22.2398   -5.1346  -16.0304 O   0  0  0  0  0  0  0  0  0  0  0  0
   20.3960   -6.3372  -16.6911 N   0  0  0  0  0  0  0  0  0  0  0  0
   19.5309   -5.1962  -16.7997 C   0  0  0  0  0  0  0  0  0  0  0  0
   19.2293   -4.6856  -15.4489 C   0  0  0  0  0  0  0  0  0  0  0  0
   18.3682   -3.6452  -15.2661 O   0  0  0  0  0  0  0  0  0  0  0  0
   19.7773   -5.2226  -14.4572 O   0  0  0  0  0  0  0  0  0  0  0  0
  2  1  1  1
  2  7  1  0
  2  3  1  0
  3  4  1  0
  4  5  1  0
  5  9  1  0
  6  5  2  0
  7 15  1  0
  8  7  2  0
 10 11  1  0
 11 13  1  0
 12 11  2  0
 14 13  1  6
 14 16  1  0
 15 14  1  0
 16 18  1  0
 16 17  2  0
 18 19  1  0
 19 20  1  0
 20 21  1  0
 22 20  2  0
M  END
$$$$
