ENG.pdb
     RDKit          3D

 22 21  0  0  1  0  0  0  0  0999 V2000
   18.0213  -12.2446  -15.7155 N   0  0  0  0  0  0  0  0  0  0  0  0
   18.0552  -10.8691  -16.1428 C   0  0  1  0  0  0  0  0  0  0  0  0
   16.7868  -10.1812  -15.7538 C   0  0  0  0  0  0  0  0  0  0  0  0
   16.1320  -10.8313  -14.5681 C   0  0  0  0  0  0  0  0  0  0  0  0
   14.8601  -10.1654  -14.2637 C   0  0  0  0  0  0  0  0  0  0  0  0
   13.8885  -10.3646  -15.0410 O   0  0  0  0  0  0  0  0  0  0  0  0
   19.2629  -10.1493  -15.6576 C   0  0  0  0  0  0  0  0  0  0  0  0
   19.6046  -10.2104  -14.4651 O   0  0  0  0  0  0  0  0  0  0  0  0
   14.6502   -9.3306  -13.1784 O   0  0  0  0  0  0  0  0  0  0  0  0
   22.8461  -11.0901  -15.8068 N   0  0  0  0  0  0  0  0  0  0  0  0
   23.0793  -10.2080  -16.8690 C   0  0  0  0  0  0  0  0  0  0  0  0
   24.0121  -10.5128  -17.6831 O   0  0  0  0  0  0  0  0  0  0  0  0
   22.3641   -8.9656  -17.1489 C   0  0  0  0  0  0  0  0  0  0  0  0
   21.2351   -8.6722  -16.2115 C   0  0  2  0  0  0  0  0  0  0  0  0
   20.0284   -9.3917  -16.5519 N   0  0  0  0  0  0  0  0  0  0  0  0
   21.0105   -7.2368  -15.9976 C   0  0  0  0  0  0  0  0  0  0  0  0
   20.4464   -6.5265  -16.8439 O   0  0  0  0  0  0  0  0  0  0  0  0
   21.4559   -6.6537  -14.7831 N   0  0  0  0  0  0  0  0  0  0  0  0
   21.2710   -5.2658  -14.4640 C   0  0  0  0  0  0  0  0  0  0  0  0
   21.9342   -4.9707  -13.1797 C   0  0  0  0  0  0  0  0  0  0  0  0
   22.4346   -5.9704  -12.4001 O   0  0  0  0  0  0  0  0  0  0  0  0
   22.0361   -3.7783  -12.8054 O   0  0  0  0  0  0  0  0  0  0  0  0
  2  1  1  1
  2  7  1  0
  2  3  1  0
  3  4  1  0
  4  5  1  0
  5  9  1  0
  6  5  2  0
  7 15  1  0
  8  7  2  0
 10 11  1  0
 11 13  1  0
 12 11  2  0
 14 13  1  6
 14 16  1  0
 15 14  1  0
 16 18  1  0
 16 17  2  0
 18 19  1  0
 19 20  1  0
 20 21  1  0
 22 20  2  0
M  END
$$$$
