ENG.pdb
     RDKit          3D

 22 21  0  0  1  0  0  0  0  0999 V2000
   19.9956  -12.3933  -15.9349 N   0  0  0  0  0  0  0  0  0  0  0  0
   20.2683  -11.4898  -17.0236 C   0  0  1  0  0  0  0  0  0  0  0  0
   19.5378  -11.9316  -18.2502 C   0  0  0  0  0  0  0  0  0  0  0  0
   18.3049  -12.7238  -17.9191 C   0  0  0  0  0  0  0  0  0  0  0  0
   17.5849  -13.0773  -19.1481 C   0  0  0  0  0  0  0  0  0  0  0  0
   16.5695  -12.3968  -19.4542 O   0  0  0  0  0  0  0  0  0  0  0  0
   19.9855  -10.0720  -16.6745 C   0  0  0  0  0  0  0  0  0  0  0  0
   20.1968   -9.1606  -17.4912 O   0  0  0  0  0  0  0  0  0  0  0  0
   17.9434  -14.1096  -19.9995 O   0  0  0  0  0  0  0  0  0  0  0  0
   16.7851   -8.5436  -16.6043 N   0  0  0  0  0  0  0  0  0  0  0  0
   16.7224   -8.3881  -15.2141 C   0  0  0  0  0  0  0  0  0  0  0  0
   15.5627   -8.3109  -14.6898 O   0  0  0  0  0  0  0  0  0  0  0  0
   17.8508   -8.3043  -14.2905 C   0  0  0  0  0  0  0  0  0  0  0  0
   19.1953   -8.4174  -14.9379 C   0  0  2  0  0  0  0  0  0  0  0  0
   19.4742   -9.7547  -15.4105 N   0  0  0  0  0  0  0  0  0  0  0  0
   20.2831   -7.8521  -14.1294 C   0  0  0  0  0  0  0  0  0  0  0  0
   20.8580   -8.5103  -13.2489 O   0  0  0  0  0  0  0  0  0  0  0  0
   20.6816   -6.5116  -14.3699 N   0  0  0  0  0  0  0  0  0  0  0  0
   21.7728   -5.8811  -13.6816 C   0  0  0  0  0  0  0  0  0  0  0  0
   21.9854   -4.5329  -14.2414 C   0  0  0  0  0  0  0  0  0  0  0  0
   22.8865   -3.6744  -13.6860 O   0  0  0  0  0  0  0  0  0  0  0  0
   21.3231   -4.1776  -15.2451 O   0  0  0  0  0  0  0  0  0  0  0  0
  2  1  1  1
  2  7  1  0
  2  3  1  0
  3  4  1  0
  4  5  1  0
  5  9  1  0
  6  5  2  0
  7 15  1  0
  8  7  2  0
 10 11  1  0
 11 13  1  0
 12 11  2  0
 14 13  1  1
 14 16  1  0
 15 14  1  0
 16 18  1  0
 16 17  2  0
 18 19  1  0
 19 20  1  0
 20 21  1  0
 22 20  2  0
M  END
$$$$
