ENG.pdb
     RDKit          3D

 22 21  0  0  1  0  0  0  0  0999 V2000
   28.4468  -21.6445  -16.4889 N   0  0  0  0  0  0  0  0  0  0  0  0
   27.3763  -20.8006  -16.0222 C   0  0  1  0  0  0  0  0  0  0  0  0
   26.2826  -20.7520  -17.0394 C   0  0  0  0  0  0  0  0  0  0  0  0
   25.9630  -19.3451  -17.4587 C   0  0  0  0  0  0  0  0  0  0  0  0
   24.6082  -18.9831  -17.0262 C   0  0  0  0  0  0  0  0  0  0  0  0
   24.4898  -18.1236  -16.1124 O   0  0  0  0  0  0  0  0  0  0  0  0
   26.8822  -21.1958  -14.6761 C   0  0  0  0  0  0  0  0  0  0  0  0
   26.2696  -22.2634  -14.5107 O   0  0  0  0  0  0  0  0  0  0  0  0
   23.4453  -19.5207  -17.5531 O   0  0  0  0  0  0  0  0  0  0  0  0
   30.1670  -20.2218  -11.8622 N   0  0  0  0  0  0  0  0  0  0  0  0
   29.0088  -20.8054  -11.3342 C   0  0  0  0  0  0  0  0  0  0  0  0
   29.1018  -22.0068  -10.9175 O   0  0  0  0  0  0  0  0  0  0  0  0
   27.6939  -20.1823  -11.2073 C   0  0  0  0  0  0  0  0  0  0  0  0
   26.6903  -20.6334  -12.2216 C   0  0  2  0  0  0  0  0  0  0  0  0
   27.1078  -20.3577  -13.5778 N   0  0  0  0  0  0  0  0  0  0  0  0
   25.3237  -20.1790  -11.9345 C   0  0  0  0  0  0  0  0  0  0  0  0
   24.8629  -19.1344  -12.4196 O   0  0  0  0  0  0  0  0  0  0  0  0
   24.5135  -20.9652  -11.0748 N   0  0  0  0  0  0  0  0  0  0  0  0
   23.1834  -20.5877  -10.6867 C   0  0  0  0  0  0  0  0  0  0  0  0
   22.2248  -21.0873  -11.6907 C   0  0  0  0  0  0  0  0  0  0  0  0
   20.8846  -20.8886  -11.5437 O   0  0  0  0  0  0  0  0  0  0  0  0
   22.6572  -21.7036  -12.6934 O   0  0  0  0  0  0  0  0  0  0  0  0
  2  1  1  6
  2  7  1  0
  2  3  1  0
  3  4  1  0
  4  5  1  0
  5  9  1  0
  6  5  2  0
  7 15  1  0
  8  7  2  0
 10 11  1  0
 11 13  1  0
 12 11  2  0
 14 13  1  1
 14 16  1  0
 15 14  1  0
 16 18  1  0
 16 17  2  0
 18 19  1  0
 19 20  1  0
 20 21  1  0
 22 20  2  0
M  END
$$$$
