ENG.pdb
     RDKit          3D

 22 21  0  0  1  0  0  0  0  0999 V2000
   15.9999  -10.7819  -12.5195 N   0  0  0  0  0  0  0  0  0  0  0  0
   15.2698   -9.6321  -12.9893 C   0  0  1  0  0  0  0  0  0  0  0  0
   13.8062   -9.9325  -13.0185 C   0  0  0  0  0  0  0  0  0  0  0  0
   13.5243  -11.3920  -12.8000 C   0  0  0  0  0  0  0  0  0  0  0  0
   12.0828  -11.6496  -12.8977 C   0  0  0  0  0  0  0  0  0  0  0  0
   11.3448  -11.2391  -11.9624 O   0  0  0  0  0  0  0  0  0  0  0  0
   15.5811   -8.4014  -12.2143 C   0  0  0  0  0  0  0  0  0  0  0  0
   15.0442   -7.3178  -12.4972 O   0  0  0  0  0  0  0  0  0  0  0  0
   11.4729  -12.3140  -13.9491 O   0  0  0  0  0  0  0  0  0  0  0  0
   14.0470   -8.5442   -8.5072 N   0  0  0  0  0  0  0  0  0  0  0  0
   14.9503   -7.4837   -8.6482 C   0  0  0  0  0  0  0  0  0  0  0  0
   14.4750   -6.3026   -8.5796 O   0  0  0  0  0  0  0  0  0  0  0  0
   16.3910   -7.5837   -8.8671 C   0  0  0  0  0  0  0  0  0  0  0  0
   16.8236   -7.3540  -10.2812 C   0  0  2  0  0  0  0  0  0  0  0  0
   16.4900   -8.4591  -11.1513 N   0  0  0  0  0  0  0  0  0  0  0  0
   18.2230   -6.9255  -10.4025 C   0  0  0  0  0  0  0  0  0  0  0  0
   18.7207   -6.0828   -9.6403 O   0  0  0  0  0  0  0  0  0  0  0  0
   19.0220   -7.4984  -11.4256 N   0  0  0  0  0  0  0  0  0  0  0  0
   20.4083   -7.1745  -11.6136 C   0  0  0  0  0  0  0  0  0  0  0  0
   20.5158   -5.9879  -12.4835 C   0  0  0  0  0  0  0  0  0  0  0  0
   19.4029   -5.3570  -12.9536 O   0  0  0  0  0  0  0  0  0  0  0  0
   21.6527   -5.5578  -12.7910 O   0  0  0  0  0  0  0  0  0  0  0  0
  2  1  1  1
  2  7  1  0
  2  3  1  0
  3  4  1  0
  4  5  1  0
  5  9  1  0
  6  5  2  0
  7 15  1  0
  8  7  2  0
 10 11  1  0
 11 13  1  0
 12 11  2  0
 14 13  1  1
 14 16  1  0
 15 14  1  0
 16 18  1  0
 16 17  2  0
 18 19  1  0
 19 20  1  0
 20 21  1  0
 22 20  2  0
M  END
$$$$
