ENG.pdb
     RDKit          3D

 22 21  0  0  1  0  0  0  0  0999 V2000
   20.4295  -12.3365  -16.4940 N   0  0  0  0  0  0  0  0  0  0  0  0
   21.5336  -11.4151  -16.5825 C   0  0  1  0  0  0  0  0  0  0  0  0
   22.2644  -11.6147  -17.8707 C   0  0  0  0  0  0  0  0  0  0  0  0
   22.8120  -13.0078  -17.9998 C   0  0  0  0  0  0  0  0  0  0  0  0
   23.6198  -13.1234  -19.2196 C   0  0  0  0  0  0  0  0  0  0  0  0
   23.1853  -13.8558  -20.1485 O   0  0  0  0  0  0  0  0  0  0  0  0
   21.1167  -10.0019  -16.3797 C   0  0  0  0  0  0  0  0  0  0  0  0
   21.0157   -9.2233  -17.3420 O   0  0  0  0  0  0  0  0  0  0  0  0
   24.8305  -12.4820  -19.4240 O   0  0  0  0  0  0  0  0  0  0  0  0
   17.2584  -10.1429  -14.4325 N   0  0  0  0  0  0  0  0  0  0  0  0
   17.9589   -9.0080  -14.8592 C   0  0  0  0  0  0  0  0  0  0  0  0
   17.6858   -8.5596  -16.0211 O   0  0  0  0  0  0  0  0  0  0  0  0
   18.9775   -8.2751  -14.1118 C   0  0  0  0  0  0  0  0  0  0  0  0
   20.3192   -8.2244  -14.7727 C   0  0  2  0  0  0  0  0  0  0  0  0
   20.8329   -9.5378  -15.0898 N   0  0  0  0  0  0  0  0  0  0  0  0
   21.2893   -7.3808  -14.0629 C   0  0  0  0  0  0  0  0  0  0  0  0
   22.0324   -7.8348  -13.1794 O   0  0  0  0  0  0  0  0  0  0  0  0
   21.3718   -6.0062  -14.4049 N   0  0  0  0  0  0  0  0  0  0  0  0
   22.3847   -5.1281  -13.8901 C   0  0  0  0  0  0  0  0  0  0  0  0
   22.1523   -3.7650  -14.4043 C   0  0  0  0  0  0  0  0  0  0  0  0
   21.9966   -3.5333  -15.7383 O   0  0  0  0  0  0  0  0  0  0  0  0
   22.0980   -2.8087  -13.5952 O   0  0  0  0  0  0  0  0  0  0  0  0
  2  1  1  6
  2  7  1  0
  2  3  1  0
  3  4  1  0
  4  5  1  0
  5  9  1  0
  6  5  2  0
  7 15  1  0
  8  7  2  0
 10 11  1  0
 11 13  1  0
 12 11  2  0
 14 13  1  1
 14 16  1  0
 15 14  1  0
 16 18  1  0
 16 17  2  0
 18 19  1  0
 19 20  1  0
 20 21  1  0
 22 20  2  0
M  END
$$$$
