ENG.pdb
     RDKit          3D

 22 21  0  0  1  0  0  0  0  0999 V2000
   17.9440  -10.7401  -17.1627 N   0  0  0  0  0  0  0  0  0  0  0  0
   17.2143  -10.3373  -15.9874 C   0  0  1  0  0  0  0  0  0  0  0  0
   17.0874  -11.4894  -15.0442 C   0  0  0  0  0  0  0  0  0  0  0  0
   16.4131  -12.6707  -15.6824 C   0  0  0  0  0  0  0  0  0  0  0  0
   16.3818  -13.8018  -14.7479 C   0  0  0  0  0  0  0  0  0  0  0  0
   16.8852  -14.8937  -15.1253 O   0  0  0  0  0  0  0  0  0  0  0  0
   17.7973   -9.1332  -15.3373 C   0  0  0  0  0  0  0  0  0  0  0  0
   17.4406   -8.7886  -14.1987 O   0  0  0  0  0  0  0  0  0  0  0  0
   15.8367  -13.7548  -13.4753 O   0  0  0  0  0  0  0  0  0  0  0  0
   20.8538   -9.0226  -13.6649 N   0  0  0  0  0  0  0  0  0  0  0  0
   21.5227   -8.2376  -14.6122 C   0  0  0  0  0  0  0  0  0  0  0  0
   22.7930   -8.3375  -14.6566 O   0  0  0  0  0  0  0  0  0  0  0  0
   20.9185   -7.3087  -15.5637 C   0  0  0  0  0  0  0  0  0  0  0  0
   19.4278   -7.2098  -15.4767 C   0  0  2  0  0  0  0  0  0  0  0  0
   18.7609   -8.3749  -16.0126 N   0  0  0  0  0  0  0  0  0  0  0  0
   18.8939   -5.9464  -16.0015 C   0  0  0  0  0  0  0  0  0  0  0  0
   18.7412   -5.7520  -17.2171 O   0  0  0  0  0  0  0  0  0  0  0  0
   18.5451   -4.9230  -15.0825 N   0  0  0  0  0  0  0  0  0  0  0  0
   18.0038   -3.6558  -15.4864 C   0  0  0  0  0  0  0  0  0  0  0  0
   19.0267   -2.9106  -16.2445 C   0  0  0  0  0  0  0  0  0  0  0  0
   20.2449   -2.6349  -15.6989 O   0  0  0  0  0  0  0  0  0  0  0  0
   18.7646   -2.5279  -17.4094 O   0  0  0  0  0  0  0  0  0  0  0  0
  2  1  1  6
  2  7  1  0
  2  3  1  0
  3  4  1  0
  4  5  1  0
  5  9  1  0
  6  5  2  0
  7 15  1  0
  8  7  2  0
 10 11  1  0
 11 13  1  0
 12 11  2  0
 14 13  1  6
 14 16  1  0
 15 14  1  0
 16 18  1  0
 16 17  2  0
 18 19  1  0
 19 20  1  0
 20 21  1  0
 22 20  2  0
M  END
$$$$
