ITI.pdb
     RDKit          3D

 24 23  0  0  1  0  0  0  0  0999 V2000
   16.5310  -15.3403  -16.6654 C   0  0  0  0  0  0  0  0  0  0  0  0
   15.9060  -14.0507  -16.2298 C   0  0  0  0  0  0  0  0  0  0  0  0
   16.8078  -12.8570  -16.4985 C   0  0  2  0  0  0  0  0  0  0  0  0
   18.1578  -13.0669  -15.8794 C   0  0  0  0  0  0  0  0  0  0  0  0
   16.1126  -11.5971  -16.0265 C   0  0  2  0  0  0  0  0  0  0  0  0
   14.8305  -11.5572  -16.7581 N   0  0  0  0  0  0  0  0  0  0  0  0
   16.8232  -10.3558  -16.3846 C   0  0  0  0  0  0  0  0  0  0  0  0
   17.2550  -10.1583  -17.5680 O   0  0  0  0  0  0  0  0  0  0  0  0
   16.0148   -7.0054  -17.0159 C   0  0  0  0  0  0  0  0  0  0  0  0
   17.0047   -6.9008  -15.8916 C   0  0  1  0  0  0  0  0  0  0  0  0
   16.2761   -6.8717  -14.6956 O   0  0  0  0  0  0  0  0  0  0  0  0
   17.8845   -8.1534  -15.8022 C   0  0  2  0  0  0  0  0  0  0  0  0
   17.0682   -9.3093  -15.4486 N   0  0  0  0  0  0  0  0  0  0  0  0
   18.8814   -7.9297  -14.7260 C   0  0  0  0  0  0  0  0  0  0  0  0
   18.8265   -8.5296  -13.6222 O   0  0  0  0  0  0  0  0  0  0  0  0
   23.7239   -9.8250  -13.4688 C   0  0  0  0  0  0  0  0  0  0  0  0
   23.0944   -8.4765  -13.2507 C   0  0  0  0  0  0  0  0  0  0  0  0
   21.9158   -8.2780  -14.1135 C   0  0  2  0  0  0  0  0  0  0  0  0
   22.3015   -8.4586  -15.5852 C   0  0  0  0  0  0  0  0  0  0  0  0
   21.1431   -7.0202  -13.9919 C   0  0  2  0  0  0  0  0  0  0  0  0
   19.9652   -7.0192  -14.8770 N   0  0  0  0  0  0  0  0  0  0  0  0
   21.8497   -5.7612  -14.1948 C   0  0  0  0  0  0  0  0  0  0  0  0
   22.6230   -5.1957  -13.1972 O   0  0  0  0  0  0  0  0  0  0  0  0
   21.7694   -5.1564  -15.2899 O   0  0  0  0  0  0  0  0  0  0  0  0
  2  3  1  0
  2  1  1  0
  3  4  1  1
  5  3  1  0
  5  6  1  6
  7  5  1  0
  7  8  2  0
 10  9  1  6
 10 12  1  0
 10 11  1  0
 12 13  1  1
 13  7  1  0
 14 12  1  0
 15 14  2  0
 17 16  1  0
 18 17  1  0
 18 20  1  0
 18 19  1  6
 20 22  1  0
 20 21  1  6
 21 14  1  0
 22 23  1  0
 24 22  2  0
M  END
$$$$
