ITI.pdb
     RDKit          3D

 24 23  0  0  1  0  0  0  0  0999 V2000
   21.2830  -14.6027  -18.1641 C   0  0  0  0  0  0  0  0  0  0  0  0
   21.1992  -16.0980  -18.1783 C   0  0  0  0  0  0  0  0  0  0  0  0
   21.3933  -16.6963  -16.7945 C   0  0  2  0  0  0  0  0  0  0  0  0
   22.6649  -16.1943  -16.1774 C   0  0  0  0  0  0  0  0  0  0  0  0
   21.3217  -18.2057  -16.8949 C   0  0  2  0  0  0  0  0  0  0  0  0
   19.9551  -18.5044  -17.3679 N   0  0  0  0  0  0  0  0  0  0  0  0
   21.4627  -18.8953  -15.5993 C   0  0  0  0  0  0  0  0  0  0  0  0
   20.5400  -18.8481  -14.7206 O   0  0  0  0  0  0  0  0  0  0  0  0
   21.2146  -22.2525  -14.7262 C   0  0  0  0  0  0  0  0  0  0  0  0
   22.5837  -21.8805  -14.2342 C   0  0  1  0  0  0  0  0  0  0  0  0
   23.4876  -22.1553  -15.2683 O   0  0  0  0  0  0  0  0  0  0  0  0
   22.6977  -20.3720  -13.9837 C   0  0  2  0  0  0  0  0  0  0  0  0
   22.6192  -19.6512  -15.2493 N   0  0  0  0  0  0  0  0  0  0  0  0
   24.0252  -20.1143  -13.3726 C   0  0  0  0  0  0  0  0  0  0  0  0
   24.8674  -19.3396  -13.8941 O   0  0  0  0  0  0  0  0  0  0  0  0
   26.3860  -19.4225   -7.8598 C   0  0  0  0  0  0  0  0  0  0  0  0
   26.7468  -19.7815   -9.2752 C   0  0  0  0  0  0  0  0  0  0  0  0
   25.5562  -20.1347  -10.0694 C   0  0  2  0  0  0  0  0  0  0  0  0
   24.8050  -21.2950   -9.4087 C   0  0  0  0  0  0  0  0  0  0  0  0
   25.7229  -20.4539  -11.5061 C   0  0  2  0  0  0  0  0  0  0  0  0
   24.4289  -20.7300  -12.1544 N   0  0  0  0  0  0  0  0  0  0  0  0
   26.6365  -21.5316  -11.8657 C   0  0  0  0  0  0  0  0  0  0  0  0
   28.0064  -21.3421  -11.8901 O   0  0  0  0  0  0  0  0  0  0  0  0
   26.1950  -22.6659  -12.1655 O   0  0  0  0  0  0  0  0  0  0  0  0
  2  3  1  0
  2  1  1  0
  3  4  1  6
  5  3  1  0
  5  6  1  1
  7  5  1  0
  7  8  2  0
 10  9  1  6
 10 12  1  0
 10 11  1  0
 12 13  1  6
 13  7  1  0
 14 12  1  0
 15 14  2  0
 17 16  1  0
 18 17  1  0
 18 20  1  0
 18 19  1  1
 20 22  1  0
 20 21  1  1
 21 14  1  0
 22 23  1  0
 24 22  2  0
M  END
$$$$
