ITI.pdb
     RDKit          3D

 24 23  0  0  1  0  0  0  0  0999 V2000
   33.5764  -26.7666  -19.2252 C   0  0  0  0  0  0  0  0  0  0  0  0
   32.8093  -25.5615  -18.7749 C   0  0  0  0  0  0  0  0  0  0  0  0
   31.5209  -25.9359  -18.0605 C   0  0  2  0  0  0  0  0  0  0  0  0
   30.6631  -26.7978  -18.9387 C   0  0  0  0  0  0  0  0  0  0  0  0
   30.8316  -24.6719  -17.5909 C   0  0  2  0  0  0  0  0  0  0  0  0
   31.7542  -24.0605  -16.6132 N   0  0  0  0  0  0  0  0  0  0  0  0
   29.5727  -24.9161  -16.8634 C   0  0  0  0  0  0  0  0  0  0  0  0
   29.4861  -24.7213  -15.6063 O   0  0  0  0  0  0  0  0  0  0  0  0
   27.7422  -23.3578  -15.5108 C   0  0  0  0  0  0  0  0  0  0  0  0
   26.7018  -23.9929  -16.3877 C   0  0  1  0  0  0  0  0  0  0  0  0
   26.6537  -23.2566  -17.5784 O   0  0  0  0  0  0  0  0  0  0  0  0
   27.1096  -25.4117  -16.8024 C   0  0  2  0  0  0  0  0  0  0  0  0
   28.3865  -25.3756  -17.5063 N   0  0  0  0  0  0  0  0  0  0  0  0
   26.0716  -25.9278  -17.7289 C   0  0  0  0  0  0  0  0  0  0  0  0
   26.1907  -25.8589  -18.9789 O   0  0  0  0  0  0  0  0  0  0  0  0
   24.4293  -30.9843  -17.8962 C   0  0  0  0  0  0  0  0  0  0  0  0
   24.7769  -29.5682  -18.2652 C   0  0  0  0  0  0  0  0  0  0  0  0
   23.7346  -28.6195  -17.8330 C   0  0  2  0  0  0  0  0  0  0  0  0
   22.3638  -29.0691  -18.3488 C   0  0  0  0  0  0  0  0  0  0  0  0
   23.8974  -27.1825  -18.1528 C   0  0  2  0  0  0  0  0  0  0  0  0
   24.8730  -26.5348  -17.2586 N   0  0  0  0  0  0  0  0  0  0  0  0
   22.7019  -26.3485  -18.1812 C   0  0  0  0  0  0  0  0  0  0  0  0
   21.9326  -26.2241  -19.3239 O   0  0  0  0  0  0  0  0  0  0  0  0
   22.3423  -25.7179  -17.1593 O   0  0  0  0  0  0  0  0  0  0  0  0
  2  3  1  0
  2  1  1  0
  3  4  1  6
  5  3  1  0
  5  6  1  1
  7  5  1  0
  7  8  2  0
 10  9  1  1
 10 12  1  0
 10 11  1  0
 12 13  1  6
 13  7  1  0
 14 12  1  0
 15 14  2  0
 17 16  1  0
 18 17  1  0
 18 20  1  0
 18 19  1  6
 20 22  1  0
 20 21  1  1
 21 14  1  0
 22 23  1  0
 24 22  2  0
M  END
$$$$
