ITI.pdb
     RDKit          3D

 24 23  0  0  1  0  0  0  0  0999 V2000
   18.6004  -16.1412  -20.1402 C   0  0  0  0  0  0  0  0  0  0  0  0
   19.9626  -15.6088  -19.8170 C   0  0  0  0  0  0  0  0  0  0  0  0
   19.9348  -14.6312  -18.6534 C   0  0  2  0  0  0  0  0  0  0  0  0
   18.9681  -13.5169  -18.9247 C   0  0  0  0  0  0  0  0  0  0  0  0
   21.3455  -14.1566  -18.3737 C   0  0  2  0  0  0  0  0  0  0  0  0
   22.1205  -15.3783  -18.0780 N   0  0  0  0  0  0  0  0  0  0  0  0
   21.4597  -13.3036  -17.1765 C   0  0  0  0  0  0  0  0  0  0  0  0
   21.0410  -13.6998  -16.0392 O   0  0  0  0  0  0  0  0  0  0  0  0
   24.1187  -12.1236  -15.0858 C   0  0  0  0  0  0  0  0  0  0  0  0
   23.4525  -10.8650  -15.5621 C   0  0  1  0  0  0  0  0  0  0  0  0
   24.1448  -10.4313  -16.6999 O   0  0  0  0  0  0  0  0  0  0  0  0
   22.0193  -11.1352  -16.0358 C   0  0  2  0  0  0  0  0  0  0  0  0
   22.0392  -12.0019  -17.2089 N   0  0  0  0  0  0  0  0  0  0  0  0
   21.4165   -9.8341  -16.4176 C   0  0  0  0  0  0  0  0  0  0  0  0
   21.3350   -9.4550  -17.6138 O   0  0  0  0  0  0  0  0  0  0  0  0
   16.5824   -6.7578  -16.2893 C   0  0  0  0  0  0  0  0  0  0  0  0
   18.0600   -6.4881  -16.2094 C   0  0  0  0  0  0  0  0  0  0  0  0
   18.8215   -7.7091  -15.8894 C   0  0  2  0  0  0  0  0  0  0  0  0
   18.3037   -8.3291  -14.5876 C   0  0  0  0  0  0  0  0  0  0  0  0
   20.2982   -7.6304  -15.8055 C   0  0  2  0  0  0  0  0  0  0  0  0
   20.8915   -8.9314  -15.4502 N   0  0  0  0  0  0  0  0  0  0  0  0
   20.8806   -6.6239  -14.9262 C   0  0  0  0  0  0  0  0  0  0  0  0
   20.8966   -5.2841  -15.2695 O   0  0  0  0  0  0  0  0  0  0  0  0
   21.3866   -6.9551  -13.8282 O   0  0  0  0  0  0  0  0  0  0  0  0
  2  3  1  0
  2  1  1  0
  3  4  1  6
  5  3  1  0
  5  6  1  1
  7  5  1  0
  7  8  2  0
 10  9  1  6
 10 12  1  0
 10 11  1  0
 12 13  1  6
 13  7  1  0
 14 12  1  0
 15 14  2  0
 17 16  1  0
 18 17  1  0
 18 20  1  0
 18 19  1  1
 20 22  1  0
 20 21  1  1
 21 14  1  0
 22 23  1  0
 24 22  2  0
M  END
$$$$
