ITI.pdb
     RDKit          3D

 24 23  0  0  1  0  0  0  0  0999 V2000
   21.3910  -19.8487  -15.2083 C   0  0  0  0  0  0  0  0  0  0  0  0
   20.3809  -18.8079  -15.5823 C   0  0  0  0  0  0  0  0  0  0  0  0
   21.0335  -17.5264  -16.0747 C   0  0  2  0  0  0  0  0  0  0  0  0
   21.9656  -16.9772  -15.0358 C   0  0  0  0  0  0  0  0  0  0  0  0
   19.9529  -16.5528  -16.4965 C   0  0  2  0  0  0  0  0  0  0  0  0
   19.1721  -17.2565  -17.5338 N   0  0  0  0  0  0  0  0  0  0  0  0
   20.4710  -15.3304  -17.1377 C   0  0  0  0  0  0  0  0  0  0  0  0
   21.3298  -15.3895  -18.0783 O   0  0  0  0  0  0  0  0  0  0  0  0
   18.9911  -12.8701  -19.3174 C   0  0  0  0  0  0  0  0  0  0  0  0
   19.4971  -12.0804  -18.1447 C   0  0  1  0  0  0  0  0  0  0  0  0
   18.4418  -11.9683  -17.2306 O   0  0  0  0  0  0  0  0  0  0  0  0
   20.6042  -12.8343  -17.3982 C   0  0  2  0  0  0  0  0  0  0  0  0
   20.0511  -14.0224  -16.7579 N   0  0  0  0  0  0  0  0  0  0  0  0
   21.1351  -11.9323  -16.3462 C   0  0  0  0  0  0  0  0  0  0  0  0
   20.7249  -11.9691  -15.1580 O   0  0  0  0  0  0  0  0  0  0  0  0
   26.4681  -10.5203  -14.3577 C   0  0  0  0  0  0  0  0  0  0  0  0
   25.0855   -9.9309  -14.4167 C   0  0  0  0  0  0  0  0  0  0  0  0
   24.2427  -10.6140  -15.4147 C   0  0  2  0  0  0  0  0  0  0  0  0
   24.9015  -10.5492  -16.7964 C   0  0  0  0  0  0  0  0  0  0  0  0
   22.8278  -10.2007  -15.5603 C   0  0  2  0  0  0  0  0  0  0  0  0
   22.1449  -10.9664  -16.6177 N   0  0  0  0  0  0  0  0  0  0  0  0
   22.5479   -8.7879  -15.7865 C   0  0  0  0  0  0  0  0  0  0  0  0
   21.9917   -8.3403  -16.9711 O   0  0  0  0  0  0  0  0  0  0  0  0
   22.8096   -7.9385  -14.9025 O   0  0  0  0  0  0  0  0  0  0  0  0
  2  3  1  0
  2  1  1  0
  3  4  1  1
  5  3  1  0
  5  6  1  6
  7  5  1  0
  7  8  2  0
 10  9  1  6
 10 12  1  0
 10 11  1  0
 12 13  1  1
 13  7  1  0
 14 12  1  0
 15 14  2  0
 17 16  1  0
 18 17  1  0
 18 20  1  0
 18 19  1  6
 20 22  1  0
 20 21  1  6
 21 14  1  0
 22 23  1  0
 24 22  2  0
M  END
$$$$
