ITI.pdb
     RDKit          3D

 24 23  0  0  1  0  0  0  0  0999 V2000
   14.6891  -16.2794  -17.4176 C   0  0  0  0  0  0  0  0  0  0  0  0
   15.8501  -15.7530  -16.6313 C   0  0  0  0  0  0  0  0  0  0  0  0
   16.2809  -14.3725  -17.0992 C   0  0  2  0  0  0  0  0  0  0  0  0
   16.6276  -14.3955  -18.5584 C   0  0  0  0  0  0  0  0  0  0  0  0
   17.4079  -13.8810  -16.2151 C   0  0  2  0  0  0  0  0  0  0  0  0
   16.8432  -13.8258  -14.8517 N   0  0  0  0  0  0  0  0  0  0  0  0
   17.8532  -12.5102  -16.5259 C   0  0  0  0  0  0  0  0  0  0  0  0
   18.4448  -12.2391  -17.6224 O   0  0  0  0  0  0  0  0  0  0  0  0
   15.7013   -9.5427  -16.9710 C   0  0  0  0  0  0  0  0  0  0  0  0
   16.7218   -9.1671  -15.9354 C   0  0  1  0  0  0  0  0  0  0  0  0
   16.1675   -9.4518  -14.6810 O   0  0  0  0  0  0  0  0  0  0  0  0
   17.9728  -10.0479  -16.0373 C   0  0  2  0  0  0  0  0  0  0  0  0
   17.6525  -11.4136  -15.6379 N   0  0  0  0  0  0  0  0  0  0  0  0
   18.9858   -9.5045  -15.0989 C   0  0  0  0  0  0  0  0  0  0  0  0
   18.9880   -9.7866  -13.8734 O   0  0  0  0  0  0  0  0  0  0  0  0
   23.7051  -11.0583  -14.7614 C   0  0  0  0  0  0  0  0  0  0  0  0
   22.4431  -10.3599  -14.3346 C   0  0  0  0  0  0  0  0  0  0  0  0
   22.3527   -9.0015  -14.9000 C   0  0  2  0  0  0  0  0  0  0  0  0
   23.5602   -8.1657  -14.4635 C   0  0  0  0  0  0  0  0  0  0  0  0
   21.1289   -8.2040  -14.6547 C   0  0  2  0  0  0  0  0  0  0  0  0
   20.0211   -8.6273  -15.5290 N   0  0  0  0  0  0  0  0  0  0  0  0
   21.2301   -6.7522  -14.7406 C   0  0  0  0  0  0  0  0  0  0  0  0
   20.6451   -6.0453  -15.7756 O   0  0  0  0  0  0  0  0  0  0  0  0
   21.8578   -6.1060  -13.8690 O   0  0  0  0  0  0  0  0  0  0  0  0
  2  3  1  0
  2  1  1  0
  3  4  1  6
  5  3  1  0
  5  6  1  1
  7  5  1  0
  7  8  2  0
 10  9  1  6
 10 12  1  0
 10 11  1  0
 12 13  1  1
 13  7  1  0
 14 12  1  0
 15 14  2  0
 17 16  1  0
 18 17  1  0
 18 20  1  0
 18 19  1  1
 20 22  1  0
 20 21  1  6
 21 14  1  0
 22 23  1  0
 24 22  2  0
M  END
$$$$
