ITI.pdb
     RDKit          3D

 24 23  0  0  1  0  0  0  0  0999 V2000
   34.1435  -23.5410  -12.2317 C   0  0  0  0  0  0  0  0  0  0  0  0
   32.9149  -23.7203  -13.0695 C   0  0  0  0  0  0  0  0  0  0  0  0
   31.9548  -22.5493  -12.9371 C   0  0  2  0  0  0  0  0  0  0  0  0
   31.5477  -22.3613  -11.5058 C   0  0  0  0  0  0  0  0  0  0  0  0
   30.7869  -22.7598  -13.8779 C   0  0  2  0  0  0  0  0  0  0  0  0
   31.3520  -22.6495  -15.2377 N   0  0  0  0  0  0  0  0  0  0  0  0
   29.7508  -21.7151  -13.7829 C   0  0  0  0  0  0  0  0  0  0  0  0
   29.7752  -20.6881  -14.5382 O   0  0  0  0  0  0  0  0  0  0  0  0
   27.9872  -20.2701  -15.2510 C   0  0  0  0  0  0  0  0  0  0  0  0
   26.9811  -20.6068  -14.1883 C   0  0  1  0  0  0  0  0  0  0  0  0
   26.4704  -21.8769  -14.4846 O   0  0  0  0  0  0  0  0  0  0  0  0
   27.6449  -20.7454  -12.8130 C   0  0  2  0  0  0  0  0  0  0  0  0
   28.6685  -21.7834  -12.8581 N   0  0  0  0  0  0  0  0  0  0  0  0
   26.5973  -21.1540  -11.8446 C   0  0  0  0  0  0  0  0  0  0  0  0
   26.3938  -22.3572  -11.5409 O   0  0  0  0  0  0  0  0  0  0  0  0
   26.7970  -19.3482   -7.0962 C   0  0  0  0  0  0  0  0  0  0  0  0
   26.5467  -20.1536   -8.3416 C   0  0  0  0  0  0  0  0  0  0  0  0
   25.1686  -19.9812   -8.8358 C   0  0  2  0  0  0  0  0  0  0  0  0
   24.1655  -20.4722   -7.7870 C   0  0  0  0  0  0  0  0  0  0  0  0
   24.7965  -20.5746  -10.1409 C   0  0  2  0  0  0  0  0  0  0  0  0
   25.7551  -20.2063  -11.1974 N   0  0  0  0  0  0  0  0  0  0  0  0
   23.4553  -20.3177  -10.6515 C   0  0  0  0  0  0  0  0  0  0  0  0
   22.3642  -21.0520  -10.2233 O   0  0  0  0  0  0  0  0  0  0  0  0
   23.2602  -19.4163  -11.5006 O   0  0  0  0  0  0  0  0  0  0  0  0
  2  3  1  0
  2  1  1  0
  3  4  1  1
  5  3  1  0
  5  6  1  6
  7  5  1  0
  7  8  2  0
 10  9  1  6
 10 12  1  0
 10 11  1  0
 12 13  1  6
 13  7  1  0
 14 12  1  0
 15 14  2  0
 17 16  1  0
 18 17  1  0
 18 20  1  0
 18 19  1  1
 20 22  1  0
 20 21  1  6
 21 14  1  0
 22 23  1  0
 24 22  2  0
M  END
$$$$
