ITI.pdb
     RDKit          3D

 24 23  0  0  1  0  0  0  0  0999 V2000
   30.2848  -22.6046  -14.9554 C   0  0  0  0  0  0  0  0  0  0  0  0
   30.2631  -21.1247  -15.1848 C   0  0  0  0  0  0  0  0  0  0  0  0
   29.5684  -20.3797  -14.0567 C   0  0  2  0  0  0  0  0  0  0  0  0
   30.2405  -20.6631  -12.7460 C   0  0  0  0  0  0  0  0  0  0  0  0
   28.0942  -20.7264  -14.0705 C   0  0  2  0  0  0  0  0  0  0  0  0
   27.5708  -20.1697  -15.3341 N   0  0  0  0  0  0  0  0  0  0  0  0
   27.3217  -20.0826  -12.9923 C   0  0  0  0  0  0  0  0  0  0  0  0
   27.1300  -18.8221  -12.9772 O   0  0  0  0  0  0  0  0  0  0  0  0
   24.0664  -19.6086  -12.2527 C   0  0  0  0  0  0  0  0  0  0  0  0
   24.5391  -20.2745  -10.9926 C   0  0  1  0  0  0  0  0  0  0  0  0
   24.3050  -21.6483  -11.1335 O   0  0  0  0  0  0  0  0  0  0  0  0
   26.0566  -20.1354  -10.8214 C   0  0  2  0  0  0  0  0  0  0  0  0
   26.7438  -20.8142  -11.9142 N   0  0  0  0  0  0  0  0  0  0  0  0
   26.4296  -20.7936   -9.5448 C   0  0  0  0  0  0  0  0  0  0  0  0
   26.8506  -21.9776   -9.4958 O   0  0  0  0  0  0  0  0  0  0  0  0
   29.2497  -19.6618   -4.3836 C   0  0  0  0  0  0  0  0  0  0  0  0
   28.2110  -20.5593   -4.9985 C   0  0  0  0  0  0  0  0  0  0  0  0
   27.7410  -20.0416   -6.2963 C   0  0  2  0  0  0  0  0  0  0  0  0
   27.3140  -18.5768   -6.1579 C   0  0  0  0  0  0  0  0  0  0  0  0
   26.6658  -20.7684   -7.0101 C   0  0  2  0  0  0  0  0  0  0  0  0
   26.3338  -20.1235   -8.2926 N   0  0  0  0  0  0  0  0  0  0  0  0
   25.4156  -21.0099   -6.3000 C   0  0  0  0  0  0  0  0  0  0  0  0
   25.3218  -21.9633   -5.3023 O   0  0  0  0  0  0  0  0  0  0  0  0
   24.3866  -20.3522   -6.5826 O   0  0  0  0  0  0  0  0  0  0  0  0
  2  3  1  0
  2  1  1  0
  3  4  1  1
  5  3  1  0
  5  6  1  6
  7  5  1  0
  7  8  2  0
 10  9  1  6
 10 12  1  0
 10 11  1  0
 12 13  1  6
 13  7  1  0
 14 12  1  0
 15 14  2  0
 17 16  1  0
 18 17  1  0
 18 20  1  0
 18 19  1  1
 20 22  1  0
 20 21  1  6
 21 14  1  0
 22 23  1  0
 24 22  2  0
M  END
$$$$
