ITI.pdb
     RDKit          3D

 24 23  0  0  1  0  0  0  0  0999 V2000
   19.8091  -16.7328  -16.6500 C   0  0  0  0  0  0  0  0  0  0  0  0
   18.5973  -15.8645  -16.7952 C   0  0  0  0  0  0  0  0  0  0  0  0
   17.9916  -15.4961  -15.4506 C   0  0  2  0  0  0  0  0  0  0  0  0
   17.5195  -16.7247  -14.7313 C   0  0  0  0  0  0  0  0  0  0  0  0
   16.9052  -14.4630  -15.6652 C   0  0  2  0  0  0  0  0  0  0  0  0
   15.9641  -15.0749  -16.6246 N   0  0  0  0  0  0  0  0  0  0  0  0
   17.3825  -13.2211  -16.3005 C   0  0  0  0  0  0  0  0  0  0  0  0
   17.1479  -12.9737  -17.5291 O   0  0  0  0  0  0  0  0  0  0  0  0
   16.4236  -10.8298  -17.5900 C   0  0  0  0  0  0  0  0  0  0  0  0
   17.2969  -10.1431  -16.5798 C   0  0  1  0  0  0  0  0  0  0  0  0
   16.5673  -10.0571  -15.3872 O   0  0  0  0  0  0  0  0  0  0  0  0
   18.5319  -10.9869  -16.2418 C   0  0  2  0  0  0  0  0  0  0  0  0
   18.1229  -12.2285  -15.5949 N   0  0  0  0  0  0  0  0  0  0  0  0
   19.3647  -10.2088  -15.2916 C   0  0  0  0  0  0  0  0  0  0  0  0
   19.2749  -10.3508  -14.0453 O   0  0  0  0  0  0  0  0  0  0  0  0
   24.5898   -8.9814  -16.7461 C   0  0  0  0  0  0  0  0  0  0  0  0
   23.1513   -8.5889  -16.5487 C   0  0  0  0  0  0  0  0  0  0  0  0
   22.6785   -8.9117  -15.1902 C   0  0  2  0  0  0  0  0  0  0  0  0
   22.9277  -10.3915  -14.8814 C   0  0  0  0  0  0  0  0  0  0  0  0
   21.2782   -8.5955  -14.8255 C   0  0  2  0  0  0  0  0  0  0  0  0
   20.3200   -9.2504  -15.7332 N   0  0  0  0  0  0  0  0  0  0  0  0
   20.8991   -7.1917  -14.7203 C   0  0  0  0  0  0  0  0  0  0  0  0
   21.3713   -6.3886  -13.6981 O   0  0  0  0  0  0  0  0  0  0  0  0
   20.1270   -6.6769  -15.5631 O   0  0  0  0  0  0  0  0  0  0  0  0
  2  3  1  0
  2  1  1  0
  3  4  1  6
  5  3  1  0
  5  6  1  6
  7  5  1  0
  7  8  2  0
 10  9  1  6
 10 12  1  0
 10 11  1  0
 12 13  1  1
 13  7  1  0
 14 12  1  0
 15 14  2  0
 17 16  1  0
 18 17  1  0
 18 20  1  0
 18 19  1  6
 20 22  1  0
 20 21  1  6
 21 14  1  0
 22 23  1  0
 24 22  2  0
M  END
$$$$
