FAA.pdb
     RDKit          3D

 22 22  0  0  1  0  0  0  0  0999 V2000
    6.0890  -16.3330   25.4064 N   0  0  0  0  0  0  0  0  0  0  0  0
    7.3116  -15.7070   24.9665 C   0  0  1  0  0  0  0  0  0  0  0  0
    7.6427  -14.5260   25.8844 C   0  0  0  0  0  0  0  0  0  0  0  0
    6.7852  -13.3677   25.6112 C   0  0  0  0  0  0  0  0  0  0  0  0
    5.8521  -12.9847   26.5799 C   0  0  0  0  0  0  0  0  0  0  0  0
    5.0510  -11.8940   26.3124 C   0  0  0  0  0  0  0  0  0  0  0  0
    5.1404  -11.1793   25.1358 C   0  0  0  0  0  0  0  0  0  0  0  0
    6.0733  -11.5791   24.1916 C   0  0  0  0  0  0  0  0  0  0  0  0
    6.8716  -12.6581   24.4466 C   0  0  0  0  0  0  0  0  0  0  0  0
    8.4794  -16.6485   25.1121 C   0  0  0  0  0  0  0  0  0  0  0  0
    8.4790  -17.5426   25.9937 O   0  0  0  0  0  0  0  0  0  0  0  0
   11.6904  -17.2470   23.2057 C   0  0  0  0  0  0  0  0  0  0  0  0
   10.8195  -17.2960   24.4153 C   0  0  2  0  0  0  0  0  0  0  0  0
    9.5898  -16.5462   24.2674 N   0  0  0  0  0  0  0  0  0  0  0  0
   11.4597  -16.9571   25.6738 C   0  0  0  0  0  0  0  0  0  0  0  0
   12.7041  -16.7681   25.6937 O   0  0  0  0  0  0  0  0  0  0  0  0
   11.1247  -15.2295   28.7259 C   0  0  0  0  0  0  0  0  0  0  0  0
   11.5251  -16.5634   28.1380 C   0  0  2  0  0  0  0  0  0  0  0  0
   10.7944  -16.8151   26.9190 N   0  0  0  0  0  0  0  0  0  0  0  0
   11.3002  -17.6138   29.1411 C   0  0  0  0  0  0  0  0  0  0  0  0
   11.9218  -17.6048   30.2427 O   0  0  0  0  0  0  0  0  0  0  0  0
   10.4122  -18.6317   28.9129 O   0  0  0  0  0  0  0  0  0  0  0  0
  2  1  1  1
  2 10  1  0
  3  2  1  0
  4  3  1  0
  5  4  2  0
  6  5  1  0
  7  8  1  0
  7  6  2  0
  8  9  2  0
  9  4  1  0
 10 14  1  0
 10 11  2  0
 13 12  1  6
 14 13  1  0
 15 13  1  0
 15 19  1  0
 16 15  2  0
 18 17  1  1
 18 19  1  0
 18 20  1  0
 20 22  1  0
 21 20  2  0
M  END
$$$$
