FAA.pdb
     RDKit          3D

 22 22  0  0  1  0  0  0  0  0999 V2000
    6.0755  -17.5929   24.0759 N   0  0  0  0  0  0  0  0  0  0  0  0
    6.8395  -16.4145   24.4037 C   0  0  1  0  0  0  0  0  0  0  0  0
    6.3978  -15.8801   25.7699 C   0  0  0  0  0  0  0  0  0  0  0  0
    6.6041  -14.4321   25.8801 C   0  0  0  0  0  0  0  0  0  0  0  0
    5.5248  -13.6317   26.2679 C   0  0  0  0  0  0  0  0  0  0  0  0
    5.7302  -12.2713   26.3684 C   0  0  0  0  0  0  0  0  0  0  0  0
    6.9498  -11.6840   26.1021 C   0  0  0  0  0  0  0  0  0  0  0  0
    8.0038  -12.4991   25.7196 C   0  0  0  0  0  0  0  0  0  0  0  0
    7.8110  -13.8478   25.6170 C   0  0  0  0  0  0  0  0  0  0  0  0
    8.2987  -16.7507   24.5740 C   0  0  0  0  0  0  0  0  0  0  0  0
    8.6579  -17.7047   25.3073 O   0  0  0  0  0  0  0  0  0  0  0  0
   11.4475  -15.7000   22.7951 C   0  0  0  0  0  0  0  0  0  0  0  0
   10.7019  -16.3043   23.9366 C   0  0  2  0  0  0  0  0  0  0  0  0
    9.2851  -16.0066   23.9182 N   0  0  0  0  0  0  0  0  0  0  0  0
   11.2462  -16.0485   25.2582 C   0  0  0  0  0  0  0  0  0  0  0  0
   12.3888  -16.4929   25.5440 O   0  0  0  0  0  0  0  0  0  0  0  0
   10.7878  -13.8044   28.1695 C   0  0  0  0  0  0  0  0  0  0  0  0
   11.2041  -15.1329   27.5803 C   0  0  2  0  0  0  0  0  0  0  0  0
   10.5915  -15.3234   26.2873 N   0  0  0  0  0  0  0  0  0  0  0  0
   10.8483  -16.2046   28.5209 C   0  0  0  0  0  0  0  0  0  0  0  0
   11.2574  -16.1820   29.7176 O   0  0  0  0  0  0  0  0  0  0  0  0
   10.0645  -17.2579   28.1298 O   0  0  0  0  0  0  0  0  0  0  0  0
  2  1  1  1
  2 10  1  0
  3  2  1  0
  4  3  1  0
  5  4  2  0
  6  5  1  0
  7  8  1  0
  7  6  2  0
  8  9  2  0
  9  4  1  0
 10 14  1  0
 10 11  2  0
 13 12  1  6
 14 13  1  0
 15 13  1  0
 15 19  1  0
 16 15  2  0
 18 17  1  1
 18 19  1  0
 18 20  1  0
 20 22  1  0
 21 20  2  0
M  END
$$$$
