FAA.pdb
     RDKit          3D

 22 22  0  0  1  0  0  0  0  0999 V2000
    6.0893  -17.6880   25.7761 N   0  0  0  0  0  0  0  0  0  0  0  0
    6.4879  -16.4105   25.2385 C   0  0  1  0  0  0  0  0  0  0  0  0
    7.6382  -15.8387   26.0734 C   0  0  0  0  0  0  0  0  0  0  0  0
    7.4028  -14.4369   26.4356 C   0  0  0  0  0  0  0  0  0  0  0  0
    6.1933  -13.8443   26.0591 C   0  0  0  0  0  0  0  0  0  0  0  0
    5.9825  -12.5257   26.4050 C   0  0  0  0  0  0  0  0  0  0  0  0
    6.9145  -11.7837   27.1008 C   0  0  0  0  0  0  0  0  0  0  0  0
    8.1054  -12.3941   27.4624 C   0  0  0  0  0  0  0  0  0  0  0  0
    8.3241  -13.6997   27.1247 C   0  0  0  0  0  0  0  0  0  0  0  0
    7.0573  -16.5657   23.8518 C   0  0  0  0  0  0  0  0  0  0  0  0
    7.5275  -17.6650   23.4685 O   0  0  0  0  0  0  0  0  0  0  0  0
    7.1780  -14.3903   20.7662 C   0  0  0  0  0  0  0  0  0  0  0  0
    7.6367  -15.5182   21.6274 C   0  0  2  0  0  0  0  0  0  0  0  0
    7.0741  -15.4871   22.9610 N   0  0  0  0  0  0  0  0  0  0  0  0
    9.0729  -15.7203   21.6986 C   0  0  0  0  0  0  0  0  0  0  0  0
    9.7228  -15.8620   20.6299 O   0  0  0  0  0  0  0  0  0  0  0  0
   11.9768  -15.1044   23.8155 C   0  0  0  0  0  0  0  0  0  0  0  0
   11.2528  -16.0385   22.8727 C   0  0  2  0  0  0  0  0  0  0  0  0
    9.8340  -15.7746   22.8949 N   0  0  0  0  0  0  0  0  0  0  0  0
   11.5603  -17.4262   23.2463 C   0  0  0  0  0  0  0  0  0  0  0  0
   12.7502  -17.8550   23.2327 O   0  0  0  0  0  0  0  0  0  0  0  0
   10.5688  -18.2947   23.6196 O   0  0  0  0  0  0  0  0  0  0  0  0
  2  1  1  1
  2 10  1  0
  3  2  1  0
  4  3  1  0
  5  4  2  0
  6  5  1  0
  7  8  1  0
  7  6  2  0
  8  9  2  0
  9  4  1  0
 10 14  1  0
 10 11  2  0
 13 12  1  1
 14 13  1  0
 15 13  1  0
 15 19  1  0
 16 15  2  0
 18 17  1  1
 18 19  1  0
 18 20  1  0
 20 22  1  0
 21 20  2  0
M  END
$$$$
