FAA.pdb
     RDKit          3D

 22 22  0  0  1  0  0  0  0  0999 V2000
   10.2679  -18.0489   26.2333 N   0  0  0  0  0  0  0  0  0  0  0  0
    9.0969  -17.2619   25.9342 C   0  0  1  0  0  0  0  0  0  0  0  0
    9.5093  -15.8120   25.6601 C   0  0  0  0  0  0  0  0  0  0  0  0
    9.4726  -14.9965   26.8787 C   0  0  0  0  0  0  0  0  0  0  0  0
   10.5497  -15.0755   27.7673 C   0  0  0  0  0  0  0  0  0  0  0  0
   10.5048  -14.3041   28.9100 C   0  0  0  0  0  0  0  0  0  0  0  0
    9.4455  -13.4689   29.1996 C   0  0  0  0  0  0  0  0  0  0  0  0
    8.3903  -13.4086   28.3028 C   0  0  0  0  0  0  0  0  0  0  0  0
    8.4248  -14.1685   27.1680 C   0  0  0  0  0  0  0  0  0  0  0  0
    8.4493  -17.7275   24.6555 C   0  0  0  0  0  0  0  0  0  0  0  0
    9.1358  -18.2318   23.7330 O   0  0  0  0  0  0  0  0  0  0  0  0
    4.9063  -18.2051   23.4683 C   0  0  0  0  0  0  0  0  0  0  0  0
    6.3599  -17.9504   23.2534 C   0  0  2  0  0  0  0  0  0  0  0  0
    7.0680  -17.6078   24.4689 N   0  0  0  0  0  0  0  0  0  0  0  0
    6.6911  -17.0049   22.2022 C   0  0  0  0  0  0  0  0  0  0  0  0
    6.3629  -17.2713   21.0165 O   0  0  0  0  0  0  0  0  0  0  0  0
    7.4989  -13.4237   21.8002 C   0  0  0  0  0  0  0  0  0  0  0  0
    7.5710  -14.8492   21.3021 C   0  0  2  0  0  0  0  0  0  0  0  0
    7.3696  -15.7733   22.3923 N   0  0  0  0  0  0  0  0  0  0  0  0
    8.8647  -15.0571   20.6363 C   0  0  0  0  0  0  0  0  0  0  0  0
    9.7292  -15.8404   21.1252 O   0  0  0  0  0  0  0  0  0  0  0  0
    9.1717  -14.4097   19.4687 O   0  0  0  0  0  0  0  0  0  0  0  0
  2  1  1  6
  2 10  1  0
  3  2  1  0
  4  3  1  0
  5  4  2  0
  6  5  1  0
  7  8  1  0
  7  6  2  0
  8  9  2  0
  9  4  1  0
 10 14  1  0
 10 11  2  0
 13 12  1  1
 14 13  1  0
 15 13  1  0
 15 19  1  0
 16 15  2  0
 18 17  1  1
 18 19  1  0
 18 20  1  0
 20 22  1  0
 21 20  2  0
M  END
$$$$
