FAA.pdb
     RDKit          3D

 22 22  0  0  1  0  0  0  0  0999 V2000
    8.1819  -16.5469   26.1044 N   0  0  0  0  0  0  0  0  0  0  0  0
    7.1608  -16.1232   25.1782 C   0  0  1  0  0  0  0  0  0  0  0  0
    7.4315  -14.6801   24.7408 C   0  0  0  0  0  0  0  0  0  0  0  0
    7.1795  -13.7264   25.8263 C   0  0  0  0  0  0  0  0  0  0  0  0
    8.2739  -13.1059   26.4370 C   0  0  0  0  0  0  0  0  0  0  0  0
    8.0253  -12.2107   27.4567 C   0  0  0  0  0  0  0  0  0  0  0  0
    6.7487  -11.9126   27.8867 C   0  0  0  0  0  0  0  0  0  0  0  0
    5.6809  -12.5410   27.2651 C   0  0  0  0  0  0  0  0  0  0  0  0
    5.9162  -13.4294   26.2541 C   0  0  0  0  0  0  0  0  0  0  0  0
    7.2211  -16.9299   23.9067 C   0  0  0  0  0  0  0  0  0  0  0  0
    8.3055  -17.4207   23.5068 O   0  0  0  0  0  0  0  0  0  0  0  0
    4.6879  -18.2733   21.4528 C   0  0  0  0  0  0  0  0  0  0  0  0
    6.0413  -17.7830   21.8423 C   0  0  2  0  0  0  0  0  0  0  0  0
    6.0691  -17.1495   23.1439 N   0  0  0  0  0  0  0  0  0  0  0  0
    6.7193  -16.9465   20.8681 C   0  0  0  0  0  0  0  0  0  0  0  0
    6.9730  -17.4194   19.7293 O   0  0  0  0  0  0  0  0  0  0  0  0
    7.4495  -13.3693   20.2025 C   0  0  0  0  0  0  0  0  0  0  0  0
    7.7713  -14.8379   20.0441 C   0  0  2  0  0  0  0  0  0  0  0  0
    7.1343  -15.6073   21.0860 N   0  0  0  0  0  0  0  0  0  0  0  0
    9.2309  -15.0097   20.0474 C   0  0  0  0  0  0  0  0  0  0  0  0
    9.8001  -15.7213   20.9246 O   0  0  0  0  0  0  0  0  0  0  0  0
   10.0166  -14.4049   19.1019 O   0  0  0  0  0  0  0  0  0  0  0  0
  2  1  1  1
  2 10  1  0
  3  2  1  0
  4  3  1  0
  5  4  2  0
  6  5  1  0
  7  8  1  0
  7  6  2  0
  8  9  2  0
  9  4  1  0
 10 14  1  0
 10 11  2  0
 13 12  1  6
 14 13  1  0
 15 13  1  0
 15 19  1  0
 16 15  2  0
 18 17  1  1
 18 19  1  0
 18 20  1  0
 20 22  1  0
 21 20  2  0
M  END
$$$$
