QLL.pdb
     RDKit          3D

 26 25  0  0  1  0  0  0  0  0999 V2000
   26.5975  -21.9487  -16.8902 N   0  0  0  0  0  0  0  0  0  0  0  0
   27.8723  -21.3123  -16.9257 C   0  0  0  0  0  0  0  0  0  0  0  0
   28.2888  -20.8780  -18.0263 O   0  0  0  0  0  0  0  0  0  0  0  0
   28.7101  -21.1481  -15.7268 C   0  0  0  0  0  0  0  0  0  0  0  0
   28.0293  -21.7319  -14.5361 C   0  0  0  0  0  0  0  0  0  0  0  0
   26.8812  -20.8957  -14.0363 C   0  0  2  0  0  0  0  0  0  0  0  0
   27.2831  -19.5236  -13.9086 N   0  0  0  0  0  0  0  0  0  0  0  0
   26.3370  -21.4635  -12.7850 C   0  0  0  0  0  0  0  0  0  0  0  0
   25.9843  -22.6700  -12.8073 O   0  0  0  0  0  0  0  0  0  0  0  0
   27.2226  -19.1607   -7.7440 C   0  0  0  0  0  0  0  0  0  0  0  0
   27.0204  -20.1539   -8.8736 C   0  0  1  0  0  0  0  0  0  0  0  0
   27.8163  -21.3939   -8.6690 C   0  0  0  0  0  0  0  0  0  0  0  0
   25.5854  -20.3320   -9.2127 C   0  0  0  0  0  0  0  0  0  0  0  0
   25.3150  -21.0340  -10.5232 C   0  0  2  0  0  0  0  0  0  0  0  0
   26.2041  -20.7012  -11.5841 N   0  0  0  0  0  0  0  0  0  0  0  0
   23.8914  -20.8912  -10.8720 C   0  0  0  0  0  0  0  0  0  0  0  0
   22.9676  -21.0658  -10.0095 O   0  0  0  0  0  0  0  0  0  0  0  0
   19.6411  -18.1851  -12.3069 C   0  0  0  0  0  0  0  0  0  0  0  0
   20.2824  -18.8937  -13.5247 C   0  0  1  0  0  0  0  0  0  0  0  0
   20.1781  -17.9084  -14.6658 C   0  0  0  0  0  0  0  0  0  0  0  0
   21.6993  -19.1106  -13.1619 C   0  0  0  0  0  0  0  0  0  0  0  0
   22.0718  -20.3711  -12.4728 C   0  0  2  0  0  0  0  0  0  0  0  0
   23.4722  -20.5519  -12.1826 N   0  0  0  0  0  0  0  0  0  0  0  0
   21.5875  -21.5136  -13.2741 C   0  0  0  0  0  0  0  0  0  0  0  0
   20.2628  -21.8969  -13.2125 O   0  0  0  0  0  0  0  0  0  0  0  0
   22.3822  -22.1311  -14.0076 O   0  0  0  0  0  0  0  0  0  0  0  0
  2  1  1  0
  3  2  2  0
  4  2  1  0
  5  4  1  0
  5  6  1  0
  6  8  1  0
  6  7  1  1
  8  9  2  0
 11 10  1  1
 12 11  1  0
 13 11  1  0
 14 13  1  1
 15  8  1  0
 15 14  1  0
 16 14  1  0
 16 17  2  0
 19 18  1  1
 19 21  1  0
 19 20  1  0
 22 21  1  6
 22 23  1  0
 23 16  1  0
 24 25  1  0
 24 22  1  0
 26 24  2  0
M  END
$$$$
