QLL.pdb
     RDKit          3D

 26 25  0  0  1  0  0  0  0  0999 V2000
   20.7812  -23.4694  -15.6277 N   0  0  0  0  0  0  0  0  0  0  0  0
   20.3234  -22.2394  -16.1835 C   0  0  0  0  0  0  0  0  0  0  0  0
   19.1035  -22.1272  -16.4530 O   0  0  0  0  0  0  0  0  0  0  0  0
   21.2238  -21.1060  -16.4500 C   0  0  0  0  0  0  0  0  0  0  0  0
   22.6124  -21.4363  -16.0201 C   0  0  0  0  0  0  0  0  0  0  0  0
   22.9796  -20.8449  -14.6850 C   0  0  2  0  0  0  0  0  0  0  0  0
   22.8278  -19.4179  -14.7137 N   0  0  0  0  0  0  0  0  0  0  0  0
   24.3340  -21.2798  -14.2840 C   0  0  0  0  0  0  0  0  0  0  0  0
   24.5070  -22.5090  -14.0839 O   0  0  0  0  0  0  0  0  0  0  0  0
   26.8088  -17.6578  -14.7776 C   0  0  0  0  0  0  0  0  0  0  0  0
   27.5179  -18.9177  -15.2391 C   0  0  1  0  0  0  0  0  0  0  0  0
   28.6235  -18.6146  -16.1871 C   0  0  0  0  0  0  0  0  0  0  0  0
   27.8403  -19.8251  -14.1083 C   0  0  0  0  0  0  0  0  0  0  0  0
   26.7223  -20.7492  -13.6845 C   0  0  2  0  0  0  0  0  0  0  0  0
   25.4221  -20.3684  -14.1220 N   0  0  0  0  0  0  0  0  0  0  0  0
   26.8141  -20.9988  -12.2360 C   0  0  0  0  0  0  0  0  0  0  0  0
   27.9159  -21.3186  -11.6780 O   0  0  0  0  0  0  0  0  0  0  0  0
   27.9791  -21.3195   -7.4961 C   0  0  0  0  0  0  0  0  0  0  0  0
   26.8639  -20.2860   -7.7871 C   0  0  1  0  0  0  0  0  0  0  0  0
   27.3661  -18.9795   -7.2172 C   0  0  0  0  0  0  0  0  0  0  0  0
   26.7705  -20.2011   -9.2603 C   0  0  0  0  0  0  0  0  0  0  0  0
   25.8247  -21.1012   -9.9656 C   0  0  2  0  0  0  0  0  0  0  0  0
   25.6849  -20.8963  -11.3857 N   0  0  0  0  0  0  0  0  0  0  0  0
   24.4983  -20.9963   -9.3240 C   0  0  0  0  0  0  0  0  0  0  0  0
   23.3767  -20.7248  -10.0816 O   0  0  0  0  0  0  0  0  0  0  0  0
   24.3963  -21.1545   -8.0930 O   0  0  0  0  0  0  0  0  0  0  0  0
  2  1  1  0
  3  2  2  0
  4  2  1  0
  5  4  1  0
  5  6  1  0
  6  8  1  0
  6  7  1  6
  8  9  2  0
 11 10  1  1
 12 11  1  0
 13 11  1  0
 14 13  1  1
 15  8  1  0
 15 14  1  0
 16 14  1  0
 16 17  2  0
 19 18  1  6
 19 21  1  0
 19 20  1  0
 22 21  1  1
 22 23  1  0
 23 16  1  0
 24 25  1  0
 24 22  1  0
 26 24  2  0
M  END
$$$$
