QLL.pdb
     RDKit          3D

 26 25  0  0  1  0  0  0  0  0999 V2000
   21.8509  -18.3486  -13.0372 N   0  0  0  0  0  0  0  0  0  0  0  0
   20.5654  -18.9627  -12.9965 C   0  0  0  0  0  0  0  0  0  0  0  0
   19.6370  -18.4415  -13.6597 O   0  0  0  0  0  0  0  0  0  0  0  0
   20.2911  -20.1764  -12.2104 C   0  0  0  0  0  0  0  0  0  0  0  0
   21.5488  -20.6909  -11.5975 C   0  0  0  0  0  0  0  0  0  0  0  0
   22.5863  -21.0913  -12.6126 C   0  0  2  0  0  0  0  0  0  0  0  0
   22.1403  -22.2353  -13.3559 N   0  0  0  0  0  0  0  0  0  0  0  0
   23.8956  -21.2947  -11.9581 C   0  0  0  0  0  0  0  0  0  0  0  0
   24.0797  -22.3903  -11.3695 O   0  0  0  0  0  0  0  0  0  0  0  0
   28.8170  -19.3563  -13.8857 C   0  0  0  0  0  0  0  0  0  0  0  0
   27.7283  -20.2098  -13.2615 C   0  0  1  0  0  0  0  0  0  0  0  0
   28.0259  -21.6622  -13.3835 C   0  0  0  0  0  0  0  0  0  0  0  0
   27.3365  -19.7211  -11.9148 C   0  0  0  0  0  0  0  0  0  0  0  0
   26.1670  -20.4400  -11.2833 C   0  0  2  0  0  0  0  0  0  0  0  0
   24.9295  -20.3089  -11.9747 N   0  0  0  0  0  0  0  0  0  0  0  0
   26.0908  -20.0925   -9.8542 C   0  0  0  0  0  0  0  0  0  0  0  0
   25.3217  -19.1684   -9.4277 O   0  0  0  0  0  0  0  0  0  0  0  0
   28.7543  -21.5880   -4.4449 C   0  0  0  0  0  0  0  0  0  0  0  0
   28.0017  -20.4830   -5.2255 C   0  0  1  0  0  0  0  0  0  0  0  0
   28.9606  -19.3174   -5.2999 C   0  0  0  0  0  0  0  0  0  0  0  0
   27.7625  -21.0377   -6.5750 C   0  0  0  0  0  0  0  0  0  0  0  0
   26.9544  -20.2465   -7.5359 C   0  0  2  0  0  0  0  0  0  0  0  0
   26.8665  -20.7660   -8.8778 N   0  0  0  0  0  0  0  0  0  0  0  0
   27.4813  -18.8672   -7.5795 C   0  0  0  0  0  0  0  0  0  0  0  0
   28.4965  -18.5358   -8.4543 O   0  0  0  0  0  0  0  0  0  0  0  0
   27.0040  -18.0023   -6.8214 O   0  0  0  0  0  0  0  0  0  0  0  0
  2  1  1  0
  3  2  2  0
  4  2  1  0
  5  4  1  0
  5  6  1  0
  6  8  1  0
  6  7  1  1
  8  9  2  0
 11 10  1  1
 12 11  1  0
 13 11  1  0
 14 13  1  6
 15  8  1  0
 15 14  1  0
 16 14  1  0
 16 17  2  0
 19 18  1  1
 19 21  1  0
 19 20  1  0
 22 21  1  1
 22 23  1  0
 23 16  1  0
 24 25  1  0
 24 22  1  0
 26 24  2  0
M  END
$$$$
