QLL.pdb
     RDKit          3D

 26 25  0  0  1  0  0  0  0  0999 V2000
   25.7346  -18.7904  -18.2922 N   0  0  0  0  0  0  0  0  0  0  0  0
   26.9087  -18.0104  -18.5028 C   0  0  0  0  0  0  0  0  0  0  0  0
   27.0009  -17.3510  -19.5658 O   0  0  0  0  0  0  0  0  0  0  0  0
   28.0076  -17.9520  -17.5253 C   0  0  0  0  0  0  0  0  0  0  0  0
   27.6315  -18.6802  -16.2801 C   0  0  0  0  0  0  0  0  0  0  0  0
   28.6408  -19.7193  -15.8694 C   0  0  2  0  0  0  0  0  0  0  0  0
   28.8648  -20.6471  -16.9415 N   0  0  0  0  0  0  0  0  0  0  0  0
   28.2249  -20.3717  -14.6102 C   0  0  0  0  0  0  0  0  0  0  0  0
   27.2855  -21.2046  -14.6776 O   0  0  0  0  0  0  0  0  0  0  0  0
   31.8076  -20.9984  -10.2950 C   0  0  0  0  0  0  0  0  0  0  0  0
   30.7503  -21.2593  -11.3521 C   0  0  1  0  0  0  0  0  0  0  0  0
   30.7119  -22.6908  -11.7547 C   0  0  0  0  0  0  0  0  0  0  0  0
   29.4497  -20.6282  -11.0111 C   0  0  0  0  0  0  0  0  0  0  0  0
   28.4164  -20.6452  -12.1135 C   0  0  2  0  0  0  0  0  0  0  0  0
   28.8430  -20.0905  -13.3533 N   0  0  0  0  0  0  0  0  0  0  0  0
   27.1531  -20.0792  -11.6109 C   0  0  0  0  0  0  0  0  0  0  0  0
   26.7743  -18.9011  -11.9210 O   0  0  0  0  0  0  0  0  0  0  0  0
   22.1552  -20.3324  -13.3074 C   0  0  0  0  0  0  0  0  0  0  0  0
   22.6598  -20.2226  -11.8480 C   0  0  1  0  0  0  0  0  0  0  0  0
   21.8614  -21.2409  -11.0674 C   0  0  0  0  0  0  0  0  0  0  0  0
   24.0864  -20.6094  -11.8870 C   0  0  0  0  0  0  0  0  0  0  0  0
   24.8980  -20.4578  -10.6539 C   0  0  2  0  0  0  0  0  0  0  0  0
   26.2914  -20.8127  -10.7575 N   0  0  0  0  0  0  0  0  0  0  0  0
   24.2726  -21.2448   -9.5716 C   0  0  0  0  0  0  0  0  0  0  0  0
   23.0578  -20.8592   -9.0413 O   0  0  0  0  0  0  0  0  0  0  0  0
   24.8480  -22.2608   -9.1386 O   0  0  0  0  0  0  0  0  0  0  0  0
  2  1  1  0
  3  2  2  0
  4  2  1  0
  5  4  1  0
  5  6  1  0
  6  8  1  0
  6  7  1  6
  8  9  2  0
 11 10  1  1
 12 11  1  0
 13 11  1  0
 14 13  1  1
 15  8  1  0
 15 14  1  0
 16 14  1  0
 16 17  2  0
 19 18  1  6
 19 21  1  0
 19 20  1  0
 22 21  1  6
 22 23  1  0
 23 16  1  0
 24 25  1  0
 24 22  1  0
 26 24  2  0
M  END
$$$$
