QLL.pdb
     RDKit          3D

 26 25  0  0  1  0  0  0  0  0999 V2000
   30.3933  -25.9155  -15.5799 N   0  0  0  0  0  0  0  0  0  0  0  0
   29.9834  -26.2407  -16.9057 C   0  0  0  0  0  0  0  0  0  0  0  0
   30.7190  -26.9950  -17.5865 O   0  0  0  0  0  0  0  0  0  0  0  0
   28.7382  -25.7272  -17.4991 C   0  0  0  0  0  0  0  0  0  0  0  0
   27.9691  -24.9442  -16.4904 C   0  0  0  0  0  0  0  0  0  0  0  0
   26.7213  -24.3140  -17.0501 C   0  0  2  0  0  0  0  0  0  0  0  0
   26.9708  -23.7995  -18.3666 N   0  0  0  0  0  0  0  0  0  0  0  0
   26.1946  -23.2970  -16.1160 C   0  0  0  0  0  0  0  0  0  0  0  0
   25.9328  -23.6730  -14.9452 O   0  0  0  0  0  0  0  0  0  0  0  0
   27.8680  -18.0190  -16.3830 C   0  0  0  0  0  0  0  0  0  0  0  0
   27.4353  -19.3844  -15.8813 C   0  0  1  0  0  0  0  0  0  0  0  0
   28.1500  -19.7676  -14.6343 C   0  0  0  0  0  0  0  0  0  0  0  0
   25.9579  -19.5367  -15.8758 C   0  0  0  0  0  0  0  0  0  0  0  0
   25.4554  -20.9396  -15.6250 C   0  0  2  0  0  0  0  0  0  0  0  0
   25.9803  -21.9365  -16.4953 N   0  0  0  0  0  0  0  0  0  0  0  0
   23.9847  -20.9282  -15.5505 C   0  0  0  0  0  0  0  0  0  0  0  0
   23.2616  -20.7103  -16.5787 O   0  0  0  0  0  0  0  0  0  0  0  0
   20.7191  -24.7788  -14.4821 C   0  0  0  0  0  0  0  0  0  0  0  0
   21.2871  -23.4872  -15.1192 C   0  0  1  0  0  0  0  0  0  0  0  0
   20.3642  -23.1665  -16.2720 C   0  0  0  0  0  0  0  0  0  0  0  0
   21.1841  -22.4462  -14.0743 C   0  0  0  0  0  0  0  0  0  0  0  0
   21.8538  -21.1416  -14.3021 C   0  0  2  0  0  0  0  0  0  0  0  0
   23.2950  -21.1594  -14.3341 N   0  0  0  0  0  0  0  0  0  0  0  0
   21.3999  -20.1861  -13.2712 C   0  0  0  0  0  0  0  0  0  0  0  0
   22.3082  -19.6098  -12.4060 O   0  0  0  0  0  0  0  0  0  0  0  0
   20.1904  -19.9020  -13.1860 O   0  0  0  0  0  0  0  0  0  0  0  0
  2  1  1  0
  3  2  2  0
  4  2  1  0
  5  4  1  0
  5  6  1  0
  6  8  1  0
  6  7  1  6
  8  9  2  0
 11 10  1  1
 12 11  1  0
 13 11  1  0
 14 13  1  6
 15  8  1  0
 15 14  1  0
 16 14  1  0
 16 17  2  0
 19 18  1  1
 19 21  1  0
 19 20  1  0
 22 21  1  1
 22 23  1  0
 23 16  1  0
 24 25  1  0
 24 22  1  0
 26 24  2  0
M  END
$$$$
