QLL.pdb
     RDKit          3D

 26 25  0  0  1  0  0  0  0  0999 V2000
   25.7580  -17.8708  -15.9891 N   0  0  0  0  0  0  0  0  0  0  0  0
   25.3894  -18.5886  -17.1639 C   0  0  0  0  0  0  0  0  0  0  0  0
   25.6533  -18.0784  -18.2789 O   0  0  0  0  0  0  0  0  0  0  0  0
   24.7158  -19.8964  -17.1153 C   0  0  0  0  0  0  0  0  0  0  0  0
   24.3922  -20.2595  -15.7061 C   0  0  0  0  0  0  0  0  0  0  0  0
   25.5835  -20.7541  -14.9295 C   0  0  2  0  0  0  0  0  0  0  0  0
   26.2786  -21.7653  -15.6742 N   0  0  0  0  0  0  0  0  0  0  0  0
   25.1706  -21.2012  -13.5827 C   0  0  0  0  0  0  0  0  0  0  0  0
   24.2574  -22.0631  -13.5182 O   0  0  0  0  0  0  0  0  0  0  0  0
   25.0810  -21.7547   -8.2362 C   0  0  0  0  0  0  0  0  0  0  0  0
   25.3526  -20.3117   -8.6201 C   0  0  1  0  0  0  0  0  0  0  0  0
   26.0114  -19.5606   -7.5179 C   0  0  0  0  0  0  0  0  0  0  0  0
   25.9698  -20.1968   -9.9662 C   0  0  0  0  0  0  0  0  0  0  0  0
   25.1565  -20.7771  -11.0998 C   0  0  2  0  0  0  0  0  0  0  0  0
   25.7633  -20.6959  -12.3851 N   0  0  0  0  0  0  0  0  0  0  0  0
   23.7887  -20.2333  -11.0512 C   0  0  0  0  0  0  0  0  0  0  0  0
   23.5414  -19.0119  -11.3243 O   0  0  0  0  0  0  0  0  0  0  0  0
   20.2253  -20.7524  -14.4653 C   0  0  0  0  0  0  0  0  0  0  0  0
   20.3158  -21.3093  -13.0237 C   0  0  1  0  0  0  0  0  0  0  0  0
   21.2907  -22.4616  -13.0969 C   0  0  0  0  0  0  0  0  0  0  0  0
   20.8772  -20.2133  -12.2052 C   0  0  0  0  0  0  0  0  0  0  0  0
   21.3366  -20.5185  -10.8275 C   0  0  2  0  0  0  0  0  0  0  0  0
   22.6756  -21.0371  -10.6998 N   0  0  0  0  0  0  0  0  0  0  0  0
   20.3857  -21.4627  -10.2060 C   0  0  0  0  0  0  0  0  0  0  0  0
   19.0293  -21.2082  -10.2371 O   0  0  0  0  0  0  0  0  0  0  0  0
   20.8147  -22.4923   -9.6522 O   0  0  0  0  0  0  0  0  0  0  0  0
  2  1  1  0
  3  2  2  0
  4  2  1  0
  5  4  1  0
  5  6  1  0
  6  8  1  0
  6  7  1  6
  8  9  2  0
 11 10  1  1
 12 11  1  0
 13 11  1  0
 14 13  1  1
 15  8  1  0
 15 14  1  0
 16 14  1  0
 16 17  2  0
 19 18  1  6
 19 21  1  0
 19 20  1  0
 22 21  1  6
 22 23  1  0
 23 16  1  0
 24 25  1  0
 24 22  1  0
 26 24  2  0
M  END
$$$$
