QLL.pdb
     RDKit          3D

 26 25  0  0  1  0  0  0  0  0999 V2000
   21.9633  -20.9226  -13.1595 N   0  0  0  0  0  0  0  0  0  0  0  0
   22.0299  -19.7311  -13.9387 C   0  0  0  0  0  0  0  0  0  0  0  0
   20.9911  -19.0374  -14.0530 O   0  0  0  0  0  0  0  0  0  0  0  0
   23.2641  -19.2897  -14.6084 C   0  0  0  0  0  0  0  0  0  0  0  0
   24.3766  -20.2393  -14.3208 C   0  0  0  0  0  0  0  0  0  0  0  0
   25.0022  -20.0320  -12.9670 C   0  0  2  0  0  0  0  0  0  0  0  0
   25.3601  -18.6533  -12.7896 N   0  0  0  0  0  0  0  0  0  0  0  0
   26.1376  -20.9588  -12.7771 C   0  0  0  0  0  0  0  0  0  0  0  0
   25.9626  -22.1580  -13.1120 O   0  0  0  0  0  0  0  0  0  0  0  0
   30.5588  -23.0422  -10.9610 C   0  0  0  0  0  0  0  0  0  0  0  0
   30.4179  -21.7027  -10.2615 C   0  0  1  0  0  0  0  0  0  0  0  0
   31.7347  -21.1648   -9.8260 C   0  0  0  0  0  0  0  0  0  0  0  0
   29.5317  -20.7723  -11.0064 C   0  0  0  0  0  0  0  0  0  0  0  0
   28.1413  -21.2929  -11.2876 C   0  0  2  0  0  0  0  0  0  0  0  0
   27.3936  -20.5423  -12.2386 N   0  0  0  0  0  0  0  0  0  0  0  0
   27.4339  -21.5157  -10.0153 C   0  0  0  0  0  0  0  0  0  0  0  0
   27.1899  -22.6894   -9.5789 O   0  0  0  0  0  0  0  0  0  0  0  0
   27.9915  -18.1065   -5.5527 C   0  0  0  0  0  0  0  0  0  0  0  0
   28.0502  -19.4136   -6.3802 C   0  0  1  0  0  0  0  0  0  0  0  0
   28.4341  -20.4960   -5.3981 C   0  0  0  0  0  0  0  0  0  0  0  0
   26.6754  -19.6355   -6.8771 C   0  0  0  0  0  0  0  0  0  0  0  0
   26.4492  -20.6912   -7.8952 C   0  0  2  0  0  0  0  0  0  0  0  0
   26.9877  -20.4393   -9.2085 N   0  0  0  0  0  0  0  0  0  0  0  0
   24.9984  -20.9468   -8.0029 C   0  0  0  0  0  0  0  0  0  0  0  0
   24.2838  -21.3835   -6.9055 O   0  0  0  0  0  0  0  0  0  0  0  0
   24.4212  -20.7659   -9.0915 O   0  0  0  0  0  0  0  0  0  0  0  0
  2  1  1  0
  3  2  2  0
  4  2  1  0
  5  4  1  0
  5  6  1  0
  6  8  1  0
  6  7  1  6
  8  9  2  0
 11 10  1  6
 12 11  1  0
 13 11  1  0
 14 13  1  1
 15  8  1  0
 15 14  1  0
 16 14  1  0
 16 17  2  0
 19 18  1  1
 19 21  1  0
 19 20  1  0
 22 21  1  1
 22 23  1  0
 23 16  1  0
 24 25  1  0
 24 22  1  0
 26 24  2  0
M  END
$$$$
