QLL.pdb
     RDKit          3D

 26 25  0  0  1  0  0  0  0  0999 V2000
   27.7165  -17.4811  -18.4167 N   0  0  0  0  0  0  0  0  0  0  0  0
   28.3525  -17.7940  -17.1802 C   0  0  0  0  0  0  0  0  0  0  0  0
   29.4422  -18.4142  -17.2131 O   0  0  0  0  0  0  0  0  0  0  0  0
   27.7805  -17.4181  -15.8771 C   0  0  0  0  0  0  0  0  0  0  0  0
   26.7286  -18.3940  -15.4731 C   0  0  0  0  0  0  0  0  0  0  0  0
   27.2750  -19.5894  -14.7385 C   0  0  2  0  0  0  0  0  0  0  0  0
   28.0599  -20.4020  -15.6238 N   0  0  0  0  0  0  0  0  0  0  0  0
   26.1810  -20.3331  -14.0795 C   0  0  0  0  0  0  0  0  0  0  0  0
   25.6543  -21.2736  -14.7266 O   0  0  0  0  0  0  0  0  0  0  0  0
   25.9545  -20.5282   -8.4435 C   0  0  0  0  0  0  0  0  0  0  0  0
   25.9875  -20.8646   -9.9231 C   0  0  1  0  0  0  0  0  0  0  0  0
   26.6073  -22.1933  -10.1745 C   0  0  0  0  0  0  0  0  0  0  0  0
   24.6852  -20.6008  -10.5867 C   0  0  0  0  0  0  0  0  0  0  0  0
   24.6887  -20.7398  -12.0914 C   0  0  2  0  0  0  0  0  0  0  0  0
   25.7178  -20.0223  -12.7643 N   0  0  0  0  0  0  0  0  0  0  0  0
   23.3374  -20.4722  -12.6122 C   0  0  0  0  0  0  0  0  0  0  0  0
   22.8874  -19.2847  -12.7341 O   0  0  0  0  0  0  0  0  0  0  0  0
   19.8185  -20.3705  -16.4183 C   0  0  0  0  0  0  0  0  0  0  0  0
   19.6232  -21.6570  -15.5797 C   0  0  1  0  0  0  0  0  0  0  0  0
   19.3315  -22.7507  -16.5808 C   0  0  0  0  0  0  0  0  0  0  0  0
   20.9208  -21.9028  -14.9146 C   0  0  0  0  0  0  0  0  0  0  0  0
   21.2029  -21.2148  -13.6303 C   0  0  2  0  0  0  0  0  0  0  0  0
   22.4663  -21.5185  -13.0059 N   0  0  0  0  0  0  0  0  0  0  0  0
   20.1074  -21.5054  -12.6831 C   0  0  0  0  0  0  0  0  0  0  0  0
   18.8853  -20.8775  -12.8162 O   0  0  0  0  0  0  0  0  0  0  0  0
   20.2921  -22.3219  -11.7611 O   0  0  0  0  0  0  0  0  0  0  0  0
  2  1  1  0
  3  2  2  0
  4  2  1  0
  5  4  1  0
  5  6  1  0
  6  8  1  0
  6  7  1  6
  8  9  2  0
 11 10  1  1
 12 11  1  0
 13 11  1  0
 14 13  1  1
 15  8  1  0
 15 14  1  0
 16 14  1  0
 16 17  2  0
 19 18  1  6
 19 21  1  0
 19 20  1  0
 22 21  1  6
 22 23  1  0
 23 16  1  0
 24 25  1  0
 24 22  1  0
 26 24  2  0
M  END
$$$$
