QLL.pdb
     RDKit          3D

 26 25  0  0  1  0  0  0  0  0999 V2000
   14.1280  -20.2713    7.7232 N   0  0  0  0  0  0  0  0  0  0  0  0
   13.3735  -20.2086    6.5157 C   0  0  0  0  0  0  0  0  0  0  0  0
   12.1952  -20.6386    6.5287 O   0  0  0  0  0  0  0  0  0  0  0  0
   13.9233  -19.6617    5.2647 C   0  0  0  0  0  0  0  0  0  0  0  0
   15.3123  -19.1665    5.4831 C   0  0  0  0  0  0  0  0  0  0  0  0
   15.8896  -18.4624    4.2839 C   0  0  2  0  0  0  0  0  0  0  0  0
   16.2088  -19.4112    3.2552 N   0  0  0  0  0  0  0  0  0  0  0  0
   17.0401  -17.6249    4.6829 C   0  0  0  0  0  0  0  0  0  0  0  0
   18.1843  -18.1371    4.5869 O   0  0  0  0  0  0  0  0  0  0  0  0
   19.8778  -12.9459    4.6679 C   0  0  0  0  0  0  0  0  0  0  0  0
   18.8812  -13.1044    5.8016 C   0  0  1  0  0  0  0  0  0  0  0  0
   18.5501  -11.7991    6.4335 C   0  0  0  0  0  0  0  0  0  0  0  0
   17.7358  -13.9709    5.4234 C   0  0  0  0  0  0  0  0  0  0  0  0
   17.9810  -15.4563    5.5526 C   0  0  2  0  0  0  0  0  0  0  0  0
   16.8930  -16.2869    5.1612 N   0  0  0  0  0  0  0  0  0  0  0  0
   18.5028  -15.7525    6.8976 C   0  0  0  0  0  0  0  0  0  0  0  0
   17.7274  -16.0104    7.8773 O   0  0  0  0  0  0  0  0  0  0  0  0
   21.4292  -18.8433   10.1214 C   0  0  0  0  0  0  0  0  0  0  0  0
   22.0391  -17.4412    9.8795 C   0  0  1  0  0  0  0  0  0  0  0  0
   23.5347  -17.6536    9.8376 C   0  0  0  0  0  0  0  0  0  0  0  0
   21.5443  -17.0122    8.5538 C   0  0  0  0  0  0  0  0  0  0  0  0
   20.3665  -16.1115    8.4920 C   0  0  2  0  0  0  0  0  0  0  0  0
   19.8927  -15.7674    7.1747 N   0  0  0  0  0  0  0  0  0  0  0  0
   20.6722  -14.8748    9.2396 C   0  0  0  0  0  0  0  0  0  0  0  0
   20.6605  -14.8734   10.6200 O   0  0  0  0  0  0  0  0  0  0  0  0
   20.9414  -13.8304    8.6170 O   0  0  0  0  0  0  0  0  0  0  0  0
  2  1  1  0
  3  2  2  0
  4  2  1  0
  5  4  1  0
  5  6  1  0
  6  8  1  0
  6  7  1  6
  8  9  2  0
 11 10  1  6
 12 11  1  0
 13 11  1  0
 14 13  1  1
 15  8  1  0
 15 14  1  0
 16 14  1  0
 16 17  2  0
 19 18  1  6
 19 21  1  0
 19 20  1  0
 22 21  1  6
 22 23  1  0
 23 16  1  0
 24 25  1  0
 24 22  1  0
 26 24  2  0
M  END
$$$$
