QLL.pdb
     RDKit          3D

 26 25  0  0  1  0  0  0  0  0999 V2000
   21.4983  -19.0041  -17.3784 N   0  0  0  0  0  0  0  0  0  0  0  0
   22.2703  -18.2275  -18.2907 C   0  0  0  0  0  0  0  0  0  0  0  0
   21.6896  -17.3280  -18.9442 O   0  0  0  0  0  0  0  0  0  0  0  0
   23.7126  -18.4421  -18.4915 C   0  0  0  0  0  0  0  0  0  0  0  0
   24.1749  -19.6201  -17.7037 C   0  0  0  0  0  0  0  0  0  0  0  0
   24.4740  -19.2945  -16.2644 C   0  0  2  0  0  0  0  0  0  0  0  0
   25.3923  -18.1943  -16.1832 N   0  0  0  0  0  0  0  0  0  0  0  0
   24.9434  -20.5004  -15.5505 C   0  0  0  0  0  0  0  0  0  0  0  0
   24.2772  -21.5554  -15.7051 O   0  0  0  0  0  0  0  0  0  0  0  0
   30.0749  -20.5375  -12.8591 C   0  0  0  0  0  0  0  0  0  0  0  0
   28.6336  -20.3752  -13.3060 C   0  0  1  0  0  0  0  0  0  0  0  0
   28.4841  -19.2845  -14.3064 C   0  0  0  0  0  0  0  0  0  0  0  0
   28.0007  -21.6766  -13.6400 C   0  0  0  0  0  0  0  0  0  0  0  0
   26.5197  -21.6166  -13.9336 C   0  0  2  0  0  0  0  0  0  0  0  0
   26.1006  -20.5012  -14.7127 N   0  0  0  0  0  0  0  0  0  0  0  0
   25.7637  -21.7863  -12.6812 C   0  0  0  0  0  0  0  0  0  0  0  0
   25.8461  -22.8528  -11.9859 O   0  0  0  0  0  0  0  0  0  0  0  0
   26.0738  -19.4818   -8.0316 C   0  0  0  0  0  0  0  0  0  0  0  0
   25.7979  -20.6097   -9.0556 C   0  0  1  0  0  0  0  0  0  0  0  0
   25.5236  -21.8455   -8.2303 C   0  0  0  0  0  0  0  0  0  0  0  0
   24.5794  -20.1990   -9.7856 C   0  0  0  0  0  0  0  0  0  0  0  0
   24.1585  -20.9906  -10.9681 C   0  0  2  0  0  0  0  0  0  0  0  0
   24.9060  -20.7746  -12.1817 N   0  0  0  0  0  0  0  0  0  0  0  0
   22.7260  -20.7385  -11.2254 C   0  0  0  0  0  0  0  0  0  0  0  0
   21.7837  -21.0175  -10.2559 O   0  0  0  0  0  0  0  0  0  0  0  0
   22.3713  -20.2717  -12.3241 O   0  0  0  0  0  0  0  0  0  0  0  0
  2  1  1  0
  3  2  2  0
  4  2  1  0
  5  4  1  0
  5  6  1  0
  6  8  1  0
  6  7  1  6
  8  9  2  0
 11 10  1  6
 12 11  1  0
 13 11  1  0
 14 13  1  1
 15  8  1  0
 15 14  1  0
 16 14  1  0
 16 17  2  0
 19 18  1  1
 19 21  1  0
 19 20  1  0
 22 21  1  1
 22 23  1  0
 23 16  1  0
 24 25  1  0
 24 22  1  0
 26 24  2  0
M  END
$$$$
