KWF.pdb
     RDKit          3D

 35 37  0  0  1  0  0  0  0  0999 V2000
   28.2879  -20.2940  -16.4207 N   0  0  0  0  0  0  0  0  0  0  0  0
   28.3626  -19.1270  -15.6147 C   0  0  1  0  0  0  0  0  0  0  0  0
   28.2653  -17.8508  -16.3047 C   0  0  0  0  0  0  0  0  0  0  0  0
   29.1671  -17.3949  -17.3582 C   0  0  0  0  0  0  0  0  0  0  0  0
   30.2869  -18.1518  -17.8962 C   0  0  0  0  0  0  0  0  0  0  0  0
   31.2501  -17.6072  -18.8614 C   0  0  0  0  0  0  0  0  0  0  0  0
   32.4237  -18.4305  -19.1066 N   0  0  0  0  0  0  0  0  0  0  0  0
   27.4116  -19.2889  -14.4726 C   0  0  0  0  0  0  0  0  0  0  0  0
   27.1723  -18.3409  -13.6795 O   0  0  0  0  0  0  0  0  0  0  0  0
   26.7253  -20.5022  -14.2096 N   0  0  0  0  0  0  0  0  0  0  0  0
   25.8244  -20.6306  -13.0838 C   0  0  1  0  0  0  0  0  0  0  0  0
   24.6323  -21.3972  -13.6327 C   0  0  0  0  0  0  0  0  0  0  0  0
   23.8418  -20.6683  -14.6260 C   0  0  0  0  0  0  0  0  0  0  0  0
   24.0186  -20.7912  -16.0130 C   0  0  0  0  0  0  0  0  0  0  0  0
   23.1079  -20.0022  -16.5743 N   0  0  0  0  0  0  0  0  0  0  0  0
   22.3456  -19.3690  -15.6651 C   0  0  0  0  0  0  0  0  0  0  0  0
   21.2954  -18.4624  -15.7792 C   0  0  0  0  0  0  0  0  0  0  0  0
   20.7139  -17.9795  -14.6333 C   0  0  0  0  0  0  0  0  0  0  0  0
   21.1320  -18.3593  -13.3834 C   0  0  0  0  0  0  0  0  0  0  0  0
   22.1752  -19.2597  -13.3155 C   0  0  0  0  0  0  0  0  0  0  0  0
   22.8147  -19.7941  -14.4254 C   0  0  0  0  0  0  0  0  0  0  0  0
   26.3845  -21.1256  -11.8511 C   0  0  0  0  0  0  0  0  0  0  0  0
   27.0117  -22.2156  -11.7468 O   0  0  0  0  0  0  0  0  0  0  0  0
   26.2095  -20.3024  -10.6784 N   0  0  0  0  0  0  0  0  0  0  0  0
   26.7104  -20.7148   -9.3839 C   0  0  1  0  0  0  0  0  0  0  0  0
   27.4518  -19.4796   -8.8458 C   0  0  0  0  0  0  0  0  0  0  0  0
   27.8257  -19.6683   -7.4362 C   0  0  0  0  0  0  0  0  0  0  0  0
   27.0278  -19.0593   -6.4688 C   0  0  0  0  0  0  0  0  0  0  0  0
   27.3622  -19.2324   -5.1585 C   0  0  0  0  0  0  0  0  0  0  0  0
   28.4651  -19.9926   -4.7891 C   0  0  0  0  0  0  0  0  0  0  0  0
   29.2488  -20.5919   -5.7589 C   0  0  0  0  0  0  0  0  0  0  0  0
   28.9248  -20.4270   -7.0828 C   0  0  0  0  0  0  0  0  0  0  0  0
   25.6091  -21.0935   -8.4833 C   0  0  0  0  0  0  0  0  0  0  0  0
   25.8621  -21.8235   -7.4944 O   0  0  0  0  0  0  0  0  0  0  0  0
   24.2939  -20.6927   -8.6544 O   0  0  0  0  0  0  0  0  0  0  0  0
  2  1  1  6
  2  3  1  0
  3  4  1  0
  4  5  1  0
  5  6  1  0
  7  6  1  0
  8  2  1  0
  8  9  2  0
 10  8  1  0
 11 10  1  0
 11 12  1  6
 12 13  1  0
 13 21  1  0
 14 13  2  0
 14 15  1  0
 15 16  1  0
 16 17  1  0
 17 18  2  0
 19 18  1  0
 20 19  2  0
 21 16  2  0
 21 20  1  0
 22 11  1  0
 23 22  2  0
 24 22  1  0
 25 24  1  0
 25 26  1  1
 26 27  1  0
 27 28  2  0
 28 29  1  0
 30 29  2  0
 31 30  1  0
 32 27  1  0
 32 31  2  0
 33 25  1  0
 34 33  2  0
 35 33  1  0
M  END
$$$$
