KWF.pdb
     RDKit          3D

 35 37  0  0  1  0  0  0  0  0999 V2000
   26.7561  -20.2545  -16.2708 N   0  0  0  0  0  0  0  0  0  0  0  0
   27.1093  -21.2265  -15.2972 C   0  0  1  0  0  0  0  0  0  0  0  0
   28.4942  -21.6691  -15.2904 C   0  0  0  0  0  0  0  0  0  0  0  0
   29.1585  -22.3658  -16.3877 C   0  0  0  0  0  0  0  0  0  0  0  0
   29.8205  -23.6575  -16.2891 C   0  0  0  0  0  0  0  0  0  0  0  0
   29.1757  -24.8655  -15.7590 C   0  0  0  0  0  0  0  0  0  0  0  0
   28.4408  -25.6600  -16.7307 N   0  0  0  0  0  0  0  0  0  0  0  0
   26.5997  -20.7623  -13.9705 C   0  0  0  0  0  0  0  0  0  0  0  0
   26.8213  -19.5947  -13.5553 O   0  0  0  0  0  0  0  0  0  0  0  0
   25.8439  -21.5929  -13.1038 N   0  0  0  0  0  0  0  0  0  0  0  0
   25.3975  -21.1240  -11.8090 C   0  0  1  0  0  0  0  0  0  0  0  0
   23.9534  -21.5878  -11.7108 C   0  0  0  0  0  0  0  0  0  0  0  0
   22.9646  -20.6073  -12.1622 C   0  0  0  0  0  0  0  0  0  0  0  0
   21.8183  -20.2561  -11.4323 C   0  0  0  0  0  0  0  0  0  0  0  0
   21.1923  -19.3279  -12.1490 N   0  0  0  0  0  0  0  0  0  0  0  0
   21.8368  -19.0409  -13.2940 C   0  0  0  0  0  0  0  0  0  0  0  0
   21.5630  -18.1611  -14.3375 C   0  0  0  0  0  0  0  0  0  0  0  0
   22.4336  -18.1042  -15.3973 C   0  0  0  0  0  0  0  0  0  0  0  0
   23.5608  -18.8830  -15.4622 C   0  0  0  0  0  0  0  0  0  0  0  0
   23.7945  -19.7408  -14.4071 C   0  0  0  0  0  0  0  0  0  0  0  0
   22.9645  -19.8568  -13.3007 C   0  0  0  0  0  0  0  0  0  0  0  0
   26.2394  -21.4256  -10.6783 C   0  0  0  0  0  0  0  0  0  0  0  0
   26.6759  -22.5785  -10.4092 O   0  0  0  0  0  0  0  0  0  0  0  0
   26.5969  -20.3223   -9.8189 N   0  0  0  0  0  0  0  0  0  0  0  0
   27.0555  -20.5386   -8.4626 C   0  0  1  0  0  0  0  0  0  0  0  0
   27.5899  -19.1685   -8.0130 C   0  0  0  0  0  0  0  0  0  0  0  0
   28.1111  -19.2367   -6.6396 C   0  0  0  0  0  0  0  0  0  0  0  0
   28.2381  -18.0398   -5.9363 C   0  0  0  0  0  0  0  0  0  0  0  0
   28.7151  -18.0922   -4.6602 C   0  0  0  0  0  0  0  0  0  0  0  0
   29.0669  -19.2999   -4.0699 C   0  0  0  0  0  0  0  0  0  0  0  0
   28.9360  -20.4808   -4.7785 C   0  0  0  0  0  0  0  0  0  0  0  0
   28.4569  -20.4444   -6.0646 C   0  0  0  0  0  0  0  0  0  0  0  0
   25.9528  -20.9780   -7.5918 C   0  0  0  0  0  0  0  0  0  0  0  0
   26.1978  -21.8001   -6.6758 O   0  0  0  0  0  0  0  0  0  0  0  0
   24.6444  -20.5390   -7.7152 O   0  0  0  0  0  0  0  0  0  0  0  0
  2  1  1  6
  2  3  1  0
  3  4  1  0
  4  5  1  0
  5  6  1  0
  7  6  1  0
  8  2  1  0
  8  9  2  0
 10  8  1  0
 11 10  1  0
 11 12  1  1
 12 13  1  0
 13 21  1  0
 14 13  2  0
 14 15  1  0
 15 16  1  0
 16 17  1  0
 17 18  2  0
 19 18  1  0
 20 19  2  0
 21 16  2  0
 21 20  1  0
 22 11  1  0
 23 22  2  0
 24 22  1  0
 25 24  1  0
 25 26  1  1
 26 27  1  0
 27 28  2  0
 28 29  1  0
 30 29  2  0
 31 30  1  0
 32 27  1  0
 32 31  2  0
 33 25  1  0
 34 33  2  0
 35 33  1  0
M  END
$$$$
