KWF.pdb
     RDKit          3D

 35 37  0  0  1  0  0  0  0  0999 V2000
   30.3365  -23.1970  -17.7587 N   0  0  0  0  0  0  0  0  0  0  0  0
   29.0015  -23.6485  -17.5822 C   0  0  1  0  0  0  0  0  0  0  0  0
   28.8263  -25.0555  -17.2602 C   0  0  0  0  0  0  0  0  0  0  0  0
   28.9890  -26.1590  -18.2018 C   0  0  0  0  0  0  0  0  0  0  0  0
   28.4343  -26.2100  -19.5458 C   0  0  0  0  0  0  0  0  0  0  0  0
   28.5562  -27.3727  -20.4342 C   0  0  0  0  0  0  0  0  0  0  0  0
   27.9122  -27.2391  -21.7314 N   0  0  0  0  0  0  0  0  0  0  0  0
   28.3120  -22.7074  -16.6472 C   0  0  0  0  0  0  0  0  0  0  0  0
   28.6982  -22.5654  -15.4574 O   0  0  0  0  0  0  0  0  0  0  0  0
   27.1940  -21.9234  -17.0313 N   0  0  0  0  0  0  0  0  0  0  0  0
   26.5056  -21.0748  -16.0817 C   0  0  1  0  0  0  0  0  0  0  0  0
   25.8534  -19.9978  -16.9331 C   0  0  0  0  0  0  0  0  0  0  0  0
   25.0974  -18.9969  -16.1787 C   0  0  0  0  0  0  0  0  0  0  0  0
   25.6705  -17.8551  -15.5973 C   0  0  0  0  0  0  0  0  0  0  0  0
   24.6714  -17.1868  -15.0296 N   0  0  0  0  0  0  0  0  0  0  0  0
   23.4853  -17.7997  -15.1915 C   0  0  0  0  0  0  0  0  0  0  0  0
   22.1943  -17.4843  -14.7772 C   0  0  0  0  0  0  0  0  0  0  0  0
   21.1703  -18.3388  -15.1024 C   0  0  0  0  0  0  0  0  0  0  0  0
   21.3762  -19.4895  -15.8198 C   0  0  0  0  0  0  0  0  0  0  0  0
   22.6705  -19.7641  -16.2109 C   0  0  0  0  0  0  0  0  0  0  0  0
   23.7587  -18.9520  -15.9229 C   0  0  0  0  0  0  0  0  0  0  0  0
   25.6526  -21.7273  -15.1201 C   0  0  0  0  0  0  0  0  0  0  0  0
   24.9089  -22.7111  -15.3872 O   0  0  0  0  0  0  0  0  0  0  0  0
   25.6726  -21.2089  -13.7731 N   0  0  0  0  0  0  0  0  0  0  0  0
   24.7613  -21.7001  -12.7606 C   0  0  1  0  0  0  0  0  0  0  0  0
   25.6583  -22.0040  -11.5491 C   0  0  0  0  0  0  0  0  0  0  0  0
   25.8157  -20.8111  -10.7038 C   0  0  0  0  0  0  0  0  0  0  0  0
   25.1156  -20.7758   -9.4989 C   0  0  0  0  0  0  0  0  0  0  0  0
   25.2587  -19.6768   -8.7049 C   0  0  0  0  0  0  0  0  0  0  0  0
   26.0770  -18.6177   -9.0785 C   0  0  0  0  0  0  0  0  0  0  0  0
   26.7667  -18.6651  -10.2768 C   0  0  0  0  0  0  0  0  0  0  0  0
   26.6329  -19.7652  -11.0872 C   0  0  0  0  0  0  0  0  0  0  0  0
   23.7503  -20.6862  -12.4179 C   0  0  0  0  0  0  0  0  0  0  0  0
   24.0802  -19.4755  -12.4337 O   0  0  0  0  0  0  0  0  0  0  0  0
   22.4406  -20.9811  -12.0752 O   0  0  0  0  0  0  0  0  0  0  0  0
  2  1  1  1
  2  3  1  0
  3  4  1  0
  4  5  1  0
  5  6  1  0
  7  6  1  0
  8  2  1  0
  8  9  2  0
 10  8  1  0
 11 10  1  0
 11 12  1  6
 12 13  1  0
 13 21  1  0
 14 13  2  0
 14 15  1  0
 15 16  1  0
 16 17  1  0
 17 18  2  0
 19 18  1  0
 20 19  2  0
 21 16  2  0
 21 20  1  0
 22 11  1  0
 23 22  2  0
 24 22  1  0
 25 24  1  0
 25 26  1  1
 26 27  1  0
 27 28  2  0
 28 29  1  0
 30 29  2  0
 31 30  1  0
 32 27  1  0
 32 31  2  0
 33 25  1  0
 34 33  2  0
 35 33  1  0
M  END
$$$$
