KWF.pdb
     RDKit          3D

 35 37  0  0  1  0  0  0  0  0999 V2000
11912.3779-10666.2686   68.0388 N   0  0  0  0  0  0  0  0  0  0  0  0
11912.6572-10666.4668   69.4179 C   0  0  1  0  0  0  0  0  0  0  0  0
11912.2002-10667.7148   69.9982 C   0  0  0  0  0  0  0  0  0  0  0  0
11913.0586-10668.8398   70.3633 C   0  0  0  0  0  0  0  0  0  0  0  0
11913.2646-10669.3330   71.7169 C   0  0  0  0  0  0  0  0  0  0  0  0
11912.6123-10668.7734   72.8992 C   0  0  0  0  0  0  0  0  0  0  0  0
11912.5840-10667.3135   72.9600 N   0  0  0  0  0  0  0  0  0  0  0  0
11914.1016-10666.1621   69.6481 C   0  0  0  0  0  0  0  0  0  0  0  0
11914.5771-10666.1055   70.8109 O   0  0  0  0  0  0  0  0  0  0  0  0
11915.0176-10665.9307   68.5899 N   0  0  0  0  0  0  0  0  0  0  0  0
11915.5166-10667.0127   67.7731 C   0  0  1  0  0  0  0  0  0  0  0  0
11914.5146-10668.1387   67.9725 C   0  0  0  0  0  0  0  0  0  0  0  0
11915.0879-10669.3760   68.5028 C   0  0  0  0  0  0  0  0  0  0  0  0
11915.5869-10669.5127   69.8071 C   0  0  0  0  0  0  0  0  0  0  0  0
11915.9863-10670.7744   69.9211 N   0  0  0  0  0  0  0  0  0  0  0  0
11915.7930-10671.4824   68.7914 C   0  0  0  0  0  0  0  0  0  0  0  0
11916.0576-10672.8047   68.4422 C   0  0  0  0  0  0  0  0  0  0  0  0
11915.7441-10673.2256   67.1768 C   0  0  0  0  0  0  0  0  0  0  0  0
11915.1807-10672.3965   66.2419 C   0  0  0  0  0  0  0  0  0  0  0  0
11914.9307-10671.0918   66.6286 C   0  0  0  0  0  0  0  0  0  0  0  0
11915.2188-10670.5908   67.8894 C   0  0  0  0  0  0  0  0  0  0  0  0
11915.8584-10666.6963   66.4060 C   0  0  0  0  0  0  0  0  0  0  0  0
11915.7822-10665.5381   65.9072 O   0  0  0  0  0  0  0  0  0  0  0  0
11916.3076-10667.7871   65.5791 N   0  0  0  0  0  0  0  0  0  0  0  0
11917.6016-10667.7549   64.9254 C   0  0  1  0  0  0  0  0  0  0  0  0
11918.2031-10666.4014   65.3377 C   0  0  0  0  0  0  0  0  0  0  0  0
11918.7773-10665.7061   64.1728 C   0  0  0  0  0  0  0  0  0  0  0  0
11920.1426-10665.4150   64.2065 C   0  0  0  0  0  0  0  0  0  0  0  0
11920.6816-10664.7793   63.1261 C   0  0  0  0  0  0  0  0  0  0  0  0
11919.9111-10664.4287   62.0256 C   0  0  0  0  0  0  0  0  0  0  0  0
11918.5625-10664.7266   62.0094 C   0  0  0  0  0  0  0  0  0  0  0  0
11917.9932-10665.3711   63.0898 C   0  0  0  0  0  0  0  0  0  0  0  0
11918.4541-10668.8652   65.3791 C   0  0  0  0  0  0  0  0  0  0  0  0
11919.4336-10668.6094   66.1284 O   0  0  0  0  0  0  0  0  0  0  0  0
11918.2529-10670.1865   65.0318 O   0  0  0  0  0  0  0  0  0  0  0  0
  2  1  1  6
  2  3  1  0
  3  4  1  0
  4  5  1  0
  5  6  1  0
  7  6  1  0
  8  2  1  0
  8  9  2  0
 10  8  1  0
 11 10  1  0
 11 12  1  6
 12 13  1  0
 13 21  1  0
 14 13  2  0
 14 15  1  0
 15 16  1  0
 16 17  1  0
 17 18  2  0
 19 18  1  0
 20 19  2  0
 21 16  2  0
 21 20  1  0
 22 11  1  0
 23 22  2  0
 24 22  1  0
 25 24  1  0
 25 26  1  1
 26 27  1  0
 27 28  2  0
 28 29  1  0
 30 29  2  0
 31 30  1  0
 32 27  1  0
 32 31  2  0
 33 25  1  0
 34 33  2  0
 35 33  1  0
M  END
$$$$
