KWF.pdb
     RDKit          3D

 35 37  0  0  1  0  0  0  0  0999 V2000
   25.3892  -22.3127  -16.9309 N   0  0  0  0  0  0  0  0  0  0  0  0
   24.4543  -23.2274  -17.4845 C   0  0  1  0  0  0  0  0  0  0  0  0
   24.9814  -24.5046  -17.9372 C   0  0  0  0  0  0  0  0  0  0  0  0
   26.3230  -24.7173  -18.4718 C   0  0  0  0  0  0  0  0  0  0  0  0
   27.5399  -24.8194  -17.6811 C   0  0  0  0  0  0  0  0  0  0  0  0
   27.9046  -26.0055  -16.8960 C   0  0  0  0  0  0  0  0  0  0  0  0
   29.2165  -25.9620  -16.2697 N   0  0  0  0  0  0  0  0  0  0  0  0
   23.2948  -23.3322  -16.5463 C   0  0  0  0  0  0  0  0  0  0  0  0
   22.4005  -24.2040  -16.7044 O   0  0  0  0  0  0  0  0  0  0  0  0
   23.1269  -22.4702  -15.4323 N   0  0  0  0  0  0  0  0  0  0  0  0
   21.9100  -22.4790  -14.6483 C   0  0  1  0  0  0  0  0  0  0  0  0
   22.3520  -22.0773  -13.2506 C   0  0  0  0  0  0  0  0  0  0  0  0
   21.2785  -22.0449  -12.2559 C   0  0  0  0  0  0  0  0  0  0  0  0
   20.5794  -23.1808  -11.8189 C   0  0  0  0  0  0  0  0  0  0  0  0
   19.7128  -22.7543  -10.9058 N   0  0  0  0  0  0  0  0  0  0  0  0
   19.7864  -21.4261  -10.7077 C   0  0  0  0  0  0  0  0  0  0  0  0
   19.0899  -20.5548   -9.8749 C   0  0  0  0  0  0  0  0  0  0  0  0
   19.4009  -19.2183   -9.9112 C   0  0  0  0  0  0  0  0  0  0  0  0
   20.3721  -18.7142  -10.7382 C   0  0  0  0  0  0  0  0  0  0  0  0
   21.0381  -19.6121  -11.5468 C   0  0  0  0  0  0  0  0  0  0  0  0
   20.7834  -20.9764  -11.5686 C   0  0  0  0  0  0  0  0  0  0  0  0
   20.7799  -21.7641  -15.1868 C   0  0  0  0  0  0  0  0  0  0  0  0
   20.8461  -20.6040  -15.6787 O   0  0  0  0  0  0  0  0  0  0  0  0
   19.5053  -22.4409  -15.1559 N   0  0  0  0  0  0  0  0  0  0  0  0
   18.2710  -21.7415  -15.4460 C   0  0  1  0  0  0  0  0  0  0  0  0
   18.0235  -22.0000  -16.9416 C   0  0  0  0  0  0  0  0  0  0  0  0
   16.7850  -21.3439  -17.3867 C   0  0  0  0  0  0  0  0  0  0  0  0
   16.8702  -20.0156  -17.8010 C   0  0  0  0  0  0  0  0  0  0  0  0
   15.7288  -19.3994  -18.2209 C   0  0  0  0  0  0  0  0  0  0  0  0
   14.5113  -20.0689  -18.2386 C   0  0  0  0  0  0  0  0  0  0  0  0
   14.4402  -21.3872  -17.8250 C   0  0  0  0  0  0  0  0  0  0  0  0
   15.5811  -22.0214  -17.3995 C   0  0  0  0  0  0  0  0  0  0  0  0
   17.1591  -22.2666  -14.6365 C   0  0  0  0  0  0  0  0  0  0  0  0
   16.3084  -21.4618  -14.1853 O   0  0  0  0  0  0  0  0  0  0  0  0
   16.9842  -23.6076  -14.3351 O   0  0  0  0  0  0  0  0  0  0  0  0
  2  1  1  1
  2  3  1  0
  3  4  1  0
  4  5  1  0
  5  6  1  0
  7  6  1  0
  8  2  1  0
  8  9  2  0
 10  8  1  0
 11 10  1  0
 11 12  1  1
 12 13  1  0
 13 21  1  0
 14 13  2  0
 14 15  1  0
 15 16  1  0
 16 17  1  0
 17 18  2  0
 19 18  1  0
 20 19  2  0
 21 16  2  0
 21 20  1  0
 22 11  1  0
 23 22  2  0
 24 22  1  0
 25 24  1  0
 25 26  1  6
 26 27  1  0
 27 28  2  0
 28 29  1  0
 30 29  2  0
 31 30  1  0
 32 27  1  0
 32 31  2  0
 33 25  1  0
 34 33  2  0
 35 33  1  0
M  END
$$$$
