KWF.pdb
     RDKit          3D

 35 37  0  0  1  0  0  0  0  0999 V2000
   26.2677  -19.7955  -16.0746 N   0  0  0  0  0  0  0  0  0  0  0  0
   26.8923  -20.5785  -15.0676 C   0  0  1  0  0  0  0  0  0  0  0  0
   28.3457  -20.5569  -15.0328 C   0  0  0  0  0  0  0  0  0  0  0  0
   29.2185  -21.2925  -15.9428 C   0  0  0  0  0  0  0  0  0  0  0  0
   28.9905  -22.6482  -16.4189 C   0  0  0  0  0  0  0  0  0  0  0  0
   29.9164  -23.3683  -17.3022 C   0  0  0  0  0  0  0  0  0  0  0  0
   30.6858  -22.5364  -18.2139 N   0  0  0  0  0  0  0  0  0  0  0  0
   26.2357  -20.2660  -13.7613 C   0  0  0  0  0  0  0  0  0  0  0  0
   26.1002  -19.0794  -13.3632 O   0  0  0  0  0  0  0  0  0  0  0  0
   25.7289  -21.2693  -12.8961 N   0  0  0  0  0  0  0  0  0  0  0  0
   25.1821  -20.9395  -11.5969 C   0  0  1  0  0  0  0  0  0  0  0  0
   23.7407  -21.4182  -11.6552 C   0  0  0  0  0  0  0  0  0  0  0  0
   22.8130  -20.4869  -12.2993 C   0  0  0  0  0  0  0  0  0  0  0  0
   22.8144  -20.2033  -13.6740 C   0  0  0  0  0  0  0  0  0  0  0  0
   21.8212  -19.3433  -13.8761 N   0  0  0  0  0  0  0  0  0  0  0  0
   21.1663  -19.0382  -12.7418 C   0  0  0  0  0  0  0  0  0  0  0  0
   20.0890  -18.1998  -12.4688 C   0  0  0  0  0  0  0  0  0  0  0  0
   19.6471  -18.0947  -11.1735 C   0  0  0  0  0  0  0  0  0  0  0  0
   20.2300  -18.7861  -10.1421 C   0  0  0  0  0  0  0  0  0  0  0  0
   21.2944  -19.6058  -10.4564 C   0  0  0  0  0  0  0  0  0  0  0  0
   21.7995  -19.7669  -11.7391 C   0  0  0  0  0  0  0  0  0  0  0  0
   25.9420  -21.3523  -10.4435 C   0  0  0  0  0  0  0  0  0  0  0  0
   26.2579  -22.5486  -10.1959 O   0  0  0  0  0  0  0  0  0  0  0  0
   26.3618  -20.3135   -9.5333 N   0  0  0  0  0  0  0  0  0  0  0  0
   26.9881  -20.6269   -8.2659 C   0  0  1  0  0  0  0  0  0  0  0  0
   27.8413  -19.3894   -7.9409 C   0  0  0  0  0  0  0  0  0  0  0  0
   28.4275  -19.4981   -6.5966 C   0  0  0  0  0  0  0  0  0  0  0  0
   29.5037  -20.3682   -6.4293 C   0  0  0  0  0  0  0  0  0  0  0  0
   30.0583  -20.4724   -5.1882 C   0  0  0  0  0  0  0  0  0  0  0  0
   29.5710  -19.7361   -4.1154 C   0  0  0  0  0  0  0  0  0  0  0  0
   28.5024  -18.8759   -4.2946 C   0  0  0  0  0  0  0  0  0  0  0  0
   27.9332  -18.7599   -5.5387 C   0  0  0  0  0  0  0  0  0  0  0  0
   25.9808  -20.8544   -7.2166 C   0  0  0  0  0  0  0  0  0  0  0  0
   26.3386  -21.4002   -6.1447 O   0  0  0  0  0  0  0  0  0  0  0  0
   24.6461  -20.5010   -7.3324 O   0  0  0  0  0  0  0  0  0  0  0  0
  2  1  1  6
  2  3  1  0
  3  4  1  0
  4  5  1  0
  5  6  1  0
  7  6  1  0
  8  2  1  0
  8  9  2  0
 10  8  1  0
 11 10  1  0
 11 12  1  1
 12 13  1  0
 13 21  1  0
 14 13  2  0
 14 15  1  0
 15 16  1  0
 16 17  1  0
 17 18  2  0
 19 18  1  0
 20 19  2  0
 21 16  2  0
 21 20  1  0
 22 11  1  0
 23 22  2  0
 24 22  1  0
 25 24  1  0
 25 26  1  1
 26 27  1  0
 27 28  2  0
 28 29  1  0
 30 29  2  0
 31 30  1  0
 32 27  1  0
 32 31  2  0
 33 25  1  0
 34 33  2  0
 35 33  1  0
M  END
$$$$
