MSP.pdb
     RDKit          3D

 22 22  0  0  1  0  0  0  0  0999 V2000
    8.9190  -11.7770   19.7023 C   0  0  0  0  0  0  0  0  0  0  0  0
    8.0877  -12.8435   18.5401 S   0  0  0  0  0  0  0  0  0  0  0  0
    7.5299  -14.4139   19.1894 C   0  0  0  0  0  0  0  0  0  0  0  0
    8.5749  -15.1139   19.9874 C   0  0  0  0  0  0  0  0  0  0  0  0
    8.0657  -16.4096   20.5456 C   0  0  2  0  0  0  0  0  0  0  0  0
    7.2032  -17.0958   19.6027 N   0  0  0  0  0  0  0  0  0  0  0  0
    7.2650  -16.1444   21.7890 C   0  0  0  0  0  0  0  0  0  0  0  0
    6.0302  -15.9004   21.7106 O   0  0  0  0  0  0  0  0  0  0  0  0
    7.8079  -17.7677   25.3612 O   0  0  0  0  0  0  0  0  0  0  0  0
    6.6523  -17.1626   24.8028 C   0  0  0  0  0  0  0  0  0  0  0  0
    7.1143  -15.8216   24.2605 C   0  0  2  0  0  0  0  0  0  0  0  0
    7.8838  -16.1660   23.0475 N   0  0  0  0  0  0  0  0  0  0  0  0
    8.0140  -15.0920   25.1639 C   0  0  0  0  0  0  0  0  0  0  0  0
    9.2776  -15.3404   25.0918 O   0  0  0  0  0  0  0  0  0  0  0  0
    7.6305  -14.1229   26.1256 N   0  0  0  0  0  0  0  0  0  0  0  0
    6.2201  -13.6992   26.2832 C   0  0  0  0  0  0  0  0  0  0  0  0
    6.4737  -12.2041   26.5438 C   0  0  0  0  0  0  0  0  0  0  0  0
    7.5008  -12.3322   27.6406 C   0  0  0  0  0  0  0  0  0  0  0  0
    8.4387  -13.4014   27.0583 C   0  0  1  0  0  0  0  0  0  0  0  0
    8.9495  -14.2617   28.1573 C   0  0  0  0  0  0  0  0  0  0  0  0
    9.8227  -13.8114   28.9149 O   0  0  0  0  0  0  0  0  0  0  0  0
    8.4700  -15.5382   28.3422 O   0  0  0  0  0  0  0  0  0  0  0  0
  2  1  1  0
  3  2  1  0
  4  3  1  0
  4  5  1  0
  5  7  1  0
  5  6  1  6
  7  8  2  0
  9 10  1  0
 11 10  1  1
 11 13  1  0
 12 11  1  0
 12  7  1  0
 13 15  1  0
 14 13  2  0
 15 19  1  0
 15 16  1  0
 16 17  1  0
 18 17  1  0
 19 18  1  0
 20 22  1  0
 19 20  1  1
 21 20  2  0
M  END
$$$$
