MSP.pdb
     RDKit          3D

 22 22  0  0  1  0  0  0  0  0999 V2000
    7.8543  -11.7527   28.0151 C   0  0  0  0  0  0  0  0  0  0  0  0
    6.5719  -11.6184   26.7837 S   0  0  0  0  0  0  0  0  0  0  0  0
    5.9687  -13.1655   26.1192 C   0  0  0  0  0  0  0  0  0  0  0  0
    7.0476  -13.9942   25.5125 C   0  0  0  0  0  0  0  0  0  0  0  0
    6.4979  -15.2413   24.8863 C   0  0  2  0  0  0  0  0  0  0  0  0
    5.9690  -16.1520   25.8836 N   0  0  0  0  0  0  0  0  0  0  0  0
    7.5903  -15.9587   24.1450 C   0  0  0  0  0  0  0  0  0  0  0  0
    8.2194  -16.9027   24.6961 O   0  0  0  0  0  0  0  0  0  0  0  0
    7.8547  -16.6578   20.0085 O   0  0  0  0  0  0  0  0  0  0  0  0
    8.8033  -15.8228   20.6537 C   0  0  0  0  0  0  0  0  0  0  0  0
    8.9216  -16.3567   22.0703 C   0  0  2  0  0  0  0  0  0  0  0  0
    7.9199  -15.5850   22.8341 N   0  0  0  0  0  0  0  0  0  0  0  0
   10.2320  -16.1170   22.6894 C   0  0  0  0  0  0  0  0  0  0  0  0
   10.4651  -14.9477   23.1816 O   0  0  0  0  0  0  0  0  0  0  0  0
   11.2882  -17.0562   22.8056 N   0  0  0  0  0  0  0  0  0  0  0  0
   11.0727  -18.5022   22.5690 C   0  0  0  0  0  0  0  0  0  0  0  0
   11.9892  -19.0400   23.6819 C   0  0  0  0  0  0  0  0  0  0  0  0
   13.2334  -18.2525   23.3566 C   0  0  0  0  0  0  0  0  0  0  0  0
   12.6583  -16.8420   23.1527 C   0  0  1  0  0  0  0  0  0  0  0  0
   13.4183  -16.1491   22.0797 C   0  0  0  0  0  0  0  0  0  0  0  0
   14.4812  -15.5790   22.3700 O   0  0  0  0  0  0  0  0  0  0  0  0
   12.9613  -16.1330   20.7818 O   0  0  0  0  0  0  0  0  0  0  0  0
  2  1  1  0
  3  2  1  0
  4  3  1  0
  4  5  1  0
  5  7  1  0
  5  6  1  1
  7  8  2  0
  9 10  1  0
 11 10  1  6
 11 13  1  0
 12 11  1  0
 12  7  1  0
 13 15  1  0
 14 13  2  0
 15 19  1  0
 15 16  1  0
 16 17  1  0
 18 17  1  0
 19 18  1  0
 20 22  1  0
 19 20  1  6
 21 20  2  0
M  END
$$$$
