MSP.pdb
     RDKit          3D

 22 22  0  0  1  0  0  0  0  0999 V2000
    8.8001  -11.5653   19.7943 C   0  0  0  0  0  0  0  0  0  0  0  0
    8.3860  -12.7200   18.5003 S   0  0  0  0  0  0  0  0  0  0  0  0
    8.2362  -14.4295   19.0043 C   0  0  0  0  0  0  0  0  0  0  0  0
    7.4529  -14.5958   20.2603 C   0  0  0  0  0  0  0  0  0  0  0  0
    7.4523  -16.0222   20.7242 C   0  0  2  0  0  0  0  0  0  0  0  0
    6.5145  -16.8299   19.9681 N   0  0  0  0  0  0  0  0  0  0  0  0
    7.0474  -16.0835   22.1698 C   0  0  0  0  0  0  0  0  0  0  0  0
    5.8388  -16.2579   22.4852 O   0  0  0  0  0  0  0  0  0  0  0  0
    7.0883  -17.8502   26.0861 O   0  0  0  0  0  0  0  0  0  0  0  0
    7.2568  -17.5951   24.7005 C   0  0  0  0  0  0  0  0  0  0  0  0
    7.6307  -16.1270   24.5974 C   0  0  2  0  0  0  0  0  0  0  0  0
    8.0098  -15.9473   23.1809 N   0  0  0  0  0  0  0  0  0  0  0  0
    8.7892  -15.7486   25.4177 C   0  0  0  0  0  0  0  0  0  0  0  0
    9.9381  -16.2484   25.1113 O   0  0  0  0  0  0  0  0  0  0  0  0
    8.7759  -14.8729   26.5330 N   0  0  0  0  0  0  0  0  0  0  0  0
    7.5262  -14.2331   27.0048 C   0  0  0  0  0  0  0  0  0  0  0  0
    8.1138  -12.8585   27.3691 C   0  0  0  0  0  0  0  0  0  0  0  0
    9.2655  -13.3199   28.2263 C   0  0  0  0  0  0  0  0  0  0  0  0
    9.8582  -14.4448   27.3631 C   0  0  1  0  0  0  0  0  0  0  0  0
   10.3658  -15.5285   28.2445 C   0  0  0  0  0  0  0  0  0  0  0  0
    9.7102  -16.5771   28.3441 O   0  0  0  0  0  0  0  0  0  0  0  0
   11.5420  -15.3837   28.9438 O   0  0  0  0  0  0  0  0  0  0  0  0
  2  1  1  0
  3  2  1  0
  4  3  1  0
  4  5  1  0
  5  7  1  0
  5  6  1  6
  7  8  2  0
  9 10  1  0
 11 10  1  6
 11 13  1  0
 12 11  1  0
 12  7  1  0
 13 15  1  0
 14 13  2  0
 15 19  1  0
 15 16  1  0
 16 17  1  0
 18 17  1  0
 19 18  1  0
 20 22  1  0
 19 20  1  1
 21 20  2  0
M  END
$$$$
