MSP.pdb
     RDKit          3D

 22 22  0  0  1  0  0  0  0  0999 V2000
    9.4316  -13.4194   28.6461 C   0  0  0  0  0  0  0  0  0  0  0  0
   10.0917  -15.0043   28.1651 S   0  0  0  0  0  0  0  0  0  0  0  0
    8.9472  -16.3766   28.2390 C   0  0  0  0  0  0  0  0  0  0  0  0
    7.6620  -16.0963   27.5398 C   0  0  0  0  0  0  0  0  0  0  0  0
    7.6331  -16.7124   26.1726 C   0  0  2  0  0  0  0  0  0  0  0  0
    8.6183  -17.7688   26.0413 N   0  0  0  0  0  0  0  0  0  0  0  0
    7.9437  -15.6661   25.1400 C   0  0  0  0  0  0  0  0  0  0  0  0
    7.4049  -14.5277   25.2057 O   0  0  0  0  0  0  0  0  0  0  0  0
   10.8860  -16.4530   22.7087 O   0  0  0  0  0  0  0  0  0  0  0  0
   10.6778  -15.0631   22.9042 C   0  0  0  0  0  0  0  0  0  0  0  0
    9.1827  -14.8987   23.1124 C   0  0  2  0  0  0  0  0  0  0  0  0
    8.8353  -15.9463   24.0942 N   0  0  0  0  0  0  0  0  0  0  0  0
    8.3831  -15.1409   21.9041 C   0  0  0  0  0  0  0  0  0  0  0  0
    7.7385  -16.2547   21.8170 O   0  0  0  0  0  0  0  0  0  0  0  0
    8.2424  -14.2598   20.8019 N   0  0  0  0  0  0  0  0  0  0  0  0
    8.7593  -12.8725   20.8441 C   0  0  0  0  0  0  0  0  0  0  0  0
    7.6093  -12.1923   20.0810 C   0  0  0  0  0  0  0  0  0  0  0  0
    7.5649  -13.0978   18.8759 C   0  0  0  0  0  0  0  0  0  0  0  0
    7.6228  -14.4856   19.5335 C   0  0  1  0  0  0  0  0  0  0  0  0
    8.4060  -15.4085   18.6710 C   0  0  0  0  0  0  0  0  0  0  0  0
    9.5914  -15.6362   18.9578 O   0  0  0  0  0  0  0  0  0  0  0  0
    7.8375  -16.0067   17.5699 O   0  0  0  0  0  0  0  0  0  0  0  0
  2  1  1  0
  3  2  1  0
  4  3  1  0
  4  5  1  0
  5  7  1  0
  5  6  1  1
  7  8  2  0
  9 10  1  0
 11 10  1  6
 11 13  1  0
 12 11  1  0
 12  7  1  0
 13 15  1  0
 14 13  2  0
 15 19  1  0
 15 16  1  0
 16 17  1  0
 18 17  1  0
 19 18  1  0
 20 22  1  0
 19 20  1  6
 21 20  2  0
M  END
$$$$
