MSP.pdb
     RDKit          3D

 22 22  0  0  1  0  0  0  0  0999 V2000
    9.6877  -12.8558   29.0222 C   0  0  0  0  0  0  0  0  0  0  0  0
   10.2283  -14.5536   28.9569 S   0  0  0  0  0  0  0  0  0  0  0  0
    9.0555  -15.7157   28.2693 C   0  0  0  0  0  0  0  0  0  0  0  0
    8.5740  -15.3196   26.9164 C   0  0  0  0  0  0  0  0  0  0  0  0
    7.5554  -16.2864   26.3895 C   0  0  2  0  0  0  0  0  0  0  0  0
    7.6781  -17.5877   27.0182 N   0  0  0  0  0  0  0  0  0  0  0  0
    7.7516  -16.4719   24.9115 C   0  0  0  0  0  0  0  0  0  0  0  0
    7.9583  -17.6217   24.4364 O   0  0  0  0  0  0  0  0  0  0  0  0
    7.4617  -14.3966   20.5905 O   0  0  0  0  0  0  0  0  0  0  0  0
    7.4043  -14.2276   21.9982 C   0  0  0  0  0  0  0  0  0  0  0  0
    7.8297  -15.5607   22.5879 C   0  0  2  0  0  0  0  0  0  0  0  0
    7.7066  -15.3681   24.0474 N   0  0  0  0  0  0  0  0  0  0  0  0
    9.2259  -15.9189   22.3043 C   0  0  0  0  0  0  0  0  0  0  0  0
   10.1362  -15.4989   23.1158 O   0  0  0  0  0  0  0  0  0  0  0  0
    9.6861  -16.6945   21.2100 N   0  0  0  0  0  0  0  0  0  0  0  0
    8.7504  -17.2729   20.2183 C   0  0  0  0  0  0  0  0  0  0  0  0
    9.4654  -18.6192   20.0091 C   0  0  0  0  0  0  0  0  0  0  0  0
   10.8556  -18.1021   19.7369 C   0  0  0  0  0  0  0  0  0  0  0  0
   11.0215  -17.0648   20.8587 C   0  0  1  0  0  0  0  0  0  0  0  0
   11.8195  -15.9163   20.3554 C   0  0  0  0  0  0  0  0  0  0  0  0
   11.2384  -15.0004   19.7532 O   0  0  0  0  0  0  0  0  0  0  0  0
   13.1807  -15.8580   20.5477 O   0  0  0  0  0  0  0  0  0  0  0  0
  2  1  1  0
  3  2  1  0
  4  3  1  0
  4  5  1  0
  5  7  1  0
  5  6  1  1
  7  8  2  0
  9 10  1  0
 11 10  1  6
 11 13  1  0
 12 11  1  0
 12  7  1  0
 13 15  1  0
 14 13  2  0
 15 19  1  0
 15 16  1  0
 16 17  1  0
 18 17  1  0
 19 18  1  0
 20 22  1  0
 19 20  1  6
 21 20  2  0
M  END
$$$$
