MSP.pdb
     RDKit          3D

 22 22  0  0  1  0  0  0  0  0999 V2000
    8.5562  -11.6361   19.5452 C   0  0  0  0  0  0  0  0  0  0  0  0
    8.4369  -12.9948   18.3969 S   0  0  0  0  0  0  0  0  0  0  0  0
    7.7628  -14.5135   19.0587 C   0  0  0  0  0  0  0  0  0  0  0  0
    8.1642  -14.7568   20.4724 C   0  0  0  0  0  0  0  0  0  0  0  0
    7.6034  -16.0483   20.9896 C   0  0  2  0  0  0  0  0  0  0  0  0
    6.4506  -16.4766   20.2206 N   0  0  0  0  0  0  0  0  0  0  0  0
    7.1631  -15.8733   22.4154 C   0  0  0  0  0  0  0  0  0  0  0  0
    6.0766  -15.2896   22.6786 O   0  0  0  0  0  0  0  0  0  0  0  0
    7.8358  -18.3736   25.4427 O   0  0  0  0  0  0  0  0  0  0  0  0
    6.8272  -17.3909   25.2680 C   0  0  0  0  0  0  0  0  0  0  0  0
    7.5579  -16.1212   24.8685 C   0  0  2  0  0  0  0  0  0  0  0  0
    7.9564  -16.3574   23.4658 N   0  0  0  0  0  0  0  0  0  0  0  0
    8.7821  -15.8707   25.6409 C   0  0  0  0  0  0  0  0  0  0  0  0
    9.8764  -16.4220   25.2382 O   0  0  0  0  0  0  0  0  0  0  0  0
    8.8885  -15.0690   26.8059 N   0  0  0  0  0  0  0  0  0  0  0  0
    7.7081  -14.4011   27.4009 C   0  0  0  0  0  0  0  0  0  0  0  0
    8.3902  -13.0830   27.8070 C   0  0  0  0  0  0  0  0  0  0  0  0
    9.5698  -13.6540   28.5529 C   0  0  0  0  0  0  0  0  0  0  0  0
   10.0442  -14.7484   27.5838 C   0  0  1  0  0  0  0  0  0  0  0  0
   10.5509  -15.9100   28.3603 C   0  0  0  0  0  0  0  0  0  0  0  0
    9.8412  -16.9232   28.4554 O   0  0  0  0  0  0  0  0  0  0  0  0
   11.7848  -15.8749   28.9684 O   0  0  0  0  0  0  0  0  0  0  0  0
  2  1  1  0
  3  2  1  0
  4  3  1  0
  4  5  1  0
  5  7  1  0
  5  6  1  6
  7  8  2  0
  9 10  1  0
 11 10  1  1
 11 13  1  0
 12 11  1  0
 12  7  1  0
 13 15  1  0
 14 13  2  0
 15 19  1  0
 15 16  1  0
 16 17  1  0
 18 17  1  0
 19 18  1  0
 20 22  1  0
 19 20  1  1
 21 20  2  0
M  END
$$$$
