MSP.pdb
     RDKit          3D

 22 22  0  0  1  0  0  0  0  0999 V2000
    8.1474  -12.0192   28.1346 C   0  0  0  0  0  0  0  0  0  0  0  0
    7.6807  -12.5568   26.4998 S   0  0  0  0  0  0  0  0  0  0  0  0
    6.4504  -13.8530   26.4308 C   0  0  0  0  0  0  0  0  0  0  0  0
    6.0891  -14.2340   25.0368 C   0  0  0  0  0  0  0  0  0  0  0  0
    5.9958  -15.7227   24.8794 C   0  0  2  0  0  0  0  0  0  0  0  0
    6.0286  -16.3991   26.1620 N   0  0  0  0  0  0  0  0  0  0  0  0
    7.1601  -16.2195   24.0701 C   0  0  0  0  0  0  0  0  0  0  0  0
    7.9604  -17.0632   24.5582 O   0  0  0  0  0  0  0  0  0  0  0  0
    8.3774  -14.4158   20.7268 O   0  0  0  0  0  0  0  0  0  0  0  0
    8.0789  -15.7860   20.5104 C   0  0  0  0  0  0  0  0  0  0  0  0
    8.2821  -16.4658   21.8530 C   0  0  2  0  0  0  0  0  0  0  0  0
    7.3671  -15.7495   22.7650 N   0  0  0  0  0  0  0  0  0  0  0  0
    9.6422  -16.3274   22.3907 C   0  0  0  0  0  0  0  0  0  0  0  0
    9.8877  -15.3281   23.1683 O   0  0  0  0  0  0  0  0  0  0  0  0
   10.7348  -17.1958   22.1396 N   0  0  0  0  0  0  0  0  0  0  0  0
   10.5641  -18.4663   21.3979 C   0  0  0  0  0  0  0  0  0  0  0  0
   11.5352  -19.3283   22.2235 C   0  0  0  0  0  0  0  0  0  0  0  0
   12.7389  -18.4206   22.1850 C   0  0  0  0  0  0  0  0  0  0  0  0
   12.1069  -17.0597   22.5171 C   0  0  1  0  0  0  0  0  0  0  0  0
   12.8059  -15.9916   21.7559 C   0  0  0  0  0  0  0  0  0  0  0  0
   12.3300  -15.6175   20.6729 O   0  0  0  0  0  0  0  0  0  0  0  0
   13.9624  -15.4190   22.2335 O   0  0  0  0  0  0  0  0  0  0  0  0
  2  1  1  0
  3  2  1  0
  4  3  1  0
  4  5  1  0
  5  7  1  0
  5  6  1  1
  7  8  2  0
  9 10  1  0
 11 10  1  6
 11 13  1  0
 12 11  1  0
 12  7  1  0
 13 15  1  0
 14 13  2  0
 15 19  1  0
 15 16  1  0
 16 17  1  0
 18 17  1  0
 19 18  1  0
 20 22  1  0
 19 20  1  6
 21 20  2  0
M  END
$$$$
