MSP.pdb
     RDKit          3D

 22 22  0  0  1  0  0  0  0  0999 V2000
    9.9873  -14.1912   28.6864 C   0  0  0  0  0  0  0  0  0  0  0  0
   10.4970  -15.8254   29.1849 S   0  0  0  0  0  0  0  0  0  0  0  0
    9.4286  -17.1632   28.6674 C   0  0  0  0  0  0  0  0  0  0  0  0
    9.1139  -17.1223   27.2120 C   0  0  0  0  0  0  0  0  0  0  0  0
    7.6791  -17.4712   26.9488 C   0  0  2  0  0  0  0  0  0  0  0  0
    7.5049  -18.8960   26.7406 N   0  0  0  0  0  0  0  0  0  0  0  0
    7.2067  -16.7664   25.7088 C   0  0  0  0  0  0  0  0  0  0  0  0
    6.6229  -17.4098   24.7945 O   0  0  0  0  0  0  0  0  0  0  0  0
    8.2011  -13.0217   25.4187 O   0  0  0  0  0  0  0  0  0  0  0  0
    7.0277  -13.2372   24.6505 C   0  0  0  0  0  0  0  0  0  0  0  0
    7.0358  -14.7139   24.2969 C   0  0  2  0  0  0  0  0  0  0  0  0
    7.4108  -15.3871   25.5573 N   0  0  0  0  0  0  0  0  0  0  0  0
    8.0363  -15.0784   23.2849 C   0  0  0  0  0  0  0  0  0  0  0  0
    9.0415  -15.7958   23.6573 O   0  0  0  0  0  0  0  0  0  0  0  0
    8.0111  -14.7174   21.9138 N   0  0  0  0  0  0  0  0  0  0  0  0
    6.9709  -13.8171   21.3655 C   0  0  0  0  0  0  0  0  0  0  0  0
    6.7661  -14.5244   20.0144 C   0  0  0  0  0  0  0  0  0  0  0  0
    8.2066  -14.6046   19.5754 C   0  0  0  0  0  0  0  0  0  0  0  0
    8.8892  -15.1102   20.8562 C   0  0  1  0  0  0  0  0  0  0  0  0
   10.2368  -14.4943   20.9737 C   0  0  0  0  0  0  0  0  0  0  0  0
   10.3936  -13.5381   21.7484 O   0  0  0  0  0  0  0  0  0  0  0  0
   11.3010  -14.9677   20.2410 O   0  0  0  0  0  0  0  0  0  0  0  0
  2  1  1  0
  3  2  1  0
  4  3  1  0
  4  5  1  0
  5  7  1  0
  5  6  1  6
  7  8  2  0
  9 10  1  0
 11 10  1  1
 11 13  1  0
 12 11  1  0
 12  7  1  0
 13 15  1  0
 14 13  2  0
 15 19  1  0
 15 16  1  0
 16 17  1  0
 18 17  1  0
 19 18  1  0
 20 22  1  0
 19 20  1  1
 21 20  2  0
M  END
$$$$
