RPE.pdb
     RDKit          3D

 28 28  0  0  1  0  0  0  0  0999 V2000
   18.5012  -22.1597  -11.3618 N   0  0  0  0  0  0  0  0  0  0  0  0
   18.8583  -22.6407  -12.6692 C   0  0  0  0  0  0  0  0  0  0  0  0
   17.9007  -22.8497  -13.4795 N   0  0  0  0  0  0  0  0  0  0  0  0
   20.1973  -22.8736  -13.0390 N   0  0  0  0  0  0  0  0  0  0  0  0
   21.2708  -22.3562  -12.2439 C   0  0  0  0  0  0  0  0  0  0  0  0
   22.4174  -21.7729  -13.0283 C   0  0  0  0  0  0  0  0  0  0  0  0
   23.7388  -22.3981  -12.7426 C   0  0  0  0  0  0  0  0  0  0  0  0
   24.6185  -21.4375  -11.9467 C   0  0  2  0  0  0  0  0  0  0  0  0
   23.8942  -20.9228  -10.8017 N   0  0  0  0  0  0  0  0  0  0  0  0
   25.0498  -20.3106  -12.7858 C   0  0  0  0  0  0  0  0  0  0  0  0
   24.1936  -19.3432  -12.8545 O   0  0  0  0  0  0  0  0  0  0  0  0
   18.0559  -23.2689  -14.4322 N   0  0  0  0  0  0  0  0  0  0  0  0
   26.2315  -20.1392  -13.5022 C   0  0  0  0  0  0  0  0  0  0  0  0
   27.5731  -20.0031  -12.8172 C   0  0  0  0  0  0  0  0  0  0  0  0
   28.3252  -21.1245  -13.5496 C   0  0  0  0  0  0  0  0  0  0  0  0
   27.5406  -21.3593  -14.8675 C   0  0  2  0  0  0  0  0  0  0  0  0
   26.6769  -20.1442  -14.8565 C   0  0  0  0  0  0  0  0  0  0  0  0
   25.7623  -19.8971  -15.9311 O   0  0  0  0  0  0  0  0  0  0  0  0
   24.9243  -20.7576  -16.2928 N   0  0  0  0  0  0  0  0  0  0  0  0
   25.7250  -18.6611  -16.6777 C   0  0  1  0  0  0  0  0  0  0  0  0
   24.7185  -18.4053  -17.6826 C   0  0  0  0  0  0  0  0  0  0  0  0
   23.6067  -17.6067  -16.9829 C   0  0  0  0  0  0  0  0  0  0  0  0
   22.4755  -17.3291  -17.9273 C   0  0  0  0  0  0  0  0  0  0  0  0
   21.4362  -16.5492  -17.2195 O   0  0  0  0  0  0  0  0  0  0  0  0
   21.4816  -16.4615  -15.9702 C   0  0  0  0  0  0  0  0  0  0  0  0
   25.2424  -17.5700  -18.7714 O   0  0  0  0  0  0  0  0  0  0  0  0
   25.8108  -16.4602  -18.6257 O   0  0  0  0  0  0  0  0  0  0  0  0
   20.4014  -15.9035  -17.8941 O   0  0  0  0  0  0  0  0  0  0  0  0
  2  1  1  0
  3  2  2  0
  4  2  1  0
  5  4  1  0
  6  5  1  0
  7  6  1  0
  8  9  1  1
  8  7  1  0
 10  8  1  0
 11 10  2  0
 12 16  1  0
 12 10  1  0
 13 12  1  0
 14 13  1  0
 14 15  1  0
 15 16  1  0
 17 19  1  0
 16 17  1  1
 18 17  2  0
 20 19  1  0
 20 25  1  0
 20 21  1  6
 22 21  1  0
 23 22  1  0
 24 23  2  0
 25 26  2  0
 25 28  1  0
 27 23  1  0
M  END
$$$$
