RPE.pdb
     RDKit          3D

 28 28  0  0  1  0  0  0  0  0999 V2000
   25.0024  -23.8838  -13.1352 N   0  0  0  0  0  0  0  0  0  0  0  0
   24.9368  -22.4981  -12.7564 C   0  0  0  0  0  0  0  0  0  0  0  0
   25.3796  -22.2027  -11.6014 N   0  0  0  0  0  0  0  0  0  0  0  0
   24.4078  -21.5138  -13.6139 N   0  0  0  0  0  0  0  0  0  0  0  0
   23.7459  -21.8882  -14.8279 C   0  0  0  0  0  0  0  0  0  0  0  0
   23.2158  -20.7370  -15.6427 C   0  0  0  0  0  0  0  0  0  0  0  0
   24.1426  -19.5751  -15.7410 C   0  0  0  0  0  0  0  0  0  0  0  0
   23.6096  -18.4014  -14.9234 C   0  0  2  0  0  0  0  0  0  0  0  0
   22.2236  -18.6265  -14.5640 N   0  0  0  0  0  0  0  0  0  0  0  0
   23.7087  -17.1488  -15.6856 C   0  0  0  0  0  0  0  0  0  0  0  0
   22.6554  -16.8678  -16.3821 O   0  0  0  0  0  0  0  0  0  0  0  0
   25.3455  -21.2209  -11.2240 N   0  0  0  0  0  0  0  0  0  0  0  0
   24.7575  -16.2358  -15.7595 C   0  0  0  0  0  0  0  0  0  0  0  0
   25.4031  -15.6527  -14.5223 C   0  0  0  0  0  0  0  0  0  0  0  0
   26.8639  -16.0180  -14.8257 C   0  0  0  0  0  0  0  0  0  0  0  0
   26.9268  -16.2399  -16.3601 C   0  0  2  0  0  0  0  0  0  0  0  0
   25.6099  -15.6565  -16.7447 C   0  0  0  0  0  0  0  0  0  0  0  0
   25.2143  -15.6079  -18.1207 O   0  0  0  0  0  0  0  0  0  0  0  0
   25.2586  -16.6245  -18.8543 N   0  0  0  0  0  0  0  0  0  0  0  0
   24.7398  -14.4090  -18.7717 C   0  0  1  0  0  0  0  0  0  0  0  0
   24.4193  -14.3800  -20.1805 C   0  0  0  0  0  0  0  0  0  0  0  0
   23.0707  -13.6514  -20.2989 C   0  0  0  0  0  0  0  0  0  0  0  0
   22.0036  -14.3793  -19.5373 C   0  0  0  0  0  0  0  0  0  0  0  0
   20.6958  -13.7441  -19.8123 O   0  0  0  0  0  0  0  0  0  0  0  0
   20.5887  -12.4990  -19.7197 C   0  0  0  0  0  0  0  0  0  0  0  0
   25.4069  -13.6052  -20.9433 O   0  0  0  0  0  0  0  0  0  0  0  0
   26.3046  -12.8828  -20.4451 O   0  0  0  0  0  0  0  0  0  0  0  0
   19.5704  -14.4831  -20.1734 O   0  0  0  0  0  0  0  0  0  0  0  0
  2  1  1  0
  3  2  2  0
  4  2  1  0
  5  4  1  0
  6  5  1  0
  7  6  1  0
  8  9  1  6
  8  7  1  0
 10  8  1  0
 11 10  2  0
 12 16  1  0
 12 10  1  0
 13 12  1  0
 14 13  1  0
 14 15  1  0
 15 16  1  0
 17 19  1  0
 16 17  1  1
 18 17  2  0
 20 19  1  0
 20 25  1  0
 20 21  1  6
 22 21  1  0
 23 22  1  0
 24 23  2  0
 25 26  2  0
 25 28  1  0
 27 23  1  0
M  END
$$$$
