RPE.pdb
     RDKit          3D

 28 28  0  0  1  0  0  0  0  0999 V2000
   25.1834  -25.5218  -15.5347 N   0  0  0  0  0  0  0  0  0  0  0  0
   24.1846  -24.6102  -16.0240 C   0  0  0  0  0  0  0  0  0  0  0  0
   23.7942  -24.7837  -17.2219 N   0  0  0  0  0  0  0  0  0  0  0  0
   23.6635  -23.5742  -15.2246 N   0  0  0  0  0  0  0  0  0  0  0  0
   24.1261  -23.3908  -13.8813 C   0  0  0  0  0  0  0  0  0  0  0  0
   25.4641  -22.7089  -13.7585 C   0  0  0  0  0  0  0  0  0  0  0  0
   25.9343  -22.5253  -12.3571 C   0  0  0  0  0  0  0  0  0  0  0  0
   25.8482  -21.0546  -11.9577 C   0  0  2  0  0  0  0  0  0  0  0  0
   24.8408  -20.8695  -10.9321 N   0  0  0  0  0  0  0  0  0  0  0  0
   25.5083  -20.2194  -13.1181 C   0  0  0  0  0  0  0  0  0  0  0  0
   24.2484  -20.2076  -13.4115 O   0  0  0  0  0  0  0  0  0  0  0  0
   23.0396  -24.1919  -17.6552 N   0  0  0  0  0  0  0  0  0  0  0  0
   26.3369  -19.4494  -13.9303 C   0  0  0  0  0  0  0  0  0  0  0  0
   27.5136  -18.6782  -13.3752 C   0  0  0  0  0  0  0  0  0  0  0  0
   28.6138  -19.2395  -14.2884 C   0  0  0  0  0  0  0  0  0  0  0  0
   27.8761  -19.7923  -15.5366 C   0  0  2  0  0  0  0  0  0  0  0  0
   26.5341  -19.1813  -15.3167 C   0  0  0  0  0  0  0  0  0  0  0  0
   25.4792  -19.3928  -16.2626 O   0  0  0  0  0  0  0  0  0  0  0  0
   25.4587  -20.3992  -17.0111 N   0  0  0  0  0  0  0  0  0  0  0  0
   24.3692  -18.4847  -16.4347 C   0  0  1  0  0  0  0  0  0  0  0  0
   23.2228  -18.8241  -17.2466 C   0  0  0  0  0  0  0  0  0  0  0  0
   21.9837  -18.4426  -16.4204 C   0  0  0  0  0  0  0  0  0  0  0  0
   20.7248  -18.7898  -17.1574 C   0  0  0  0  0  0  0  0  0  0  0  0
   19.5618  -18.3068  -16.3805 O   0  0  0  0  0  0  0  0  0  0  0  0
   19.6004  -17.1640  -15.8678 C   0  0  0  0  0  0  0  0  0  0  0  0
   23.1859  -18.0359  -18.4855 O   0  0  0  0  0  0  0  0  0  0  0  0
   22.4997  -18.3103  -19.5003 O   0  0  0  0  0  0  0  0  0  0  0  0
   18.4168  -19.0799  -16.1961 O   0  0  0  0  0  0  0  0  0  0  0  0
  2  1  1  0
  3  2  2  0
  4  2  1  0
  5  4  1  0
  6  5  1  0
  7  6  1  0
  8  9  1  1
  8  7  1  0
 10  8  1  0
 11 10  2  0
 12 16  1  0
 12 10  1  0
 13 12  1  0
 14 13  1  0
 14 15  1  0
 15 16  1  0
 17 19  1  0
 16 17  1  6
 18 17  2  0
 20 19  1  0
 20 25  1  0
 20 21  1  6
 22 21  1  0
 23 22  1  0
 24 23  2  0
 25 26  2  0
 25 28  1  0
 27 23  1  0
M  END
$$$$
