RPE.pdb
     RDKit          3D

 28 28  0  0  1  0  0  0  0  0999 V2000
   24.0364  -25.0515  -17.6649 N   0  0  0  0  0  0  0  0  0  0  0  0
   25.1276  -25.1443  -16.7330 C   0  0  0  0  0  0  0  0  0  0  0  0
   25.2533  -26.2471  -16.1122 N   0  0  0  0  0  0  0  0  0  0  0  0
   26.0137  -24.0719  -16.5116 N   0  0  0  0  0  0  0  0  0  0  0  0
   26.2767  -23.6101  -15.1813 C   0  0  0  0  0  0  0  0  0  0  0  0
   25.1471  -23.8112  -14.2048 C   0  0  0  0  0  0  0  0  0  0  0  0
   24.5551  -22.5488  -13.6810 C   0  0  0  0  0  0  0  0  0  0  0  0
   25.6578  -21.5854  -13.2496 C   0  0  2  0  0  0  0  0  0  0  0  0
   25.9506  -21.7540  -11.8402 N   0  0  0  0  0  0  0  0  0  0  0  0
   25.2558  -20.1927  -13.4913 C   0  0  0  0  0  0  0  0  0  0  0  0
   24.0385  -19.9250  -13.1449 O   0  0  0  0  0  0  0  0  0  0  0  0
   25.9208  -26.3624  -15.3069 N   0  0  0  0  0  0  0  0  0  0  0  0
   25.9895  -19.1379  -14.0282 C   0  0  0  0  0  0  0  0  0  0  0  0
   27.2608  -18.6335  -13.3825 C   0  0  0  0  0  0  0  0  0  0  0  0
   28.1991  -18.7448  -14.5936 C   0  0  0  0  0  0  0  0  0  0  0  0
   27.2722  -18.7556  -15.8379 C   0  0  2  0  0  0  0  0  0  0  0  0
   25.9985  -18.3209  -15.1966 C   0  0  0  0  0  0  0  0  0  0  0  0
   24.8134  -18.1518  -15.9834 O   0  0  0  0  0  0  0  0  0  0  0  0
   24.7364  -18.5847  -17.1583 N   0  0  0  0  0  0  0  0  0  0  0  0
   23.6271  -17.4818  -15.5037 C   0  0  1  0  0  0  0  0  0  0  0  0
   22.3714  -17.5472  -16.2160 C   0  0  0  0  0  0  0  0  0  0  0  0
   21.9526  -19.0264  -16.2125 C   0  0  0  0  0  0  0  0  0  0  0  0
   21.7582  -19.5212  -14.8103 C   0  0  0  0  0  0  0  0  0  0  0  0
   20.7353  -20.5905  -14.8134 O   0  0  0  0  0  0  0  0  0  0  0  0
   20.9844  -21.6739  -15.3918 C   0  0  0  0  0  0  0  0  0  0  0  0
   21.3189  -16.7897  -15.5261 O   0  0  0  0  0  0  0  0  0  0  0  0
   21.4256  -16.2704  -14.3882 O   0  0  0  0  0  0  0  0  0  0  0  0
   19.4966  -20.4376  -14.1928 O   0  0  0  0  0  0  0  0  0  0  0  0
  2  1  1  0
  3  2  2  0
  4  2  1  0
  5  4  1  0
  6  5  1  0
  7  6  1  0
  8  9  1  1
  8  7  1  0
 10  8  1  0
 11 10  2  0
 12 16  1  0
 12 10  1  0
 13 12  1  0
 14 13  1  0
 14 15  1  0
 15 16  1  0
 17 19  1  0
 16 17  1  6
 18 17  2  0
 20 19  1  0
 20 25  1  0
 20 21  1  6
 22 21  1  0
 23 22  1  0
 24 23  2  0
 25 26  2  0
 25 28  1  0
 27 23  1  0
M  END
$$$$
