RPE.pdb
     RDKit          3D

 28 28  0  0  1  0  0  0  0  0999 V2000
   12.5308  -13.9601  -15.3734 N   0  0  0  0  0  0  0  0  0  0  0  0
   13.5415  -13.1986  -16.0566 C   0  0  0  0  0  0  0  0  0  0  0  0
   13.1380  -12.2139  -16.7530 N   0  0  0  0  0  0  0  0  0  0  0  0
   14.9092  -13.5228  -15.9663 N   0  0  0  0  0  0  0  0  0  0  0  0
   15.8883  -12.7398  -16.6594 C   0  0  0  0  0  0  0  0  0  0  0  0
   17.3183  -13.1375  -16.4000 C   0  0  0  0  0  0  0  0  0  0  0  0
   18.3274  -12.2959  -17.1016 C   0  0  0  0  0  0  0  0  0  0  0  0
   19.7394  -12.7394  -16.7277 C   0  0  2  0  0  0  0  0  0  0  0  0
   19.6900  -13.7765  -15.7163 N   0  0  0  0  0  0  0  0  0  0  0  0
   20.5213  -11.6065  -16.2131 C   0  0  0  0  0  0  0  0  0  0  0  0
   19.8752  -10.8480  -15.3881 O   0  0  0  0  0  0  0  0  0  0  0  0
   13.7986  -11.6213  -17.3186 N   0  0  0  0  0  0  0  0  0  0  0  0
   21.8385  -11.2429  -16.4814 C   0  0  0  0  0  0  0  0  0  0  0  0
   23.0006  -12.1684  -16.1976 C   0  0  0  0  0  0  0  0  0  0  0  0
   23.6444  -12.1710  -17.5923 C   0  0  0  0  0  0  0  0  0  0  0  0
   23.1294  -10.8844  -18.2902 C   0  0  2  0  0  0  0  0  0  0  0  0
   22.5530  -10.1807  -17.1090 C   0  0  0  0  0  0  0  0  0  0  0  0
   21.9611   -8.8845  -17.2570 O   0  0  0  0  0  0  0  0  0  0  0  0
   20.9164   -8.7113  -17.9295 N   0  0  0  0  0  0  0  0  0  0  0  0
   22.5036   -7.6875  -16.6577 C   0  0  1  0  0  0  0  0  0  0  0  0
   21.9374   -6.3821  -16.9105 C   0  0  0  0  0  0  0  0  0  0  0  0
   22.3580   -5.4955  -15.7271 C   0  0  0  0  0  0  0  0  0  0  0  0
   21.5934   -5.8609  -14.4900 C   0  0  0  0  0  0  0  0  0  0  0  0
   22.0887   -5.0462  -13.3583 O   0  0  0  0  0  0  0  0  0  0  0  0
   23.0468   -4.2600  -13.5434 C   0  0  0  0  0  0  0  0  0  0  0  0
   22.4912   -5.7802  -18.1306 O   0  0  0  0  0  0  0  0  0  0  0  0
   23.4749   -6.2198  -18.7748 O   0  0  0  0  0  0  0  0  0  0  0  0
   21.5258   -5.1202  -12.0853 O   0  0  0  0  0  0  0  0  0  0  0  0
  2  1  1  0
  3  2  2  0
  4  2  1  0
  5  4  1  0
  6  5  1  0
  7  6  1  0
  8  9  1  1
  8  7  1  0
 10  8  1  0
 11 10  2  0
 12 16  1  0
 12 10  1  0
 13 12  1  0
 14 13  1  0
 14 15  1  0
 15 16  1  0
 17 19  1  0
 16 17  1  6
 18 17  2  0
 20 19  1  0
 20 25  1  0
 20 21  1  6
 22 21  1  0
 23 22  1  0
 24 23  2  0
 25 26  2  0
 25 28  1  0
 27 23  1  0
M  END
$$$$
