RPE.pdb
     RDKit          3D

 28 28  0  0  1  0  0  0  0  0999 V2000
   26.7110  -17.2392  -20.4335 N   0  0  0  0  0  0  0  0  0  0  0  0
   27.9016  -16.7083  -19.8263 C   0  0  0  0  0  0  0  0  0  0  0  0
   28.6617  -16.0161  -20.5748 N   0  0  0  0  0  0  0  0  0  0  0  0
   28.2175  -16.9416  -18.4736 N   0  0  0  0  0  0  0  0  0  0  0  0
   28.3834  -18.2787  -17.9868 C   0  0  0  0  0  0  0  0  0  0  0  0
   27.1210  -19.1000  -17.9453 C   0  0  0  0  0  0  0  0  0  0  0  0
   26.6566  -19.4446  -16.5726 C   0  0  0  0  0  0  0  0  0  0  0  0
   27.3750  -20.6933  -16.0680 C   0  0  2  0  0  0  0  0  0  0  0  0
   26.9788  -21.8508  -16.8451 N   0  0  0  0  0  0  0  0  0  0  0  0
   27.0621  -20.9374  -14.6530 C   0  0  0  0  0  0  0  0  0  0  0  0
   25.7991  -21.0655  -14.4041 O   0  0  0  0  0  0  0  0  0  0  0  0
   29.5488  -15.5768  -20.2176 N   0  0  0  0  0  0  0  0  0  0  0  0
   27.9195  -21.0519  -13.5616 C   0  0  0  0  0  0  0  0  0  0  0  0
   29.1845  -21.8791  -13.6177 C   0  0  0  0  0  0  0  0  0  0  0  0
   30.1877  -20.8038  -13.1741 C   0  0  0  0  0  0  0  0  0  0  0  0
   29.3482  -19.7361  -12.4239 C   0  0  2  0  0  0  0  0  0  0  0  0
   28.0778  -20.4983  -12.2573 C   0  0  0  0  0  0  0  0  0  0  0  0
   26.9669  -19.9112  -11.5692 O   0  0  0  0  0  0  0  0  0  0  0  0
   26.6178  -18.7242  -11.7759 N   0  0  0  0  0  0  0  0  0  0  0  0
   26.1674  -20.6192  -10.5966 C   0  0  1  0  0  0  0  0  0  0  0  0
   25.0491  -19.9954   -9.9267 C   0  0  0  0  0  0  0  0  0  0  0  0
   23.9829  -19.7521  -11.0072 C   0  0  0  0  0  0  0  0  0  0  0  0
   23.3564  -21.0447  -11.4376 C   0  0  0  0  0  0  0  0  0  0  0  0
   22.3210  -20.7635  -12.4567 O   0  0  0  0  0  0  0  0  0  0  0  0
   21.6759  -21.7164  -12.9528 C   0  0  0  0  0  0  0  0  0  0  0  0
   24.4589  -20.8853   -8.9181 O   0  0  0  0  0  0  0  0  0  0  0  0
   24.7550  -22.0942   -8.7544 O   0  0  0  0  0  0  0  0  0  0  0  0
   22.0337  -19.4698  -12.8887 O   0  0  0  0  0  0  0  0  0  0  0  0
  2  1  1  0
  3  2  2  0
  4  2  1  0
  5  4  1  0
  6  5  1  0
  7  6  1  0
  8  9  1  6
  8  7  1  0
 10  8  1  0
 11 10  2  0
 12 16  1  0
 12 10  1  0
 13 12  1  0
 14 13  1  0
 14 15  1  0
 15 16  1  0
 17 19  1  0
 16 17  1  1
 18 17  2  0
 20 19  1  0
 20 25  1  0
 20 21  1  1
 22 21  1  0
 23 22  1  0
 24 23  2  0
 25 26  2  0
 25 28  1  0
 27 23  1  0
M  END
$$$$
