RPE.pdb
     RDKit          3D

 28 28  0  0  1  0  0  0  0  0999 V2000
   23.5667  -20.4959   -9.8663 N   0  0  0  0  0  0  0  0  0  0  0  0
   24.9384  -20.8526  -10.1094 C   0  0  0  0  0  0  0  0  0  0  0  0
   25.8020  -20.3684   -9.3113 N   0  0  0  0  0  0  0  0  0  0  0  0
   25.3138  -21.6919  -11.1765 N   0  0  0  0  0  0  0  0  0  0  0  0
   26.0820  -21.1765  -12.2702 C   0  0  0  0  0  0  0  0  0  0  0  0
   25.5198  -21.4735  -13.6362 C   0  0  0  0  0  0  0  0  0  0  0  0
   24.0977  -21.0690  -13.8170 C   0  0  0  0  0  0  0  0  0  0  0  0
   24.0026  -19.5679  -14.0771 C   0  0  2  0  0  0  0  0  0  0  0  0
   22.6151  -19.1612  -14.1774 N   0  0  0  0  0  0  0  0  0  0  0  0
   24.6969  -19.2106  -15.3221 C   0  0  0  0  0  0  0  0  0  0  0  0
   24.4151  -19.9779  -16.3248 O   0  0  0  0  0  0  0  0  0  0  0  0
   26.8321  -20.5523   -9.4236 N   0  0  0  0  0  0  0  0  0  0  0  0
   25.5973  -18.1779  -15.5709 C   0  0  0  0  0  0  0  0  0  0  0  0
   25.4104  -16.7929  -14.9926 C   0  0  0  0  0  0  0  0  0  0  0  0
   26.7773  -16.6377  -14.3093 C   0  0  0  0  0  0  0  0  0  0  0  0
   27.7148  -17.6490  -15.0207 C   0  0  2  0  0  0  0  0  0  0  0  0
   26.8633  -17.9843  -16.1975 C   0  0  0  0  0  0  0  0  0  0  0  0
   27.3356  -18.8968  -17.1957 O   0  0  0  0  0  0  0  0  0  0  0  0
   27.2138  -20.1382  -17.0627 N   0  0  0  0  0  0  0  0  0  0  0  0
   27.9807  -18.4770  -18.4180 C   0  0  1  0  0  0  0  0  0  0  0  0
   28.4506  -19.4277  -19.3997 C   0  0  0  0  0  0  0  0  0  0  0  0
   27.1996  -20.1371  -19.9431 C   0  0  0  0  0  0  0  0  0  0  0  0
   26.3078  -19.1686  -20.6608 C   0  0  0  0  0  0  0  0  0  0  0  0
   25.1726  -19.9078  -21.2562 O   0  0  0  0  0  0  0  0  0  0  0  0
   25.1357  -20.0766  -22.4974 C   0  0  0  0  0  0  0  0  0  0  0  0
   29.1033  -18.7570  -20.5319 O   0  0  0  0  0  0  0  0  0  0  0  0
   29.1745  -17.5146  -20.6966 O   0  0  0  0  0  0  0  0  0  0  0  0
   24.1355  -20.4276  -20.4835 O   0  0  0  0  0  0  0  0  0  0  0  0
  2  1  1  0
  3  2  2  0
  4  2  1  0
  5  4  1  0
  6  5  1  0
  7  6  1  0
  8  9  1  6
  8  7  1  0
 10  8  1  0
 11 10  2  0
 12 16  1  0
 12 10  1  0
 13 12  1  0
 14 13  1  0
 14 15  1  0
 15 16  1  0
 17 19  1  0
 16 17  1  1
 18 17  2  0
 20 19  1  0
 20 25  1  0
 20 21  1  6
 22 21  1  0
 23 22  1  0
 24 23  2  0
 25 26  2  0
 25 28  1  0
 27 23  1  0
M  END
$$$$
