RPE.pdb
     RDKit          3D

 28 28  0  0  1  0  0  0  0  0999 V2000
   20.9485  -25.9341  -13.2190 N   0  0  0  0  0  0  0  0  0  0  0  0
   22.3290  -26.2302  -13.4921 C   0  0  0  0  0  0  0  0  0  0  0  0
   22.6469  -27.4604  -13.5458 N   0  0  0  0  0  0  0  0  0  0  0  0
   23.2858  -25.2153  -13.6878 N   0  0  0  0  0  0  0  0  0  0  0  0
   22.8825  -23.8431  -13.7693 C   0  0  0  0  0  0  0  0  0  0  0  0
   23.9950  -22.8713  -14.0661 C   0  0  0  0  0  0  0  0  0  0  0  0
   25.1505  -22.9549  -13.1300 C   0  0  0  0  0  0  0  0  0  0  0  0
   25.2852  -21.6573  -12.3373 C   0  0  2  0  0  0  0  0  0  0  0  0
   24.2032  -21.5373  -11.3805 N   0  0  0  0  0  0  0  0  0  0  0  0
   25.2608  -20.4942  -13.2353 C   0  0  0  0  0  0  0  0  0  0  0  0
   24.0776  -20.0201  -13.4560 O   0  0  0  0  0  0  0  0  0  0  0  0
   23.6347  -27.7752  -13.7264 N   0  0  0  0  0  0  0  0  0  0  0  0
   26.3145  -19.8398  -13.8683 C   0  0  0  0  0  0  0  0  0  0  0  0
   27.4820  -19.2653  -13.0974 C   0  0  0  0  0  0  0  0  0  0  0  0
   28.6253  -19.9654  -13.8471 C   0  0  0  0  0  0  0  0  0  0  0  0
   28.0320  -20.3749  -15.2211 C   0  0  2  0  0  0  0  0  0  0  0  0
   26.7744  -19.5748  -15.1916 C   0  0  0  0  0  0  0  0  0  0  0  0
   25.8710  -19.6059  -16.3029 O   0  0  0  0  0  0  0  0  0  0  0  0
   25.5608  -20.6817  -16.8686 N   0  0  0  0  0  0  0  0  0  0  0  0
   25.2506  -18.4259  -16.8588 C   0  0  1  0  0  0  0  0  0  0  0  0
   24.3069  -18.5010  -17.9507 C   0  0  0  0  0  0  0  0  0  0  0  0
   23.0170  -17.8309  -17.4500 C   0  0  0  0  0  0  0  0  0  0  0  0
   22.3573  -18.6677  -16.3949 C   0  0  0  0  0  0  0  0  0  0  0  0
   21.0687  -18.0443  -16.0202 O   0  0  0  0  0  0  0  0  0  0  0  0
   21.0687  -16.9038  -15.5010 C   0  0  0  0  0  0  0  0  0  0  0  0
   24.7719  -17.7428  -19.1197 O   0  0  0  0  0  0  0  0  0  0  0  0
   25.7409  -16.9447  -19.1286 O   0  0  0  0  0  0  0  0  0  0  0  0
   19.8461  -18.6817  -16.2246 O   0  0  0  0  0  0  0  0  0  0  0  0
  2  1  1  0
  3  2  2  0
  4  2  1  0
  5  4  1  0
  6  5  1  0
  7  6  1  0
  8  9  1  1
  8  7  1  0
 10  8  1  0
 11 10  2  0
 12 16  1  0
 12 10  1  0
 13 12  1  0
 14 13  1  0
 14 15  1  0
 15 16  1  0
 17 19  1  0
 16 17  1  6
 18 17  2  0
 20 19  1  0
 20 25  1  0
 20 21  1  6
 22 21  1  0
 23 22  1  0
 24 23  2  0
 25 26  2  0
 25 28  1  0
 27 23  1  0
M  END
$$$$
