RPE.pdb
     RDKit          3D

 28 28  0  0  1  0  0  0  0  0999 V2000
   17.9938  -16.0304  -12.7961 N   0  0  0  0  0  0  0  0  0  0  0  0
   18.1342  -17.2817  -13.4909 C   0  0  0  0  0  0  0  0  0  0  0  0
   17.0583  -17.8919  -13.7866 N   0  0  0  0  0  0  0  0  0  0  0  0
   19.3952  -17.8116  -13.8270 N   0  0  0  0  0  0  0  0  0  0  0  0
   19.4952  -19.0289  -14.5756 C   0  0  0  0  0  0  0  0  0  0  0  0
   20.5042  -20.0164  -14.0495 C   0  0  0  0  0  0  0  0  0  0  0  0
   21.4658  -19.4472  -13.0645 C   0  0  0  0  0  0  0  0  0  0  0  0
   22.5214  -20.4855  -12.6937 C   0  0  2  0  0  0  0  0  0  0  0  0
   22.8325  -21.3182  -13.8385 N   0  0  0  0  0  0  0  0  0  0  0  0
   22.0476  -21.3398  -11.5957 C   0  0  0  0  0  0  0  0  0  0  0  0
   21.0640  -22.1168  -11.9155 O   0  0  0  0  0  0  0  0  0  0  0  0
   17.0554  -18.7729  -14.3621 N   0  0  0  0  0  0  0  0  0  0  0  0
   22.5031  -21.4313  -10.2829 C   0  0  0  0  0  0  0  0  0  0  0  0
   23.9768  -21.4365   -9.9429 C   0  0  0  0  0  0  0  0  0  0  0  0
   23.9892  -20.2765   -8.9360 C   0  0  0  0  0  0  0  0  0  0  0  0
   22.5260  -20.1437   -8.4368 C   0  0  2  0  0  0  0  0  0  0  0  0
   21.9732  -21.4259   -8.9593 C   0  0  0  0  0  0  0  0  0  0  0  0
   20.6062  -21.7774   -8.7143 O   0  0  0  0  0  0  0  0  0  0  0  0
   19.6670  -20.9879   -8.9752 N   0  0  0  0  0  0  0  0  0  0  0  0
   20.1971  -23.0454   -8.1565 C   0  0  1  0  0  0  0  0  0  0  0  0
   18.8097  -23.3525   -7.8931 C   0  0  0  0  0  0  0  0  0  0  0  0
   18.4359  -24.5001   -8.8455 C   0  0  0  0  0  0  0  0  0  0  0  0
   18.0773  -25.7357   -8.0753 C   0  0  0  0  0  0  0  0  0  0  0  0
   17.6206  -26.7783   -9.0208 O   0  0  0  0  0  0  0  0  0  0  0  0
   18.4323  -27.6507   -9.4085 C   0  0  0  0  0  0  0  0  0  0  0  0
   18.6152  -23.8382   -6.5206 O   0  0  0  0  0  0  0  0  0  0  0  0
   19.5289  -24.2224   -5.7502 O   0  0  0  0  0  0  0  0  0  0  0  0
   16.3126  -26.8274   -9.4999 O   0  0  0  0  0  0  0  0  0  0  0  0
  2  1  1  0
  3  2  2  0
  4  2  1  0
  5  4  1  0
  6  5  1  0
  7  6  1  0
  8  9  1  6
  8  7  1  0
 10  8  1  0
 11 10  2  0
 12 16  1  0
 12 10  1  0
 13 12  1  0
 14 13  1  0
 14 15  1  0
 15 16  1  0
 17 19  1  0
 16 17  1  1
 18 17  2  0
 20 19  1  0
 20 25  1  0
 20 21  1  1
 22 21  1  0
 23 22  1  0
 24 23  2  0
 25 26  2  0
 25 28  1  0
 27 23  1  0
M  END
$$$$
