NHW.pdb
     RDKit          3D

 33 35  0  0  1  0  0  0  0  0999 V2000
    6.8346  -13.5960   17.5040 N   0  0  0  0  0  0  0  0  0  0  0  0
    8.0509  -13.4852   18.2730 C   0  0  0  0  0  0  0  0  0  0  0  0
    9.0669  -13.0152   17.7429 O   0  0  0  0  0  0  0  0  0  0  0  0
    8.0185  -13.9414   19.6605 C   0  0  0  0  0  0  0  0  0  0  0  0
    9.3275  -14.4456   20.1449 C   0  0  2  0  0  0  0  0  0  0  0  0
   10.1590  -15.0468   19.1440 N   0  0  0  0  0  0  0  0  0  0  0  0
    9.2087  -15.3011   21.3757 C   0  0  0  0  0  0  0  0  0  0  0  0
    8.2917  -15.1371   22.1953 O   0  0  0  0  0  0  0  0  0  0  0  0
   10.1743  -16.3053   21.5804 N   0  0  0  0  0  0  0  0  0  0  0  0
   10.2239  -17.2652   22.6240 C   0  0  1  0  0  0  0  0  0  0  0  0
   11.0169  -18.5224   22.3425 C   0  0  0  0  0  0  0  0  0  0  0  0
   10.4723  -19.3116   21.2057 C   0  0  0  0  0  0  0  0  0  0  0  0
    9.6732  -20.4439   21.2143 C   0  0  0  0  0  0  0  0  0  0  0  0
    9.4955  -20.8115   19.9393 N   0  0  0  0  0  0  0  0  0  0  0  0
   10.1405  -19.9696   19.1316 C   0  0  0  0  0  0  0  0  0  0  0  0
   10.7327  -19.0601   19.9030 N   0  0  0  0  0  0  0  0  0  0  0  0
   10.4321  -16.7713   23.9796 C   0  0  0  0  0  0  0  0  0  0  0  0
   11.4421  -16.0634   24.3144 O   0  0  0  0  0  0  0  0  0  0  0  0
    9.5105  -17.0563   24.9988 N   0  0  0  0  0  0  0  0  0  0  0  0
    9.7416  -16.5369   26.3479 C   0  0  1  0  0  0  0  0  0  0  0  0
    8.3653  -16.3670   26.9347 C   0  0  0  0  0  0  0  0  0  0  0  0
    7.4792  -15.4143   26.2594 C   0  0  0  0  0  0  0  0  0  0  0  0
    6.5137  -15.7598   25.3255 C   0  0  0  0  0  0  0  0  0  0  0  0
    5.9418  -14.6385   24.9096 N   0  0  0  0  0  0  0  0  0  0  0  0
    6.4850  -13.5882   25.5244 C   0  0  0  0  0  0  0  0  0  0  0  0
    6.2346  -12.2214   25.4575 C   0  0  0  0  0  0  0  0  0  0  0  0
    6.9364  -11.3216   26.2299 C   0  0  0  0  0  0  0  0  0  0  0  0
    7.9192  -11.7650   27.1009 C   0  0  0  0  0  0  0  0  0  0  0  0
    8.1459  -13.1280   27.1448 C   0  0  0  0  0  0  0  0  0  0  0  0
    7.4474  -14.0375   26.3736 C   0  0  0  0  0  0  0  0  0  0  0  0
   10.5672  -17.4155   27.1660 C   0  0  0  0  0  0  0  0  0  0  0  0
   10.9000  -18.5433   26.7459 O   0  0  0  0  0  0  0  0  0  0  0  0
   11.0018  -17.0210   28.4119 O   0  0  0  0  0  0  0  0  0  0  0  0
  2  1  1  0
  3  2  2  0
  4  2  1  0
  5  4  1  0
  5  6  1  6
  7  5  1  0
  7  8  2  0
  9  7  1  0
 10  9  1  0
 10 11  1  6
 11 12  1  0
 12 16  1  0
 12 13  2  0
 13 14  1  0
 15 14  1  0
 16 15  2  0
 17 10  1  0
 18 17  2  0
 19 17  1  0
 20 21  1  1
 20 19  1  0
 21 22  1  0
 22 30  1  0
 23 24  1  0
 23 22  2  0
 24 25  1  0
 25 30  2  0
 25 26  1  0
 26 27  2  0
 27 28  1  0
 29 28  2  0
 30 29  1  0
 31 20  1  0
 31 33  1  0
 32 31  2  0
M  END
$$$$
