NHW.pdb
     RDKit          3D

 33 35  0  0  1  0  0  0  0  0999 V2000
    7.3374  -15.8818   16.0445 N   0  0  0  0  0  0  0  0  0  0  0  0
    7.8377  -14.9167   16.9938 C   0  0  0  0  0  0  0  0  0  0  0  0
    8.5039  -13.9534   16.5906 O   0  0  0  0  0  0  0  0  0  0  0  0
    7.5264  -15.1311   18.4049 C   0  0  0  0  0  0  0  0  0  0  0  0
    8.7214  -15.0899   19.2840 C   0  0  2  0  0  0  0  0  0  0  0  0
    9.9769  -15.2741   18.6175 N   0  0  0  0  0  0  0  0  0  0  0  0
    8.5877  -15.9657   20.4989 C   0  0  0  0  0  0  0  0  0  0  0  0
    7.5272  -16.0309   21.1397 O   0  0  0  0  0  0  0  0  0  0  0  0
    9.7076  -16.7198   20.8987 N   0  0  0  0  0  0  0  0  0  0  0  0
    9.8492  -17.5170   22.0637 C   0  0  1  0  0  0  0  0  0  0  0  0
   10.4336  -18.8982   21.8651 C   0  0  0  0  0  0  0  0  0  0  0  0
    9.6460  -19.7326   20.9191 C   0  0  0  0  0  0  0  0  0  0  0  0
    8.2999  -20.0620   20.9361 C   0  0  0  0  0  0  0  0  0  0  0  0
    8.0807  -20.8812   19.9001 N   0  0  0  0  0  0  0  0  0  0  0  0
    9.2178  -21.0828   19.2343 C   0  0  0  0  0  0  0  0  0  0  0  0
   10.1665  -20.3844   19.8549 N   0  0  0  0  0  0  0  0  0  0  0  0
   10.3623  -16.8661   23.2630 C   0  0  0  0  0  0  0  0  0  0  0  0
   11.2984  -15.9964   23.2358 O   0  0  0  0  0  0  0  0  0  0  0  0
    9.8372  -17.1714   24.5281 N   0  0  0  0  0  0  0  0  0  0  0  0
   10.3168  -16.4436   25.7043 C   0  0  1  0  0  0  0  0  0  0  0  0
    9.8701  -15.0225   25.4848 C   0  0  0  0  0  0  0  0  0  0  0  0
    8.4353  -14.7583   25.6279 C   0  0  0  0  0  0  0  0  0  0  0  0
    7.4439  -15.7260   25.5619 C   0  0  0  0  0  0  0  0  0  0  0  0
    6.2771  -15.1116   25.6964 N   0  0  0  0  0  0  0  0  0  0  0  0
    6.4611  -13.8001   25.8463 C   0  0  0  0  0  0  0  0  0  0  0  0
    5.5819  -12.7392   26.0382 C   0  0  0  0  0  0  0  0  0  0  0  0
    6.0347  -11.4467   26.1908 C   0  0  0  0  0  0  0  0  0  0  0  0
    7.3930  -11.1730   26.1558 C   0  0  0  0  0  0  0  0  0  0  0  0
    8.2417  -12.2470   25.9629 C   0  0  0  0  0  0  0  0  0  0  0  0
    7.7965  -13.5463   25.8085 C   0  0  0  0  0  0  0  0  0  0  0  0
    9.8018  -16.9786   26.9578 C   0  0  0  0  0  0  0  0  0  0  0  0
   10.1328  -16.4670   28.0477 O   0  0  0  0  0  0  0  0  0  0  0  0
    8.9379  -18.0512   26.9679 O   0  0  0  0  0  0  0  0  0  0  0  0
  2  1  1  0
  3  2  2  0
  4  2  1  0
  5  4  1  0
  5  6  1  6
  7  5  1  0
  7  8  2  0
  9  7  1  0
 10  9  1  0
 10 11  1  6
 11 12  1  0
 12 16  1  0
 12 13  2  0
 13 14  1  0
 15 14  1  0
 16 15  2  0
 17 10  1  0
 18 17  2  0
 19 17  1  0
 20 21  1  6
 20 19  1  0
 21 22  1  0
 22 30  1  0
 23 24  1  0
 23 22  2  0
 24 25  1  0
 25 30  2  0
 25 26  1  0
 26 27  2  0
 27 28  1  0
 29 28  2  0
 30 29  1  0
 31 20  1  0
 31 33  1  0
 32 31  2  0
M  END
$$$$
