NHW.pdb
     RDKit          3D

 33 35  0  0  1  0  0  0  0  0999 V2000
    6.8263  -13.4039   16.6711 N   0  0  0  0  0  0  0  0  0  0  0  0
    8.2266  -13.4459   17.0181 C   0  0  0  0  0  0  0  0  0  0  0  0
    9.0743  -13.5492   16.1209 O   0  0  0  0  0  0  0  0  0  0  0  0
    8.5758  -13.3630   18.4341 C   0  0  0  0  0  0  0  0  0  0  0  0
    9.4582  -14.4666   18.8882 C   0  0  2  0  0  0  0  0  0  0  0  0
    9.5411  -15.5877   17.9991 N   0  0  0  0  0  0  0  0  0  0  0  0
    9.1936  -14.8841   20.3082 C   0  0  0  0  0  0  0  0  0  0  0  0
    9.0450  -14.0495   21.2143 O   0  0  0  0  0  0  0  0  0  0  0  0
    9.1175  -16.2615   20.5907 N   0  0  0  0  0  0  0  0  0  0  0  0
    8.7712  -16.8800   21.8197 C   0  0  1  0  0  0  0  0  0  0  0  0
    8.2730  -18.3061   21.7365 C   0  0  0  0  0  0  0  0  0  0  0  0
    7.0343  -18.4433   20.9252 C   0  0  0  0  0  0  0  0  0  0  0  0
    6.2276  -17.4650   20.3658 C   0  0  0  0  0  0  0  0  0  0  0  0
    5.2014  -18.0895   19.7749 N   0  0  0  0  0  0  0  0  0  0  0  0
    5.3219  -19.4076   19.9338 C   0  0  0  0  0  0  0  0  0  0  0  0
    6.4354  -19.6196   20.6324 N   0  0  0  0  0  0  0  0  0  0  0  0
    9.6670  -16.6717   22.9507 C   0  0  0  0  0  0  0  0  0  0  0  0
   10.9357  -16.8001   22.8659 O   0  0  0  0  0  0  0  0  0  0  0  0
    9.1639  -16.3108   24.2101 N   0  0  0  0  0  0  0  0  0  0  0  0
   10.0787  -16.1941   25.3472 C   0  0  1  0  0  0  0  0  0  0  0  0
    9.7108  -14.8899   26.0034 C   0  0  0  0  0  0  0  0  0  0  0  0
    8.2848  -14.5511   26.0318 C   0  0  0  0  0  0  0  0  0  0  0  0
    7.2525  -15.4728   25.9400 C   0  0  0  0  0  0  0  0  0  0  0  0
    6.1118  -14.7979   25.9628 N   0  0  0  0  0  0  0  0  0  0  0  0
    6.3515  -13.4908   26.0648 C   0  0  0  0  0  0  0  0  0  0  0  0
    5.5162  -12.3812   26.1445 C   0  0  0  0  0  0  0  0  0  0  0  0
    6.0225  -11.1056   26.2692 C   0  0  0  0  0  0  0  0  0  0  0  0
    7.3921  -10.8987   26.3183 C   0  0  0  0  0  0  0  0  0  0  0  0
    8.1964  -12.0200   26.2361 C   0  0  0  0  0  0  0  0  0  0  0  0
    7.6975  -13.3027   26.1104 C   0  0  0  0  0  0  0  0  0  0  0  0
    9.9782  -17.3092   26.2795 C   0  0  0  0  0  0  0  0  0  0  0  0
    9.0687  -18.1561   26.1576 O   0  0  0  0  0  0  0  0  0  0  0  0
   10.8833  -17.4566   27.3071 O   0  0  0  0  0  0  0  0  0  0  0  0
  2  1  1  0
  3  2  2  0
  4  2  1  0
  5  4  1  0
  5  6  1  6
  7  5  1  0
  7  8  2  0
  9  7  1  0
 10  9  1  0
 10 11  1  6
 11 12  1  0
 12 16  1  0
 12 13  2  0
 13 14  1  0
 15 14  1  0
 16 15  2  0
 17 10  1  0
 18 17  2  0
 19 17  1  0
 20 21  1  1
 20 19  1  0
 21 22  1  0
 22 30  1  0
 23 24  1  0
 23 22  2  0
 24 25  1  0
 25 30  2  0
 25 26  1  0
 26 27  2  0
 27 28  1  0
 29 28  2  0
 30 29  1  0
 31 20  1  0
 31 33  1  0
 32 31  2  0
M  END
$$$$
