NHW.pdb
     RDKit          3D

 33 35  0  0  1  0  0  0  0  0999 V2000
    8.6691  -12.6226   17.6633 N   0  0  0  0  0  0  0  0  0  0  0  0
    7.7449  -13.7240   17.5369 C   0  0  0  0  0  0  0  0  0  0  0  0
    6.9603  -13.7548   16.5790 O   0  0  0  0  0  0  0  0  0  0  0  0
    7.7849  -14.7624   18.5637 C   0  0  0  0  0  0  0  0  0  0  0  0
    8.7515  -14.4761   19.6528 C   0  0  2  0  0  0  0  0  0  0  0  0
   10.0870  -14.1824   19.2230 N   0  0  0  0  0  0  0  0  0  0  0  0
    8.7195  -15.5019   20.7517 C   0  0  0  0  0  0  0  0  0  0  0  0
    7.6552  -15.8462   21.2887 O   0  0  0  0  0  0  0  0  0  0  0  0
    9.9402  -16.0703   21.1633 N   0  0  0  0  0  0  0  0  0  0  0  0
   10.1488  -17.0517   22.1665 C   0  0  1  0  0  0  0  0  0  0  0  0
   11.0731  -18.1939   21.8062 C   0  0  0  0  0  0  0  0  0  0  0  0
   10.5958  -18.9828   20.6394 C   0  0  0  0  0  0  0  0  0  0  0  0
    9.3801  -19.6159   20.4344 C   0  0  0  0  0  0  0  0  0  0  0  0
    9.4537  -20.2386   19.2516 N   0  0  0  0  0  0  0  0  0  0  0  0
   10.6509  -20.0294   18.7039 C   0  0  0  0  0  0  0  0  0  0  0  0
   11.3423  -19.2667   19.5484 N   0  0  0  0  0  0  0  0  0  0  0  0
   10.3550  -16.5820   23.5310 C   0  0  0  0  0  0  0  0  0  0  0  0
   11.3398  -15.8416   23.8703 O   0  0  0  0  0  0  0  0  0  0  0  0
    9.4596  -16.9287   24.5544 N   0  0  0  0  0  0  0  0  0  0  0  0
    9.7304  -16.4994   25.9276 C   0  0  1  0  0  0  0  0  0  0  0  0
    8.3746  -16.2022   26.5112 C   0  0  0  0  0  0  0  0  0  0  0  0
    7.5931  -15.1532   25.8494 C   0  0  0  0  0  0  0  0  0  0  0  0
    6.8634  -15.3294   24.6832 C   0  0  0  0  0  0  0  0  0  0  0  0
    6.3254  -14.1594   24.3686 N   0  0  0  0  0  0  0  0  0  0  0  0
    6.6675  -13.2377   25.2685 C   0  0  0  0  0  0  0  0  0  0  0  0
    6.3570  -11.8884   25.4028 C   0  0  0  0  0  0  0  0  0  0  0  0
    6.8302  -11.1418   26.4600 C   0  0  0  0  0  0  0  0  0  0  0  0
    7.6359  -11.7271   27.4241 C   0  0  0  0  0  0  0  0  0  0  0  0
    7.9278  -13.0687   27.2633 C   0  0  0  0  0  0  0  0  0  0  0  0
    7.4581  -13.8250   26.2062 C   0  0  0  0  0  0  0  0  0  0  0  0
   10.4419  -17.5010   26.7107 C   0  0  0  0  0  0  0  0  0  0  0  0
   10.6827  -18.6275   26.2286 O   0  0  0  0  0  0  0  0  0  0  0  0
   10.8682  -17.2268   27.9913 O   0  0  0  0  0  0  0  0  0  0  0  0
  2  1  1  0
  3  2  2  0
  4  2  1  0
  5  4  1  0
  5  6  1  6
  7  5  1  0
  7  8  2  0
  9  7  1  0
 10  9  1  0
 10 11  1  6
 11 12  1  0
 12 16  1  0
 12 13  2  0
 13 14  1  0
 15 14  1  0
 16 15  2  0
 17 10  1  0
 18 17  2  0
 19 17  1  0
 20 21  1  1
 20 19  1  0
 21 22  1  0
 22 30  1  0
 23 24  1  0
 23 22  2  0
 24 25  1  0
 25 30  2  0
 25 26  1  0
 26 27  2  0
 27 28  1  0
 29 28  2  0
 30 29  1  0
 31 20  1  0
 31 33  1  0
 32 31  2  0
M  END
$$$$
