NHW.pdb
     RDKit          3D

 33 35  0  0  1  0  0  0  0  0999 V2000
    5.6043  -18.9566   17.1723 N   0  0  0  0  0  0  0  0  0  0  0  0
    6.6303  -19.4563   18.0559 C   0  0  0  0  0  0  0  0  0  0  0  0
    6.5680  -20.6241   18.4639 O   0  0  0  0  0  0  0  0  0  0  0  0
    7.7068  -18.5418   18.4287 C   0  0  0  0  0  0  0  0  0  0  0  0
    7.8369  -18.3527   19.8949 C   0  0  2  0  0  0  0  0  0  0  0  0
    6.6423  -17.9301   20.5648 N   0  0  0  0  0  0  0  0  0  0  0  0
    9.0290  -17.5196   20.2765 C   0  0  0  0  0  0  0  0  0  0  0  0
   10.1802  -17.8409   19.9431 O   0  0  0  0  0  0  0  0  0  0  0  0
    8.8070  -16.3515   21.0308 N   0  0  0  0  0  0  0  0  0  0  0  0
    9.7698  -15.4166   21.4909 C   0  0  1  0  0  0  0  0  0  0  0  0
    9.5577  -13.9765   21.0787 C   0  0  0  0  0  0  0  0  0  0  0  0
    8.9565  -13.8413   19.7253 C   0  0  0  0  0  0  0  0  0  0  0  0
    7.6773  -13.4548   19.3575 C   0  0  0  0  0  0  0  0  0  0  0  0
    7.6062  -13.5432   18.0236 N   0  0  0  0  0  0  0  0  0  0  0  0
    8.7730  -13.9642   17.5353 C   0  0  0  0  0  0  0  0  0  0  0  0
    9.5909  -14.1444   18.5704 N   0  0  0  0  0  0  0  0  0  0  0  0
   10.2129  -15.5367   22.8745 C   0  0  0  0  0  0  0  0  0  0  0  0
   11.1202  -14.7929   23.3813 O   0  0  0  0  0  0  0  0  0  0  0  0
    9.6482  -16.4949   23.7303 N   0  0  0  0  0  0  0  0  0  0  0  0
   10.1244  -16.6009   25.1107 C   0  0  1  0  0  0  0  0  0  0  0  0
    9.7404  -15.2933   25.7507 C   0  0  0  0  0  0  0  0  0  0  0  0
    8.3063  -15.0512   25.9348 C   0  0  0  0  0  0  0  0  0  0  0  0
    7.3183  -16.0137   25.7896 C   0  0  0  0  0  0  0  0  0  0  0  0
    6.1506  -15.4209   25.9950 N   0  0  0  0  0  0  0  0  0  0  0  0
    6.3310  -14.1283   26.2655 C   0  0  0  0  0  0  0  0  0  0  0  0
    5.4498  -13.0948   26.5666 C   0  0  0  0  0  0  0  0  0  0  0  0
    5.8990  -11.8200   26.8348 C   0  0  0  0  0  0  0  0  0  0  0  0
    7.2556  -11.5370   26.8099 C   0  0  0  0  0  0  0  0  0  0  0  0
    8.1063  -12.5837   26.5069 C   0  0  0  0  0  0  0  0  0  0  0  0
    7.6647  -13.8650   26.2361 C   0  0  0  0  0  0  0  0  0  0  0  0
    9.5552  -17.7347   25.8271 C   0  0  0  0  0  0  0  0  0  0  0  0
    8.7207  -18.4797   25.2721 O   0  0  0  0  0  0  0  0  0  0  0  0
    9.9277  -18.0122   27.1236 O   0  0  0  0  0  0  0  0  0  0  0  0
  2  1  1  0
  3  2  2  0
  4  2  1  0
  5  4  1  0
  5  6  1  6
  7  5  1  0
  7  8  2  0
  9  7  1  0
 10  9  1  0
 10 11  1  1
 11 12  1  0
 12 16  1  0
 12 13  2  0
 13 14  1  0
 15 14  1  0
 16 15  2  0
 17 10  1  0
 18 17  2  0
 19 17  1  0
 20 21  1  1
 20 19  1  0
 21 22  1  0
 22 30  1  0
 23 24  1  0
 23 22  2  0
 24 25  1  0
 25 30  2  0
 25 26  1  0
 26 27  2  0
 27 28  1  0
 29 28  2  0
 30 29  1  0
 31 20  1  0
 31 33  1  0
 32 31  2  0
M  END
$$$$
