VKM.pdb
     RDKit          3D

 25 24  0  0  1  0  0  0  0  0999 V2000
   21.0195  -15.5247  -15.4596 C   0  0  0  0  0  0  0  0  0  0  0  0
   21.8782  -16.6919  -15.1380 C   0  0  1  0  0  0  0  0  0  0  0  0
   21.0499  -17.9418  -14.9152 C   0  0  0  0  0  0  0  0  0  0  0  0
   22.9501  -16.8886  -16.1556 C   0  0  2  0  0  0  0  0  0  0  0  0
   22.2796  -17.4542  -17.3455 N   0  0  0  0  0  0  0  0  0  0  0  0
   23.9255  -17.9106  -15.7104 C   0  0  0  0  0  0  0  0  0  0  0  0
   23.5487  -19.1237  -15.5104 O   0  0  0  0  0  0  0  0  0  0  0  0
   25.3080  -17.6697  -15.4731 N   0  0  0  0  0  0  0  0  0  0  0  0
   26.2032  -18.7547  -15.0455 C   0  0  1  0  0  0  0  0  0  0  0  0
   27.6187  -18.3878  -15.4865 C   0  0  0  0  0  0  0  0  0  0  0  0
   28.5789  -19.5071  -15.3022 C   0  0  0  0  0  0  0  0  0  0  0  0
   28.2688  -20.6101  -16.2730 C   0  0  0  0  0  0  0  0  0  0  0  0
   29.2491  -21.7283  -16.1924 C   0  0  0  0  0  0  0  0  0  0  0  0
   28.9308  -22.7985  -17.1333 N   0  0  0  0  0  0  0  0  0  0  0  0
   26.1233  -18.9745  -13.5882 C   0  0  0  0  0  0  0  0  0  0  0  0
   26.5743  -18.0912  -12.8221 O   0  0  0  0  0  0  0  0  0  0  0  0
   27.3572  -18.9725   -7.4394 C   0  0  0  0  0  0  0  0  0  0  0  0
   25.9556  -20.0603   -7.8161 S   0  0  0  0  0  0  0  0  0  0  0  0
   26.2439  -20.9427   -9.3752 C   0  0  0  0  0  0  0  0  0  0  0  0
   25.7680  -20.1075  -10.5426 C   0  0  0  0  0  0  0  0  0  0  0  0
   26.0734  -20.8086  -11.8418 C   0  0  2  0  0  0  0  0  0  0  0  0
   25.5676  -20.1242  -12.9899 N   0  0  0  0  0  0  0  0  0  0  0  0
   25.6434  -22.2241  -11.7774 C   0  0  0  0  0  0  0  0  0  0  0  0
   24.7850  -22.6172  -12.6022 O   0  0  0  0  0  0  0  0  0  0  0  0
   26.1290  -23.1399  -10.8647 O   0  0  0  0  0  0  0  0  0  0  0  0
  2  1  1  6
  2  3  1  0
  4  6  1  0
  4  2  1  0
  4  5  1  6
  6  8  1  0
  7  6  2  0
  8  9  1  0
  9 10  1  1
 11 10  1  0
 11 12  1  0
 12 13  1  0
 13 14  1  0
 15  9  1  0
 16 15  2  0
 17 18  1  0
 18 19  1  0
 19 20  1  0
 21 20  1  1
 21 22  1  0
 22 15  1  0
 23 21  1  0
 23 25  1  0
 24 23  2  0
M  END
$$$$
