VKM.pdb
     RDKit          3D

 25 24  0  0  1  0  0  0  0  0999 V2000
   23.4110  -13.8027  -14.3764 C   0  0  0  0  0  0  0  0  0  0  0  0
   23.8450  -13.2857  -15.6983 C   0  0  1  0  0  0  0  0  0  0  0  0
   23.8003  -11.7710  -15.7405 C   0  0  0  0  0  0  0  0  0  0  0  0
   25.1740  -13.8312  -16.0977 C   0  0  2  0  0  0  0  0  0  0  0  0
   25.3663  -13.4354  -17.5090 N   0  0  0  0  0  0  0  0  0  0  0  0
   25.1671  -15.3123  -16.0847 C   0  0  0  0  0  0  0  0  0  0  0  0
   24.4141  -15.9649  -16.8977 O   0  0  0  0  0  0  0  0  0  0  0  0
   25.9530  -16.1241  -15.2193 N   0  0  0  0  0  0  0  0  0  0  0  0
   25.8313  -17.5891  -15.2374 C   0  0  1  0  0  0  0  0  0  0  0  0
   27.0384  -18.1630  -14.4983 C   0  0  0  0  0  0  0  0  0  0  0  0
   26.9654  -19.6402  -14.3530 C   0  0  0  0  0  0  0  0  0  0  0  0
   27.4201  -20.3007  -15.6228 C   0  0  0  0  0  0  0  0  0  0  0  0
   27.2940  -21.7835  -15.5670 C   0  0  0  0  0  0  0  0  0  0  0  0
   27.8585  -22.4216  -16.7528 N   0  0  0  0  0  0  0  0  0  0  0  0
   24.5588  -18.0301  -14.6334 C   0  0  0  0  0  0  0  0  0  0  0  0
   24.1780  -17.4855  -13.5709 O   0  0  0  0  0  0  0  0  0  0  0  0
   19.1665  -16.9724  -11.8501 C   0  0  0  0  0  0  0  0  0  0  0  0
   19.0778  -17.3578  -13.6203 S   0  0  0  0  0  0  0  0  0  0  0  0
   20.1559  -18.7631  -14.0142 C   0  0  0  0  0  0  0  0  0  0  0  0
   21.4891  -18.2690  -14.5293 C   0  0  0  0  0  0  0  0  0  0  0  0
   22.4446  -19.4240  -14.6899 C   0  0  2  0  0  0  0  0  0  0  0  0
   23.7310  -19.0346  -15.1757 N   0  0  0  0  0  0  0  0  0  0  0  0
   21.8234  -20.4986  -15.4973 C   0  0  0  0  0  0  0  0  0  0  0  0
   22.3154  -20.7492  -16.6228 O   0  0  0  0  0  0  0  0  0  0  0  0
   20.7345  -21.2432  -15.0881 O   0  0  0  0  0  0  0  0  0  0  0  0
  2  1  1  1
  2  3  1  0
  4  6  1  0
  4  2  1  0
  4  5  1  6
  6  8  1  0
  7  6  2  0
  8  9  1  0
  9 10  1  1
 11 10  1  0
 11 12  1  0
 12 13  1  0
 13 14  1  0
 15  9  1  0
 16 15  2  0
 17 18  1  0
 18 19  1  0
 19 20  1  0
 21 20  1  6
 21 22  1  0
 22 15  1  0
 23 21  1  0
 23 25  1  0
 24 23  2  0
M  END
$$$$
