VKM.pdb
     RDKit          3D

 25 24  0  0  1  0  0  0  0  0999 V2000
   25.7583  -13.8803  -16.2670 C   0  0  0  0  0  0  0  0  0  0  0  0
   24.7642  -12.7833  -16.3733 C   0  0  1  0  0  0  0  0  0  0  0  0
   25.2244  -11.7132  -17.3433 C   0  0  0  0  0  0  0  0  0  0  0  0
   23.4020  -13.2987  -16.6926 C   0  0  2  0  0  0  0  0  0  0  0  0
   23.4990  -13.8880  -18.0449 N   0  0  0  0  0  0  0  0  0  0  0  0
   22.4247  -12.1905  -16.7977 C   0  0  0  0  0  0  0  0  0  0  0  0
   22.2673  -11.5675  -17.9116 O   0  0  0  0  0  0  0  0  0  0  0  0
   21.6004  -11.7264  -15.7343 N   0  0  0  0  0  0  0  0  0  0  0  0
   20.6335  -10.6392  -15.9447 C   0  0  1  0  0  0  0  0  0  0  0  0
   19.3011  -11.0817  -15.3433 C   0  0  0  0  0  0  0  0  0  0  0  0
   18.2272  -10.0731  -15.5384 C   0  0  0  0  0  0  0  0  0  0  0  0
   16.9167  -10.6232  -15.0533 C   0  0  0  0  0  0  0  0  0  0  0  0
   15.7847   -9.6859  -15.2938 C   0  0  0  0  0  0  0  0  0  0  0  0
   14.4992  -10.2876  -14.9513 N   0  0  0  0  0  0  0  0  0  0  0  0
   21.1093   -9.3745  -15.3510 C   0  0  0  0  0  0  0  0  0  0  0  0
   21.5518   -9.3907  -14.1786 O   0  0  0  0  0  0  0  0  0  0  0  0
   22.6122   -1.5991  -16.2955 C   0  0  0  0  0  0  0  0  0  0  0  0
   22.0838   -3.1497  -17.0741 S   0  0  0  0  0  0  0  0  0  0  0  0
   21.9892   -4.4751  -15.8385 C   0  0  0  0  0  0  0  0  0  0  0  0
   21.5220   -5.7593  -16.4862 C   0  0  0  0  0  0  0  0  0  0  0  0
   21.4997   -6.8746  -15.4722 C   0  0  2  0  0  0  0  0  0  0  0  0
   21.1005   -8.1330  -16.0196 N   0  0  0  0  0  0  0  0  0  0  0  0
   20.7014   -6.4801  -14.2892 C   0  0  0  0  0  0  0  0  0  0  0  0
   19.4538   -6.5808  -14.3600 O   0  0  0  0  0  0  0  0  0  0  0  0
   21.2453   -6.0073  -13.1109 O   0  0  0  0  0  0  0  0  0  0  0  0
  2  1  1  6
  2  3  1  0
  4  6  1  0
  4  2  1  0
  4  5  1  6
  6  8  1  0
  7  6  2  0
  8  9  1  0
  9 10  1  1
 11 10  1  0
 11 12  1  0
 12 13  1  0
 13 14  1  0
 15  9  1  0
 16 15  2  0
 17 18  1  0
 18 19  1  0
 19 20  1  0
 21 20  1  6
 21 22  1  0
 22 15  1  0
 23 21  1  0
 23 25  1  0
 24 23  2  0
M  END
$$$$
