VKM.pdb
     RDKit          3D

 25 24  0  0  1  0  0  0  0  0999 V2000
   26.7838  -13.8994  -17.8387 C   0  0  0  0  0  0  0  0  0  0  0  0
   25.6657  -12.9457  -18.0467 C   0  0  1  0  0  0  0  0  0  0  0  0
   24.4025  -13.6622  -18.4814 C   0  0  0  0  0  0  0  0  0  0  0  0
   25.4499  -12.0760  -16.8549 C   0  0  2  0  0  0  0  0  0  0  0  0
   25.1079  -12.9895  -15.7440 N   0  0  0  0  0  0  0  0  0  0  0  0
   24.2709  -11.1992  -17.0422 C   0  0  0  0  0  0  0  0  0  0  0  0
   24.3323  -10.1900  -17.8369 O   0  0  0  0  0  0  0  0  0  0  0  0
   23.0136  -11.3746  -16.3987 N   0  0  0  0  0  0  0  0  0  0  0  0
   21.9230  -10.4076  -16.5909 C   0  0  1  0  0  0  0  0  0  0  0  0
   20.6097  -11.1238  -16.2825 C   0  0  0  0  0  0  0  0  0  0  0  0
   19.4246  -10.2523  -16.4939 C   0  0  0  0  0  0  0  0  0  0  0  0
   18.1668  -11.0289  -16.2292 C   0  0  0  0  0  0  0  0  0  0  0  0
   16.9397  -10.2310  -16.5035 C   0  0  0  0  0  0  0  0  0  0  0  0
   15.7359  -11.0566  -16.4689 N   0  0  0  0  0  0  0  0  0  0  0  0
   22.1079   -9.2135  -15.7434 C   0  0  0  0  0  0  0  0  0  0  0  0
   22.4963   -9.3700  -14.5622 O   0  0  0  0  0  0  0  0  0  0  0  0
   24.6788   -3.3863  -17.3344 C   0  0  0  0  0  0  0  0  0  0  0  0
   23.2928   -2.9033  -16.2687 S   0  0  0  0  0  0  0  0  0  0  0  0
   22.7176   -4.3254  -15.2997 C   0  0  0  0  0  0  0  0  0  0  0  0
   22.4774   -5.5114  -16.2067 C   0  0  0  0  0  0  0  0  0  0  0  0
   22.0406   -6.7053  -15.3964 C   0  0  2  0  0  0  0  0  0  0  0  0
   21.8749   -7.8917  -16.1757 N   0  0  0  0  0  0  0  0  0  0  0  0
   20.8440   -6.3717  -14.5906 C   0  0  0  0  0  0  0  0  0  0  0  0
   21.0145   -6.0261  -13.3977 O   0  0  0  0  0  0  0  0  0  0  0  0
   19.5499   -6.4176  -15.0710 O   0  0  0  0  0  0  0  0  0  0  0  0
  2  1  1  1
  2  3  1  0
  4  6  1  0
  4  2  1  0
  4  5  1  1
  6  8  1  0
  7  6  2  0
  8  9  1  0
  9 10  1  1
 11 10  1  0
 11 12  1  0
 12 13  1  0
 13 14  1  0
 15  9  1  0
 16 15  2  0
 17 18  1  0
 18 19  1  0
 19 20  1  0
 21 20  1  6
 21 22  1  0
 22 15  1  0
 23 21  1  0
 23 25  1  0
 24 23  2  0
M  END
$$$$
