VKM.pdb
     RDKit          3D

 25 24  0  0  1  0  0  0  0  0999 V2000
   28.1724  -32.2178  -22.3804 C   0  0  0  0  0  0  0  0  0  0  0  0
   28.7496  -30.9156  -21.9630 C   0  0  1  0  0  0  0  0  0  0  0  0
   28.7365  -29.9155  -23.1020 C   0  0  0  0  0  0  0  0  0  0  0  0
   28.0959  -30.3892  -20.7305 C   0  0  2  0  0  0  0  0  0  0  0  0
   28.8839  -29.2046  -20.3291 N   0  0  0  0  0  0  0  0  0  0  0  0
   28.2102  -31.3552  -19.6134 C   0  0  0  0  0  0  0  0  0  0  0  0
   27.5796  -32.4751  -19.6569 O   0  0  0  0  0  0  0  0  0  0  0  0
   28.9901  -31.1562  -18.4397 N   0  0  0  0  0  0  0  0  0  0  0  0
   28.9895  -32.1465  -17.3531 C   0  0  1  0  0  0  0  0  0  0  0  0
   30.2915  -31.9782  -16.5726 C   0  0  0  0  0  0  0  0  0  0  0  0
   31.4597  -32.5577  -17.2856 C   0  0  0  0  0  0  0  0  0  0  0  0
   32.7085  -32.3382  -16.4808 C   0  0  0  0  0  0  0  0  0  0  0  0
   33.9095  -32.9412  -17.1224 C   0  0  0  0  0  0  0  0  0  0  0  0
   35.0944  -32.8215  -16.2776 N   0  0  0  0  0  0  0  0  0  0  0  0
   27.8063  -31.9906  -16.4846 C   0  0  0  0  0  0  0  0  0  0  0  0
   27.2868  -30.8554  -16.3758 O   0  0  0  0  0  0  0  0  0  0  0  0
   20.8839  -31.2119  -14.4874 C   0  0  0  0  0  0  0  0  0  0  0  0
   22.2698  -31.4777  -15.6269 S   0  0  0  0  0  0  0  0  0  0  0  0
   23.6832  -32.1949  -14.7437 C   0  0  0  0  0  0  0  0  0  0  0  0
   24.8955  -32.2366  -15.6467 C   0  0  0  0  0  0  0  0  0  0  0  0
   26.0280  -32.9599  -14.9633 C   0  0  2  0  0  0  0  0  0  0  0  0
   27.2119  -33.0438  -15.7593 N   0  0  0  0  0  0  0  0  0  0  0  0
   25.5723  -34.2779  -14.4655 C   0  0  0  0  0  0  0  0  0  0  0  0
   26.1374  -35.3039  -14.9121 O   0  0  0  0  0  0  0  0  0  0  0  0
   24.5623  -34.4483  -13.5389 O   0  0  0  0  0  0  0  0  0  0  0  0
  2  1  1  6
  2  3  1  0
  4  6  1  0
  4  2  1  0
  4  5  1  1
  6  8  1  0
  7  6  2  0
  8  9  1  0
  9 10  1  1
 11 10  1  0
 11 12  1  0
 12 13  1  0
 13 14  1  0
 15  9  1  0
 16 15  2  0
 17 18  1  0
 18 19  1  0
 19 20  1  0
 21 20  1  6
 21 22  1  0
 22 15  1  0
 23 21  1  0
 23 25  1  0
 24 23  2  0
M  END
$$$$
