VKM.pdb
     RDKit          3D

 25 24  0  0  1  0  0  0  0  0999 V2000
   26.6334  -28.8330  -16.8232 C   0  0  0  0  0  0  0  0  0  0  0  0
   27.5742  -27.6929  -16.9586 C   0  0  1  0  0  0  0  0  0  0  0  0
   28.6159  -27.9607  -18.0268 C   0  0  0  0  0  0  0  0  0  0  0  0
   26.8557  -26.4035  -17.1692 C   0  0  2  0  0  0  0  0  0  0  0  0
   27.8806  -25.3449  -17.0493 N   0  0  0  0  0  0  0  0  0  0  0  0
   25.8801  -26.1542  -16.0829 C   0  0  0  0  0  0  0  0  0  0  0  0
   26.2815  -25.7473  -14.9309 O   0  0  0  0  0  0  0  0  0  0  0  0
   24.4719  -26.3271  -16.1959 N   0  0  0  0  0  0  0  0  0  0  0  0
   23.5764  -25.9980  -15.0773 C   0  0  1  0  0  0  0  0  0  0  0  0
   22.7496  -24.7815  -15.4888 C   0  0  0  0  0  0  0  0  0  0  0  0
   21.7428  -24.4058  -14.4623 C   0  0  0  0  0  0  0  0  0  0  0  0
   20.9996  -23.1773  -14.9025 C   0  0  0  0  0  0  0  0  0  0  0  0
   20.0044  -22.7243  -13.8916 C   0  0  0  0  0  0  0  0  0  0  0  0
   19.3265  -21.4997  -14.3076 N   0  0  0  0  0  0  0  0  0  0  0  0
   22.7207  -27.1458  -14.7184 C   0  0  0  0  0  0  0  0  0  0  0  0
   22.1389  -27.7709  -15.6356 O   0  0  0  0  0  0  0  0  0  0  0  0
   22.7429  -29.9676   -8.8577 C   0  0  0  0  0  0  0  0  0  0  0  0
   21.2779  -30.8029   -9.5253 S   0  0  0  0  0  0  0  0  0  0  0  0
   20.9483  -30.2401  -11.2184 C   0  0  0  0  0  0  0  0  0  0  0  0
   21.7893  -29.0242  -11.5366 C   0  0  0  0  0  0  0  0  0  0  0  0
   21.6582  -28.6690  -12.9959 C   0  0  2  0  0  0  0  0  0  0  0  0
   22.5093  -27.5938  -13.3982 N   0  0  0  0  0  0  0  0  0  0  0  0
   20.2373  -28.4428  -13.3458 C   0  0  0  0  0  0  0  0  0  0  0  0
   19.6695  -29.2865  -14.0788 O   0  0  0  0  0  0  0  0  0  0  0  0
   19.4971  -27.3592  -12.9151 O   0  0  0  0  0  0  0  0  0  0  0  0
  2  1  1  6
  2  3  1  0
  4  6  1  0
  4  2  1  0
  4  5  1  1
  6  8  1  0
  7  6  2  0
  8  9  1  0
  9 10  1  6
 11 10  1  0
 11 12  1  0
 12 13  1  0
 13 14  1  0
 15  9  1  0
 16 15  2  0
 17 18  1  0
 18 19  1  0
 19 20  1  0
 21 20  1  1
 21 22  1  0
 22 15  1  0
 23 21  1  0
 23 25  1  0
 24 23  2  0
M  END
$$$$
