VKM.pdb
     RDKit          3D

 25 24  0  0  1  0  0  0  0  0999 V2000
   29.0018  -20.2884  -13.9430 C   0  0  0  0  0  0  0  0  0  0  0  0
   28.7747  -19.0186  -14.6773 C   0  0  1  0  0  0  0  0  0  0  0  0
   29.8419  -18.7909  -15.7296 C   0  0  0  0  0  0  0  0  0  0  0  0
   27.3941  -18.9401  -15.2349 C   0  0  2  0  0  0  0  0  0  0  0  0
   27.2672  -17.5850  -15.8120 N   0  0  0  0  0  0  0  0  0  0  0  0
   26.3798  -19.0238  -14.1586 C   0  0  0  0  0  0  0  0  0  0  0  0
   26.2540  -18.0661  -13.3096 O   0  0  0  0  0  0  0  0  0  0  0  0
   25.4849  -20.1133  -13.9642 N   0  0  0  0  0  0  0  0  0  0  0  0
   24.5494  -20.1317  -12.8302 C   0  0  1  0  0  0  0  0  0  0  0  0
   23.2415  -20.7507  -13.3192 C   0  0  0  0  0  0  0  0  0  0  0  0
   22.2055  -20.8033  -12.2550 C   0  0  0  0  0  0  0  0  0  0  0  0
   20.9738  -21.4868  -12.7757 C   0  0  0  0  0  0  0  0  0  0  0  0
   19.8610  -21.4805  -11.7861 C   0  0  0  0  0  0  0  0  0  0  0  0
   18.7199  -22.2663  -12.2470 N   0  0  0  0  0  0  0  0  0  0  0  0
   25.1102  -20.8715  -11.6828 C   0  0  0  0  0  0  0  0  0  0  0  0
   26.2122  -21.4515  -11.8231 O   0  0  0  0  0  0  0  0  0  0  0  0
   27.6105  -18.0234   -7.1776 C   0  0  0  0  0  0  0  0  0  0  0  0
   28.1947  -19.7332   -7.0192 S   0  0  0  0  0  0  0  0  0  0  0  0
   26.8951  -20.8929   -7.5275 C   0  0  0  0  0  0  0  0  0  0  0  0
   26.2915  -20.4554   -8.8432 C   0  0  0  0  0  0  0  0  0  0  0  0
   25.1147  -21.3309   -9.1918 C   0  0  2  0  0  0  0  0  0  0  0  0
   24.4843  -20.9726  -10.4233 N   0  0  0  0  0  0  0  0  0  0  0  0
   24.1671  -21.3974   -8.0559 C   0  0  0  0  0  0  0  0  0  0  0  0
   24.5908  -21.8346   -6.9600 O   0  0  0  0  0  0  0  0  0  0  0  0
   22.8440  -21.0076   -8.1277 O   0  0  0  0  0  0  0  0  0  0  0  0
  2  1  1  6
  2  3  1  0
  4  6  1  0
  4  2  1  0
  4  5  1  1
  6  8  1  0
  7  6  2  0
  8  9  1  0
  9 10  1  6
 11 10  1  0
 11 12  1  0
 12 13  1  0
 13 14  1  0
 15  9  1  0
 16 15  2  0
 17 18  1  0
 18 19  1  0
 19 20  1  0
 21 20  1  1
 21 22  1  0
 22 15  1  0
 23 21  1  0
 23 25  1  0
 24 23  2  0
M  END
$$$$
