VKM.pdb
     RDKit          3D

 25 24  0  0  1  0  0  0  0  0999 V2000
   27.4282  -10.5408  -15.4286 C   0  0  0  0  0  0  0  0  0  0  0  0
   27.2874  -11.7292  -16.3068 C   0  0  1  0  0  0  0  0  0  0  0  0
   28.4566  -12.6797  -16.1412 C   0  0  0  0  0  0  0  0  0  0  0  0
   25.9703  -12.4029  -16.1208 C   0  0  2  0  0  0  0  0  0  0  0  0
   25.9357  -13.5032  -17.1075 N   0  0  0  0  0  0  0  0  0  0  0  0
   24.8540  -11.4970  -16.4779 C   0  0  0  0  0  0  0  0  0  0  0  0
   24.7370  -11.0536  -17.6793 O   0  0  0  0  0  0  0  0  0  0  0  0
   23.8470  -11.0493  -15.5773 N   0  0  0  0  0  0  0  0  0  0  0  0
   22.7668  -10.1607  -16.0300 C   0  0  1  0  0  0  0  0  0  0  0  0
   21.4415  -10.8748  -15.7726 C   0  0  0  0  0  0  0  0  0  0  0  0
   20.2692  -10.0670  -16.1988 C   0  0  0  0  0  0  0  0  0  0  0  0
   18.9997  -10.8051  -15.8840 C   0  0  0  0  0  0  0  0  0  0  0  0
   17.7898  -10.0829  -16.3662 C   0  0  0  0  0  0  0  0  0  0  0  0
   16.5751  -10.8703  -16.1750 N   0  0  0  0  0  0  0  0  0  0  0  0
   22.8257   -8.8528  -15.3487 C   0  0  0  0  0  0  0  0  0  0  0  0
   23.0582   -8.8271  -14.1175 O   0  0  0  0  0  0  0  0  0  0  0  0
   23.6526   -2.6782  -18.1736 C   0  0  0  0  0  0  0  0  0  0  0  0
   22.4628   -2.4940  -16.8170 S   0  0  0  0  0  0  0  0  0  0  0  0
   22.6350   -3.8621  -15.6377 C   0  0  0  0  0  0  0  0  0  0  0  0
   22.5833   -5.1869  -16.3650 C   0  0  0  0  0  0  0  0  0  0  0  0
   22.6743   -6.3245  -15.3798 C   0  0  2  0  0  0  0  0  0  0  0  0
   22.6360   -7.6139  -15.9949 N   0  0  0  0  0  0  0  0  0  0  0  0
   21.6616   -6.1638  -14.3116 C   0  0  0  0  0  0  0  0  0  0  0  0
   20.5156   -6.6311  -14.5111 O   0  0  0  0  0  0  0  0  0  0  0  0
   21.9003   -5.5306  -13.1076 O   0  0  0  0  0  0  0  0  0  0  0  0
  2  1  1  1
  2  3  1  0
  4  6  1  0
  4  2  1  0
  4  5  1  6
  6  8  1  0
  7  6  2  0
  8  9  1  0
  9 10  1  1
 11 10  1  0
 11 12  1  0
 12 13  1  0
 13 14  1  0
 15  9  1  0
 16 15  2  0
 17 18  1  0
 18 19  1  0
 19 20  1  0
 21 20  1  6
 21 22  1  0
 22 15  1  0
 23 21  1  0
 23 25  1  0
 24 23  2  0
M  END
$$$$
