VKM.pdb
     RDKit          3D

 25 24  0  0  1  0  0  0  0  0999 V2000
   20.2873  -14.4988  -15.6631 C   0  0  0  0  0  0  0  0  0  0  0  0
   19.6487  -14.9862  -16.9112 C   0  0  1  0  0  0  0  0  0  0  0  0
   19.6472  -16.5007  -16.9755 C   0  0  0  0  0  0  0  0  0  0  0  0
   18.2899  -14.4031  -17.1030 C   0  0  2  0  0  0  0  0  0  0  0  0
   17.8680  -14.7990  -18.4634 N   0  0  0  0  0  0  0  0  0  0  0  0
   18.3413  -12.9228  -17.1043 C   0  0  0  0  0  0  0  0  0  0  0  0
   18.9707  -12.2962  -18.0344 O   0  0  0  0  0  0  0  0  0  0  0  0
   17.7298  -12.0846  -16.1301 N   0  0  0  0  0  0  0  0  0  0  0  0
   17.9518  -10.6313  -16.1348 C   0  0  1  0  0  0  0  0  0  0  0  0
   16.7094   -9.9713  -15.5401 C   0  0  0  0  0  0  0  0  0  0  0  0
   16.8539   -8.4975  -15.4158 C   0  0  0  0  0  0  0  0  0  0  0  0
   15.6677   -7.9280  -14.6920 C   0  0  0  0  0  0  0  0  0  0  0  0
   15.7720   -6.4544  -14.5044 C   0  0  0  0  0  0  0  0  0  0  0  0
   14.7367   -5.9462  -13.6089 N   0  0  0  0  0  0  0  0  0  0  0  0
   19.1734  -10.2717  -15.3886 C   0  0  0  0  0  0  0  0  0  0  0  0
   19.5054  -10.9749  -14.4059 O   0  0  0  0  0  0  0  0  0  0  0  0
   26.3048  -10.7423  -14.0770 C   0  0  0  0  0  0  0  0  0  0  0  0
   24.8281  -10.9764  -15.1037 S   0  0  0  0  0  0  0  0  0  0  0  0
   23.6262   -9.6538  -14.7900 C   0  0  0  0  0  0  0  0  0  0  0  0
   22.3235   -9.9548  -15.4966 C   0  0  0  0  0  0  0  0  0  0  0  0
   21.2944   -8.9063  -15.1583 C   0  0  2  0  0  0  0  0  0  0  0  0
   20.0037   -9.1779  -15.7085 N   0  0  0  0  0  0  0  0  0  0  0  0
   21.7984   -7.5580  -15.5057 C   0  0  0  0  0  0  0  0  0  0  0  0
   21.3922   -7.0333  -16.5692 O   0  0  0  0  0  0  0  0  0  0  0  0
   22.6891   -6.8412  -14.7309 O   0  0  0  0  0  0  0  0  0  0  0  0
  2  1  1  1
  2  3  1  0
  4  6  1  0
  4  2  1  0
  4  5  1  6
  6  8  1  0
  7  6  2  0
  8  9  1  0
  9 10  1  1
 11 10  1  0
 11 12  1  0
 12 13  1  0
 13 14  1  0
 15  9  1  0
 16 15  2  0
 17 18  1  0
 18 19  1  0
 19 20  1  0
 21 20  1  6
 21 22  1  0
 22 15  1  0
 23 21  1  0
 23 25  1  0
 24 23  2  0
M  END
$$$$
