EDD.pdb
     RDKit          3D

 26 25  0  0  1  0  0  0  0  0999 V2000
   21.6919  -30.5174    0.4675 N   0  0  0  0  0  0  0  0  0  0  0  0
   22.0629  -31.6946    1.2457 C   0  0  1  0  0  0  0  0  0  0  0  0
   20.9057  -32.6172    1.4567 C   0  0  0  0  0  0  0  0  0  0  0  0
   19.5683  -32.0615    1.1140 C   0  0  0  0  0  0  0  0  0  0  0  0
   18.4266  -32.9373    1.3338 C   0  0  0  0  0  0  0  0  0  0  0  0
   18.0955  -33.8018    0.4933 O   0  0  0  0  0  0  0  0  0  0  0  0
   23.1950  -32.4037    0.5480 C   0  0  0  0  0  0  0  0  0  0  0  0
   23.6669  -33.4563    1.0481 O   0  0  0  0  0  0  0  0  0  0  0  0
   17.6781  -32.8266    2.4929 O   0  0  0  0  0  0  0  0  0  0  0  0
   23.7342  -31.8969   -0.6661 N   0  0  0  0  0  0  0  0  0  0  0  0
   24.7311  -32.6500   -1.3462 C   0  0  1  0  0  0  0  0  0  0  0  0
   25.0303  -32.1657   -2.7334 C   0  0  0  0  0  0  0  0  0  0  0  0
   25.9537  -33.0133   -3.4793 C   0  0  0  0  0  0  0  0  0  0  0  0
   25.5154  -33.7806   -4.3672 O   0  0  0  0  0  0  0  0  0  0  0  0
   26.0240  -32.6128   -0.5742 C   0  0  0  0  0  0  0  0  0  0  0  0
   26.3742  -31.5657    0.0100 O   0  0  0  0  0  0  0  0  0  0  0  0
   27.3151  -33.0000   -3.2381 O   0  0  0  0  0  0  0  0  0  0  0  0
   26.8281  -33.7667   -0.5196 N   0  0  0  0  0  0  0  0  0  0  0  0
   27.9946  -33.8762    0.3599 C   0  0  1  0  0  0  0  0  0  0  0  0
   27.5346  -33.5804    1.7526 C   0  0  0  0  0  0  0  0  0  0  0  0
   28.5823  -33.5881    2.7773 C   0  0  0  0  0  0  0  0  0  0  0  0
   29.8132  -33.6828    2.5992 O   0  0  0  0  0  0  0  0  0  0  0  0
   28.5446  -35.2363    0.1696 C   0  0  0  0  0  0  0  0  0  0  0  0
   27.7548  -36.3674    0.0243 O   0  0  0  0  0  0  0  0  0  0  0  0
   28.1650  -33.4776    4.1031 O   0  0  0  0  0  0  0  0  0  0  0  0
   29.8050  -35.4567    0.1268 O   0  0  0  0  0  0  0  0  0  0  0  0
  2  1  1  6
  2  7  1  0
  3  4  1  0
  3  2  1  0
  4  5  1  0
  5  6  2  0
  7 10  1  0
  7  8  2  0
  9  5  1  0
 10 11  1  0
 11 12  1  6
 12 13  1  0
 13 17  1  0
 14 13  2  0
 15 11  1  0
 15 16  2  0
 18 15  1  0
 19 18  1  0
 19 20  1  1
 21 20  1  0
 22 21  2  0
 23 19  1  0
 24 23  1  0
 25 21  1  0
 26 23  2  0
M  END
$$$$
