EDD.pdb
     RDKit          3D

 26 25  0  0  1  0  0  0  0  0999 V2000
   19.1088  -14.6176  -16.7741 N   0  0  0  0  0  0  0  0  0  0  0  0
   18.5651  -13.3420  -17.2284 C   0  0  1  0  0  0  0  0  0  0  0  0
   17.4120  -12.8916  -16.3903 C   0  0  0  0  0  0  0  0  0  0  0  0
   17.3807  -13.4212  -14.9999 C   0  0  0  0  0  0  0  0  0  0  0  0
   16.1773  -13.1466  -14.2285 C   0  0  0  0  0  0  0  0  0  0  0  0
   16.1663  -12.2886  -13.3190 O   0  0  0  0  0  0  0  0  0  0  0  0
   19.6663  -12.3132  -17.2246 C   0  0  0  0  0  0  0  0  0  0  0  0
   20.6200  -12.4313  -16.4138 O   0  0  0  0  0  0  0  0  0  0  0  0
   15.0086  -13.8400  -14.4923 O   0  0  0  0  0  0  0  0  0  0  0  0
   19.6389  -11.2132  -18.1251 N   0  0  0  0  0  0  0  0  0  0  0  0
   20.7133  -10.2810  -18.1092 C   0  0  1  0  0  0  0  0  0  0  0  0
   21.0823   -9.7425  -19.4591 C   0  0  0  0  0  0  0  0  0  0  0  0
   22.2281   -8.8400  -19.4529 C   0  0  0  0  0  0  0  0  0  0  0  0
   23.3894   -9.3081  -19.4867 O   0  0  0  0  0  0  0  0  0  0  0  0
   20.3618   -9.1013  -17.2411 C   0  0  0  0  0  0  0  0  0  0  0  0
   19.1702   -8.7470  -17.1192 O   0  0  0  0  0  0  0  0  0  0  0  0
   22.0760   -7.4663  -19.4106 O   0  0  0  0  0  0  0  0  0  0  0  0
   21.3874   -8.4069  -16.5727 N   0  0  0  0  0  0  0  0  0  0  0  0
   21.1199   -7.3258  -15.6209 C   0  0  1  0  0  0  0  0  0  0  0  0
   22.2914   -7.2454  -14.6938 C   0  0  0  0  0  0  0  0  0  0  0  0
   22.2526   -6.1483  -13.7229 C   0  0  0  0  0  0  0  0  0  0  0  0
   22.5121   -6.2078  -12.5043 O   0  0  0  0  0  0  0  0  0  0  0  0
   20.8832   -6.1039  -16.4207 C   0  0  0  0  0  0  0  0  0  0  0  0
   21.6257   -5.7689  -17.5434 O   0  0  0  0  0  0  0  0  0  0  0  0
   21.8852   -4.8936  -14.2073 O   0  0  0  0  0  0  0  0  0  0  0  0
   19.9630   -5.2662  -16.1201 O   0  0  0  0  0  0  0  0  0  0  0  0
  2  1  1  1
  2  7  1  0
  3  4  1  0
  3  2  1  0
  4  5  1  0
  5  6  2  0
  7 10  1  0
  7  8  2  0
  9  5  1  0
 10 11  1  0
 11 12  1  6
 12 13  1  0
 13 17  1  0
 14 13  2  0
 15 11  1  0
 15 16  2  0
 18 15  1  0
 19 18  1  0
 19 20  1  1
 21 20  1  0
 22 21  2  0
 23 19  1  0
 24 23  1  0
 25 21  1  0
 26 23  2  0
M  END
$$$$
