EDD.pdb
     RDKit          3D

 26 25  0  0  1  0  0  0  0  0999 V2000
   17.3812  -13.7018  -15.8512 N   0  0  0  0  0  0  0  0  0  0  0  0
   17.4899  -12.3639  -16.4234 C   0  0  1  0  0  0  0  0  0  0  0  0
   16.4158  -11.4506  -15.9263 C   0  0  0  0  0  0  0  0  0  0  0  0
   15.0208  -11.8753  -16.2235 C   0  0  0  0  0  0  0  0  0  0  0  0
   13.9679  -10.9331  -15.8737 C   0  0  0  0  0  0  0  0  0  0  0  0
   13.2357  -11.1130  -14.8763 O   0  0  0  0  0  0  0  0  0  0  0  0
   18.8552  -11.8085  -16.1098 C   0  0  0  0  0  0  0  0  0  0  0  0
   19.3402  -11.9718  -14.9613 O   0  0  0  0  0  0  0  0  0  0  0  0
   13.7565   -9.8066  -16.6498 O   0  0  0  0  0  0  0  0  0  0  0  0
   19.5992  -11.1036  -17.0953 N   0  0  0  0  0  0  0  0  0  0  0  0
   20.8433  -10.5170  -16.7326 C   0  0  1  0  0  0  0  0  0  0  0  0
   21.9122  -10.6436  -17.7766 C   0  0  0  0  0  0  0  0  0  0  0  0
   22.3605  -12.0110  -18.0145 C   0  0  0  0  0  0  0  0  0  0  0  0
   22.7731  -12.7061  -17.0575 O   0  0  0  0  0  0  0  0  0  0  0  0
   20.6618   -9.0471  -16.4585 C   0  0  0  0  0  0  0  0  0  0  0  0
   19.7557   -8.4099  -17.0359 O   0  0  0  0  0  0  0  0  0  0  0  0
   22.3462  -12.5757  -19.2765 O   0  0  0  0  0  0  0  0  0  0  0  0
   21.5215   -8.4039  -15.5484 N   0  0  0  0  0  0  0  0  0  0  0  0
   21.4198   -6.9754  -15.2395 C   0  0  1  0  0  0  0  0  0  0  0  0
   21.8616   -6.7914  -13.8220 C   0  0  0  0  0  0  0  0  0  0  0  0
   21.8568   -5.4092  -13.3348 C   0  0  0  0  0  0  0  0  0  0  0  0
   22.7577   -4.5571  -13.4694 O   0  0  0  0  0  0  0  0  0  0  0  0
   22.2469   -6.2643  -16.2389 C   0  0  0  0  0  0  0  0  0  0  0  0
   21.9879   -4.9696  -16.6643 O   0  0  0  0  0  0  0  0  0  0  0  0
   20.7213   -4.9915  -12.6418 O   0  0  0  0  0  0  0  0  0  0  0  0
   23.2698   -6.8097  -16.7822 O   0  0  0  0  0  0  0  0  0  0  0  0
  2  1  1  1
  2  7  1  0
  3  4  1  0
  3  2  1  0
  4  5  1  0
  5  6  2  0
  7 10  1  0
  7  8  2  0
  9  5  1  0
 10 11  1  0
 11 12  1  6
 12 13  1  0
 13 17  1  0
 14 13  2  0
 15 11  1  0
 15 16  2  0
 18 15  1  0
 19 18  1  0
 19 20  1  1
 21 20  1  0
 22 21  2  0
 23 19  1  0
 24 23  1  0
 25 21  1  0
 26 23  2  0
M  END
$$$$
