EDD.pdb
     RDKit          3D

 26 25  0  0  1  0  0  0  0  0999 V2000
   16.1840  -11.5894  -16.9218 N   0  0  0  0  0  0  0  0  0  0  0  0
   15.9606  -11.3805  -15.4950 C   0  0  1  0  0  0  0  0  0  0  0  0
   15.9027  -12.6694  -14.7400 C   0  0  0  0  0  0  0  0  0  0  0  0
   16.4298  -13.8611  -15.4590 C   0  0  0  0  0  0  0  0  0  0  0  0
   16.5747  -15.0793  -14.6755 C   0  0  0  0  0  0  0  0  0  0  0  0
   17.5606  -15.8347  -14.8194 O   0  0  0  0  0  0  0  0  0  0  0  0
   17.0505  -10.4904  -14.9557 C   0  0  0  0  0  0  0  0  0  0  0  0
   17.0418  -10.1695  -13.7400 O   0  0  0  0  0  0  0  0  0  0  0  0
   15.6105  -15.4267  -13.7451 O   0  0  0  0  0  0  0  0  0  0  0  0
   18.0858  -10.0105  -15.8039 N   0  0  0  0  0  0  0  0  0  0  0  0
   19.0445   -9.1014  -15.2767 C   0  0  1  0  0  0  0  0  0  0  0  0
   20.4697   -9.5161  -15.4897 C   0  0  0  0  0  0  0  0  0  0  0  0
   21.4516   -8.6260  -14.8807 C   0  0  0  0  0  0  0  0  0  0  0  0
   21.1918   -8.0648  -13.7914 O   0  0  0  0  0  0  0  0  0  0  0  0
   18.8765   -7.7462  -15.9123 C   0  0  0  0  0  0  0  0  0  0  0  0
   18.8210   -7.6406  -17.1557 O   0  0  0  0  0  0  0  0  0  0  0  0
   22.6766   -8.3759  -15.4712 O   0  0  0  0  0  0  0  0  0  0  0  0
   18.7832   -6.6064  -15.0918 N   0  0  0  0  0  0  0  0  0  0  0  0
   18.6088   -5.2558  -15.6319 C   0  0  1  0  0  0  0  0  0  0  0  0
   17.4817   -4.6166  -14.8839 C   0  0  0  0  0  0  0  0  0  0  0  0
   16.4519   -3.9858  -15.7142 C   0  0  0  0  0  0  0  0  0  0  0  0
   16.4418   -3.8820  -16.9571 O   0  0  0  0  0  0  0  0  0  0  0  0
   19.9109   -4.5686  -15.4876 C   0  0  0  0  0  0  0  0  0  0  0  0
   20.1627   -3.2960  -15.9788 O   0  0  0  0  0  0  0  0  0  0  0  0
   15.3567   -3.4374  -15.0479 O   0  0  0  0  0  0  0  0  0  0  0  0
   20.9024   -5.1158  -14.8907 O   0  0  0  0  0  0  0  0  0  0  0  0
  2  1  1  6
  2  7  1  0
  3  4  1  0
  3  2  1  0
  4  5  1  0
  5  6  2  0
  7 10  1  0
  7  8  2  0
  9  5  1  0
 10 11  1  0
 11 12  1  6
 12 13  1  0
 13 17  1  0
 14 13  2  0
 15 11  1  0
 15 16  2  0
 18 15  1  0
 19 18  1  0
 19 20  1  1
 21 20  1  0
 22 21  2  0
 23 19  1  0
 24 23  1  0
 25 21  1  0
 26 23  2  0
M  END
$$$$
