EDD.pdb
     RDKit          3D

 26 25  0  0  1  0  0  0  0  0999 V2000
   16.9941  -11.6704  -16.5284 N   0  0  0  0  0  0  0  0  0  0  0  0
   17.7968  -11.2069  -15.4015 C   0  0  1  0  0  0  0  0  0  0  0  0
   19.2540  -11.4749  -15.6007 C   0  0  0  0  0  0  0  0  0  0  0  0
   19.5910  -12.4119  -16.7069 C   0  0  0  0  0  0  0  0  0  0  0  0
   19.7732  -13.8087  -16.3404 C   0  0  0  0  0  0  0  0  0  0  0  0
   19.0972  -14.7166  -16.8714 O   0  0  0  0  0  0  0  0  0  0  0  0
   17.5445   -9.7355  -15.1952 C   0  0  0  0  0  0  0  0  0  0  0  0
   17.8322   -8.9244  -16.1119 O   0  0  0  0  0  0  0  0  0  0  0  0
   20.7108  -14.1605  -15.3847 O   0  0  0  0  0  0  0  0  0  0  0  0
   16.9864   -9.2554  -13.9788 N   0  0  0  0  0  0  0  0  0  0  0  0
   16.8134   -7.8543  -13.8042 C   0  0  1  0  0  0  0  0  0  0  0  0
   15.7435   -7.4829  -12.8215 C   0  0  0  0  0  0  0  0  0  0  0  0
   14.4066   -7.9353  -13.1897 C   0  0  0  0  0  0  0  0  0  0  0  0
   13.9576   -7.6854  -14.3322 O   0  0  0  0  0  0  0  0  0  0  0  0
   18.0966   -7.2309  -13.3207 C   0  0  0  0  0  0  0  0  0  0  0  0
   18.5423   -7.5143  -12.1887 O   0  0  0  0  0  0  0  0  0  0  0  0
   13.6055   -8.6402  -12.3103 O   0  0  0  0  0  0  0  0  0  0  0  0
   18.7832   -6.3299  -14.1559 N   0  0  0  0  0  0  0  0  0  0  0  0
   20.0307   -5.6745  -13.7552 C   0  0  1  0  0  0  0  0  0  0  0  0
   21.1597   -6.4760  -14.3222 C   0  0  0  0  0  0  0  0  0  0  0  0
   22.4996   -5.9299  -14.0892 C   0  0  0  0  0  0  0  0  0  0  0  0
   22.7984   -4.9192  -13.4222 O   0  0  0  0  0  0  0  0  0  0  0  0
   19.9567   -4.2816  -14.2481 C   0  0  0  0  0  0  0  0  0  0  0  0
   18.9694   -3.8265  -15.1097 O   0  0  0  0  0  0  0  0  0  0  0  0
   23.5659   -6.6105  -14.6755 O   0  0  0  0  0  0  0  0  0  0  0  0
   20.8144   -3.3956  -13.9040 O   0  0  0  0  0  0  0  0  0  0  0  0
  2  1  1  6
  2  7  1  0
  3  4  1  0
  3  2  1  0
  4  5  1  0
  5  6  2  0
  7 10  1  0
  7  8  2  0
  9  5  1  0
 10 11  1  0
 11 12  1  1
 12 13  1  0
 13 17  1  0
 14 13  2  0
 15 11  1  0
 15 16  2  0
 18 15  1  0
 19 18  1  0
 19 20  1  6
 21 20  1  0
 22 21  2  0
 23 19  1  0
 24 23  1  0
 25 21  1  0
 26 23  2  0
M  END
$$$$
