EDD.pdb
     RDKit          3D

 26 25  0  0  1  0  0  0  0  0999 V2000
   18.0163  -10.0476  -18.2419 N   0  0  0  0  0  0  0  0  0  0  0  0
   17.0163   -9.6067  -17.2750 C   0  0  1  0  0  0  0  0  0  0  0  0
   16.6072  -10.7058  -16.3479 C   0  0  0  0  0  0  0  0  0  0  0  0
   17.7208  -11.4873  -15.7446 C   0  0  0  0  0  0  0  0  0  0  0  0
   17.3413  -12.6033  -14.8907 C   0  0  0  0  0  0  0  0  0  0  0  0
   17.4439  -12.5376  -13.6463 O   0  0  0  0  0  0  0  0  0  0  0  0
   17.5651   -8.4321  -16.5067 C   0  0  0  0  0  0  0  0  0  0  0  0
   16.8566   -7.8857  -15.6233 O   0  0  0  0  0  0  0  0  0  0  0  0
   16.8536  -13.7721  -15.4493 O   0  0  0  0  0  0  0  0  0  0  0  0
   18.8715   -7.9360  -16.7690 N   0  0  0  0  0  0  0  0  0  0  0  0
   19.3875   -6.8873  -15.9582 C   0  0  1  0  0  0  0  0  0  0  0  0
   20.8472   -7.0152  -15.6400 C   0  0  0  0  0  0  0  0  0  0  0  0
   21.1602   -8.0513  -14.6623 C   0  0  0  0  0  0  0  0  0  0  0  0
   20.3127   -8.3651  -13.7950 O   0  0  0  0  0  0  0  0  0  0  0  0
   19.1971   -5.5606  -16.6455 C   0  0  0  0  0  0  0  0  0  0  0  0
   19.2621   -5.4858  -17.8907 O   0  0  0  0  0  0  0  0  0  0  0  0
   22.3765   -8.7090  -14.6584 O   0  0  0  0  0  0  0  0  0  0  0  0
   18.9466   -4.4123  -15.8711 N   0  0  0  0  0  0  0  0  0  0  0  0
   18.6458   -3.1078  -16.4662 C   0  0  1  0  0  0  0  0  0  0  0  0
   17.4156   -3.2700  -17.3022 C   0  0  0  0  0  0  0  0  0  0  0  0
   16.8189   -2.0250  -17.7936 C   0  0  0  0  0  0  0  0  0  0  0  0
   17.3841   -1.1185  -18.4376 O   0  0  0  0  0  0  0  0  0  0  0  0
   18.5069   -2.1512  -15.3463 C   0  0  0  0  0  0  0  0  0  0  0  0
   18.6144   -0.7765  -15.4968 O   0  0  0  0  0  0  0  0  0  0  0  0
   15.4679   -1.8229  -17.5144 O   0  0  0  0  0  0  0  0  0  0  0  0
   18.2753   -2.5403  -14.1489 O   0  0  0  0  0  0  0  0  0  0  0  0
  2  1  1  6
  2  7  1  0
  3  4  1  0
  3  2  1  0
  4  5  1  0
  5  6  2  0
  7 10  1  0
  7  8  2  0
  9  5  1  0
 10 11  1  0
 11 12  1  6
 12 13  1  0
 13 17  1  0
 14 13  2  0
 15 11  1  0
 15 16  2  0
 18 15  1  0
 19 18  1  0
 19 20  1  1
 21 20  1  0
 22 21  2  0
 23 19  1  0
 24 23  1  0
 25 21  1  0
 26 23  2  0
M  END
$$$$
