EDD.pdb
     RDKit          3D

 26 25  0  0  1  0  0  0  0  0999 V2000
   18.1992  -12.5110  -14.9102 N   0  0  0  0  0  0  0  0  0  0  0  0
   19.0654  -11.9617  -15.9481 C   0  0  1  0  0  0  0  0  0  0  0  0
   18.9704  -12.7319  -17.2259 C   0  0  0  0  0  0  0  0  0  0  0  0
   19.4212  -14.1487  -17.1588 C   0  0  0  0  0  0  0  0  0  0  0  0
   19.2298  -14.9474  -18.3606 C   0  0  0  0  0  0  0  0  0  0  0  0
   18.8486  -16.1367  -18.3003 O   0  0  0  0  0  0  0  0  0  0  0  0
   18.7085  -10.5139  -16.1657 C   0  0  0  0  0  0  0  0  0  0  0  0
   19.3084   -9.8559  -17.0534 O   0  0  0  0  0  0  0  0  0  0  0  0
   19.4698  -14.3963  -19.6075 O   0  0  0  0  0  0  0  0  0  0  0  0
   17.7036   -9.8851  -15.3804 N   0  0  0  0  0  0  0  0  0  0  0  0
   17.3819   -8.5227  -15.6329 C   0  0  1  0  0  0  0  0  0  0  0  0
   15.9509   -8.1665  -15.3610 C   0  0  0  0  0  0  0  0  0  0  0  0
   14.9812   -8.9882  -16.0763 C   0  0  0  0  0  0  0  0  0  0  0  0
   15.0858   -9.1377  -17.3156 O   0  0  0  0  0  0  0  0  0  0  0  0
   18.2342   -7.6227  -14.7770 C   0  0  0  0  0  0  0  0  0  0  0  0
   18.6041   -8.0015  -13.6457 O   0  0  0  0  0  0  0  0  0  0  0  0
   13.9355   -9.6172  -15.4262 O   0  0  0  0  0  0  0  0  0  0  0  0
   18.6063   -6.3563  -15.2655 N   0  0  0  0  0  0  0  0  0  0  0  0
   19.5182   -5.4668  -14.5419 C   0  0  1  0  0  0  0  0  0  0  0  0
   20.8468   -6.1508  -14.4689 C   0  0  0  0  0  0  0  0  0  0  0  0
   21.9117   -5.3904  -13.8090 C   0  0  0  0  0  0  0  0  0  0  0  0
   21.8186   -4.2677  -13.2736 O   0  0  0  0  0  0  0  0  0  0  0  0
   19.5277   -4.1809  -15.2734 C   0  0  0  0  0  0  0  0  0  0  0  0
   19.7551   -2.9558  -14.6638 O   0  0  0  0  0  0  0  0  0  0  0  0
   23.1742   -5.9809  -13.7710 O   0  0  0  0  0  0  0  0  0  0  0  0
   19.3226   -4.1188  -16.5355 O   0  0  0  0  0  0  0  0  0  0  0  0
  2  1  1  1
  2  7  1  0
  3  4  1  0
  3  2  1  0
  4  5  1  0
  5  6  2  0
  7 10  1  0
  7  8  2  0
  9  5  1  0
 10 11  1  0
 11 12  1  1
 12 13  1  0
 13 17  1  0
 14 13  2  0
 15 11  1  0
 15 16  2  0
 18 15  1  0
 19 18  1  0
 19 20  1  6
 21 20  1  0
 22 21  2  0
 23 19  1  0
 24 23  1  0
 25 21  1  0
 26 23  2  0
M  END
$$$$
