EDD.pdb
     RDKit          3D

 26 25  0  0  1  0  0  0  0  0999 V2000
   29.7650  -13.7182  -20.8414 N   0  0  0  0  0  0  0  0  0  0  0  0
   28.4779  -13.1520  -20.4515 C   0  0  1  0  0  0  0  0  0  0  0  0
   27.6416  -14.1285  -19.6888 C   0  0  0  0  0  0  0  0  0  0  0  0
   28.0564  -15.5537  -19.7965 C   0  0  0  0  0  0  0  0  0  0  0  0
   27.1968  -16.5302  -19.1435 C   0  0  0  0  0  0  0  0  0  0  0  0
   26.1692  -16.1829  -18.5216 O   0  0  0  0  0  0  0  0  0  0  0  0
   28.7191  -11.9039  -19.6421 C   0  0  0  0  0  0  0  0  0  0  0  0
   27.7377  -11.2294  -19.2385 O   0  0  0  0  0  0  0  0  0  0  0  0
   27.5066  -17.8781  -19.2008 O   0  0  0  0  0  0  0  0  0  0  0  0
   30.0405  -11.4814  -19.3307 N   0  0  0  0  0  0  0  0  0  0  0  0
   30.2239  -10.3023  -18.5563 C   0  0  1  0  0  0  0  0  0  0  0  0
   31.5107  -10.2635  -17.7875 C   0  0  0  0  0  0  0  0  0  0  0  0
   31.5993   -9.1763  -16.8193 C   0  0  0  0  0  0  0  0  0  0  0  0
   32.7222   -8.7607  -16.4510 O   0  0  0  0  0  0  0  0  0  0  0  0
   30.2027   -9.0889  -19.4485 C   0  0  0  0  0  0  0  0  0  0  0  0
   31.0003   -9.0021  -20.4060 O   0  0  0  0  0  0  0  0  0  0  0  0
   30.4721   -8.5792  -16.2857 O   0  0  0  0  0  0  0  0  0  0  0  0
   29.2778   -8.0597  -19.1912 N   0  0  0  0  0  0  0  0  0  0  0  0
   29.1901   -6.8516  -20.0153 C   0  0  1  0  0  0  0  0  0  0  0  0
   27.9458   -6.9610  -20.8390 C   0  0  0  0  0  0  0  0  0  0  0  0
   27.6728   -5.8238  -21.7222 C   0  0  0  0  0  0  0  0  0  0  0  0
   28.3865   -4.8165  -21.9002 O   0  0  0  0  0  0  0  0  0  0  0  0
   29.2137   -5.7004  -19.0864 C   0  0  0  0  0  0  0  0  0  0  0  0
   30.1514   -4.6806  -19.1560 O   0  0  0  0  0  0  0  0  0  0  0  0
   26.4835   -5.8643  -22.4488 O   0  0  0  0  0  0  0  0  0  0  0  0
   28.3557   -5.5728  -18.1450 O   0  0  0  0  0  0  0  0  0  0  0  0
  2  1  1  1
  2  7  1  0
  3  4  1  0
  3  2  1  0
  4  5  1  0
  5  6  2  0
  7 10  1  0
  7  8  2  0
  9  5  1  0
 10 11  1  0
 11 12  1  6
 12 13  1  0
 13 17  1  0
 14 13  2  0
 15 11  1  0
 15 16  2  0
 18 15  1  0
 19 18  1  0
 19 20  1  1
 21 20  1  0
 22 21  2  0
 23 19  1  0
 24 23  1  0
 25 21  1  0
 26 23  2  0
M  END
$$$$
