EDD.pdb
     RDKit          3D

 26 25  0  0  1  0  0  0  0  0999 V2000
   19.8356   -8.7295  -17.5794 N   0  0  0  0  0  0  0  0  0  0  0  0
   18.5362   -8.2524  -17.1179 C   0  0  1  0  0  0  0  0  0  0  0  0
   17.8046   -9.2891  -16.3274 C   0  0  0  0  0  0  0  0  0  0  0  0
   18.6523  -10.1639  -15.4724 C   0  0  0  0  0  0  0  0  0  0  0  0
   17.9598  -11.1927  -14.7102 C   0  0  0  0  0  0  0  0  0  0  0  0
   18.5802  -11.9814  -13.9643 O   0  0  0  0  0  0  0  0  0  0  0  0
   18.7371   -6.9995  -16.3048 C   0  0  0  0  0  0  0  0  0  0  0  0
   17.7417   -6.4322  -15.7870 O   0  0  0  0  0  0  0  0  0  0  0  0
   16.5841  -11.3170  -14.7994 O   0  0  0  0  0  0  0  0  0  0  0  0
   20.0363   -6.4532  -16.1172 N   0  0  0  0  0  0  0  0  0  0  0  0
   20.1844   -5.2803  -15.3259 C   0  0  1  0  0  0  0  0  0  0  0  0
   21.5206   -5.1522  -14.6576 C   0  0  0  0  0  0  0  0  0  0  0  0
   21.6354   -5.8820  -13.4000 C   0  0  0  0  0  0  0  0  0  0  0  0
   22.7375   -5.9297  -12.8064 O   0  0  0  0  0  0  0  0  0  0  0  0
   19.9949   -4.0535  -16.1790 C   0  0  0  0  0  0  0  0  0  0  0  0
   20.4448   -4.0256  -17.3440 O   0  0  0  0  0  0  0  0  0  0  0  0
   20.5559   -6.5326  -12.8313 O   0  0  0  0  0  0  0  0  0  0  0  0
   19.3081   -2.9448  -15.6498 N   0  0  0  0  0  0  0  0  0  0  0  0
   18.9622   -1.7710  -16.4554 C   0  0  1  0  0  0  0  0  0  0  0  0
   17.8954   -1.0223  -15.7206 C   0  0  0  0  0  0  0  0  0  0  0  0
   17.4235    0.2031  -16.3713 C   0  0  0  0  0  0  0  0  0  0  0  0
   17.0023    0.3249  -17.5391 O   0  0  0  0  0  0  0  0  0  0  0  0
   20.2155   -1.0124  -16.6617 C   0  0  0  0  0  0  0  0  0  0  0  0
   20.5043   -0.3142  -17.8249 O   0  0  0  0  0  0  0  0  0  0  0  0
   17.4443    1.3686  -15.6062 O   0  0  0  0  0  0  0  0  0  0  0  0
   21.1261   -0.9531  -15.7639 O   0  0  0  0  0  0  0  0  0  0  0  0
  2  1  1  1
  2  7  1  0
  3  4  1  0
  3  2  1  0
  4  5  1  0
  5  6  2  0
  7 10  1  0
  7  8  2  0
  9  5  1  0
 10 11  1  0
 11 12  1  6
 12 13  1  0
 13 17  1  0
 14 13  2  0
 15 11  1  0
 15 16  2  0
 18 15  1  0
 19 18  1  0
 19 20  1  1
 21 20  1  0
 22 21  2  0
 23 19  1  0
 24 23  1  0
 25 21  1  0
 26 23  2  0
M  END
$$$$
