EDD.pdb
     RDKit          3D

 26 25  0  0  1  0  0  0  0  0999 V2000
   21.2178   -7.4157  -19.6274 N   0  0  0  0  0  0  0  0  0  0  0  0
   20.5926   -8.6838  -19.2667 C   0  0  1  0  0  0  0  0  0  0  0  0
   21.5725   -9.8128  -19.2613 C   0  0  0  0  0  0  0  0  0  0  0  0
   22.7821   -9.6116  -18.4180 C   0  0  0  0  0  0  0  0  0  0  0  0
   23.7934  -10.6569  -18.4752 C   0  0  0  0  0  0  0  0  0  0  0  0
   24.6856  -10.6550  -19.3512 O   0  0  0  0  0  0  0  0  0  0  0  0
   19.9344   -8.5373  -17.9189 C   0  0  0  0  0  0  0  0  0  0  0  0
   19.2361   -9.4797  -17.4662 O   0  0  0  0  0  0  0  0  0  0  0  0
   23.7844  -11.6848  -17.5482 O   0  0  0  0  0  0  0  0  0  0  0  0
   20.0936   -7.3483  -17.1556 N   0  0  0  0  0  0  0  0  0  0  0  0
   19.4083   -7.2274  -15.9150 C   0  0  1  0  0  0  0  0  0  0  0  0
   19.9588   -6.1684  -15.0072 C   0  0  0  0  0  0  0  0  0  0  0  0
   21.1490   -6.5716  -14.2667 C   0  0  0  0  0  0  0  0  0  0  0  0
   21.7830   -5.7233  -13.5978 O   0  0  0  0  0  0  0  0  0  0  0  0
   17.9584   -6.8970  -16.1550 C   0  0  0  0  0  0  0  0  0  0  0  0
   17.6429   -6.0643  -17.0311 O   0  0  0  0  0  0  0  0  0  0  0  0
   21.6092   -7.8755  -14.2769 O   0  0  0  0  0  0  0  0  0  0  0  0
   16.9689   -7.5349  -15.3838 N   0  0  0  0  0  0  0  0  0  0  0  0
   15.5369   -7.2965  -15.5814 C   0  0  1  0  0  0  0  0  0  0  0  0
   14.9558   -8.5361  -16.1850 C   0  0  0  0  0  0  0  0  0  0  0  0
   13.4971   -8.5447  -16.3252 C   0  0  0  0  0  0  0  0  0  0  0  0
   12.7373   -9.5318  -16.2615 O   0  0  0  0  0  0  0  0  0  0  0  0
   14.9792   -6.9363  -14.2594 C   0  0  0  0  0  0  0  0  0  0  0  0
   13.9619   -6.0095  -14.0851 O   0  0  0  0  0  0  0  0  0  0  0  0
   12.8811   -7.3153  -16.5561 O   0  0  0  0  0  0  0  0  0  0  0  0
   15.4090   -7.4666  -13.1764 O   0  0  0  0  0  0  0  0  0  0  0  0
  2  1  1  1
  2  7  1  0
  3  4  1  0
  3  2  1  0
  4  5  1  0
  5  6  2  0
  7 10  1  0
  7  8  2  0
  9  5  1  0
 10 11  1  0
 11 12  1  1
 12 13  1  0
 13 17  1  0
 14 13  2  0
 15 11  1  0
 15 16  2  0
 18 15  1  0
 19 18  1  0
 19 20  1  1
 21 20  1  0
 22 21  2  0
 23 19  1  0
 24 23  1  0
 25 21  1  0
 26 23  2  0
M  END
$$$$
