QTS.pdb
     RDKit          3D

 23 22  0  0  1  0  0  0  0  0999 V2000
    9.2631  -13.0344   16.9801 N   0  0  0  0  0  0  0  0  0  0  0  0
    8.5743  -14.2091   17.4520 C   0  0  0  0  0  0  0  0  0  0  0  0
    9.1541  -15.3006   17.2530 O   0  0  0  0  0  0  0  0  0  0  0  0
    7.2848  -14.0045   18.1076 C   0  0  0  0  0  0  0  0  0  0  0  0
    7.3983  -13.1559   19.3439 C   0  0  0  0  0  0  0  0  0  0  0  0
    8.4730  -13.6822   20.2349 C   0  0  2  0  0  0  0  0  0  0  0  0
    8.8821  -14.9787   19.6692 N   0  0  0  0  0  0  0  0  0  0  0  0
    7.9513  -13.9919   21.6078 C   0  0  0  0  0  0  0  0  0  0  0  0
    7.3515  -13.1282   22.2864 O   0  0  0  0  0  0  0  0  0  0  0  0
    6.8639  -17.3701   25.0953 C   0  0  0  0  0  0  0  0  0  0  0  0
    7.2547  -17.0455   23.6783 C   0  0  1  0  0  0  0  0  0  0  0  0
    6.1347  -17.1768   22.8628 O   0  0  0  0  0  0  0  0  0  0  0  0
    7.7269  -15.5995   23.5354 C   0  0  2  0  0  0  0  0  0  0  0  0
    8.1144  -15.2781   22.1986 N   0  0  0  0  0  0  0  0  0  0  0  0
    8.8428  -15.3225   24.5134 C   0  0  0  0  0  0  0  0  0  0  0  0
   10.0283  -15.6255   24.2323 O   0  0  0  0  0  0  0  0  0  0  0  0
    7.9029  -13.0234   27.8499 O   0  0  0  0  0  0  0  0  0  0  0  0
    9.2310  -13.1212   27.5193 C   0  0  0  0  0  0  0  0  0  0  0  0
    9.5160  -14.3869   26.7590 C   0  0  2  0  0  0  0  0  0  0  0  0
    8.5429  -14.7147   25.7586 N   0  0  0  0  0  0  0  0  0  0  0  0
    9.6645  -15.4914   27.7523 C   0  0  0  0  0  0  0  0  0  0  0  0
   10.6377  -15.4558   28.7350 O   0  0  0  0  0  0  0  0  0  0  0  0
    8.9110  -16.4732   27.7165 O   0  0  0  0  0  0  0  0  0  0  0  0
  2  1  1  0
  2  3  2  0
  4  2  1  0
  5  6  1  0
  5  4  1  0
  6  7  1  6
  8  9  2  0
  8  6  1  0
 11 10  1  1
 11 13  1  0
 12 11  1  0
 13 15  1  0
 13 14  1  6
 14  8  1  0
 15 20  1  0
 16 15  2  0
 18 17  1  0
 19 18  1  1
 19 21  1  0
 20 19  1  0
 21 23  2  0
 21 22  1  0
M  END
$$$$
