QTS.pdb
     RDKit          3D

 23 22  0  0  1  0  0  0  0  0999 V2000
   11.7463  -18.1552   14.2255 N   0  0  0  0  0  0  0  0  0  0  0  0
   11.0899  -17.1956   13.3739 C   0  0  0  0  0  0  0  0  0  0  0  0
   11.4690  -17.1727   12.1811 O   0  0  0  0  0  0  0  0  0  0  0  0
   10.0601  -16.3592   13.9861 C   0  0  0  0  0  0  0  0  0  0  0  0
    9.8306  -16.6989   15.4328 C   0  0  0  0  0  0  0  0  0  0  0  0
    8.7894  -15.8029   16.0150 C   0  0  2  0  0  0  0  0  0  0  0  0
    8.6553  -14.6668   15.0878 N   0  0  0  0  0  0  0  0  0  0  0  0
    9.2385  -15.2055   17.3167 C   0  0  0  0  0  0  0  0  0  0  0  0
   10.2358  -14.4520   17.3774 O   0  0  0  0  0  0  0  0  0  0  0  0
    7.4911  -12.9181   19.6238 C   0  0  0  0  0  0  0  0  0  0  0  0
    7.8670  -14.1062   20.4683 C   0  0  1  0  0  0  0  0  0  0  0  0
    6.7539  -14.9303   20.6040 O   0  0  0  0  0  0  0  0  0  0  0  0
    8.9540  -14.9525   19.8078 C   0  0  2  0  0  0  0  0  0  0  0  0
    8.5526  -15.4681   18.5376 N   0  0  0  0  0  0  0  0  0  0  0  0
    9.3832  -16.0595   20.7401 C   0  0  0  0  0  0  0  0  0  0  0  0
    8.9957  -17.2388   20.5523 O   0  0  0  0  0  0  0  0  0  0  0  0
   11.4607  -14.9176   24.1608 O   0  0  0  0  0  0  0  0  0  0  0  0
   11.7161  -16.2051   23.7611 C   0  0  0  0  0  0  0  0  0  0  0  0
   10.6563  -16.7087   22.8207 C   0  0  2  0  0  0  0  0  0  0  0  0
   10.2314  -15.7581   21.8354 N   0  0  0  0  0  0  0  0  0  0  0  0
    9.5060  -17.1858   23.6442 C   0  0  0  0  0  0  0  0  0  0  0  0
    9.6458  -18.2184   24.5544 O   0  0  0  0  0  0  0  0  0  0  0  0
    8.3906  -16.6611   23.5280 O   0  0  0  0  0  0  0  0  0  0  0  0
  2  1  1  0
  2  3  2  0
  4  2  1  0
  5  6  1  0
  5  4  1  0
  6  7  1  6
  8  9  2  0
  8  6  1  0
 11 10  1  6
 11 13  1  0
 12 11  1  0
 13 15  1  0
 13 14  1  6
 14  8  1  0
 15 20  1  0
 16 15  2  0
 18 17  1  0
 19 18  1  1
 19 21  1  0
 20 19  1  0
 21 23  2  0
 21 22  1  0
M  END
$$$$
