QTS.pdb
     RDKit          3D

 23 22  0  0  1  0  0  0  0  0999 V2000
   12.5050  -17.9047   14.7493 N   0  0  0  0  0  0  0  0  0  0  0  0
   12.0837  -16.8374   13.8774 C   0  0  0  0  0  0  0  0  0  0  0  0
   12.8136  -16.6222   12.8834 O   0  0  0  0  0  0  0  0  0  0  0  0
   10.8603  -16.1263   14.2410 C   0  0  0  0  0  0  0  0  0  0  0  0
   10.2016  -16.7059   15.4623 C   0  0  0  0  0  0  0  0  0  0  0  0
    9.0063  -15.8961   15.8380 C   0  0  2  0  0  0  0  0  0  0  0  0
    8.8011  -14.9294   14.7463 N   0  0  0  0  0  0  0  0  0  0  0  0
    9.2622  -15.0673   17.0630 C   0  0  0  0  0  0  0  0  0  0  0  0
    9.9379  -14.0154   17.0077 O   0  0  0  0  0  0  0  0  0  0  0  0
    7.1998  -13.0211   19.2401 C   0  0  0  0  0  0  0  0  0  0  0  0
    7.7667  -14.0842   20.1425 C   0  0  1  0  0  0  0  0  0  0  0  0
    6.8285  -15.1028   20.2802 O   0  0  0  0  0  0  0  0  0  0  0  0
    9.0188  -14.7267   19.5480 C   0  0  2  0  0  0  0  0  0  0  0  0
    8.7495  -15.4388   18.3393 N   0  0  0  0  0  0  0  0  0  0  0  0
    9.6794  -15.6149   20.5742 C   0  0  0  0  0  0  0  0  0  0  0  0
    9.8836  -16.8296   20.3309 O   0  0  0  0  0  0  0  0  0  0  0  0
    9.7248  -14.2831   24.4922 O   0  0  0  0  0  0  0  0  0  0  0  0
   10.8236  -15.0418   24.1765 C   0  0  0  0  0  0  0  0  0  0  0  0
   10.6040  -15.8275   22.9133 C   0  0  2  0  0  0  0  0  0  0  0  0
   10.0703  -15.0667   21.8218 N   0  0  0  0  0  0  0  0  0  0  0  0
    9.7253  -16.9878   23.2454 C   0  0  0  0  0  0  0  0  0  0  0  0
   10.1502  -18.0009   24.0864 O   0  0  0  0  0  0  0  0  0  0  0  0
    8.5851  -17.0680   22.7695 O   0  0  0  0  0  0  0  0  0  0  0  0
  2  1  1  0
  2  3  2  0
  4  2  1  0
  5  6  1  0
  5  4  1  0
  6  7  1  6
  8  9  2  0
  8  6  1  0
 11 10  1  6
 11 13  1  0
 12 11  1  0
 13 15  1  0
 13 14  1  6
 14  8  1  0
 15 20  1  0
 16 15  2  0
 18 17  1  0
 19 18  1  1
 19 21  1  0
 20 19  1  0
 21 23  2  0
 21 22  1  0
M  END
$$$$
