QTS.pdb
     RDKit          3D

 23 22  0  0  1  0  0  0  0  0999 V2000
   15.4364  -13.4437   19.2458 N   0  0  0  0  0  0  0  0  0  0  0  0
   16.0845  -14.7027   18.9777 C   0  0  0  0  0  0  0  0  0  0  0  0
   17.0307  -15.0045   19.7398 O   0  0  0  0  0  0  0  0  0  0  0  0
   15.5733  -15.4874   17.8564 C   0  0  0  0  0  0  0  0  0  0  0  0
   14.3581  -14.8642   17.2271 C   0  0  0  0  0  0  0  0  0  0  0  0
   13.2528  -15.8624   17.1384 C   0  0  2  0  0  0  0  0  0  0  0  0
   12.6567  -15.7027   15.8015 N   0  0  0  0  0  0  0  0  0  0  0  0
   12.1491  -15.5534   18.1077 C   0  0  0  0  0  0  0  0  0  0  0  0
   11.4714  -14.5059   18.0100 O   0  0  0  0  0  0  0  0  0  0  0  0
    8.9479  -16.9661   18.7020 C   0  0  0  0  0  0  0  0  0  0  0  0
    9.6160  -17.0872   20.0455 C   0  0  1  0  0  0  0  0  0  0  0  0
   10.0952  -18.3854   20.1929 O   0  0  0  0  0  0  0  0  0  0  0  0
   10.8267  -16.1630   20.1643 C   0  0  2  0  0  0  0  0  0  0  0  0
   11.8240  -16.4351   19.1786 N   0  0  0  0  0  0  0  0  0  0  0  0
   11.3975  -16.2379   21.5597 C   0  0  0  0  0  0  0  0  0  0  0  0
   12.4841  -16.8289   21.7744 O   0  0  0  0  0  0  0  0  0  0  0  0
    8.9167  -15.0368   24.6575 O   0  0  0  0  0  0  0  0  0  0  0  0
   10.2494  -14.8830   24.9461 C   0  0  0  0  0  0  0  0  0  0  0  0
   11.1106  -15.6785   24.0044 C   0  0  2  0  0  0  0  0  0  0  0  0
   10.6954  -15.6335   22.6329 N   0  0  0  0  0  0  0  0  0  0  0  0
   11.1610  -17.0826   24.5091 C   0  0  0  0  0  0  0  0  0  0  0  0
   11.8114  -17.4061   25.6865 O   0  0  0  0  0  0  0  0  0  0  0  0
   10.6155  -17.9967   23.8769 O   0  0  0  0  0  0  0  0  0  0  0  0
  2  1  1  0
  2  3  2  0
  4  2  1  0
  5  6  1  0
  5  4  1  0
  6  7  1  6
  8  9  2  0
  8  6  1  0
 11 10  1  6
 11 13  1  0
 12 11  1  0
 13 15  1  0
 13 14  1  6
 14  8  1  0
 15 20  1  0
 16 15  2  0
 18 17  1  0
 19 18  1  1
 19 21  1  0
 20 19  1  0
 21 23  2  0
 21 22  1  0
M  END
$$$$
