QTS.pdb
     RDKit          3D

 23 22  0  0  1  0  0  0  0  0999 V2000
   10.7453  -19.2843   14.3323 N   0  0  0  0  0  0  0  0  0  0  0  0
   10.0753  -18.5621   13.2805 C   0  0  0  0  0  0  0  0  0  0  0  0
   10.1635  -19.0574   12.1342 O   0  0  0  0  0  0  0  0  0  0  0  0
    9.3693  -17.3403   13.6591 C   0  0  0  0  0  0  0  0  0  0  0  0
    9.5030  -17.0314   15.1247 C   0  0  0  0  0  0  0  0  0  0  0  0
    8.7030  -15.8211   15.4726 C   0  0  2  0  0  0  0  0  0  0  0  0
    8.9462  -14.8415   14.4004 N   0  0  0  0  0  0  0  0  0  0  0  0
    9.2026  -15.1702   16.7295 C   0  0  0  0  0  0  0  0  0  0  0  0
   10.2216  -14.4436   16.7256 O   0  0  0  0  0  0  0  0  0  0  0  0
    7.6883  -12.7361   19.1937 C   0  0  0  0  0  0  0  0  0  0  0  0
    8.0179  -13.9886   19.9608 C   0  0  1  0  0  0  0  0  0  0  0  0
    6.8638  -14.7566   20.0830 O   0  0  0  0  0  0  0  0  0  0  0  0
    9.0382  -14.8550   19.2243 C   0  0  2  0  0  0  0  0  0  0  0  0
    8.5421  -15.3490   17.9792 N   0  0  0  0  0  0  0  0  0  0  0  0
    9.4996  -15.9805   20.1181 C   0  0  0  0  0  0  0  0  0  0  0  0
    9.0232  -17.1349   19.9891 O   0  0  0  0  0  0  0  0  0  0  0  0
   11.8517  -14.9510   23.3891 O   0  0  0  0  0  0  0  0  0  0  0  0
   12.0877  -16.2195   22.9221 C   0  0  0  0  0  0  0  0  0  0  0  0
   10.9654  -16.6989   22.0434 C   0  0  2  0  0  0  0  0  0  0  0  0
   10.4798  -15.7252   21.1100 N   0  0  0  0  0  0  0  0  0  0  0  0
    9.8706  -17.1913   22.9309 C   0  0  0  0  0  0  0  0  0  0  0  0
    8.6094  -16.6231   22.9088 O   0  0  0  0  0  0  0  0  0  0  0  0
   10.0713  -18.1292   23.7138 O   0  0  0  0  0  0  0  0  0  0  0  0
  2  1  1  0
  2  3  2  0
  4  2  1  0
  5  6  1  0
  5  4  1  0
  6  7  1  6
  8  9  2  0
  8  6  1  0
 11 10  1  6
 11 13  1  0
 12 11  1  0
 13 15  1  0
 13 14  1  6
 14  8  1  0
 15 20  1  0
 16 15  2  0
 18 17  1  0
 19 18  1  1
 19 21  1  0
 20 19  1  0
 21 23  2  0
 21 22  1  0
M  END
$$$$
