QTS.pdb
     RDKit          3D

 23 22  0  0  1  0  0  0  0  0999 V2000
    9.5063  -19.5522   15.1169 N   0  0  0  0  0  0  0  0  0  0  0  0
   10.0429  -18.5844   14.1936 C   0  0  0  0  0  0  0  0  0  0  0  0
   10.8641  -19.0230   13.3567 O   0  0  0  0  0  0  0  0  0  0  0  0
    9.5757  -17.2068   14.3293 C   0  0  0  0  0  0  0  0  0  0  0  0
    8.5576  -17.0518   15.4251 C   0  0  0  0  0  0  0  0  0  0  0  0
    8.1623  -15.6199   15.5642 C   0  0  2  0  0  0  0  0  0  0  0  0
    8.3675  -15.0033   14.2429 N   0  0  0  0  0  0  0  0  0  0  0  0
    9.0780  -14.8813   16.4965 C   0  0  0  0  0  0  0  0  0  0  0  0
   10.0451  -14.2140   16.0658 O   0  0  0  0  0  0  0  0  0  0  0  0
    8.2906  -12.2711   19.1802 C   0  0  0  0  0  0  0  0  0  0  0  0
    9.0200  -13.4036   19.8520 C   0  0  1  0  0  0  0  0  0  0  0  0
    8.0896  -14.2286   20.4769 O   0  0  0  0  0  0  0  0  0  0  0  0
    9.7653  -14.2775   18.8445 C   0  0  2  0  0  0  0  0  0  0  0  0
    8.8884  -14.9060   17.9083 N   0  0  0  0  0  0  0  0  0  0  0  0
   10.6137  -15.2929   19.5710 C   0  0  0  0  0  0  0  0  0  0  0  0
   10.1376  -16.4085   19.8948 O   0  0  0  0  0  0  0  0  0  0  0  0
   14.5641  -14.1936   20.6209 O   0  0  0  0  0  0  0  0  0  0  0  0
   14.3062  -15.5286   20.4362 C   0  0  0  0  0  0  0  0  0  0  0  0
   12.8455  -15.8360   20.6177 C   0  0  2  0  0  0  0  0  0  0  0  0
   11.9592  -14.9778   19.8876 N   0  0  0  0  0  0  0  0  0  0  0  0
   12.5507  -15.8002   22.0808 C   0  0  0  0  0  0  0  0  0  0  0  0
   13.1978  -16.6388   22.9708 O   0  0  0  0  0  0  0  0  0  0  0  0
   11.7115  -15.0100   22.5327 O   0  0  0  0  0  0  0  0  0  0  0  0
  2  1  1  0
  2  3  2  0
  4  2  1  0
  5  6  1  0
  5  4  1  0
  6  7  1  6
  8  9  2  0
  8  6  1  0
 11 10  1  6
 11 13  1  0
 12 11  1  0
 13 15  1  0
 13 14  1  6
 14  8  1  0
 15 20  1  0
 16 15  2  0
 18 17  1  0
 19 18  1  1
 19 21  1  0
 20 19  1  0
 21 23  2  0
 21 22  1  0
M  END
$$$$
