QTS.pdb
     RDKit          3D

 23 22  0  0  1  0  0  0  0  0999 V2000
   11.2164  -19.0398   18.4339 N   0  0  0  0  0  0  0  0  0  0  0  0
   12.5053  -18.6554   18.9514 C   0  0  0  0  0  0  0  0  0  0  0  0
   12.8511  -19.2041   20.0221 O   0  0  0  0  0  0  0  0  0  0  0  0
   13.2661  -17.6761   18.1789 C   0  0  0  0  0  0  0  0  0  0  0  0
   13.6284  -16.4626   18.9896 C   0  0  0  0  0  0  0  0  0  0  0  0
   12.9043  -15.2634   18.4763 C   0  0  2  0  0  0  0  0  0  0  0  0
   13.9366  -14.2683   18.1410 N   0  0  0  0  0  0  0  0  0  0  0  0
   12.0652  -14.6244   19.5444 C   0  0  0  0  0  0  0  0  0  0  0  0
   12.5817  -13.9362   20.4531 O   0  0  0  0  0  0  0  0  0  0  0  0
    8.5339  -12.7248   19.0152 C   0  0  0  0  0  0  0  0  0  0  0  0
    8.4335  -13.8135   20.0499 C   0  0  1  0  0  0  0  0  0  0  0  0
    7.8914  -14.9489   19.4552 O   0  0  0  0  0  0  0  0  0  0  0  0
    9.8061  -14.2186   20.5845 C   0  0  2  0  0  0  0  0  0  0  0  0
   10.6484  -14.7718   19.5721 N   0  0  0  0  0  0  0  0  0  0  0  0
    9.6469  -15.1683   21.7470 C   0  0  0  0  0  0  0  0  0  0  0  0
    9.8386  -16.3999   21.5966 O   0  0  0  0  0  0  0  0  0  0  0  0
    7.7268  -13.7430   25.1893 O   0  0  0  0  0  0  0  0  0  0  0  0
    8.6931  -14.6897   25.4195 C   0  0  0  0  0  0  0  0  0  0  0  0
    9.0097  -15.4661   24.1713 C   0  0  2  0  0  0  0  0  0  0  0  0
    9.2774  -14.6586   23.0173 N   0  0  0  0  0  0  0  0  0  0  0  0
    7.8792  -16.4088   23.9221 C   0  0  0  0  0  0  0  0  0  0  0  0
    7.5355  -17.3861   24.8390 O   0  0  0  0  0  0  0  0  0  0  0  0
    7.2186  -16.3343   22.8776 O   0  0  0  0  0  0  0  0  0  0  0  0
  2  1  1  0
  2  3  2  0
  4  2  1  0
  5  6  1  0
  5  4  1  0
  6  7  1  1
  8  9  2  0
  8  6  1  0
 11 10  1  6
 11 13  1  0
 12 11  1  0
 13 15  1  0
 13 14  1  6
 14  8  1  0
 15 20  1  0
 16 15  2  0
 18 17  1  0
 19 18  1  1
 19 21  1  0
 20 19  1  0
 21 23  2  0
 21 22  1  0
M  END
$$$$
