QTS.pdb
     RDKit          3D

 23 22  0  0  1  0  0  0  0  0999 V2000
    8.1339  -15.2714   10.9612 N   0  0  0  0  0  0  0  0  0  0  0  0
    7.8380  -16.3088   11.9168 C   0  0  0  0  0  0  0  0  0  0  0  0
    8.2230  -17.4602   11.6117 O   0  0  0  0  0  0  0  0  0  0  0  0
    7.1278  -15.9113   13.1301 C   0  0  0  0  0  0  0  0  0  0  0  0
    7.9764  -15.0680   14.0412 C   0  0  0  0  0  0  0  0  0  0  0  0
    8.7542  -15.9359   14.9726 C   0  0  2  0  0  0  0  0  0  0  0  0
    7.7644  -16.6835   15.7661 N   0  0  0  0  0  0  0  0  0  0  0  0
    9.5319  -15.1233   15.9666 C   0  0  0  0  0  0  0  0  0  0  0  0
   10.5759  -14.5169   15.6370 O   0  0  0  0  0  0  0  0  0  0  0  0
    7.8601  -12.8311   18.9415 C   0  0  0  0  0  0  0  0  0  0  0  0
    8.9226  -13.7715   19.4441 C   0  0  1  0  0  0  0  0  0  0  0  0
    8.3072  -14.9016   19.9740 O   0  0  0  0  0  0  0  0  0  0  0  0
    9.8289  -14.2612   18.3158 C   0  0  2  0  0  0  0  0  0  0  0  0
    9.1188  -15.0059   17.3251 N   0  0  0  0  0  0  0  0  0  0  0  0
   10.9766  -15.0589   18.8859 C   0  0  0  0  0  0  0  0  0  0  0  0
   10.9045  -16.3093   18.9727 O   0  0  0  0  0  0  0  0  0  0  0  0
   14.9516  -14.1576   18.5831 O   0  0  0  0  0  0  0  0  0  0  0  0
   14.5482  -14.2749   19.8894 C   0  0  0  0  0  0  0  0  0  0  0  0
   13.2427  -15.0134   19.9968 C   0  0  2  0  0  0  0  0  0  0  0  0
   12.1435  -14.3842   19.3254 N   0  0  0  0  0  0  0  0  0  0  0  0
   12.9495  -15.2117   21.4472 C   0  0  0  0  0  0  0  0  0  0  0  0
   13.8187  -15.9005   22.2743 O   0  0  0  0  0  0  0  0  0  0  0  0
   11.9105  -14.7585   21.9451 O   0  0  0  0  0  0  0  0  0  0  0  0
  2  1  1  0
  2  3  2  0
  4  2  1  0
  5  6  1  0
  5  4  1  0
  6  7  1  1
  8  9  2  0
  8  6  1  0
 11 10  1  6
 11 13  1  0
 12 11  1  0
 13 15  1  0
 13 14  1  6
 14  8  1  0
 15 20  1  0
 16 15  2  0
 18 17  1  0
 19 18  1  1
 19 21  1  0
 20 19  1  0
 21 23  2  0
 21 22  1  0
M  END
$$$$
