QTS.pdb
     RDKit          3D

 23 22  0  0  1  0  0  0  0  0999 V2000
   12.7561  -15.1002   20.0063 N   0  0  0  0  0  0  0  0  0  0  0  0
   13.0904  -14.1939   18.9368 C   0  0  0  0  0  0  0  0  0  0  0  0
   14.2618  -14.2690   18.5017 O   0  0  0  0  0  0  0  0  0  0  0  0
   12.0370  -13.2922   18.4766 C   0  0  0  0  0  0  0  0  0  0  0  0
   10.7587  -13.4615   19.2503 C   0  0  0  0  0  0  0  0  0  0  0  0
    9.9781  -14.6137   18.7126 C   0  0  2  0  0  0  0  0  0  0  0  0
    8.9204  -14.0379   17.8653 N   0  0  0  0  0  0  0  0  0  0  0  0
    9.2587  -15.3520   19.8036 C   0  0  0  0  0  0  0  0  0  0  0  0
    8.0347  -15.6003   19.7239 O   0  0  0  0  0  0  0  0  0  0  0  0
    8.1827  -17.8006   19.9822 C   0  0  0  0  0  0  0  0  0  0  0  0
    8.9451  -18.0368   21.2585 C   0  0  1  0  0  0  0  0  0  0  0  0
   10.1118  -18.7348   20.9615 O   0  0  0  0  0  0  0  0  0  0  0  0
    9.3797  -16.7262   21.9125 C   0  0  2  0  0  0  0  0  0  0  0  0
    9.9337  -15.8019   20.9749 N   0  0  0  0  0  0  0  0  0  0  0  0
   10.3413  -17.0074   23.0415 C   0  0  0  0  0  0  0  0  0  0  0  0
   11.5810  -16.9887   22.8442 O   0  0  0  0  0  0  0  0  0  0  0  0
    8.5466  -17.1919   26.7788 O   0  0  0  0  0  0  0  0  0  0  0  0
    9.7940  -16.6241   26.7132 C   0  0  0  0  0  0  0  0  0  0  0  0
   10.5811  -17.1606   25.5496 C   0  0  2  0  0  0  0  0  0  0  0  0
    9.8336  -17.2946   24.3337 N   0  0  0  0  0  0  0  0  0  0  0  0
   11.1771  -18.4647   25.9654 C   0  0  0  0  0  0  0  0  0  0  0  0
   10.9289  -19.6310   25.2637 O   0  0  0  0  0  0  0  0  0  0  0  0
   11.9141  -18.5299   26.9580 O   0  0  0  0  0  0  0  0  0  0  0  0
  2  1  1  0
  2  3  2  0
  4  2  1  0
  5  6  1  0
  5  4  1  0
  6  7  1  6
  8  9  2  0
  8  6  1  0
 11 10  1  6
 11 13  1  0
 12 11  1  0
 13 15  1  0
 13 14  1  6
 14  8  1  0
 15 20  1  0
 16 15  2  0
 18 17  1  0
 19 18  1  1
 19 21  1  0
 20 19  1  0
 21 23  2  0
 21 22  1  0
M  END
$$$$
