AGL.pdb
     RDKit          3D

 18 17  0  0  1  0  0  0  0  0999 V2000
   21.4001  -16.8632  -20.8307 C   0  0  0  0  0  0  0  0  0  0  0  0
   20.4512  -15.6969  -20.6754 C   0  0  2  0  0  0  0  0  0  0  0  0
   20.8070  -14.7008  -21.6602 N   0  0  0  0  0  0  0  0  0  0  0  0
   20.4709  -15.0992  -19.3409 C   0  0  0  0  0  0  0  0  0  0  0  0
   20.1100  -15.8417  -18.3606 O   0  0  0  0  0  0  0  0  0  0  0  0
   20.8649  -13.7556  -19.0849 N   0  0  0  0  0  0  0  0  0  0  0  0
   20.8159  -13.2665  -17.7578 C   0  0  0  0  0  0  0  0  0  0  0  0
   19.7928  -12.2789  -17.4464 C   0  0  0  0  0  0  0  0  0  0  0  0
   19.3928  -11.5480  -18.4154 O   0  0  0  0  0  0  0  0  0  0  0  0
   15.0280  -10.4935  -16.4186 C   0  0  0  0  0  0  0  0  0  0  0  0
   15.7417  -10.8415  -15.0664 C   0  0  1  0  0  0  0  0  0  0  0  0
   14.6770  -11.4756  -14.2468 C   0  0  0  0  0  0  0  0  0  0  0  0
   16.9674  -11.5921  -15.3567 C   0  0  0  0  0  0  0  0  0  0  0  0
   18.1234  -10.9877  -16.0312 C   0  0  2  0  0  0  0  0  0  0  0  0
   19.1888  -12.0324  -16.1987 N   0  0  0  0  0  0  0  0  0  0  0  0
   18.7927   -9.8785  -15.3407 C   0  0  0  0  0  0  0  0  0  0  0  0
   19.7814   -9.9887  -14.5852 O   0  0  0  0  0  0  0  0  0  0  0  0
   18.3470   -8.5389  -15.4865 O   0  0  0  0  0  0  0  0  0  0  0  0
  2  1  1  1
  2  3  1  0
  4  5  2  0
  4  2  1  0
  6  4  1  0
  7  6  1  0
  8  7  1  0
  8 15  1  0
  9  8  2  0
 11 10  1  6
 11 13  1  0
 12 11  1  0
 14 13  1  1
 14 15  1  0
 14 16  1  0
 16 17  2  0
 16 18  1  0
M  END
$$$$
