AGL.pdb
     RDKit          3D

 18 17  0  0  1  0  0  0  0  0999 V2000
   20.5600  -16.7819  -18.4665 C   0  0  0  0  0  0  0  0  0  0  0  0
   21.0997  -17.2894  -17.1490 C   0  0  2  0  0  0  0  0  0  0  0  0
   21.7794  -16.1939  -16.4959 N   0  0  0  0  0  0  0  0  0  0  0  0
   22.0129  -18.4232  -17.2877 C   0  0  0  0  0  0  0  0  0  0  0  0
   21.5358  -19.5025  -17.7877 O   0  0  0  0  0  0  0  0  0  0  0  0
   23.3820  -18.3844  -16.9001 N   0  0  0  0  0  0  0  0  0  0  0  0
   24.1390  -19.5797  -16.9321 C   0  0  0  0  0  0  0  0  0  0  0  0
   24.1573  -20.3923  -15.7245 C   0  0  0  0  0  0  0  0  0  0  0  0
   24.6209  -21.5774  -15.8422 O   0  0  0  0  0  0  0  0  0  0  0  0
   26.1673  -22.2290  -11.2735 C   0  0  0  0  0  0  0  0  0  0  0  0
   24.9400  -21.2810  -11.0414 C   0  0  1  0  0  0  0  0  0  0  0  0
   25.2843  -20.5385   -9.8014 C   0  0  0  0  0  0  0  0  0  0  0  0
   24.6772  -20.5347  -12.2759 C   0  0  0  0  0  0  0  0  0  0  0  0
   23.7287  -21.0015  -13.2951 C   0  0  2  0  0  0  0  0  0  0  0  0
   23.7229  -20.0259  -14.4363 N   0  0  0  0  0  0  0  0  0  0  0  0
   22.3213  -21.1152  -12.8933 C   0  0  0  0  0  0  0  0  0  0  0  0
   21.5542  -20.1554  -12.6677 O   0  0  0  0  0  0  0  0  0  0  0  0
   21.6996  -22.3798  -12.7237 O   0  0  0  0  0  0  0  0  0  0  0  0
  2  1  1  6
  2  3  1  0
  4  5  2  0
  4  2  1  0
  6  4  1  0
  7  6  1  0
  8  7  1  0
  8 15  1  0
  9  8  2  0
 11 10  1  6
 11 13  1  0
 12 11  1  0
 14 13  1  1
 14 15  1  0
 14 16  1  0
 16 17  2  0
 16 18  1  0
M  END
$$$$
