AGL.pdb
     RDKit          3D

 18 17  0  0  1  0  0  0  0  0999 V2000
   15.0546   -9.3598  -19.5022 C   0  0  0  0  0  0  0  0  0  0  0  0
   16.3270   -9.7055  -18.7632 C   0  0  2  0  0  0  0  0  0  0  0  0
   16.2801  -11.1114  -18.4317 N   0  0  0  0  0  0  0  0  0  0  0  0
   16.5304   -8.9193  -17.5471 C   0  0  0  0  0  0  0  0  0  0  0  0
   16.7547   -7.6655  -17.6902 O   0  0  0  0  0  0  0  0  0  0  0  0
   16.4913   -9.4715  -16.2358 N   0  0  0  0  0  0  0  0  0  0  0  0
   16.6871   -8.6172  -15.1246 C   0  0  0  0  0  0  0  0  0  0  0  0
   18.0539   -8.4221  -14.6637 C   0  0  0  0  0  0  0  0  0  0  0  0
   18.1979   -7.8143  -13.5487 O   0  0  0  0  0  0  0  0  0  0  0  0
   22.8410  -10.2689  -13.0481 C   0  0  0  0  0  0  0  0  0  0  0  0
   22.8366   -9.8827  -14.5679 C   0  0  1  0  0  0  0  0  0  0  0  0
   23.7312  -10.8865  -15.1999 C   0  0  0  0  0  0  0  0  0  0  0  0
   21.4478   -9.7698  -15.0244 C   0  0  0  0  0  0  0  0  0  0  0  0
   20.5858   -8.6379  -14.6610 C   0  0  2  0  0  0  0  0  0  0  0  0
   19.2417   -8.8253  -15.3033 N   0  0  0  0  0  0  0  0  0  0  0  0
   21.0222   -7.3035  -15.0898 C   0  0  0  0  0  0  0  0  0  0  0  0
   21.7825   -6.5500  -14.4457 O   0  0  0  0  0  0  0  0  0  0  0  0
   20.5944   -6.7451  -16.3225 O   0  0  0  0  0  0  0  0  0  0  0  0
  2  1  1  1
  2  3  1  0
  4  5  2  0
  4  2  1  0
  6  4  1  0
  7  6  1  0
  8  7  1  0
  8 15  1  0
  9  8  2  0
 11 10  1  1
 11 13  1  0
 12 11  1  0
 14 13  1  6
 14 15  1  0
 14 16  1  0
 16 17  2  0
 16 18  1  0
M  END
$$$$
