AGL.pdb
     RDKit          3D

 18 17  0  0  1  0  0  0  0  0999 V2000
   21.0435  -10.1664  -18.1829 C   0  0  0  0  0  0  0  0  0  0  0  0
   20.4329  -10.6122  -16.8740 C   0  0  2  0  0  0  0  0  0  0  0  0
   18.9963  -10.6123  -17.0313 N   0  0  0  0  0  0  0  0  0  0  0  0
   20.8039   -9.7699  -15.7375 C   0  0  0  0  0  0  0  0  0  0  0  0
   22.0341   -9.7788  -15.3781 O   0  0  0  0  0  0  0  0  0  0  0  0
   19.8791   -8.9556  -15.0251 N   0  0  0  0  0  0  0  0  0  0  0  0
   20.3040   -8.3095  -13.8397 C   0  0  0  0  0  0  0  0  0  0  0  0
   21.1579   -7.1396  -13.9850 C   0  0  0  0  0  0  0  0  0  0  0  0
   22.0194   -6.9448  -13.0614 O   0  0  0  0  0  0  0  0  0  0  0  0
   23.9842   -5.6212  -18.4206 C   0  0  0  0  0  0  0  0  0  0  0  0
   23.6529   -5.9619  -16.9262 C   0  0  1  0  0  0  0  0  0  0  0  0
   24.9844   -6.0961  -16.2809 C   0  0  0  0  0  0  0  0  0  0  0  0
   22.7028   -4.9698  -16.4132 C   0  0  0  0  0  0  0  0  0  0  0  0
   22.1234   -5.0528  -15.0664 C   0  0  2  0  0  0  0  0  0  0  0  0
   21.1473   -6.1928  -15.0270 N   0  0  0  0  0  0  0  0  0  0  0  0
   21.3598   -3.8903  -14.5968 C   0  0  0  0  0  0  0  0  0  0  0  0
   20.1371   -3.7081  -14.7764 O   0  0  0  0  0  0  0  0  0  0  0  0
   21.9810   -2.8403  -13.8714 O   0  0  0  0  0  0  0  0  0  0  0  0
  2  1  1  6
  2  3  1  0
  4  5  2  0
  4  2  1  0
  6  4  1  0
  7  6  1  0
  8  7  1  0
  8 15  1  0
  9  8  2  0
 11 10  1  6
 11 13  1  0
 12 11  1  0
 14 13  1  6
 14 15  1  0
 14 16  1  0
 16 17  2  0
 16 18  1  0
M  END
$$$$
