AGL.pdb
     RDKit          3D

 18 17  0  0  1  0  0  0  0  0999 V2000
   16.6974  -11.5807  -18.7147 C   0  0  0  0  0  0  0  0  0  0  0  0
   17.8754  -11.0360  -19.4894 C   0  0  2  0  0  0  0  0  0  0  0  0
   18.9806  -11.9515  -19.3191 N   0  0  0  0  0  0  0  0  0  0  0  0
   18.2795   -9.6933  -19.0739 C   0  0  0  0  0  0  0  0  0  0  0  0
   17.4185   -8.7536  -19.2097 O   0  0  0  0  0  0  0  0  0  0  0  0
   19.5611   -9.3873  -18.5356 N   0  0  0  0  0  0  0  0  0  0  0  0
   19.8792   -8.0396  -18.2431 C   0  0  0  0  0  0  0  0  0  0  0  0
   20.1886   -7.7107  -16.8592 C   0  0  0  0  0  0  0  0  0  0  0  0
   19.2673   -7.9314  -16.0015 O   0  0  0  0  0  0  0  0  0  0  0  0
   23.5726  -10.3793  -14.0950 C   0  0  0  0  0  0  0  0  0  0  0  0
   22.2722   -9.5489  -14.3745 C   0  0  1  0  0  0  0  0  0  0  0  0
   21.3415   -9.9562  -13.2904 C   0  0  0  0  0  0  0  0  0  0  0  0
   22.6339   -8.1350  -14.5170 C   0  0  0  0  0  0  0  0  0  0  0  0
   21.6550   -7.1009  -14.8757 C   0  0  2  0  0  0  0  0  0  0  0  0
   21.3878   -7.1759  -16.3512 N   0  0  0  0  0  0  0  0  0  0  0  0
   22.0422   -5.7052  -14.6363 C   0  0  0  0  0  0  0  0  0  0  0  0
   22.3325   -4.8735  -15.5220 O   0  0  0  0  0  0  0  0  0  0  0  0
   22.1188   -5.1730  -13.3228 O   0  0  0  0  0  0  0  0  0  0  0  0
  2  1  1  1
  2  3  1  0
  4  5  2  0
  4  2  1  0
  6  4  1  0
  7  6  1  0
  8  7  1  0
  8 15  1  0
  9  8  2  0
 11 10  1  1
 11 13  1  0
 12 11  1  0
 14 13  1  6
 14 15  1  0
 14 16  1  0
 16 17  2  0
 16 18  1  0
M  END
$$$$
