AGL.pdb
     RDKit          3D

 18 17  0  0  1  0  0  0  0  0999 V2000
   28.7843  -20.8688  -18.1514 C   0  0  0  0  0  0  0  0  0  0  0  0
   27.4811  -20.7245  -17.3995 C   0  0  2  0  0  0  0  0  0  0  0  0
   27.5070  -19.4573  -16.7050 N   0  0  0  0  0  0  0  0  0  0  0  0
   27.2326  -21.8042  -16.4450 C   0  0  0  0  0  0  0  0  0  0  0  0
   28.0668  -21.9382  -15.4812 O   0  0  0  0  0  0  0  0  0  0  0  0
   26.1277  -22.6969  -16.5351 N   0  0  0  0  0  0  0  0  0  0  0  0
   25.9550  -23.6795  -15.5313 C   0  0  0  0  0  0  0  0  0  0  0  0
   25.3016  -23.2675  -14.2975 C   0  0  0  0  0  0  0  0  0  0  0  0
   24.8988  -24.2034  -13.5260 O   0  0  0  0  0  0  0  0  0  0  0  0
   24.7767  -21.8857   -9.3742 C   0  0  0  0  0  0  0  0  0  0  0  0
   24.8911  -20.6110  -10.2803 C   0  0  1  0  0  0  0  0  0  0  0  0
   25.7791  -19.6994   -9.5138 C   0  0  0  0  0  0  0  0  0  0  0  0
   25.2803  -21.0239  -11.6324 C   0  0  0  0  0  0  0  0  0  0  0  0
   24.3477  -21.6798  -12.5579 C   0  0  2  0  0  0  0  0  0  0  0  0
   25.0595  -21.9543  -13.8511 N   0  0  0  0  0  0  0  0  0  0  0  0
   23.1498  -20.9240  -12.9436 C   0  0  0  0  0  0  0  0  0  0  0  0
   23.0644  -20.1563  -13.9253 O   0  0  0  0  0  0  0  0  0  0  0  0
   21.9459  -21.0132  -12.1971 O   0  0  0  0  0  0  0  0  0  0  0  0
  2  1  1  1
  2  3  1  0
  4  5  2  0
  4  2  1  0
  6  4  1  0
  7  6  1  0
  8  7  1  0
  8 15  1  0
  9  8  2  0
 11 10  1  1
 11 13  1  0
 12 11  1  0
 14 13  1  1
 14 15  1  0
 14 16  1  0
 16 17  2  0
 16 18  1  0
M  END
$$$$
