MGR.pdb
     RDKit          3D

 24 23  0  0  1  0  0  0  0  0999 V2000
    7.5035  -10.0829   25.9898 C   0  0  0  0  0  0  0  0  0  0  0  0
    5.9258  -10.6533   26.6797 S   0  0  0  0  0  0  0  0  0  0  0  0
    5.6387  -12.3790   26.2224 C   0  0  0  0  0  0  0  0  0  0  0  0
    6.7427  -12.8202   25.2829 C   0  0  0  0  0  0  0  0  0  0  0  0
    6.5498  -14.2800   24.8933 C   0  0  2  0  0  0  0  0  0  0  0  0
    6.3113  -15.1085   26.0361 N   0  0  0  0  0  0  0  0  0  0  0  0
    7.8000  -14.7663   24.2045 C   0  0  0  0  0  0  0  0  0  0  0  0
    7.8610  -15.0039   22.9845 O   0  0  0  0  0  0  0  0  0  0  0  0
    9.0041  -14.9748   24.9857 N   0  0  0  0  0  0  0  0  0  0  0  0
    9.9313  -16.0067   24.6334 C   0  0  0  0  0  0  0  0  0  0  0  0
    9.8540  -17.1644   25.5141 C   0  0  0  0  0  0  0  0  0  0  0  0
    9.4501  -16.9219   26.7121 O   0  0  0  0  0  0  0  0  0  0  0  0
    6.0636  -24.2309   23.2013 N   0  0  0  0  0  0  0  0  0  0  0  0
    5.6995  -23.4706   24.3635 C   0  0  0  0  0  0  0  0  0  0  0  0
    5.0384  -23.9604   25.3321 N   0  0  0  0  0  0  0  0  0  0  0  0
    6.1069  -22.0983   24.4223 N   0  0  0  0  0  0  0  0  0  0  0  0
    7.4291  -21.6675   24.1362 C   0  0  0  0  0  0  0  0  0  0  0  0
    8.0182  -20.5813   24.9717 C   0  0  0  0  0  0  0  0  0  0  0  0
    9.4147  -20.7270   25.4328 C   0  0  0  0  0  0  0  0  0  0  0  0
   10.0451  -19.5950   26.1288 C   0  0  2  0  0  0  0  0  0  0  0  0
   10.1779  -18.4829   25.1531 N   0  0  0  0  0  0  0  0  0  0  0  0
   11.4054  -19.9140   26.6347 C   0  0  0  0  0  0  0  0  0  0  0  0
   12.4710  -19.7606   25.9931 O   0  0  0  0  0  0  0  0  0  0  0  0
   11.5234  -20.4346   27.9325 O   0  0  0  0  0  0  0  0  0  0  0  0
  1  2  1  0
  3  2  1  0
  4  3  1  0
  5  4  1  0
  5  6  1  1
  7  5  1  0
  8  7  2  0
  9  7  1  0
 10  9  1  0
 11 21  1  0
 11 10  1  0
 12 11  2  0
 14 13  1  0
 15 14  2  0
 16 14  1  0
 17 16  1  0
 18 17  1  0
 20 19  1  6
 19 18  1  0
 20 21  1  0
 22 20  1  0
 23 22  2  0
 24 22  1  0
M  END
$$$$
