MGR.pdb
     RDKit          3D

 24 23  0  0  1  0  0  0  0  0999 V2000
    7.0020  -11.6819   25.7385 C   0  0  0  0  0  0  0  0  0  0  0  0
    5.6079  -12.8051   26.0310 S   0  0  0  0  0  0  0  0  0  0  0  0
    5.6405  -14.1568   24.8306 C   0  0  0  0  0  0  0  0  0  0  0  0
    7.0783  -14.4065   24.4224 C   0  0  0  0  0  0  0  0  0  0  0  0
    7.1992  -14.4215   22.9041 C   0  0  2  0  0  0  0  0  0  0  0  0
    6.4820  -15.5163   22.3243 N   0  0  0  0  0  0  0  0  0  0  0  0
    8.6552  -14.5570   22.5360 C   0  0  0  0  0  0  0  0  0  0  0  0
    9.5314  -13.7524   22.9015 O   0  0  0  0  0  0  0  0  0  0  0  0
    9.0774  -15.6748   21.7140 N   0  0  0  0  0  0  0  0  0  0  0  0
   10.4395  -15.7943   21.2907 C   0  0  0  0  0  0  0  0  0  0  0  0
   11.3176  -16.2971   22.3386 C   0  0  0  0  0  0  0  0  0  0  0  0
   12.5782  -16.2123   22.0916 O   0  0  0  0  0  0  0  0  0  0  0  0
   10.6086  -14.0071   28.5927 N   0  0  0  0  0  0  0  0  0  0  0  0
   11.0554  -15.1640   29.3162 C   0  0  0  0  0  0  0  0  0  0  0  0
   12.0203  -15.1337   30.1427 N   0  0  0  0  0  0  0  0  0  0  0  0
   10.3734  -16.4030   29.0875 N   0  0  0  0  0  0  0  0  0  0  0  0
   10.7873  -17.3495   28.1136 C   0  0  0  0  0  0  0  0  0  0  0  0
   10.6616  -16.9862   26.6724 C   0  0  0  0  0  0  0  0  0  0  0  0
   11.1140  -17.9618   25.6587 C   0  0  0  0  0  0  0  0  0  0  0  0
   11.8662  -17.4668   24.4957 C   0  0  2  0  0  0  0  0  0  0  0  0
   10.8933  -16.8472   23.5597 N   0  0  0  0  0  0  0  0  0  0  0  0
   12.5702  -18.5495   23.7606 C   0  0  0  0  0  0  0  0  0  0  0  0
   12.0199  -19.4012   23.0243 O   0  0  0  0  0  0  0  0  0  0  0  0
   13.9640  -18.6424   23.8950 O   0  0  0  0  0  0  0  0  0  0  0  0
  1  2  1  0
  3  2  1  0
  4  3  1  0
  5  4  1  0
  5  6  1  1
  7  5  1  0
  8  7  2  0
  9  7  1  0
 10  9  1  0
 11 21  1  0
 11 10  1  0
 12 11  2  0
 14 13  1  0
 15 14  2  0
 16 14  1  0
 17 16  1  0
 18 17  1  0
 20 19  1  1
 19 18  1  0
 20 21  1  0
 22 20  1  0
 23 22  2  0
 24 22  1  0
M  END
$$$$
