MGR.pdb
     RDKit          3D

 24 23  0  0  1  0  0  0  0  0999 V2000
    5.9745  -11.5911   26.4592 C   0  0  0  0  0  0  0  0  0  0  0  0
    7.1073  -11.9534   27.8288 S   0  0  0  0  0  0  0  0  0  0  0  0
    7.6632  -13.6713   27.7336 C   0  0  0  0  0  0  0  0  0  0  0  0
    6.5534  -14.5057   27.1269 C   0  0  0  0  0  0  0  0  0  0  0  0
    7.0260  -15.9387   26.9190 C   0  0  2  0  0  0  0  0  0  0  0  0
    8.3450  -16.1440   27.4358 N   0  0  0  0  0  0  0  0  0  0  0  0
    7.0422  -16.2331   25.4401 C   0  0  0  0  0  0  0  0  0  0  0  0
    6.0615  -16.0529   24.6956 O   0  0  0  0  0  0  0  0  0  0  0  0
    8.2527  -16.7541   24.8345 N   0  0  0  0  0  0  0  0  0  0  0  0
    9.2711  -15.8664   24.3619 C   0  0  0  0  0  0  0  0  0  0  0  0
   10.2209  -16.5160   23.4687 C   0  0  0  0  0  0  0  0  0  0  0  0
   10.4764  -17.7491   23.7354 O   0  0  0  0  0  0  0  0  0  0  0  0
    7.4628  -12.3077   17.6896 N   0  0  0  0  0  0  0  0  0  0  0  0
    8.4373  -13.3538   17.8225 C   0  0  0  0  0  0  0  0  0  0  0  0
    9.0641  -13.8459   16.8325 N   0  0  0  0  0  0  0  0  0  0  0  0
    8.7071  -13.8564   19.1367 N   0  0  0  0  0  0  0  0  0  0  0  0
    9.9853  -14.3214   19.5434 C   0  0  0  0  0  0  0  0  0  0  0  0
   10.1726  -15.7855   19.7586 C   0  0  0  0  0  0  0  0  0  0  0  0
   11.5207  -16.2782   20.1108 C   0  0  0  0  0  0  0  0  0  0  0  0
   11.7810  -16.6741   21.5032 C   0  0  2  0  0  0  0  0  0  0  0  0
   10.8523  -15.9063   22.3717 N   0  0  0  0  0  0  0  0  0  0  0  0
   13.1665  -16.3640   21.9417 C   0  0  0  0  0  0  0  0  0  0  0  0
   14.2040  -16.9178   21.5087 O   0  0  0  0  0  0  0  0  0  0  0  0
   13.3446  -15.3767   22.9230 O   0  0  0  0  0  0  0  0  0  0  0  0
  1  2  1  0
  3  2  1  0
  4  3  1  0
  5  4  1  0
  5  6  1  6
  7  5  1  0
  8  7  2  0
  9  7  1  0
 10  9  1  0
 11 21  1  0
 11 10  1  0
 12 11  2  0
 14 13  1  0
 15 14  2  0
 16 14  1  0
 17 16  1  0
 18 17  1  0
 20 19  1  6
 19 18  1  0
 20 21  1  0
 22 20  1  0
 23 22  2  0
 24 22  1  0
M  END
$$$$
