MGR.pdb
     RDKit          3D

 24 23  0  0  1  0  0  0  0  0999 V2000
    8.1636  -12.0848   25.1874 C   0  0  0  0  0  0  0  0  0  0  0  0
    7.5520  -12.0894   23.4796 S   0  0  0  0  0  0  0  0  0  0  0  0
    7.7830  -13.7252   22.7445 C   0  0  0  0  0  0  0  0  0  0  0  0
    7.5170  -13.6281   21.2558 C   0  0  0  0  0  0  0  0  0  0  0  0
    7.6790  -14.9943   20.6022 C   0  0  2  0  0  0  0  0  0  0  0  0
    6.9604  -16.0107   21.3092 N   0  0  0  0  0  0  0  0  0  0  0  0
    9.1422  -15.3591   20.5997 C   0  0  0  0  0  0  0  0  0  0  0  0
   10.0252  -14.6429   20.0939 O   0  0  0  0  0  0  0  0  0  0  0  0
    9.5631  -16.6044   21.2124 N   0  0  0  0  0  0  0  0  0  0  0  0
   10.9533  -16.8959   21.3891 C   0  0  0  0  0  0  0  0  0  0  0  0
   11.3165  -17.1065   22.7840 C   0  0  0  0  0  0  0  0  0  0  0  0
   12.5762  -17.2389   23.0135 O   0  0  0  0  0  0  0  0  0  0  0  0
    7.1857  -13.7186   24.8299 N   0  0  0  0  0  0  0  0  0  0  0  0
    7.3543  -13.0699   26.0997 C   0  0  0  0  0  0  0  0  0  0  0  0
    7.0113  -11.8649   26.3124 N   0  0  0  0  0  0  0  0  0  0  0  0
    7.9361  -13.8269   27.1679 N   0  0  0  0  0  0  0  0  0  0  0  0
    8.2600  -15.2047   27.0570 C   0  0  0  0  0  0  0  0  0  0  0  0
    9.4134  -15.5957   26.1958 C   0  0  0  0  0  0  0  0  0  0  0  0
    9.8185  -17.0166   26.1646 C   0  0  0  0  0  0  0  0  0  0  0  0
   10.8908  -17.4200   25.2422 C   0  0  2  0  0  0  0  0  0  0  0  0
   10.4132  -17.1699   23.8581 N   0  0  0  0  0  0  0  0  0  0  0  0
   11.2294  -18.8631   25.3470 C   0  0  0  0  0  0  0  0  0  0  0  0
   11.8124  -19.4014   26.3169 O   0  0  0  0  0  0  0  0  0  0  0  0
   10.8789  -19.7041   24.2797 O   0  0  0  0  0  0  0  0  0  0  0  0
  1  2  1  0
  3  2  1  0
  4  3  1  0
  5  4  1  0
  5  6  1  1
  7  5  1  0
  8  7  2  0
  9  7  1  0
 10  9  1  0
 11 21  1  0
 11 10  1  0
 12 11  2  0
 14 13  1  0
 15 14  2  0
 16 14  1  0
 17 16  1  0
 18 17  1  0
 20 19  1  1
 19 18  1  0
 20 21  1  0
 22 20  1  0
 23 22  2  0
 24 22  1  0
M  END
$$$$
