MGR.pdb
     RDKit          3D

 24 23  0  0  1  0  0  0  0  0999 V2000
    4.9026  -11.5234   27.2929 C   0  0  0  0  0  0  0  0  0  0  0  0
    5.5833  -12.0074   25.6827 S   0  0  0  0  0  0  0  0  0  0  0  0
    7.3898  -11.9482   25.7319 C   0  0  0  0  0  0  0  0  0  0  0  0
    7.9309  -12.6938   24.5288 C   0  0  0  0  0  0  0  0  0  0  0  0
    7.2518  -14.0513   24.4019 C   0  0  2  0  0  0  0  0  0  0  0  0
    7.5322  -14.8934   25.5250 N   0  0  0  0  0  0  0  0  0  0  0  0
    7.7606  -14.7323   23.1565 C   0  0  0  0  0  0  0  0  0  0  0  0
    7.3560  -14.4574   22.0122 O   0  0  0  0  0  0  0  0  0  0  0  0
    8.7729  -15.7639   23.2761 N   0  0  0  0  0  0  0  0  0  0  0  0
   10.1177  -15.5175   22.8522 C   0  0  0  0  0  0  0  0  0  0  0  0
   10.9837  -16.6785   23.0075 C   0  0  0  0  0  0  0  0  0  0  0  0
   12.1846  -16.5355   22.5663 O   0  0  0  0  0  0  0  0  0  0  0  0
   12.5539  -15.8200   28.5583 N   0  0  0  0  0  0  0  0  0  0  0  0
   11.1515  -15.5376   28.6811 C   0  0  0  0  0  0  0  0  0  0  0  0
   10.6975  -14.3738   28.9148 N   0  0  0  0  0  0  0  0  0  0  0  0
   10.2322  -16.6260   28.5302 N   0  0  0  0  0  0  0  0  0  0  0  0
   10.5422  -17.8111   27.8126 C   0  0  0  0  0  0  0  0  0  0  0  0
   11.0489  -17.6829   26.4156 C   0  0  0  0  0  0  0  0  0  0  0  0
   11.2900  -18.9167   25.6385 C   0  0  0  0  0  0  0  0  0  0  0  0
   11.6199  -18.7928   24.2105 C   0  0  2  0  0  0  0  0  0  0  0  0
   10.6076  -17.9007   23.5893 N   0  0  0  0  0  0  0  0  0  0  0  0
   11.5739  -20.0931   23.4929 C   0  0  0  0  0  0  0  0  0  0  0  0
   12.3394  -21.0631   23.7021 O   0  0  0  0  0  0  0  0  0  0  0  0
   10.6035  -20.2634   22.4935 O   0  0  0  0  0  0  0  0  0  0  0  0
  1  2  1  0
  3  2  1  0
  4  3  1  0
  5  4  1  0
  5  6  1  1
  7  5  1  0
  8  7  2  0
  9  7  1  0
 10  9  1  0
 11 21  1  0
 11 10  1  0
 12 11  2  0
 14 13  1  0
 15 14  2  0
 16 14  1  0
 17 16  1  0
 18 17  1  0
 20 19  1  1
 19 18  1  0
 20 21  1  0
 22 20  1  0
 23 22  2  0
 24 22  1  0
M  END
$$$$
