MGR.pdb
     RDKit          3D

 24 23  0  0  1  0  0  0  0  0999 V2000
    6.0617  -11.4144   26.5095 C   0  0  0  0  0  0  0  0  0  0  0  0
    7.3493  -12.6912   26.4625 S   0  0  0  0  0  0  0  0  0  0  0  0
    7.0267  -13.8452   25.1084 C   0  0  0  0  0  0  0  0  0  0  0  0
    6.9491  -13.0619   23.8136 C   0  0  0  0  0  0  0  0  0  0  0  0
    6.5815  -13.9865   22.6604 C   0  0  2  0  0  0  0  0  0  0  0  0
    5.8979  -15.1589   23.1158 N   0  0  0  0  0  0  0  0  0  0  0  0
    7.8470  -14.4141   21.9608 C   0  0  0  0  0  0  0  0  0  0  0  0
    8.6793  -13.6114   21.5005 O   0  0  0  0  0  0  0  0  0  0  0  0
    8.1276  -15.8284   21.8051 N   0  0  0  0  0  0  0  0  0  0  0  0
    9.3128  -16.2663   21.1327 C   0  0  0  0  0  0  0  0  0  0  0  0
   10.4868  -16.2688   21.9950 C   0  0  0  0  0  0  0  0  0  0  0  0
   11.3540  -15.3491   21.7513 O   0  0  0  0  0  0  0  0  0  0  0  0
   10.9008  -14.7303   30.4540 N   0  0  0  0  0  0  0  0  0  0  0  0
   11.4221  -15.9362   29.8746 C   0  0  0  0  0  0  0  0  0  0  0  0
   11.4130  -17.0544   30.4784 N   0  0  0  0  0  0  0  0  0  0  0  0
   11.9740  -15.8622   28.5546 N   0  0  0  0  0  0  0  0  0  0  0  0
   11.3506  -16.4414   27.4182 C   0  0  0  0  0  0  0  0  0  0  0  0
   12.1969  -17.2051   26.4563 C   0  0  0  0  0  0  0  0  0  0  0  0
   11.5755  -17.6973   25.2090 C   0  0  0  0  0  0  0  0  0  0  0  0
   11.8871  -17.0045   23.9495 C   0  0  2  0  0  0  0  0  0  0  0  0
   10.7250  -17.1765   23.0406 N   0  0  0  0  0  0  0  0  0  0  0  0
   13.0809  -17.5635   23.2637 C   0  0  0  0  0  0  0  0  0  0  0  0
   13.0630  -18.4866   22.4163 O   0  0  0  0  0  0  0  0  0  0  0  0
   14.3383  -17.0286   23.5830 O   0  0  0  0  0  0  0  0  0  0  0  0
  1  2  1  0
  3  2  1  0
  4  3  1  0
  5  4  1  0
  5  6  1  1
  7  5  1  0
  8  7  2  0
  9  7  1  0
 10  9  1  0
 11 21  1  0
 11 10  1  0
 12 11  2  0
 14 13  1  0
 15 14  2  0
 16 14  1  0
 17 16  1  0
 18 17  1  0
 20 19  1  1
 19 18  1  0
 20 21  1  0
 22 20  1  0
 23 22  2  0
 24 22  1  0
M  END
$$$$
