MGR.pdb
     RDKit          3D

 24 23  0  0  1  0  0  0  0  0999 V2000
    7.8221  -12.0614   20.0269 C   0  0  0  0  0  0  0  0  0  0  0  0
    6.9329  -12.8880   21.3747 S   0  0  0  0  0  0  0  0  0  0  0  0
    7.3818  -14.6387   21.4294 C   0  0  0  0  0  0  0  0  0  0  0  0
    7.7096  -15.0979   20.0230 C   0  0  0  0  0  0  0  0  0  0  0  0
    8.0987  -16.5705   20.0276 C   0  0  2  0  0  0  0  0  0  0  0  0
    7.5514  -17.2617   21.1554 N   0  0  0  0  0  0  0  0  0  0  0  0
    9.6018  -16.6737   20.0887 C   0  0  0  0  0  0  0  0  0  0  0  0
   10.3514  -16.3009   19.1679 O   0  0  0  0  0  0  0  0  0  0  0  0
   10.2263  -17.2338   21.2718 N   0  0  0  0  0  0  0  0  0  0  0  0
   11.3574  -16.5931   21.8710 C   0  0  0  0  0  0  0  0  0  0  0  0
   11.0748  -16.0689   23.2004 C   0  0  0  0  0  0  0  0  0  0  0  0
   12.0744  -15.5294   23.8060 O   0  0  0  0  0  0  0  0  0  0  0  0
    5.5796  -21.3267   23.9374 N   0  0  0  0  0  0  0  0  0  0  0  0
    5.1931  -20.1627   23.1908 C   0  0  0  0  0  0  0  0  0  0  0  0
    4.4401  -20.2146   22.1684 N   0  0  0  0  0  0  0  0  0  0  0  0
    5.6849  -18.8906   23.6293 N   0  0  0  0  0  0  0  0  0  0  0  0
    6.7088  -18.7468   24.6021 C   0  0  0  0  0  0  0  0  0  0  0  0
    7.6929  -17.6379   24.4384 C   0  0  0  0  0  0  0  0  0  0  0  0
    8.7266  -17.4550   25.4786 C   0  0  0  0  0  0  0  0  0  0  0  0
    9.7238  -16.3892   25.2966 C   0  0  2  0  0  0  0  0  0  0  0  0
    9.8253  -16.1101   23.8413 N   0  0  0  0  0  0  0  0  0  0  0  0
   11.0761  -16.7766   25.7755 C   0  0  0  0  0  0  0  0  0  0  0  0
   11.5099  -16.6023   26.9382 O   0  0  0  0  0  0  0  0  0  0  0  0
   11.9524  -17.3836   24.8628 O   0  0  0  0  0  0  0  0  0  0  0  0
  1  2  1  0
  3  2  1  0
  4  3  1  0
  5  4  1  0
  5  6  1  1
  7  5  1  0
  8  7  2  0
  9  7  1  0
 10  9  1  0
 11 21  1  0
 11 10  1  0
 12 11  2  0
 14 13  1  0
 15 14  2  0
 16 14  1  0
 17 16  1  0
 18 17  1  0
 20 19  1  6
 19 18  1  0
 20 21  1  0
 22 20  1  0
 23 22  2  0
 24 22  1  0
M  END
$$$$
