MGR.pdb
     RDKit          3D

 24 23  0  0  1  0  0  0  0  0999 V2000
    7.8978  -12.0153   20.1663 C   0  0  0  0  0  0  0  0  0  0  0  0
    7.7619  -13.6154   21.0100 S   0  0  0  0  0  0  0  0  0  0  0  0
    7.4478  -14.9256   19.8042 C   0  0  0  0  0  0  0  0  0  0  0  0
    7.2870  -16.2370   20.5460 C   0  0  0  0  0  0  0  0  0  0  0  0
    8.6512  -16.7948   20.9305 C   0  0  2  0  0  0  0  0  0  0  0  0
    9.6667  -16.4047   20.0001 N   0  0  0  0  0  0  0  0  0  0  0  0
    8.5715  -18.3006   20.9456 C   0  0  0  0  0  0  0  0  0  0  0  0
    7.5353  -18.9283   21.2300 O   0  0  0  0  0  0  0  0  0  0  0  0
    9.7518  -19.0761   20.6155 N   0  0  0  0  0  0  0  0  0  0  0  0
   11.0605  -18.5492   20.8569 C   0  0  0  0  0  0  0  0  0  0  0  0
   11.5786  -18.8968   22.1733 C   0  0  0  0  0  0  0  0  0  0  0  0
   12.8437  -18.7211   22.3337 O   0  0  0  0  0  0  0  0  0  0  0  0
    8.8874  -14.4884   24.9486 N   0  0  0  0  0  0  0  0  0  0  0  0
    7.4776  -14.4167   24.6866 C   0  0  0  0  0  0  0  0  0  0  0  0
    6.8668  -13.3217   24.4792 N   0  0  0  0  0  0  0  0  0  0  0  0
    6.7370  -15.6428   24.6593 N   0  0  0  0  0  0  0  0  0  0  0  0
    7.3155  -16.9064   24.9491 C   0  0  0  0  0  0  0  0  0  0  0  0
    8.7478  -17.1289   24.5971 C   0  0  0  0  0  0  0  0  0  0  0  0
    9.3422  -18.4540   24.8711 C   0  0  0  0  0  0  0  0  0  0  0  0
   10.7588  -18.6693   24.5393 C   0  0  2  0  0  0  0  0  0  0  0  0
   10.8137  -19.3918   23.2427 N   0  0  0  0  0  0  0  0  0  0  0  0
   11.4676  -19.4999   25.5472 C   0  0  0  0  0  0  0  0  0  0  0  0
   11.6874  -20.7296   25.4467 O   0  0  0  0  0  0  0  0  0  0  0  0
   11.9305  -18.8727   26.7141 O   0  0  0  0  0  0  0  0  0  0  0  0
  1  2  1  0
  3  2  1  0
  4  3  1  0
  5  4  1  0
  5  6  1  6
  7  5  1  0
  8  7  2  0
  9  7  1  0
 10  9  1  0
 11 21  1  0
 11 10  1  0
 12 11  2  0
 14 13  1  0
 15 14  2  0
 16 14  1  0
 17 16  1  0
 18 17  1  0
 20 19  1  1
 19 18  1  0
 20 21  1  0
 22 20  1  0
 23 22  2  0
 24 22  1  0
M  END
$$$$
