MGR.pdb
     RDKit          3D

 24 23  0  0  1  0  0  0  0  0999 V2000
    5.9781  -10.2692   27.1527 C   0  0  0  0  0  0  0  0  0  0  0  0
    6.9010  -11.2670   25.9514 S   0  0  0  0  0  0  0  0  0  0  0  0
    5.9906  -12.7840   25.5783 C   0  0  0  0  0  0  0  0  0  0  0  0
    6.6783  -13.4899   24.4272 C   0  0  0  0  0  0  0  0  0  0  0  0
    7.6670  -14.5202   24.9571 C   0  0  2  0  0  0  0  0  0  0  0  0
    8.7634  -13.9032   25.6401 N   0  0  0  0  0  0  0  0  0  0  0  0
    8.2132  -15.3096   23.7941 C   0  0  0  0  0  0  0  0  0  0  0  0
    7.5792  -16.2162   23.2243 O   0  0  0  0  0  0  0  0  0  0  0  0
    9.5438  -15.0134   23.2991 N   0  0  0  0  0  0  0  0  0  0  0  0
   10.1299  -15.8095   22.2640 C   0  0  0  0  0  0  0  0  0  0  0  0
   11.1039  -16.7684   22.7678 C   0  0  0  0  0  0  0  0  0  0  0  0
   12.3357  -16.4853   22.5240 O   0  0  0  0  0  0  0  0  0  0  0  0
   13.4651  -19.9624   29.3935 N   0  0  0  0  0  0  0  0  0  0  0  0
   12.2301  -20.6293   29.6962 C   0  0  0  0  0  0  0  0  0  0  0  0
   11.7054  -20.6227   30.8536 N   0  0  0  0  0  0  0  0  0  0  0  0
   11.5685  -21.3299   28.6360 N   0  0  0  0  0  0  0  0  0  0  0  0
   10.8784  -20.6736   27.5831 C   0  0  0  0  0  0  0  0  0  0  0  0
   11.6725  -19.8854   26.5967 C   0  0  0  0  0  0  0  0  0  0  0  0
   10.9571  -19.2221   25.4867 C   0  0  0  0  0  0  0  0  0  0  0  0
   11.7450  -18.4944   24.4801 C   0  0  2  0  0  0  0  0  0  0  0  0
   10.7972  -17.9401   23.4797 N   0  0  0  0  0  0  0  0  0  0  0  0
   12.7033  -19.3686   23.7553 C   0  0  0  0  0  0  0  0  0  0  0  0
   12.3940  -20.2230   22.8923 O   0  0  0  0  0  0  0  0  0  0  0  0
   14.0690  -19.2429   24.0531 O   0  0  0  0  0  0  0  0  0  0  0  0
  1  2  1  0
  3  2  1  0
  4  3  1  0
  5  4  1  0
  5  6  1  6
  7  5  1  0
  8  7  2  0
  9  7  1  0
 10  9  1  0
 11 21  1  0
 11 10  1  0
 12 11  2  0
 14 13  1  0
 15 14  2  0
 16 14  1  0
 17 16  1  0
 18 17  1  0
 20 19  1  1
 19 18  1  0
 20 21  1  0
 22 20  1  0
 23 22  2  0
 24 22  1  0
M  END
$$$$
