MGR.pdb
     RDKit          3D

 24 23  0  0  1  0  0  0  0  0999 V2000
    9.6912  -13.4229   18.2435 C   0  0  0  0  0  0  0  0  0  0  0  0
    8.3253  -12.2903   18.6202 S   0  0  0  0  0  0  0  0  0  0  0  0
    7.5453  -12.7601   20.1824 C   0  0  0  0  0  0  0  0  0  0  0  0
    7.9192  -14.1943   20.4973 C   0  0  0  0  0  0  0  0  0  0  0  0
    7.1858  -14.6673   21.7457 C   0  0  2  0  0  0  0  0  0  0  0  0
    6.9679  -13.5977   22.6719 N   0  0  0  0  0  0  0  0  0  0  0  0
    8.0194  -15.7241   22.4254 C   0  0  0  0  0  0  0  0  0  0  0  0
    7.9276  -16.9383   22.1685 O   0  0  0  0  0  0  0  0  0  0  0  0
    8.9830  -15.3267   23.4338 N   0  0  0  0  0  0  0  0  0  0  0  0
    9.8691  -16.2894   24.0141 C   0  0  0  0  0  0  0  0  0  0  0  0
    9.3608  -16.8517   25.2581 C   0  0  0  0  0  0  0  0  0  0  0  0
    8.6040  -16.0722   25.9487 O   0  0  0  0  0  0  0  0  0  0  0  0
    7.1548  -22.2572   23.0905 N   0  0  0  0  0  0  0  0  0  0  0  0
    5.8510  -21.7848   23.4626 C   0  0  0  0  0  0  0  0  0  0  0  0
    4.8780  -21.7240   22.6473 N   0  0  0  0  0  0  0  0  0  0  0  0
    5.6505  -21.3666   24.8181 N   0  0  0  0  0  0  0  0  0  0  0  0
    6.7023  -21.2782   25.7676 C   0  0  0  0  0  0  0  0  0  0  0  0
    7.3119  -19.9423   26.0293 C   0  0  0  0  0  0  0  0  0  0  0  0
    8.4847  -19.8673   26.9254 C   0  0  0  0  0  0  0  0  0  0  0  0
    9.1677  -18.5739   27.0798 C   0  0  2  0  0  0  0  0  0  0  0  0
    9.6311  -18.1451   25.7353 N   0  0  0  0  0  0  0  0  0  0  0  0
   10.3605  -18.6531   27.9624 C   0  0  0  0  0  0  0  0  0  0  0  0
   11.5510  -18.5675   27.5802 O   0  0  0  0  0  0  0  0  0  0  0  0
   10.1547  -18.8437   29.3374 O   0  0  0  0  0  0  0  0  0  0  0  0
  1  2  1  0
  3  2  1  0
  4  3  1  0
  5  4  1  0
  5  6  1  1
  7  5  1  0
  8  7  2  0
  9  7  1  0
 10  9  1  0
 11 21  1  0
 11 10  1  0
 12 11  2  0
 14 13  1  0
 15 14  2  0
 16 14  1  0
 17 16  1  0
 18 17  1  0
 20 19  1  6
 19 18  1  0
 20 21  1  0
 22 20  1  0
 23 22  2  0
 24 22  1  0
M  END
$$$$
