RVN.pdb
     RDKit          3D

 27 26  0  0  1  0  0  0  0  0999 V2000
   30.5171  -22.8020  -17.4643 N   0  0  0  0  0  0  0  0  0  0  0  0
   29.9292  -22.3339  -18.6694 C   0  0  0  0  0  0  0  0  0  0  0  0
   30.4272  -22.6712  -19.8208 N   0  0  0  0  0  0  0  0  0  0  0  0
   28.7845  -21.4856  -18.6615 N   0  0  0  0  0  0  0  0  0  0  0  0
   28.2332  -21.0119  -17.3902 C   0  0  0  0  0  0  0  0  0  0  0  0
   26.8186  -20.5631  -17.6759 C   0  0  0  0  0  0  0  0  0  0  0  0
   25.8094  -21.1224  -16.7304 C   0  0  0  0  0  0  0  0  0  0  0  0
   26.3749  -21.8705  -15.5626 C   0  0  2  0  0  0  0  0  0  0  0  0
   26.8599  -23.1596  -16.0887 N   0  0  0  0  0  0  0  0  0  0  0  0
   25.4182  -22.1349  -14.4899 C   0  0  0  0  0  0  0  0  0  0  0  0
   24.5875  -23.0694  -14.6200 O   0  0  0  0  0  0  0  0  0  0  0  0
   29.9571  -22.3680  -20.7010 C   0  0  0  0  0  0  0  0  0  0  0  0
   26.2223  -21.1471  -10.5656 C   0  0  1  0  0  0  0  0  0  0  0  0
   24.9394  -20.5624  -11.1109 C   0  0  0  0  0  0  0  0  0  0  0  0
   23.9048  -20.4585  -10.0258 C   0  0  2  0  0  0  0  0  0  0  0  0
   24.4521  -21.4704  -12.2499 N   0  0  0  0  0  0  0  0  0  0  0  0
   25.4090  -21.3579  -13.3049 C   0  0  0  0  0  0  0  0  0  0  0  0
   23.1402  -20.8885  -12.6743 O   0  0  0  0  0  0  0  0  0  0  0  0
   23.0899  -19.7291  -13.2044 N   0  0  0  0  0  0  0  0  0  0  0  0
   18.0690  -21.0791  -15.1424 C   0  0  0  0  0  0  0  0  0  0  0  0
   18.3584  -21.3191  -13.7846 O   0  0  0  0  0  0  0  0  0  0  0  0
   17.5414  -20.9858  -12.9092 C   0  0  0  0  0  0  0  0  0  0  0  0
   19.6262  -21.9633  -13.4119 C   0  0  1  0  0  0  0  0  0  0  0  0
   20.6958  -20.9986  -13.0367 N   0  0  0  0  0  0  0  0  0  0  0  0
   21.9012  -21.5561  -12.5243 C   0  0  0  0  0  0  0  0  0  0  0  0
   20.1274  -20.1033  -11.9655 O   0  0  0  0  0  0  0  0  0  0  0  0
   20.2795  -20.3535  -10.7406 O   0  0  0  0  0  0  0  0  0  0  0  0
  2  1  1  0
  3  2  2  0
  4  2  1  0
  5  4  1  0
  6  5  1  0
  7  6  1  0
  8  7  1  0
  8  9  1  6
 10 16  1  0
 10  8  1  0
 11 10  2  0
 13 12  1  1
 13 14  1  0
 15 16  1  1
 15 13  1  0
 17 15  1  0
 18 17  2  0
 20 19  1  0
 21 20  2  0
 22 20  1  0
 23 22  1  6
 23 24  1  0
 24 17  1  0
 25 23  1  0
 26 25  2  0
 27 25  1  0
M  END
$$$$
