RVN.pdb
     RDKit          3D

 27 26  0  0  1  0  0  0  0  0999 V2000
   21.1183  -27.6428  -10.6554 N   0  0  0  0  0  0  0  0  0  0  0  0
   20.5106  -27.1137  -11.8249 C   0  0  0  0  0  0  0  0  0  0  0  0
   21.1450  -27.1196  -12.9584 N   0  0  0  0  0  0  0  0  0  0  0  0
   19.1972  -26.5618  -11.7995 N   0  0  0  0  0  0  0  0  0  0  0  0
   18.4400  -26.5316  -10.5464 C   0  0  0  0  0  0  0  0  0  0  0  0
   17.9334  -27.9368  -10.3164 C   0  0  0  0  0  0  0  0  0  0  0  0
   18.6255  -28.6491   -9.2034 C   0  0  0  0  0  0  0  0  0  0  0  0
   17.7219  -29.3304   -8.2224 C   0  0  2  0  0  0  0  0  0  0  0  0
   16.9347  -30.3111   -8.9921 N   0  0  0  0  0  0  0  0  0  0  0  0
   16.7995  -28.4370   -7.5244 C   0  0  0  0  0  0  0  0  0  0  0  0
   15.6297  -28.2933   -7.9615 O   0  0  0  0  0  0  0  0  0  0  0  0
   20.6949  -26.7193  -13.8097 C   0  0  0  0  0  0  0  0  0  0  0  0
   16.3212  -25.5565   -3.5010 C   0  0  1  0  0  0  0  0  0  0  0  0
   17.1515  -26.5275   -4.3090 C   0  0  0  0  0  0  0  0  0  0  0  0
   18.4669  -25.9074   -4.6880 C   0  0  2  0  0  0  0  0  0  0  0  0
   16.3456  -26.9137   -5.5582 N   0  0  0  0  0  0  0  0  0  0  0  0
   17.1986  -27.7294   -6.3633 C   0  0  0  0  0  0  0  0  0  0  0  0
   16.0611  -25.6178   -6.2509 O   0  0  0  0  0  0  0  0  0  0  0  0
   17.0063  -24.9562   -6.7955 N   0  0  0  0  0  0  0  0  0  0  0  0
   13.9448  -22.5181  -10.2632 C   0  0  0  0  0  0  0  0  0  0  0  0
   13.3491  -22.7967   -9.0172 O   0  0  0  0  0  0  0  0  0  0  0  0
   12.5669  -21.9761   -8.5077 C   0  0  0  0  0  0  0  0  0  0  0  0
   13.6568  -24.0579   -8.3274 C   0  0  1  0  0  0  0  0  0  0  0  0
   14.5328  -23.8861   -7.1363 N   0  0  0  0  0  0  0  0  0  0  0  0
   14.7688  -25.0489   -6.3498 C   0  0  0  0  0  0  0  0  0  0  0  0
   13.8688  -22.8700   -6.2426 O   0  0  0  0  0  0  0  0  0  0  0  0
   13.4882  -23.1580   -5.0771 O   0  0  0  0  0  0  0  0  0  0  0  0
  2  1  1  0
  3  2  2  0
  4  2  1  0
  5  4  1  0
  6  5  1  0
  7  6  1  0
  8  7  1  0
  8  9  1  6
 10 16  1  0
 10  8  1  0
 11 10  2  0
 13 12  1  1
 13 14  1  0
 15 16  1  6
 15 13  1  0
 17 15  1  0
 18 17  2  0
 20 19  1  0
 21 20  2  0
 22 20  1  0
 23 22  1  6
 23 24  1  0
 24 17  1  0
 25 23  1  0
 26 25  2  0
 27 25  1  0
M  END
$$$$
