RVN.pdb
     RDKit          3D

 27 26  0  0  1  0  0  0  0  0999 V2000
   15.3899  -16.5173  -15.4168 N   0  0  0  0  0  0  0  0  0  0  0  0
   15.7916  -17.4402  -16.4188 C   0  0  0  0  0  0  0  0  0  0  0  0
   15.7296  -18.7193  -16.2006 N   0  0  0  0  0  0  0  0  0  0  0  0
   16.2733  -17.0033  -17.6866 N   0  0  0  0  0  0  0  0  0  0  0  0
   16.3421  -15.5723  -17.9900 C   0  0  0  0  0  0  0  0  0  0  0  0
   17.8091  -15.2108  -18.0264 C   0  0  0  0  0  0  0  0  0  0  0  0
   18.2161  -14.2480  -16.9623 C   0  0  0  0  0  0  0  0  0  0  0  0
   18.8196  -12.9691  -17.4557 C   0  0  2  0  0  0  0  0  0  0  0  0
   19.8572  -13.3474  -18.4324 N   0  0  0  0  0  0  0  0  0  0  0  0
   19.4356  -12.1474  -16.4158 C   0  0  0  0  0  0  0  0  0  0  0  0
   18.7494  -11.7874  -15.4260 O   0  0  0  0  0  0  0  0  0  0  0  0
   15.9914  -19.3900  -16.9551 C   0  0  0  0  0  0  0  0  0  0  0  0
   23.7184  -10.5700  -14.5669 C   0  0  2  0  0  0  0  0  0  0  0  0
   22.9724  -11.3236  -15.6441 C   0  0  0  0  0  0  0  0  0  0  0  0
   23.5131  -10.9744  -17.0022 C   0  0  2  0  0  0  0  0  0  0  0  0
   21.4848  -10.9575  -15.5339 N   0  0  0  0  0  0  0  0  0  0  0  0
   20.7927  -11.7485  -16.5018 C   0  0  0  0  0  0  0  0  0  0  0  0
   21.4148   -9.5084  -15.9015 O   0  0  0  0  0  0  0  0  0  0  0  0
   21.9130   -9.0970  -17.0016 N   0  0  0  0  0  0  0  0  0  0  0  0
   19.4554   -7.8539  -17.8107 C   0  0  0  0  0  0  0  0  0  0  0  0
   18.7742   -6.9974  -16.9233 O   0  0  0  0  0  0  0  0  0  0  0  0
   17.6201   -6.6210  -17.1898 C   0  0  0  0  0  0  0  0  0  0  0  0
   19.4339   -6.5545  -15.6865 C   0  0  2  0  0  0  0  0  0  0  0  0
   20.7809   -7.1543  -15.4831 N   0  0  0  0  0  0  0  0  0  0  0  0
   20.8129   -8.5208  -15.0856 C   0  0  0  0  0  0  0  0  0  0  0  0
   21.4600   -6.3578  -14.3985 O   0  0  0  0  0  0  0  0  0  0  0  0
   21.7700   -6.8720  -13.2915 O   0  0  0  0  0  0  0  0  0  0  0  0
  2  1  1  0
  3  2  2  0
  4  2  1  0
  5  4  1  0
  6  5  1  0
  7  6  1  0
  8  7  1  0
  8  9  1  6
 10 16  1  0
 10  8  1  0
 11 10  2  0
 13 12  1  1
 13 14  1  0
 15 16  1  6
 15 13  1  0
 17 15  1  0
 18 17  2  0
 20 19  1  0
 21 20  2  0
 22 20  1  0
 23 22  1  6
 23 24  1  0
 24 17  1  0
 25 23  1  0
 26 25  2  0
 27 25  1  0
M  END
$$$$
