RVN.pdb
     RDKit          3D

 27 26  0  0  1  0  0  0  0  0999 V2000
   16.9814  -19.5127  -15.8726 N   0  0  0  0  0  0  0  0  0  0  0  0
   18.0627  -18.7138  -16.3304 C   0  0  0  0  0  0  0  0  0  0  0  0
   18.2749  -18.5571  -17.6024 N   0  0  0  0  0  0  0  0  0  0  0  0
   18.9464  -18.0620  -15.4224 N   0  0  0  0  0  0  0  0  0  0  0  0
   19.8527  -18.8535  -14.5876 C   0  0  0  0  0  0  0  0  0  0  0  0
   20.0978  -20.1484  -15.3275 C   0  0  0  0  0  0  0  0  0  0  0  0
   20.9812  -21.1003  -14.5937 C   0  0  0  0  0  0  0  0  0  0  0  0
   21.5883  -20.5654  -13.3334 C   0  0  2  0  0  0  0  0  0  0  0  0
   22.9877  -20.2304  -13.6544 N   0  0  0  0  0  0  0  0  0  0  0  0
   21.5786  -21.5005  -12.2102 C   0  0  0  0  0  0  0  0  0  0  0  0
   21.7998  -22.7200  -12.4202 O   0  0  0  0  0  0  0  0  0  0  0  0
   19.0448  -17.9342  -17.9294 C   0  0  0  0  0  0  0  0  0  0  0  0
   21.4495  -19.7266   -8.5492 C   0  0  1  0  0  0  0  0  0  0  0  0
   22.0536  -21.1104   -8.6223 C   0  0  0  0  0  0  0  0  0  0  0  0
   23.5264  -21.0277   -8.9100 C   0  0  1  0  0  0  0  0  0  0  0  0
   21.3209  -21.8888   -9.7252 N   0  0  0  0  0  0  0  0  0  0  0  0
   21.3247  -21.0586  -10.8880 C   0  0  0  0  0  0  0  0  0  0  0  0
   19.9246  -22.0612   -9.2146 O   0  0  0  0  0  0  0  0  0  0  0  0
   18.9459  -21.5001   -9.8103 N   0  0  0  0  0  0  0  0  0  0  0  0
   16.5183  -23.5051  -10.0149 C   0  0  0  0  0  0  0  0  0  0  0  0
   17.4277  -24.5734  -10.1452 O   0  0  0  0  0  0  0  0  0  0  0  0
   17.3410  -25.3452  -11.1155 C   0  0  0  0  0  0  0  0  0  0  0  0
   18.4744  -24.7678   -9.1315 C   0  0  2  0  0  0  0  0  0  0  0  0
   18.4830  -23.7180   -8.0764 N   0  0  0  0  0  0  0  0  0  0  0  0
   19.5968  -22.8314   -8.0732 C   0  0  0  0  0  0  0  0  0  0  0  0
   18.4738  -24.4278   -6.7468 O   0  0  0  0  0  0  0  0  0  0  0  0
   17.4289  -24.9557   -6.2825 O   0  0  0  0  0  0  0  0  0  0  0  0
  2  1  1  0
  3  2  2  0
  4  2  1  0
  5  4  1  0
  6  5  1  0
  7  6  1  0
  8  7  1  0
  8  9  1  6
 10 16  1  0
 10  8  1  0
 11 10  2  0
 13 12  1  1
 13 14  1  0
 15 16  1  6
 15 13  1  0
 17 15  1  0
 18 17  2  0
 20 19  1  0
 21 20  2  0
 22 20  1  0
 23 22  1  6
 23 24  1  0
 24 17  1  0
 25 23  1  0
 26 25  2  0
 27 25  1  0
M  END
$$$$
