RVN.pdb
     RDKit          3D

 27 26  0  0  1  0  0  0  0  0999 V2000
   28.0900  -18.1093  -19.6928 N   0  0  0  0  0  0  0  0  0  0  0  0
   27.2821  -18.6706  -20.7171 C   0  0  0  0  0  0  0  0  0  0  0  0
   27.8060  -19.0210  -21.8530 N   0  0  0  0  0  0  0  0  0  0  0  0
   25.8820  -18.8677  -20.5402 N   0  0  0  0  0  0  0  0  0  0  0  0
   25.2411  -18.4784  -19.2824 C   0  0  0  0  0  0  0  0  0  0  0  0
   24.5324  -19.7079  -18.7626 C   0  0  0  0  0  0  0  0  0  0  0  0
   24.8829  -20.0517  -17.3540 C   0  0  0  0  0  0  0  0  0  0  0  0
   26.1810  -20.7777  -17.1785 C   0  0  2  0  0  0  0  0  0  0  0  0
   26.1610  -21.9034  -18.1305 N   0  0  0  0  0  0  0  0  0  0  0  0
   26.4036  -21.3076  -15.8347 C   0  0  0  0  0  0  0  0  0  0  0  0
   25.8462  -22.3817  -15.4944 O   0  0  0  0  0  0  0  0  0  0  0  0
   27.1916  -19.3299  -22.6371 C   0  0  0  0  0  0  0  0  0  0  0  0
   29.0411  -20.7607  -11.6782 C   0  0  2  0  0  0  0  0  0  0  0  0
   28.7854  -20.3770  -13.1179 C   0  0  0  0  0  0  0  0  0  0  0  0
   28.7036  -18.8829  -13.2583 C   0  0  2  0  0  0  0  0  0  0  0  0
   27.4738  -21.0432  -13.5593 N   0  0  0  0  0  0  0  0  0  0  0  0
   27.2365  -20.6335  -14.9074 C   0  0  0  0  0  0  0  0  0  0  0  0
   26.4273  -20.4759  -12.6522 O   0  0  0  0  0  0  0  0  0  0  0  0
   26.0246  -19.2747  -12.8034 N   0  0  0  0  0  0  0  0  0  0  0  0
   22.4542  -19.2531  -11.0052 C   0  0  0  0  0  0  0  0  0  0  0  0
   22.3832  -20.6155  -10.6533 O   0  0  0  0  0  0  0  0  0  0  0  0
   21.2760  -21.1541  -10.4834 C   0  0  0  0  0  0  0  0  0  0  0  0
   23.6208  -21.3920  -10.4899 C   0  0  2  0  0  0  0  0  0  0  0  0
   24.8565  -20.6025  -10.7456 N   0  0  0  0  0  0  0  0  0  0  0  0
   25.8276  -21.2026  -11.5960 C   0  0  0  0  0  0  0  0  0  0  0  0
   25.5157  -20.3690   -9.4104 O   0  0  0  0  0  0  0  0  0  0  0  0
   26.4729  -21.0817   -9.0080 O   0  0  0  0  0  0  0  0  0  0  0  0
  2  1  1  0
  3  2  2  0
  4  2  1  0
  5  4  1  0
  6  5  1  0
  7  6  1  0
  8  7  1  0
  8  9  1  6
 10 16  1  0
 10  8  1  0
 11 10  2  0
 13 12  1  6
 13 14  1  0
 15 16  1  1
 15 13  1  0
 17 15  1  0
 18 17  2  0
 20 19  1  0
 21 20  2  0
 22 20  1  0
 23 22  1  6
 23 24  1  0
 24 17  1  0
 25 23  1  0
 26 25  2  0
 27 25  1  0
M  END
$$$$
