RVN.pdb
     RDKit          3D

 27 26  0  0  1  0  0  0  0  0999 V2000
   28.1257  -30.7492  -16.4607 N   0  0  0  0  0  0  0  0  0  0  0  0
   28.9946  -30.6499  -17.5797 C   0  0  0  0  0  0  0  0  0  0  0  0
   29.7355  -31.6573  -17.9311 N   0  0  0  0  0  0  0  0  0  0  0  0
   29.0863  -29.4548  -18.3501 N   0  0  0  0  0  0  0  0  0  0  0  0
   28.2270  -28.3120  -18.0335 C   0  0  0  0  0  0  0  0  0  0  0  0
   28.8505  -27.6227  -16.8417 C   0  0  0  0  0  0  0  0  0  0  0  0
   28.1113  -26.4052  -16.3986 C   0  0  0  0  0  0  0  0  0  0  0  0
   28.1392  -25.2568  -17.3595 C   0  0  2  0  0  0  0  0  0  0  0  0
   29.4767  -24.6476  -17.2422 N   0  0  0  0  0  0  0  0  0  0  0  0
   27.1339  -24.2270  -17.1046 C   0  0  0  0  0  0  0  0  0  0  0  0
   26.7316  -24.0345  -15.9293 O   0  0  0  0  0  0  0  0  0  0  0  0
   30.3187  -31.5995  -18.7938 C   0  0  0  0  0  0  0  0  0  0  0  0
   24.9530  -20.2442  -18.9906 C   0  0  1  0  0  0  0  0  0  0  0  0
   26.0786  -21.2514  -18.9312 C   0  0  0  0  0  0  0  0  0  0  0  0
   26.3991  -21.7650  -20.3067 C   0  0  2  0  0  0  0  0  0  0  0  0
   25.6410  -22.3959  -18.0051 N   0  0  0  0  0  0  0  0  0  0  0  0
   26.6037  -23.4406  -18.1575 C   0  0  0  0  0  0  0  0  0  0  0  0
   24.3110  -22.8341  -18.5335 O   0  0  0  0  0  0  0  0  0  0  0  0
   24.2101  -23.3086  -19.7135 N   0  0  0  0  0  0  0  0  0  0  0  0
   19.6036  -24.4117  -19.3779 C   0  0  0  0  0  0  0  0  0  0  0  0
   19.7250  -24.4089  -17.9743 O   0  0  0  0  0  0  0  0  0  0  0  0
   18.8177  -24.8891  -17.2735 C   0  0  0  0  0  0  0  0  0  0  0  0
   20.9257  -23.8379  -17.3472 C   0  0  2  0  0  0  0  0  0  0  0  0
   21.8809  -23.2442  -18.3223 N   0  0  0  0  0  0  0  0  0  0  0  0
   23.1085  -22.7572  -17.7910 C   0  0  0  0  0  0  0  0  0  0  0  0
   21.1814  -22.0776  -18.9715 O   0  0  0  0  0  0  0  0  0  0  0  0
   21.2428  -20.9149  -18.4914 O   0  0  0  0  0  0  0  0  0  0  0  0
  2  1  1  0
  3  2  2  0
  4  2  1  0
  5  4  1  0
  6  5  1  0
  7  6  1  0
  8  7  1  0
  8  9  1  1
 10 16  1  0
 10  8  1  0
 11 10  2  0
 13 12  1  6
 13 14  1  0
 15 16  1  6
 15 13  1  0
 17 15  1  0
 18 17  2  0
 20 19  1  0
 21 20  2  0
 22 20  1  0
 23 22  1  6
 23 24  1  0
 24 17  1  0
 25 23  1  0
 26 25  2  0
 27 25  1  0
M  END
$$$$
