RVN.pdb
     RDKit          3D

 27 26  0  0  1  0  0  0  0  0999 V2000
   22.2218  -26.4669  -17.7765 N   0  0  0  0  0  0  0  0  0  0  0  0
   22.1379  -27.8761  -17.6209 C   0  0  0  0  0  0  0  0  0  0  0  0
   22.5504  -28.6695  -18.5630 N   0  0  0  0  0  0  0  0  0  0  0  0
   21.6034  -28.4664  -16.4393 N   0  0  0  0  0  0  0  0  0  0  0  0
   21.0393  -27.6176  -15.3877 C   0  0  0  0  0  0  0  0  0  0  0  0
   22.2015  -27.1536  -14.5403 C   0  0  0  0  0  0  0  0  0  0  0  0
   21.8034  -26.2607  -13.4137 C   0  0  0  0  0  0  0  0  0  0  0  0
   20.8443  -25.1682  -13.7737 C   0  0  2  0  0  0  0  0  0  0  0  0
   21.5608  -24.2730  -14.7004 N   0  0  0  0  0  0  0  0  0  0  0  0
   20.3680  -24.3799  -12.6388 C   0  0  0  0  0  0  0  0  0  0  0  0
   21.1811  -23.6672  -11.9976 O   0  0  0  0  0  0  0  0  0  0  0  0
   22.5419  -29.7020  -18.4159 C   0  0  0  0  0  0  0  0  0  0  0  0
   16.2697  -24.3448  -12.0783 C   0  0  1  0  0  0  0  0  0  0  0  0
   17.0814  -23.1677  -11.5878 C   0  0  0  0  0  0  0  0  0  0  0  0
   17.2290  -22.1401  -12.6745 C   0  0  1  0  0  0  0  0  0  0  0  0
   18.4528  -23.6931  -11.1380 N   0  0  0  0  0  0  0  0  0  0  0  0
   19.0063  -24.4032  -12.2473 C   0  0  0  0  0  0  0  0  0  0  0  0
   18.1562  -24.6354  -10.0137 O   0  0  0  0  0  0  0  0  0  0  0  0
   17.9398  -25.8709  -10.2474 N   0  0  0  0  0  0  0  0  0  0  0  0
   17.1774  -26.8909   -5.5471 C   0  0  0  0  0  0  0  0  0  0  0  0
   18.0354  -25.8183   -5.2333 O   0  0  0  0  0  0  0  0  0  0  0  0
   18.4634  -25.6867   -4.0738 C   0  0  0  0  0  0  0  0  0  0  0  0
   18.4195  -24.8611   -6.2809 C   0  0  1  0  0  0  0  0  0  0  0  0
   17.8629  -25.1912   -7.6213 N   0  0  0  0  0  0  0  0  0  0  0  0
   18.0952  -24.2412   -8.6557 C   0  0  0  0  0  0  0  0  0  0  0  0
   16.3697  -25.3195   -7.4602 O   0  0  0  0  0  0  0  0  0  0  0  0
   15.5914  -24.3560   -7.6882 O   0  0  0  0  0  0  0  0  0  0  0  0
  2  1  1  0
  3  2  2  0
  4  2  1  0
  5  4  1  0
  6  5  1  0
  7  6  1  0
  8  7  1  0
  8  9  1  6
 10 16  1  0
 10  8  1  0
 11 10  2  0
 13 12  1  1
 13 14  1  0
 15 16  1  6
 15 13  1  0
 17 15  1  0
 18 17  2  0
 20 19  1  0
 21 20  2  0
 22 20  1  0
 23 22  1  6
 23 24  1  0
 24 17  1  0
 25 23  1  0
 26 25  2  0
 27 25  1  0
M  END
$$$$
