RVN.pdb
     RDKit          3D

 27 26  0  0  1  0  0  0  0  0999 V2000
   32.3003  -23.1733  -13.0747 N   0  0  0  0  0  0  0  0  0  0  0  0
   32.7464  -22.2768  -12.0675 C   0  0  0  0  0  0  0  0  0  0  0  0
   33.7492  -22.5893  -11.3033 N   0  0  0  0  0  0  0  0  0  0  0  0
   32.1174  -21.0154  -11.8586 N   0  0  0  0  0  0  0  0  0  0  0  0
   30.6563  -20.9219  -11.8295 C   0  0  0  0  0  0  0  0  0  0  0  0
   30.2524  -20.1232  -13.0474 C   0  0  0  0  0  0  0  0  0  0  0  0
   28.8775  -20.4307  -13.5374 C   0  0  0  0  0  0  0  0  0  0  0  0
   28.3664  -21.7949  -13.1896 C   0  0  2  0  0  0  0  0  0  0  0  0
   28.7385  -22.6776  -14.3104 N   0  0  0  0  0  0  0  0  0  0  0  0
   26.9196  -21.8705  -12.9972 C   0  0  0  0  0  0  0  0  0  0  0  0
   26.1988  -22.3426  -13.9125 O   0  0  0  0  0  0  0  0  0  0  0  0
   34.0384  -21.9470  -10.5342 C   0  0  0  0  0  0  0  0  0  0  0  0
   23.9292  -19.5897  -10.3257 C   0  0  1  0  0  0  0  0  0  0  0  0
   24.7252  -20.8576  -10.1161 C   0  0  0  0  0  0  0  0  0  0  0  0
   26.0478  -20.5490   -9.4725 C   0  0  1  0  0  0  0  0  0  0  0  0
   24.9226  -21.5242  -11.4857 N   0  0  0  0  0  0  0  0  0  0  0  0
   26.3131  -21.4218  -11.7976 C   0  0  0  0  0  0  0  0  0  0  0  0
   24.1146  -20.6990  -12.4376 O   0  0  0  0  0  0  0  0  0  0  0  0
   24.4518  -19.4957  -12.6952 N   0  0  0  0  0  0  0  0  0  0  0  0
   20.7342  -18.6882  -15.6417 C   0  0  0  0  0  0  0  0  0  0  0  0
   20.7638  -20.0610  -15.9571 O   0  0  0  0  0  0  0  0  0  0  0  0
   20.1913  -20.4735  -16.9803 C   0  0  0  0  0  0  0  0  0  0  0  0
   21.4730  -20.9973  -15.0731 C   0  0  2  0  0  0  0  0  0  0  0  0
   22.1999  -20.3291  -13.9593 N   0  0  0  0  0  0  0  0  0  0  0  0
   22.9570  -21.1738  -13.0993 C   0  0  0  0  0  0  0  0  0  0  0  0
   21.1654  -19.6379  -13.1085 O   0  0  0  0  0  0  0  0  0  0  0  0
   20.8429  -20.0715  -11.9709 O   0  0  0  0  0  0  0  0  0  0  0  0
  2  1  1  0
  3  2  2  0
  4  2  1  0
  5  4  1  0
  6  5  1  0
  7  6  1  0
  8  7  1  0
  8  9  1  6
 10 16  1  0
 10  8  1  0
 11 10  2  0
 13 12  1  1
 13 14  1  0
 15 16  1  6
 15 13  1  0
 17 15  1  0
 18 17  2  0
 20 19  1  0
 21 20  2  0
 22 20  1  0
 23 22  1  6
 23 24  1  0
 24 17  1  0
 25 23  1  0
 26 25  2  0
 27 25  1  0
M  END
$$$$
