RVN.pdb
     RDKit          3D

 27 26  0  0  1  0  0  0  0  0999 V2000
   20.6609  -22.8174   -6.9345 N   0  0  0  0  0  0  0  0  0  0  0  0
   20.3917  -21.8145   -7.9034 C   0  0  0  0  0  0  0  0  0  0  0  0
   19.1951  -21.6694   -8.3877 N   0  0  0  0  0  0  0  0  0  0  0  0
   21.4123  -20.9400   -8.3763 N   0  0  0  0  0  0  0  0  0  0  0  0
   22.8146  -21.2072   -8.0496 C   0  0  0  0  0  0  0  0  0  0  0  0
   23.4670  -21.6950   -9.3226 C   0  0  0  0  0  0  0  0  0  0  0  0
   23.7661  -20.6070  -10.2983 C   0  0  0  0  0  0  0  0  0  0  0  0
   24.2389  -21.0676  -11.6426 C   0  0  2  0  0  0  0  0  0  0  0  0
   25.4432  -21.8839  -11.4038 N   0  0  0  0  0  0  0  0  0  0  0  0
   24.5824  -19.9896  -12.5678 C   0  0  0  0  0  0  0  0  0  0  0  0
   23.7413  -19.0850  -12.8013 O   0  0  0  0  0  0  0  0  0  0  0  0
   19.0108  -20.9424   -9.1124 C   0  0  0  0  0  0  0  0  0  0  0  0
   28.0628  -20.5036  -14.8440 C   0  0  1  0  0  0  0  0  0  0  0  0
   27.7694  -19.1105  -14.3356 C   0  0  0  0  0  0  0  0  0  0  0  0
   28.4697  -18.8686  -13.0281 C   0  0  1  0  0  0  0  0  0  0  0  0
   26.2476  -18.9754  -14.1774 N   0  0  0  0  0  0  0  0  0  0  0  0
   25.8463  -19.9441  -13.2069 C   0  0  0  0  0  0  0  0  0  0  0  0
   25.6867  -19.3227  -15.5208 O   0  0  0  0  0  0  0  0  0  0  0  0
   25.5943  -20.5417  -15.8859 N   0  0  0  0  0  0  0  0  0  0  0  0
   21.2020  -19.9296  -18.2939 C   0  0  0  0  0  0  0  0  0  0  0  0
   21.9347  -18.7275  -18.2390 O   0  0  0  0  0  0  0  0  0  0  0  0
   21.8030  -17.8806  -19.1392 C   0  0  0  0  0  0  0  0  0  0  0  0
   22.8510  -18.4824  -17.1159 C   0  0  1  0  0  0  0  0  0  0  0  0
   24.2834  -18.6965  -17.4591 N   0  0  0  0  0  0  0  0  0  0  0  0
   25.2334  -18.3598  -16.4539 C   0  0  0  0  0  0  0  0  0  0  0  0
   24.5826  -17.8382  -18.6615 O   0  0  0  0  0  0  0  0  0  0  0  0
   24.8797  -16.6194  -18.5507 O   0  0  0  0  0  0  0  0  0  0  0  0
  2  1  1  0
  3  2  2  0
  4  2  1  0
  5  4  1  0
  6  5  1  0
  7  6  1  0
  8  7  1  0
  8  9  1  1
 10 16  1  0
 10  8  1  0
 11 10  2  0
 13 12  1  6
 13 14  1  0
 15 16  1  1
 15 13  1  0
 17 15  1  0
 18 17  2  0
 20 19  1  0
 21 20  2  0
 22 20  1  0
 23 22  1  1
 23 24  1  0
 24 17  1  0
 25 23  1  0
 26 25  2  0
 27 25  1  0
M  END
$$$$
