RVN.pdb
     RDKit          3D

 27 26  0  0  1  0  0  0  0  0999 V2000
   33.3404  -24.7075  -15.2203 N   0  0  0  0  0  0  0  0  0  0  0  0
   32.9649  -25.3059  -16.4524 C   0  0  0  0  0  0  0  0  0  0  0  0
   33.3826  -26.4962  -16.7621 N   0  0  0  0  0  0  0  0  0  0  0  0
   32.1260  -24.6306  -17.3854 N   0  0  0  0  0  0  0  0  0  0  0  0
   31.5278  -23.3413  -17.0324 C   0  0  0  0  0  0  0  0  0  0  0  0
   30.7970  -23.5499  -15.7260 C   0  0  0  0  0  0  0  0  0  0  0  0
   30.0415  -22.3499  -15.2633 C   0  0  0  0  0  0  0  0  0  0  0  0
   28.6111  -22.2879  -15.7028 C   0  0  2  0  0  0  0  0  0  0  0  0
   28.4530  -21.0144  -16.4288 N   0  0  0  0  0  0  0  0  0  0  0  0
   27.6385  -22.3267  -14.6125 C   0  0  0  0  0  0  0  0  0  0  0  0
   27.6982  -23.2528  -13.7646 O   0  0  0  0  0  0  0  0  0  0  0  0
   33.1103  -26.9233  -17.6738 C   0  0  0  0  0  0  0  0  0  0  0  0
   25.9597  -18.8137  -13.7051 C   0  0  1  0  0  0  0  0  0  0  0  0
   25.9790  -19.9308  -12.6868 C   0  0  0  0  0  0  0  0  0  0  0  0
   27.3105  -19.9874  -11.9922 C   0  0  1  0  0  0  0  0  0  0  0  0
   25.6864  -21.2468  -13.4227 N   0  0  0  0  0  0  0  0  0  0  0  0
   26.6290  -21.3395  -14.4924 C   0  0  0  0  0  0  0  0  0  0  0  0
   24.3002  -21.0873  -13.9642 O   0  0  0  0  0  0  0  0  0  0  0  0
   24.1154  -20.6187  -15.1364 N   0  0  0  0  0  0  0  0  0  0  0  0
   19.3390  -21.0410  -14.9799 C   0  0  0  0  0  0  0  0  0  0  0  0
   19.4288  -21.8380  -13.8216 O   0  0  0  0  0  0  0  0  0  0  0  0
   18.4131  -22.3988  -13.3758 C   0  0  0  0  0  0  0  0  0  0  0  0
   20.7250  -22.0016  -13.1476 C   0  0  2  0  0  0  0  0  0  0  0  0
   21.8382  -21.2719  -13.8138 N   0  0  0  0  0  0  0  0  0  0  0  0
   23.1323  -21.4313  -13.2425 C   0  0  0  0  0  0  0  0  0  0  0  0
   21.5019  -19.8038  -13.7549 O   0  0  0  0  0  0  0  0  0  0  0  0
   21.9059  -19.0666  -12.8171 O   0  0  0  0  0  0  0  0  0  0  0  0
  2  1  1  0
  3  2  2  0
  4  2  1  0
  5  4  1  0
  6  5  1  0
  7  6  1  0
  8  7  1  0
  8  9  1  1
 10 16  1  0
 10  8  1  0
 11 10  2  0
 13 12  1  1
 13 14  1  0
 15 16  1  6
 15 13  1  0
 17 15  1  0
 18 17  2  0
 20 19  1  0
 21 20  2  0
 22 20  1  0
 23 22  1  6
 23 24  1  0
 24 17  1  0
 25 23  1  0
 26 25  2  0
 27 25  1  0
M  END
$$$$
