RVN.pdb
     RDKit          3D

 27 26  0  0  1  0  0  0  0  0999 V2000
   25.0152  -19.7630  -21.1005 N   0  0  0  0  0  0  0  0  0  0  0  0
   25.5110  -18.5889  -20.4739 C   0  0  0  0  0  0  0  0  0  0  0  0
   25.3060  -17.4211  -21.0046 N   0  0  0  0  0  0  0  0  0  0  0  0
   26.2444  -18.6465  -19.2536 N   0  0  0  0  0  0  0  0  0  0  0  0
   26.5012  -19.9387  -18.6143 C   0  0  0  0  0  0  0  0  0  0  0  0
   25.1546  -20.4942  -18.2115 C   0  0  0  0  0  0  0  0  0  0  0  0
   24.8405  -20.3151  -16.7643 C   0  0  0  0  0  0  0  0  0  0  0  0
   25.7188  -21.0786  -15.8215 C   0  0  2  0  0  0  0  0  0  0  0  0
   26.3640  -22.1380  -16.6184 N   0  0  0  0  0  0  0  0  0  0  0  0
   25.0129  -21.7008  -14.7032 C   0  0  0  0  0  0  0  0  0  0  0  0
   24.3092  -22.7220  -14.9087 O   0  0  0  0  0  0  0  0  0  0  0  0
   25.7389  -16.5725  -20.5802 C   0  0  0  0  0  0  0  0  0  0  0  0
   25.1278  -19.5989  -11.0083 C   0  0  1  0  0  0  0  0  0  0  0  0
   24.9581  -21.1010  -11.0159 C   0  0  0  0  0  0  0  0  0  0  0  0
   26.2947  -21.7826  -10.9294 C   0  0  1  0  0  0  0  0  0  0  0  0
   24.2264  -21.4879  -12.3098 N   0  0  0  0  0  0  0  0  0  0  0  0
   25.1068  -21.1750  -13.3907 C   0  0  0  0  0  0  0  0  0  0  0  0
   23.0192  -20.6041  -12.3506 O   0  0  0  0  0  0  0  0  0  0  0  0
   22.9297  -19.6739  -13.2192 N   0  0  0  0  0  0  0  0  0  0  0  0
   18.3265  -19.9137  -14.5077 C   0  0  0  0  0  0  0  0  0  0  0  0
   19.1064  -19.2941  -13.5113 O   0  0  0  0  0  0  0  0  0  0  0  0
   18.6498  -18.3250  -12.8812 C   0  0  0  0  0  0  0  0  0  0  0  0
   20.4566  -19.7991  -13.2230 C   0  0  2  0  0  0  0  0  0  0  0  0
   20.6208  -20.2962  -11.8297 N   0  0  0  0  0  0  0  0  0  0  0  0
   21.9258  -20.7288  -11.4606 C   0  0  0  0  0  0  0  0  0  0  0  0
   19.6975  -21.4768  -11.6702 O   0  0  0  0  0  0  0  0  0  0  0  0
   18.5645  -21.3663  -11.1314 O   0  0  0  0  0  0  0  0  0  0  0  0
  2  1  1  0
  3  2  2  0
  4  2  1  0
  5  4  1  0
  6  5  1  0
  7  6  1  0
  8  7  1  0
  8  9  1  6
 10 16  1  0
 10  8  1  0
 11 10  2  0
 13 12  1  1
 13 14  1  0
 15 16  1  6
 15 13  1  0
 17 15  1  0
 18 17  2  0
 20 19  1  0
 21 20  2  0
 22 20  1  0
 23 22  1  1
 23 24  1  0
 24 17  1  0
 25 23  1  0
 26 25  2  0
 27 25  1  0
M  END
$$$$
