ASI.pdb
     RDKit          3D

 20 19  0  0  1  0  0  0  0  0999 V2000
   28.5989  -17.9642  -18.1676 C   0  0  0  0  0  0  0  0  0  0  0  0
   27.9653  -19.1287  -17.4492 C   0  0  2  0  0  0  0  0  0  0  0  0
   27.2243  -19.9745  -18.3399 N   0  0  0  0  0  0  0  0  0  0  0  0
   27.1082  -18.6583  -16.3087 C   0  0  0  0  0  0  0  0  0  0  0  0
   27.6471  -18.0563  -15.3557 O   0  0  0  0  0  0  0  0  0  0  0  0
   22.7941  -18.5626  -16.5046 O   0  0  0  0  0  0  0  0  0  0  0  0
   23.6229  -17.7577  -15.7490 C   0  0  0  0  0  0  0  0  0  0  0  0
   24.8431  -18.4803  -15.2279 C   0  0  2  0  0  0  0  0  0  0  0  0
   25.7018  -18.8919  -16.3074 N   0  0  0  0  0  0  0  0  0  0  0  0
   24.4776  -19.6168  -14.3437 C   0  0  0  0  0  0  0  0  0  0  0  0
   24.4445  -20.7629  -14.8347 O   0  0  0  0  0  0  0  0  0  0  0  0
   26.6851  -20.6127   -9.6552 C   0  0  0  0  0  0  0  0  0  0  0  0
   25.9071  -20.8371  -10.9241 C   0  0  0  0  0  0  0  0  0  0  0  0
   24.4741  -20.4440  -10.8344 C   0  0  2  0  0  0  0  0  0  0  0  0
   23.8278  -21.3143   -9.7720 C   0  0  0  0  0  0  0  0  0  0  0  0
   23.6962  -20.5079  -12.1157 C   0  0  2  0  0  0  0  0  0  0  0  0
   24.1714  -19.4393  -12.9847 N   0  0  0  0  0  0  0  0  0  0  0  0
   22.2371  -20.5209  -11.9781 C   0  0  0  0  0  0  0  0  0  0  0  0
   21.4980  -21.6854  -11.8605 O   0  0  0  0  0  0  0  0  0  0  0  0
   21.6151  -19.4287  -11.9661 O   0  0  0  0  0  0  0  0  0  0  0  0
  2  1  1  6
  2  3  1  0
  2  4  1  0
  4  5  2  0
  7  6  1  0
  8  7  1  6
  9  4  1  0
  9  8  1  0
 10 11  2  0
 10  8  1  0
 12 13  1  0
 14 16  1  0
 14 13  1  0
 14 15  1  1
 16 17  1  6
 17 10  1  0
 18 19  1  0
 18 16  1  0
 20 18  2  0
M  END
$$$$
