ASI.pdb
     RDKit          3D

 20 19  0  0  1  0  0  0  0  0999 V2000
   19.1907  -10.5228  -19.6838 C   0  0  0  0  0  0  0  0  0  0  0  0
   20.6173  -10.4603  -19.1997 C   0  0  2  0  0  0  0  0  0  0  0  0
   20.9532  -11.5760  -18.3630 N   0  0  0  0  0  0  0  0  0  0  0  0
   20.8957   -9.1578  -18.5051 C   0  0  0  0  0  0  0  0  0  0  0  0
   20.7708   -8.0924  -19.1456 O   0  0  0  0  0  0  0  0  0  0  0  0
   21.3949   -6.7382  -14.3607 O   0  0  0  0  0  0  0  0  0  0  0  0
   21.0392   -7.8646  -15.0753 C   0  0  0  0  0  0  0  0  0  0  0  0
   21.6567   -7.9164  -16.4533 C   0  0  2  0  0  0  0  0  0  0  0  0
   21.2963   -9.1307  -17.1372 N   0  0  0  0  0  0  0  0  0  0  0  0
   23.1286   -7.7195  -16.4078 C   0  0  0  0  0  0  0  0  0  0  0  0
   23.5702   -6.6628  -15.9138 O   0  0  0  0  0  0  0  0  0  0  0  0
   26.8253  -11.9965  -15.9083 C   0  0  0  0  0  0  0  0  0  0  0  0
   26.1549  -10.9391  -16.7440 C   0  0  0  0  0  0  0  0  0  0  0  0
   26.0787   -9.6053  -16.0873 C   0  0  2  0  0  0  0  0  0  0  0  0
   25.3188   -9.7805  -14.7850 C   0  0  0  0  0  0  0  0  0  0  0  0
   25.4740   -8.5048  -16.9085 C   0  0  2  0  0  0  0  0  0  0  0  0
   24.0276   -8.6795  -16.9002 N   0  0  0  0  0  0  0  0  0  0  0  0
   26.0183   -8.3419  -18.2595 C   0  0  0  0  0  0  0  0  0  0  0  0
   27.2006   -7.6722  -18.5238 O   0  0  0  0  0  0  0  0  0  0  0  0
   25.3901   -8.8281  -19.2336 O   0  0  0  0  0  0  0  0  0  0  0  0
  2  1  1  1
  2  3  1  0
  2  4  1  0
  4  5  2  0
  7  6  1  0
  8  7  1  1
  9  4  1  0
  9  8  1  0
 10 11  2  0
 10  8  1  0
 12 13  1  0
 14 16  1  0
 14 13  1  0
 14 15  1  1
 16 17  1  6
 17 10  1  0
 18 19  1  0
 18 16  1  0
 20 18  2  0
M  END
$$$$
