ASI.pdb
     RDKit          3D

 20 19  0  0  1  0  0  0  0  0999 V2000
   17.4186  -10.0562  -19.2192 C   0  0  0  0  0  0  0  0  0  0  0  0
   18.7482  -10.0684  -19.9301 C   0  0  2  0  0  0  0  0  0  0  0  0
   19.1616  -11.3969  -20.2796 N   0  0  0  0  0  0  0  0  0  0  0  0
   19.8010   -9.3680  -19.1191 C   0  0  0  0  0  0  0  0  0  0  0  0
   20.3305   -9.9741  -18.1634 O   0  0  0  0  0  0  0  0  0  0  0  0
   22.4661   -6.4390  -20.5281 O   0  0  0  0  0  0  0  0  0  0  0  0
   21.6858   -6.1110  -19.4375 C   0  0  0  0  0  0  0  0  0  0  0  0
   21.1892   -7.3172  -18.6751 C   0  0  2  0  0  0  0  0  0  0  0  0
   20.1941   -8.0333  -19.4295 N   0  0  0  0  0  0  0  0  0  0  0  0
   20.7036   -6.9532  -17.3190 C   0  0  0  0  0  0  0  0  0  0  0  0
   19.5090   -6.6196  -17.1870 O   0  0  0  0  0  0  0  0  0  0  0  0
   19.7313   -8.8371  -12.0539 C   0  0  0  0  0  0  0  0  0  0  0  0
   20.3298   -7.6082  -12.6842 C   0  0  0  0  0  0  0  0  0  0  0  0
   20.8222   -7.8178  -14.0734 C   0  0  2  0  0  0  0  0  0  0  0  0
   22.0524   -8.7032  -13.9928 C   0  0  0  0  0  0  0  0  0  0  0  0
   21.1165   -6.5737  -14.8585 C   0  0  2  0  0  0  0  0  0  0  0  0
   21.5426   -6.9737  -16.1931 N   0  0  0  0  0  0  0  0  0  0  0  0
   22.0381   -5.6235  -14.2295 C   0  0  0  0  0  0  0  0  0  0  0  0
   21.6698   -4.7865  -13.1902 O   0  0  0  0  0  0  0  0  0  0  0  0
   23.2222   -5.5547  -14.6454 O   0  0  0  0  0  0  0  0  0  0  0  0
  2  1  1  1
  2  3  1  0
  2  4  1  0
  4  5  2  0
  7  6  1  0
  8  7  1  6
  9  4  1  0
  9  8  1  0
 10 11  2  0
 10  8  1  0
 12 13  1  0
 14 16  1  0
 14 13  1  0
 14 15  1  1
 16 17  1  6
 17 10  1  0
 18 19  1  0
 18 16  1  0
 20 18  2  0
M  END
$$$$
