ASI.pdb
     RDKit          3D

 20 19  0  0  1  0  0  0  0  0999 V2000
   15.2874  -14.4234  -17.6393 C   0  0  0  0  0  0  0  0  0  0  0  0
   16.4991  -14.0284  -16.8336 C   0  0  2  0  0  0  0  0  0  0  0  0
   16.2168  -13.9660  -15.4286 N   0  0  0  0  0  0  0  0  0  0  0  0
   17.0786  -12.7339  -17.3287 C   0  0  0  0  0  0  0  0  0  0  0  0
   17.4795  -12.6636  -18.5099 O   0  0  0  0  0  0  0  0  0  0  0  0
   17.2912   -8.1916  -17.8163 O   0  0  0  0  0  0  0  0  0  0  0  0
   16.7570   -9.4082  -17.4416 C   0  0  0  0  0  0  0  0  0  0  0  0
   17.7836  -10.3615  -16.8758 C   0  0  2  0  0  0  0  0  0  0  0  0
   17.1724  -11.5999  -16.4698 N   0  0  0  0  0  0  0  0  0  0  0  0
   18.5677   -9.7417  -15.7766 C   0  0  0  0  0  0  0  0  0  0  0  0
   18.0866   -9.7530  -14.6259 O   0  0  0  0  0  0  0  0  0  0  0  0
   23.2285  -11.3416  -14.4828 C   0  0  0  0  0  0  0  0  0  0  0  0
   21.8795  -10.6778  -14.5549 C   0  0  0  0  0  0  0  0  0  0  0  0
   21.9349   -9.2246  -14.8732 C   0  0  2  0  0  0  0  0  0  0  0  0
   22.8376   -8.5664  -13.8456 C   0  0  0  0  0  0  0  0  0  0  0  0
   20.6127   -8.5191  -14.9448 C   0  0  2  0  0  0  0  0  0  0  0  0
   19.8224   -9.1494  -15.9940 N   0  0  0  0  0  0  0  0  0  0  0  0
   20.6724   -7.0608  -15.0778 C   0  0  0  0  0  0  0  0  0  0  0  0
   20.8372   -6.2083  -13.9997 O   0  0  0  0  0  0  0  0  0  0  0  0
   20.5689   -6.5470  -16.2202 O   0  0  0  0  0  0  0  0  0  0  0  0
  2  1  1  6
  2  3  1  0
  2  4  1  0
  4  5  2  0
  7  6  1  0
  8  7  1  1
  9  4  1  0
  9  8  1  0
 10 11  2  0
 10  8  1  0
 12 13  1  0
 14 16  1  0
 14 13  1  0
 14 15  1  1
 16 17  1  6
 17 10  1  0
 18 19  1  0
 18 16  1  0
 20 18  2  0
M  END
$$$$
