ASI.pdb
     RDKit          3D

 20 19  0  0  1  0  0  0  0  0999 V2000
   22.1024  -12.7968  -21.5909 C   0  0  0  0  0  0  0  0  0  0  0  0
   21.1413  -12.4324  -20.4878 C   0  0  2  0  0  0  0  0  0  0  0  0
   19.7779  -12.4430  -20.9338 N   0  0  0  0  0  0  0  0  0  0  0  0
   21.5009  -11.1098  -19.8729 C   0  0  0  0  0  0  0  0  0  0  0  0
   22.6218  -10.9769  -19.3374 O   0  0  0  0  0  0  0  0  0  0  0  0
   18.7333   -7.7064  -19.7498 O   0  0  0  0  0  0  0  0  0  0  0  0
   20.0998   -7.6351  -19.9328 C   0  0  0  0  0  0  0  0  0  0  0  0
   20.8515   -8.7583  -19.2574 C   0  0  2  0  0  0  0  0  0  0  0  0
   20.5824  -10.0197  -19.8965 N   0  0  0  0  0  0  0  0  0  0  0  0
   20.5809   -8.8056  -17.7973 C   0  0  0  0  0  0  0  0  0  0  0  0
   19.5819   -9.4379  -17.3999 O   0  0  0  0  0  0  0  0  0  0  0  0
   23.6120  -11.0858  -14.6517 C   0  0  0  0  0  0  0  0  0  0  0  0
   22.4643  -10.3511  -15.2911 C   0  0  0  0  0  0  0  0  0  0  0  0
   22.2684   -8.9677  -14.7775 C   0  0  2  0  0  0  0  0  0  0  0  0
   22.0475   -9.0642  -13.2789 C   0  0  0  0  0  0  0  0  0  0  0  0
   21.1686   -8.1786  -15.4246 C   0  0  2  0  0  0  0  0  0  0  0  0
   21.4094   -8.1653  -16.8614 N   0  0  0  0  0  0  0  0  0  0  0  0
   20.9339   -6.8399  -14.8761 C   0  0  0  0  0  0  0  0  0  0  0  0
   20.0402   -6.5883  -13.8493 O   0  0  0  0  0  0  0  0  0  0  0  0
   21.5675   -5.8648  -15.3532 O   0  0  0  0  0  0  0  0  0  0  0  0
  2  1  1  6
  2  3  1  0
  2  4  1  0
  4  5  2  0
  7  6  1  0
  8  7  1  6
  9  4  1  0
  9  8  1  0
 10 11  2  0
 10  8  1  0
 12 13  1  0
 14 16  1  0
 14 13  1  0
 14 15  1  1
 16 17  1  6
 17 10  1  0
 18 19  1  0
 18 16  1  0
 20 18  2  0
M  END
$$$$
