ASI.pdb
     RDKit          3D

 20 19  0  0  1  0  0  0  0  0999 V2000
   13.9774  -10.6181  -14.6006 C   0  0  0  0  0  0  0  0  0  0  0  0
   15.3266  -11.2034  -14.2680 C   0  0  2  0  0  0  0  0  0  0  0  0
   15.2989  -12.6371  -14.2302 N   0  0  0  0  0  0  0  0  0  0  0  0
   15.8593  -10.6368  -12.9828 C   0  0  0  0  0  0  0  0  0  0  0  0
   15.3094  -10.9563  -11.9074 O   0  0  0  0  0  0  0  0  0  0  0  0
   18.9415   -7.6167  -12.9994 O   0  0  0  0  0  0  0  0  0  0  0  0
   18.8385   -8.5459  -11.9836 C   0  0  0  0  0  0  0  0  0  0  0  0
   17.4351   -9.0736  -11.7980 C   0  0  2  0  0  0  0  0  0  0  0  0
   16.9742   -9.7483  -12.9831 N   0  0  0  0  0  0  0  0  0  0  0  0
   16.4958   -8.0073  -11.3643 C   0  0  0  0  0  0  0  0  0  0  0  0
   15.7547   -7.4858  -12.2213 O   0  0  0  0  0  0  0  0  0  0  0  0
   12.2096   -6.4409   -7.7942 C   0  0  0  0  0  0  0  0  0  0  0  0
   13.4774   -5.8895   -8.3894 C   0  0  0  0  0  0  0  0  0  0  0  0
   14.4033   -6.9301   -8.9148 C   0  0  2  0  0  0  0  0  0  0  0  0
   14.7669   -7.8434   -7.7584 C   0  0  0  0  0  0  0  0  0  0  0  0
   15.6395   -6.4226   -9.5969 C   0  0  2  0  0  0  0  0  0  0  0  0
   16.4194   -7.5742  -10.0306 N   0  0  0  0  0  0  0  0  0  0  0  0
   16.4344   -5.4513   -8.8401 C   0  0  0  0  0  0  0  0  0  0  0  0
   16.1186   -4.1053   -8.7695 O   0  0  0  0  0  0  0  0  0  0  0  0
   17.4551   -5.8466   -8.2222 O   0  0  0  0  0  0  0  0  0  0  0  0
  2  1  1  1
  2  3  1  0
  2  4  1  0
  4  5  2  0
  7  6  1  0
  8  7  1  6
  9  4  1  0
  9  8  1  0
 10 11  2  0
 10  8  1  0
 12 13  1  0
 14 16  1  0
 14 13  1  0
 14 15  1  1
 16 17  1  1
 17 10  1  0
 18 19  1  0
 18 16  1  0
 20 18  2  0
M  END
$$$$
