ASI.pdb
     RDKit          3D

 20 19  0  0  1  0  0  0  0  0999 V2000
   22.4124  -12.6193  -20.2068 C   0  0  0  0  0  0  0  0  0  0  0  0
   22.4911  -13.3083  -18.8679 C   0  0  2  0  0  0  0  0  0  0  0  0
   21.7775  -14.5527  -18.8581 N   0  0  0  0  0  0  0  0  0  0  0  0
   22.0191  -12.4032  -17.7659 C   0  0  0  0  0  0  0  0  0  0  0  0
   20.8090  -12.0971  -17.7116 O   0  0  0  0  0  0  0  0  0  0  0  0
   23.2789   -9.9949  -13.6813 O   0  0  0  0  0  0  0  0  0  0  0  0
   23.6440  -10.7941  -14.7462 C   0  0  0  0  0  0  0  0  0  0  0  0
   22.5422  -10.9706  -15.7648 C   0  0  2  0  0  0  0  0  0  0  0  0
   22.9320  -11.8981  -16.7942 N   0  0  0  0  0  0  0  0  0  0  0  0
   22.0956   -9.6702  -16.3278 C   0  0  0  0  0  0  0  0  0  0  0  0
   22.7029   -9.2127  -17.3166 O   0  0  0  0  0  0  0  0  0  0  0  0
   17.8744   -8.3041  -18.9776 C   0  0  0  0  0  0  0  0  0  0  0  0
   19.2387   -8.0557  -18.3920 C   0  0  0  0  0  0  0  0  0  0  0  0
   19.2352   -7.8322  -16.9202 C   0  0  2  0  0  0  0  0  0  0  0  0
   18.3468   -6.6332  -16.6427 C   0  0  0  0  0  0  0  0  0  0  0  0
   20.5811   -7.6521  -16.2821 C   0  0  2  0  0  0  0  0  0  0  0  0
   21.0203   -8.9489  -15.7840 N   0  0  0  0  0  0  0  0  0  0  0  0
   20.6734   -6.5950  -15.2713 C   0  0  0  0  0  0  0  0  0  0  0  0
   20.6530   -6.8452  -13.9099 O   0  0  0  0  0  0  0  0  0  0  0  0
   20.7748   -5.3994  -15.6455 O   0  0  0  0  0  0  0  0  0  0  0  0
  2  1  1  6
  2  3  1  0
  2  4  1  0
  4  5  2  0
  7  6  1  0
  8  7  1  1
  9  4  1  0
  9  8  1  0
 10 11  2  0
 10  8  1  0
 12 13  1  0
 14 16  1  0
 14 13  1  0
 14 15  1  6
 16 17  1  1
 17 10  1  0
 18 19  1  0
 18 16  1  0
 20 18  2  0
M  END
$$$$
