ASI.pdb
     RDKit          3D

 20 19  0  0  1  0  0  0  0  0999 V2000
   20.1110  -19.7140  -15.8412 C   0  0  0  0  0  0  0  0  0  0  0  0
   21.1076  -20.4717  -15.0009 C   0  0  2  0  0  0  0  0  0  0  0  0
   20.5544  -20.8765  -13.7407 N   0  0  0  0  0  0  0  0  0  0  0  0
   22.3682  -19.6773  -14.8102 C   0  0  0  0  0  0  0  0  0  0  0  0
   22.2825  -18.4869  -14.4405 O   0  0  0  0  0  0  0  0  0  0  0  0
   27.2566  -19.8428  -14.5978 O   0  0  0  0  0  0  0  0  0  0  0  0
   26.0634  -20.4773  -14.8800 C   0  0  0  0  0  0  0  0  0  0  0  0
   24.8789  -19.5396  -14.8977 C   0  0  2  0  0  0  0  0  0  0  0  0
   23.6451  -20.2662  -15.0454 N   0  0  0  0  0  0  0  0  0  0  0  0
   25.0273  -18.4802  -15.9287 C   0  0  0  0  0  0  0  0  0  0  0  0
   24.5570  -18.6889  -17.0650 O   0  0  0  0  0  0  0  0  0  0  0  0
   24.2858  -12.9186  -16.9700 C   0  0  0  0  0  0  0  0  0  0  0  0
   25.5664  -13.7064  -16.8975 C   0  0  0  0  0  0  0  0  0  0  0  0
   25.4929  -14.9034  -16.0155 C   0  0  2  0  0  0  0  0  0  0  0  0
   26.3701  -14.6340  -14.8064 C   0  0  0  0  0  0  0  0  0  0  0  0
   25.8593  -16.2107  -16.6540 C   0  0  2  0  0  0  0  0  0  0  0  0
   25.6753  -17.2629  -15.6631 N   0  0  0  0  0  0  0  0  0  0  0  0
   27.1747  -16.2614  -17.2981 C   0  0  0  0  0  0  0  0  0  0  0  0
   27.4035  -15.8165  -18.5888 O   0  0  0  0  0  0  0  0  0  0  0  0
   28.1500  -16.7305  -16.6588 O   0  0  0  0  0  0  0  0  0  0  0  0
  2  1  1  1
  2  3  1  0
  2  4  1  0
  4  5  2  0
  7  6  1  0
  8  7  1  6
  9  4  1  0
  9  8  1  0
 10 11  2  0
 10  8  1  0
 12 13  1  0
 14 16  1  0
 14 13  1  0
 14 15  1  1
 16 17  1  1
 17 10  1  0
 18 19  1  0
 18 16  1  0
 20 18  2  0
M  END
$$$$
