ASI.pdb
     RDKit          3D

 20 19  0  0  1  0  0  0  0  0999 V2000
   28.7982  -21.3981  -14.4291 C   0  0  0  0  0  0  0  0  0  0  0  0
   27.3136  -21.3347  -14.1732 C   0  0  2  0  0  0  0  0  0  0  0  0
   26.5902  -20.8414  -15.3095 N   0  0  0  0  0  0  0  0  0  0  0  0
   27.0112  -20.5255  -12.9442 C   0  0  0  0  0  0  0  0  0  0  0  0
   27.6114  -19.4437  -12.7699 O   0  0  0  0  0  0  0  0  0  0  0  0
   23.3576  -20.9072  -11.0238 O   0  0  0  0  0  0  0  0  0  0  0  0
   24.1985  -19.8163  -10.9304 C   0  0  0  0  0  0  0  0  0  0  0  0
   25.6590  -20.1942  -10.8485 C   0  0  2  0  0  0  0  0  0  0  0  0
   26.0558  -20.9789  -11.9881 N   0  0  0  0  0  0  0  0  0  0  0  0
   25.9844  -20.8710   -9.5666 C   0  0  0  0  0  0  0  0  0  0  0  0
   26.0530  -22.1164   -9.5547 O   0  0  0  0  0  0  0  0  0  0  0  0
   29.3141  -18.6700   -5.8170 C   0  0  0  0  0  0  0  0  0  0  0  0
   28.5493  -19.6612   -6.6527 C   0  0  0  0  0  0  0  0  0  0  0  0
   27.1514  -19.8896   -6.1947 C   0  0  2  0  0  0  0  0  0  0  0  0
   27.2182  -20.4365   -4.7803 C   0  0  0  0  0  0  0  0  0  0  0  0
   26.3137  -20.7781   -7.0663 C   0  0  2  0  0  0  0  0  0  0  0  0
   26.2146  -20.1560   -8.3801 N   0  0  0  0  0  0  0  0  0  0  0  0
   25.0091  -21.1631   -6.5208 C   0  0  0  0  0  0  0  0  0  0  0  0
   24.8439  -22.1880   -5.6051 O   0  0  0  0  0  0  0  0  0  0  0  0
   23.9829  -20.5414   -6.8955 O   0  0  0  0  0  0  0  0  0  0  0  0
  2  1  1  6
  2  3  1  0
  2  4  1  0
  4  5  2  0
  7  6  1  0
  8  7  1  6
  9  4  1  0
  9  8  1  0
 10 11  2  0
 10  8  1  0
 12 13  1  0
 14 16  1  0
 14 13  1  0
 14 15  1  1
 16 17  1  6
 17 10  1  0
 18 19  1  0
 18 16  1  0
 20 18  2  0
M  END
$$$$
