ASI.pdb
     RDKit          3D

 20 19  0  0  1  0  0  0  0  0999 V2000
   27.5876  -19.4548  -18.8921 C   0  0  0  0  0  0  0  0  0  0  0  0
   26.6769  -20.4501  -18.2187 C   0  0  2  0  0  0  0  0  0  0  0  0
   25.5947  -20.8537  -19.0694 N   0  0  0  0  0  0  0  0  0  0  0  0
   26.1684  -19.9176  -16.9093 C   0  0  0  0  0  0  0  0  0  0  0  0
   26.9647  -19.8024  -15.9534 O   0  0  0  0  0  0  0  0  0  0  0  0
   21.9021  -19.0889  -15.9457 O   0  0  0  0  0  0  0  0  0  0  0  0
   22.9832  -18.2436  -15.7955 C   0  0  0  0  0  0  0  0  0  0  0  0
   24.2806  -18.9743  -15.5395 C   0  0  2  0  0  0  0  0  0  0  0  0
   24.8005  -19.5476  -16.7532 N   0  0  0  0  0  0  0  0  0  0  0  0
   24.1419  -19.9866  -14.4610 C   0  0  0  0  0  0  0  0  0  0  0  0
   23.8098  -21.1468  -14.7763 O   0  0  0  0  0  0  0  0  0  0  0  0
   26.7129  -21.2558   -9.1065 C   0  0  0  0  0  0  0  0  0  0  0  0
   25.5087  -21.4495   -9.9886 C   0  0  0  0  0  0  0  0  0  0  0  0
   25.4201  -20.4804  -11.1152 C   0  0  2  0  0  0  0  0  0  0  0  0
   25.4510  -19.0845  -10.5199 C   0  0  0  0  0  0  0  0  0  0  0  0
   24.2385  -20.6411  -12.0257 C   0  0  2  0  0  0  0  0  0  0  0  0
   24.3718  -19.6777  -13.1105 N   0  0  0  0  0  0  0  0  0  0  0  0
   22.9231  -20.5918  -11.3812 C   0  0  0  0  0  0  0  0  0  0  0  0
   22.0352  -19.5435  -11.5518 O   0  0  0  0  0  0  0  0  0  0  0  0
   22.5731  -21.5401  -10.6342 O   0  0  0  0  0  0  0  0  0  0  0  0
  2  1  1  6
  2  3  1  0
  2  4  1  0
  4  5  2  0
  7  6  1  0
  8  7  1  6
  9  4  1  0
  9  8  1  0
 10 11  2  0
 10  8  1  0
 12 13  1  0
 14 16  1  0
 14 13  1  0
 14 15  1  1
 16 17  1  6
 17 10  1  0
 18 19  1  0
 18 16  1  0
 20 18  2  0
M  END
$$$$
