ASI.pdb
     RDKit          3D

 20 19  0  0  1  0  0  0  0  0999 V2000
   14.9655  -23.5850    3.6761 C   0  0  0  0  0  0  0  0  0  0  0  0
   14.5575  -22.6898    2.5335 C   0  0  2  0  0  0  0  0  0  0  0  0
   14.8050  -23.2961    1.2572 N   0  0  0  0  0  0  0  0  0  0  0  0
   15.2234  -21.3470    2.6348 C   0  0  0  0  0  0  0  0  0  0  0  0
   15.4720  -20.7149    1.5861 O   0  0  0  0  0  0  0  0  0  0  0  0
   15.1327  -17.1581    3.7954 O   0  0  0  0  0  0  0  0  0  0  0  0
   14.8208  -18.4954    3.6534 C   0  0  0  0  0  0  0  0  0  0  0  0
   15.9382  -19.4173    4.0823 C   0  0  2  0  0  0  0  0  0  0  0  0
   15.5688  -20.7971    3.9039 N   0  0  0  0  0  0  0  0  0  0  0  0
   16.3851  -19.1363    5.4710 C   0  0  0  0  0  0  0  0  0  0  0  0
   15.6065  -19.4004    6.4091 O   0  0  0  0  0  0  0  0  0  0  0  0
   21.5077  -19.6052    6.0489 C   0  0  0  0  0  0  0  0  0  0  0  0
   20.1500  -19.6931    6.6928 C   0  0  0  0  0  0  0  0  0  0  0  0
   19.5973  -18.3799    7.1242 C   0  0  2  0  0  0  0  0  0  0  0  0
   20.1340  -18.0933    8.5147 C   0  0  0  0  0  0  0  0  0  0  0  0
   18.1020  -18.2587    7.0990 C   0  0  2  0  0  0  0  0  0  0  0  0
   17.6462  -18.5875    5.7549 N   0  0  0  0  0  0  0  0  0  0  0  0
   17.5549  -16.9906    7.5895 C   0  0  0  0  0  0  0  0  0  0  0  0
   17.1773  -16.7875    8.9057 O   0  0  0  0  0  0  0  0  0  0  0  0
   17.4155  -16.0341    6.7860 O   0  0  0  0  0  0  0  0  0  0  0  0
  2  1  1  1
  2  3  1  0
  2  4  1  0
  4  5  2  0
  7  6  1  0
  8  7  1  1
  9  4  1  0
  9  8  1  0
 10 11  2  0
 10  8  1  0
 12 13  1  0
 14 16  1  0
 14 13  1  0
 14 15  1  1
 16 17  1  6
 17 10  1  0
 18 19  1  0
 18 16  1  0
 20 18  2  0
M  END
$$$$
