EYW.pdb
     RDKit          3D

 36 38  0  0  1  0  0  0  0  0999 V2000
    7.7620  -19.0701   19.4893 N   0  0  0  0  0  0  0  0  0  0  0  0
    9.0755  -18.8302   20.0926 C   0  0  1  0  0  0  0  0  0  0  0  0
    9.7117  -17.7623   19.2233 C   0  0  0  0  0  0  0  0  0  0  0  0
    9.9171  -18.1862   17.8118 C   0  0  0  0  0  0  0  0  0  0  0  0
   10.5101  -17.0752   17.0298 C   0  0  0  0  0  0  0  0  0  0  0  0
    9.7322  -16.1905   16.5710 O   0  0  0  0  0  0  0  0  0  0  0  0
    8.8654  -18.3555   21.4716 C   0  0  0  0  0  0  0  0  0  0  0  0
    8.1843  -17.3026   21.6498 O   0  0  0  0  0  0  0  0  0  0  0  0
   11.8602  -16.9325   16.7620 O   0  0  0  0  0  0  0  0  0  0  0  0
    6.1833  -23.8091   25.5583 O   0  0  0  0  0  0  0  0  0  0  0  0
    7.0277  -22.6907   25.4328 C   0  0  0  0  0  0  0  0  0  0  0  0
    7.9849  -22.6432   24.4453 C   0  0  0  0  0  0  0  0  0  0  0  0
    8.8075  -21.5563   24.3228 C   0  0  0  0  0  0  0  0  0  0  0  0
    8.7374  -20.4626   25.1551 C   0  0  0  0  0  0  0  0  0  0  0  0
    9.6116  -19.3105   25.0091 C   0  0  0  0  0  0  0  0  0  0  0  0
    9.2676  -18.2886   23.9716 C   0  0  2  0  0  0  0  0  0  0  0  0
    9.3588  -18.9773   22.6417 N   0  0  0  0  0  0  0  0  0  0  0  0
   10.1133  -17.0876   23.9272 C   0  0  0  0  0  0  0  0  0  0  0  0
   10.3679  -16.5104   22.8046 O   0  0  0  0  0  0  0  0  0  0  0  0
    7.7627  -20.5165   26.1552 C   0  0  0  0  0  0  0  0  0  0  0  0
    6.9267  -21.6144   26.2855 C   0  0  0  0  0  0  0  0  0  0  0  0
   10.7141  -16.4454   25.0375 N   0  0  0  0  0  0  0  0  0  0  0  0
    9.9585  -15.9283   26.1502 C   0  0  1  0  0  0  0  0  0  0  0  0
    8.5293  -16.4142   26.1501 C   0  0  0  0  0  0  0  0  0  0  0  0
    7.6896  -15.3588   25.5401 C   0  0  0  0  0  0  0  0  0  0  0  0
    6.8145  -15.5753   24.4789 C   0  0  0  0  0  0  0  0  0  0  0  0
    6.1916  -14.4548   24.1276 N   0  0  0  0  0  0  0  0  0  0  0  0
    6.6357  -13.4721   24.9417 C   0  0  0  0  0  0  0  0  0  0  0  0
    6.3191  -12.1143   25.0249 C   0  0  0  0  0  0  0  0  0  0  0  0
    6.9404  -11.3424   25.9837 C   0  0  0  0  0  0  0  0  0  0  0  0
    7.8648  -11.9028   26.8520 C   0  0  0  0  0  0  0  0  0  0  0  0
    8.1904  -13.2621   26.7789 C   0  0  0  0  0  0  0  0  0  0  0  0
    7.5674  -14.0211   25.8236 C   0  0  0  0  0  0  0  0  0  0  0  0
   10.6227  -16.1729   27.4303 C   0  0  0  0  0  0  0  0  0  0  0  0
   11.3838  -17.1326   27.5924 O   0  0  0  0  0  0  0  0  0  0  0  0
   10.4219  -15.3274   28.5169 O   0  0  0  0  0  0  0  0  0  0  0  0
  2  1  1  6
  3  2  1  0
  4  5  1  0
  4  3  1  0
  5  6  2  0
  7  2  1  0
  8  7  2  0
  9  5  1  0
 10 11  1  0
 11 12  2  0
 12 13  1  0
 14 15  1  0
 14 13  2  0
 16 15  1  1
 16 17  1  0
 17  7  1  0
 18 19  2  0
 18 16  1  0
 20 14  1  0
 21 20  2  0
 21 11  1  0
 22 18  1  0
 23 22  1  0
 23 24  1  1
 24 25  1  0
 25 26  2  0
 25 33  1  0
 26 27  1  0
 27 28  1  0
 28 29  2  0
 29 30  1  0
 31 30  2  0
 32 31  1  0
 33 32  2  0
 33 28  1  0
 34 23  1  0
 35 34  2  0
 36 34  1  0
M  END
$$$$
