EYW.pdb
     RDKit          3D

 36 38  0  0  1  0  0  0  0  0999 V2000
  -50.7825  -29.6340   26.8534 N   0  0  0  0  0  0  0  0  0  0  0  0
  -51.4074  -28.3471   27.1698 C   0  0  1  0  0  0  0  0  0  0  0  0
  -52.5391  -28.2097   26.1692 C   0  0  0  0  0  0  0  0  0  0  0  0
  -53.1307  -29.5107   25.7552 C   0  0  0  0  0  0  0  0  0  0  0  0
  -52.1544  -30.2767   24.9442 C   0  0  0  0  0  0  0  0  0  0  0  0
  -51.2752  -29.6299   24.3062 O   0  0  0  0  0  0  0  0  0  0  0  0
  -51.9093  -28.4104   28.5537 C   0  0  0  0  0  0  0  0  0  0  0  0
  -51.4161  -29.2768   29.3349 O   0  0  0  0  0  0  0  0  0  0  0  0
  -52.1327  -31.6557   24.8318 O   0  0  0  0  0  0  0  0  0  0  0  0
  -49.0300  -25.1907   24.7581 O   0  0  0  0  0  0  0  0  0  0  0  0
  -50.2194  -25.3426   25.4943 C   0  0  0  0  0  0  0  0  0  0  0  0
  -50.9813  -26.4813   25.3668 C   0  0  0  0  0  0  0  0  0  0  0  0
  -52.1390  -26.6298   26.0815 C   0  0  0  0  0  0  0  0  0  0  0  0
  -52.6104  -25.6773   26.9558 C   0  0  0  0  0  0  0  0  0  0  0  0
  -53.8373  -25.8510   27.7155 C   0  0  0  0  0  0  0  0  0  0  0  0
  -54.1187  -27.1964   28.3069 C   0  0  2  0  0  0  0  0  0  0  0  0
  -52.9081  -27.5768   29.1075 N   0  0  0  0  0  0  0  0  0  0  0  0
  -54.4046  -28.2831   27.3598 C   0  0  0  0  0  0  0  0  0  0  0  0
  -53.4516  -29.0223   26.9085 O   0  0  0  0  0  0  0  0  0  0  0  0
  -51.8316  -24.5237   27.0815 C   0  0  0  0  0  0  0  0  0  0  0  0
  -50.6585  -24.3663   26.3602 C   0  0  0  0  0  0  0  0  0  0  0  0
  -55.6793  -28.6416   26.8571 N   0  0  0  0  0  0  0  0  0  0  0  0
  -56.7462  -27.6913   26.6695 C   0  0  1  0  0  0  0  0  0  0  0  0
  -56.4843  -26.7529   25.5164 C   0  0  0  0  0  0  0  0  0  0  0  0
  -57.0224  -25.4229   25.8803 C   0  0  0  0  0  0  0  0  0  0  0  0
  -56.6658  -24.2372   25.2434 C   0  0  0  0  0  0  0  0  0  0  0  0
  -57.2948  -23.1933   25.7744 N   0  0  0  0  0  0  0  0  0  0  0  0
  -58.0794  -23.6576   26.7718 C   0  0  0  0  0  0  0  0  0  0  0  0
  -58.9531  -23.0121   27.6496 C   0  0  0  0  0  0  0  0  0  0  0  0
  -59.6408  -23.7639   28.5787 C   0  0  0  0  0  0  0  0  0  0  0  0
  -59.4692  -25.1383   28.6421 C   0  0  0  0  0  0  0  0  0  0  0  0
  -58.5968  -25.7969   27.7679 C   0  0  0  0  0  0  0  0  0  0  0  0
  -57.9185  -25.0416   26.8479 C   0  0  0  0  0  0  0  0  0  0  0  0
  -58.0525  -28.3410   26.5644 C   0  0  0  0  0  0  0  0  0  0  0  0
  -58.3479  -29.3184   27.2601 O   0  0  0  0  0  0  0  0  0  0  0  0
  -59.0156  -27.8775   25.6737 O   0  0  0  0  0  0  0  0  0  0  0  0
  2  1  1  6
  3  2  1  0
  4  5  1  0
  4  3  1  0
  5  6  2  0
  7  2  1  0
  8  7  2  0
  9  5  1  0
 10 11  1  0
 11 12  2  0
 12 13  1  0
 14 15  1  0
 14 13  2  0
 16 15  1  6
 16 17  1  0
 17  7  1  0
 18 19  2  0
 18 16  1  0
 20 14  1  0
 21 20  2  0
 21 11  1  0
 22 18  1  0
 23 22  1  0
 23 24  1  6
 24 25  1  0
 25 26  2  0
 25 33  1  0
 26 27  1  0
 27 28  1  0
 28 29  2  0
 29 30  1  0
 31 30  2  0
 32 31  1  0
 33 32  2  0
 33 28  1  0
 34 23  1  0
 35 34  2  0
 36 34  1  0
M  END
$$$$
