EYW.pdb
     RDKit          3D

 36 38  0  0  1  0  0  0  0  0999 V2000
    9.3465  -18.5865   20.4645 N   0  0  0  0  0  0  0  0  0  0  0  0
   10.7102  -18.0613   20.3584 C   0  0  1  0  0  0  0  0  0  0  0  0
   10.8942  -17.7565   18.8840 C   0  0  0  0  0  0  0  0  0  0  0  0
   10.9924  -18.9720   18.0312 C   0  0  0  0  0  0  0  0  0  0  0  0
    9.6823  -19.2540   17.3972 C   0  0  0  0  0  0  0  0  0  0  0  0
    9.1922  -18.3761   16.6308 O   0  0  0  0  0  0  0  0  0  0  0  0
   10.7959  -16.8419   21.1810 C   0  0  0  0  0  0  0  0  0  0  0  0
   11.8846  -16.1946   21.1881 O   0  0  0  0  0  0  0  0  0  0  0  0
    8.9502  -20.4135   17.5825 O   0  0  0  0  0  0  0  0  0  0  0  0
    7.2060  -13.0527   17.1141 O   0  0  0  0  0  0  0  0  0  0  0  0
    7.5697  -13.3495   18.4404 C   0  0  0  0  0  0  0  0  0  0  0  0
    8.4609  -12.5494   19.1181 C   0  0  0  0  0  0  0  0  0  0  0  0
    8.8163  -12.8377   20.4079 C   0  0  0  0  0  0  0  0  0  0  0  0
    8.3204  -13.9184   21.1009 C   0  0  0  0  0  0  0  0  0  0  0  0
    8.6995  -14.2088   22.4737 C   0  0  0  0  0  0  0  0  0  0  0  0
    9.9387  -15.0135   22.7102 C   0  0  2  0  0  0  0  0  0  0  0  0
    9.7563  -16.3106   21.9785 N   0  0  0  0  0  0  0  0  0  0  0  0
   10.2676  -15.3165   24.1100 C   0  0  0  0  0  0  0  0  0  0  0  0
   10.9999  -14.5102   24.7971 O   0  0  0  0  0  0  0  0  0  0  0  0
    7.4152  -14.7265   20.4075 C   0  0  0  0  0  0  0  0  0  0  0  0
    7.0514  -14.4409   19.1009 C   0  0  0  0  0  0  0  0  0  0  0  0
    9.8466  -16.4539   24.8415 N   0  0  0  0  0  0  0  0  0  0  0  0
   10.1893  -16.6705   26.2243 C   0  0  1  0  0  0  0  0  0  0  0  0
    9.6553  -15.5839   27.1260 C   0  0  0  0  0  0  0  0  0  0  0  0
    8.3077  -15.2108   26.6406 C   0  0  0  0  0  0  0  0  0  0  0  0
    7.4017  -16.1116   26.0870 C   0  0  0  0  0  0  0  0  0  0  0  0
    6.2722  -15.5072   25.7321 N   0  0  0  0  0  0  0  0  0  0  0  0
    6.3999  -14.1975   26.0388 C   0  0  0  0  0  0  0  0  0  0  0  0
    5.5290  -13.1154   25.8931 C   0  0  0  0  0  0  0  0  0  0  0  0
    5.9395  -11.8679   26.3134 C   0  0  0  0  0  0  0  0  0  0  0  0
    7.1959  -11.6885   26.8717 C   0  0  0  0  0  0  0  0  0  0  0  0
    8.0777  -12.7649   27.0233 C   0  0  0  0  0  0  0  0  0  0  0  0
    7.6606  -14.0005   26.6035 C   0  0  0  0  0  0  0  0  0  0  0  0
    9.8077  -18.0051   26.6855 C   0  0  0  0  0  0  0  0  0  0  0  0
   10.0398  -18.3832   27.8387 O   0  0  0  0  0  0  0  0  0  0  0  0
    9.1638  -18.9011   25.8379 O   0  0  0  0  0  0  0  0  0  0  0  0
  2  1  1  6
  3  2  1  0
  4  5  1  0
  4  3  1  0
  5  6  2  0
  7  2  1  0
  8  7  2  0
  9  5  1  0
 10 11  1  0
 11 12  2  0
 12 13  1  0
 14 15  1  0
 14 13  2  0
 16 15  1  1
 16 17  1  0
 17  7  1  0
 18 19  2  0
 18 16  1  0
 20 14  1  0
 21 20  2  0
 21 11  1  0
 22 18  1  0
 23 22  1  0
 23 24  1  1
 24 25  1  0
 25 26  2  0
 25 33  1  0
 26 27  1  0
 27 28  1  0
 28 29  2  0
 29 30  1  0
 31 30  2  0
 32 31  1  0
 33 32  2  0
 33 28  1  0
 34 23  1  0
 35 34  2  0
 36 34  1  0
M  END
$$$$
