EYW.pdb
     RDKit          3D

 36 38  0  0  1  0  0  0  0  0999 V2000
    9.3281  -18.9263   20.7864 N   0  0  0  0  0  0  0  0  0  0  0  0
   10.6301  -18.2672   20.6549 C   0  0  1  0  0  0  0  0  0  0  0  0
   10.8521  -18.1431   19.1596 C   0  0  0  0  0  0  0  0  0  0  0  0
    9.6480  -17.6879   18.4133 C   0  0  0  0  0  0  0  0  0  0  0  0
    9.9490  -17.6100   16.9638 C   0  0  0  0  0  0  0  0  0  0  0  0
   10.9339  -16.9065   16.5988 O   0  0  0  0  0  0  0  0  0  0  0  0
   10.5419  -16.9471   21.3035 C   0  0  0  0  0  0  0  0  0  0  0  0
   11.5545  -16.1873   21.2647 O   0  0  0  0  0  0  0  0  0  0  0  0
    9.2281  -18.2535   15.9733 O   0  0  0  0  0  0  0  0  0  0  0  0
    7.7236  -13.5174   16.4913 O   0  0  0  0  0  0  0  0  0  0  0  0
    7.8529  -13.7114   17.8788 C   0  0  0  0  0  0  0  0  0  0  0  0
    7.2604  -14.7907   18.4933 C   0  0  0  0  0  0  0  0  0  0  0  0
    7.3847  -14.9799   19.8431 C   0  0  0  0  0  0  0  0  0  0  0  0
    8.0928  -14.1282   20.6598 C   0  0  0  0  0  0  0  0  0  0  0  0
    8.2242  -14.3452   22.0910 C   0  0  0  0  0  0  0  0  0  0  0  0
    9.4386  -15.0638   22.5889 C   0  0  2  0  0  0  0  0  0  0  0  0
    9.4098  -16.4335   21.9771 N   0  0  0  0  0  0  0  0  0  0  0  0
    9.5624  -15.2125   24.0456 C   0  0  0  0  0  0  0  0  0  0  0  0
    9.6566  -14.1741   24.8015 O   0  0  0  0  0  0  0  0  0  0  0  0
    8.6929  -13.0347   20.0296 C   0  0  0  0  0  0  0  0  0  0  0  0
    8.5705  -12.8364   18.6632 C   0  0  0  0  0  0  0  0  0  0  0  0
    9.5861  -16.4333   24.7634 N   0  0  0  0  0  0  0  0  0  0  0  0
    9.8526  -16.5087   26.1776 C   0  0  1  0  0  0  0  0  0  0  0  0
    8.5983  -16.7299   26.9880 C   0  0  0  0  0  0  0  0  0  0  0  0
    7.5805  -15.7597   26.5256 C   0  0  0  0  0  0  0  0  0  0  0  0
    6.5028  -16.0907   25.7083 C   0  0  0  0  0  0  0  0  0  0  0  0
    5.7503  -15.0273   25.4436 N   0  0  0  0  0  0  0  0  0  0  0  0
    6.3070  -13.9699   26.0743 C   0  0  0  0  0  0  0  0  0  0  0  0
    5.9362  -12.6254   26.1473 C   0  0  0  0  0  0  0  0  0  0  0  0
    6.7106  -11.7597   26.8904 C   0  0  0  0  0  0  0  0  0  0  0  0
    7.8393  -12.2144   27.5550 C   0  0  0  0  0  0  0  0  0  0  0  0
    8.2212  -13.5594   27.4899 C   0  0  0  0  0  0  0  0  0  0  0  0
    7.4452  -14.4120   26.7498 C   0  0  0  0  0  0  0  0  0  0  0  0
   10.8911  -17.4895   26.4925 C   0  0  0  0  0  0  0  0  0  0  0  0
   11.3909  -18.2069   25.6195 O   0  0  0  0  0  0  0  0  0  0  0  0
   11.3577  -17.6489   27.7935 O   0  0  0  0  0  0  0  0  0  0  0  0
  2  1  1  6
  3  2  1  0
  4  5  1  0
  4  3  1  0
  5  6  2  0
  7  2  1  0
  8  7  2  0
  9  5  1  0
 10 11  1  0
 11 12  2  0
 12 13  1  0
 14 15  1  0
 14 13  2  0
 16 15  1  1
 16 17  1  0
 17  7  1  0
 18 19  2  0
 18 16  1  0
 20 14  1  0
 21 20  2  0
 21 11  1  0
 22 18  1  0
 23 22  1  0
 23 24  1  1
 24 25  1  0
 25 26  2  0
 25 33  1  0
 26 27  1  0
 27 28  1  0
 28 29  2  0
 29 30  1  0
 31 30  2  0
 32 31  1  0
 33 32  2  0
 33 28  1  0
 34 23  1  0
 35 34  2  0
 36 34  1  0
M  END
$$$$
