EYW.pdb
     RDKit          3D

 36 38  0  0  1  0  0  0  0  0999 V2000
    7.6043  -19.4744   20.3998 N   0  0  0  0  0  0  0  0  0  0  0  0
    7.3378  -18.8019   21.6741 C   0  0  1  0  0  0  0  0  0  0  0  0
    7.4558  -19.8938   22.7203 C   0  0  0  0  0  0  0  0  0  0  0  0
    6.5576  -21.0545   22.4752 C   0  0  0  0  0  0  0  0  0  0  0  0
    6.7539  -22.0790   23.5286 C   0  0  0  0  0  0  0  0  0  0  0  0
    5.9674  -22.0714   24.5184 O   0  0  0  0  0  0  0  0  0  0  0  0
    8.3586  -17.7560   21.8614 C   0  0  0  0  0  0  0  0  0  0  0  0
    9.5441  -17.9962   21.4857 O   0  0  0  0  0  0  0  0  0  0  0  0
    7.7400  -23.0497   23.5102 O   0  0  0  0  0  0  0  0  0  0  0  0
    7.3642  -13.6282   16.5963 O   0  0  0  0  0  0  0  0  0  0  0  0
    7.7087  -13.7736   17.9527 C   0  0  0  0  0  0  0  0  0  0  0  0
    7.3557  -12.8123   18.8719 C   0  0  0  0  0  0  0  0  0  0  0  0
    7.6911  -12.9520   20.1914 C   0  0  0  0  0  0  0  0  0  0  0  0
    8.3855  -14.0350   20.6801 C   0  0  0  0  0  0  0  0  0  0  0  0
    8.7282  -14.1756   22.0857 C   0  0  0  0  0  0  0  0  0  0  0  0
    9.2599  -15.4929   22.5557 C   0  0  2  0  0  0  0  0  0  0  0  0
    8.1373  -16.4803   22.4296 N   0  0  0  0  0  0  0  0  0  0  0  0
    9.7644  -15.5428   23.9351 C   0  0  0  0  0  0  0  0  0  0  0  0
   10.5326  -14.6111   24.3825 O   0  0  0  0  0  0  0  0  0  0  0  0
    8.7401  -15.0082   19.7419 C   0  0  0  0  0  0  0  0  0  0  0  0
    8.4044  -14.8728   18.4039 C   0  0  0  0  0  0  0  0  0  0  0  0
    9.4868  -16.5493   24.8921 N   0  0  0  0  0  0  0  0  0  0  0  0
   10.0673  -16.5618   26.2109 C   0  0  1  0  0  0  0  0  0  0  0  0
    9.6412  -15.3730   27.0380 C   0  0  0  0  0  0  0  0  0  0  0  0
    8.2927  -14.9634   26.5855 C   0  0  0  0  0  0  0  0  0  0  0  0
    7.2911  -15.8561   26.2131 C   0  0  0  0  0  0  0  0  0  0  0  0
    6.1845  -15.2176   25.8456 N   0  0  0  0  0  0  0  0  0  0  0  0
    6.4231  -13.8928   25.9634 C   0  0  0  0  0  0  0  0  0  0  0  0
    5.6212  -12.7749   25.7229 C   0  0  0  0  0  0  0  0  0  0  0  0
    6.1446  -11.5188   25.9452 C   0  0  0  0  0  0  0  0  0  0  0  0
    7.4455  -11.3657   26.4000 C   0  0  0  0  0  0  0  0  0  0  0  0
    8.2590  -12.4780   26.6450 C   0  0  0  0  0  0  0  0  0  0  0  0
    7.7299  -13.7219   26.4219 C   0  0  0  0  0  0  0  0  0  0  0  0
    9.8332  -17.8277   26.9055 C   0  0  0  0  0  0  0  0  0  0  0  0
    9.0807  -18.6914   26.4424 O   0  0  0  0  0  0  0  0  0  0  0  0
   10.4548  -18.1070   28.1185 O   0  0  0  0  0  0  0  0  0  0  0  0
  2  1  1  6
  3  2  1  0
  4  5  1  0
  4  3  1  0
  5  6  2  0
  7  2  1  0
  8  7  2  0
  9  5  1  0
 10 11  1  0
 11 12  2  0
 12 13  1  0
 14 15  1  0
 14 13  2  0
 16 15  1  1
 16 17  1  0
 17  7  1  0
 18 19  2  0
 18 16  1  0
 20 14  1  0
 21 20  2  0
 21 11  1  0
 22 18  1  0
 23 22  1  0
 23 24  1  1
 24 25  1  0
 25 26  2  0
 25 33  1  0
 26 27  1  0
 27 28  1  0
 28 29  2  0
 29 30  1  0
 31 30  2  0
 32 31  1  0
 33 32  2  0
 33 28  1  0
 34 23  1  0
 35 34  2  0
 36 34  1  0
M  END
$$$$
