EYW.pdb
     RDKit          3D

 36 38  0  0  1  0  0  0  0  0999 V2000
    6.6202  -21.4173   23.8090 N   0  0  0  0  0  0  0  0  0  0  0  0
    6.3108  -20.0468   24.2248 C   0  0  1  0  0  0  0  0  0  0  0  0
    6.8449  -19.9417   25.6406 C   0  0  0  0  0  0  0  0  0  0  0  0
    7.5276  -21.1763   26.1139 C   0  0  0  0  0  0  0  0  0  0  0  0
    8.1313  -20.9424   27.4475 C   0  0  0  0  0  0  0  0  0  0  0  0
    9.3870  -21.0406   27.5565 O   0  0  0  0  0  0  0  0  0  0  0  0
    7.0062  -19.1236   23.3109 C   0  0  0  0  0  0  0  0  0  0  0  0
    7.9870  -19.5633   22.6408 O   0  0  0  0  0  0  0  0  0  0  0  0
    7.4191  -20.6228   28.5901 O   0  0  0  0  0  0  0  0  0  0  0  0
    8.5996  -12.1905   17.8152 O   0  0  0  0  0  0  0  0  0  0  0  0
    8.1018  -13.0770   18.7877 C   0  0  0  0  0  0  0  0  0  0  0  0
    7.6892  -14.3420   18.4366 C   0  0  0  0  0  0  0  0  0  0  0  0
    7.2038  -15.2049   19.3815 C   0  0  0  0  0  0  0  0  0  0  0  0
    7.0977  -14.8785   20.7142 C   0  0  0  0  0  0  0  0  0  0  0  0
    6.5882  -15.8074   21.7094 C   0  0  0  0  0  0  0  0  0  0  0  0
    7.4846  -16.9142   22.1683 C   0  0  2  0  0  0  0  0  0  0  0  0
    6.6753  -17.7649   23.1022 N   0  0  0  0  0  0  0  0  0  0  0  0
    8.7183  -16.5157   22.8604 C   0  0  0  0  0  0  0  0  0  0  0  0
    9.7437  -16.1200   22.1894 O   0  0  0  0  0  0  0  0  0  0  0  0
    7.5191  -13.5929   21.0645 C   0  0  0  0  0  0  0  0  0  0  0  0
    8.0110  -12.7135   20.1127 C   0  0  0  0  0  0  0  0  0  0  0  0
    8.9271  -16.5080   24.2612 N   0  0  0  0  0  0  0  0  0  0  0  0
   10.1349  -16.0151   24.8734 C   0  0  1  0  0  0  0  0  0  0  0  0
    9.9406  -14.6675   25.5254 C   0  0  0  0  0  0  0  0  0  0  0  0
    8.4948  -14.4947   25.7914 C   0  0  0  0  0  0  0  0  0  0  0  0
    7.5647  -15.5299   25.7454 C   0  0  0  0  0  0  0  0  0  0  0  0
    6.3395  -15.0936   26.0204 N   0  0  0  0  0  0  0  0  0  0  0  0
    6.4252  -13.7655   26.2537 C   0  0  0  0  0  0  0  0  0  0  0  0
    5.4614  -12.8129   26.5916 C   0  0  0  0  0  0  0  0  0  0  0  0
    5.8542  -11.5046   26.7797 C   0  0  0  0  0  0  0  0  0  0  0  0
    7.1838  -11.1386   26.6361 C   0  0  0  0  0  0  0  0  0  0  0  0
    8.1592  -12.0838   26.2980 C   0  0  0  0  0  0  0  0  0  0  0  0
    7.7594  -13.3812   26.1139 C   0  0  0  0  0  0  0  0  0  0  0  0
   10.7271  -16.9894   25.7898 C   0  0  0  0  0  0  0  0  0  0  0  0
   10.1211  -18.0113   26.1291 O   0  0  0  0  0  0  0  0  0  0  0  0
   12.0022  -16.8004   26.3134 O   0  0  0  0  0  0  0  0  0  0  0  0
  2  1  1  6
  3  2  1  0
  4  5  1  0
  4  3  1  0
  5  6  2  0
  7  2  1  0
  8  7  2  0
  9  5  1  0
 10 11  1  0
 11 12  2  0
 12 13  1  0
 14 15  1  0
 14 13  2  0
 16 15  1  1
 16 17  1  0
 17  7  1  0
 18 19  2  0
 18 16  1  0
 20 14  1  0
 21 20  2  0
 21 11  1  0
 22 18  1  0
 23 22  1  0
 23 24  1  1
 24 25  1  0
 25 26  2  0
 25 33  1  0
 26 27  1  0
 27 28  1  0
 28 29  2  0
 29 30  1  0
 31 30  2  0
 32 31  1  0
 33 32  2  0
 33 28  1  0
 34 23  1  0
 35 34  2  0
 36 34  1  0
M  END
$$$$
