EYW.pdb
     RDKit          3D

 36 38  0  0  1  0  0  0  0  0999 V2000
    9.1923  -19.0053   20.0496 N   0  0  0  0  0  0  0  0  0  0  0  0
   10.3811  -18.2616   19.6245 C   0  0  1  0  0  0  0  0  0  0  0  0
   10.1128  -17.8973   18.1768 C   0  0  0  0  0  0  0  0  0  0  0  0
   11.2148  -17.1248   17.5419 C   0  0  0  0  0  0  0  0  0  0  0  0
   11.5975  -17.7521   16.2543 C   0  0  0  0  0  0  0  0  0  0  0  0
   12.7967  -17.6369   15.8709 O   0  0  0  0  0  0  0  0  0  0  0  0
   10.4992  -17.0638   20.4743 C   0  0  0  0  0  0  0  0  0  0  0  0
   11.5199  -16.3263   20.3385 O   0  0  0  0  0  0  0  0  0  0  0  0
   10.7353  -18.4591   15.4348 O   0  0  0  0  0  0  0  0  0  0  0  0
    7.1164  -12.8616   16.7259 O   0  0  0  0  0  0  0  0  0  0  0  0
    7.4464  -13.2963   18.0227 C   0  0  0  0  0  0  0  0  0  0  0  0
    8.1612  -12.4841   18.8729 C   0  0  0  0  0  0  0  0  0  0  0  0
    8.4837  -12.9062   20.1342 C   0  0  0  0  0  0  0  0  0  0  0  0
    8.1250  -14.1392   20.6293 C   0  0  0  0  0  0  0  0  0  0  0  0
    8.4665  -14.5722   21.9741 C   0  0  0  0  0  0  0  0  0  0  0  0
    9.7342  -15.3430   22.1684 C   0  0  2  0  0  0  0  0  0  0  0  0
    9.5608  -16.6467   21.4463 N   0  0  0  0  0  0  0  0  0  0  0  0
   10.1200  -15.6332   23.5565 C   0  0  0  0  0  0  0  0  0  0  0  0
   11.0411  -14.9437   24.1350 O   0  0  0  0  0  0  0  0  0  0  0  0
    7.3984  -14.9589   19.7614 C   0  0  0  0  0  0  0  0  0  0  0  0
    7.0690  -14.5382   18.4825 C   0  0  0  0  0  0  0  0  0  0  0  0
    9.5640  -16.6362   24.3876 N   0  0  0  0  0  0  0  0  0  0  0  0
    9.9327  -16.8049   25.7704 C   0  0  1  0  0  0  0  0  0  0  0  0
    9.7158  -15.5497   26.5806 C   0  0  0  0  0  0  0  0  0  0  0  0
    8.3434  -15.0652   26.3110 C   0  0  0  0  0  0  0  0  0  0  0  0
    7.2911  -15.8861   25.9142 C   0  0  0  0  0  0  0  0  0  0  0  0
    6.1727  -15.1896   25.7372 N   0  0  0  0  0  0  0  0  0  0  0  0
    6.4536  -13.8963   26.0098 C   0  0  0  0  0  0  0  0  0  0  0  0
    5.6618  -12.7459   25.9950 C   0  0  0  0  0  0  0  0  0  0  0  0
    6.2338  -11.5384   26.3356 C   0  0  0  0  0  0  0  0  0  0  0  0
    7.5730  -11.4652   26.6874 C   0  0  0  0  0  0  0  0  0  0  0  0
    8.3769  -12.6108   26.7063 C   0  0  0  0  0  0  0  0  0  0  0  0
    7.7995  -13.8060   26.3671 C   0  0  0  0  0  0  0  0  0  0  0  0
    9.2869  -17.9693   26.3762 C   0  0  0  0  0  0  0  0  0  0  0  0
    8.4409  -18.6315   25.7660 O   0  0  0  0  0  0  0  0  0  0  0  0
    9.6058  -18.3764   27.6678 O   0  0  0  0  0  0  0  0  0  0  0  0
  2  1  1  1
  3  2  1  0
  4  5  1  0
  4  3  1  0
  5  6  2  0
  7  2  1  0
  8  7  2  0
  9  5  1  0
 10 11  1  0
 11 12  2  0
 12 13  1  0
 14 15  1  0
 14 13  2  0
 16 15  1  1
 16 17  1  0
 17  7  1  0
 18 19  2  0
 18 16  1  0
 20 14  1  0
 21 20  2  0
 21 11  1  0
 22 18  1  0
 23 22  1  0
 23 24  1  1
 24 25  1  0
 25 26  2  0
 25 33  1  0
 26 27  1  0
 27 28  1  0
 28 29  2  0
 29 30  1  0
 31 30  2  0
 32 31  1  0
 33 32  2  0
 33 28  1  0
 34 23  1  0
 35 34  2  0
 36 34  1  0
M  END
$$$$
