CVT.pdb
     RDKit          3D

 21 20  0  0  1  0  0  0  0  0999 V2000
    7.6189  -13.7744   20.1118 N   0  0  0  0  0  0  0  0  0  0  0  0
    6.9403  -14.3764   21.2414 C   0  0  1  0  0  0  0  0  0  0  0  0
    6.7105  -15.8373   20.8829 C   0  0  0  0  0  0  0  0  0  0  0  0
    5.8220  -16.7069   22.1985 S   0  0  0  0  0  0  0  0  0  0  0  0
    7.7362  -14.2465   22.4851 C   0  0  0  0  0  0  0  0  0  0  0  0
    8.9813  -14.3447   22.4314 O   0  0  0  0  0  0  0  0  0  0  0  0
    7.3736  -13.3127   27.3729 C   0  0  0  0  0  0  0  0  0  0  0  0
    6.7978  -13.3173   25.9742 C   0  0  1  0  0  0  0  0  0  0  0  0
    6.4706  -11.9093   25.6020 C   0  0  0  0  0  0  0  0  0  0  0  0
    7.7954  -13.9355   24.9844 C   0  0  2  0  0  0  0  0  0  0  0  0
    7.1047  -14.0154   23.7143 N   0  0  0  0  0  0  0  0  0  0  0  0
    8.2019  -15.2788   25.4282 C   0  0  0  0  0  0  0  0  0  0  0  0
    7.3551  -16.2055   25.5155 O   0  0  0  0  0  0  0  0  0  0  0  0
   11.6048  -18.8100   25.7840 C   0  0  0  0  0  0  0  0  0  0  0  0
   11.1280  -17.4606   25.3719 C   0  0  1  0  0  0  0  0  0  0  0  0
   10.7935  -17.4447   24.0238 O   0  0  0  0  0  0  0  0  0  0  0  0
    9.9399  -16.9637   26.1439 C   0  0  2  0  0  0  0  0  0  0  0  0
    9.5464  -15.6204   25.7819 N   0  0  0  0  0  0  0  0  0  0  0  0
   10.1387  -17.0932   27.6182 C   0  0  0  0  0  0  0  0  0  0  0  0
    9.8964  -18.2602   28.3000 O   0  0  0  0  0  0  0  0  0  0  0  0
   10.5439  -16.0829   28.2396 O   0  0  0  0  0  0  0  0  0  0  0  0
  2  1  1  6
  2  3  1  0
  3  4  1  0
  5  2  1  0
  6  5  2  0
  8 10  1  0
  8  7  1  1
  9  8  1  0
 10 12  1  0
 10 11  1  6
 11  5  1  0
 12 18  1  0
 13 12  2  0
 15 14  1  1
 15 16  1  0
 17 18  1  1
 17 19  1  0
 17 15  1  0
 19 21  2  0
 19 20  1  0
M  END
$$$$
