CVT.pdb
     RDKit          3D

 21 20  0  0  1  0  0  0  0  0999 V2000
    7.2732  -14.7579   20.4960 N   0  0  0  0  0  0  0  0  0  0  0  0
    6.6473  -15.1776   21.7334 C   0  0  1  0  0  0  0  0  0  0  0  0
    6.3960  -16.6732   21.6083 C   0  0  0  0  0  0  0  0  0  0  0  0
    4.7012  -17.0141   21.0720 S   0  0  0  0  0  0  0  0  0  0  0  0
    7.5020  -14.8718   22.9052 C   0  0  0  0  0  0  0  0  0  0  0  0
    8.7418  -15.0033   22.8130 O   0  0  0  0  0  0  0  0  0  0  0  0
    7.4996  -12.9599   27.4947 C   0  0  0  0  0  0  0  0  0  0  0  0
    6.8187  -13.2539   26.1763 C   0  0  1  0  0  0  0  0  0  0  0  0
    6.5885  -11.9575   25.4733 C   0  0  0  0  0  0  0  0  0  0  0  0
    7.6783  -14.2009   25.3270 C   0  0  2  0  0  0  0  0  0  0  0  0
    6.9317  -14.4384   24.1094 N   0  0  0  0  0  0  0  0  0  0  0  0
    7.9102  -15.4689   26.0376 C   0  0  0  0  0  0  0  0  0  0  0  0
    6.9399  -16.1608   26.4415 O   0  0  0  0  0  0  0  0  0  0  0  0
    9.1991  -18.5863   24.7850 C   0  0  0  0  0  0  0  0  0  0  0  0
   10.0272  -18.2923   25.9874 C   0  0  1  0  0  0  0  0  0  0  0  0
   11.2830  -17.8256   25.6210 O   0  0  0  0  0  0  0  0  0  0  0  0
    9.4207  -17.2870   26.9234 C   0  0  2  0  0  0  0  0  0  0  0  0
    9.2137  -15.9927   26.3133 N   0  0  0  0  0  0  0  0  0  0  0  0
   10.1948  -17.1709   28.1951 C   0  0  0  0  0  0  0  0  0  0  0  0
   10.8775  -16.0327   28.5470 O   0  0  0  0  0  0  0  0  0  0  0  0
   10.2086  -18.1651   28.9583 O   0  0  0  0  0  0  0  0  0  0  0  0
  2  1  1  6
  2  3  1  0
  3  4  1  0
  5  2  1  0
  6  5  2  0
  8 10  1  0
  8  7  1  1
  9  8  1  0
 10 12  1  0
 10 11  1  6
 11  5  1  0
 12 18  1  0
 13 12  2  0
 15 14  1  6
 15 16  1  0
 17 18  1  6
 17 19  1  0
 17 15  1  0
 19 21  2  0
 19 20  1  0
M  END
$$$$
