CVT.pdb
     RDKit          3D

 21 20  0  0  1  0  0  0  0  0999 V2000
    9.2608  -17.2398   16.4496 N   0  0  0  0  0  0  0  0  0  0  0  0
    8.3926  -17.1187   17.6031 C   0  0  1  0  0  0  0  0  0  0  0  0
    7.9513  -18.5291   17.9655 C   0  0  0  0  0  0  0  0  0  0  0  0
    6.5069  -19.0364   16.9997 S   0  0  0  0  0  0  0  0  0  0  0  0
    9.0855  -16.4635   18.7378 C   0  0  0  0  0  0  0  0  0  0  0  0
   10.2776  -16.7523   18.9798 O   0  0  0  0  0  0  0  0  0  0  0  0
    8.0246  -12.6710   19.8056 C   0  0  0  0  0  0  0  0  0  0  0  0
    8.0799  -13.6446   20.9620 C   0  0  1  0  0  0  0  0  0  0  0  0
    6.6937  -14.1308   21.2265 C   0  0  0  0  0  0  0  0  0  0  0  0
    9.0247  -14.8106   20.6380 C   0  0  2  0  0  0  0  0  0  0  0  0
    8.4161  -15.5273   19.5369 N   0  0  0  0  0  0  0  0  0  0  0  0
    9.1726  -15.6978   21.8032 C   0  0  0  0  0  0  0  0  0  0  0  0
    8.1779  -16.3136   22.2667 O   0  0  0  0  0  0  0  0  0  0  0  0
   10.4244  -18.9403   22.1738 C   0  0  0  0  0  0  0  0  0  0  0  0
   11.2069  -18.1466   23.1615 C   0  0  1  0  0  0  0  0  0  0  0  0
   12.4703  -17.8487   22.6669 O   0  0  0  0  0  0  0  0  0  0  0  0
   10.5583  -16.8547   23.5676 C   0  0  2  0  0  0  0  0  0  0  0  0
   10.4177  -15.9194   22.4741 N   0  0  0  0  0  0  0  0  0  0  0  0
   11.2472  -16.2272   24.7344 C   0  0  0  0  0  0  0  0  0  0  0  0
   11.3297  -16.8356   25.9626 O   0  0  0  0  0  0  0  0  0  0  0  0
   11.7646  -15.0983   24.5639 O   0  0  0  0  0  0  0  0  0  0  0  0
  2  1  1  6
  2  3  1  0
  3  4  1  0
  5  2  1  0
  6  5  2  0
  8 10  1  0
  8  7  1  6
  9  8  1  0
 10 12  1  0
 10 11  1  6
 11  5  1  0
 12 18  1  0
 13 12  2  0
 15 14  1  6
 15 16  1  0
 17 18  1  6
 17 19  1  0
 17 15  1  0
 19 21  2  0
 19 20  1  0
M  END
$$$$
