CVT.pdb
     RDKit          3D

 21 20  0  0  1  0  0  0  0  0999 V2000
    8.4949  -14.8307   20.4862 N   0  0  0  0  0  0  0  0  0  0  0  0
    7.4660  -14.9248   21.5018 C   0  0  1  0  0  0  0  0  0  0  0  0
    6.8473  -16.3085   21.3673 C   0  0  0  0  0  0  0  0  0  0  0  0
    6.1266  -16.5515   19.7247 S   0  0  0  0  0  0  0  0  0  0  0  0
    8.0223  -14.7139   22.8594 C   0  0  0  0  0  0  0  0  0  0  0  0
    9.2075  -15.0342   23.0949 O   0  0  0  0  0  0  0  0  0  0  0  0
    6.9702  -12.9309   27.3942 C   0  0  0  0  0  0  0  0  0  0  0  0
    6.6860  -13.0480   25.9131 C   0  0  1  0  0  0  0  0  0  0  0  0
    6.8417  -11.6952   25.3019 C   0  0  0  0  0  0  0  0  0  0  0  0
    7.6355  -14.0638   25.2624 C   0  0  2  0  0  0  0  0  0  0  0  0
    7.2318  -14.1604   23.8753 N   0  0  0  0  0  0  0  0  0  0  0  0
    7.5204  -15.3763   25.9188 C   0  0  0  0  0  0  0  0  0  0  0  0
    6.4834  -16.0739   25.7729 O   0  0  0  0  0  0  0  0  0  0  0  0
    7.4671  -18.0061   24.9412 C   0  0  0  0  0  0  0  0  0  0  0  0
    8.5881  -18.2467   25.8918 C   0  0  1  0  0  0  0  0  0  0  0  0
    9.8148  -18.1037   25.2562 O   0  0  0  0  0  0  0  0  0  0  0  0
    8.5856  -17.3421   27.0903 C   0  0  2  0  0  0  0  0  0  0  0  0
    8.5454  -15.9388   26.7449 N   0  0  0  0  0  0  0  0  0  0  0  0
    9.7173  -17.6414   28.0175 C   0  0  0  0  0  0  0  0  0  0  0  0
    9.7972  -18.8071   28.7387 O   0  0  0  0  0  0  0  0  0  0  0  0
   10.6207  -16.7795   28.1269 O   0  0  0  0  0  0  0  0  0  0  0  0
  2  1  1  6
  2  3  1  0
  3  4  1  0
  5  2  1  0
  6  5  2  0
  8 10  1  0
  8  7  1  1
  9  8  1  0
 10 12  1  0
 10 11  1  6
 11  5  1  0
 12 18  1  0
 13 12  2  0
 15 14  1  6
 15 16  1  0
 17 18  1  6
 17 19  1  0
 17 15  1  0
 19 21  2  0
 19 20  1  0
M  END
$$$$
