CVT.pdb
     RDKit          3D

 21 20  0  0  1  0  0  0  0  0999 V2000
    8.9285  -17.4331   16.7983 N   0  0  0  0  0  0  0  0  0  0  0  0
    8.0099  -17.2691   17.9067 C   0  0  1  0  0  0  0  0  0  0  0  0
    7.5732  -18.6669   18.3202 C   0  0  0  0  0  0  0  0  0  0  0  0
    6.1297  -19.2131   17.3744 S   0  0  0  0  0  0  0  0  0  0  0  0
    8.6443  -16.5477   19.0355 C   0  0  0  0  0  0  0  0  0  0  0  0
    9.8507  -16.7496   19.2940 O   0  0  0  0  0  0  0  0  0  0  0  0
    7.8420  -12.9850   22.4334 C   0  0  0  0  0  0  0  0  0  0  0  0
    7.4175  -13.7856   21.2222 C   0  0  1  0  0  0  0  0  0  0  0  0
    7.2739  -12.8460   20.0714 C   0  0  0  0  0  0  0  0  0  0  0  0
    8.4454  -14.8842   20.9170 C   0  0  2  0  0  0  0  0  0  0  0  0
    7.9039  -15.6455   19.8107 N   0  0  0  0  0  0  0  0  0  0  0  0
    8.6379  -15.7548   22.0881 C   0  0  0  0  0  0  0  0  0  0  0  0
    7.6466  -16.2428   22.6903 O   0  0  0  0  0  0  0  0  0  0  0  0
   10.3437  -19.0759   22.3725 C   0  0  0  0  0  0  0  0  0  0  0  0
   10.9219  -18.1973   23.4269 C   0  0  1  0  0  0  0  0  0  0  0  0
   12.1901  -17.7605   23.0661 O   0  0  0  0  0  0  0  0  0  0  0  0
   10.0934  -16.9855   23.7430 C   0  0  2  0  0  0  0  0  0  0  0  0
    9.9244  -16.1002   22.6125 N   0  0  0  0  0  0  0  0  0  0  0  0
   10.6112  -16.2513   24.9357 C   0  0  0  0  0  0  0  0  0  0  0  0
   11.1558  -14.9935   24.8541 O   0  0  0  0  0  0  0  0  0  0  0  0
   10.5359  -16.8252   26.0476 O   0  0  0  0  0  0  0  0  0  0  0  0
  2  1  1  6
  2  3  1  0
  3  4  1  0
  5  2  1  0
  6  5  2  0
  8 10  1  0
  8  7  1  1
  9  8  1  0
 10 12  1  0
 10 11  1  6
 11  5  1  0
 12 18  1  0
 13 12  2  0
 15 14  1  6
 15 16  1  0
 17 18  1  6
 17 19  1  0
 17 15  1  0
 19 21  2  0
 19 20  1  0
M  END
$$$$
