CVT.pdb
     RDKit          3D

 21 20  0  0  1  0  0  0  0  0999 V2000
    7.5736  -14.5129   20.4525 N   0  0  0  0  0  0  0  0  0  0  0  0
    6.9310  -14.9775   21.6650 C   0  0  1  0  0  0  0  0  0  0  0  0
    6.7219  -16.4757   21.4999 C   0  0  0  0  0  0  0  0  0  0  0  0
    5.9499  -17.1992   22.9686 S   0  0  0  0  0  0  0  0  0  0  0  0
    7.7505  -14.6774   22.8630 C   0  0  0  0  0  0  0  0  0  0  0  0
    8.9954  -14.7710   22.7957 O   0  0  0  0  0  0  0  0  0  0  0  0
    7.5417  -13.0109   27.5529 C   0  0  0  0  0  0  0  0  0  0  0  0
    6.9025  -13.2709   26.2068 C   0  0  1  0  0  0  0  0  0  0  0  0
    6.5605  -11.9539   25.5930 C   0  0  0  0  0  0  0  0  0  0  0  0
    7.8530  -14.0727   25.3065 C   0  0  2  0  0  0  0  0  0  0  0  0
    7.1416  -14.2914   24.0645 N   0  0  0  0  0  0  0  0  0  0  0  0
    8.1955  -15.3610   25.9307 C   0  0  0  0  0  0  0  0  0  0  0  0
    7.2916  -16.1151   26.3752 O   0  0  0  0  0  0  0  0  0  0  0  0
   10.2545  -18.2245   24.4172 C   0  0  0  0  0  0  0  0  0  0  0  0
   10.7753  -17.9443   25.7840 C   0  0  1  0  0  0  0  0  0  0  0  0
   11.9925  -17.2780   25.7226 O   0  0  0  0  0  0  0  0  0  0  0  0
    9.8506  -17.1294   26.6416 C   0  0  2  0  0  0  0  0  0  0  0  0
    9.5381  -15.8369   26.0741 N   0  0  0  0  0  0  0  0  0  0  0  0
   10.3557  -17.0009   28.0409 C   0  0  0  0  0  0  0  0  0  0  0  0
   10.7737  -15.8057   28.5721 O   0  0  0  0  0  0  0  0  0  0  0  0
   10.3912  -18.0392   28.7422 O   0  0  0  0  0  0  0  0  0  0  0  0
  2  1  1  6
  2  3  1  0
  3  4  1  0
  5  2  1  0
  6  5  2  0
  8 10  1  0
  8  7  1  1
  9  8  1  0
 10 12  1  0
 10 11  1  6
 11  5  1  0
 12 18  1  0
 13 12  2  0
 15 14  1  6
 15 16  1  0
 17 18  1  6
 17 19  1  0
 17 15  1  0
 19 21  2  0
 19 20  1  0
M  END
$$$$
