CVT.pdb
     RDKit          3D

 21 20  0  0  1  0  0  0  0  0999 V2000
    8.8491  -16.9877   15.7188 N   0  0  0  0  0  0  0  0  0  0  0  0
    8.0367  -17.0947   16.9136 C   0  0  1  0  0  0  0  0  0  0  0  0
    7.8293  -18.5808   17.1670 C   0  0  0  0  0  0  0  0  0  0  0  0
    6.9732  -18.8687   18.7356 S   0  0  0  0  0  0  0  0  0  0  0  0
    8.6859  -16.4368   18.0723 C   0  0  0  0  0  0  0  0  0  0  0  0
    9.9204  -16.5519   18.2326 O   0  0  0  0  0  0  0  0  0  0  0  0
    7.8295  -13.1997   21.7649 C   0  0  0  0  0  0  0  0  0  0  0  0
    7.4097  -13.9314   20.5093 C   0  0  1  0  0  0  0  0  0  0  0  0
    7.1717  -12.9185   19.4391 C   0  0  0  0  0  0  0  0  0  0  0  0
    8.4881  -14.9400   20.0890 C   0  0  2  0  0  0  0  0  0  0  0  0
    7.9282  -15.6905   18.9846 N   0  0  0  0  0  0  0  0  0  0  0  0
    8.8165  -15.8433   21.2038 C   0  0  0  0  0  0  0  0  0  0  0  0
    7.9096  -16.4891   21.7903 O   0  0  0  0  0  0  0  0  0  0  0  0
   10.5488  -18.9961   21.1132 C   0  0  0  0  0  0  0  0  0  0  0  0
   11.2630  -18.1939   22.1450 C   0  0  1  0  0  0  0  0  0  0  0  0
   12.4538  -17.6871   21.6406 O   0  0  0  0  0  0  0  0  0  0  0  0
   10.4692  -17.0412   22.6888 C   0  0  2  0  0  0  0  0  0  0  0  0
   10.1479  -16.0482   21.6883 N   0  0  0  0  0  0  0  0  0  0  0  0
   11.1276  -16.4219   23.8775 C   0  0  0  0  0  0  0  0  0  0  0  0
   11.1636  -17.0315   25.1073 O   0  0  0  0  0  0  0  0  0  0  0  0
   11.6632  -15.2991   23.7242 O   0  0  0  0  0  0  0  0  0  0  0  0
  2  1  1  6
  2  3  1  0
  3  4  1  0
  5  2  1  0
  6  5  2  0
  8 10  1  0
  8  7  1  1
  9  8  1  0
 10 12  1  0
 10 11  1  6
 11  5  1  0
 12 18  1  0
 13 12  2  0
 15 14  1  6
 15 16  1  0
 17 18  1  6
 17 19  1  0
 17 15  1  0
 19 21  2  0
 19 20  1  0
M  END
$$$$
