CVT.pdb
     RDKit          3D

 21 20  0  0  1  0  0  0  0  0999 V2000
    7.8416  -14.5975   20.2385 N   0  0  0  0  0  0  0  0  0  0  0  0
    7.2036  -14.9994   21.4756 C   0  0  1  0  0  0  0  0  0  0  0  0
    6.9555  -16.4971   21.3705 C   0  0  0  0  0  0  0  0  0  0  0  0
    5.9801  -17.1033   22.7697 S   0  0  0  0  0  0  0  0  0  0  0  0
    8.0458  -14.6748   22.6513 C   0  0  0  0  0  0  0  0  0  0  0  0
    9.2775  -14.8832   22.6018 O   0  0  0  0  0  0  0  0  0  0  0  0
    5.9628  -13.5188   26.1379 C   0  0  0  0  0  0  0  0  0  0  0  0
    7.3451  -12.9606   25.8819 C   0  0  1  0  0  0  0  0  0  0  0  0
    7.9838  -12.6787   27.2012 C   0  0  0  0  0  0  0  0  0  0  0  0
    8.1815  -13.9522   25.0609 C   0  0  2  0  0  0  0  0  0  0  0  0
    7.4729  -14.1386   23.8121 N   0  0  0  0  0  0  0  0  0  0  0  0
    8.3091  -15.2355   25.7704 C   0  0  0  0  0  0  0  0  0  0  0  0
    7.2978  -15.9567   25.9716 O   0  0  0  0  0  0  0  0  0  0  0  0
    9.9861  -18.2572   24.7013 C   0  0  0  0  0  0  0  0  0  0  0  0
   10.5034  -18.0038   26.0746 C   0  0  1  0  0  0  0  0  0  0  0  0
   11.7994  -17.5058   26.0310 O   0  0  0  0  0  0  0  0  0  0  0  0
    9.6726  -17.0469   26.8801 C   0  0  2  0  0  0  0  0  0  0  0  0
    9.5519  -15.7426   26.2682 N   0  0  0  0  0  0  0  0  0  0  0  0
   10.1512  -16.9434   28.2908 C   0  0  0  0  0  0  0  0  0  0  0  0
   10.1108  -17.9993   29.1675 O   0  0  0  0  0  0  0  0  0  0  0  0
   10.6047  -15.8379   28.6695 O   0  0  0  0  0  0  0  0  0  0  0  0
  2  1  1  6
  2  3  1  0
  3  4  1  0
  5  2  1  0
  6  5  2  0
  8 10  1  0
  8  7  1  1
  9  8  1  0
 10 12  1  0
 10 11  1  6
 11  5  1  0
 12 18  1  0
 13 12  2  0
 15 14  1  6
 15 16  1  0
 17 18  1  6
 17 19  1  0
 17 15  1  0
 19 21  2  0
 19 20  1  0
M  END
$$$$
