CVT.pdb
     RDKit          3D

 21 20  0  0  1  0  0  0  0  0999 V2000
    7.7819  -14.6901   20.4129 N   0  0  0  0  0  0  0  0  0  0  0  0
    7.1073  -15.1007   21.6275 C   0  0  1  0  0  0  0  0  0  0  0  0
    6.8681  -16.5986   21.5072 C   0  0  0  0  0  0  0  0  0  0  0  0
    5.4391  -16.9554   20.4550 S   0  0  0  0  0  0  0  0  0  0  0  0
    7.9115  -14.7792   22.8304 C   0  0  0  0  0  0  0  0  0  0  0  0
    9.1590  -14.8296   22.7676 O   0  0  0  0  0  0  0  0  0  0  0  0
    7.6153  -13.0283   27.4828 C   0  0  0  0  0  0  0  0  0  0  0  0
    7.0123  -13.3107   26.1245 C   0  0  1  0  0  0  0  0  0  0  0  0
    6.6819  -12.0043   25.4825 C   0  0  0  0  0  0  0  0  0  0  0  0
    7.9885  -14.1223   25.2613 C   0  0  2  0  0  0  0  0  0  0  0  0
    7.2851  -14.4210   24.0315 N   0  0  0  0  0  0  0  0  0  0  0  0
    8.3721  -15.3686   25.9440 C   0  0  0  0  0  0  0  0  0  0  0  0
    7.5096  -16.2492   26.1970 O   0  0  0  0  0  0  0  0  0  0  0  0
   11.7466  -18.8538   26.6517 C   0  0  0  0  0  0  0  0  0  0  0  0
   11.2862  -17.5388   26.1256 C   0  0  1  0  0  0  0  0  0  0  0  0
   10.9496  -17.6343   24.7814 O   0  0  0  0  0  0  0  0  0  0  0  0
   10.1059  -16.9623   26.8529 C   0  0  2  0  0  0  0  0  0  0  0  0
    9.7107  -15.6627   26.3577 N   0  0  0  0  0  0  0  0  0  0  0  0
   10.3181  -16.9393   28.3308 C   0  0  0  0  0  0  0  0  0  0  0  0
   10.1153  -18.0396   29.1269 O   0  0  0  0  0  0  0  0  0  0  0  0
   10.6971  -15.8610   28.8455 O   0  0  0  0  0  0  0  0  0  0  0  0
  2  1  1  6
  2  3  1  0
  3  4  1  0
  5  2  1  0
  6  5  2  0
  8 10  1  0
  8  7  1  1
  9  8  1  0
 10 12  1  0
 10 11  1  6
 11  5  1  0
 12 18  1  0
 13 12  2  0
 15 14  1  1
 15 16  1  0
 17 18  1  6
 17 19  1  0
 17 15  1  0
 19 21  2  0
 19 20  1  0
M  END
$$$$
