RCA.pdb
     RDKit          3D

 23 22  0  0  1  0  0  0  0  0999 V2000
   15.7047  -29.5822   -6.4222 N   0  0  0  0  0  0  0  0  0  0  0  0
   16.9842  -29.6970   -5.8255 C   0  0  0  0  0  0  0  0  0  0  0  0
   17.3260  -30.8333   -5.3107 N   0  0  0  0  0  0  0  0  0  0  0  0
   17.8408  -28.5728   -5.8121 N   0  0  0  0  0  0  0  0  0  0  0  0
   17.4177  -27.3344   -6.4741 C   0  0  0  0  0  0  0  0  0  0  0  0
   18.5008  -26.9765   -7.4281 C   0  0  0  0  0  0  0  0  0  0  0  0
   18.0980  -25.8371   -8.3091 C   0  0  0  0  0  0  0  0  0  0  0  0
   18.6367  -24.5630   -7.7808 C   0  0  2  0  0  0  0  0  0  0  0  0
   18.0899  -24.3445   -6.4603 N   0  0  0  0  0  0  0  0  0  0  0  0
   18.3056  -23.3832   -8.6219 C   0  0  0  0  0  0  0  0  0  0  0  0
   17.1744  -22.8475   -8.6649 O   0  0  0  0  0  0  0  0  0  0  0  0
   18.2237  -31.0188   -4.8346 N   0  0  0  0  0  0  0  0  0  0  0  0
   19.3080  -22.8111   -9.4315 C   0  0  1  0  0  0  0  0  0  0  0  0
   19.1217  -21.7229  -10.3446 C   0  0  0  0  0  0  0  0  0  0  0  0
   20.3621  -20.9253  -10.6146 S   0  0  0  0  0  0  0  0  0  0  0  0
   21.0248  -20.1381   -9.1255 C   0  0  0  0  0  0  0  0  0  0  0  0
   18.4916  -22.2218  -11.5699 O   0  0  0  0  0  0  0  0  0  0  0  0
   18.5579  -23.4323  -11.8837 C   0  0  0  0  0  0  0  0  0  0  0  0
   16.4624  -23.2371  -13.1936 C   0  0  2  0  0  0  0  0  0  0  0  0
   16.9603  -21.8339  -13.4845 N   0  0  0  0  0  0  0  0  0  0  0  0
   17.7917  -21.3415  -12.4277 C   0  0  0  0  0  0  0  0  0  0  0  0
   15.7889  -20.9417  -13.6374 O   0  0  0  0  0  0  0  0  0  0  0  0
   14.9858  -20.9729  -14.7652 O   0  0  0  0  0  0  0  0  0  0  0  0
  2  1  1  0
  2  4  1  0
  3  2  2  0
  5  4  1  0
  6  5  1  0
  7  6  1  0
  7  8  1  0
  8 10  1  0
  8  9  1  1
 10 12  1  0
 11 10  2  0
 12 13  1  0
 13 16  1  0
 13 14  1  1
 15 14  1  0
 16 17  2  0
 16 20  1  0
 19 18  1  6
 19 21  1  0
 20 19  1  0
 21 23  2  0
 21 22  1  0
M  END
$$$$
