RCA.pdb
     RDKit          3D

 23 22  0  0  1  0  0  0  0  0999 V2000
   20.3214  -23.1686   -8.0420 N   0  0  0  0  0  0  0  0  0  0  0  0
   19.9020  -22.9273   -9.3733 C   0  0  0  0  0  0  0  0  0  0  0  0
   18.9944  -23.6946   -9.8836 N   0  0  0  0  0  0  0  0  0  0  0  0
   20.4855  -21.8622  -10.0963 N   0  0  0  0  0  0  0  0  0  0  0  0
   21.5470  -21.0634   -9.4750 C   0  0  0  0  0  0  0  0  0  0  0  0
   22.6513  -20.9869  -10.4680 C   0  0  0  0  0  0  0  0  0  0  0  0
   23.8799  -20.3767   -9.8722 C   0  0  0  0  0  0  0  0  0  0  0  0
   25.0940  -21.0063  -10.4399 C   0  0  2  0  0  0  0  0  0  0  0  0
   25.9722  -21.3758   -9.3524 N   0  0  0  0  0  0  0  0  0  0  0  0
   25.8471  -20.1190  -11.3644 C   0  0  0  0  0  0  0  0  0  0  0  0
   26.3257  -19.0090  -11.0370 O   0  0  0  0  0  0  0  0  0  0  0  0
   18.6174  -23.6057  -10.8412 N   0  0  0  0  0  0  0  0  0  0  0  0
   26.0502  -20.5272  -12.6984 C   0  0  2  0  0  0  0  0  0  0  0  0
   26.8851  -19.8637  -13.6552 C   0  0  0  0  0  0  0  0  0  0  0  0
   28.2812  -20.4040  -13.7350 S   0  0  0  0  0  0  0  0  0  0  0  0
   29.0439  -20.6130  -12.1070 C   0  0  0  0  0  0  0  0  0  0  0  0
   26.2101  -19.8449  -14.9557 O   0  0  0  0  0  0  0  0  0  0  0  0
   25.5461  -20.8295  -15.3532 C   0  0  0  0  0  0  0  0  0  0  0  0
   25.6878  -17.2607  -17.6593 C   0  0  2  0  0  0  0  0  0  0  0  0
   25.5719  -18.6348  -17.0268 N   0  0  0  0  0  0  0  0  0  0  0  0
   26.2952  -18.7082  -15.7931 C   0  0  0  0  0  0  0  0  0  0  0  0
   26.1192  -19.6347  -17.9715 O   0  0  0  0  0  0  0  0  0  0  0  0
   25.3803  -20.1156  -19.0395 O   0  0  0  0  0  0  0  0  0  0  0  0
  2  1  1  0
  2  4  1  0
  3  2  2  0
  5  4  1  0
  6  5  1  0
  7  6  1  0
  7  8  1  0
  8 10  1  0
  8  9  1  1
 10 12  1  0
 11 10  2  0
 12 13  1  0
 13 16  1  0
 13 14  1  1
 15 14  1  0
 16 17  2  0
 16 20  1  0
 19 18  1  1
 19 21  1  0
 20 19  1  0
 21 23  2  0
 21 22  1  0
M  END
$$$$
