RCA.pdb
     RDKit          3D

 23 22  0  0  1  0  0  0  0  0999 V2000
   27.0541  -14.9462  -15.4302 N   0  0  0  0  0  0  0  0  0  0  0  0
   27.5280  -14.9932  -16.7642 C   0  0  0  0  0  0  0  0  0  0  0  0
   28.5263  -14.2390  -17.0919 N   0  0  0  0  0  0  0  0  0  0  0  0
   26.8983  -15.8577  -17.6883 N   0  0  0  0  0  0  0  0  0  0  0  0
   25.9873  -16.8978  -17.1992 C   0  0  0  0  0  0  0  0  0  0  0  0
   26.8133  -17.8346  -16.3921 C   0  0  0  0  0  0  0  0  0  0  0  0
   25.9986  -18.9805  -15.8823 C   0  0  0  0  0  0  0  0  0  0  0  0
   26.8310  -19.8681  -15.0384 C   0  0  2  0  0  0  0  0  0  0  0  0
   27.7454  -20.5913  -15.8935 N   0  0  0  0  0  0  0  0  0  0  0  0
   26.0427  -20.8579  -14.2586 C   0  0  0  0  0  0  0  0  0  0  0  0
   25.6068  -21.9340  -14.7281 O   0  0  0  0  0  0  0  0  0  0  0  0
   28.9762  -14.2275  -18.0216 N   0  0  0  0  0  0  0  0  0  0  0  0
   25.7531  -20.5947  -12.9042 C   0  0  2  0  0  0  0  0  0  0  0  0
   24.8292  -21.3287  -12.0916 C   0  0  0  0  0  0  0  0  0  0  0  0
   25.1222  -21.2746  -10.6223 S   0  0  0  0  0  0  0  0  0  0  0  0
   24.6092  -19.7130   -9.8644 C   0  0  0  0  0  0  0  0  0  0  0  0
   23.4626  -20.9081  -12.4122 O   0  0  0  0  0  0  0  0  0  0  0  0
   23.1788  -19.6983  -12.5675 C   0  0  0  0  0  0  0  0  0  0  0  0
   20.3537  -22.5791  -13.6133 C   0  0  2  0  0  0  0  0  0  0  0  0
   21.0918  -21.4755  -12.8792 N   0  0  0  0  0  0  0  0  0  0  0  0
   22.4308  -21.8650  -12.5537 C   0  0  0  0  0  0  0  0  0  0  0  0
   20.3575  -21.1688  -11.6308 O   0  0  0  0  0  0  0  0  0  0  0  0
   19.1168  -20.5538  -11.6422 O   0  0  0  0  0  0  0  0  0  0  0  0
  2  1  1  0
  2  4  1  0
  3  2  2  0
  5  4  1  0
  6  5  1  0
  7  6  1  0
  7  8  1  0
  8 10  1  0
  8  9  1  6
 10 12  1  0
 11 10  2  0
 12 13  1  0
 13 16  1  0
 13 14  1  1
 15 14  1  0
 16 17  2  0
 16 20  1  0
 19 18  1  6
 19 21  1  0
 20 19  1  0
 21 23  2  0
 21 22  1  0
M  END
$$$$
