RCA.pdb
     RDKit          3D

 23 22  0  0  1  0  0  0  0  0999 V2000
    9.2904  -12.5113   -9.9814 N   0  0  0  0  0  0  0  0  0  0  0  0
   10.5081  -13.2158  -10.1470 C   0  0  0  0  0  0  0  0  0  0  0  0
   10.5176  -14.4913   -9.9335 N   0  0  0  0  0  0  0  0  0  0  0  0
   11.6661  -12.5060  -10.5381 N   0  0  0  0  0  0  0  0  0  0  0  0
   12.0062  -11.2499   -9.8617 C   0  0  0  0  0  0  0  0  0  0  0  0
   13.1804  -10.6894  -10.5817 C   0  0  0  0  0  0  0  0  0  0  0  0
   14.4615  -11.0446   -9.8966 C   0  0  0  0  0  0  0  0  0  0  0  0
   15.6104  -10.8110  -10.8011 C   0  0  2  0  0  0  0  0  0  0  0  0
   16.3749  -12.0343  -10.8992 N   0  0  0  0  0  0  0  0  0  0  0  0
   16.5204   -9.7301  -10.3397 C   0  0  0  0  0  0  0  0  0  0  0  0
   17.4695   -9.9052   -9.5417 O   0  0  0  0  0  0  0  0  0  0  0  0
   11.3340  -15.1073  -10.0785 N   0  0  0  0  0  0  0  0  0  0  0  0
   16.3260   -8.4167  -10.8138 C   0  0  1  0  0  0  0  0  0  0  0  0
   17.1377   -7.2830  -10.4845 C   0  0  0  0  0  0  0  0  0  0  0  0
   18.3410   -7.1104  -11.3619 S   0  0  0  0  0  0  0  0  0  0  0  0
   19.1947   -5.5402  -11.0764 C   0  0  0  0  0  0  0  0  0  0  0  0
   16.2968   -6.0840  -10.4344 O   0  0  0  0  0  0  0  0  0  0  0  0
   15.6749   -5.6884  -11.4468 C   0  0  0  0  0  0  0  0  0  0  0  0
   15.0079   -3.7968   -7.7520 C   0  0  2  0  0  0  0  0  0  0  0  0
   15.3924   -4.1439   -9.1779 N   0  0  0  0  0  0  0  0  0  0  0  0
   16.1697   -5.3451   -9.2351 C   0  0  0  0  0  0  0  0  0  0  0  0
   16.1845   -3.0250   -9.7368 O   0  0  0  0  0  0  0  0  0  0  0  0
   15.6422   -1.7647   -9.9245 O   0  0  0  0  0  0  0  0  0  0  0  0
  2  1  1  0
  2  4  1  0
  3  2  2  0
  5  4  1  0
  6  5  1  0
  7  6  1  0
  7  8  1  0
  8 10  1  0
  8  9  1  1
 10 12  1  0
 11 10  2  0
 12 13  1  0
 13 16  1  0
 13 14  1  1
 15 14  1  0
 16 17  2  0
 16 20  1  0
 19 18  1  6
 19 21  1  0
 20 19  1  0
 21 23  2  0
 21 22  1  0
M  END
$$$$
