RCA.pdb
     RDKit          3D

 23 22  0  0  1  0  0  0  0  0999 V2000
   26.1836  -25.5586  -15.9333 N   0  0  0  0  0  0  0  0  0  0  0  0
   27.2251  -25.0519  -16.7489 C   0  0  0  0  0  0  0  0  0  0  0  0
   27.7589  -25.8367  -17.6275 N   0  0  0  0  0  0  0  0  0  0  0  0
   27.6444  -23.7131  -16.5771 N   0  0  0  0  0  0  0  0  0  0  0  0
   26.9243  -22.8453  -15.6394 C   0  0  0  0  0  0  0  0  0  0  0  0
   26.1292  -21.9000  -16.4674 C   0  0  0  0  0  0  0  0  0  0  0  0
   25.3159  -20.9787  -15.6151 C   0  0  0  0  0  0  0  0  0  0  0  0
   25.7358  -19.5749  -15.8293 C   0  0  2  0  0  0  0  0  0  0  0  0
   27.1242  -19.4465  -15.4472 N   0  0  0  0  0  0  0  0  0  0  0  0
   24.9449  -18.5913  -15.0444 C   0  0  0  0  0  0  0  0  0  0  0  0
   24.9886  -18.4917  -13.7968 O   0  0  0  0  0  0  0  0  0  0  0  0
   28.5430  -25.5795  -18.2488 N   0  0  0  0  0  0  0  0  0  0  0  0
   24.0838  -17.7030  -15.7205 C   0  0  1  0  0  0  0  0  0  0  0  0
   23.2922  -16.6794  -15.1055 C   0  0  0  0  0  0  0  0  0  0  0  0
   24.0874  -15.5423  -14.5380 S   0  0  0  0  0  0  0  0  0  0  0  0
   25.2919  -14.8765  -15.7134 C   0  0  0  0  0  0  0  0  0  0  0  0
   22.2605  -16.2348  -16.0464 O   0  0  0  0  0  0  0  0  0  0  0  0
   22.5377  -15.9975  -17.2443 C   0  0  0  0  0  0  0  0  0  0  0  0
   18.5363  -16.1264  -16.1135 C   0  0  2  0  0  0  0  0  0  0  0  0
   19.9047  -15.6105  -16.5170 N   0  0  0  0  0  0  0  0  0  0  0  0
   20.9233  -16.0638  -15.6183 C   0  0  0  0  0  0  0  0  0  0  0  0
   19.8708  -14.1305  -16.5068 O   0  0  0  0  0  0  0  0  0  0  0  0
   19.1614  -13.4069  -17.4508 O   0  0  0  0  0  0  0  0  0  0  0  0
  2  1  1  0
  2  4  1  0
  3  2  2  0
  5  4  1  0
  6  5  1  0
  7  6  1  0
  7  8  1  0
  8 10  1  0
  8  9  1  1
 10 12  1  0
 11 10  2  0
 12 13  1  0
 13 16  1  0
 13 14  1  1
 15 14  1  0
 16 17  2  0
 16 20  1  0
 19 18  1  6
 19 21  1  0
 20 19  1  0
 21 23  2  0
 21 22  1  0
M  END
$$$$
