RCA.pdb
     RDKit          3D

 23 22  0  0  1  0  0  0  0  0999 V2000
   15.0803  -12.8660  -13.9588 N   0  0  0  0  0  0  0  0  0  0  0  0
   14.5465  -13.3487  -15.1788 C   0  0  0  0  0  0  0  0  0  0  0  0
   13.3324  -13.7946  -15.1883 N   0  0  0  0  0  0  0  0  0  0  0  0
   15.3531  -13.3274  -16.3392 N   0  0  0  0  0  0  0  0  0  0  0  0
   16.7339  -12.8414  -16.2503 C   0  0  0  0  0  0  0  0  0  0  0  0
   16.8979  -11.8397  -17.3370 C   0  0  0  0  0  0  0  0  0  0  0  0
   18.2868  -11.2857  -17.3640 C   0  0  0  0  0  0  0  0  0  0  0  0
   18.4088  -10.2545  -18.4197 C   0  0  2  0  0  0  0  0  0  0  0  0
   18.6576  -10.9150  -19.6816 N   0  0  0  0  0  0  0  0  0  0  0  0
   19.5083   -9.2839  -18.1786 C   0  0  0  0  0  0  0  0  0  0  0  0
   20.6748   -9.4232  -18.6125 O   0  0  0  0  0  0  0  0  0  0  0  0
   12.8477  -14.1673  -16.0208 N   0  0  0  0  0  0  0  0  0  0  0  0
   19.2502   -8.1257  -17.4174 C   0  0  2  0  0  0  0  0  0  0  0  0
   20.1631   -7.0400  -17.2161 C   0  0  0  0  0  0  0  0  0  0  0  0
   19.6674   -5.7166  -17.7167 S   0  0  0  0  0  0  0  0  0  0  0  0
   19.7297   -5.5840  -19.5208 C   0  0  0  0  0  0  0  0  0  0  0  0
   20.5625   -6.9986  -15.8068 O   0  0  0  0  0  0  0  0  0  0  0  0
   19.7187   -6.8066  -14.9016 C   0  0  0  0  0  0  0  0  0  0  0  0
   23.5406   -8.0920  -13.8668 C   0  0  2  0  0  0  0  0  0  0  0  0
   22.3158   -7.2186  -14.0638 N   0  0  0  0  0  0  0  0  0  0  0  0
   21.9165   -7.1756  -15.4383 C   0  0  0  0  0  0  0  0  0  0  0  0
   22.6381   -5.8475  -13.6079 O   0  0  0  0  0  0  0  0  0  0  0  0
   22.7959   -5.5387  -12.2672 O   0  0  0  0  0  0  0  0  0  0  0  0
  2  1  1  0
  2  4  1  0
  3  2  2  0
  5  4  1  0
  6  5  1  0
  7  6  1  0
  7  8  1  0
  8 10  1  0
  8  9  1  6
 10 12  1  0
 11 10  2  0
 12 13  1  0
 13 16  1  0
 13 14  1  6
 15 14  1  0
 16 17  2  0
 16 20  1  0
 19 18  1  1
 19 21  1  0
 20 19  1  0
 21 23  2  0
 21 22  1  0
M  END
$$$$
