RCA.pdb
     RDKit          3D

 23 22  0  0  1  0  0  0  0  0999 V2000
   22.0179  -19.8088  -17.2757 N   0  0  0  0  0  0  0  0  0  0  0  0
   22.2020  -18.5238  -16.7090 C   0  0  0  0  0  0  0  0  0  0  0  0
   21.3087  -17.6159  -16.9338 N   0  0  0  0  0  0  0  0  0  0  0  0
   23.3490  -18.2771  -15.9209 N   0  0  0  0  0  0  0  0  0  0  0  0
   23.9334  -19.3683  -15.1343 C   0  0  0  0  0  0  0  0  0  0  0  0
   22.9373  -19.7099  -14.0844 C   0  0  0  0  0  0  0  0  0  0  0  0
   23.3747  -20.8932  -13.2811 C   0  0  0  0  0  0  0  0  0  0  0  0
   24.7782  -20.7247  -12.8396 C   0  0  2  0  0  0  0  0  0  0  0  0
   25.6318  -21.4955  -13.7158 N   0  0  0  0  0  0  0  0  0  0  0  0
   25.0201  -21.1726  -11.4432 C   0  0  0  0  0  0  0  0  0  0  0  0
   25.1103  -22.3728  -11.0971 O   0  0  0  0  0  0  0  0  0  0  0  0
   21.3601  -16.6415  -16.5949 N   0  0  0  0  0  0  0  0  0  0  0  0
   25.1606  -20.2078  -10.4249 C   0  0  2  0  0  0  0  0  0  0  0  0
   25.3420  -20.4871   -9.0314 C   0  0  0  0  0  0  0  0  0  0  0  0
   26.2860  -19.5547   -8.3334 S   0  0  0  0  0  0  0  0  0  0  0  0
   26.3365  -19.8217   -6.5440 C   0  0  0  0  0  0  0  0  0  0  0  0
   24.0324  -20.5605   -8.3781 O   0  0  0  0  0  0  0  0  0  0  0  0
   23.1826  -19.6535   -8.5307 C   0  0  0  0  0  0  0  0  0  0  0  0
   22.0591  -23.1571   -6.5453 C   0  0  2  0  0  0  0  0  0  0  0  0
   22.4490  -21.7257   -6.8628 N   0  0  0  0  0  0  0  0  0  0  0  0
   23.6996  -21.6634   -7.5575 C   0  0  0  0  0  0  0  0  0  0  0  0
   22.5612  -20.9760   -5.5912 O   0  0  0  0  0  0  0  0  0  0  0  0
   21.4490  -20.6398   -4.8377 O   0  0  0  0  0  0  0  0  0  0  0  0
  2  1  1  0
  2  4  1  0
  3  2  2  0
  5  4  1  0
  6  5  1  0
  7  6  1  0
  7  8  1  0
  8 10  1  0
  8  9  1  6
 10 12  1  0
 11 10  2  0
 12 13  1  0
 13 16  1  0
 13 14  1  6
 15 14  1  0
 16 17  2  0
 16 20  1  0
 19 18  1  6
 19 21  1  0
 20 19  1  0
 21 23  2  0
 21 22  1  0
M  END
$$$$
