RCA.pdb
     RDKit          3D

 23 22  0  0  1  0  0  0  0  0999 V2000
   23.8818  -17.2498  -18.8445 N   0  0  0  0  0  0  0  0  0  0  0  0
   22.6000  -17.7578  -19.1692 C   0  0  0  0  0  0  0  0  0  0  0  0
   22.3325  -18.0129  -20.4087 N   0  0  0  0  0  0  0  0  0  0  0  0
   21.6607  -17.9684  -18.1343 N   0  0  0  0  0  0  0  0  0  0  0  0
   22.1020  -18.5623  -16.8681 C   0  0  0  0  0  0  0  0  0  0  0  0
   23.2393  -19.4613  -17.1993 C   0  0  0  0  0  0  0  0  0  0  0  0
   23.7199  -20.2014  -15.9918 C   0  0  0  0  0  0  0  0  0  0  0  0
   22.7659  -21.2759  -15.6337 C   0  0  2  0  0  0  0  0  0  0  0  0
   21.8377  -20.7591  -14.6531 N   0  0  0  0  0  0  0  0  0  0  0  0
   23.4177  -22.4845  -15.0650 C   0  0  0  0  0  0  0  0  0  0  0  0
   23.7287  -22.6118  -13.8585 O   0  0  0  0  0  0  0  0  0  0  0  0
   21.4049  -18.2935  -20.7660 N   0  0  0  0  0  0  0  0  0  0  0  0
   23.7160  -23.5702  -15.9134 C   0  0  2  0  0  0  0  0  0  0  0  0
   24.3050  -24.8105  -15.5043 C   0  0  0  0  0  0  0  0  0  0  0  0
   23.3140  -25.8957  -15.2079 S   0  0  0  0  0  0  0  0  0  0  0  0
   21.8716  -25.2946  -14.2947 C   0  0  0  0  0  0  0  0  0  0  0  0
   25.3114  -25.2163  -16.4891 O   0  0  0  0  0  0  0  0  0  0  0  0
   25.0889  -25.1193  -17.7177 C   0  0  0  0  0  0  0  0  0  0  0  0
   28.8815  -26.4238  -16.3527 C   0  0  2  0  0  0  0  0  0  0  0  0
   27.5400  -26.1738  -17.0156 N   0  0  0  0  0  0  0  0  0  0  0  0
   26.5612  -25.7286  -16.0699 C   0  0  0  0  0  0  0  0  0  0  0  0
   27.0789  -27.4372  -17.6345 O   0  0  0  0  0  0  0  0  0  0  0  0
   27.6473  -27.9355  -18.7948 O   0  0  0  0  0  0  0  0  0  0  0  0
  2  1  1  0
  2  4  1  0
  3  2  2  0
  5  4  1  0
  6  5  1  0
  7  6  1  0
  7  8  1  0
  8 10  1  0
  8  9  1  1
 10 12  1  0
 11 10  2  0
 12 13  1  0
 13 16  1  0
 13 14  1  1
 15 14  1  0
 16 17  2  0
 16 20  1  0
 19 18  1  6
 19 21  1  0
 20 19  1  0
 21 23  2  0
 21 22  1  0
M  END
$$$$
