AED.pdb
     RDKit          3D

 23 22  0  0  1  0  0  0  0  0999 V2000
    6.8056  -24.0901   14.1712 C   0  0  0  0  0  0  0  0  0  0  0  0
    7.4111  -24.2134   15.5356 C   0  0  2  0  0  0  0  0  0  0  0  0
    6.3813  -24.4650   16.5188 N   0  0  0  0  0  0  0  0  0  0  0  0
    8.2504  -23.0458   15.8962 C   0  0  0  0  0  0  0  0  0  0  0  0
    9.4350  -22.9491   15.4878 O   0  0  0  0  0  0  0  0  0  0  0  0
    7.7528  -22.0050   16.7077 N   0  0  0  0  0  0  0  0  0  0  0  0
    8.5420  -20.7750   16.9800 C   0  0  1  0  0  0  0  0  0  0  0  0
    7.5881  -19.6580   16.7718 C   0  0  0  0  0  0  0  0  0  0  0  0
    7.1511  -19.3920   15.3729 C   0  0  0  0  0  0  0  0  0  0  0  0
    6.1864  -18.2676   15.2836 C   0  0  0  0  0  0  0  0  0  0  0  0
    6.3818  -17.3721   14.4395 O   0  0  0  0  0  0  0  0  0  0  0  0
    9.0807  -20.9510   18.3347 C   0  0  0  0  0  0  0  0  0  0  0  0
    8.3016  -21.0738   19.3533 O   0  0  0  0  0  0  0  0  0  0  0  0
    5.0872  -18.1924   16.1079 O   0  0  0  0  0  0  0  0  0  0  0  0
   10.4529  -21.0118   18.6907 N   0  0  0  0  0  0  0  0  0  0  0  0
   10.9125  -21.1818   20.0766 C   0  0  1  0  0  0  0  0  0  0  0  0
   12.0561  -22.1679   20.1112 C   0  0  0  0  0  0  0  0  0  0  0  0
   12.5325  -22.3485   21.4847 C   0  0  0  0  0  0  0  0  0  0  0  0
   13.6799  -22.0110   21.8475 O   0  0  0  0  0  0  0  0  0  0  0  0
   11.4024  -19.8582   20.5172 C   0  0  0  0  0  0  0  0  0  0  0  0
   11.5708  -18.8605   19.5339 O   0  0  0  0  0  0  0  0  0  0  0  0
   11.7351  -22.9134   22.4915 O   0  0  0  0  0  0  0  0  0  0  0  0
   11.6861  -19.5372   21.7035 O   0  0  0  0  0  0  0  0  0  0  0  0
  2  1  1  6
  2  3  1  0
  4  5  2  0
  4  2  1  0
  6  4  1  0
  7 12  1  0
  7  6  1  0
  7  8  1  1
  9  8  1  0
 10  9  1  0
 11 10  2  0
 12 15  1  0
 13 12  2  0
 14 10  1  0
 15 16  1  0
 16 20  1  0
 17 18  1  0
 16 17  1  6
 18 22  1  0
 19 18  2  0
 20 23  2  0
 20 21  1  0
M  END
$$$$
