AED.pdb
     RDKit          3D

 23 22  0  0  1  0  0  0  0  0999 V2000
    7.7735  -12.2490   20.1444 C   0  0  0  0  0  0  0  0  0  0  0  0
    7.8824  -13.3593   19.1450 C   0  0  2  0  0  0  0  0  0  0  0  0
    6.6801  -13.4318   18.3450 N   0  0  0  0  0  0  0  0  0  0  0  0
    8.2125  -14.6618   19.7713 C   0  0  0  0  0  0  0  0  0  0  0  0
    7.3232  -15.5263   19.9747 O   0  0  0  0  0  0  0  0  0  0  0  0
    9.5307  -14.9775   20.1609 N   0  0  0  0  0  0  0  0  0  0  0  0
    9.9492  -16.3723   20.4599 C   0  0  1  0  0  0  0  0  0  0  0  0
   10.4824  -16.8921   19.1767 C   0  0  0  0  0  0  0  0  0  0  0  0
   11.0848  -18.2542   19.1955 C   0  0  0  0  0  0  0  0  0  0  0  0
   11.5319  -18.6957   17.8507 C   0  0  0  0  0  0  0  0  0  0  0  0
   10.7352  -18.6184   16.8958 O   0  0  0  0  0  0  0  0  0  0  0  0
   10.8915  -16.2633   21.5808 C   0  0  0  0  0  0  0  0  0  0  0  0
   11.6176  -15.2117   21.7440 O   0  0  0  0  0  0  0  0  0  0  0  0
   12.7997  -19.1858   17.6365 O   0  0  0  0  0  0  0  0  0  0  0  0
   11.1180  -17.2401   22.5847 N   0  0  0  0  0  0  0  0  0  0  0  0
   12.1217  -17.0778   23.6463 C   0  0  1  0  0  0  0  0  0  0  0  0
   11.8531  -18.0728   24.7506 C   0  0  0  0  0  0  0  0  0  0  0  0
   10.6580  -17.6873   25.5050 C   0  0  0  0  0  0  0  0  0  0  0  0
    9.6090  -18.3668   25.4949 O   0  0  0  0  0  0  0  0  0  0  0  0
   13.4310  -17.3814   23.0303 C   0  0  0  0  0  0  0  0  0  0  0  0
   14.5864  -17.1880   23.8166 O   0  0  0  0  0  0  0  0  0  0  0  0
   10.6050  -16.5276   26.2930 O   0  0  0  0  0  0  0  0  0  0  0  0
   13.6104  -17.8016   21.8546 O   0  0  0  0  0  0  0  0  0  0  0  0
  2  1  1  1
  2  3  1  0
  4  5  2  0
  4  2  1  0
  6  4  1  0
  7 12  1  0
  7  6  1  0
  7  8  1  6
  9  8  1  0
 10  9  1  0
 11 10  2  0
 12 15  1  0
 13 12  2  0
 14 10  1  0
 15 16  1  0
 16 20  1  0
 17 18  1  0
 16 17  1  1
 18 22  1  0
 19 18  2  0
 20 23  2  0
 20 21  1  0
M  END
$$$$
