AED.pdb
     RDKit          3D

 23 22  0  0  1  0  0  0  0  0999 V2000
    7.1403  -13.1913   20.0169 C   0  0  0  0  0  0  0  0  0  0  0  0
    8.1868  -14.0009   20.7189 C   0  0  2  0  0  0  0  0  0  0  0  0
    8.6551  -15.0655   19.8599 N   0  0  0  0  0  0  0  0  0  0  0  0
    7.7295  -14.5087   22.0345 C   0  0  0  0  0  0  0  0  0  0  0  0
    7.2084  -13.7388   22.8801 O   0  0  0  0  0  0  0  0  0  0  0  0
    7.8621  -15.8685   22.3844 N   0  0  0  0  0  0  0  0  0  0  0  0
    7.3422  -16.4036   23.6702 C   0  0  1  0  0  0  0  0  0  0  0  0
    6.8719  -17.7735   23.3490 C   0  0  0  0  0  0  0  0  0  0  0  0
    6.5321  -18.6598   24.4969 C   0  0  0  0  0  0  0  0  0  0  0  0
    6.0261  -19.9851   24.0604 C   0  0  0  0  0  0  0  0  0  0  0  0
    5.4834  -20.0843   22.9431 O   0  0  0  0  0  0  0  0  0  0  0  0
    8.4561  -16.2840   24.6195 C   0  0  0  0  0  0  0  0  0  0  0  0
    9.6792  -16.2619   24.2157 O   0  0  0  0  0  0  0  0  0  0  0  0
    6.1422  -21.1004   24.8578 O   0  0  0  0  0  0  0  0  0  0  0  0
    8.3485  -16.1775   26.0304 N   0  0  0  0  0  0  0  0  0  0  0  0
    9.4879  -15.8413   26.8960 C   0  0  1  0  0  0  0  0  0  0  0  0
    9.1539  -14.6181   27.7167 C   0  0  0  0  0  0  0  0  0  0  0  0
   10.2601  -14.2924   28.6203 C   0  0  0  0  0  0  0  0  0  0  0  0
   11.4179  -14.7314   28.4502 O   0  0  0  0  0  0  0  0  0  0  0  0
    9.6760  -16.9944   27.8020 C   0  0  0  0  0  0  0  0  0  0  0  0
   10.8305  -17.0099   28.6129 O   0  0  0  0  0  0  0  0  0  0  0  0
   10.0993  -13.4644   29.7415 O   0  0  0  0  0  0  0  0  0  0  0  0
    8.8907  -17.9747   27.9168 O   0  0  0  0  0  0  0  0  0  0  0  0
  2  1  1  6
  2  3  1  0
  4  5  2  0
  4  2  1  0
  6  4  1  0
  7 12  1  0
  7  6  1  0
  7  8  1  6
  9  8  1  0
 10  9  1  0
 11 10  2  0
 12 15  1  0
 13 12  2  0
 14 10  1  0
 15 16  1  0
 16 20  1  0
 17 18  1  0
 16 17  1  1
 18 22  1  0
 19 18  2  0
 20 23  2  0
 20 21  1  0
M  END
$$$$
