AED.pdb
     RDKit          3D

 23 22  0  0  1  0  0  0  0  0999 V2000
   10.8961  -18.6263   16.2415 C   0  0  0  0  0  0  0  0  0  0  0  0
   11.6317  -18.9723   17.4995 C   0  0  2  0  0  0  0  0  0  0  0  0
   11.2456  -20.2878   17.9587 N   0  0  0  0  0  0  0  0  0  0  0  0
   11.4711  -17.9453   18.5564 C   0  0  0  0  0  0  0  0  0  0  0  0
   11.9587  -16.7949   18.4209 O   0  0  0  0  0  0  0  0  0  0  0  0
   10.7686  -18.2201   19.7481 N   0  0  0  0  0  0  0  0  0  0  0  0
   10.5170  -17.1718   20.7717 C   0  0  1  0  0  0  0  0  0  0  0  0
    9.1265  -17.4137   21.2290 C   0  0  0  0  0  0  0  0  0  0  0  0
    8.0419  -17.2354   20.2237 C   0  0  0  0  0  0  0  0  0  0  0  0
    6.6959  -17.5084   20.7864 C   0  0  0  0  0  0  0  0  0  0  0  0
    6.6092  -18.0201   21.9192 O   0  0  0  0  0  0  0  0  0  0  0  0
   11.5858  -17.3345   21.7653 C   0  0  0  0  0  0  0  0  0  0  0  0
   11.8777  -18.4919   22.2500 O   0  0  0  0  0  0  0  0  0  0  0  0
    5.5479  -17.2106   20.0886 O   0  0  0  0  0  0  0  0  0  0  0  0
   12.4022  -16.3024   22.2962 N   0  0  0  0  0  0  0  0  0  0  0  0
   13.5806  -16.5664   23.1342 C   0  0  1  0  0  0  0  0  0  0  0  0
   14.5906  -15.4590   22.9473 C   0  0  0  0  0  0  0  0  0  0  0  0
   15.7832  -15.7139   23.7590 C   0  0  0  0  0  0  0  0  0  0  0  0
   15.9131  -15.2699   24.9200 O   0  0  0  0  0  0  0  0  0  0  0  0
   13.1057  -16.5560   24.5343 C   0  0  0  0  0  0  0  0  0  0  0  0
   11.9786  -15.7638   24.8387 O   0  0  0  0  0  0  0  0  0  0  0  0
   16.8654  -16.4747   23.2912 O   0  0  0  0  0  0  0  0  0  0  0  0
   13.6217  -17.1969   25.4903 O   0  0  0  0  0  0  0  0  0  0  0  0
  2  1  1  6
  2  3  1  0
  4  5  2  0
  4  2  1  0
  6  4  1  0
  7 12  1  0
  7  6  1  0
  7  8  1  1
  9  8  1  0
 10  9  1  0
 11 10  2  0
 12 15  1  0
 13 12  2  0
 14 10  1  0
 15 16  1  0
 16 20  1  0
 17 18  1  0
 16 17  1  1
 18 22  1  0
 19 18  2  0
 20 23  2  0
 20 21  1  0
M  END
$$$$
