AED.pdb
     RDKit          3D

 23 22  0  0  1  0  0  0  0  0999 V2000
    7.4899  -12.5616   19.1422 C   0  0  0  0  0  0  0  0  0  0  0  0
    8.7839  -13.3158   19.1505 C   0  0  2  0  0  0  0  0  0  0  0  0
    9.0416  -13.8812   17.8449 N   0  0  0  0  0  0  0  0  0  0  0  0
    8.8418  -14.3399   20.2209 C   0  0  0  0  0  0  0  0  0  0  0  0
    8.5484  -14.0523   21.4086 O   0  0  0  0  0  0  0  0  0  0  0  0
    9.2270  -15.6687   19.9472 N   0  0  0  0  0  0  0  0  0  0  0  0
    9.2364  -16.7172   21.0011 C   0  0  1  0  0  0  0  0  0  0  0  0
    8.5524  -17.8807   20.3851 C   0  0  0  0  0  0  0  0  0  0  0  0
    7.0976  -17.7379   20.0989 C   0  0  0  0  0  0  0  0  0  0  0  0
    6.5313  -18.9337   19.4263 C   0  0  0  0  0  0  0  0  0  0  0  0
    7.2822  -19.8961   19.1763 O   0  0  0  0  0  0  0  0  0  0  0  0
   10.6482  -16.8878   21.3668 C   0  0  0  0  0  0  0  0  0  0  0  0
   11.4991  -17.3827   20.5357 O   0  0  0  0  0  0  0  0  0  0  0  0
    5.2028  -19.0025   19.0744 O   0  0  0  0  0  0  0  0  0  0  0  0
   11.2399  -16.5475   22.6108 N   0  0  0  0  0  0  0  0  0  0  0  0
   12.6433  -16.8402   22.9354 C   0  0  1  0  0  0  0  0  0  0  0  0
   13.4375  -15.5554   22.9435 C   0  0  0  0  0  0  0  0  0  0  0  0
   14.8156  -15.8049   22.5138 C   0  0  0  0  0  0  0  0  0  0  0  0
   15.2253  -16.9428   22.1983 O   0  0  0  0  0  0  0  0  0  0  0  0
   12.6435  -17.4169   24.2968 C   0  0  0  0  0  0  0  0  0  0  0  0
   11.6637  -16.9594   25.2030 O   0  0  0  0  0  0  0  0  0  0  0  0
   15.7746  -14.7845   22.4258 O   0  0  0  0  0  0  0  0  0  0  0  0
   13.4477  -18.2889   24.7255 O   0  0  0  0  0  0  0  0  0  0  0  0
  2  1  1  6
  2  3  1  0
  4  5  2  0
  4  2  1  0
  6  4  1  0
  7 12  1  0
  7  6  1  0
  7  8  1  6
  9  8  1  0
 10  9  1  0
 11 10  2  0
 12 15  1  0
 13 12  2  0
 14 10  1  0
 15 16  1  0
 16 20  1  0
 17 18  1  0
 16 17  1  1
 18 22  1  0
 19 18  2  0
 20 23  2  0
 20 21  1  0
M  END
$$$$
