DSP.pdb
     RDKit          3D

 22 22  0  0  1  0  0  0  0  0999 V2000
   29.4749  -22.6877  -17.3131 N   0  0  0  0  0  0  0  0  0  0  0  0
   28.2916  -21.9510  -17.7038 C   0  0  1  0  0  0  0  0  0  0  0  0
   27.4432  -22.8052  -18.6147 C   0  0  0  0  0  0  0  0  0  0  0  0
   28.1143  -23.1328  -19.8912 C   0  0  0  0  0  0  0  0  0  0  0  0
   27.9132  -24.2475  -20.4234 O   0  0  0  0  0  0  0  0  0  0  0  0
   27.4957  -21.5482  -16.4880 C   0  0  0  0  0  0  0  0  0  0  0  0
   27.7061  -22.1629  -15.4085 O   0  0  0  0  0  0  0  0  0  0  0  0
   28.9658  -22.1613  -20.4621 O   0  0  0  0  0  0  0  0  0  0  0  0
   25.2251  -18.0319  -16.3220 O   0  0  0  0  0  0  0  0  0  0  0  0
   25.9128  -18.5589  -15.2251 C   0  0  0  0  0  0  0  0  0  0  0  0
   25.8567  -20.0824  -15.2669 C   0  0  2  0  0  0  0  0  0  0  0  0
   26.5340  -20.5192  -16.5073 N   0  0  0  0  0  0  0  0  0  0  0  0
   24.4823  -20.5848  -15.2677 C   0  0  0  0  0  0  0  0  0  0  0  0
   23.9526  -20.7338  -16.4403 O   0  0  0  0  0  0  0  0  0  0  0  0
   23.6986  -20.9178  -14.1429 N   0  0  0  0  0  0  0  0  0  0  0  0
   24.1064  -20.7969  -12.7597 C   0  0  0  0  0  0  0  0  0  0  0  0
   23.5528  -22.1267  -12.2312 C   0  0  0  0  0  0  0  0  0  0  0  0
   22.1219  -21.9750  -12.7210 C   0  0  0  0  0  0  0  0  0  0  0  0
   22.3493  -21.3917  -14.1055 C   0  0  1  0  0  0  0  0  0  0  0  0
   21.4138  -20.2170  -14.2388 C   0  0  0  0  0  0  0  0  0  0  0  0
   20.1778  -20.3948  -14.3294 O   0  0  0  0  0  0  0  0  0  0  0  0
   21.9047  -18.9300  -14.2627 O   0  0  0  0  0  0  0  0  0  0  0  0
  2  1  1  1
  2  3  1  0
  3  4  1  0
  4  8  1  0
  5  4  2  0
  6  2  1  0
  7  6  2  0
  9 10  1  0
 11 10  1  6
 11 13  1  0
 11 12  1  0
 12  6  1  0
 13 15  1  0
 14 13  2  0
 15 16  1  0
 15 19  1  0
 16 17  1  0
 17 18  1  0
 19 20  1  1
 19 18  1  0
 20 22  1  0
 21 20  2  0
M  END
$$$$
