DSP.pdb
     RDKit          3D

 22 22  0  0  1  0  0  0  0  0999 V2000
   18.1355  -10.9995  -18.2406 N   0  0  0  0  0  0  0  0  0  0  0  0
   19.4395  -10.3956  -18.0665 C   0  0  1  0  0  0  0  0  0  0  0  0
   19.9091   -9.8211  -19.3813 C   0  0  0  0  0  0  0  0  0  0  0  0
   20.4046  -10.8519  -20.3189 C   0  0  0  0  0  0  0  0  0  0  0  0
   20.4487  -12.0474  -19.9514 O   0  0  0  0  0  0  0  0  0  0  0  0
   19.3825   -9.3096  -17.0220 C   0  0  0  0  0  0  0  0  0  0  0  0
   18.5461   -8.3798  -17.1751 O   0  0  0  0  0  0  0  0  0  0  0  0
   20.8135  -10.4375  -21.6056 O   0  0  0  0  0  0  0  0  0  0  0  0
   20.8241   -7.6240  -12.6869 O   0  0  0  0  0  0  0  0  0  0  0  0
   20.8318   -8.6537  -13.6323 C   0  0  0  0  0  0  0  0  0  0  0  0
   20.1678   -8.1750  -14.9190 C   0  0  2  0  0  0  0  0  0  0  0  0
   20.2184   -9.2912  -15.8883 N   0  0  0  0  0  0  0  0  0  0  0  0
   20.8459   -7.0111  -15.4908 C   0  0  0  0  0  0  0  0  0  0  0  0
   21.8121   -7.2853  -16.3087 O   0  0  0  0  0  0  0  0  0  0  0  0
   20.5544   -5.6526  -15.2462 N   0  0  0  0  0  0  0  0  0  0  0  0
   19.4484   -5.1513  -14.4593 C   0  0  0  0  0  0  0  0  0  0  0  0
   19.0104   -3.9981  -15.3718 C   0  0  0  0  0  0  0  0  0  0  0  0
   20.3559   -3.3031  -15.5025 C   0  0  0  0  0  0  0  0  0  0  0  0
   21.2839   -4.4953  -15.6646 C   0  0  1  0  0  0  0  0  0  0  0  0
   22.4384   -4.2763  -14.7201 C   0  0  0  0  0  0  0  0  0  0  0  0
   22.5045   -4.9045  -13.6391 O   0  0  0  0  0  0  0  0  0  0  0  0
   23.4384   -3.3815  -15.0321 O   0  0  0  0  0  0  0  0  0  0  0  0
  2  1  1  6
  2  3  1  0
  3  4  1  0
  4  8  1  0
  5  4  2  0
  6  2  1  0
  7  6  2  0
  9 10  1  0
 11 10  1  1
 11 13  1  0
 11 12  1  0
 12  6  1  0
 13 15  1  0
 14 13  2  0
 15 16  1  0
 15 19  1  0
 16 17  1  0
 17 18  1  0
 19 20  1  1
 19 18  1  0
 20 22  1  0
 21 20  2  0
M  END
$$$$
