DSP.pdb
     RDKit          3D

 22 22  0  0  1  0  0  0  0  0999 V2000
   19.5799  -12.1739  -18.0113 N   0  0  0  0  0  0  0  0  0  0  0  0
   20.5329  -11.1856  -18.4701 C   0  0  1  0  0  0  0  0  0  0  0  0
   19.8872  -10.3098  -19.5167 C   0  0  0  0  0  0  0  0  0  0  0  0
   19.5599  -11.0401  -20.7604 C   0  0  0  0  0  0  0  0  0  0  0  0
   18.3625  -11.2742  -21.0392 O   0  0  0  0  0  0  0  0  0  0  0  0
   21.0127  -10.3404  -17.3172 C   0  0  0  0  0  0  0  0  0  0  0  0
   20.1653   -9.9572  -16.4672 O   0  0  0  0  0  0  0  0  0  0  0  0
   20.6268  -11.4487  -21.5907 O   0  0  0  0  0  0  0  0  0  0  0  0
   24.7430   -8.6017  -14.7300 O   0  0  0  0  0  0  0  0  0  0  0  0
   24.2826   -9.3797  -15.7961 C   0  0  0  0  0  0  0  0  0  0  0  0
   22.7883   -9.1479  -15.9938 C   0  0  2  0  0  0  0  0  0  0  0  0
   22.3600   -9.9647  -17.1502 N   0  0  0  0  0  0  0  0  0  0  0  0
   22.4773   -7.7424  -16.2570 C   0  0  0  0  0  0  0  0  0  0  0  0
   22.5883   -7.3777  -17.4949 O   0  0  0  0  0  0  0  0  0  0  0  0
   22.0749   -6.7706  -15.3168 N   0  0  0  0  0  0  0  0  0  0  0  0
   21.8561   -6.9969  -13.9044 C   0  0  0  0  0  0  0  0  0  0  0  0
   20.5652   -6.1859  -13.7305 C   0  0  0  0  0  0  0  0  0  0  0  0
   21.0524   -4.8744  -14.3246 C   0  0  0  0  0  0  0  0  0  0  0  0
   21.8424   -5.3741  -15.5226 C   0  0  1  0  0  0  0  0  0  0  0  0
   23.1642   -4.6493  -15.5017 C   0  0  0  0  0  0  0  0  0  0  0  0
   24.2068   -5.2372  -15.1344 O   0  0  0  0  0  0  0  0  0  0  0  0
   23.2451   -3.3290  -15.8867 O   0  0  0  0  0  0  0  0  0  0  0  0
  2  1  1  1
  2  3  1  0
  3  4  1  0
  4  8  1  0
  5  4  2  0
  6  2  1  0
  7  6  2  0
  9 10  1  0
 11 10  1  6
 11 13  1  0
 11 12  1  0
 12  6  1  0
 13 15  1  0
 14 13  2  0
 15 16  1  0
 15 19  1  0
 16 17  1  0
 17 18  1  0
 19 20  1  1
 19 18  1  0
 20 22  1  0
 21 20  2  0
M  END
$$$$
