DSP.pdb
     RDKit          3D

 22 22  0  0  1  0  0  0  0  0999 V2000
   17.7186  -12.4352  -16.9628 N   0  0  0  0  0  0  0  0  0  0  0  0
   18.9383  -11.6722  -17.1231 C   0  0  1  0  0  0  0  0  0  0  0  0
   19.2463  -11.5158  -18.5927 C   0  0  0  0  0  0  0  0  0  0  0  0
   19.6197  -12.7900  -19.2442 C   0  0  0  0  0  0  0  0  0  0  0  0
   18.9377  -13.2126  -20.2047 O   0  0  0  0  0  0  0  0  0  0  0  0
   18.8001  -10.3155  -16.4796 C   0  0  0  0  0  0  0  0  0  0  0  0
   17.9070   -9.5395  -16.9129 O   0  0  0  0  0  0  0  0  0  0  0  0
   20.7440  -13.4853  -18.7471 O   0  0  0  0  0  0  0  0  0  0  0  0
   19.2156   -7.4986  -12.6726 O   0  0  0  0  0  0  0  0  0  0  0  0
   19.3412   -8.7412  -13.3004 C   0  0  0  0  0  0  0  0  0  0  0  0
   19.4401   -8.5467  -14.8098 C   0  0  2  0  0  0  0  0  0  0  0  0
   19.6209   -9.8820  -15.4201 N   0  0  0  0  0  0  0  0  0  0  0  0
   20.5666   -7.6910  -15.1840 C   0  0  0  0  0  0  0  0  0  0  0  0
   21.6997   -8.3035  -15.3214 O   0  0  0  0  0  0  0  0  0  0  0  0
   20.5384   -6.2984  -15.4076 N   0  0  0  0  0  0  0  0  0  0  0  0
   19.3577   -5.4619  -15.3974 C   0  0  0  0  0  0  0  0  0  0  0  0
   19.6684   -4.5964  -16.6257 C   0  0  0  0  0  0  0  0  0  0  0  0
   21.0553   -4.1291  -16.2154 C   0  0  0  0  0  0  0  0  0  0  0  0
   21.6358   -5.4110  -15.6420 C   0  0  1  0  0  0  0  0  0  0  0  0
   22.2631   -5.0481  -14.3201 C   0  0  0  0  0  0  0  0  0  0  0  0
   23.3243   -4.3849  -14.2798 O   0  0  0  0  0  0  0  0  0  0  0  0
   21.6782   -5.4405  -13.1361 O   0  0  0  0  0  0  0  0  0  0  0  0
  2  1  1  6
  2  3  1  0
  3  4  1  0
  4  8  1  0
  5  4  2  0
  6  2  1  0
  7  6  2  0
  9 10  1  0
 11 10  1  1
 11 13  1  0
 11 12  1  0
 12  6  1  0
 13 15  1  0
 14 13  2  0
 15 16  1  0
 15 19  1  0
 16 17  1  0
 17 18  1  0
 19 20  1  1
 19 18  1  0
 20 22  1  0
 21 20  2  0
M  END
$$$$
