DSP.pdb
     RDKit          3D

 22 22  0  0  1  0  0  0  0  0999 V2000
   20.2751  -11.7047  -16.5048 N   0  0  0  0  0  0  0  0  0  0  0  0
   19.9846  -10.3953  -17.0494 C   0  0  1  0  0  0  0  0  0  0  0  0
   18.6924  -10.4481  -17.8282 C   0  0  0  0  0  0  0  0  0  0  0  0
   18.8023  -11.2300  -19.0787 C   0  0  0  0  0  0  0  0  0  0  0  0
   18.2674  -12.3594  -19.1469 O   0  0  0  0  0  0  0  0  0  0  0  0
   19.8770   -9.3760  -15.9434 C   0  0  0  0  0  0  0  0  0  0  0  0
   19.3434   -9.7296  -14.8581 O   0  0  0  0  0  0  0  0  0  0  0  0
   19.5166  -10.6618  -20.1565 O   0  0  0  0  0  0  0  0  0  0  0  0
   21.7229   -7.0771  -12.8229 O   0  0  0  0  0  0  0  0  0  0  0  0
   21.5228   -7.8646  -13.9603 C   0  0  0  0  0  0  0  0  0  0  0  0
   20.5173   -7.1861  -14.8848 C   0  0  2  0  0  0  0  0  0  0  0  0
   20.3462   -8.0540  -16.0704 N   0  0  0  0  0  0  0  0  0  0  0  0
   20.9703   -5.8640  -15.3186 C   0  0  0  0  0  0  0  0  0  0  0  0
   21.9342   -5.8703  -16.1839 O   0  0  0  0  0  0  0  0  0  0  0  0
   20.4692   -4.6140  -14.8987 N   0  0  0  0  0  0  0  0  0  0  0  0
   19.4318   -4.4047  -13.9118 C   0  0  0  0  0  0  0  0  0  0  0  0
   18.6386   -3.3047  -14.6297 C   0  0  0  0  0  0  0  0  0  0  0  0
   19.7870   -2.3424  -14.8857 C   0  0  0  0  0  0  0  0  0  0  0  0
   20.8861   -3.3060  -15.3010 C   0  0  1  0  0  0  0  0  0  0  0  0
   22.1162   -2.9219  -14.5188 C   0  0  0  0  0  0  0  0  0  0  0  0
   22.4355   -3.5516  -13.4848 O   0  0  0  0  0  0  0  0  0  0  0  0
   22.9082   -1.8721  -14.9298 O   0  0  0  0  0  0  0  0  0  0  0  0
  2  1  1  1
  2  3  1  0
  3  4  1  0
  4  8  1  0
  5  4  2  0
  6  2  1  0
  7  6  2  0
  9 10  1  0
 11 10  1  1
 11 13  1  0
 11 12  1  0
 12  6  1  0
 13 15  1  0
 14 13  2  0
 15 16  1  0
 15 19  1  0
 16 17  1  0
 17 18  1  0
 19 20  1  1
 19 18  1  0
 20 22  1  0
 21 20  2  0
M  END
$$$$
