DSP.pdb
     RDKit          3D

 22 22  0  0  1  0  0  0  0  0999 V2000
   25.3655  -20.5818  -18.5256 N   0  0  0  0  0  0  0  0  0  0  0  0
   26.5231  -20.2063  -17.7418 C   0  0  1  0  0  0  0  0  0  0  0  0
   27.3571  -19.2147  -18.5167 C   0  0  0  0  0  0  0  0  0  0  0  0
   27.9283  -19.7834  -19.7567 C   0  0  0  0  0  0  0  0  0  0  0  0
   28.4403  -20.9251  -19.7308 O   0  0  0  0  0  0  0  0  0  0  0  0
   26.0969  -19.6033  -16.4271 C   0  0  0  0  0  0  0  0  0  0  0  0
   26.7243  -18.5963  -16.0031 O   0  0  0  0  0  0  0  0  0  0  0  0
   27.8720  -19.0029  -20.9324 O   0  0  0  0  0  0  0  0  0  0  0  0
   22.3709  -19.1207  -15.1190 O   0  0  0  0  0  0  0  0  0  0  0  0
   23.5343  -18.4510  -14.7293 C   0  0  0  0  0  0  0  0  0  0  0  0
   24.6230  -19.4649  -14.3937 C   0  0  2  0  0  0  0  0  0  0  0  0
   25.0326  -20.1136  -15.6584 N   0  0  0  0  0  0  0  0  0  0  0  0
   24.1555  -20.4884  -13.4582 C   0  0  0  0  0  0  0  0  0  0  0  0
   23.6558  -21.5489  -14.0091 O   0  0  0  0  0  0  0  0  0  0  0  0
   24.1982  -20.4349  -12.0491 N   0  0  0  0  0  0  0  0  0  0  0  0
   24.7615  -19.3621  -11.2581 C   0  0  0  0  0  0  0  0  0  0  0  0
   25.4946  -20.2027  -10.2045 C   0  0  0  0  0  0  0  0  0  0  0  0
   24.3248  -21.0691   -9.7672 C   0  0  0  0  0  0  0  0  0  0  0  0
   23.6721  -21.3726  -11.1054 C   0  0  1  0  0  0  0  0  0  0  0  0
   22.1960  -21.1189  -10.9340 C   0  0  0  0  0  0  0  0  0  0  0  0
   21.6573  -20.1168  -11.4567 O   0  0  0  0  0  0  0  0  0  0  0  0
   21.4170  -21.9861  -10.1996 O   0  0  0  0  0  0  0  0  0  0  0  0
  2  1  1  6
  2  3  1  0
  3  4  1  0
  4  8  1  0
  5  4  2  0
  6  2  1  0
  7  6  2  0
  9 10  1  0
 11 10  1  6
 11 13  1  0
 11 12  1  0
 12  6  1  0
 13 15  1  0
 14 13  2  0
 15 16  1  0
 15 19  1  0
 16 17  1  0
 17 18  1  0
 19 20  1  1
 19 18  1  0
 20 22  1  0
 21 20  2  0
M  END
$$$$
