TCK.pdb
     RDKit          3D

 23 22  0  0  1  0  0  0  0  0999 V2000
   17.8256  -10.9424  -14.1321 C   0  0  0  0  0  0  0  0  0  0  0  0
   16.3313  -10.9520  -14.0413 C   0  0  1  0  0  0  0  0  0  0  0  0
   15.8145  -12.1836  -14.4341 O   0  0  0  0  0  0  0  0  0  0  0  0
   15.8368  -10.5632  -12.6598 C   0  0  2  0  0  0  0  0  0  0  0  0
   14.3812  -10.5299  -12.7410 N   0  0  0  0  0  0  0  0  0  0  0  0
   16.3089   -9.1770  -12.3969 C   0  0  0  0  0  0  0  0  0  0  0  0
   15.9288   -8.2911  -13.2366 O   0  0  0  0  0  0  0  0  0  0  0  0
   17.1314   -8.8329  -11.2890 N   0  0  0  0  0  0  0  0  0  0  0  0
   17.6283   -7.5105  -11.0965 C   0  0  1  0  0  0  0  0  0  0  0  0
   17.7348   -7.1724   -9.6174 C   0  0  0  0  0  0  0  0  0  0  0  0
   16.1547   -7.3539   -8.7746 S   0  0  0  0  0  0  0  0  0  0  0  0
   19.0210   -7.3512  -11.6527 C   0  0  0  0  0  0  0  0  0  0  0  0
   19.9583   -8.1226  -11.3212 O   0  0  0  0  0  0  0  0  0  0  0  0
   19.3292   -6.3189  -12.5768 N   0  0  0  0  0  0  0  0  0  0  0  0
   20.6221   -6.1814  -13.2251 C   0  0  1  0  0  0  0  0  0  0  0  0
   20.5926   -6.4381  -14.6767 C   0  0  0  0  0  0  0  0  0  0  0  0
   21.8095   -6.2477  -15.4794 C   0  0  0  0  0  0  0  0  0  0  0  0
   21.6540   -6.6219  -16.9305 C   0  0  0  0  0  0  0  0  0  0  0  0
   22.9991   -6.4394  -17.6121 C   0  0  0  0  0  0  0  0  0  0  0  0
   22.7925   -6.6566  -19.0335 N   0  0  0  0  0  0  0  0  0  0  0  0
   21.2283   -4.9202  -12.7742 C   0  0  0  0  0  0  0  0  0  0  0  0
   22.4627   -4.8196  -12.6043 O   0  0  0  0  0  0  0  0  0  0  0  0
   20.4628   -3.7978  -12.5202 O   0  0  0  0  0  0  0  0  0  0  0  0
  2  1  1  1
  2  3  1  0
  4  5  1  6
  4  2  1  0
  6  4  1  0
  6  7  2  0
  8  6  1  0
  9  8  1  0
  9 12  1  0
  9 10  1  1
 11 10  1  0
 12 14  1  0
 13 12  2  0
 14 15  1  0
 15 21  1  0
 16 17  1  0
 15 16  1  6
 18 17  1  0
 18 19  1  0
 20 19  1  0
 21 22  2  0
 21 23  1  0
M  END
$$$$
