TCK.pdb
     RDKit          3D

 23 22  0  0  1  0  0  0  0  0999 V2000
   19.2467  -11.8339  -18.9838 C   0  0  0  0  0  0  0  0  0  0  0  0
   19.3452  -13.1179  -18.2205 C   0  0  1  0  0  0  0  0  0  0  0  0
   18.9714  -14.2003  -19.0124 O   0  0  0  0  0  0  0  0  0  0  0  0
   20.7240  -13.3256  -17.6203 C   0  0  2  0  0  0  0  0  0  0  0  0
   20.6414  -14.5398  -16.8169 N   0  0  0  0  0  0  0  0  0  0  0  0
   20.9789  -12.1868  -16.6975 C   0  0  0  0  0  0  0  0  0  0  0  0
   20.2949  -12.1820  -15.6174 O   0  0  0  0  0  0  0  0  0  0  0  0
   21.9183  -11.1560  -16.9757 N   0  0  0  0  0  0  0  0  0  0  0  0
   22.0599  -10.0133  -16.1351 C   0  0  1  0  0  0  0  0  0  0  0  0
   23.5252   -9.6686  -15.9171 C   0  0  0  0  0  0  0  0  0  0  0  0
   24.3714  -10.9277  -14.9484 S   0  0  0  0  0  0  0  0  0  0  0  0
   21.4395   -8.7855  -16.7530 C   0  0  0  0  0  0  0  0  0  0  0  0
   21.2128   -8.7090  -17.9885 O   0  0  0  0  0  0  0  0  0  0  0  0
   21.0856   -7.6629  -15.9599 N   0  0  0  0  0  0  0  0  0  0  0  0
   20.3240   -6.5326  -16.4629 C   0  0  1  0  0  0  0  0  0  0  0  0
   19.1142   -6.9143  -17.2142 C   0  0  0  0  0  0  0  0  0  0  0  0
   18.1977   -5.8748  -17.7047 C   0  0  0  0  0  0  0  0  0  0  0  0
   17.0069   -6.4096  -18.4570 C   0  0  0  0  0  0  0  0  0  0  0  0
   16.1457   -5.2312  -18.8776 C   0  0  0  0  0  0  0  0  0  0  0  0
   15.0225   -5.7670  -19.6270 N   0  0  0  0  0  0  0  0  0  0  0  0
   20.1619   -5.5660  -15.3670 C   0  0  0  0  0  0  0  0  0  0  0  0
   20.1422   -5.9376  -14.1736 O   0  0  0  0  0  0  0  0  0  0  0  0
   20.0249   -4.2120  -15.6088 O   0  0  0  0  0  0  0  0  0  0  0  0
  2  1  1  6
  2  3  1  0
  4  5  1  1
  4  2  1  0
  6  4  1  0
  6  7  2  0
  8  6  1  0
  9  8  1  0
  9 12  1  0
  9 10  1  6
 11 10  1  0
 12 14  1  0
 13 12  2  0
 14 15  1  0
 15 21  1  0
 16 17  1  0
 15 16  1  1
 18 17  1  0
 18 19  1  0
 20 19  1  0
 21 22  2  0
 21 23  1  0
M  END
$$$$
