TCK.pdb
     RDKit          3D

 23 22  0  0  1  0  0  0  0  0999 V2000
   21.9904  -10.9780  -18.8327 C   0  0  0  0  0  0  0  0  0  0  0  0
   21.3776   -9.9240  -17.9640 C   0  0  1  0  0  0  0  0  0  0  0  0
   20.0335   -9.7383  -18.2760 O   0  0  0  0  0  0  0  0  0  0  0  0
   21.5639  -10.2170  -16.4863 C   0  0  2  0  0  0  0  0  0  0  0  0
   20.6177  -11.2767  -16.1572 N   0  0  0  0  0  0  0  0  0  0  0  0
   21.1560   -8.9961  -15.7402 C   0  0  0  0  0  0  0  0  0  0  0  0
   19.8980   -8.8392  -15.5752 O   0  0  0  0  0  0  0  0  0  0  0  0
   22.0866   -8.0482  -15.2324 N   0  0  0  0  0  0  0  0  0  0  0  0
   21.6708   -6.8104  -14.6602 C   0  0  1  0  0  0  0  0  0  0  0  0
   22.8339   -6.0962  -13.9888 C   0  0  0  0  0  0  0  0  0  0  0  0
   22.3302   -4.5220  -13.2759 S   0  0  0  0  0  0  0  0  0  0  0  0
   21.1561   -5.8560  -15.7081 C   0  0  0  0  0  0  0  0  0  0  0  0
   21.7902   -5.6373  -16.7729 O   0  0  0  0  0  0  0  0  0  0  0  0
   19.9294   -5.1638  -15.5323 N   0  0  0  0  0  0  0  0  0  0  0  0
   19.3970   -4.2163  -16.4962 C   0  0  1  0  0  0  0  0  0  0  0  0
   18.2547   -4.7322  -17.2727 C   0  0  0  0  0  0  0  0  0  0  0  0
   17.6045   -3.8769  -18.2762 C   0  0  0  0  0  0  0  0  0  0  0  0
   16.5373   -4.5736  -19.0797 C   0  0  0  0  0  0  0  0  0  0  0  0
   16.0213   -3.5993  -20.1246 C   0  0  0  0  0  0  0  0  0  0  0  0
   15.1029   -4.3329  -20.9782 N   0  0  0  0  0  0  0  0  0  0  0  0
   19.2244   -2.9227  -15.8190 C   0  0  0  0  0  0  0  0  0  0  0  0
   19.1105   -1.8615  -16.4697 O   0  0  0  0  0  0  0  0  0  0  0  0
   19.1810   -2.8259  -14.4410 O   0  0  0  0  0  0  0  0  0  0  0  0
  2  1  1  6
  2  3  1  0
  4  5  1  1
  4  2  1  0
  6  4  1  0
  6  7  2  0
  8  6  1  0
  9  8  1  0
  9 12  1  0
  9 10  1  6
 11 10  1  0
 12 14  1  0
 13 12  2  0
 14 15  1  0
 15 21  1  0
 16 17  1  0
 15 16  1  1
 18 17  1  0
 18 19  1  0
 20 19  1  0
 21 22  2  0
 21 23  1  0
M  END
$$$$
