TCK.pdb
     RDKit          3D

 23 22  0  0  1  0  0  0  0  0999 V2000
   17.6651  -13.4984  -17.7963 C   0  0  0  0  0  0  0  0  0  0  0  0
   16.3508  -13.8331  -17.1626 C   0  0  1  0  0  0  0  0  0  0  0  0
   16.1260  -15.2071  -17.1737 O   0  0  0  0  0  0  0  0  0  0  0  0
   16.2283  -13.2670  -15.7594 C   0  0  2  0  0  0  0  0  0  0  0  0
   14.8760  -13.5769  -15.3102 N   0  0  0  0  0  0  0  0  0  0  0  0
   16.3425  -11.7876  -15.8698 C   0  0  0  0  0  0  0  0  0  0  0  0
   15.4101  -11.2047  -16.5220 O   0  0  0  0  0  0  0  0  0  0  0  0
   17.4109  -11.0454  -15.2953 N   0  0  0  0  0  0  0  0  0  0  0  0
   17.4471   -9.6206  -15.3288 C   0  0  1  0  0  0  0  0  0  0  0  0
   16.4553   -9.0215  -14.3434 C   0  0  0  0  0  0  0  0  0  0  0  0
   16.3768   -9.9684  -12.8146 S   0  0  0  0  0  0  0  0  0  0  0  0
   18.7980   -9.0869  -14.9233 C   0  0  0  0  0  0  0  0  0  0  0  0
   19.7292   -9.8508  -14.5588 O   0  0  0  0  0  0  0  0  0  0  0  0
   19.0721   -7.6944  -14.9374 N   0  0  0  0  0  0  0  0  0  0  0  0
   20.4043   -7.1400  -15.1067 C   0  0  1  0  0  0  0  0  0  0  0  0
   21.2205   -7.8434  -16.1131 C   0  0  0  0  0  0  0  0  0  0  0  0
   22.5807   -7.3727  -16.4126 C   0  0  0  0  0  0  0  0  0  0  0  0
   23.3085   -8.2055  -17.4356 C   0  0  0  0  0  0  0  0  0  0  0  0
   24.6927   -7.6111  -17.6303 C   0  0  0  0  0  0  0  0  0  0  0  0
   25.3575   -8.3988  -18.6539 N   0  0  0  0  0  0  0  0  0  0  0  0
   20.2796   -5.6809  -15.2377 C   0  0  0  0  0  0  0  0  0  0  0  0
   19.3078   -5.1650  -15.8311 O   0  0  0  0  0  0  0  0  0  0  0  0
   21.2270   -4.8223  -14.7129 O   0  0  0  0  0  0  0  0  0  0  0  0
  2  1  1  1
  2  3  1  0
  4  5  1  6
  4  2  1  0
  6  4  1  0
  6  7  2  0
  8  6  1  0
  9  8  1  0
  9 12  1  0
  9 10  1  1
 11 10  1  0
 12 14  1  0
 13 12  2  0
 14 15  1  0
 15 21  1  0
 16 17  1  0
 15 16  1  6
 18 17  1  0
 18 19  1  0
 20 19  1  0
 21 22  2  0
 21 23  1  0
M  END
$$$$
