TCK.pdb
     RDKit          3D

 23 22  0  0  1  0  0  0  0  0999 V2000
   18.6921  -14.5449  -18.4435 C   0  0  0  0  0  0  0  0  0  0  0  0
   18.8554  -13.3677  -17.5331 C   0  0  1  0  0  0  0  0  0  0  0  0
   17.6501  -13.0406  -16.9179 O   0  0  0  0  0  0  0  0  0  0  0  0
   19.9556  -13.5811  -16.5093 C   0  0  2  0  0  0  0  0  0  0  0  0
   19.4322  -14.5367  -15.5400 N   0  0  0  0  0  0  0  0  0  0  0  0
   20.1598  -12.2862  -15.8057 C   0  0  0  0  0  0  0  0  0  0  0  0
   19.3146  -12.0132  -14.8861 O   0  0  0  0  0  0  0  0  0  0  0  0
   21.2199  -11.3909  -16.1173 N   0  0  0  0  0  0  0  0  0  0  0  0
   21.3701  -10.1361  -15.4574 C   0  0  1  0  0  0  0  0  0  0  0  0
   22.8325   -9.7244  -15.3842 C   0  0  0  0  0  0  0  0  0  0  0  0
   23.7437  -10.7044  -14.1803 S   0  0  0  0  0  0  0  0  0  0  0  0
   20.6706   -9.0267  -16.2017 C   0  0  0  0  0  0  0  0  0  0  0  0
   20.7206   -8.9370  -17.4560 O   0  0  0  0  0  0  0  0  0  0  0  0
   19.9248   -8.0356  -15.5119 N   0  0  0  0  0  0  0  0  0  0  0  0
   19.1906   -6.9741  -16.1788 C   0  0  1  0  0  0  0  0  0  0  0  0
   17.7290   -7.0573  -16.0036 C   0  0  0  0  0  0  0  0  0  0  0  0
   16.8667   -5.9845  -16.5200 C   0  0  0  0  0  0  0  0  0  0  0  0
   15.4024   -6.1741  -16.2201 C   0  0  0  0  0  0  0  0  0  0  0  0
   14.6431   -4.9990  -16.8115 C   0  0  0  0  0  0  0  0  0  0  0  0
   13.2390   -5.1918  -16.4930 N   0  0  0  0  0  0  0  0  0  0  0  0
   19.8383   -5.6950  -15.8531 C   0  0  0  0  0  0  0  0  0  0  0  0
   20.5959   -5.5863  -14.8647 O   0  0  0  0  0  0  0  0  0  0  0  0
   19.6379   -4.5643  -16.6222 O   0  0  0  0  0  0  0  0  0  0  0  0
  2  1  1  1
  2  3  1  0
  4  5  1  1
  4  2  1  0
  6  4  1  0
  6  7  2  0
  8  6  1  0
  9  8  1  0
  9 12  1  0
  9 10  1  6
 11 10  1  0
 12 14  1  0
 13 12  2  0
 14 15  1  0
 15 21  1  0
 16 17  1  0
 15 16  1  1
 18 17  1  0
 18 19  1  0
 20 19  1  0
 21 22  2  0
 21 23  1  0
M  END
$$$$
