TCK.pdb
     RDKit          3D

 23 22  0  0  1  0  0  0  0  0999 V2000
   28.4660  -20.3677  -17.3192 C   0  0  0  0  0  0  0  0  0  0  0  0
   27.3079  -19.5248  -16.8840 C   0  0  1  0  0  0  0  0  0  0  0  0
   26.1002  -20.1799  -17.1092 O   0  0  0  0  0  0  0  0  0  0  0  0
   27.4315  -19.0807  -15.4377 C   0  0  2  0  0  0  0  0  0  0  0  0
   27.2742  -20.2821  -14.6263 N   0  0  0  0  0  0  0  0  0  0  0  0
   26.2782  -18.1853  -15.1517 C   0  0  0  0  0  0  0  0  0  0  0  0
   25.2378  -18.7536  -14.6731 O   0  0  0  0  0  0  0  0  0  0  0  0
   26.3057  -16.7830  -15.3868 N   0  0  0  0  0  0  0  0  0  0  0  0
   25.1601  -15.9587  -15.1855 C   0  0  1  0  0  0  0  0  0  0  0  0
   25.5554  -14.5006  -15.0089 C   0  0  0  0  0  0  0  0  0  0  0  0
   26.6956  -13.9569  -16.2912 S   0  0  0  0  0  0  0  0  0  0  0  0
   24.2344  -15.9892  -16.3755 C   0  0  0  0  0  0  0  0  0  0  0  0
   24.6660  -16.1565  -17.5457 O   0  0  0  0  0  0  0  0  0  0  0  0
   22.8326  -15.8295  -16.2201 N   0  0  0  0  0  0  0  0  0  0  0  0
   21.8885  -15.9094  -17.3213 C   0  0  1  0  0  0  0  0  0  0  0  0
   20.5119  -16.2349  -16.9055 C   0  0  0  0  0  0  0  0  0  0  0  0
   20.0768  -17.6379  -16.8457 C   0  0  0  0  0  0  0  0  0  0  0  0
   19.6790  -18.1005  -15.4682 C   0  0  0  0  0  0  0  0  0  0  0  0
   19.1946  -19.5362  -15.5736 C   0  0  0  0  0  0  0  0  0  0  0  0
   18.9154  -19.9947  -14.2237 N   0  0  0  0  0  0  0  0  0  0  0  0
   22.0751  -14.7242  -18.1711 C   0  0  0  0  0  0  0  0  0  0  0  0
   22.4201  -13.6260  -17.6837 O   0  0  0  0  0  0  0  0  0  0  0  0
   21.8780  -14.7740  -19.5382 O   0  0  0  0  0  0  0  0  0  0  0  0
  2  1  1  1
  2  3  1  0
  4  5  1  1
  4  2  1  0
  6  4  1  0
  6  7  2  0
  8  6  1  0
  9  8  1  0
  9 12  1  0
  9 10  1  6
 11 10  1  0
 12 14  1  0
 13 12  2  0
 14 15  1  0
 15 21  1  0
 16 17  1  0
 15 16  1  1
 18 17  1  0
 18 19  1  0
 20 19  1  0
 21 22  2  0
 21 23  1  0
M  END
$$$$
