TCK.pdb
     RDKit          3D

 23 22  0  0  1  0  0  0  0  0999 V2000
   28.7210  -10.8245  -16.1713 C   0  0  0  0  0  0  0  0  0  0  0  0
   27.3248  -10.3349  -16.3995 C   0  0  1  0  0  0  0  0  0  0  0  0
   27.0547  -10.2103  -17.7596 O   0  0  0  0  0  0  0  0  0  0  0  0
   26.2902  -11.2065  -15.7108 C   0  0  2  0  0  0  0  0  0  0  0  0
   26.2806  -12.4752  -16.4298 N   0  0  0  0  0  0  0  0  0  0  0  0
   24.9653  -10.5602  -15.9122 C   0  0  0  0  0  0  0  0  0  0  0  0
   24.3404  -10.8923  -16.9769 O   0  0  0  0  0  0  0  0  0  0  0  0
   24.4070   -9.6289  -14.9938 N   0  0  0  0  0  0  0  0  0  0  0  0
   23.0994   -9.0874  -15.1653 C   0  0  1  0  0  0  0  0  0  0  0  0
   22.4892   -8.6893  -13.8301 C   0  0  0  0  0  0  0  0  0  0  0  0
   21.9830  -10.1261  -12.8712 S   0  0  0  0  0  0  0  0  0  0  0  0
   23.1210   -7.8287  -15.9955 C   0  0  0  0  0  0  0  0  0  0  0  0
   24.0542   -6.9897  -15.9013 O   0  0  0  0  0  0  0  0  0  0  0  0
   22.0835   -7.5407  -16.9202 N   0  0  0  0  0  0  0  0  0  0  0  0
   22.0762   -6.3694  -17.7796 C   0  0  1  0  0  0  0  0  0  0  0  0
   21.9152   -6.6803  -19.2118 C   0  0  0  0  0  0  0  0  0  0  0  0
   21.9538   -5.5976  -20.2056 C   0  0  0  0  0  0  0  0  0  0  0  0
   21.8966   -6.0719  -21.6345 C   0  0  0  0  0  0  0  0  0  0  0  0
   22.0195   -4.8587  -22.5401 C   0  0  0  0  0  0  0  0  0  0  0  0
   21.9872   -5.3412  -23.9100 N   0  0  0  0  0  0  0  0  0  0  0  0
   21.1593   -5.3792  -17.1959 C   0  0  0  0  0  0  0  0  0  0  0  0
   20.0168   -5.7051  -16.8072 O   0  0  0  0  0  0  0  0  0  0  0  0
   21.5202   -4.0527  -17.0531 O   0  0  0  0  0  0  0  0  0  0  0  0
  2  1  1  6
  2  3  1  0
  4  5  1  6
  4  2  1  0
  6  4  1  0
  6  7  2  0
  8  6  1  0
  9  8  1  0
  9 12  1  0
  9 10  1  1
 11 10  1  0
 12 14  1  0
 13 12  2  0
 14 15  1  0
 15 21  1  0
 16 17  1  0
 15 16  1  6
 18 17  1  0
 18 19  1  0
 20 19  1  0
 21 22  2  0
 21 23  1  0
M  END
$$$$
