TCK.pdb
     RDKit          3D

 23 22  0  0  1  0  0  0  0  0999 V2000
   18.9341   -9.1902  -19.2498 C   0  0  0  0  0  0  0  0  0  0  0  0
   18.1561  -10.4095  -18.8633 C   0  0  1  0  0  0  0  0  0  0  0  0
   17.5110  -10.9615  -19.9668 O   0  0  0  0  0  0  0  0  0  0  0  0
   19.0171  -11.4408  -18.1566 C   0  0  2  0  0  0  0  0  0  0  0  0
   18.1206  -12.5219  -17.7641 N   0  0  0  0  0  0  0  0  0  0  0  0
   19.5344  -10.8061  -16.9144 C   0  0  0  0  0  0  0  0  0  0  0  0
   18.6624  -10.5518  -16.0148 O   0  0  0  0  0  0  0  0  0  0  0  0
   20.9071  -10.4920  -16.7155 N   0  0  0  0  0  0  0  0  0  0  0  0
   21.3671   -9.8115  -15.5503 C   0  0  1  0  0  0  0  0  0  0  0  0
   22.6699  -10.4097  -15.0418 C   0  0  0  0  0  0  0  0  0  0  0  0
   23.2859   -9.5370  -13.5931 S   0  0  0  0  0  0  0  0  0  0  0  0
   21.6673   -8.3609  -15.8331 C   0  0  0  0  0  0  0  0  0  0  0  0
   22.3475   -8.0082  -16.8314 O   0  0  0  0  0  0  0  0  0  0  0  0
   21.1911   -7.3322  -14.9790 N   0  0  0  0  0  0  0  0  0  0  0  0
   21.4577   -5.9207  -15.1963 C   0  0  1  0  0  0  0  0  0  0  0  0
   20.3139   -5.1756  -15.7535 C   0  0  0  0  0  0  0  0  0  0  0  0
   20.4195   -3.7254  -15.9704 C   0  0  0  0  0  0  0  0  0  0  0  0
   19.1994   -3.1075  -16.6024 C   0  0  0  0  0  0  0  0  0  0  0  0
   19.4500   -1.6171  -16.7550 C   0  0  0  0  0  0  0  0  0  0  0  0
   18.3271   -1.0671  -17.4945 N   0  0  0  0  0  0  0  0  0  0  0  0
   22.0881   -5.3818  -13.9823 C   0  0  0  0  0  0  0  0  0  0  0  0
   21.8243   -5.8498  -12.8535 O   0  0  0  0  0  0  0  0  0  0  0  0
   22.9949   -4.3401  -14.0375 O   0  0  0  0  0  0  0  0  0  0  0  0
  2  1  1  6
  2  3  1  0
  4  5  1  1
  4  2  1  0
  6  4  1  0
  6  7  2  0
  8  6  1  0
  9  8  1  0
  9 12  1  0
  9 10  1  6
 11 10  1  0
 12 14  1  0
 13 12  2  0
 14 15  1  0
 15 21  1  0
 16 17  1  0
 15 16  1  1
 18 17  1  0
 18 19  1  0
 20 19  1  0
 21 22  2  0
 21 23  1  0
M  END
$$$$
