TCK.pdb
     RDKit          3D

 23 22  0  0  1  0  0  0  0  0999 V2000
   21.6775  -11.8007  -19.7052 C   0  0  0  0  0  0  0  0  0  0  0  0
   21.7186  -13.0753  -18.9212 C   0  0  1  0  0  0  0  0  0  0  0  0
   21.3311  -14.1579  -19.7063 O   0  0  0  0  0  0  0  0  0  0  0  0
   23.0757  -13.3152  -18.2847 C   0  0  2  0  0  0  0  0  0  0  0  0
   22.9632  -14.5645  -17.5409 N   0  0  0  0  0  0  0  0  0  0  0  0
   23.3013  -12.2206  -17.3026 C   0  0  0  0  0  0  0  0  0  0  0  0
   22.4921  -12.1849  -16.3135 O   0  0  0  0  0  0  0  0  0  0  0  0
   24.3437  -11.2620  -17.4329 N   0  0  0  0  0  0  0  0  0  0  0  0
   24.5264  -10.2089  -16.4895 C   0  0  1  0  0  0  0  0  0  0  0  0
   25.9313   -9.6321  -16.5736 C   0  0  0  0  0  0  0  0  0  0  0  0
   27.1725  -10.8111  -16.0172 S   0  0  0  0  0  0  0  0  0  0  0  0
   23.5944   -9.0535  -16.7553 C   0  0  0  0  0  0  0  0  0  0  0  0
   23.2053   -8.7712  -17.9183 O   0  0  0  0  0  0  0  0  0  0  0  0
   23.1179   -8.2357  -15.6977 N   0  0  0  0  0  0  0  0  0  0  0  0
   22.0929   -7.2203  -15.8672 C   0  0  1  0  0  0  0  0  0  0  0  0
   20.9288   -7.6718  -16.6516 C   0  0  0  0  0  0  0  0  0  0  0  0
   19.7994   -6.7585  -16.8787 C   0  0  0  0  0  0  0  0  0  0  0  0
   18.6842   -7.3517  -17.6998 C   0  0  0  0  0  0  0  0  0  0  0  0
   17.6494   -6.2670  -17.9447 C   0  0  0  0  0  0  0  0  0  0  0  0
   16.5740   -6.8666  -18.7155 N   0  0  0  0  0  0  0  0  0  0  0  0
   21.8286   -6.6130  -14.5546 C   0  0  0  0  0  0  0  0  0  0  0  0
   21.9663   -7.2680  -13.4988 O   0  0  0  0  0  0  0  0  0  0  0  0
   21.4188   -5.2986  -14.4331 O   0  0  0  0  0  0  0  0  0  0  0  0
  2  1  1  6
  2  3  1  0
  4  5  1  1
  4  2  1  0
  6  4  1  0
  6  7  2  0
  8  6  1  0
  9  8  1  0
  9 12  1  0
  9 10  1  6
 11 10  1  0
 12 14  1  0
 13 12  2  0
 14 15  1  0
 15 21  1  0
 16 17  1  0
 15 16  1  1
 18 17  1  0
 18 19  1  0
 20 19  1  0
 21 22  2  0
 21 23  1  0
M  END
$$$$
