DIC.pdb
     RDKit          3D

 23 22  0  0  1  0  0  0  0  0999 V2000
    7.7478  -14.4776   20.4929 N   0  0  0  0  0  0  0  0  0  0  0  0
    7.6337  -15.5358   21.4641 C   0  0  1  0  0  0  0  0  0  0  0  0
    8.3590  -16.7614   20.9169 C   0  0  0  0  0  0  0  0  0  0  0  0
    7.5924  -17.3031   19.7986 C   0  0  0  0  0  0  0  0  0  0  0  0
    6.6755  -16.6400   19.2656 O   0  0  0  0  0  0  0  0  0  0  0  0
    8.2985  -15.1389   22.7137 C   0  0  0  0  0  0  0  0  0  0  0  0
    9.5455  -14.8623   22.6638 O   0  0  0  0  0  0  0  0  0  0  0  0
    7.8716  -18.5651   19.3103 O   0  0  0  0  0  0  0  0  0  0  0  0
    6.0445  -11.6189   25.7272 C   0  0  0  0  0  0  0  0  0  0  0  0
    7.0902  -12.5008   25.1675 C   0  0  0  0  0  0  0  0  0  0  0  0
    7.4565  -13.7317   25.8767 C   0  0  2  0  0  0  0  0  0  0  0  0
    7.8435  -13.4783   27.3359 C   0  0  0  0  0  0  0  0  0  0  0  0
    8.3839  -14.6657   25.2075 C   0  0  2  0  0  0  0  0  0  0  0  0
    7.6500  -15.0451   23.9553 N   0  0  0  0  0  0  0  0  0  0  0  0
    8.7571  -15.9159   25.8233 C   0  0  0  0  0  0  0  0  0  0  0  0
    7.8453  -16.8001   26.0563 O   0  0  0  0  0  0  0  0  0  0  0  0
   10.0592  -16.3527   26.2288 N   0  0  0  0  0  0  0  0  0  0  0  0
   10.2710  -17.6107   26.9046 C   0  0  1  0  0  0  0  0  0  0  0  0
   11.5124  -18.2570   26.2685 C   0  0  0  0  0  0  0  0  0  0  0  0
   11.3227  -17.9990   24.4769 S   0  0  0  0  0  0  0  0  0  0  0  0
   10.4965  -17.5051   28.3545 C   0  0  0  0  0  0  0  0  0  0  0  0
   10.6227  -18.6214   29.1634 O   0  0  0  0  0  0  0  0  0  0  0  0
   10.5793  -16.3784   28.8891 O   0  0  0  0  0  0  0  0  0  0  0  0
  2  1  1  6
  2  3  1  0
  3  4  1  0
  4  8  1  0
  4  5  2  0
  6  2  1  0
  6  7  2  0
  9 10  1  0
 10 11  1  0
 11 13  1  0
 11 12  1  1
 13 14  1  6
 14  6  1  0
 15 13  1  0
 16 15  2  0
 17 15  1  0
 18 19  1  6
 18 17  1  0
 19 20  1  0
 21 22  1  0
 21 18  1  0
 23 21  2  0
M  END
$$$$
