DIC.pdb
     RDKit          3D

 23 22  0  0  1  0  0  0  0  0999 V2000
   10.0282  -16.2135   20.3651 N   0  0  0  0  0  0  0  0  0  0  0  0
    9.5381  -16.8269   21.5733 C   0  0  1  0  0  0  0  0  0  0  0  0
   10.4115  -18.0404   21.8765 C   0  0  0  0  0  0  0  0  0  0  0  0
    9.8094  -19.2204   21.2626 C   0  0  0  0  0  0  0  0  0  0  0  0
   10.0193  -19.4989   20.0614 O   0  0  0  0  0  0  0  0  0  0  0  0
    9.6662  -15.8870   22.6964 C   0  0  0  0  0  0  0  0  0  0  0  0
   10.5994  -15.0153   22.6408 O   0  0  0  0  0  0  0  0  0  0  0  0
    8.9935  -20.0516   22.0059 O   0  0  0  0  0  0  0  0  0  0  0  0
    6.1357  -12.5874   26.1507 C   0  0  0  0  0  0  0  0  0  0  0  0
    7.4794  -13.1757   25.9689 C   0  0  0  0  0  0  0  0  0  0  0  0
    7.6362  -14.3888   25.1589 C   0  0  2  0  0  0  0  0  0  0  0  0
    6.6575  -15.4956   25.5595 C   0  0  0  0  0  0  0  0  0  0  0  0
    9.0029  -14.9038   24.9421 C   0  0  2  0  0  0  0  0  0  0  0  0
    8.8290  -15.8880   23.8234 N   0  0  0  0  0  0  0  0  0  0  0  0
    9.7015  -15.6250   25.9782 C   0  0  0  0  0  0  0  0  0  0  0  0
    9.9704  -16.8758   25.8031 O   0  0  0  0  0  0  0  0  0  0  0  0
   10.1766  -15.1341   27.2367 N   0  0  0  0  0  0  0  0  0  0  0  0
   10.9630  -15.9498   28.1315 C   0  0  1  0  0  0  0  0  0  0  0  0
   11.3747  -15.0523   29.3098 C   0  0  0  0  0  0  0  0  0  0  0  0
   11.1753  -13.3469   28.7064 S   0  0  0  0  0  0  0  0  0  0  0  0
   10.2663  -17.1285   28.6694 C   0  0  0  0  0  0  0  0  0  0  0  0
    8.9215  -17.3592   28.4360 O   0  0  0  0  0  0  0  0  0  0  0  0
   10.8945  -17.9583   29.3616 O   0  0  0  0  0  0  0  0  0  0  0  0
  2  1  1  6
  2  3  1  0
  3  4  1  0
  4  8  1  0
  4  5  2  0
  6  2  1  0
  6  7  2  0
  9 10  1  0
 10 11  1  0
 11 13  1  0
 11 12  1  1
 13 14  1  6
 14  6  1  0
 15 13  1  0
 16 15  2  0
 17 15  1  0
 18 19  1  1
 18 17  1  0
 19 20  1  0
 21 22  1  0
 21 18  1  0
 23 21  2  0
M  END
$$$$
