DIC.pdb
     RDKit          3D

 23 22  0  0  1  0  0  0  0  0999 V2000
    8.0592  -14.5676   20.1894 N   0  0  0  0  0  0  0  0  0  0  0  0
    7.5500  -15.3871   21.2596 C   0  0  1  0  0  0  0  0  0  0  0  0
    7.8885  -16.8411   20.9452 C   0  0  0  0  0  0  0  0  0  0  0  0
    7.1219  -17.2619   19.7760 C   0  0  0  0  0  0  0  0  0  0  0  0
    5.8778  -17.3791   19.8302 O   0  0  0  0  0  0  0  0  0  0  0  0
    8.2173  -15.0312   22.5202 C   0  0  0  0  0  0  0  0  0  0  0  0
    9.4441  -14.6763   22.4659 O   0  0  0  0  0  0  0  0  0  0  0  0
    7.7652  -17.5383   18.5849 O   0  0  0  0  0  0  0  0  0  0  0  0
    6.0248  -11.5803   25.5128 C   0  0  0  0  0  0  0  0  0  0  0  0
    7.0294  -12.5043   24.9459 C   0  0  0  0  0  0  0  0  0  0  0  0
    7.3927  -13.7205   25.6817 C   0  0  2  0  0  0  0  0  0  0  0  0
    7.7816  -13.4362   27.1347 C   0  0  0  0  0  0  0  0  0  0  0  0
    8.3168  -14.6716   25.0324 C   0  0  2  0  0  0  0  0  0  0  0  0
    7.5918  -15.0570   23.7769 N   0  0  0  0  0  0  0  0  0  0  0  0
    8.6703  -15.9189   25.6656 C   0  0  0  0  0  0  0  0  0  0  0  0
    7.7338  -16.7420   26.0018 O   0  0  0  0  0  0  0  0  0  0  0  0
    9.9751  -16.4137   25.9869 N   0  0  0  0  0  0  0  0  0  0  0  0
   10.1763  -17.7009   26.6089 C   0  0  1  0  0  0  0  0  0  0  0  0
   11.2938  -18.4072   25.8243 C   0  0  0  0  0  0  0  0  0  0  0  0
   12.6418  -17.1900   25.7084 S   0  0  0  0  0  0  0  0  0  0  0  0
   10.5675  -17.6500   28.0261 C   0  0  0  0  0  0  0  0  0  0  0  0
   10.7468  -18.7956   28.7822 O   0  0  0  0  0  0  0  0  0  0  0  0
   10.7479  -16.5445   28.5807 O   0  0  0  0  0  0  0  0  0  0  0  0
  2  1  1  6
  2  3  1  0
  3  4  1  0
  4  8  1  0
  4  5  2  0
  6  2  1  0
  6  7  2  0
  9 10  1  0
 10 11  1  0
 11 13  1  0
 11 12  1  1
 13 14  1  6
 14  6  1  0
 15 13  1  0
 16 15  2  0
 17 15  1  0
 18 19  1  6
 18 17  1  0
 19 20  1  0
 21 22  1  0
 21 18  1  0
 23 21  2  0
M  END
$$$$
