DIC.pdb
     RDKit          3D

 23 22  0  0  1  0  0  0  0  0999 V2000
   10.1923  -17.8964   17.1316 N   0  0  0  0  0  0  0  0  0  0  0  0
    9.1519  -17.9192   18.1282 C   0  0  1  0  0  0  0  0  0  0  0  0
    9.0390  -19.3437   18.6627 C   0  0  0  0  0  0  0  0  0  0  0  0
    8.3708  -20.1714   17.6627 C   0  0  0  0  0  0  0  0  0  0  0  0
    9.0228  -20.9471   16.9295 O   0  0  0  0  0  0  0  0  0  0  0  0
    9.5182  -17.0438   19.2509 C   0  0  0  0  0  0  0  0  0  0  0  0
   10.7602  -16.9098   19.5217 O   0  0  0  0  0  0  0  0  0  0  0  0
    6.9988  -20.1086   17.5118 O   0  0  0  0  0  0  0  0  0  0  0  0
    6.9055  -12.5276   19.4680 C   0  0  0  0  0  0  0  0  0  0  0  0
    7.9819  -13.5150   19.6936 C   0  0  0  0  0  0  0  0  0  0  0  0
    8.0189  -14.2731   20.9491 C   0  0  2  0  0  0  0  0  0  0  0  0
    7.9797  -13.3699   22.1844 C   0  0  0  0  0  0  0  0  0  0  0  0
    9.0201  -15.3507   21.0772 C   0  0  2  0  0  0  0  0  0  0  0  0
    8.5905  -16.3479   20.0420 N   0  0  0  0  0  0  0  0  0  0  0  0
    9.1525  -16.1049   22.3000 C   0  0  0  0  0  0  0  0  0  0  0  0
    8.3271  -17.0692   22.5376 O   0  0  0  0  0  0  0  0  0  0  0  0
   10.1200  -15.9432   23.3433 N   0  0  0  0  0  0  0  0  0  0  0  0
   10.6427  -17.0653   24.0862 C   0  0  1  0  0  0  0  0  0  0  0  0
   11.1913  -18.0669   23.0570 C   0  0  0  0  0  0  0  0  0  0  0  0
   11.8523  -19.4496   24.0384 S   0  0  0  0  0  0  0  0  0  0  0  0
   11.7214  -16.7351   25.0304 C   0  0  0  0  0  0  0  0  0  0  0  0
   12.8007  -15.9471   24.6692 O   0  0  0  0  0  0  0  0  0  0  0  0
   11.6771  -17.1722   26.2005 O   0  0  0  0  0  0  0  0  0  0  0  0
  2  1  1  6
  2  3  1  0
  3  4  1  0
  4  8  1  0
  4  5  2  0
  6  2  1  0
  6  7  2  0
  9 10  1  0
 10 11  1  0
 11 13  1  0
 11 12  1  1
 13 14  1  6
 14  6  1  0
 15 13  1  0
 16 15  2  0
 17 15  1  0
 18 19  1  6
 18 17  1  0
 19 20  1  0
 21 22  1  0
 21 18  1  0
 23 21  2  0
M  END
$$$$
