DIC.pdb
     RDKit          3D

 23 22  0  0  1  0  0  0  0  0999 V2000
    7.2087  -17.2430   21.6102 N   0  0  0  0  0  0  0  0  0  0  0  0
    7.2363  -17.2500   23.0509 C   0  0  1  0  0  0  0  0  0  0  0  0
    7.9039  -18.5442   23.5057 C   0  0  0  0  0  0  0  0  0  0  0  0
    7.1210  -19.6759   23.0176 C   0  0  0  0  0  0  0  0  0  0  0  0
    7.6792  -20.7297   22.6403 O   0  0  0  0  0  0  0  0  0  0  0  0
    8.0499  -16.1271   23.5389 C   0  0  0  0  0  0  0  0  0  0  0  0
    9.1020  -15.8225   22.8800 O   0  0  0  0  0  0  0  0  0  0  0  0
    5.7426  -19.5974   22.9656 O   0  0  0  0  0  0  0  0  0  0  0  0
    5.3348  -12.3145   26.1271 C   0  0  0  0  0  0  0  0  0  0  0  0
    6.3828  -12.9385   25.2923 C   0  0  0  0  0  0  0  0  0  0  0  0
    7.6319  -13.3907   25.9147 C   0  0  2  0  0  0  0  0  0  0  0  0
    8.3439  -12.2758   26.6851 C   0  0  0  0  0  0  0  0  0  0  0  0
    8.5660  -14.1856   25.0927 C   0  0  2  0  0  0  0  0  0  0  0  0
    7.7433  -15.3707   24.6812 N   0  0  0  0  0  0  0  0  0  0  0  0
    9.7728  -14.7383   25.6583 C   0  0  0  0  0  0  0  0  0  0  0  0
   10.9009  -14.1527   25.4300 O   0  0  0  0  0  0  0  0  0  0  0  0
    9.9157  -15.8965   26.4882 N   0  0  0  0  0  0  0  0  0  0  0  0
   10.7213  -15.8880   27.6861 C   0  0  1  0  0  0  0  0  0  0  0  0
   10.1552  -14.7876   28.5983 C   0  0  0  0  0  0  0  0  0  0  0  0
   11.2190  -14.7941   30.0749 S   0  0  0  0  0  0  0  0  0  0  0  0
   10.7285  -17.1529   28.4373 C   0  0  0  0  0  0  0  0  0  0  0  0
    9.7939  -18.1487   28.2115 O   0  0  0  0  0  0  0  0  0  0  0  0
   11.6001  -17.3506   29.3110 O   0  0  0  0  0  0  0  0  0  0  0  0
  2  1  1  6
  2  3  1  0
  3  4  1  0
  4  8  1  0
  4  5  2  0
  6  2  1  0
  6  7  2  0
  9 10  1  0
 10 11  1  0
 11 13  1  0
 11 12  1  6
 13 14  1  1
 14  6  1  0
 15 13  1  0
 16 15  2  0
 17 15  1  0
 18 19  1  1
 18 17  1  0
 19 20  1  0
 21 22  1  0
 21 18  1  0
 23 21  2  0
M  END
$$$$
