DIC.pdb
     RDKit          3D

 23 22  0  0  1  0  0  0  0  0999 V2000
    8.4416  -14.9171   20.6883 N   0  0  0  0  0  0  0  0  0  0  0  0
    7.9797  -15.7394   21.7776 C   0  0  1  0  0  0  0  0  0  0  0  0
    8.3808  -17.1821   21.4853 C   0  0  0  0  0  0  0  0  0  0  0  0
    7.6689  -17.6379   20.2948 C   0  0  0  0  0  0  0  0  0  0  0  0
    6.4187  -17.6539   20.2593 O   0  0  0  0  0  0  0  0  0  0  0  0
    8.6415  -15.3313   23.0252 C   0  0  0  0  0  0  0  0  0  0  0  0
    9.8944  -15.0822   22.9815 O   0  0  0  0  0  0  0  0  0  0  0  0
    8.3719  -18.0607   19.1831 O   0  0  0  0  0  0  0  0  0  0  0  0
    6.1678  -11.8079   25.8650 C   0  0  0  0  0  0  0  0  0  0  0  0
    7.2684  -12.6473   25.3467 C   0  0  0  0  0  0  0  0  0  0  0  0
    7.7175  -13.8114   26.1183 C   0  0  2  0  0  0  0  0  0  0  0  0
    8.1012  -13.4531   27.5563 C   0  0  0  0  0  0  0  0  0  0  0  0
    8.6954  -14.7221   25.4901 C   0  0  2  0  0  0  0  0  0  0  0  0
    7.9839  -15.1986   24.2585 N   0  0  0  0  0  0  0  0  0  0  0  0
    9.1376  -15.9201   26.1615 C   0  0  0  0  0  0  0  0  0  0  0  0
    8.2749  -16.8385   26.4442 O   0  0  0  0  0  0  0  0  0  0  0  0
   10.4633  -16.2685   26.5761 N   0  0  0  0  0  0  0  0  0  0  0  0
   10.7431  -17.4731   27.3210 C   0  0  1  0  0  0  0  0  0  0  0  0
   12.1331  -17.9594   26.8795 C   0  0  0  0  0  0  0  0  0  0  0  0
   12.0334  -18.1174   25.0692 S   0  0  0  0  0  0  0  0  0  0  0  0
   10.7533  -17.3095   28.7829 C   0  0  0  0  0  0  0  0  0  0  0  0
   10.9384  -18.3788   29.6423 O   0  0  0  0  0  0  0  0  0  0  0  0
   10.5911  -16.1749   29.2815 O   0  0  0  0  0  0  0  0  0  0  0  0
  2  1  1  6
  2  3  1  0
  3  4  1  0
  4  8  1  0
  4  5  2  0
  6  2  1  0
  6  7  2  0
  9 10  1  0
 10 11  1  0
 11 13  1  0
 11 12  1  1
 13 14  1  6
 14  6  1  0
 15 13  1  0
 16 15  2  0
 17 15  1  0
 18 19  1  6
 18 17  1  0
 19 20  1  0
 21 22  1  0
 21 18  1  0
 23 21  2  0
M  END
$$$$
