DIC.pdb
     RDKit          3D

 23 22  0  0  1  0  0  0  0  0999 V2000
    7.1128  -14.5851   20.7975 N   0  0  0  0  0  0  0  0  0  0  0  0
    7.2548  -15.6090   21.8014 C   0  0  1  0  0  0  0  0  0  0  0  0
    8.0116  -16.7793   21.1807 C   0  0  0  0  0  0  0  0  0  0  0  0
    7.1667  -17.4028   20.1663 C   0  0  0  0  0  0  0  0  0  0  0  0
    5.9555  -17.6252   20.3854 O   0  0  0  0  0  0  0  0  0  0  0  0
    8.0555  -15.0985   22.9236 C   0  0  0  0  0  0  0  0  0  0  0  0
    9.2100  -14.6166   22.6617 O   0  0  0  0  0  0  0  0  0  0  0  0
    7.6977  -17.7583   18.9413 O   0  0  0  0  0  0  0  0  0  0  0  0
    5.8208  -11.6636   25.8074 C   0  0  0  0  0  0  0  0  0  0  0  0
    6.8785  -12.5106   25.2172 C   0  0  0  0  0  0  0  0  0  0  0  0
    7.4852  -13.5779   26.0205 C   0  0  2  0  0  0  0  0  0  0  0  0
    8.0017  -13.0774   27.3718 C   0  0  0  0  0  0  0  0  0  0  0  0
    8.4446  -14.4829   25.3567 C   0  0  2  0  0  0  0  0  0  0  0  0
    7.6312  -15.1076   24.2619 N   0  0  0  0  0  0  0  0  0  0  0  0
    9.0407  -15.5887   26.0661 C   0  0  0  0  0  0  0  0  0  0  0  0
    8.2756  -16.4949   26.5771 O   0  0  0  0  0  0  0  0  0  0  0  0
   10.4295  -15.8532   26.2937 N   0  0  0  0  0  0  0  0  0  0  0  0
   10.8822  -17.0348   26.9888 C   0  0  1  0  0  0  0  0  0  0  0  0
   12.3285  -17.2935   26.5367 C   0  0  0  0  0  0  0  0  0  0  0  0
   13.1764  -15.6917   26.7013 S   0  0  0  0  0  0  0  0  0  0  0  0
   10.8676  -16.9343   28.4565 C   0  0  0  0  0  0  0  0  0  0  0  0
   11.1761  -18.0099   29.2714 O   0  0  0  0  0  0  0  0  0  0  0  0
   10.5691  -15.8496   29.0011 O   0  0  0  0  0  0  0  0  0  0  0  0
  2  1  1  6
  2  3  1  0
  3  4  1  0
  4  8  1  0
  4  5  2  0
  6  2  1  0
  6  7  2  0
  9 10  1  0
 10 11  1  0
 11 13  1  0
 11 12  1  1
 13 14  1  6
 14  6  1  0
 15 13  1  0
 16 15  2  0
 17 15  1  0
 18 19  1  6
 18 17  1  0
 19 20  1  0
 21 22  1  0
 21 18  1  0
 23 21  2  0
M  END
$$$$
