QYY.pdb
     RDKit          3D

 34 35  0  0  1  0  0  0  0  0999 V2000
    7.8054  -17.5880   17.2875 N   0  0  0  0  0  0  0  0  0  0  0  0
    8.2107  -17.0520   16.0642 C   0  0  0  0  0  0  0  0  0  0  0  0
    7.8077  -17.6135   15.0117 O   0  0  0  0  0  0  0  0  0  0  0  0
    9.0833  -15.8650   15.9126 C   0  0  0  0  0  0  0  0  0  0  0  0
    9.5894  -15.3543   17.2321 C   0  0  0  0  0  0  0  0  0  0  0  0
    8.4226  -14.6432   17.9108 C   0  0  2  0  0  0  0  0  0  0  0  0
    8.2125  -13.4201   17.1583 N   0  0  0  0  0  0  0  0  0  0  0  0
    8.6621  -14.4005   19.3356 C   0  0  0  0  0  0  0  0  0  0  0  0
    9.6131  -13.6722   19.6903 O   0  0  0  0  0  0  0  0  0  0  0  0
    7.3968  -13.0211   27.8677 O   0  0  0  0  0  0  0  0  0  0  0  0
    7.2707  -13.2437   26.4928 C   0  0  0  0  0  0  0  0  0  0  0  0
    6.7096  -14.4271   26.0762 C   0  0  0  0  0  0  0  0  0  0  0  0
    6.5742  -14.6669   24.7295 C   0  0  0  0  0  0  0  0  0  0  0  0
    6.9873  -13.7486   23.7663 C   0  0  0  0  0  0  0  0  0  0  0  0
    6.8552  -13.9652   22.3166 C   0  0  0  0  0  0  0  0  0  0  0  0
    8.0234  -14.7337   21.7441 C   0  0  2  0  0  0  0  0  0  0  0  0
    7.8317  -14.9781   20.3211 N   0  0  0  0  0  0  0  0  0  0  0  0
    8.3114  -15.9856   22.4739 C   0  0  0  0  0  0  0  0  0  0  0  0
    7.4269  -16.4697   23.2141 O   0  0  0  0  0  0  0  0  0  0  0  0
    7.5507  -12.5620   24.2232 C   0  0  0  0  0  0  0  0  0  0  0  0
    7.6879  -12.3192   25.5672 C   0  0  0  0  0  0  0  0  0  0  0  0
   14.3887  -14.1941   18.7248 O   0  0  0  0  0  0  0  0  0  0  0  0
   13.6074  -14.4053   19.8361 C   0  0  0  0  0  0  0  0  0  0  0  0
   13.7920  -15.5267   20.6186 C   0  0  0  0  0  0  0  0  0  0  0  0
   13.0082  -15.7202   21.7165 C   0  0  0  0  0  0  0  0  0  0  0  0
   11.9985  -14.8292   22.1142 C   0  0  0  0  0  0  0  0  0  0  0  0
   11.1793  -15.1228   23.3075 C   0  0  0  0  0  0  0  0  0  0  0  0
   10.6450  -16.5114   23.3266 C   0  0  2  0  0  0  0  0  0  0  0  0
    9.5465  -16.6811   22.3826 N   0  0  0  0  0  0  0  0  0  0  0  0
   10.1556  -16.8595   24.6698 C   0  0  0  0  0  0  0  0  0  0  0  0
    8.9217  -17.1183   24.8682 O   0  0  0  0  0  0  0  0  0  0  0  0
   11.8435  -13.7262   21.3126 C   0  0  0  0  0  0  0  0  0  0  0  0
   12.6261  -13.5001   20.1872 C   0  0  0  0  0  0  0  0  0  0  0  0
   10.9877  -16.9268   25.7691 O   0  0  0  0  0  0  0  0  0  0  0  0
  2  1  1  0
  3  2  2  0
  4  2  1  0
  5  4  1  0
  6  5  1  0
  6  7  1  6
  8  6  1  0
  8  9  2  0
 10 11  1  0
 11 12  2  0
 12 13  1  0
 14 13  2  0
 14 15  1  0
 16 17  1  0
 16 15  1  1
 17  8  1  0
 18 16  1  0
 19 18  2  0
 20 14  1  0
 21 11  1  0
 21 20  2  0
 23 22  1  0
 23 24  2  0
 25 24  1  0
 26 25  2  0
 28 27  1  1
 27 26  1  0
 28 29  1  0
 29 18  1  0
 30 28  1  0
 30 34  1  0
 31 30  2  0
 32 33  2  0
 32 26  1  0
 33 23  1  0
M  END
$$$$
