QYY.pdb
     RDKit          3D

 34 35  0  0  1  0  0  0  0  0999 V2000
   14.9639  -16.9658   18.3938 N   0  0  0  0  0  0  0  0  0  0  0  0
   14.1375  -18.0352   18.0454 C   0  0  0  0  0  0  0  0  0  0  0  0
   14.4491  -18.7160   17.0330 O   0  0  0  0  0  0  0  0  0  0  0  0
   12.9155  -18.4302   18.7830 C   0  0  0  0  0  0  0  0  0  0  0  0
   12.6836  -17.5828   20.0021 C   0  0  0  0  0  0  0  0  0  0  0  0
   11.1762  -17.3800   20.1226 C   0  0  2  0  0  0  0  0  0  0  0  0
   10.7263  -16.9630   18.8072 N   0  0  0  0  0  0  0  0  0  0  0  0
   10.8180  -16.4262   21.1751 C   0  0  0  0  0  0  0  0  0  0  0  0
   11.6599  -15.5920   21.5701 O   0  0  0  0  0  0  0  0  0  0  0  0
    8.0205  -12.4973   17.2550 O   0  0  0  0  0  0  0  0  0  0  0  0
    7.9773  -13.0593   18.5348 C   0  0  0  0  0  0  0  0  0  0  0  0
    7.2466  -14.2095   18.7137 C   0  0  0  0  0  0  0  0  0  0  0  0
    7.1911  -14.7805   19.9628 C   0  0  0  0  0  0  0  0  0  0  0  0
    7.8525  -14.2326   21.0601 C   0  0  0  0  0  0  0  0  0  0  0  0
    7.8223  -14.8156   22.4111 C   0  0  0  0  0  0  0  0  0  0  0  0
    9.1302  -15.4769   22.7783 C   0  0  2  0  0  0  0  0  0  0  0  0
    9.5300  -16.4324   21.7544 N   0  0  0  0  0  0  0  0  0  0  0  0
    9.1137  -16.0967   24.1195 C   0  0  0  0  0  0  0  0  0  0  0  0
    8.4498  -17.1427   24.2927 O   0  0  0  0  0  0  0  0  0  0  0  0
    8.5822  -13.0687   20.8431 C   0  0  0  0  0  0  0  0  0  0  0  0
    8.6397  -12.4954   19.5973 C   0  0  0  0  0  0  0  0  0  0  0  0
    5.4304  -10.9076   26.4907 O   0  0  0  0  0  0  0  0  0  0  0  0
    6.0748  -12.1186   26.5826 C   0  0  0  0  0  0  0  0  0  0  0  0
    5.4650  -13.2719   26.1332 C   0  0  0  0  0  0  0  0  0  0  0  0
    6.1184  -14.4636   26.2324 C   0  0  0  0  0  0  0  0  0  0  0  0
    7.4060  -14.5982   26.7761 C   0  0  0  0  0  0  0  0  0  0  0  0
    8.0370  -15.9306   26.8653 C   0  0  0  0  0  0  0  0  0  0  0  0
    9.5045  -15.9034   26.6213 C   0  0  2  0  0  0  0  0  0  0  0  0
    9.8162  -15.5705   25.2361 N   0  0  0  0  0  0  0  0  0  0  0  0
   10.1045  -17.2118   26.9264 C   0  0  0  0  0  0  0  0  0  0  0  0
   10.4254  -18.0172   25.9898 O   0  0  0  0  0  0  0  0  0  0  0  0
    7.9809  -13.4311   27.2127 C   0  0  0  0  0  0  0  0  0  0  0  0
    7.3413  -12.2007   27.1255 C   0  0  0  0  0  0  0  0  0  0  0  0
   10.3513  -17.6328   28.2176 O   0  0  0  0  0  0  0  0  0  0  0  0
  2  1  1  0
  3  2  2  0
  4  2  1  0
  5  4  1  0
  6  5  1  0
  6  7  1  6
  8  6  1  0
  8  9  2  0
 10 11  1  0
 11 12  2  0
 12 13  1  0
 14 13  2  0
 14 15  1  0
 16 17  1  0
 16 15  1  6
 17  8  1  0
 18 16  1  0
 19 18  2  0
 20 14  1  0
 21 11  1  0
 21 20  2  0
 23 22  1  0
 23 24  2  0
 25 24  1  0
 26 25  2  0
 28 27  1  6
 27 26  1  0
 28 29  1  0
 29 18  1  0
 30 28  1  0
 30 34  1  0
 31 30  2  0
 32 33  2  0
 32 26  1  0
 33 23  1  0
M  END
$$$$
