QYY.pdb
     RDKit          3D

 34 35  0  0  1  0  0  0  0  0999 V2000
   13.0036  -18.4008   13.1896 N   0  0  0  0  0  0  0  0  0  0  0  0
   13.3260  -17.3680   14.0713 C   0  0  0  0  0  0  0  0  0  0  0  0
   14.5418  -17.1785   14.3385 O   0  0  0  0  0  0  0  0  0  0  0  0
   12.3383  -16.4739   14.7180 C   0  0  0  0  0  0  0  0  0  0  0  0
   11.6437  -17.1313   15.8771 C   0  0  0  0  0  0  0  0  0  0  0  0
   10.6809  -16.1016   16.4607 C   0  0  2  0  0  0  0  0  0  0  0  0
   10.6713  -14.9930   15.5240 N   0  0  0  0  0  0  0  0  0  0  0  0
   11.0463  -15.6949   17.8197 C   0  0  0  0  0  0  0  0  0  0  0  0
   12.0133  -14.9244   17.9987 O   0  0  0  0  0  0  0  0  0  0  0  0
    5.8000  -11.9689   18.7164 O   0  0  0  0  0  0  0  0  0  0  0  0
    6.6908  -12.8714   19.3060 C   0  0  0  0  0  0  0  0  0  0  0  0
    7.6807  -12.3697   20.1166 C   0  0  0  0  0  0  0  0  0  0  0  0
    8.5668  -13.2382   20.7080 C   0  0  0  0  0  0  0  0  0  0  0  0
    8.4974  -14.6164   20.5146 C   0  0  0  0  0  0  0  0  0  0  0  0
    9.4228  -15.5792   21.1330 C   0  0  0  0  0  0  0  0  0  0  0  0
   10.6676  -15.7906   20.3032 C   0  0  2  0  0  0  0  0  0  0  0  0
   10.3202  -16.1605   18.9380 N   0  0  0  0  0  0  0  0  0  0  0  0
   11.6103  -16.7577   20.9023 C   0  0  0  0  0  0  0  0  0  0  0  0
   11.4639  -17.9752   20.6555 O   0  0  0  0  0  0  0  0  0  0  0  0
    7.4835  -15.0895   19.6883 C   0  0  0  0  0  0  0  0  0  0  0  0
    6.5970  -14.2252   19.0957 C   0  0  0  0  0  0  0  0  0  0  0  0
   18.6802  -12.9505   18.0054 O   0  0  0  0  0  0  0  0  0  0  0  0
   17.5144  -13.3915   18.5856 C   0  0  0  0  0  0  0  0  0  0  0  0
   16.4015  -13.6495   17.8119 C   0  0  0  0  0  0  0  0  0  0  0  0
   15.2542  -14.0858   18.4038 C   0  0  0  0  0  0  0  0  0  0  0  0
   15.1272  -14.2958   19.7864 C   0  0  0  0  0  0  0  0  0  0  0  0
   13.8411  -14.7516   20.3515 C   0  0  0  0  0  0  0  0  0  0  0  0
   13.9805  -15.9200   21.2623 C   0  0  2  0  0  0  0  0  0  0  0  0
   12.6864  -16.3826   21.7502 N   0  0  0  0  0  0  0  0  0  0  0  0
   14.8137  -15.5739   22.4247 C   0  0  0  0  0  0  0  0  0  0  0  0
   16.0377  -15.2449   22.2757 O   0  0  0  0  0  0  0  0  0  0  0  0
   16.2534  -14.0287   20.5238 C   0  0  0  0  0  0  0  0  0  0  0  0
   17.4379  -13.5831   19.9505 C   0  0  0  0  0  0  0  0  0  0  0  0
   14.3270  -15.5831   23.7164 O   0  0  0  0  0  0  0  0  0  0  0  0
  2  1  1  0
  3  2  2  0
  4  2  1  0
  5  4  1  0
  6  5  1  0
  6  7  1  6
  8  6  1  0
  8  9  2  0
 10 11  1  0
 11 12  2  0
 12 13  1  0
 14 13  2  0
 14 15  1  0
 16 17  1  0
 16 15  1  1
 17  8  1  0
 18 16  1  0
 19 18  2  0
 20 14  1  0
 21 11  1  0
 21 20  2  0
 23 22  1  0
 23 24  2  0
 25 24  1  0
 26 25  2  0
 28 27  1  6
 27 26  1  0
 28 29  1  0
 29 18  1  0
 30 28  1  0
 30 34  1  0
 31 30  2  0
 32 33  2  0
 32 26  1  0
 33 23  1  0
M  END
$$$$
