QYY.pdb
     RDKit          3D

 34 35  0  0  1  0  0  0  0  0999 V2000
    8.1782  -21.3075   19.4523 N   0  0  0  0  0  0  0  0  0  0  0  0
    9.1539  -20.7592   18.6184 C   0  0  0  0  0  0  0  0  0  0  0  0
    9.2312  -21.1904   17.4380 O   0  0  0  0  0  0  0  0  0  0  0  0
   10.1090  -19.7017   19.0220 C   0  0  0  0  0  0  0  0  0  0  0  0
    9.4568  -18.6229   19.8399 C   0  0  0  0  0  0  0  0  0  0  0  0
    9.8612  -17.2888   19.2199 C   0  0  2  0  0  0  0  0  0  0  0  0
   10.9820  -17.5820   18.3456 N   0  0  0  0  0  0  0  0  0  0  0  0
   10.1755  -16.2717   20.2262 C   0  0  0  0  0  0  0  0  0  0  0  0
   11.3079  -16.2485   20.7532 O   0  0  0  0  0  0  0  0  0  0  0  0
    6.2970  -12.5430   27.2709 O   0  0  0  0  0  0  0  0  0  0  0  0
    6.5866  -13.0812   26.0130 C   0  0  0  0  0  0  0  0  0  0  0  0
    6.2349  -14.3873   25.7699 C   0  0  0  0  0  0  0  0  0  0  0  0
    6.5084  -14.9370   24.5400 C   0  0  0  0  0  0  0  0  0  0  0  0
    7.1326  -14.2140   23.5254 C   0  0  0  0  0  0  0  0  0  0  0  0
    7.4378  -14.7638   22.1949 C   0  0  0  0  0  0  0  0  0  0  0  0
    8.9140  -15.0275   22.0096 C   0  0  2  0  0  0  0  0  0  0  0  0
    9.2156  -15.3107   20.6132 N   0  0  0  0  0  0  0  0  0  0  0  0
    9.4335  -16.0856   22.9005 C   0  0  0  0  0  0  0  0  0  0  0  0
   10.5354  -16.6132   22.6320 O   0  0  0  0  0  0  0  0  0  0  0  0
    7.4747  -12.8954   23.8060 C   0  0  0  0  0  0  0  0  0  0  0  0
    7.2035  -12.3432   25.0330 C   0  0  0  0  0  0  0  0  0  0  0  0
   11.6847  -15.3429   31.1774 O   0  0  0  0  0  0  0  0  0  0  0  0
   11.0951  -15.3024   29.9361 C   0  0  0  0  0  0  0  0  0  0  0  0
   10.8315  -16.4690   29.2480 C   0  0  0  0  0  0  0  0  0  0  0  0
   10.2468  -16.4101   28.0185 C   0  0  0  0  0  0  0  0  0  0  0  0
    9.8851  -15.2079   27.3895 C   0  0  0  0  0  0  0  0  0  0  0  0
    9.2729  -15.2299   26.0456 C   0  0  0  0  0  0  0  0  0  0  0  0
    9.3368  -16.5653   25.3924 C   0  0  2  0  0  0  0  0  0  0  0  0
    8.7491  -16.5431   24.0580 N   0  0  0  0  0  0  0  0  0  0  0  0
    8.6198  -17.5689   26.1946 C   0  0  0  0  0  0  0  0  0  0  0  0
    9.0388  -17.8987   27.3541 O   0  0  0  0  0  0  0  0  0  0  0  0
   10.1624  -14.0688   28.1027 C   0  0  0  0  0  0  0  0  0  0  0  0
   10.7574  -14.0952   29.3580 C   0  0  0  0  0  0  0  0  0  0  0  0
    7.4743  -18.1964   25.7478 O   0  0  0  0  0  0  0  0  0  0  0  0
  2  1  1  0
  3  2  2  0
  4  2  1  0
  5  4  1  0
  6  5  1  0
  6  7  1  6
  8  6  1  0
  8  9  2  0
 10 11  1  0
 11 12  2  0
 12 13  1  0
 14 13  2  0
 14 15  1  0
 16 17  1  0
 16 15  1  6
 17  8  1  0
 18 16  1  0
 19 18  2  0
 20 14  1  0
 21 11  1  0
 21 20  2  0
 23 22  1  0
 23 24  2  0
 25 24  1  0
 26 25  2  0
 28 27  1  1
 27 26  1  0
 28 29  1  0
 29 18  1  0
 30 28  1  0
 30 34  1  0
 31 30  2  0
 32 33  2  0
 32 26  1  0
 33 23  1  0
M  END
$$$$
