QYY.pdb
     RDKit          3D

 34 35  0  0  1  0  0  0  0  0999 V2000
   12.1816  -21.9555   17.5625 N   0  0  0  0  0  0  0  0  0  0  0  0
   12.5442  -20.6079   17.5421 C   0  0  0  0  0  0  0  0  0  0  0  0
   13.7629  -20.3272   17.3963 O   0  0  0  0  0  0  0  0  0  0  0  0
   11.5960  -19.4785   17.6793 C   0  0  0  0  0  0  0  0  0  0  0  0
   10.5642  -19.7233   18.7440 C   0  0  0  0  0  0  0  0  0  0  0  0
    9.7281  -18.4519   18.8537 C   0  0  2  0  0  0  0  0  0  0  0  0
    9.7389  -17.8554   17.5306 N   0  0  0  0  0  0  0  0  0  0  0  0
   10.2188  -17.5422   19.8918 C   0  0  0  0  0  0  0  0  0  0  0  0
   11.4030  -17.1456   19.8610 O   0  0  0  0  0  0  0  0  0  0  0  0
    6.8838  -12.3592   17.7584 O   0  0  0  0  0  0  0  0  0  0  0  0
    7.3309  -13.0677   18.8781 C   0  0  0  0  0  0  0  0  0  0  0  0
    8.4541  -12.6137   19.5269 C   0  0  0  0  0  0  0  0  0  0  0  0
    8.9110  -13.2934   20.6308 C   0  0  0  0  0  0  0  0  0  0  0  0
    8.2731  -14.4321   21.1187 C   0  0  0  0  0  0  0  0  0  0  0  0
    8.7271  -15.1844   22.2993 C   0  0  0  0  0  0  0  0  0  0  0  0
    9.8180  -16.1740   21.9624 C   0  0  2  0  0  0  0  0  0  0  0  0
    9.3717  -17.1024   20.9328 N   0  0  0  0  0  0  0  0  0  0  0  0
   10.3422  -16.8886   23.1447 C   0  0  0  0  0  0  0  0  0  0  0  0
    9.6832  -17.8425   23.6143 O   0  0  0  0  0  0  0  0  0  0  0  0
    7.1397  -14.8636   20.4378 C   0  0  0  0  0  0  0  0  0  0  0  0
    6.6807  -14.1877   19.3349 C   0  0  0  0  0  0  0  0  0  0  0  0
    9.6024  -23.1206   23.3639 O   0  0  0  0  0  0  0  0  0  0  0  0
   10.4108  -22.0094   23.3194 C   0  0  0  0  0  0  0  0  0  0  0  0
   10.4863  -21.1551   24.4002 C   0  0  0  0  0  0  0  0  0  0  0  0
   11.2926  -20.0582   24.3386 C   0  0  0  0  0  0  0  0  0  0  0  0
   12.0726  -19.7321   23.2175 C   0  0  0  0  0  0  0  0  0  0  0  0
   12.9058  -18.5127   23.2240 C   0  0  0  0  0  0  0  0  0  0  0  0
   12.5172  -17.5410   24.2816 C   0  0  2  0  0  0  0  0  0  0  0  0
   11.5647  -16.5543   23.7858 N   0  0  0  0  0  0  0  0  0  0  0  0
   13.6994  -16.8258   24.7874 C   0  0  0  0  0  0  0  0  0  0  0  0
   14.3872  -17.3014   25.7515 O   0  0  0  0  0  0  0  0  0  0  0  0
   11.9721  -20.6037   22.1622 C   0  0  0  0  0  0  0  0  0  0  0  0
   11.1596  -21.7303   22.1938 C   0  0  0  0  0  0  0  0  0  0  0  0
   14.1244  -15.6247   24.2562 O   0  0  0  0  0  0  0  0  0  0  0  0
  2  1  1  0
  3  2  2  0
  4  2  1  0
  5  4  1  0
  6  5  1  0
  6  7  1  6
  8  6  1  0
  8  9  2  0
 10 11  1  0
 11 12  2  0
 12 13  1  0
 14 13  2  0
 14 15  1  0
 16 17  1  0
 16 15  1  1
 17  8  1  0
 18 16  1  0
 19 18  2  0
 20 14  1  0
 21 11  1  0
 21 20  2  0
 23 22  1  0
 23 24  2  0
 25 24  1  0
 26 25  2  0
 28 27  1  6
 27 26  1  0
 28 29  1  0
 29 18  1  0
 30 28  1  0
 30 34  1  0
 31 30  2  0
 32 33  2  0
 32 26  1  0
 33 23  1  0
M  END
$$$$
