PSW.pdb
     RDKit          3D

 28 30  0  0  1  0  0  0  0  0999 V2000
    8.8775  -14.5285   18.0209 N   0  0  0  0  0  0  0  0  0  0  0  0
    8.7581  -13.6026   16.9163 C   0  0  0  0  0  0  0  0  0  0  0  0
    7.5151  -12.8261   17.2513 C   0  0  0  0  0  0  0  0  0  0  0  0
    7.3153  -12.9710   18.7583 C   0  0  0  0  0  0  0  0  0  0  0  0
    8.5442  -13.7209   19.1561 C   0  0  1  0  0  0  0  0  0  0  0  0
    8.4129  -14.5018   20.4002 C   0  0  0  0  0  0  0  0  0  0  0  0
    8.1637  -13.9608   21.5133 O   0  0  0  0  0  0  0  0  0  0  0  0
    7.7930  -18.7034   20.2286 O   0  0  0  0  0  0  0  0  0  0  0  0
    7.3794  -17.8927   21.2742 C   0  0  0  0  0  0  0  0  0  0  0  0
    8.3375  -16.7605   21.5225 C   0  0  2  0  0  0  0  0  0  0  0  0
    8.5645  -15.9204   20.3943 N   0  0  0  0  0  0  0  0  0  0  0  0
    9.6079  -17.2402   22.1443 C   0  0  0  0  0  0  0  0  0  0  0  0
    9.9737  -18.4252   21.9623 O   0  0  0  0  0  0  0  0  0  0  0  0
   10.4264  -16.4095   22.9376 N   0  0  0  0  0  0  0  0  0  0  0  0
   10.0155  -15.9075   24.2591 C   0  0  1  0  0  0  0  0  0  0  0  0
    8.5977  -15.3943   24.0495 C   0  0  0  0  0  0  0  0  0  0  0  0
    7.9438  -14.9260   25.2560 C   0  0  0  0  0  0  0  0  0  0  0  0
    7.6552  -15.6830   26.3692 C   0  0  0  0  0  0  0  0  0  0  0  0
    7.0436  -14.8813   27.2774 N   0  0  0  0  0  0  0  0  0  0  0  0
    6.9216  -13.6299   26.8000 C   0  0  0  0  0  0  0  0  0  0  0  0
    6.3831  -12.4766   27.3275 C   0  0  0  0  0  0  0  0  0  0  0  0
    6.4065  -11.3242   26.5774 C   0  0  0  0  0  0  0  0  0  0  0  0
    6.9618  -11.3139   25.3077 C   0  0  0  0  0  0  0  0  0  0  0  0
    7.4862  -12.4660   24.8114 C   0  0  0  0  0  0  0  0  0  0  0  0
    7.4907  -13.6547   25.5201 C   0  0  0  0  0  0  0  0  0  0  0  0
    9.9238  -17.0750   25.1705 C   0  0  0  0  0  0  0  0  0  0  0  0
   10.3629  -17.0317   26.3473 O   0  0  0  0  0  0  0  0  0  0  0  0
    9.3487  -18.2687   24.7646 O   0  0  0  0  0  0  0  0  0  0  0  0
  1  2  1  0
  2  3  1  0
  4  3  1  0
  5  1  1  0
  5  4  1  0
  5  6  1  1
  6 11  1  0
  7  6  2  0
  9  8  1  0
 10 12  1  0
 10  9  1  6
 11 10  1  0
 12 14  1  0
 13 12  2  0
 14 15  1  0
 15 26  1  0
 15 16  1  6
 17 16  1  0
 18 17  2  0
 19 20  1  0
 19 18  1  0
 20 25  2  0
 21 22  2  0
 21 20  1  0
 22 23  1  0
 23 24  2  0
 25 17  1  0
 25 24  1  0
 26 27  2  0
 26 28  1  0
M  END
$$$$
