PSW.pdb
     RDKit          3D

 28 30  0  0  1  0  0  0  0  0999 V2000
    8.8640  -14.4965   18.7029 N   0  0  0  0  0  0  0  0  0  0  0  0
    8.8772  -13.5362   17.6216 C   0  0  0  0  0  0  0  0  0  0  0  0
    7.6946  -12.6593   17.9260 C   0  0  0  0  0  0  0  0  0  0  0  0
    7.4153  -12.8232   19.4184 C   0  0  0  0  0  0  0  0  0  0  0  0
    8.5535  -13.6908   19.8459 C   0  0  1  0  0  0  0  0  0  0  0  0
    8.2974  -14.4876   21.0601 C   0  0  0  0  0  0  0  0  0  0  0  0
    7.9681  -13.9580   22.1578 O   0  0  0  0  0  0  0  0  0  0  0  0
    9.4652  -18.6146   21.2704 O   0  0  0  0  0  0  0  0  0  0  0  0
    8.2901  -18.2189   21.8901 C   0  0  0  0  0  0  0  0  0  0  0  0
    8.2788  -16.7449   22.1879 C   0  0  2  0  0  0  0  0  0  0  0  0
    8.4136  -15.9094   21.0415 N   0  0  0  0  0  0  0  0  0  0  0  0
    9.2470  -16.3939   23.2695 C   0  0  0  0  0  0  0  0  0  0  0  0
   10.3055  -15.7895   22.9764 O   0  0  0  0  0  0  0  0  0  0  0  0
    9.0221  -16.7153   24.6242 N   0  0  0  0  0  0  0  0  0  0  0  0
   10.0406  -16.5297   25.6708 C   0  0  1  0  0  0  0  0  0  0  0  0
    9.2855  -15.8975   26.8316 C   0  0  0  0  0  0  0  0  0  0  0  0
    8.0112  -15.3078   26.4694 C   0  0  0  0  0  0  0  0  0  0  0  0
    6.8917  -15.9892   26.0479 C   0  0  0  0  0  0  0  0  0  0  0  0
    5.9113  -15.0822   25.8078 N   0  0  0  0  0  0  0  0  0  0  0  0
    6.3476  -13.8345   26.0563 C   0  0  0  0  0  0  0  0  0  0  0  0
    5.7456  -12.5985   25.9662 C   0  0  0  0  0  0  0  0  0  0  0  0
    6.4696  -11.4769   26.2965 C   0  0  0  0  0  0  0  0  0  0  0  0
    7.7868  -11.5790   26.7150 C   0  0  0  0  0  0  0  0  0  0  0  0
    8.3564  -12.8111   26.7948 C   0  0  0  0  0  0  0  0  0  0  0  0
    7.6771  -13.9738   26.4755 C   0  0  0  0  0  0  0  0  0  0  0  0
   10.4720  -17.8777   26.1168 C   0  0  0  0  0  0  0  0  0  0  0  0
    9.8580  -18.9176   25.7689 O   0  0  0  0  0  0  0  0  0  0  0  0
   11.5740  -18.0515   26.9388 O   0  0  0  0  0  0  0  0  0  0  0  0
  1  2  1  0
  2  3  1  0
  4  3  1  0
  5  1  1  0
  5  4  1  0
  5  6  1  1
  6 11  1  0
  7  6  2  0
  9  8  1  0
 10 12  1  0
 10  9  1  6
 11 10  1  0
 12 14  1  0
 13 12  2  0
 14 15  1  0
 15 26  1  0
 15 16  1  1
 17 16  1  0
 18 17  2  0
 19 20  1  0
 19 18  1  0
 20 25  2  0
 21 22  2  0
 21 20  1  0
 22 23  1  0
 23 24  2  0
 25 17  1  0
 25 24  1  0
 26 27  2  0
 26 28  1  0
M  END
$$$$
