PSW.pdb
     RDKit          3D

 28 30  0  0  1  0  0  0  0  0999 V2000
    7.4887  -14.5261   18.6357 N   0  0  0  0  0  0  0  0  0  0  0  0
    7.2787  -13.1781   18.1560 C   0  0  0  0  0  0  0  0  0  0  0  0
    7.0701  -12.3916   19.4201 C   0  0  0  0  0  0  0  0  0  0  0  0
    7.7071  -13.2100   20.5411 C   0  0  0  0  0  0  0  0  0  0  0  0
    8.3295  -14.3339   19.7794 C   0  0  1  0  0  0  0  0  0  0  0  0
    8.5316  -15.5687   20.5601 C   0  0  0  0  0  0  0  0  0  0  0  0
    8.3169  -16.7152   20.0769 O   0  0  0  0  0  0  0  0  0  0  0  0
   10.6501  -18.6952   22.6923 O   0  0  0  0  0  0  0  0  0  0  0  0
   10.3143  -17.5887   21.9278 C   0  0  0  0  0  0  0  0  0  0  0  0
    9.4037  -16.6480   22.6676 C   0  0  2  0  0  0  0  0  0  0  0  0
    8.9843  -15.5151   21.9119 N   0  0  0  0  0  0  0  0  0  0  0  0
    9.9644  -16.2721   23.9999 C   0  0  0  0  0  0  0  0  0  0  0  0
   10.8964  -15.4362   24.0624 O   0  0  0  0  0  0  0  0  0  0  0  0
    9.4866  -16.8219   25.2077 N   0  0  0  0  0  0  0  0  0  0  0  0
   10.0539  -16.4801   26.5224 C   0  0  1  0  0  0  0  0  0  0  0  0
    8.8417  -16.2510   27.4143 C   0  0  0  0  0  0  0  0  0  0  0  0
    7.8035  -15.4326   26.8183 C   0  0  0  0  0  0  0  0  0  0  0  0
    6.7078  -15.8909   26.1221 C   0  0  0  0  0  0  0  0  0  0  0  0
    5.9786  -14.8163   25.7284 N   0  0  0  0  0  0  0  0  0  0  0  0
    6.5560  -13.6738   26.1408 C   0  0  0  0  0  0  0  0  0  0  0  0
    6.2124  -12.3475   25.9958 C   0  0  0  0  0  0  0  0  0  0  0  0
    7.0254  -11.3827   26.5431 C   0  0  0  0  0  0  0  0  0  0  0  0
    8.1762  -11.7307   27.2325 C   0  0  0  0  0  0  0  0  0  0  0  0
    8.4917  -13.0470   27.3607 C   0  0  0  0  0  0  0  0  0  0  0  0
    7.7120  -14.0605   26.8314 C   0  0  0  0  0  0  0  0  0  0  0  0
   10.7480  -17.6871   27.0357 C   0  0  0  0  0  0  0  0  0  0  0  0
   10.6844  -18.7911   26.4383 O   0  0  0  0  0  0  0  0  0  0  0  0
   11.4995  -17.6520   28.1994 O   0  0  0  0  0  0  0  0  0  0  0  0
  1  2  1  0
  2  3  1  0
  4  3  1  0
  5  1  1  0
  5  4  1  0
  5  6  1  1
  6 11  1  0
  7  6  2  0
  9  8  1  0
 10 12  1  0
 10  9  1  6
 11 10  1  0
 12 14  1  0
 13 12  2  0
 14 15  1  0
 15 26  1  0
 15 16  1  1
 17 16  1  0
 18 17  2  0
 19 20  1  0
 19 18  1  0
 20 25  2  0
 21 22  2  0
 21 20  1  0
 22 23  1  0
 23 24  2  0
 25 17  1  0
 25 24  1  0
 26 27  2  0
 26 28  1  0
M  END
$$$$
