PSW.pdb
     RDKit          3D

 28 30  0  0  1  0  0  0  0  0999 V2000
    6.8470  -16.9551   22.2128 N   0  0  0  0  0  0  0  0  0  0  0  0
    5.5922  -16.7758   21.5166 C   0  0  0  0  0  0  0  0  0  0  0  0
    6.0212  -16.4429   20.1147 C   0  0  0  0  0  0  0  0  0  0  0  0
    7.4420  -16.9823   19.9644 C   0  0  0  0  0  0  0  0  0  0  0  0
    7.6387  -17.6846   21.2678 C   0  0  1  0  0  0  0  0  0  0  0  0
    9.0464  -17.8269   21.6837 C   0  0  0  0  0  0  0  0  0  0  0  0
    9.6342  -18.9440   21.7045 O   0  0  0  0  0  0  0  0  0  0  0  0
   11.4543  -14.3841   22.0933 O   0  0  0  0  0  0  0  0  0  0  0  0
   12.0264  -15.6312   21.8959 C   0  0  0  0  0  0  0  0  0  0  0  0
   11.1819  -16.7357   22.4688 C   0  0  2  0  0  0  0  0  0  0  0  0
    9.8105  -16.6908   22.0847 N   0  0  0  0  0  0  0  0  0  0  0  0
   11.3591  -16.8546   23.9470 C   0  0  0  0  0  0  0  0  0  0  0  0
   12.5152  -16.9392   24.4240 O   0  0  0  0  0  0  0  0  0  0  0  0
   10.2703  -16.8760   24.8434 N   0  0  0  0  0  0  0  0  0  0  0  0
   10.4361  -16.9920   26.3015 C   0  0  1  0  0  0  0  0  0  0  0  0
    9.8386  -15.7072   26.8579 C   0  0  0  0  0  0  0  0  0  0  0  0
    8.5326  -15.3718   26.3244 C   0  0  0  0  0  0  0  0  0  0  0  0
    7.6163  -16.2576   25.8039 C   0  0  0  0  0  0  0  0  0  0  0  0
    6.5242  -15.5535   25.4125 N   0  0  0  0  0  0  0  0  0  0  0  0
    6.6922  -14.2417   25.6575 C   0  0  0  0  0  0  0  0  0  0  0  0
    5.8910  -13.1412   25.4456 C   0  0  0  0  0  0  0  0  0  0  0  0
    6.3525  -11.8982   25.8107 C   0  0  0  0  0  0  0  0  0  0  0  0
    7.6048  -11.7455   26.3844 C   0  0  0  0  0  0  0  0  0  0  0  0
    8.3749  -12.8485   26.5823 C   0  0  0  0  0  0  0  0  0  0  0  0
    7.9631  -14.1232   26.2351 C   0  0  0  0  0  0  0  0  0  0  0  0
    9.5714  -18.1070   26.7610 C   0  0  0  0  0  0  0  0  0  0  0  0
    8.7411  -18.6590   25.9958 O   0  0  0  0  0  0  0  0  0  0  0  0
    9.6400  -18.5914   28.0575 O   0  0  0  0  0  0  0  0  0  0  0  0
  1  2  1  0
  2  3  1  0
  4  3  1  0
  5  1  1  0
  5  4  1  0
  5  6  1  1
  6 11  1  0
  7  6  2  0
  9  8  1  0
 10 12  1  0
 10  9  1  1
 11 10  1  0
 12 14  1  0
 13 12  2  0
 14 15  1  0
 15 26  1  0
 15 16  1  1
 17 16  1  0
 18 17  2  0
 19 20  1  0
 19 18  1  0
 20 25  2  0
 21 22  2  0
 21 20  1  0
 22 23  1  0
 23 24  2  0
 25 17  1  0
 25 24  1  0
 26 27  2  0
 26 28  1  0
M  END
$$$$
