PSW.pdb
     RDKit          3D

 28 30  0  0  1  0  0  0  0  0999 V2000
    9.3531  -14.2744   19.0723 N   0  0  0  0  0  0  0  0  0  0  0  0
    9.1889  -13.2285   18.0871 C   0  0  0  0  0  0  0  0  0  0  0  0
    7.7411  -12.8486   18.2267 C   0  0  0  0  0  0  0  0  0  0  0  0
    7.3156  -13.2969   19.6233 C   0  0  0  0  0  0  0  0  0  0  0  0
    8.6085  -13.7819   20.1925 C   0  0  1  0  0  0  0  0  0  0  0  0
    8.4706  -14.7749   21.2742 C   0  0  0  0  0  0  0  0  0  0  0  0
    7.7962  -14.5475   22.3169 O   0  0  0  0  0  0  0  0  0  0  0  0
   11.0699  -18.1696   21.3984 O   0  0  0  0  0  0  0  0  0  0  0  0
    9.7732  -18.3209   21.8645 C   0  0  0  0  0  0  0  0  0  0  0  0
    9.1524  -17.0039   22.2406 C   0  0  2  0  0  0  0  0  0  0  0  0
    9.1033  -16.0503   21.1830 N   0  0  0  0  0  0  0  0  0  0  0  0
    9.7566  -16.4459   23.4873 C   0  0  0  0  0  0  0  0  0  0  0  0
   10.6098  -15.5315   23.4024 O   0  0  0  0  0  0  0  0  0  0  0  0
    9.4064  -16.9068   24.7735 N   0  0  0  0  0  0  0  0  0  0  0  0
   10.0376  -16.4022   26.0040 C   0  0  1  0  0  0  0  0  0  0  0  0
    8.9007  -16.3258   27.0134 C   0  0  0  0  0  0  0  0  0  0  0  0
    7.7687  -15.5276   26.5841 C   0  0  0  0  0  0  0  0  0  0  0  0
    6.5971  -16.0059   26.0420 C   0  0  0  0  0  0  0  0  0  0  0  0
    5.7931  -14.9461   25.7736 N   0  0  0  0  0  0  0  0  0  0  0  0
    6.3948  -13.7941   26.1196 C   0  0  0  0  0  0  0  0  0  0  0  0
    6.0014  -12.4757   26.0472 C   0  0  0  0  0  0  0  0  0  0  0  0
    6.8597  -11.4968   26.4904 C   0  0  0  0  0  0  0  0  0  0  0  0
    8.1049  -11.8230   27.0043 C   0  0  0  0  0  0  0  0  0  0  0  0
    8.4677  -13.1319   27.0643 C   0  0  0  0  0  0  0  0  0  0  0  0
    7.6461  -14.1588   26.6333 C   0  0  0  0  0  0  0  0  0  0  0  0
   10.9750  -17.4473   26.4847 C   0  0  0  0  0  0  0  0  0  0  0  0
   11.0206  -18.5877   25.9587 O   0  0  0  0  0  0  0  0  0  0  0  0
   11.8446  -17.2128   27.5379 O   0  0  0  0  0  0  0  0  0  0  0  0
  1  2  1  0
  2  3  1  0
  4  3  1  0
  5  1  1  0
  5  4  1  0
  5  6  1  1
  6 11  1  0
  7  6  2  0
  9  8  1  0
 10 12  1  0
 10  9  1  6
 11 10  1  0
 12 14  1  0
 13 12  2  0
 14 15  1  0
 15 26  1  0
 15 16  1  1
 17 16  1  0
 18 17  2  0
 19 20  1  0
 19 18  1  0
 20 25  2  0
 21 22  2  0
 21 20  1  0
 22 23  1  0
 23 24  2  0
 25 17  1  0
 25 24  1  0
 26 27  2  0
 26 28  1  0
M  END
$$$$
