PSW.pdb
     RDKit          3D

 28 30  0  0  1  0  0  0  0  0999 V2000
    9.0944  -14.4181   18.8889 N   0  0  0  0  0  0  0  0  0  0  0  0
    8.9170  -13.3812   17.8965 C   0  0  0  0  0  0  0  0  0  0  0  0
    7.5588  -12.8240   18.2201 C   0  0  0  0  0  0  0  0  0  0  0  0
    7.2856  -13.1869   19.6782 C   0  0  0  0  0  0  0  0  0  0  0  0
    8.5796  -13.8143   20.0816 C   0  0  1  0  0  0  0  0  0  0  0  0
    8.4799  -14.7596   21.2091 C   0  0  0  0  0  0  0  0  0  0  0  0
    7.9734  -14.4350   22.3190 O   0  0  0  0  0  0  0  0  0  0  0  0
   10.7554  -18.3694   21.2432 O   0  0  0  0  0  0  0  0  0  0  0  0
    9.4684  -18.4137   21.7562 C   0  0  0  0  0  0  0  0  0  0  0  0
    8.9707  -17.0498   22.1481 C   0  0  2  0  0  0  0  0  0  0  0  0
    8.9591  -16.0979   21.0878 N   0  0  0  0  0  0  0  0  0  0  0  0
    9.6644  -16.5397   23.3683 C   0  0  0  0  0  0  0  0  0  0  0  0
   10.6028  -15.7178   23.2451 O   0  0  0  0  0  0  0  0  0  0  0  0
    9.3072  -16.9457   24.6710 N   0  0  0  0  0  0  0  0  0  0  0  0
    9.9733  -16.4337   25.8799 C   0  0  1  0  0  0  0  0  0  0  0  0
    8.8532  -16.2852   26.9000 C   0  0  0  0  0  0  0  0  0  0  0  0
    7.7170  -15.5126   26.4364 C   0  0  0  0  0  0  0  0  0  0  0  0
    6.5525  -16.0198   25.9053 C   0  0  0  0  0  0  0  0  0  0  0  0
    5.7412  -14.9772   25.5950 N   0  0  0  0  0  0  0  0  0  0  0  0
    6.3312  -13.8085   25.9031 C   0  0  0  0  0  0  0  0  0  0  0  0
    5.9272  -12.4969   25.7816 C   0  0  0  0  0  0  0  0  0  0  0  0
    6.7747  -11.4956   26.1944 C   0  0  0  0  0  0  0  0  0  0  0  0
    8.0196  -11.7926   26.7263 C   0  0  0  0  0  0  0  0  0  0  0  0
    8.3930  -13.0954   26.8348 C   0  0  0  0  0  0  0  0  0  0  0  0
    7.5826  -14.1439   26.4362 C   0  0  0  0  0  0  0  0  0  0  0  0
   10.8748  -17.5019   26.3781 C   0  0  0  0  0  0  0  0  0  0  0  0
   10.9028  -18.6428   25.8518 O   0  0  0  0  0  0  0  0  0  0  0  0
   11.7287  -17.2896   27.4487 O   0  0  0  0  0  0  0  0  0  0  0  0
  1  2  1  0
  2  3  1  0
  4  3  1  0
  5  1  1  0
  5  4  1  0
  5  6  1  1
  6 11  1  0
  7  6  2  0
  9  8  1  0
 10 12  1  0
 10  9  1  6
 11 10  1  0
 12 14  1  0
 13 12  2  0
 14 15  1  0
 15 26  1  0
 15 16  1  1
 17 16  1  0
 18 17  2  0
 19 20  1  0
 19 18  1  0
 20 25  2  0
 21 22  2  0
 21 20  1  0
 22 23  1  0
 23 24  2  0
 25 17  1  0
 25 24  1  0
 26 27  2  0
 26 28  1  0
M  END
$$$$
