PSW.pdb
     RDKit          3D

 28 30  0  0  1  0  0  0  0  0999 V2000
    8.6003  -14.5581   18.6902 N   0  0  0  0  0  0  0  0  0  0  0  0
    8.4671  -13.6063   17.6095 C   0  0  0  0  0  0  0  0  0  0  0  0
    7.4725  -12.6145   18.1453 C   0  0  0  0  0  0  0  0  0  0  0  0
    7.5161  -12.7463   19.6661 C   0  0  0  0  0  0  0  0  0  0  0  0
    8.6306  -13.7228   19.8535 C   0  0  1  0  0  0  0  0  0  0  0  0
    8.5736  -14.4873   21.1134 C   0  0  0  0  0  0  0  0  0  0  0  0
    8.5541  -13.9250   22.2436 O   0  0  0  0  0  0  0  0  0  0  0  0
    9.5235  -18.6653   21.3920 O   0  0  0  0  0  0  0  0  0  0  0  0
    8.3652  -18.2029   21.9972 C   0  0  0  0  0  0  0  0  0  0  0  0
    8.4232  -16.7251   22.2696 C   0  0  2  0  0  0  0  0  0  0  0  0
    8.5375  -15.9135   21.1041 N   0  0  0  0  0  0  0  0  0  0  0  0
    9.4518  -16.3949   23.3007 C   0  0  0  0  0  0  0  0  0  0  0  0
   10.5812  -15.9907   22.9367 O   0  0  0  0  0  0  0  0  0  0  0  0
    9.2076  -16.5183   24.6844 N   0  0  0  0  0  0  0  0  0  0  0  0
   10.2535  -16.3256   25.7022 C   0  0  1  0  0  0  0  0  0  0  0  0
    9.5971  -15.4561   26.7654 C   0  0  0  0  0  0  0  0  0  0  0  0
    8.2623  -15.0003   26.4287 C   0  0  0  0  0  0  0  0  0  0  0  0
    7.1759  -15.8006   26.1554 C   0  0  0  0  0  0  0  0  0  0  0  0
    6.1163  -14.9963   25.8874 N   0  0  0  0  0  0  0  0  0  0  0  0
    6.4690  -13.7014   25.9752 C   0  0  0  0  0  0  0  0  0  0  0  0
    5.7693  -12.5280   25.7968 C   0  0  0  0  0  0  0  0  0  0  0  0
    6.4228  -11.3289   25.9599 C   0  0  0  0  0  0  0  0  0  0  0  0
    7.7661  -11.2921   26.2987 C   0  0  0  0  0  0  0  0  0  0  0  0
    8.4325  -12.4649   26.4687 C   0  0  0  0  0  0  0  0  0  0  0  0
    7.8274  -13.7004   26.3179 C   0  0  0  0  0  0  0  0  0  0  0  0
   10.5181  -17.6463   26.3248 C   0  0  0  0  0  0  0  0  0  0  0  0
   11.4178  -17.8023   27.1883 O   0  0  0  0  0  0  0  0  0  0  0  0
    9.7837  -18.7702   25.9817 O   0  0  0  0  0  0  0  0  0  0  0  0
  1  2  1  0
  2  3  1  0
  4  3  1  0
  5  1  1  0
  5  4  1  0
  5  6  1  1
  6 11  1  0
  7  6  2  0
  9  8  1  0
 10 12  1  0
 10  9  1  6
 11 10  1  0
 12 14  1  0
 13 12  2  0
 14 15  1  0
 15 26  1  0
 15 16  1  1
 17 16  1  0
 18 17  2  0
 19 20  1  0
 19 18  1  0
 20 25  2  0
 21 22  2  0
 21 20  1  0
 22 23  1  0
 23 24  2  0
 25 17  1  0
 25 24  1  0
 26 27  2  0
 26 28  1  0
M  END
$$$$
