PSW.pdb
     RDKit          3D

 28 30  0  0  1  0  0  0  0  0999 V2000
    9.3640  -14.3495   18.7839 N   0  0  0  0  0  0  0  0  0  0  0  0
    9.2369  -13.3246   17.7715 C   0  0  0  0  0  0  0  0  0  0  0  0
    7.8130  -12.8667   17.9224 C   0  0  0  0  0  0  0  0  0  0  0  0
    7.3888  -13.2529   19.3376 C   0  0  0  0  0  0  0  0  0  0  0  0
    8.6646  -13.7878   19.9008 C   0  0  1  0  0  0  0  0  0  0  0  0
    8.4942  -14.7415   21.0127 C   0  0  0  0  0  0  0  0  0  0  0  0
    7.8533  -14.4490   22.0603 O   0  0  0  0  0  0  0  0  0  0  0  0
   10.9196  -18.2727   21.2367 O   0  0  0  0  0  0  0  0  0  0  0  0
    9.6068  -18.3389   21.6768 C   0  0  0  0  0  0  0  0  0  0  0  0
    9.0604  -16.9820   22.0260 C   0  0  2  0  0  0  0  0  0  0  0  0
    9.0554  -16.0515   20.9469 N   0  0  0  0  0  0  0  0  0  0  0  0
    9.7025  -16.4293   23.2560 C   0  0  0  0  0  0  0  0  0  0  0  0
   10.5883  -15.5492   23.1460 O   0  0  0  0  0  0  0  0  0  0  0  0
    9.3531  -16.8579   24.5535 N   0  0  0  0  0  0  0  0  0  0  0  0
    9.9710  -16.3085   25.7715 C   0  0  1  0  0  0  0  0  0  0  0  0
    8.8533  -16.3177   26.8049 C   0  0  0  0  0  0  0  0  0  0  0  0
    7.6986  -15.5163   26.4482 C   0  0  0  0  0  0  0  0  0  0  0  0
    6.4932  -15.9913   25.9825 C   0  0  0  0  0  0  0  0  0  0  0  0
    5.6770  -14.9291   25.7651 N   0  0  0  0  0  0  0  0  0  0  0  0
    6.3032  -13.7788   26.0709 C   0  0  0  0  0  0  0  0  0  0  0  0
    5.9100  -12.4592   26.0225 C   0  0  0  0  0  0  0  0  0  0  0  0
    6.7980  -11.4827   26.4091 C   0  0  0  0  0  0  0  0  0  0  0  0
    8.0724  -11.8124   26.8426 C   0  0  0  0  0  0  0  0  0  0  0  0
    8.4343  -13.1225   26.8805 C   0  0  0  0  0  0  0  0  0  0  0  0
    7.5836  -14.1470   26.5039 C   0  0  0  0  0  0  0  0  0  0  0  0
   10.9936  -17.2812   26.2300 C   0  0  0  0  0  0  0  0  0  0  0  0
   11.1182  -18.4117   25.6952 O   0  0  0  0  0  0  0  0  0  0  0  0
   11.8596  -16.9867   27.2710 O   0  0  0  0  0  0  0  0  0  0  0  0
  1  2  1  0
  2  3  1  0
  4  3  1  0
  5  1  1  0
  5  4  1  0
  5  6  1  1
  6 11  1  0
  7  6  2  0
  9  8  1  0
 10 12  1  0
 10  9  1  6
 11 10  1  0
 12 14  1  0
 13 12  2  0
 14 15  1  0
 15 26  1  0
 15 16  1  1
 17 16  1  0
 18 17  2  0
 19 20  1  0
 19 18  1  0
 20 25  2  0
 21 22  2  0
 21 20  1  0
 22 23  1  0
 23 24  2  0
 25 17  1  0
 25 24  1  0
 26 27  2  0
 26 28  1  0
M  END
$$$$
