PSW.pdb
     RDKit          3D

 28 30  0  0  1  0  0  0  0  0999 V2000
    8.6012  -14.5409   18.4082 N   0  0  0  0  0  0  0  0  0  0  0  0
    8.3465  -13.5398   17.3961 C   0  0  0  0  0  0  0  0  0  0  0  0
    7.1651  -12.7891   17.9444 C   0  0  0  0  0  0  0  0  0  0  0  0
    7.1629  -13.0396   19.4509 C   0  0  0  0  0  0  0  0  0  0  0  0
    8.4265  -13.8152   19.6308 C   0  0  1  0  0  0  0  0  0  0  0  0
    8.4521  -14.6817   20.8239 C   0  0  0  0  0  0  0  0  0  0  0  0
    8.3278  -14.2231   21.9936 O   0  0  0  0  0  0  0  0  0  0  0  0
   10.0480  -18.6617   20.9084 O   0  0  0  0  0  0  0  0  0  0  0  0
    8.7717  -18.4488   21.4055 C   0  0  0  0  0  0  0  0  0  0  0  0
    8.5484  -17.0116   21.7879 C   0  0  2  0  0  0  0  0  0  0  0  0
    8.6208  -16.0930   20.7010 N   0  0  0  0  0  0  0  0  0  0  0  0
    9.4108  -16.6072   22.9382 C   0  0  0  0  0  0  0  0  0  0  0  0
   10.3877  -15.8475   22.7384 O   0  0  0  0  0  0  0  0  0  0  0  0
    9.1732  -17.0466   24.2572 N   0  0  0  0  0  0  0  0  0  0  0  0
   10.0708  -16.7301   25.3803 C   0  0  1  0  0  0  0  0  0  0  0  0
    9.8369  -15.2506   25.6517 C   0  0  0  0  0  0  0  0  0  0  0  0
    8.4437  -14.8825   25.8139 C   0  0  0  0  0  0  0  0  0  0  0  0
    7.3652  -15.7353   25.7445 C   0  0  0  0  0  0  0  0  0  0  0  0
    6.2382  -15.0076   25.9489 N   0  0  0  0  0  0  0  0  0  0  0  0
    6.5393  -13.7121   26.1491 C   0  0  0  0  0  0  0  0  0  0  0  0
    5.7645  -12.5994   26.3935 C   0  0  0  0  0  0  0  0  0  0  0  0
    6.3791  -11.3801   26.5577 C   0  0  0  0  0  0  0  0  0  0  0  0
    7.7579  -11.2631   26.4800 C   0  0  0  0  0  0  0  0  0  0  0  0
    8.4984  -12.3773   26.2377 C   0  0  0  0  0  0  0  0  0  0  0  0
    7.9353  -13.6295   26.0643 C   0  0  0  0  0  0  0  0  0  0  0  0
    9.5780  -17.4720   26.5672 C   0  0  0  0  0  0  0  0  0  0  0  0
    8.5550  -18.2001   26.5145 O   0  0  0  0  0  0  0  0  0  0  0  0
   10.2247  -17.3955   27.7904 O   0  0  0  0  0  0  0  0  0  0  0  0
  1  2  1  0
  2  3  1  0
  4  3  1  0
  5  1  1  0
  5  4  1  0
  5  6  1  1
  6 11  1  0
  7  6  2  0
  9  8  1  0
 10 12  1  0
 10  9  1  6
 11 10  1  0
 12 14  1  0
 13 12  2  0
 14 15  1  0
 15 26  1  0
 15 16  1  1
 17 16  1  0
 18 17  2  0
 19 20  1  0
 19 18  1  0
 20 25  2  0
 21 22  2  0
 21 20  1  0
 22 23  1  0
 23 24  2  0
 25 17  1  0
 25 24  1  0
 26 27  2  0
 26 28  1  0
M  END
$$$$
