PSW.pdb
     RDKit          3D

 28 30  0  0  1  0  0  0  0  0999 V2000
    8.9188  -14.5731   18.4517 N   0  0  0  0  0  0  0  0  0  0  0  0
    8.8132  -13.5463   17.4388 C   0  0  0  0  0  0  0  0  0  0  0  0
    7.6116  -12.7552   17.8751 C   0  0  0  0  0  0  0  0  0  0  0  0
    7.4400  -13.0290   19.3676 C   0  0  0  0  0  0  0  0  0  0  0  0
    8.6452  -13.8600   19.6636 C   0  0  1  0  0  0  0  0  0  0  0  0
    8.5096  -14.7454   20.8351 C   0  0  0  0  0  0  0  0  0  0  0  0
    8.2809  -14.3006   21.9942 O   0  0  0  0  0  0  0  0  0  0  0  0
   10.0535  -18.7382   20.9021 O   0  0  0  0  0  0  0  0  0  0  0  0
    8.7784  -18.5188   21.3997 C   0  0  0  0  0  0  0  0  0  0  0  0
    8.5644  -17.0816   21.7873 C   0  0  2  0  0  0  0  0  0  0  0  0
    8.6333  -16.1605   20.7023 N   0  0  0  0  0  0  0  0  0  0  0  0
    9.4366  -16.6840   22.9325 C   0  0  0  0  0  0  0  0  0  0  0  0
   10.4514  -15.9798   22.7184 O   0  0  0  0  0  0  0  0  0  0  0  0
    9.1673  -17.0695   24.2622 N   0  0  0  0  0  0  0  0  0  0  0  0
   10.0460  -16.7203   25.3905 C   0  0  1  0  0  0  0  0  0  0  0  0
    9.7970  -15.2369   25.6245 C   0  0  0  0  0  0  0  0  0  0  0  0
    8.3974  -14.8714   25.7256 C   0  0  0  0  0  0  0  0  0  0  0  0
    7.3239  -15.7212   25.5821 C   0  0  0  0  0  0  0  0  0  0  0  0
    6.1879  -14.9974   25.7473 N   0  0  0  0  0  0  0  0  0  0  0  0
    6.4784  -13.7074   25.9931 C   0  0  0  0  0  0  0  0  0  0  0  0
    5.6921  -12.6001   26.2251 C   0  0  0  0  0  0  0  0  0  0  0  0
    6.2975  -11.3857   26.4489 C   0  0  0  0  0  0  0  0  0  0  0  0
    7.6784  -11.2682   26.4429 C   0  0  0  0  0  0  0  0  0  0  0  0
    8.4303  -12.3771   26.2114 C   0  0  0  0  0  0  0  0  0  0  0  0
    7.8768  -13.6242   25.9802 C   0  0  0  0  0  0  0  0  0  0  0  0
    9.5417  -17.4388   26.5870 C   0  0  0  0  0  0  0  0  0  0  0  0
    8.5044  -18.1471   26.5450 O   0  0  0  0  0  0  0  0  0  0  0  0
   10.1930  -17.3613   27.8077 O   0  0  0  0  0  0  0  0  0  0  0  0
  1  2  1  0
  2  3  1  0
  4  3  1  0
  5  1  1  0
  5  4  1  0
  5  6  1  1
  6 11  1  0
  7  6  2  0
  9  8  1  0
 10 12  1  0
 10  9  1  6
 11 10  1  0
 12 14  1  0
 13 12  2  0
 14 15  1  0
 15 26  1  0
 15 16  1  1
 17 16  1  0
 18 17  2  0
 19 20  1  0
 19 18  1  0
 20 25  2  0
 21 22  2  0
 21 20  1  0
 22 23  1  0
 23 24  2  0
 25 17  1  0
 25 24  1  0
 26 27  2  0
 26 28  1  0
M  END
$$$$
