PSW.pdb
     RDKit          3D

 28 30  0  0  1  0  0  0  0  0999 V2000
    8.9759  -14.7633   18.5579 N   0  0  0  0  0  0  0  0  0  0  0  0
    9.0113  -13.8724   17.4193 C   0  0  0  0  0  0  0  0  0  0  0  0
    7.8373  -12.9639   17.6566 C   0  0  0  0  0  0  0  0  0  0  0  0
    7.5421  -13.0313   19.1535 C   0  0  0  0  0  0  0  0  0  0  0  0
    8.6651  -13.8843   19.6455 C   0  0  1  0  0  0  0  0  0  0  0  0
    8.3876  -14.6009   20.9043 C   0  0  0  0  0  0  0  0  0  0  0  0
    8.0827  -13.9980   21.9707 O   0  0  0  0  0  0  0  0  0  0  0  0
    9.6168  -18.6790   21.4251 O   0  0  0  0  0  0  0  0  0  0  0  0
    8.4077  -18.2746   21.9690 C   0  0  0  0  0  0  0  0  0  0  0  0
    8.3490  -16.7850   22.1673 C   0  0  2  0  0  0  0  0  0  0  0  0
    8.4539  -16.0246   20.9668 N   0  0  0  0  0  0  0  0  0  0  0  0
    9.3078  -16.3309   23.2186 C   0  0  0  0  0  0  0  0  0  0  0  0
   10.4004  -15.8204   22.8767 O   0  0  0  0  0  0  0  0  0  0  0  0
    9.0365  -16.4516   24.5974 N   0  0  0  0  0  0  0  0  0  0  0  0
   10.0358  -16.1602   25.6384 C   0  0  1  0  0  0  0  0  0  0  0  0
    9.2186  -15.6795   26.8293 C   0  0  0  0  0  0  0  0  0  0  0  0
    7.9300  -15.1113   26.4836 C   0  0  0  0  0  0  0  0  0  0  0  0
    6.7950  -15.8158   26.1508 C   0  0  0  0  0  0  0  0  0  0  0  0
    5.8047  -14.9238   25.8954 N   0  0  0  0  0  0  0  0  0  0  0  0
    6.2495  -13.6638   26.0486 C   0  0  0  0  0  0  0  0  0  0  0  0
    5.6430  -12.4349   25.9072 C   0  0  0  0  0  0  0  0  0  0  0  0
    6.3786  -11.2961   26.1380 C   0  0  0  0  0  0  0  0  0  0  0  0
    7.7119  -11.3742   26.5079 C   0  0  0  0  0  0  0  0  0  0  0  0
    8.2855  -12.5998   26.6403 C   0  0  0  0  0  0  0  0  0  0  0  0
    7.5951  -13.7790   26.4212 C   0  0  0  0  0  0  0  0  0  0  0  0
   10.6585  -17.4486   26.0313 C   0  0  0  0  0  0  0  0  0  0  0  0
   10.2039  -18.5512   25.6350 O   0  0  0  0  0  0  0  0  0  0  0  0
   11.7719  -17.4948   26.8550 O   0  0  0  0  0  0  0  0  0  0  0  0
  1  2  1  0
  2  3  1  0
  4  3  1  0
  5  1  1  0
  5  4  1  0
  5  6  1  1
  6 11  1  0
  7  6  2  0
  9  8  1  0
 10 12  1  0
 10  9  1  6
 11 10  1  0
 12 14  1  0
 13 12  2  0
 14 15  1  0
 15 26  1  0
 15 16  1  1
 17 16  1  0
 18 17  2  0
 19 20  1  0
 19 18  1  0
 20 25  2  0
 21 22  2  0
 21 20  1  0
 22 23  1  0
 23 24  2  0
 25 17  1  0
 25 24  1  0
 26 27  2  0
 26 28  1  0
M  END
$$$$
