PSW.pdb
     RDKit          3D

 28 30  0  0  1  0  0  0  0  0999 V2000
    8.0985  -14.7494   18.4924 N   0  0  0  0  0  0  0  0  0  0  0  0
    8.1550  -13.6626   17.5399 C   0  0  0  0  0  0  0  0  0  0  0  0
    7.6287  -12.4918   18.3224 C   0  0  0  0  0  0  0  0  0  0  0  0
    7.8203  -12.8433   19.7961 C   0  0  0  0  0  0  0  0  0  0  0  0
    8.5566  -14.1396   19.7049 C   0  0  1  0  0  0  0  0  0  0  0  0
    8.4083  -15.0156   20.8821 C   0  0  0  0  0  0  0  0  0  0  0  0
    7.4368  -14.9126   21.6817 O   0  0  0  0  0  0  0  0  0  0  0  0
   10.9833  -18.4281   21.4741 O   0  0  0  0  0  0  0  0  0  0  0  0
    9.6862  -18.3416   21.9551 C   0  0  0  0  0  0  0  0  0  0  0  0
    9.2965  -16.9244   22.2731 C   0  0  2  0  0  0  0  0  0  0  0  0
    9.3714  -16.0287   21.1675 N   0  0  0  0  0  0  0  0  0  0  0  0
   10.0180  -16.4112   23.4759 C   0  0  0  0  0  0  0  0  0  0  0  0
   11.1205  -15.8323   23.3324 O   0  0  0  0  0  0  0  0  0  0  0  0
    9.5088  -16.5498   24.7839 N   0  0  0  0  0  0  0  0  0  0  0  0
   10.3353  -16.3667   25.9882 C   0  0  1  0  0  0  0  0  0  0  0  0
    9.7798  -15.1114   26.6462 C   0  0  0  0  0  0  0  0  0  0  0  0
    8.3813  -14.8532   26.3628 C   0  0  0  0  0  0  0  0  0  0  0  0
    7.4291  -15.7963   26.0477 C   0  0  0  0  0  0  0  0  0  0  0  0
    6.2486  -15.1556   25.8542 N   0  0  0  0  0  0  0  0  0  0  0  0
    6.3933  -13.8302   26.0308 C   0  0  0  0  0  0  0  0  0  0  0  0
    5.5118  -12.7745   25.9484 C   0  0  0  0  0  0  0  0  0  0  0  0
    5.9705  -11.5005   26.1887 C   0  0  0  0  0  0  0  0  0  0  0  0
    7.2993  -11.2724   26.5100 C   0  0  0  0  0  0  0  0  0  0  0  0
    8.1476  -12.3323   26.5846 C   0  0  0  0  0  0  0  0  0  0  0  0
    7.7427  -13.6353   26.3531 C   0  0  0  0  0  0  0  0  0  0  0  0
   10.0473  -17.4994   26.9027 C   0  0  0  0  0  0  0  0  0  0  0  0
   10.6171  -17.6112   28.0172 O   0  0  0  0  0  0  0  0  0  0  0  0
    9.1350  -18.4876   26.5685 O   0  0  0  0  0  0  0  0  0  0  0  0
  1  2  1  0
  2  3  1  0
  4  3  1  0
  5  1  1  0
  5  4  1  0
  5  6  1  1
  6 11  1  0
  7  6  2  0
  9  8  1  0
 10 12  1  0
 10  9  1  6
 11 10  1  0
 12 14  1  0
 13 12  2  0
 14 15  1  0
 15 26  1  0
 15 16  1  1
 17 16  1  0
 18 17  2  0
 19 20  1  0
 19 18  1  0
 20 25  2  0
 21 22  2  0
 21 20  1  0
 22 23  1  0
 23 24  2  0
 25 17  1  0
 25 24  1  0
 26 27  2  0
 26 28  1  0
M  END
$$$$
