PSW.pdb
     RDKit          3D

 28 30  0  0  1  0  0  0  0  0999 V2000
    9.1173  -14.9156   18.2685 N   0  0  0  0  0  0  0  0  0  0  0  0
    9.1453  -13.9815   17.1647 C   0  0  0  0  0  0  0  0  0  0  0  0
    7.9445  -13.1133   17.4182 C   0  0  0  0  0  0  0  0  0  0  0  0
    7.6300  -13.2449   18.9068 C   0  0  0  0  0  0  0  0  0  0  0  0
    8.7681  -14.0867   19.3834 C   0  0  1  0  0  0  0  0  0  0  0  0
    8.4918  -14.8574   20.6101 C   0  0  0  0  0  0  0  0  0  0  0  0
    8.1419  -14.3046   21.6898 O   0  0  0  0  0  0  0  0  0  0  0  0
    9.8091  -18.9455   21.0407 O   0  0  0  0  0  0  0  0  0  0  0  0
    8.5724  -18.5662   21.5390 C   0  0  0  0  0  0  0  0  0  0  0  0
    8.4973  -17.0860   21.7936 C   0  0  2  0  0  0  0  0  0  0  0  0
    8.6110  -16.2790   20.6247 N   0  0  0  0  0  0  0  0  0  0  0  0
    9.4377  -16.6643   22.8744 C   0  0  0  0  0  0  0  0  0  0  0  0
   10.5435  -16.1603   22.5668 O   0  0  0  0  0  0  0  0  0  0  0  0
    9.1347  -16.8090   24.2443 N   0  0  0  0  0  0  0  0  0  0  0  0
   10.1092  -16.5349   25.3130 C   0  0  1  0  0  0  0  0  0  0  0  0
    9.7791  -15.1238   25.7791 C   0  0  0  0  0  0  0  0  0  0  0  0
    8.3651  -14.8728   25.9798 C   0  0  0  0  0  0  0  0  0  0  0  0
    7.3566  -15.8073   25.9089 C   0  0  0  0  0  0  0  0  0  0  0  0
    6.1801  -15.1777   26.1563 N   0  0  0  0  0  0  0  0  0  0  0  0
    6.3817  -13.8679   26.3860 C   0  0  0  0  0  0  0  0  0  0  0  0
    5.5265  -12.8276   26.6769 C   0  0  0  0  0  0  0  0  0  0  0  0
    6.0457  -11.5676   26.8621 C   0  0  0  0  0  0  0  0  0  0  0  0
    7.4087  -11.3385   26.7595 C   0  0  0  0  0  0  0  0  0  0  0  0
    8.2299  -12.3831   26.4715 C   0  0  0  0  0  0  0  0  0  0  0  0
    7.7644  -13.6715   26.2750 C   0  0  0  0  0  0  0  0  0  0  0  0
    9.8012  -17.4476   26.4418 C   0  0  0  0  0  0  0  0  0  0  0  0
    8.7911  -18.1953   26.4313 O   0  0  0  0  0  0  0  0  0  0  0  0
   10.6150  -17.5173   27.5613 O   0  0  0  0  0  0  0  0  0  0  0  0
  1  2  1  0
  2  3  1  0
  4  3  1  0
  5  1  1  0
  5  4  1  0
  5  6  1  1
  6 11  1  0
  7  6  2  0
  9  8  1  0
 10 12  1  0
 10  9  1  6
 11 10  1  0
 12 14  1  0
 13 12  2  0
 14 15  1  0
 15 26  1  0
 15 16  1  1
 17 16  1  0
 18 17  2  0
 19 20  1  0
 19 18  1  0
 20 25  2  0
 21 22  2  0
 21 20  1  0
 22 23  1  0
 23 24  2  0
 25 17  1  0
 25 24  1  0
 26 27  2  0
 26 28  1  0
M  END
$$$$
