KFH.pdb
     RDKit          3D

 31 32  0  0  1  0  0  0  0  0999 V2000
   27.0712  -22.2487  -13.7667 N   0  0  0  0  0  0  0  0  0  0  0  0
   27.4984  -21.0613  -13.1123 C   0  0  1  0  0  0  0  0  0  0  0  0
   26.9014  -19.7799  -13.6795 C   0  0  0  0  0  0  0  0  0  0  0  0
   26.0257  -19.9671  -14.8679 C   0  0  0  0  0  0  0  0  0  0  0  0
   26.7038  -20.0223  -16.1908 C   0  0  0  0  0  0  0  0  0  0  0  0
   25.7198  -20.1138  -17.3467 C   0  0  0  0  0  0  0  0  0  0  0  0
   24.8221  -18.9772  -17.2998 N   0  0  0  0  0  0  0  0  0  0  0  0
   27.3328  -21.1509  -11.6659 C   0  0  0  0  0  0  0  0  0  0  0  0
   26.4484  -22.0016  -11.2610 O   0  0  0  0  0  0  0  0  0  0  0  0
   27.9730  -20.4661  -10.6341 N   0  0  0  0  0  0  0  0  0  0  0  0
   27.6964  -20.6961   -9.2173 C   0  0  1  0  0  0  0  0  0  0  0  0
   28.6622  -19.8388   -8.4304 C   0  0  0  0  0  0  0  0  0  0  0  0
   28.4866  -20.0033   -6.9647 C   0  0  0  0  0  0  0  0  0  0  0  0
   29.0485  -21.0695   -6.2965 C   0  0  0  0  0  0  0  0  0  0  0  0
   28.8820  -21.2130   -4.9365 C   0  0  0  0  0  0  0  0  0  0  0  0
   28.1389  -20.2575   -4.2801 C   0  0  0  0  0  0  0  0  0  0  0  0
   27.5679  -19.1772   -4.9504 C   0  0  0  0  0  0  0  0  0  0  0  0
   27.7372  -19.0372   -6.3117 C   0  0  0  0  0  0  0  0  0  0  0  0
   26.3306  -20.2841   -8.8466 C   0  0  0  0  0  0  0  0  0  0  0  0
   25.8845  -19.2327   -9.3713 O   0  0  0  0  0  0  0  0  0  0  0  0
   25.4971  -20.9952   -7.9418 N   0  0  0  0  0  0  0  0  0  0  0  0
   24.0659  -20.7565   -7.8538 C   0  0  1  0  0  0  0  0  0  0  0  0
   23.4126  -21.5562   -8.9531 C   0  0  0  0  0  0  0  0  0  0  0  0
   23.0138  -20.7622  -10.1219 C   0  0  0  0  0  0  0  0  0  0  0  0
   23.1811  -19.3940  -10.2508 C   0  0  0  0  0  0  0  0  0  0  0  0
   22.6838  -19.0749  -11.4609 N   0  0  0  0  0  0  0  0  0  0  0  0
   22.2343  -20.1959  -12.0427 C   0  0  0  0  0  0  0  0  0  0  0  0
   22.4236  -21.2495  -11.2431 N   0  0  0  0  0  0  0  0  0  0  0  0
   23.5449  -21.0711   -6.5042 C   0  0  0  0  0  0  0  0  0  0  0  0
   24.1353  -21.8261   -5.6889 O   0  0  0  0  0  0  0  0  0  0  0  0
   22.3452  -20.5224   -6.0806 O   0  0  0  0  0  0  0  0  0  0  0  0
  2  1  1  6
  3  2  1  0
  3  4  1  0
  5  4  1  0
  6  5  1  0
  7  6  1  0
  8  9  2  0
  8  2  1  0
 10  8  1  0
 11 10  1  0
 11 12  1  1
 12 13  1  0
 13 18  1  0
 13 14  2  0
 14 15  1  0
 15 16  2  0
 17 16  1  0
 18 17  2  0
 19 11  1  0
 20 19  2  0
 21 19  1  0
 22 29  1  0
 22 21  1  0
 22 23  1  6
 23 24  1  0
 24 28  1  0
 24 25  2  0
 25 26  1  0
 27 26  1  0
 28 27  2  0
 29 31  1  0
 30 29  2  0
M  END
$$$$
