KFH.pdb
     RDKit          3D

 31 32  0  0  1  0  0  0  0  0999 V2000
   28.3718  -22.9813  -17.1759 N   0  0  0  0  0  0  0  0  0  0  0  0
   27.8026  -21.7115  -16.8856 C   0  0  1  0  0  0  0  0  0  0  0  0
   26.9626  -21.1252  -18.0128 C   0  0  0  0  0  0  0  0  0  0  0  0
   27.6466  -21.0496  -19.3321 C   0  0  0  0  0  0  0  0  0  0  0  0
   28.3565  -22.2763  -19.7837 C   0  0  0  0  0  0  0  0  0  0  0  0
   29.3247  -22.0028  -20.9241 C   0  0  0  0  0  0  0  0  0  0  0  0
   28.5731  -21.7325  -22.1333 N   0  0  0  0  0  0  0  0  0  0  0  0
   27.0883  -21.7165  -15.6138 C   0  0  0  0  0  0  0  0  0  0  0  0
   25.9543  -22.3362  -15.6177 O   0  0  0  0  0  0  0  0  0  0  0  0
   27.4242  -21.1591  -14.3810 N   0  0  0  0  0  0  0  0  0  0  0  0
   26.5680  -21.2356  -13.1987 C   0  0  1  0  0  0  0  0  0  0  0  0
   27.3426  -20.6322  -12.0486 C   0  0  0  0  0  0  0  0  0  0  0  0
   26.5559  -20.6274  -10.7886 C   0  0  0  0  0  0  0  0  0  0  0  0
   25.8138  -21.7249  -10.4096 C   0  0  0  0  0  0  0  0  0  0  0  0
   25.0886  -21.7122   -9.2383 C   0  0  0  0  0  0  0  0  0  0  0  0
   25.1357  -20.5700   -8.4709 C   0  0  0  0  0  0  0  0  0  0  0  0
   25.8842  -19.4568   -8.8490 C   0  0  0  0  0  0  0  0  0  0  0  0
   26.6086  -19.4737  -10.0221 C   0  0  0  0  0  0  0  0  0  0  0  0
   25.3295  -20.4531  -13.3614 C   0  0  0  0  0  0  0  0  0  0  0  0
   25.4516  -19.2381  -13.6591 O   0  0  0  0  0  0  0  0  0  0  0  0
   24.0206  -20.9829  -13.2034 N   0  0  0  0  0  0  0  0  0  0  0  0
   22.8294  -20.1596  -13.3311 C   0  0  1  0  0  0  0  0  0  0  0  0
   22.5488  -20.0080  -14.8052 C   0  0  0  0  0  0  0  0  0  0  0  0
   21.3136  -19.2764  -15.1126 C   0  0  0  0  0  0  0  0  0  0  0  0
   20.4452  -18.7482  -14.1726 C   0  0  0  0  0  0  0  0  0  0  0  0
   19.4529  -18.1674  -14.8737 N   0  0  0  0  0  0  0  0  0  0  0  0
   19.7043  -18.3338  -16.1801 C   0  0  0  0  0  0  0  0  0  0  0  0
   20.8416  -19.0122  -16.3577 N   0  0  0  0  0  0  0  0  0  0  0  0
   21.6938  -20.7256  -12.5682 C   0  0  0  0  0  0  0  0  0  0  0  0
   21.4618  -21.9590  -12.4782 O   0  0  0  0  0  0  0  0  0  0  0  0
   20.8180  -19.8822  -11.9038 O   0  0  0  0  0  0  0  0  0  0  0  0
  2  1  1  6
  3  2  1  0
  3  4  1  0
  5  4  1  0
  6  5  1  0
  7  6  1  0
  8  9  2  0
  8  2  1  0
 10  8  1  0
 11 10  1  0
 11 12  1  1
 12 13  1  0
 13 18  1  0
 13 14  2  0
 14 15  1  0
 15 16  2  0
 17 16  1  0
 18 17  2  0
 19 11  1  0
 20 19  2  0
 21 19  1  0
 22 29  1  0
 22 21  1  0
 22 23  1  6
 23 24  1  0
 24 28  1  0
 24 25  2  0
 25 26  1  0
 27 26  1  0
 28 27  2  0
 29 31  1  0
 30 29  2  0
M  END
$$$$
