KVI.pdb
     RDKit          3D

 25 24  0  0  1  0  0  0  0  0999 V2000
    7.5769  -17.2999   18.4031 N   0  0  0  0  0  0  0  0  0  0  0  0
    8.2400  -16.2747   19.1856 C   0  0  1  0  0  0  0  0  0  0  0  0
    7.5211  -15.0011   19.0485 C   0  0  0  0  0  0  0  0  0  0  0  0
    7.4219  -14.2778   17.7874 C   0  0  0  0  0  0  0  0  0  0  0  0
    8.0348  -12.9789   17.5243 C   0  0  0  0  0  0  0  0  0  0  0  0
    8.8251  -12.8835   16.2636 C   0  0  0  0  0  0  0  0  0  0  0  0
    7.9881  -13.4327   15.1541 N   0  0  0  0  0  0  0  0  0  0  0  0
    8.1454  -16.6412   20.6596 C   0  0  0  0  0  0  0  0  0  0  0  0
    7.0928  -17.1226   21.0923 O   0  0  0  0  0  0  0  0  0  0  0  0
   11.6792  -17.4953   23.0299 C   0  0  0  0  0  0  0  0  0  0  0  0
   10.2496  -17.9522   23.2285 C   0  0  2  0  0  0  0  0  0  0  0  0
    9.9750  -19.2549   22.5034 C   0  0  0  0  0  0  0  0  0  0  0  0
    9.2496  -16.8868   22.9148 C   0  0  2  0  0  0  0  0  0  0  0  0
    9.2051  -16.4566   21.5553 N   0  0  0  0  0  0  0  0  0  0  0  0
    9.4616  -15.7597   23.8671 C   0  0  0  0  0  0  0  0  0  0  0  0
   10.4448  -14.9699   23.7519 O   0  0  0  0  0  0  0  0  0  0  0  0
    6.4148  -11.5240   26.7802 C   0  0  0  0  0  0  0  0  0  0  0  0
    7.6866  -12.3401   26.8011 C   0  0  0  0  0  0  0  0  0  0  0  0
    7.5079  -13.5104   25.8732 C   0  0  2  0  0  0  0  0  0  0  0  0
    6.4442  -14.4185   26.4430 C   0  0  0  0  0  0  0  0  0  0  0  0
    8.7919  -14.3546   25.8081 C   0  0  2  0  0  0  0  0  0  0  0  0
    8.5891  -15.4988   24.9504 N   0  0  0  0  0  0  0  0  0  0  0  0
    9.0191  -14.8434   27.1845 C   0  0  0  0  0  0  0  0  0  0  0  0
    8.7500  -16.0127   27.5609 O   0  0  0  0  0  0  0  0  0  0  0  0
    9.5561  -13.9773   28.1178 O   0  0  0  0  0  0  0  0  0  0  0  0
  2  1  1  6
  3  2  1  0
  4  3  1  0
  5  6  1  0
  5  4  1  0
  7  6  1  0
  8  2  1  0
  8  9  2  0
 11 10  1  6
 11 12  1  0
 13 14  1  6
 13 11  1  0
 14  8  1  0
 15 13  1  0
 16 15  2  0
 18 19  1  0
 18 17  1  0
 19 21  1  0
 19 20  1  1
 21 22  1  6
 22 15  1  0
 23 21  1  0
 23 25  1  0
 24 23  2  0
M  END
$$$$
