KVI.pdb
     RDKit          3D

 25 24  0  0  1  0  0  0  0  0999 V2000
    7.0518  -20.4340   23.1351 N   0  0  0  0  0  0  0  0  0  0  0  0
    6.7465  -19.1606   23.7582 C   0  0  1  0  0  0  0  0  0  0  0  0
    6.9743  -19.2481   25.2068 C   0  0  0  0  0  0  0  0  0  0  0  0
    7.1707  -20.5124   25.9040 C   0  0  0  0  0  0  0  0  0  0  0  0
    7.1952  -20.6654   27.3559 C   0  0  0  0  0  0  0  0  0  0  0  0
    7.3743  -22.0596   27.8533 C   0  0  0  0  0  0  0  0  0  0  0  0
    7.3278  -22.0241   29.3465 N   0  0  0  0  0  0  0  0  0  0  0  0
    7.7301  -18.1156   23.2518 C   0  0  0  0  0  0  0  0  0  0  0  0
    8.9342  -18.3912   23.2172 O   0  0  0  0  0  0  0  0  0  0  0  0
    6.6805  -13.7870   22.2846 C   0  0  0  0  0  0  0  0  0  0  0  0
    7.5546  -14.7542   21.5149 C   0  0  2  0  0  0  0  0  0  0  0  0
    6.8191  -15.3478   20.3296 C   0  0  0  0  0  0  0  0  0  0  0  0
    8.1862  -15.7891   22.3886 C   0  0  2  0  0  0  0  0  0  0  0  0
    7.3300  -16.8457   22.8196 N   0  0  0  0  0  0  0  0  0  0  0  0
    8.8525  -15.0903   23.5245 C   0  0  0  0  0  0  0  0  0  0  0  0
    9.7663  -14.2349   23.3327 O   0  0  0  0  0  0  0  0  0  0  0  0
    6.2006  -12.2687   26.6800 C   0  0  0  0  0  0  0  0  0  0  0  0
    7.3300  -12.8650   25.8719 C   0  0  0  0  0  0  0  0  0  0  0  0
    8.0800  -13.8263   26.7529 C   0  0  2  0  0  0  0  0  0  0  0  0
    8.8400  -13.0354   27.7910 C   0  0  0  0  0  0  0  0  0  0  0  0
    9.1421  -14.5905   25.9444 C   0  0  2  0  0  0  0  0  0  0  0  0
    8.5127  -15.3321   24.8768 N   0  0  0  0  0  0  0  0  0  0  0  0
    9.7427  -15.5575   26.8873 C   0  0  0  0  0  0  0  0  0  0  0  0
    9.4027  -16.7663   26.9549 O   0  0  0  0  0  0  0  0  0  0  0  0
   10.7329  -15.1213   27.7468 O   0  0  0  0  0  0  0  0  0  0  0  0
  2  1  1  6
  3  2  1  0
  4  3  1  0
  5  6  1  0
  5  4  1  0
  7  6  1  0
  8  2  1  0
  8  9  2  0
 11 10  1  1
 11 12  1  0
 13 14  1  1
 13 11  1  0
 14  8  1  0
 15 13  1  0
 16 15  2  0
 18 19  1  0
 18 17  1  0
 19 21  1  0
 19 20  1  1
 21 22  1  6
 22 15  1  0
 23 21  1  0
 23 25  1  0
 24 23  2  0
M  END
$$$$
