KVI.pdb
     RDKit          3D

 25 24  0  0  1  0  0  0  0  0999 V2000
   10.8062  -16.4623   19.8076 N   0  0  0  0  0  0  0  0  0  0  0  0
   10.0104  -17.1327   20.8178 C   0  0  1  0  0  0  0  0  0  0  0  0
   10.7004  -18.3485   21.2688 C   0  0  0  0  0  0  0  0  0  0  0  0
   10.6105  -19.6200   20.5627 C   0  0  0  0  0  0  0  0  0  0  0  0
    9.4344  -20.4854   20.5564 C   0  0  0  0  0  0  0  0  0  0  0  0
    9.5874  -21.7740   19.8222 C   0  0  0  0  0  0  0  0  0  0  0  0
   10.3805  -22.7023   20.6839 N   0  0  0  0  0  0  0  0  0  0  0  0
    9.9151  -16.2374   22.0447 C   0  0  0  0  0  0  0  0  0  0  0  0
   10.8972  -15.5636   22.3741 O   0  0  0  0  0  0  0  0  0  0  0  0
    7.1112  -14.0196   25.4932 C   0  0  0  0  0  0  0  0  0  0  0  0
    7.2053  -15.1260   24.4643 C   0  0  2  0  0  0  0  0  0  0  0  0
    6.4644  -16.3698   24.9141 C   0  0  0  0  0  0  0  0  0  0  0  0
    8.6099  -15.4050   24.0369 C   0  0  2  0  0  0  0  0  0  0  0  0
    8.7562  -16.1412   22.8237 N   0  0  0  0  0  0  0  0  0  0  0  0
    9.3240  -16.0378   25.1823 C   0  0  0  0  0  0  0  0  0  0  0  0
    9.6448  -17.2628   25.1688 O   0  0  0  0  0  0  0  0  0  0  0  0
   10.6023  -12.7051   29.3190 C   0  0  0  0  0  0  0  0  0  0  0  0
   11.0781  -13.7387   28.3243 C   0  0  0  0  0  0  0  0  0  0  0  0
   10.4241  -15.0504   28.6621 C   0  0  2  0  0  0  0  0  0  0  0  0
   11.2750  -15.7630   29.6863 C   0  0  0  0  0  0  0  0  0  0  0  0
   10.3852  -15.9723   27.4316 C   0  0  2  0  0  0  0  0  0  0  0  0
    9.6877  -15.3214   26.3473 N   0  0  0  0  0  0  0  0  0  0  0  0
    9.5993  -17.1547   27.8428 C   0  0  0  0  0  0  0  0  0  0  0  0
    8.3439  -17.1647   27.9160 O   0  0  0  0  0  0  0  0  0  0  0  0
   10.2694  -18.3189   28.1672 O   0  0  0  0  0  0  0  0  0  0  0  0
  2  1  1  6
  3  2  1  0
  4  3  1  0
  5  6  1  0
  5  4  1  0
  7  6  1  0
  8  2  1  0
  8  9  2  0
 11 10  1  1
 11 12  1  0
 13 14  1  6
 13 11  1  0
 14  8  1  0
 15 13  1  0
 16 15  2  0
 18 19  1  0
 18 17  1  0
 19 21  1  0
 19 20  1  1
 21 22  1  6
 22 15  1  0
 23 21  1  0
 23 25  1  0
 24 23  2  0
M  END
$$$$
