KVI.pdb
     RDKit          3D

 25 24  0  0  1  0  0  0  0  0999 V2000
   11.4372  -17.8066   19.0327 N   0  0  0  0  0  0  0  0  0  0  0  0
   10.1219  -17.8172   19.6435 C   0  0  1  0  0  0  0  0  0  0  0  0
    9.9408  -19.0549   20.4134 C   0  0  0  0  0  0  0  0  0  0  0  0
    9.0610  -20.1344   19.9845 C   0  0  0  0  0  0  0  0  0  0  0  0
    8.2540  -20.1147   18.7678 C   0  0  0  0  0  0  0  0  0  0  0  0
    7.4662  -21.3515   18.4978 C   0  0  0  0  0  0  0  0  0  0  0  0
    6.7187  -21.1501   17.2196 N   0  0  0  0  0  0  0  0  0  0  0  0
   10.0413  -16.6875   20.6601 C   0  0  0  0  0  0  0  0  0  0  0  0
   11.0628  -16.3557   21.2712 O   0  0  0  0  0  0  0  0  0  0  0  0
    7.3935  -13.4233   20.3531 C   0  0  0  0  0  0  0  0  0  0  0  0
    7.4595  -14.1046   21.7034 C   0  0  2  0  0  0  0  0  0  0  0  0
    7.2500  -13.1187   22.8358 C   0  0  0  0  0  0  0  0  0  0  0  0
    8.6875  -14.9389   21.8746 C   0  0  2  0  0  0  0  0  0  0  0  0
    8.8532  -16.0012   20.9369 N   0  0  0  0  0  0  0  0  0  0  0  0
    8.7331  -15.4087   23.2886 C   0  0  0  0  0  0  0  0  0  0  0  0
    8.1956  -16.4992   23.6430 O   0  0  0  0  0  0  0  0  0  0  0  0
    9.7282  -13.5018   29.0440 C   0  0  0  0  0  0  0  0  0  0  0  0
    9.7569  -14.6539   28.0663 C   0  0  0  0  0  0  0  0  0  0  0  0
    9.4706  -14.1107   26.6932 C   0  0  2  0  0  0  0  0  0  0  0  0
    8.0560  -13.5825   26.6696 C   0  0  0  0  0  0  0  0  0  0  0  0
    9.5189  -15.2331   25.6427 C   0  0  2  0  0  0  0  0  0  0  0  0
    9.3728  -14.6775   24.3176 N   0  0  0  0  0  0  0  0  0  0  0  0
    8.3447  -16.0881   25.9172 C   0  0  0  0  0  0  0  0  0  0  0  0
    8.3605  -17.0544   26.7217 O   0  0  0  0  0  0  0  0  0  0  0  0
    7.1590  -15.8208   25.2597 O   0  0  0  0  0  0  0  0  0  0  0  0
  2  1  1  1
  3  2  1  0
  4  3  1  0
  5  6  1  0
  5  4  1  0
  7  6  1  0
  8  2  1  0
  8  9  2  0
 11 10  1  6
 11 12  1  0
 13 14  1  6
 13 11  1  0
 14  8  1  0
 15 13  1  0
 16 15  2  0
 18 19  1  0
 18 17  1  0
 19 21  1  0
 19 20  1  1
 21 22  1  6
 22 15  1  0
 23 21  1  0
 23 25  1  0
 24 23  2  0
M  END
$$$$
