KVI.pdb
     RDKit          3D

 25 24  0  0  1  0  0  0  0  0999 V2000
   12.2202  -17.3552   19.6260 N   0  0  0  0  0  0  0  0  0  0  0  0
   11.0216  -17.7001   20.3659 C   0  0  1  0  0  0  0  0  0  0  0  0
   11.3433  -18.6928   21.3997 C   0  0  0  0  0  0  0  0  0  0  0  0
   12.4904  -19.5871   21.3113 C   0  0  0  0  0  0  0  0  0  0  0  0
   13.2606  -20.0660   22.4556 C   0  0  0  0  0  0  0  0  0  0  0  0
   13.1593  -21.5274   22.7334 C   0  0  0  0  0  0  0  0  0  0  0  0
   14.4771  -22.1501   22.4039 N   0  0  0  0  0  0  0  0  0  0  0  0
   10.5350  -16.4696   21.1176 C   0  0  0  0  0  0  0  0  0  0  0  0
   11.3647  -15.6584   21.5424 O   0  0  0  0  0  0  0  0  0  0  0  0
    6.2344  -15.5674   21.3923 C   0  0  0  0  0  0  0  0  0  0  0  0
    7.3484  -14.5475   21.2896 C   0  0  2  0  0  0  0  0  0  0  0  0
    7.5215  -14.0526   19.8672 C   0  0  0  0  0  0  0  0  0  0  0  0
    8.6267  -15.0185   21.9040 C   0  0  2  0  0  0  0  0  0  0  0  0
    9.1792  -16.2123   21.3519 N   0  0  0  0  0  0  0  0  0  0  0  0
    8.4251  -15.1075   23.3784 C   0  0  0  0  0  0  0  0  0  0  0  0
    8.7327  -16.1500   24.0283 O   0  0  0  0  0  0  0  0  0  0  0  0
    6.3821  -10.6459   26.1495 C   0  0  0  0  0  0  0  0  0  0  0  0
    7.4058  -11.7189   25.8583 C   0  0  0  0  0  0  0  0  0  0  0  0
    6.7550  -13.0580   26.0718 C   0  0  2  0  0  0  0  0  0  0  0  0
    6.6014  -13.2875   27.5565 C   0  0  0  0  0  0  0  0  0  0  0  0
    7.6611  -14.1913   25.5617 C   0  0  2  0  0  0  0  0  0  0  0  0
    7.8838  -14.0461   24.1421 N   0  0  0  0  0  0  0  0  0  0  0  0
    6.9030  -15.4404   25.7851 C   0  0  0  0  0  0  0  0  0  0  0  0
    5.8990  -15.7759   25.1064 O   0  0  0  0  0  0  0  0  0  0  0  0
    7.3102  -16.2945   26.7923 O   0  0  0  0  0  0  0  0  0  0  0  0
  2  1  1  1
  3  2  1  0
  4  3  1  0
  5  6  1  0
  5  4  1  0
  7  6  1  0
  8  2  1  0
  8  9  2  0
 11 10  1  6
 11 12  1  0
 13 14  1  6
 13 11  1  0
 14  8  1  0
 15 13  1  0
 16 15  2  0
 18 19  1  0
 18 17  1  0
 19 21  1  0
 19 20  1  1
 21 22  1  6
 22 15  1  0
 23 21  1  0
 23 25  1  0
 24 23  2  0
M  END
$$$$
