KVI.pdb
     RDKit          3D

 25 24  0  0  1  0  0  0  0  0999 V2000
    9.5686  -19.8910   21.1598 N   0  0  0  0  0  0  0  0  0  0  0  0
   10.1597  -18.5667   21.1658 C   0  0  1  0  0  0  0  0  0  0  0  0
    9.8179  -17.8635   19.9222 C   0  0  0  0  0  0  0  0  0  0  0  0
   10.3245  -18.2679   18.6172 C   0  0  0  0  0  0  0  0  0  0  0  0
   11.5924  -17.8246   18.0445 C   0  0  0  0  0  0  0  0  0  0  0  0
   11.8256  -18.2084   16.6227 C   0  0  0  0  0  0  0  0  0  0  0  0
   13.0673  -17.5188   16.1585 N   0  0  0  0  0  0  0  0  0  0  0  0
    9.5285  -17.7502   22.2842 C   0  0  0  0  0  0  0  0  0  0  0  0
    9.7163  -16.5292   22.3159 O   0  0  0  0  0  0  0  0  0  0  0  0
    7.6372  -19.6592   25.8224 C   0  0  0  0  0  0  0  0  0  0  0  0
    7.1294  -18.3925   25.1671 C   0  0  2  0  0  0  0  0  0  0  0  0
    5.8953  -18.6558   24.3270 C   0  0  0  0  0  0  0  0  0  0  0  0
    8.1955  -17.6543   24.4242 C   0  0  2  0  0  0  0  0  0  0  0  0
    8.7381  -18.3236   23.2871 N   0  0  0  0  0  0  0  0  0  0  0  0
    9.2423  -17.2455   25.4036 C   0  0  0  0  0  0  0  0  0  0  0  0
   10.3849  -17.7913   25.4198 O   0  0  0  0  0  0  0  0  0  0  0  0
    8.6588  -12.3212   27.6757 C   0  0  0  0  0  0  0  0  0  0  0  0
    9.4140  -13.4204   26.9647 C   0  0  0  0  0  0  0  0  0  0  0  0
    9.7103  -14.5066   27.9622 C   0  0  2  0  0  0  0  0  0  0  0  0
   10.9196  -14.1010   28.7707 C   0  0  0  0  0  0  0  0  0  0  0  0
   10.0999  -15.8112   27.2468 C   0  0  2  0  0  0  0  0  0  0  0  0
    9.0330  -16.2320   26.3689 N   0  0  0  0  0  0  0  0  0  0  0  0
   10.2467  -16.8236   28.3138 C   0  0  0  0  0  0  0  0  0  0  0  0
   11.3251  -17.0412   28.9229 O   0  0  0  0  0  0  0  0  0  0  0  0
    9.1456  -17.5786   28.6704 O   0  0  0  0  0  0  0  0  0  0  0  0
  2  1  1  6
  3  2  1  0
  4  3  1  0
  5  6  1  0
  5  4  1  0
  7  6  1  0
  8  2  1  0
  8  9  2  0
 11 10  1  6
 11 12  1  0
 13 14  1  6
 13 11  1  0
 14  8  1  0
 15 13  1  0
 16 15  2  0
 18 19  1  0
 18 17  1  0
 19 21  1  0
 19 20  1  1
 21 22  1  6
 22 15  1  0
 23 21  1  0
 23 25  1  0
 24 23  2  0
M  END
$$$$
