KVI.pdb
     RDKit          3D

 25 24  0  0  1  0  0  0  0  0999 V2000
    8.1005  -14.4308   20.0488 N   0  0  0  0  0  0  0  0  0  0  0  0
    7.3040  -14.9024   21.1653 C   0  0  1  0  0  0  0  0  0  0  0  0
    7.2730  -16.3710   21.1692 C   0  0  0  0  0  0  0  0  0  0  0  0
    6.8435  -17.1585   20.0209 C   0  0  0  0  0  0  0  0  0  0  0  0
    7.7157  -17.5760   18.9269 C   0  0  0  0  0  0  0  0  0  0  0  0
    7.0716  -18.4117   17.8733 C   0  0  0  0  0  0  0  0  0  0  0  0
    7.0460  -19.8245   18.3594 N   0  0  0  0  0  0  0  0  0  0  0  0
    7.9906  -14.5042   22.4637 C   0  0  0  0  0  0  0  0  0  0  0  0
    9.2245  -14.5321   22.5235 O   0  0  0  0  0  0  0  0  0  0  0  0
    5.7290  -13.8226   26.2185 C   0  0  0  0  0  0  0  0  0  0  0  0
    6.9375  -13.0135   25.7981 C   0  0  2  0  0  0  0  0  0  0  0  0
    6.5386  -11.6491   25.2709 C   0  0  0  0  0  0  0  0  0  0  0  0
    7.8411  -13.7575   24.8691 C   0  0  2  0  0  0  0  0  0  0  0  0
    7.2825  -14.1042   23.6030 N   0  0  0  0  0  0  0  0  0  0  0  0
    8.3840  -14.9380   25.5998 C   0  0  0  0  0  0  0  0  0  0  0  0
    7.8207  -16.0707   25.5417 O   0  0  0  0  0  0  0  0  0  0  0  0
   12.5283  -14.3593   29.4218 C   0  0  0  0  0  0  0  0  0  0  0  0
   11.2047  -14.6335   28.7458 C   0  0  0  0  0  0  0  0  0  0  0  0
   11.4132  -15.7254   27.7325 C   0  0  2  0  0  0  0  0  0  0  0  0
   12.3493  -15.2167   26.6621 C   0  0  0  0  0  0  0  0  0  0  0  0
   10.0949  -16.0610   27.0146 C   0  0  2  0  0  0  0  0  0  0  0  0
    9.5513  -14.8738   26.3973 N   0  0  0  0  0  0  0  0  0  0  0  0
    9.1627  -16.4986   28.0749 C   0  0  0  0  0  0  0  0  0  0  0  0
    9.2600  -17.5987   28.6764 O   0  0  0  0  0  0  0  0  0  0  0  0
    8.1231  -15.6618   28.4336 O   0  0  0  0  0  0  0  0  0  0  0  0
  2  1  1  6
  3  2  1  0
  4  3  1  0
  5  6  1  0
  5  4  1  0
  7  6  1  0
  8  2  1  0
  8  9  2  0
 11 10  1  6
 11 12  1  0
 13 14  1  6
 13 11  1  0
 14  8  1  0
 15 13  1  0
 16 15  2  0
 18 19  1  0
 18 17  1  0
 19 21  1  0
 19 20  1  6
 21 22  1  1
 22 15  1  0
 23 21  1  0
 23 25  1  0
 24 23  2  0
M  END
$$$$
