QIP.pdb
     RDKit          3D

 25 25  0  0  1  0  0  0  0  0999 V2000
   19.1264  -13.0036  -18.0996 N   0  0  0  0  0  0  0  0  0  0  0  0
   18.6976  -14.2732  -17.6029 C   0  0  0  0  0  0  0  0  0  0  0  0
   19.0805  -15.3348  -18.1294 O   0  0  0  0  0  0  0  0  0  0  0  0
   17.7883  -14.3202  -16.4494 C   0  0  0  0  0  0  0  0  0  0  0  0
   17.4334  -12.9238  -16.0018 C   0  0  0  0  0  0  0  0  0  0  0  0
   16.5145  -13.0414  -14.8107 C   0  0  2  0  0  0  0  0  0  0  0  0
   15.5274  -14.0524  -15.1116 N   0  0  0  0  0  0  0  0  0  0  0  0
   15.8696  -11.7168  -14.5424 C   0  0  0  0  0  0  0  0  0  0  0  0
   14.8244  -11.3654  -15.1134 O   0  0  0  0  0  0  0  0  0  0  0  0
   13.9403   -8.8886  -10.6454 C   0  0  0  0  0  0  0  0  0  0  0  0
   15.4367   -8.6108  -10.8501 C   0  0  0  0  0  0  0  0  0  0  0  0
   15.9794   -9.7220  -11.6445 C   0  0  2  0  0  0  0  0  0  0  0  0
   17.3890  -10.1191  -11.2484 C   0  0  0  0  0  0  0  0  0  0  0  0
   15.8437   -9.5912  -13.1632 C   0  0  2  0  0  0  0  0  0  0  0  0
   16.4850  -10.8673  -13.6143 N   0  0  0  0  0  0  0  0  0  0  0  0
   16.6779   -8.5241  -13.7356 C   0  0  0  0  0  0  0  0  0  0  0  0
   17.9106   -8.4487  -13.3454 O   0  0  0  0  0  0  0  0  0  0  0  0
   16.2868   -7.5499  -14.6868 N   0  0  0  0  0  0  0  0  0  0  0  0
   14.9393   -7.5799  -15.2982 C   0  0  0  0  0  0  0  0  0  0  0  0
   14.6821   -6.1243  -15.6248 C   0  0  0  0  0  0  0  0  0  0  0  0
   16.0208   -5.7004  -16.1305 C   0  0  0  0  0  0  0  0  0  0  0  0
   17.0039   -6.4142  -15.1847 C   0  0  1  0  0  0  0  0  0  0  0  0
   17.2821   -5.4101  -14.1191 C   0  0  0  0  0  0  0  0  0  0  0  0
   18.1191   -4.3447  -14.4763 O   0  0  0  0  0  0  0  0  0  0  0  0
   16.8456   -5.4342  -12.9649 O   0  0  0  0  0  0  0  0  0  0  0  0
  1  2  1  0
  2  4  1  0
  3  2  2  0
  4  5  1  0
  6  5  1  0
  6  7  1  6
  8  6  1  0
  8  9  2  0
 10 11  1  0
 12 11  1  0
 12 13  1  6
 14 15  1  6
 14 12  1  0
 15  8  1  0
 16 17  2  0
 16 14  1  0
 18 16  1  0
 19 20  1  0
 19 18  1  0
 21 20  1  0
 22 21  1  0
 22 18  1  0
 22 23  1  1
 24 23  1  0
 25 23  2  0
M  END
$$$$
