QIP.pdb
     RDKit          3D

 25 25  0  0  1  0  0  0  0  0999 V2000
   19.7443  -18.7018  -15.2215 N   0  0  0  0  0  0  0  0  0  0  0  0
   20.6170  -19.7603  -15.6222 C   0  0  0  0  0  0  0  0  0  0  0  0
   20.3436  -20.4887  -16.5946 O   0  0  0  0  0  0  0  0  0  0  0  0
   21.8580  -19.9882  -14.8690 C   0  0  0  0  0  0  0  0  0  0  0  0
   21.8489  -19.1935  -13.5866 C   0  0  0  0  0  0  0  0  0  0  0  0
   22.9754  -18.1921  -13.6571 C   0  0  2  0  0  0  0  0  0  0  0  0
   22.9748  -17.6183  -14.9831 N   0  0  0  0  0  0  0  0  0  0  0  0
   24.2741  -18.8771  -13.3634 C   0  0  0  0  0  0  0  0  0  0  0  0
   25.1789  -18.9644  -14.2095 O   0  0  0  0  0  0  0  0  0  0  0  0
   26.6610  -19.6421   -7.9623 C   0  0  0  0  0  0  0  0  0  0  0  0
   26.8839  -20.1596   -9.3908 C   0  0  0  0  0  0  0  0  0  0  0  0
   25.6469  -19.9044  -10.1425 C   0  0  2  0  0  0  0  0  0  0  0  0
   24.4402  -20.6418   -9.5932 C   0  0  0  0  0  0  0  0  0  0  0  0
   25.7428  -20.0486  -11.6630 C   0  0  2  0  0  0  0  0  0  0  0  0
   24.4477  -19.4275  -12.0873 N   0  0  0  0  0  0  0  0  0  0  0  0
   25.6646  -21.4425  -12.1249 C   0  0  0  0  0  0  0  0  0  0  0  0
   24.5784  -22.1007  -11.8716 O   0  0  0  0  0  0  0  0  0  0  0  0
   26.6558  -22.1659  -12.8328 N   0  0  0  0  0  0  0  0  0  0  0  0
   27.9723  -21.5601  -13.1333 C   0  0  0  0  0  0  0  0  0  0  0  0
   28.8907  -22.7614  -13.2039 C   0  0  0  0  0  0  0  0  0  0  0  0
   28.0305  -23.7408  -13.9308 C   0  0  0  0  0  0  0  0  0  0  0  0
   26.6342  -23.5114  -13.3237 C   0  0  1  0  0  0  0  0  0  0  0  0
   26.5436  -24.5127  -12.2238 C   0  0  0  0  0  0  0  0  0  0  0  0
   26.1600  -25.8080  -12.5962 O   0  0  0  0  0  0  0  0  0  0  0  0
   26.7737  -24.3043  -11.0292 O   0  0  0  0  0  0  0  0  0  0  0  0
  1  2  1  0
  2  4  1  0
  3  2  2  0
  4  5  1  0
  6  5  1  0
  6  7  1  6
  8  6  1  0
  8  9  2  0
 10 11  1  0
 12 11  1  0
 12 13  1  1
 14 15  1  6
 14 12  1  0
 15  8  1  0
 16 17  2  0
 16 14  1  0
 18 16  1  0
 19 20  1  0
 19 18  1  0
 21 20  1  0
 22 21  1  0
 22 18  1  0
 22 23  1  1
 24 23  1  0
 25 23  2  0
M  END
$$$$
