QIP.pdb
     RDKit          3D

 25 25  0  0  1  0  0  0  0  0999 V2000
   23.0690  -19.6359  -19.9110 N   0  0  0  0  0  0  0  0  0  0  0  0
   23.4247  -18.4329  -20.5958 C   0  0  0  0  0  0  0  0  0  0  0  0
   23.2757  -18.3233  -21.8273 O   0  0  0  0  0  0  0  0  0  0  0  0
   23.9756  -17.3082  -19.8270 C   0  0  0  0  0  0  0  0  0  0  0  0
   24.1161  -17.6836  -18.3725 C   0  0  0  0  0  0  0  0  0  0  0  0
   22.9358  -17.1052  -17.6313 C   0  0  2  0  0  0  0  0  0  0  0  0
   22.9822  -15.6687  -17.7780 N   0  0  0  0  0  0  0  0  0  0  0  0
   23.0039  -17.5055  -16.1900 C   0  0  0  0  0  0  0  0  0  0  0  0
   23.4872  -16.7608  -15.3217 O   0  0  0  0  0  0  0  0  0  0  0  0
   19.6928  -18.4664  -12.0910 C   0  0  0  0  0  0  0  0  0  0  0  0
   20.5342  -19.5446  -12.7892 C   0  0  0  0  0  0  0  0  0  0  0  0
   21.0007  -18.9746  -14.0612 C   0  0  2  0  0  0  0  0  0  0  0  0
   20.0875  -19.2794  -15.2336 C   0  0  0  0  0  0  0  0  0  0  0  0
   22.4669  -19.2329  -14.4156 C   0  0  2  0  0  0  0  0  0  0  0  0
   22.4999  -18.7638  -15.8375 N   0  0  0  0  0  0  0  0  0  0  0  0
   22.8109  -20.6611  -14.4789 C   0  0  0  0  0  0  0  0  0  0  0  0
   22.1128  -21.4142  -15.2681 O   0  0  0  0  0  0  0  0  0  0  0  0
   23.8399  -21.3254  -13.7672 N   0  0  0  0  0  0  0  0  0  0  0  0
   24.6517  -20.6105  -12.7570 C   0  0  0  0  0  0  0  0  0  0  0  0
   25.0577  -21.7146  -11.8043 C   0  0  0  0  0  0  0  0  0  0  0  0
   25.3622  -22.8219  -12.7576 C   0  0  0  0  0  0  0  0  0  0  0  0
   24.2544  -22.6956  -13.8195 C   0  0  1  0  0  0  0  0  0  0  0  0
   23.1892  -23.6263  -13.3505 C   0  0  0  0  0  0  0  0  0  0  0  0
   23.3963  -24.9869  -13.6141 O   0  0  0  0  0  0  0  0  0  0  0  0
   22.1541  -23.3083  -12.7582 O   0  0  0  0  0  0  0  0  0  0  0  0
  1  2  1  0
  2  4  1  0
  3  2  2  0
  4  5  1  0
  6  5  1  0
  6  7  1  1
  8  6  1  0
  8  9  2  0
 10 11  1  0
 12 11  1  0
 12 13  1  6
 14 15  1  6
 14 12  1  0
 15  8  1  0
 16 17  2  0
 16 14  1  0
 18 16  1  0
 19 20  1  0
 19 18  1  0
 21 20  1  0
 22 21  1  0
 22 18  1  0
 22 23  1  1
 24 23  1  0
 25 23  2  0
M  END
$$$$
