QIP.pdb
     RDKit          3D

 25 25  0  0  1  0  0  0  0  0999 V2000
   15.8913   -6.7214   -8.0823 N   0  0  0  0  0  0  0  0  0  0  0  0
   14.7632   -7.4217   -8.6110 C   0  0  0  0  0  0  0  0  0  0  0  0
   13.6153   -7.2206   -8.1722 O   0  0  0  0  0  0  0  0  0  0  0  0
   14.9682   -8.3955   -9.6923 C   0  0  0  0  0  0  0  0  0  0  0  0
   16.4398   -8.5571   -9.9830 C   0  0  0  0  0  0  0  0  0  0  0  0
   16.6783   -8.1224  -11.4082 C   0  0  2  0  0  0  0  0  0  0  0  0
   16.0723   -9.1044  -12.2775 N   0  0  0  0  0  0  0  0  0  0  0  0
   18.1504   -8.0115  -11.6588 C   0  0  0  0  0  0  0  0  0  0  0  0
   18.9211   -7.4900  -10.8364 O   0  0  0  0  0  0  0  0  0  0  0  0
   22.6512  -10.0120  -13.3245 C   0  0  0  0  0  0  0  0  0  0  0  0
   21.7566   -9.6931  -14.5312 C   0  0  0  0  0  0  0  0  0  0  0  0
   20.3815   -9.5618  -14.0291 C   0  0  2  0  0  0  0  0  0  0  0  0
   19.3240   -9.9218  -15.0555 C   0  0  0  0  0  0  0  0  0  0  0  0
   20.0469   -8.2460  -13.3229 C   0  0  2  0  0  0  0  0  0  0  0  0
   18.6471   -8.5195  -12.8658 N   0  0  0  0  0  0  0  0  0  0  0  0
   19.9300   -7.1026  -14.2402 C   0  0  0  0  0  0  0  0  0  0  0  0
   19.1181   -7.2156  -15.2428 O   0  0  0  0  0  0  0  0  0  0  0  0
   20.6115   -5.8637  -14.1539 N   0  0  0  0  0  0  0  0  0  0  0  0
   21.4965   -5.5591  -13.0074 C   0  0  0  0  0  0  0  0  0  0  0  0
   22.5001   -4.5934  -13.6004 C   0  0  0  0  0  0  0  0  0  0  0  0
   21.6174   -3.7491  -14.4580 C   0  0  0  0  0  0  0  0  0  0  0  0
   20.6368   -4.7648  -15.0725 C   0  0  1  0  0  0  0  0  0  0  0  0
   21.2584   -5.1322  -16.3760 C   0  0  0  0  0  0  0  0  0  0  0  0
   20.9798   -4.2833  -17.4555 O   0  0  0  0  0  0  0  0  0  0  0  0
   21.9874   -6.1058  -16.5858 O   0  0  0  0  0  0  0  0  0  0  0  0
  1  2  1  0
  2  4  1  0
  3  2  2  0
  4  5  1  0
  6  5  1  0
  6  7  1  6
  8  6  1  0
  8  9  2  0
 10 11  1  0
 12 11  1  0
 12 13  1  6
 14 15  1  6
 14 12  1  0
 15  8  1  0
 16 17  2  0
 16 14  1  0
 18 16  1  0
 19 20  1  0
 19 18  1  0
 21 20  1  0
 22 21  1  0
 22 18  1  0
 22 23  1  6
 24 23  1  0
 25 23  2  0
M  END
$$$$
