QIP.pdb
     RDKit          3D

 25 25  0  0  1  0  0  0  0  0999 V2000
   15.0879  -15.0249  -18.3814 N   0  0  0  0  0  0  0  0  0  0  0  0
   15.1963  -13.6016  -18.3104 C   0  0  0  0  0  0  0  0  0  0  0  0
   14.2261  -12.8966  -17.9747 O   0  0  0  0  0  0  0  0  0  0  0  0
   16.4786  -12.9644  -18.6407 C   0  0  0  0  0  0  0  0  0  0  0  0
   17.1433  -12.4409  -17.3915 C   0  0  0  0  0  0  0  0  0  0  0  0
   18.4746  -13.1373  -17.2517 C   0  0  2  0  0  0  0  0  0  0  0  0
   18.2224  -14.4891  -16.8086 N   0  0  0  0  0  0  0  0  0  0  0  0
   19.3278  -12.3953  -16.2700 C   0  0  0  0  0  0  0  0  0  0  0  0
   19.1139  -12.4375  -15.0475 O   0  0  0  0  0  0  0  0  0  0  0  0
   24.2243  -11.6315  -14.6038 C   0  0  0  0  0  0  0  0  0  0  0  0
   23.8673  -10.7359  -15.7990 C   0  0  0  0  0  0  0  0  0  0  0  0
   22.6819  -11.3215  -16.4411 C   0  0  2  0  0  0  0  0  0  0  0  0
   22.7007  -11.2224  -17.9548 C   0  0  0  0  0  0  0  0  0  0  0  0
   21.3280  -10.8914  -15.8717 C   0  0  2  0  0  0  0  0  0  0  0  0
   20.3934  -11.6380  -16.7729 N   0  0  0  0  0  0  0  0  0  0  0  0
   21.0216   -9.4714  -16.0995 C   0  0  0  0  0  0  0  0  0  0  0  0
   21.1582   -9.0114  -17.3025 O   0  0  0  0  0  0  0  0  0  0  0  0
   20.5814   -8.5268  -15.1401 N   0  0  0  0  0  0  0  0  0  0  0  0
   20.3817   -8.9139  -13.7255 C   0  0  0  0  0  0  0  0  0  0  0  0
   20.6276   -7.6189  -12.9812 C   0  0  0  0  0  0  0  0  0  0  0  0
   19.9449   -6.6375  -13.8746 C   0  0  0  0  0  0  0  0  0  0  0  0
   20.3048   -7.1291  -15.2886 C   0  0  1  0  0  0  0  0  0  0  0  0
   21.5213   -6.3478  -15.6499 C   0  0  0  0  0  0  0  0  0  0  0  0
   21.3084   -5.0234  -16.0549 O   0  0  0  0  0  0  0  0  0  0  0  0
   22.6847   -6.7592  -15.6241 O   0  0  0  0  0  0  0  0  0  0  0  0
  1  2  1  0
  2  4  1  0
  3  2  2  0
  4  5  1  0
  6  5  1  0
  6  7  1  1
  8  6  1  0
  8  9  2  0
 10 11  1  0
 12 11  1  0
 12 13  1  6
 14 15  1  6
 14 12  1  0
 15  8  1  0
 16 17  2  0
 16 14  1  0
 18 16  1  0
 19 20  1  0
 19 18  1  0
 21 20  1  0
 22 21  1  0
 22 18  1  0
 22 23  1  1
 24 23  1  0
 25 23  2  0
M  END
$$$$
