QIP.pdb
     RDKit          3D

 25 25  0  0  1  0  0  0  0  0999 V2000
   20.5959  -24.1019  -14.1719 N   0  0  0  0  0  0  0  0  0  0  0  0
   19.5757  -23.2692  -14.7272 C   0  0  0  0  0  0  0  0  0  0  0  0
   18.4309  -23.7088  -14.9437 O   0  0  0  0  0  0  0  0  0  0  0  0
   19.8897  -21.8695  -15.0465 C   0  0  0  0  0  0  0  0  0  0  0  0
   21.3619  -21.6028  -14.8518 C   0  0  0  0  0  0  0  0  0  0  0  0
   21.5675  -21.1778  -13.4187 C   0  0  2  0  0  0  0  0  0  0  0  0
   20.4254  -20.3859  -13.0239 N   0  0  0  0  0  0  0  0  0  0  0  0
   22.8371  -20.3918  -13.3061 C   0  0  0  0  0  0  0  0  0  0  0  0
   22.8646  -19.1596  -13.4574 O   0  0  0  0  0  0  0  0  0  0  0  0
   25.8262  -21.1449   -9.1874 C   0  0  0  0  0  0  0  0  0  0  0  0
   25.1377  -20.4985  -10.3982 C   0  0  0  0  0  0  0  0  0  0  0  0
   25.8597  -20.9459  -11.5978 C   0  0  2  0  0  0  0  0  0  0  0  0
   27.3659  -20.8004  -11.4887 C   0  0  0  0  0  0  0  0  0  0  0  0
   25.3434  -20.4057  -12.9333 C   0  0  2  0  0  0  0  0  0  0  0  0
   24.0156  -21.0929  -13.0208 N   0  0  0  0  0  0  0  0  0  0  0  0
   26.1012  -20.8947  -14.0947 C   0  0  0  0  0  0  0  0  0  0  0  0
   26.2684  -22.1739  -14.2094 O   0  0  0  0  0  0  0  0  0  0  0  0
   26.6794  -20.1169  -15.1279 N   0  0  0  0  0  0  0  0  0  0  0  0
   26.7747  -18.6446  -15.0109 C   0  0  0  0  0  0  0  0  0  0  0  0
   27.9878  -18.3147  -15.8542 C   0  0  0  0  0  0  0  0  0  0  0  0
   27.7925  -19.2337  -17.0139 C   0  0  0  0  0  0  0  0  0  0  0  0
   27.2792  -20.5304  -16.3613 C   0  0  1  0  0  0  0  0  0  0  0  0
   28.5087  -21.3445  -16.1466 C   0  0  0  0  0  0  0  0  0  0  0  0
   29.0677  -21.9340  -17.2884 O   0  0  0  0  0  0  0  0  0  0  0  0
   29.0707  -21.5427  -15.0658 O   0  0  0  0  0  0  0  0  0  0  0  0
  1  2  1  0
  2  4  1  0
  3  2  2  0
  4  5  1  0
  6  5  1  0
  6  7  1  6
  8  6  1  0
  8  9  2  0
 10 11  1  0
 12 11  1  0
 12 13  1  1
 14 15  1  6
 14 12  1  0
 15  8  1  0
 16 17  2  0
 16 14  1  0
 18 16  1  0
 19 20  1  0
 19 18  1  0
 21 20  1  0
 22 21  1  0
 22 18  1  0
 22 23  1  1
 24 23  1  0
 25 23  2  0
M  END
$$$$
