QIP.pdb
     RDKit          3D

 25 25  0  0  1  0  0  0  0  0999 V2000
   18.9853  -22.3814  -13.4907 N   0  0  0  0  0  0  0  0  0  0  0  0
   19.6511  -23.0601  -14.5578 C   0  0  0  0  0  0  0  0  0  0  0  0
   19.3525  -24.2295  -14.8645 O   0  0  0  0  0  0  0  0  0  0  0  0
   20.7064  -22.3597  -15.3030 C   0  0  0  0  0  0  0  0  0  0  0  0
   20.8694  -20.9515  -14.7865 C   0  0  0  0  0  0  0  0  0  0  0  0
   21.4459  -21.0353  -13.3946 C   0  0  2  0  0  0  0  0  0  0  0  0
   20.4716  -20.4885  -12.4786 N   0  0  0  0  0  0  0  0  0  0  0  0
   22.7322  -20.2706  -13.3379 C   0  0  0  0  0  0  0  0  0  0  0  0
   22.7774  -19.0431  -13.5208 O   0  0  0  0  0  0  0  0  0  0  0  0
   25.7478  -21.4734   -9.3039 C   0  0  0  0  0  0  0  0  0  0  0  0
   25.0876  -20.6462  -10.4164 C   0  0  0  0  0  0  0  0  0  0  0  0
   25.7754  -20.9802  -11.6717 C   0  0  2  0  0  0  0  0  0  0  0  0
   27.2853  -20.8600  -11.5865 C   0  0  0  0  0  0  0  0  0  0  0  0
   25.2335  -20.3067  -12.9345 C   0  0  2  0  0  0  0  0  0  0  0  0
   23.9056  -20.9863  -13.0686 N   0  0  0  0  0  0  0  0  0  0  0  0
   25.9707  -20.6701  -14.1539 C   0  0  0  0  0  0  0  0  0  0  0  0
   26.1103  -21.9298  -14.4203 O   0  0  0  0  0  0  0  0  0  0  0  0
   26.5558  -19.7873  -15.0947 N   0  0  0  0  0  0  0  0  0  0  0  0
   26.6149  -18.3307  -14.8385 C   0  0  0  0  0  0  0  0  0  0  0  0
   27.8401  -17.8987  -15.6155 C   0  0  0  0  0  0  0  0  0  0  0  0
   27.6936  -18.7088  -16.8605 C   0  0  0  0  0  0  0  0  0  0  0  0
   27.1943  -20.0710  -16.3452 C   0  0  1  0  0  0  0  0  0  0  0  0
   28.4365  -20.8766  -16.1753 C   0  0  0  0  0  0  0  0  0  0  0  0
   29.0459  -21.3298  -17.3529 O   0  0  0  0  0  0  0  0  0  0  0  0
   28.9688  -21.1757  -15.1027 O   0  0  0  0  0  0  0  0  0  0  0  0
  1  2  1  0
  2  4  1  0
  3  2  2  0
  4  5  1  0
  6  5  1  0
  6  7  1  1
  8  6  1  0
  8  9  2  0
 10 11  1  0
 12 11  1  0
 12 13  1  1
 14 15  1  6
 14 12  1  0
 15  8  1  0
 16 17  2  0
 16 14  1  0
 18 16  1  0
 19 20  1  0
 19 18  1  0
 21 20  1  0
 22 21  1  0
 22 18  1  0
 22 23  1  1
 24 23  1  0
 25 23  2  0
M  END
$$$$
