QIP.pdb
     RDKit          3D

 25 25  0  0  1  0  0  0  0  0999 V2000
   14.3314  -23.0860    4.6718 N   0  0  0  0  0  0  0  0  0  0  0  0
   13.4246  -22.5756    3.6921 C   0  0  0  0  0  0  0  0  0  0  0  0
   12.4152  -23.2195    3.3497 O   0  0  0  0  0  0  0  0  0  0  0  0
   13.6938  -21.2663    3.0814 C   0  0  0  0  0  0  0  0  0  0  0  0
   14.9809  -20.6901    3.6177 C   0  0  0  0  0  0  0  0  0  0  0  0
   15.5561  -19.7827    2.5581 C   0  0  2  0  0  0  0  0  0  0  0  0
   15.8725  -20.5940    1.4052 N   0  0  0  0  0  0  0  0  0  0  0  0
   16.7772  -19.0998    3.0919 C   0  0  0  0  0  0  0  0  0  0  0  0
   17.9236  -19.4682    2.7886 O   0  0  0  0  0  0  0  0  0  0  0  0
   18.6736  -15.0163    2.6095 C   0  0  0  0  0  0  0  0  0  0  0  0
   17.2025  -15.2128    3.0036 C   0  0  0  0  0  0  0  0  0  0  0  0
   17.1889  -15.7934    4.3538 C   0  0  2  0  0  0  0  0  0  0  0  0
   17.7700  -14.8769    5.4139 C   0  0  0  0  0  0  0  0  0  0  0  0
   17.7447  -17.2137    4.4801 C   0  0  2  0  0  0  0  0  0  0  0  0
   16.5921  -18.0148    3.9580 N   0  0  0  0  0  0  0  0  0  0  0  0
   17.9136  -17.6544    5.8727 C   0  0  0  0  0  0  0  0  0  0  0  0
   16.9544  -17.4006    6.7051 O   0  0  0  0  0  0  0  0  0  0  0  0
   19.0227  -18.3422    6.4237 N   0  0  0  0  0  0  0  0  0  0  0  0
   20.1907  -18.6983    5.5872 C   0  0  0  0  0  0  0  0  0  0  0  0
   21.3283  -18.7236    6.5856 C   0  0  0  0  0  0  0  0  0  0  0  0
   20.6734  -19.3824    7.7537 C   0  0  0  0  0  0  0  0  0  0  0  0
   19.2643  -18.7621    7.7718 C   0  0  1  0  0  0  0  0  0  0  0  0
   19.3828  -17.6101    8.7097 C   0  0  0  0  0  0  0  0  0  0  0  0
   19.4201  -17.9249   10.0746 O   0  0  0  0  0  0  0  0  0  0  0  0
   19.4501  -16.4188    8.3942 O   0  0  0  0  0  0  0  0  0  0  0  0
  1  2  1  0
  2  4  1  0
  3  2  2  0
  4  5  1  0
  6  5  1  0
  6  7  1  6
  8  6  1  0
  8  9  2  0
 10 11  1  0
 12 11  1  0
 12 13  1  1
 14 15  1  6
 14 12  1  0
 15  8  1  0
 16 17  2  0
 16 14  1  0
 18 16  1  0
 19 20  1  0
 19 18  1  0
 21 20  1  0
 22 21  1  0
 22 18  1  0
 22 23  1  1
 24 23  1  0
 25 23  2  0
M  END
$$$$
