RFK.pdb
     RDKit          3D

 32 32  0  0  1  0  0  0  0  0999 V2000
    7.7458  -13.4735   17.1864 N   0  0  0  0  0  0  0  0  0  0  0  0
    8.3756  -13.1341   18.4358 C   0  0  0  0  0  0  0  0  0  0  0  0
    8.3565  -11.9158   18.8412 N   0  0  0  0  0  0  0  0  0  0  0  0
    9.0042  -14.1706   19.1875 N   0  0  0  0  0  0  0  0  0  0  0  0
    9.9668  -15.0388   18.4801 C   0  0  0  0  0  0  0  0  0  0  0  0
    9.4668  -16.4512   18.4498 C   0  0  0  0  0  0  0  0  0  0  0  0
    9.9752  -17.2947   19.5697 C   0  0  0  0  0  0  0  0  0  0  0  0
    8.9901  -17.5562   20.6452 C   0  0  2  0  0  0  0  0  0  0  0  0
    7.6164  -17.6547   20.2365 N   0  0  0  0  0  0  0  0  0  0  0  0
    9.1318  -16.5699   21.7792 C   0  0  0  0  0  0  0  0  0  0  0  0
   10.2767  -16.1769   22.1144 O   0  0  0  0  0  0  0  0  0  0  0  0
    8.7102  -11.5527   19.7335 N   0  0  0  0  0  0  0  0  0  0  0  0
    8.0031  -16.0715   22.4814 C   0  0  1  0  0  0  0  0  0  0  0  0
    8.1621  -15.2244   23.6713 C   0  0  0  0  0  0  0  0  0  0  0  0
    6.9196  -14.4094   23.9163 C   0  0  0  0  0  0  0  0  0  0  0  0
    6.9991  -13.6355   25.1783 C   0  0  0  0  0  0  0  0  0  0  0  0
    6.2113  -13.8695   26.2844 C   0  0  0  0  0  0  0  0  0  0  0  0
    6.3217  -13.1186   27.4419 C   0  0  0  0  0  0  0  0  0  0  0  0
    7.2364  -12.0901   27.5408 C   0  0  0  0  0  0  0  0  0  0  0  0
    8.0278  -11.8550   26.4298 C   0  0  0  0  0  0  0  0  0  0  0  0
    7.9169  -12.6052   25.2747 C   0  0  0  0  0  0  0  0  0  0  0  0
    8.4298  -16.1532   24.8126 O   0  0  0  0  0  0  0  0  0  0  0  0
    7.6013  -17.0171   25.1982 N   0  0  0  0  0  0  0  0  0  0  0  0
    9.6684  -16.0927   25.5257 C   0  0  1  0  0  0  0  0  0  0  0  0
    9.9977  -16.9993   26.6064 C   0  0  0  0  0  0  0  0  0  0  0  0
   11.2889  -17.7682   26.3071 C   0  0  0  0  0  0  0  0  0  0  0  0
   10.8742  -19.0316   25.5848 C   0  0  0  0  0  0  0  0  0  0  0  0
   12.0710  -19.8739   25.2013 C   0  0  0  0  0  0  0  0  0  0  0  0
   11.5775  -21.1710   24.5968 N   0  0  0  0  0  0  0  0  0  0  0  0
   12.7515  -21.9784   24.2839 C   0  0  0  0  0  0  0  0  0  0  0  0
   10.1748  -16.1634   27.8450 O   0  0  0  0  0  0  0  0  0  0  0  0
   10.5483  -14.9596   27.7830 O   0  0  0  0  0  0  0  0  0  0  0  0
  2  1  1  0
  3  2  2  0
  4  2  1  0
  5  4  1  0
  6  5  1  0
  7  8  1  0
  7  6  1  0
  8  9  1  6
 10  8  1  0
 11 10  2  0
 12 10  1  0
 13 21  1  0
 13 12  1  0
 13 14  1  1
 15 14  1  0
 16 15  2  0
 17 16  1  0
 18 19  1  0
 18 17  2  0
 19 20  2  0
 20 15  1  0
 21 23  1  0
 22 21  2  0
 23 24  1  0
 24 30  1  0
 24 25  1  1
 25 26  1  0
 26 27  1  0
 28 27  1  0
 28 29  1  0
 30 32  1  0
 31 30  2  0
M  END
$$$$
