RFK.pdb
     RDKit          3D

 32 32  0  0  1  0  0  0  0  0999 V2000
    7.8688  -13.1743   14.2571 N   0  0  0  0  0  0  0  0  0  0  0  0
    8.3797  -14.5199   14.2891 C   0  0  0  0  0  0  0  0  0  0  0  0
    8.1115  -15.3195   13.3207 N   0  0  0  0  0  0  0  0  0  0  0  0
    9.1732  -14.9229   15.4038 N   0  0  0  0  0  0  0  0  0  0  0  0
    8.4724  -15.2124   16.6710 C   0  0  0  0  0  0  0  0  0  0  0  0
    8.4036  -13.9791   17.5195 C   0  0  0  0  0  0  0  0  0  0  0  0
    9.3139  -14.0084   18.7005 C   0  0  0  0  0  0  0  0  0  0  0  0
    9.1045  -15.1546   19.6160 C   0  0  2  0  0  0  0  0  0  0  0  0
    7.9115  -15.9260   19.4035 N   0  0  0  0  0  0  0  0  0  0  0  0
    9.2088  -14.7355   21.0625 C   0  0  0  0  0  0  0  0  0  0  0  0
   10.1813  -14.0312   21.4312 O   0  0  0  0  0  0  0  0  0  0  0  0
    8.4718  -16.2705   13.1827 N   0  0  0  0  0  0  0  0  0  0  0  0
    8.2351  -15.1162   22.0229 C   0  0  1  0  0  0  0  0  0  0  0  0
    8.3087  -14.6375   23.4100 C   0  0  0  0  0  0  0  0  0  0  0  0
    7.1050  -13.7985   23.7496 C   0  0  0  0  0  0  0  0  0  0  0  0
    7.1762  -13.2506   25.1254 C   0  0  0  0  0  0  0  0  0  0  0  0
    8.1073  -12.3263   25.5466 C   0  0  0  0  0  0  0  0  0  0  0  0
    8.1347  -11.8440   26.8437 C   0  0  0  0  0  0  0  0  0  0  0  0
    7.2198  -12.2724   27.7838 C   0  0  0  0  0  0  0  0  0  0  0  0
    6.2844  -13.2009   27.3607 C   0  0  0  0  0  0  0  0  0  0  0  0
    6.2580  -13.6818   26.0657 C   0  0  0  0  0  0  0  0  0  0  0  0
    8.3730  -15.8589   24.2707 O   0  0  0  0  0  0  0  0  0  0  0  0
    7.4312  -16.6885   24.3498 N   0  0  0  0  0  0  0  0  0  0  0  0
    9.5367  -16.1366   25.0550 C   0  0  1  0  0  0  0  0  0  0  0  0
    9.6940  -17.3547   25.8230 C   0  0  0  0  0  0  0  0  0  0  0  0
   11.0144  -18.0541   25.4834 C   0  0  0  0  0  0  0  0  0  0  0  0
   10.8166  -18.7036   24.1310 C   0  0  0  0  0  0  0  0  0  0  0  0
   12.0602  -19.4351   23.6757 C   0  0  0  0  0  0  0  0  0  0  0  0
   11.7626  -20.1263   22.3623 N   0  0  0  0  0  0  0  0  0  0  0  0
   12.9897  -20.7878   21.9323 C   0  0  0  0  0  0  0  0  0  0  0  0
    9.6798  -16.9650   27.2763 O   0  0  0  0  0  0  0  0  0  0  0  0
    9.5997  -17.8292   28.1923 O   0  0  0  0  0  0  0  0  0  0  0  0
  2  1  1  0
  3  2  2  0
  4  2  1  0
  5  4  1  0
  6  5  1  0
  7  8  1  0
  7  6  1  0
  8  9  1  1
 10  8  1  0
 11 10  2  0
 12 10  1  0
 13 21  1  0
 13 12  1  0
 13 14  1  6
 15 14  1  0
 16 15  2  0
 17 16  1  0
 18 19  1  0
 18 17  2  0
 19 20  2  0
 20 15  1  0
 21 23  1  0
 22 21  2  0
 23 24  1  0
 24 30  1  0
 24 25  1  1
 25 26  1  0
 26 27  1  0
 28 27  1  0
 28 29  1  0
 30 32  1  0
 31 30  2  0
M  END
$$$$
