RFK.pdb
     RDKit          3D

 32 32  0  0  1  0  0  0  0  0999 V2000
    8.0488  -18.4324   13.9698 N   0  0  0  0  0  0  0  0  0  0  0  0
    9.2410  -19.1030   13.5208 C   0  0  0  0  0  0  0  0  0  0  0  0
    9.6720  -18.8928   12.3294 N   0  0  0  0  0  0  0  0  0  0  0  0
    9.9088  -19.9849   14.4211 N   0  0  0  0  0  0  0  0  0  0  0  0
   10.5454  -19.3894   15.6132 C   0  0  0  0  0  0  0  0  0  0  0  0
    9.5977  -18.4473   16.2914 C   0  0  0  0  0  0  0  0  0  0  0  0
   10.2171  -17.6617   17.3975 C   0  0  0  0  0  0  0  0  0  0  0  0
   10.0520  -18.2535   18.7459 C   0  0  2  0  0  0  0  0  0  0  0  0
    8.7854  -18.8758   19.0144 N   0  0  0  0  0  0  0  0  0  0  0  0
   10.3912  -17.2618   19.8323 C   0  0  0  0  0  0  0  0  0  0  0  0
   11.4102  -16.5378   19.7093 O   0  0  0  0  0  0  0  0  0  0  0  0
   10.4816  -19.3309   11.8757 N   0  0  0  0  0  0  0  0  0  0  0  0
    9.5882  -17.1232   20.9949 C   0  0  1  0  0  0  0  0  0  0  0  0
    9.9333  -16.1557   22.0454 C   0  0  0  0  0  0  0  0  0  0  0  0
    8.6900  -15.5626   22.6540 C   0  0  0  0  0  0  0  0  0  0  0  0
    8.0109  -14.6214   21.7315 C   0  0  0  0  0  0  0  0  0  0  0  0
    6.8590  -14.9123   21.0335 C   0  0  0  0  0  0  0  0  0  0  0  0
    6.2612  -13.9997   20.1818 C   0  0  0  0  0  0  0  0  0  0  0  0
    6.7986  -12.7430   19.9915 C   0  0  0  0  0  0  0  0  0  0  0  0
    7.9557  -12.4507   20.6926 C   0  0  0  0  0  0  0  0  0  0  0  0
    8.5518  -13.3624   21.5426 C   0  0  0  0  0  0  0  0  0  0  0  0
   10.7238  -16.9113   23.0657 O   0  0  0  0  0  0  0  0  0  0  0  0
   10.2968  -17.9535   23.6252 N   0  0  0  0  0  0  0  0  0  0  0  0
   12.0270  -16.4664   23.4530 C   0  0  1  0  0  0  0  0  0  0  0  0
   12.9801  -17.3217   24.1300 C   0  0  0  0  0  0  0  0  0  0  0  0
   14.4114  -16.8065   23.9461 C   0  0  0  0  0  0  0  0  0  0  0  0
   15.3221  -17.8580   24.5417 C   0  0  0  0  0  0  0  0  0  0  0  0
   16.7739  -17.4361   24.4855 C   0  0  0  0  0  0  0  0  0  0  0  0
   17.6253  -18.5509   25.0543 N   0  0  0  0  0  0  0  0  0  0  0  0
   19.0106  -18.0940   25.0309 C   0  0  0  0  0  0  0  0  0  0  0  0
   12.6177  -17.3167   25.5904 O   0  0  0  0  0  0  0  0  0  0  0  0
   12.5101  -18.3877   26.2491 O   0  0  0  0  0  0  0  0  0  0  0  0
  2  1  1  0
  3  2  2  0
  4  2  1  0
  5  4  1  0
  6  5  1  0
  7  8  1  0
  7  6  1  0
  8  9  1  1
 10  8  1  0
 11 10  2  0
 12 10  1  0
 13 21  1  0
 13 12  1  0
 13 14  1  1
 15 14  1  0
 16 15  2  0
 17 16  1  0
 18 19  1  0
 18 17  2  0
 19 20  2  0
 20 15  1  0
 21 23  1  0
 22 21  2  0
 23 24  1  0
 24 30  1  0
 24 25  1  1
 25 26  1  0
 26 27  1  0
 28 27  1  0
 28 29  1  0
 30 32  1  0
 31 30  2  0
M  END
$$$$
