RFK.pdb
     RDKit          3D

 32 32  0  0  1  0  0  0  0  0999 V2000
    9.5049  -13.0150   18.4723 N   0  0  0  0  0  0  0  0  0  0  0  0
    8.5856  -13.5141   17.4831 C   0  0  0  0  0  0  0  0  0  0  0  0
    7.6602  -12.7437   17.0366 N   0  0  0  0  0  0  0  0  0  0  0  0
    8.7348  -14.8577   17.0282 N   0  0  0  0  0  0  0  0  0  0  0  0
    9.7696  -15.6870   17.6779 C   0  0  0  0  0  0  0  0  0  0  0  0
    9.2373  -16.2815   18.9464 C   0  0  0  0  0  0  0  0  0  0  0  0
   10.2170  -17.1472   19.6639 C   0  0  0  0  0  0  0  0  0  0  0  0
    9.7539  -17.6492   20.9789 C   0  0  2  0  0  0  0  0  0  0  0  0
    8.4992  -18.3489   20.9843 N   0  0  0  0  0  0  0  0  0  0  0  0
    9.7508  -16.5564   22.0202 C   0  0  0  0  0  0  0  0  0  0  0  0
   10.7515  -15.8048   22.1275 O   0  0  0  0  0  0  0  0  0  0  0  0
    6.9573  -12.9665   16.3228 N   0  0  0  0  0  0  0  0  0  0  0  0
    8.6445  -16.3524   22.8862 C   0  0  1  0  0  0  0  0  0  0  0  0
    8.6186  -15.2301   23.8341 C   0  0  0  0  0  0  0  0  0  0  0  0
    7.2417  -15.0571   24.4190 C   0  0  0  0  0  0  0  0  0  0  0  0
    7.1901  -13.9553   25.4097 C   0  0  0  0  0  0  0  0  0  0  0  0
    7.4572  -14.1050   26.7532 C   0  0  0  0  0  0  0  0  0  0  0  0
    7.3952  -13.0450   27.6410 C   0  0  0  0  0  0  0  0  0  0  0  0
    7.0593  -11.7761   27.2151 C   0  0  0  0  0  0  0  0  0  0  0  0
    6.7909  -11.6257   25.8656 C   0  0  0  0  0  0  0  0  0  0  0  0
    6.8530  -12.6845   24.9800 C   0  0  0  0  0  0  0  0  0  0  0  0
    9.6174  -15.5586   24.8977 O   0  0  0  0  0  0  0  0  0  0  0  0
   10.4037  -14.7052   25.3825 N   0  0  0  0  0  0  0  0  0  0  0  0
    9.7183  -16.8879   25.4165 C   0  0  1  0  0  0  0  0  0  0  0  0
   10.5842  -17.2350   26.5246 C   0  0  0  0  0  0  0  0  0  0  0  0
    9.9370  -18.2983   27.4183 C   0  0  0  0  0  0  0  0  0  0  0  0
   10.9397  -18.6050   28.5093 C   0  0  0  0  0  0  0  0  0  0  0  0
   10.4449  -19.6978   29.4312 C   0  0  0  0  0  0  0  0  0  0  0  0
   11.4117  -19.8307   30.5884 N   0  0  0  0  0  0  0  0  0  0  0  0
   10.8197  -20.7607   31.5438 C   0  0  0  0  0  0  0  0  0  0  0  0
   11.8616  -17.7694   25.9357 O   0  0  0  0  0  0  0  0  0  0  0  0
   12.9904  -17.4347   26.3899 O   0  0  0  0  0  0  0  0  0  0  0  0
  2  1  1  0
  3  2  2  0
  4  2  1  0
  5  4  1  0
  6  5  1  0
  7  8  1  0
  7  6  1  0
  8  9  1  6
 10  8  1  0
 11 10  2  0
 12 10  1  0
 13 21  1  0
 13 12  1  0
 13 14  1  6
 15 14  1  0
 16 15  2  0
 17 16  1  0
 18 19  1  0
 18 17  2  0
 19 20  2  0
 20 15  1  0
 21 23  1  0
 22 21  2  0
 23 24  1  0
 24 30  1  0
 24 25  1  6
 25 26  1  0
 26 27  1  0
 28 27  1  0
 28 29  1  0
 30 32  1  0
 31 30  2  0
M  END
$$$$
