RFK.pdb
     RDKit          3D

 32 32  0  0  1  0  0  0  0  0999 V2000
    9.1178  -20.5229   15.9865 N   0  0  0  0  0  0  0  0  0  0  0  0
    8.4311  -19.2683   15.8209 C   0  0  0  0  0  0  0  0  0  0  0  0
    7.2230  -19.2634   15.3854 N   0  0  0  0  0  0  0  0  0  0  0  0
    9.1208  -18.0637   16.1488 N   0  0  0  0  0  0  0  0  0  0  0  0
    8.9535  -17.5323   17.5165 C   0  0  0  0  0  0  0  0  0  0  0  0
    7.6898  -16.7323   17.6114 C   0  0  0  0  0  0  0  0  0  0  0  0
    7.4461  -16.1485   18.9619 C   0  0  0  0  0  0  0  0  0  0  0  0
    8.2349  -16.7642   20.0548 C   0  0  2  0  0  0  0  0  0  0  0  0
    7.7148  -17.9869   20.6009 N   0  0  0  0  0  0  0  0  0  0  0  0
    8.5199  -15.7748   21.1588 C   0  0  0  0  0  0  0  0  0  0  0  0
    9.2123  -14.7568   20.9100 O   0  0  0  0  0  0  0  0  0  0  0  0
    6.6042  -18.4515   15.2801 N   0  0  0  0  0  0  0  0  0  0  0  0
    8.0259  -15.9626   22.4764 C   0  0  1  0  0  0  0  0  0  0  0  0
    8.1245  -14.8974   23.4836 C   0  0  0  0  0  0  0  0  0  0  0  0
    6.7563  -14.4795   23.9541 C   0  0  0  0  0  0  0  0  0  0  0  0
    6.8202  -13.4022   24.9707 C   0  0  0  0  0  0  0  0  0  0  0  0
    7.3449  -12.1486   24.7428 C   0  0  0  0  0  0  0  0  0  0  0  0
    7.3835  -11.1744   25.7252 C   0  0  0  0  0  0  0  0  0  0  0  0
    6.8924  -11.4181   26.9916 C   0  0  0  0  0  0  0  0  0  0  0  0
    6.3654  -12.6774   27.2207 C   0  0  0  0  0  0  0  0  0  0  0  0
    6.3273  -13.6493   26.2393 C   0  0  0  0  0  0  0  0  0  0  0  0
    8.9317  -15.4606   24.6096 O   0  0  0  0  0  0  0  0  0  0  0  0
    9.0084  -14.9088   25.7371 N   0  0  0  0  0  0  0  0  0  0  0  0
    9.6647  -16.6777   24.4427 C   0  0  1  0  0  0  0  0  0  0  0  0
   10.5467  -17.2094   25.4612 C   0  0  0  0  0  0  0  0  0  0  0  0
   10.9565  -18.6503   25.1385 C   0  0  0  0  0  0  0  0  0  0  0  0
    9.6713  -19.4343   24.9856 C   0  0  0  0  0  0  0  0  0  0  0  0
    9.9261  -20.8243   24.4453 C   0  0  0  0  0  0  0  0  0  0  0  0
    8.5946  -21.4839   24.1566 N   0  0  0  0  0  0  0  0  0  0  0  0
    8.8751  -22.7755   23.5391 C   0  0  0  0  0  0  0  0  0  0  0  0
   11.7644  -16.3261   25.4953 O   0  0  0  0  0  0  0  0  0  0  0  0
   12.6697  -16.4803   26.3609 O   0  0  0  0  0  0  0  0  0  0  0  0
  2  1  1  0
  3  2  2  0
  4  2  1  0
  5  4  1  0
  6  5  1  0
  7  8  1  0
  7  6  1  0
  8  9  1  1
 10  8  1  0
 11 10  2  0
 12 10  1  0
 13 21  1  0
 13 12  1  0
 13 14  1  6
 15 14  1  0
 16 15  2  0
 17 16  1  0
 18 19  1  0
 18 17  2  0
 19 20  2  0
 20 15  1  0
 21 23  1  0
 22 21  2  0
 23 24  1  0
 24 30  1  0
 24 25  1  1
 25 26  1  0
 26 27  1  0
 28 27  1  0
 28 29  1  0
 30 32  1  0
 31 30  2  0
M  END
$$$$
