RFK.pdb
     RDKit          3D

 32 32  0  0  1  0  0  0  0  0999 V2000
    7.3755  -14.2911   14.9892 N   0  0  0  0  0  0  0  0  0  0  0  0
    8.4963  -13.5365   15.4864 C   0  0  0  0  0  0  0  0  0  0  0  0
    9.1220  -12.7416   14.6954 N   0  0  0  0  0  0  0  0  0  0  0  0
    8.8768  -13.6980   16.8515 N   0  0  0  0  0  0  0  0  0  0  0  0
    8.3116  -14.8478   17.5859 C   0  0  0  0  0  0  0  0  0  0  0  0
    7.4625  -14.3697   18.7244 C   0  0  0  0  0  0  0  0  0  0  0  0
    8.1819  -14.3105   20.0295 C   0  0  0  0  0  0  0  0  0  0  0  0
    8.1326  -15.5618   20.8216 C   0  0  2  0  0  0  0  0  0  0  0  0
    6.8620  -16.2300   20.8729 N   0  0  0  0  0  0  0  0  0  0  0  0
    8.6759  -15.3580   22.2152 C   0  0  0  0  0  0  0  0  0  0  0  0
    9.8002  -14.8185   22.3653 O   0  0  0  0  0  0  0  0  0  0  0  0
    9.9354  -12.1569   14.9183 N   0  0  0  0  0  0  0  0  0  0  0  0
    7.9496  -15.7605   23.3667 C   0  0  1  0  0  0  0  0  0  0  0  0
    8.5290  -15.6384   24.7113 C   0  0  0  0  0  0  0  0  0  0  0  0
    7.4710  -15.2669   25.7167 C   0  0  0  0  0  0  0  0  0  0  0  0
    7.2455  -13.8027   25.7750 C   0  0  0  0  0  0  0  0  0  0  0  0
    8.1814  -12.8889   26.2084 C   0  0  0  0  0  0  0  0  0  0  0  0
    7.9240  -11.5295   26.2457 C   0  0  0  0  0  0  0  0  0  0  0  0
    6.7043  -11.0228   25.8457 C   0  0  0  0  0  0  0  0  0  0  0  0
    5.7642  -11.9407   25.4103 C   0  0  0  0  0  0  0  0  0  0  0  0
    6.0221  -13.2977   25.3734 C   0  0  0  0  0  0  0  0  0  0  0  0
    9.1296  -16.9705   25.0299 O   0  0  0  0  0  0  0  0  0  0  0  0
    8.5457  -18.0578   24.7884 N   0  0  0  0  0  0  0  0  0  0  0  0
   10.4224  -17.0604   25.6358 C   0  0  1  0  0  0  0  0  0  0  0  0
   11.0556  -18.3242   25.9519 C   0  0  0  0  0  0  0  0  0  0  0  0
   12.5020  -18.3579   25.4473 C   0  0  0  0  0  0  0  0  0  0  0  0
   13.0687  -19.6964   25.8683 C   0  0  0  0  0  0  0  0  0  0  0  0
   14.4909  -19.8775   25.3852 C   0  0  0  0  0  0  0  0  0  0  0  0
   14.9457  -21.2792   25.7311 N   0  0  0  0  0  0  0  0  0  0  0  0
   16.3373  -21.4001   25.3103 C   0  0  0  0  0  0  0  0  0  0  0  0
   11.0322  -18.4669   27.4497 O   0  0  0  0  0  0  0  0  0  0  0  0
   11.4155  -19.5257   28.0195 O   0  0  0  0  0  0  0  0  0  0  0  0
  2  1  1  0
  3  2  2  0
  4  2  1  0
  5  4  1  0
  6  5  1  0
  7  8  1  0
  7  6  1  0
  8  9  1  1
 10  8  1  0
 11 10  2  0
 12 10  1  0
 13 21  1  0
 13 12  1  0
 13 14  1  1
 15 14  1  0
 16 15  2  0
 17 16  1  0
 18 19  1  0
 18 17  2  0
 19 20  2  0
 20 15  1  0
 21 23  1  0
 22 21  2  0
 23 24  1  0
 24 30  1  0
 24 25  1  1
 25 26  1  0
 26 27  1  0
 28 27  1  0
 28 29  1  0
 30 32  1  0
 31 30  2  0
M  END
$$$$
