SWK.pdb
     RDKit          3D

 30 31  0  0  1  0  0  0  0  0999 V2000
   23.6910  -24.3062  -16.0071 O   0  0  0  0  0  0  0  0  0  0  0  0
   24.1025  -23.1590  -16.6451 C   0  0  0  0  0  0  0  0  0  0  0  0
   24.7522  -22.1535  -15.7225 C   0  0  2  0  0  0  0  0  0  0  0  0
   25.9030  -22.7898  -15.0961 N   0  0  0  0  0  0  0  0  0  0  0  0
   23.7781  -21.7934  -14.6720 C   0  0  0  0  0  0  0  0  0  0  0  0
   23.9220  -22.2719  -13.5207 O   0  0  0  0  0  0  0  0  0  0  0  0
   22.6931  -20.9389  -14.8914 N   0  0  0  0  0  0  0  0  0  0  0  0
   21.7675  -20.5628  -13.8416 C   0  0  1  0  0  0  0  0  0  0  0  0
   21.2154  -19.2132  -14.2254 C   0  0  0  0  0  0  0  0  0  0  0  0
   20.3959  -18.5842  -13.1888 C   0  0  0  0  0  0  0  0  0  0  0  0
   20.5204  -18.6543  -11.8126 C   0  0  0  0  0  0  0  0  0  0  0  0
   19.5600  -17.9273  -11.2527 N   0  0  0  0  0  0  0  0  0  0  0  0
   18.7647  -17.3487  -12.1903 C   0  0  0  0  0  0  0  0  0  0  0  0
   17.6683  -16.5290  -12.1328 C   0  0  0  0  0  0  0  0  0  0  0  0
   17.0708  -16.1022  -13.2872 C   0  0  0  0  0  0  0  0  0  0  0  0
   17.5847  -16.5064  -14.5004 C   0  0  0  0  0  0  0  0  0  0  0  0
   18.6842  -17.3283  -14.5528 C   0  0  0  0  0  0  0  0  0  0  0  0
   19.2936  -17.7640  -13.4021 C   0  0  0  0  0  0  0  0  0  0  0  0
   20.7369  -21.5658  -13.5959 C   0  0  0  0  0  0  0  0  0  0  0  0
   20.3986  -22.3270  -14.5382 O   0  0  0  0  0  0  0  0  0  0  0  0
   20.0620  -21.7634  -12.3461 N   0  0  0  0  0  0  0  0  0  0  0  0
   19.1108  -22.8379  -12.1565 C   0  0  1  0  0  0  0  0  0  0  0  0
   19.5333  -23.7321  -10.9956 C   0  0  0  0  0  0  0  0  0  0  0  0
   18.4486  -23.7117   -9.9615 C   0  0  0  0  0  0  0  0  0  0  0  0
   18.7140  -24.5690   -8.7777 C   0  0  0  0  0  0  0  0  0  0  0  0
   17.6437  -24.6139   -7.7431 C   0  0  0  0  0  0  0  0  0  0  0  0
   17.8767  -25.4845   -6.6389 N   0  0  0  0  0  0  0  0  0  0  0  0
   17.7887  -22.2394  -11.8922 C   0  0  0  0  0  0  0  0  0  0  0  0
   16.7951  -22.5697  -12.5788 O   0  0  0  0  0  0  0  0  0  0  0  0
   17.6262  -21.3076  -10.8859 O   0  0  0  0  0  0  0  0  0  0  0  0
  1  2  1  0
  2  3  1  0
  3  5  1  0
  3  4  1  1
  5  6  2  0
  7  8  1  0
  7  5  1  0
  9 10  1  0
  8  9  1  6
 10 11  2  0
 12 11  1  0
 13 12  1  0
 14 13  2  0
 15 14  1  0
 16 15  2  0
 16 17  1  0
 17 18  2  0
 18 13  1  0
 18 10  1  0
 19 20  2  0
 19  8  1  0
 21 19  1  0
 22 21  1  0
 22 28  1  0
 22 23  1  1
 24 23  1  0
 25 24  1  0
 26 25  1  0
 27 26  1  0
 28 29  2  0
 28 30  1  0
M  END
$$$$
