SWK.pdb
     RDKit          3D

 30 31  0  0  1  0  0  0  0  0999 V2000
   27.3454  -18.7765  -14.7698 O   0  0  0  0  0  0  0  0  0  0  0  0
   28.6512  -19.1111  -14.4955 C   0  0  0  0  0  0  0  0  0  0  0  0
   28.8488  -20.5786  -14.1924 C   0  0  2  0  0  0  0  0  0  0  0  0
   28.4881  -21.3399  -15.3805 N   0  0  0  0  0  0  0  0  0  0  0  0
   27.9341  -20.9507  -13.0937 C   0  0  0  0  0  0  0  0  0  0  0  0
   26.8635  -21.5445  -13.3697 O   0  0  0  0  0  0  0  0  0  0  0  0
   28.1984  -20.6757  -11.7483 N   0  0  0  0  0  0  0  0  0  0  0  0
   27.2709  -21.0052  -10.6847 C   0  0  1  0  0  0  0  0  0  0  0  0
   28.0157  -20.7941   -9.3908 C   0  0  0  0  0  0  0  0  0  0  0  0
   27.1551  -20.7156   -8.2098 C   0  0  0  0  0  0  0  0  0  0  0  0
   25.8221  -21.0611   -8.0740 C   0  0  0  0  0  0  0  0  0  0  0  0
   25.4387  -20.8271   -6.8240 N   0  0  0  0  0  0  0  0  0  0  0  0
   26.4583  -20.3285   -6.0770 C   0  0  0  0  0  0  0  0  0  0  0  0
   26.5755  -19.9345   -4.7700 C   0  0  0  0  0  0  0  0  0  0  0  0
   27.7709  -19.4618   -4.3015 C   0  0  0  0  0  0  0  0  0  0  0  0
   28.8480  -19.3883   -5.1582 C   0  0  0  0  0  0  0  0  0  0  0  0
   28.7254  -19.7846   -6.4678 C   0  0  0  0  0  0  0  0  0  0  0  0
   27.5317  -20.2609   -6.9510 C   0  0  0  0  0  0  0  0  0  0  0  0
   26.0171  -20.2631  -10.7634 C   0  0  0  0  0  0  0  0  0  0  0  0
   26.0606  -19.0276  -10.9949 O   0  0  0  0  0  0  0  0  0  0  0  0
   24.7117  -20.8326  -10.5961 N   0  0  0  0  0  0  0  0  0  0  0  0
   23.5476  -20.2720  -11.2489 C   0  0  1  0  0  0  0  0  0  0  0  0
   23.5556  -20.6003  -12.7382 C   0  0  0  0  0  0  0  0  0  0  0  0
   23.5357  -22.0906  -12.8959 C   0  0  0  0  0  0  0  0  0  0  0  0
   23.5711  -22.5585  -14.3054 C   0  0  0  0  0  0  0  0  0  0  0  0
   23.6028  -24.0334  -14.5097 C   0  0  0  0  0  0  0  0  0  0  0  0
   23.6416  -24.4769  -15.8637 N   0  0  0  0  0  0  0  0  0  0  0  0
   22.3452  -20.8319  -10.6035 C   0  0  0  0  0  0  0  0  0  0  0  0
   22.4494  -21.7483   -9.7566 O   0  0  0  0  0  0  0  0  0  0  0  0
   21.0887  -20.3557  -10.9222 O   0  0  0  0  0  0  0  0  0  0  0  0
  1  2  1  0
  2  3  1  0
  3  5  1  0
  3  4  1  6
  5  6  2  0
  7  8  1  0
  7  5  1  0
  9 10  1  0
  8  9  1  1
 10 11  2  0
 12 11  1  0
 13 12  1  0
 14 13  2  0
 15 14  1  0
 16 15  2  0
 16 17  1  0
 17 18  2  0
 18 13  1  0
 18 10  1  0
 19 20  2  0
 19  8  1  0
 21 19  1  0
 22 21  1  0
 22 28  1  0
 22 23  1  6
 24 23  1  0
 25 24  1  0
 26 25  1  0
 27 26  1  0
 28 29  2  0
 28 30  1  0
M  END
$$$$
