SWK.pdb
     RDKit          3D

 30 31  0  0  1  0  0  0  0  0999 V2000
   14.1755  -11.5072  -15.9172 O   0  0  0  0  0  0  0  0  0  0  0  0
   14.9963  -10.9814  -14.9465 C   0  0  0  0  0  0  0  0  0  0  0  0
   16.3947  -10.6805  -15.4347 C   0  0  2  0  0  0  0  0  0  0  0  0
   17.0873  -11.9460  -15.6356 N   0  0  0  0  0  0  0  0  0  0  0  0
   17.0967   -9.9164  -14.3833 C   0  0  0  0  0  0  0  0  0  0  0  0
   17.4301  -10.5040  -13.3257 O   0  0  0  0  0  0  0  0  0  0  0  0
   17.4146   -8.5598  -14.5028 N   0  0  0  0  0  0  0  0  0  0  0  0
   18.0330   -7.8031  -13.4327 C   0  0  1  0  0  0  0  0  0  0  0  0
   19.0466   -6.8964  -14.0841 C   0  0  0  0  0  0  0  0  0  0  0  0
   20.1962   -7.5970  -14.6577 C   0  0  0  0  0  0  0  0  0  0  0  0
   20.6104   -7.6656  -15.9761 C   0  0  0  0  0  0  0  0  0  0  0  0
   21.7070   -8.4117  -16.0479 N   0  0  0  0  0  0  0  0  0  0  0  0
   22.0770   -8.8696  -14.8233 C   0  0  0  0  0  0  0  0  0  0  0  0
   23.1050   -9.6551  -14.3723 C   0  0  0  0  0  0  0  0  0  0  0  0
   23.2099   -9.9481  -13.0400 C   0  0  0  0  0  0  0  0  0  0  0  0
   22.2722   -9.4445  -12.1643 C   0  0  0  0  0  0  0  0  0  0  0  0
   21.2434   -8.6574  -12.6214 C   0  0  0  0  0  0  0  0  0  0  0  0
   21.1263   -8.3557  -13.9557 C   0  0  0  0  0  0  0  0  0  0  0  0
   17.0695   -7.0949  -12.5968 C   0  0  0  0  0  0  0  0  0  0  0  0
   15.9551   -6.7848  -13.0905 O   0  0  0  0  0  0  0  0  0  0  0  0
   17.2878   -6.7137  -11.2316 N   0  0  0  0  0  0  0  0  0  0  0  0
   16.2078   -6.2410  -10.3916 C   0  0  1  0  0  0  0  0  0  0  0  0
   15.1602   -7.3321  -10.1974 C   0  0  0  0  0  0  0  0  0  0  0  0
   14.1388   -6.8403   -9.2169 C   0  0  0  0  0  0  0  0  0  0  0  0
   13.0490   -7.8082   -8.9295 C   0  0  0  0  0  0  0  0  0  0  0  0
   11.9663   -7.3320   -8.0245 C   0  0  0  0  0  0  0  0  0  0  0  0
   10.9869   -8.3001   -7.6571 N   0  0  0  0  0  0  0  0  0  0  0  0
   16.7793   -5.8372   -9.0931 C   0  0  0  0  0  0  0  0  0  0  0  0
   17.8439   -6.3523   -8.6818 O   0  0  0  0  0  0  0  0  0  0  0  0
   16.1509   -4.8872   -8.3122 O   0  0  0  0  0  0  0  0  0  0  0  0
  1  2  1  0
  2  3  1  0
  3  5  1  0
  3  4  1  1
  5  6  2  0
  7  8  1  0
  7  5  1  0
  9 10  1  0
  8  9  1  6
 10 11  2  0
 12 11  1  0
 13 12  1  0
 14 13  2  0
 15 14  1  0
 16 15  2  0
 16 17  1  0
 17 18  2  0
 18 13  1  0
 18 10  1  0
 19 20  2  0
 19  8  1  0
 21 19  1  0
 22 21  1  0
 22 28  1  0
 22 23  1  1
 24 23  1  0
 25 24  1  0
 26 25  1  0
 27 26  1  0
 28 29  2  0
 28 30  1  0
M  END
$$$$
