SWK.pdb
     RDKit          3D

 30 31  0  0  1  0  0  0  0  0999 V2000
   24.5903  -42.6185  -48.5397 O   0  0  0  0  0  0  0  0  0  0  0  0
   25.6011  -41.7423  -48.8605 C   0  0  0  0  0  0  0  0  0  0  0  0
   26.3209  -42.0924  -50.1427 C   0  0  2  0  0  0  0  0  0  0  0  0
   25.3845  -42.7909  -51.0125 N   0  0  0  0  0  0  0  0  0  0  0  0
   27.4345  -43.0052  -49.8129 C   0  0  0  0  0  0  0  0  0  0  0  0
   27.6057  -44.0322  -50.5136 O   0  0  0  0  0  0  0  0  0  0  0  0
   28.3189  -42.7855  -48.7521 N   0  0  0  0  0  0  0  0  0  0  0  0
   29.4688  -41.9102  -48.8596 C   0  0  1  0  0  0  0  0  0  0  0  0
   29.3742  -40.9410  -47.7084 C   0  0  0  0  0  0  0  0  0  0  0  0
   29.9400  -39.6207  -47.9885 C   0  0  0  0  0  0  0  0  0  0  0  0
   29.6133  -38.3941  -47.4380 C   0  0  0  0  0  0  0  0  0  0  0  0
   30.3799  -37.4562  -47.9829 N   0  0  0  0  0  0  0  0  0  0  0  0
   31.2346  -37.9835  -48.8982 C   0  0  0  0  0  0  0  0  0  0  0  0
   32.2005  -37.4541  -49.7131 C   0  0  0  0  0  0  0  0  0  0  0  0
   32.9128  -38.2690  -50.5500 C   0  0  0  0  0  0  0  0  0  0  0  0
   32.6460  -39.6211  -50.5610 C   0  0  0  0  0  0  0  0  0  0  0  0
   31.6765  -40.1470  -49.7420 C   0  0  0  0  0  0  0  0  0  0  0  0
   30.9543  -39.3407  -48.8974 C   0  0  0  0  0  0  0  0  0  0  0  0
   30.7371  -42.6295  -48.9133 C   0  0  0  0  0  0  0  0  0  0  0  0
   31.7541  -42.0991  -48.3974 O   0  0  0  0  0  0  0  0  0  0  0  0
   30.9285  -43.9165  -49.5162 N   0  0  0  0  0  0  0  0  0  0  0  0
   31.4460  -45.0398  -48.7640 C   0  0  1  0  0  0  0  0  0  0  0  0
   31.7877  -44.6209  -47.3380 C   0  0  0  0  0  0  0  0  0  0  0  0
   31.6736  -43.1296  -47.2412 C   0  0  0  0  0  0  0  0  0  0  0  0
   31.3479  -42.6266  -45.8818 C   0  0  0  0  0  0  0  0  0  0  0  0
   30.1616  -41.7323  -45.7767 C   0  0  0  0  0  0  0  0  0  0  0  0
   29.7710  -41.3635  -44.4565 N   0  0  0  0  0  0  0  0  0  0  0  0
   30.4205  -46.1001  -48.7587 C   0  0  0  0  0  0  0  0  0  0  0  0
   30.4770  -47.0402  -49.5838 O   0  0  0  0  0  0  0  0  0  0  0  0
   29.3845  -46.0730  -47.8459 O   0  0  0  0  0  0  0  0  0  0  0  0
  1  2  1  0
  2  3  1  0
  3  5  1  0
  3  4  1  6
  5  6  2  0
  7  8  1  0
  7  5  1  0
  9 10  1  0
  8  9  1  1
 10 11  2  0
 12 11  1  0
 13 12  1  0
 14 13  2  0
 15 14  1  0
 16 15  2  0
 16 17  1  0
 17 18  2  0
 18 13  1  0
 18 10  1  0
 19 20  2  0
 19  8  1  0
 21 19  1  0
 22 21  1  0
 22 28  1  0
 22 23  1  1
 24 23  1  0
 25 24  1  0
 26 25  1  0
 27 26  1  0
 28 29  2  0
 28 30  1  0
M  END
$$$$
