SWK.pdb
     RDKit          3D

 30 31  0  0  1  0  0  0  0  0999 V2000
   26.8484  -19.1109  -14.8152 O   0  0  0  0  0  0  0  0  0  0  0  0
   28.0820  -18.9720  -14.2224 C   0  0  0  0  0  0  0  0  0  0  0  0
   28.5532  -20.2175  -13.5074 C   0  0  2  0  0  0  0  0  0  0  0  0
   28.8623  -21.2271  -14.5107 N   0  0  0  0  0  0  0  0  0  0  0  0
   27.4473  -20.7111  -12.6616 C   0  0  0  0  0  0  0  0  0  0  0  0
   26.8612  -21.7722  -12.9866 O   0  0  0  0  0  0  0  0  0  0  0  0
   27.0130  -20.0548  -11.5057 N   0  0  0  0  0  0  0  0  0  0  0  0
   25.8769  -20.5074  -10.7280 C   0  0  1  0  0  0  0  0  0  0  0  0
   26.0944  -20.0019   -9.3242 C   0  0  0  0  0  0  0  0  0  0  0  0
   27.2938  -20.5327   -8.6752 C   0  0  0  0  0  0  0  0  0  0  0  0
   28.1922  -21.4785   -9.1362 C   0  0  0  0  0  0  0  0  0  0  0  0
   29.1370  -21.6618   -8.2208 N   0  0  0  0  0  0  0  0  0  0  0  0
   28.9320  -20.8758   -7.1315 C   0  0  0  0  0  0  0  0  0  0  0  0
   29.6002  -20.6960   -5.9490 C   0  0  0  0  0  0  0  0  0  0  0  0
   29.1288  -19.8047   -5.0243 C   0  0  0  0  0  0  0  0  0  0  0  0
   27.9795  -19.0952   -5.2983 C   0  0  0  0  0  0  0  0  0  0  0  0
   27.3131  -19.2789   -6.4854 C   0  0  0  0  0  0  0  0  0  0  0  0
   27.7751  -20.1702   -7.4221 C   0  0  0  0  0  0  0  0  0  0  0  0
   24.5939  -20.1107  -11.2982 C   0  0  0  0  0  0  0  0  0  0  0  0
   24.5884  -19.4103  -12.3429 O   0  0  0  0  0  0  0  0  0  0  0  0
   23.3110  -20.4577  -10.7592 N   0  0  0  0  0  0  0  0  0  0  0  0
   22.1611  -20.6746  -11.6113 C   0  0  1  0  0  0  0  0  0  0  0  0
   22.3605  -21.9123  -12.4795 C   0  0  0  0  0  0  0  0  0  0  0  0
   21.2013  -22.0219  -13.4233 C   0  0  0  0  0  0  0  0  0  0  0  0
   21.2730  -23.1804  -14.3504 C   0  0  0  0  0  0  0  0  0  0  0  0
   20.2111  -23.2579  -15.3918 C   0  0  0  0  0  0  0  0  0  0  0  0
   20.3545  -24.2981  -16.3557 N   0  0  0  0  0  0  0  0  0  0  0  0
   20.9748  -20.8345  -10.7493 C   0  0  0  0  0  0  0  0  0  0  0  0
   20.9997  -21.6234   -9.7773 O   0  0  0  0  0  0  0  0  0  0  0  0
   19.8207  -20.1186  -11.0000 O   0  0  0  0  0  0  0  0  0  0  0  0
  1  2  1  0
  2  3  1  0
  3  5  1  0
  3  4  1  6
  5  6  2  0
  7  8  1  0
  7  5  1  0
  9 10  1  0
  8  9  1  1
 10 11  2  0
 12 11  1  0
 13 12  1  0
 14 13  2  0
 15 14  1  0
 16 15  2  0
 16 17  1  0
 17 18  2  0
 18 13  1  0
 18 10  1  0
 19 20  2  0
 19  8  1  0
 21 19  1  0
 22 21  1  0
 22 28  1  0
 22 23  1  1
 24 23  1  0
 25 24  1  0
 26 25  1  0
 27 26  1  0
 28 29  2  0
 28 30  1  0
M  END
$$$$
