SWK.pdb
     RDKit          3D

 30 31  0  0  1  0  0  0  0  0999 V2000
   25.5776  -21.5730  -17.6243 O   0  0  0  0  0  0  0  0  0  0  0  0
   26.9423  -21.4040  -17.6621 C   0  0  0  0  0  0  0  0  0  0  0  0
   27.6930  -22.3349  -16.7378 C   0  0  2  0  0  0  0  0  0  0  0  0
   27.6393  -23.6762  -17.3030 N   0  0  0  0  0  0  0  0  0  0  0  0
   27.0048  -22.3423  -15.4307 C   0  0  0  0  0  0  0  0  0  0  0  0
   26.3200  -23.3441  -15.1106 O   0  0  0  0  0  0  0  0  0  0  0  0
   27.0755  -21.2835  -14.5199 N   0  0  0  0  0  0  0  0  0  0  0  0
   26.4078  -21.3106  -13.2339 C   0  0  1  0  0  0  0  0  0  0  0  0
   27.1056  -20.2897  -12.3711 C   0  0  0  0  0  0  0  0  0  0  0  0
   26.5975  -20.2155  -11.0008 C   0  0  0  0  0  0  0  0  0  0  0  0
   25.3496  -19.8229  -10.5503 C   0  0  0  0  0  0  0  0  0  0  0  0
   25.3199  -19.9090   -9.2252 N   0  0  0  0  0  0  0  0  0  0  0  0
   26.5060  -20.3492   -8.7296 C   0  0  0  0  0  0  0  0  0  0  0  0
   26.9749  -20.6002   -7.4669 C   0  0  0  0  0  0  0  0  0  0  0  0
   28.2549  -21.0490   -7.2880 C   0  0  0  0  0  0  0  0  0  0  0  0
   29.0601  -21.2435   -8.3895 C   0  0  0  0  0  0  0  0  0  0  0  0
   28.5854  -20.9904   -9.6534 C   0  0  0  0  0  0  0  0  0  0  0  0
   27.3030  -20.5397   -9.8473 C   0  0  0  0  0  0  0  0  0  0  0  0
   24.9663  -21.1059  -13.3291 C   0  0  0  0  0  0  0  0  0  0  0  0
   24.5275  -20.2886  -14.1784 O   0  0  0  0  0  0  0  0  0  0  0  0
   23.9855  -21.7703  -12.5209 N   0  0  0  0  0  0  0  0  0  0  0  0
   22.5673  -21.5547  -12.7145 C   0  0  1  0  0  0  0  0  0  0  0  0
   21.7579  -22.3533  -11.6983 C   0  0  0  0  0  0  0  0  0  0  0  0
   20.3011  -22.1311  -11.9717 C   0  0  0  0  0  0  0  0  0  0  0  0
   19.4232  -23.2615  -11.5736 C   0  0  0  0  0  0  0  0  0  0  0  0
   17.9696  -23.0973  -11.8531 C   0  0  0  0  0  0  0  0  0  0  0  0
   17.4711  -23.7836  -12.9986 N   0  0  0  0  0  0  0  0  0  0  0  0
   22.2984  -20.1116  -12.5690 C   0  0  0  0  0  0  0  0  0  0  0  0
   22.6927  -19.4929  -11.5544 O   0  0  0  0  0  0  0  0  0  0  0  0
   21.6092  -19.4218  -13.5470 O   0  0  0  0  0  0  0  0  0  0  0  0
  1  2  1  0
  2  3  1  0
  3  5  1  0
  3  4  1  6
  5  6  2  0
  7  8  1  0
  7  5  1  0
  9 10  1  0
  8  9  1  1
 10 11  2  0
 12 11  1  0
 13 12  1  0
 14 13  2  0
 15 14  1  0
 16 15  2  0
 16 17  1  0
 17 18  2  0
 18 13  1  0
 18 10  1  0
 19 20  2  0
 19  8  1  0
 21 19  1  0
 22 21  1  0
 22 28  1  0
 22 23  1  1
 24 23  1  0
 25 24  1  0
 26 25  1  0
 27 26  1  0
 28 29  2  0
 28 30  1  0
M  END
$$$$
