SWK.pdb
     RDKit          3D

 30 31  0  0  1  0  0  0  0  0999 V2000
   28.0296  -22.3837  -19.0288 O   0  0  0  0  0  0  0  0  0  0  0  0
   27.0724  -22.4630  -18.0440 C   0  0  0  0  0  0  0  0  0  0  0  0
   27.6463  -22.5661  -16.6495 C   0  0  2  0  0  0  0  0  0  0  0  0
   28.2888  -23.8666  -16.5183 N   0  0  0  0  0  0  0  0  0  0  0  0
   26.5311  -22.4876  -15.6839 C   0  0  0  0  0  0  0  0  0  0  0  0
   25.9446  -23.5445  -15.3464 O   0  0  0  0  0  0  0  0  0  0  0  0
   26.0884  -21.2877  -15.1183 N   0  0  0  0  0  0  0  0  0  0  0  0
   24.9597  -21.2186  -14.2119 C   0  0  1  0  0  0  0  0  0  0  0  0
   25.2362  -20.0694  -13.2758 C   0  0  0  0  0  0  0  0  0  0  0  0
   25.5262  -20.4739  -11.8996 C   0  0  0  0  0  0  0  0  0  0  0  0
   26.7321  -20.8472  -11.3331 C   0  0  0  0  0  0  0  0  0  0  0  0
   26.5382  -21.1351  -10.0510 N   0  0  0  0  0  0  0  0  0  0  0  0
   25.2358  -20.9763   -9.6980 C   0  0  0  0  0  0  0  0  0  0  0  0
   24.5405  -21.1404   -8.5288 C   0  0  0  0  0  0  0  0  0  0  0  0
   23.1952  -20.8939   -8.4914 C   0  0  0  0  0  0  0  0  0  0  0  0
   22.5544  -20.4809   -9.6395 C   0  0  0  0  0  0  0  0  0  0  0  0
   23.2560  -20.3178  -10.8092 C   0  0  0  0  0  0  0  0  0  0  0  0
   24.6062  -20.5616  -10.8608 C   0  0  0  0  0  0  0  0  0  0  0  0
   23.6759  -21.1161  -14.8976 C   0  0  0  0  0  0  0  0  0  0  0  0
   23.6191  -20.4783  -15.9801 O   0  0  0  0  0  0  0  0  0  0  0  0
   22.4470  -21.6920  -14.4342 N   0  0  0  0  0  0  0  0  0  0  0  0
   21.2322  -21.6256  -15.2186 C   0  0  1  0  0  0  0  0  0  0  0  0
   20.9099  -22.9860  -15.8276 C   0  0  0  0  0  0  0  0  0  0  0  0
   19.6131  -22.8780  -16.5713 C   0  0  0  0  0  0  0  0  0  0  0  0
   19.1361  -24.1554  -17.1608 C   0  0  0  0  0  0  0  0  0  0  0  0
   17.9169  -24.0738  -18.0121 C   0  0  0  0  0  0  0  0  0  0  0  0
   17.3731  -25.3174  -18.4473 N   0  0  0  0  0  0  0  0  0  0  0  0
   20.1379  -21.1840  -14.3336 C   0  0  0  0  0  0  0  0  0  0  0  0
   19.4727  -20.1601  -14.6110 O   0  0  0  0  0  0  0  0  0  0  0  0
   19.8303  -21.8910  -13.1878 O   0  0  0  0  0  0  0  0  0  0  0  0
  1  2  1  0
  2  3  1  0
  3  5  1  0
  3  4  1  6
  5  6  2  0
  7  8  1  0
  7  5  1  0
  9 10  1  0
  8  9  1  1
 10 11  2  0
 12 11  1  0
 13 12  1  0
 14 13  2  0
 15 14  1  0
 16 15  2  0
 16 17  1  0
 17 18  2  0
 18 13  1  0
 18 10  1  0
 19 20  2  0
 19  8  1  0
 21 19  1  0
 22 21  1  0
 22 28  1  0
 22 23  1  1
 24 23  1  0
 25 24  1  0
 26 25  1  0
 27 26  1  0
 28 29  2  0
 28 30  1  0
M  END
$$$$
