SWK.pdb
     RDKit          3D

 30 31  0  0  1  0  0  0  0  0999 V2000
   27.6138  -19.1055  -15.7999 O   0  0  0  0  0  0  0  0  0  0  0  0
   27.8621  -20.3181  -16.4004 C   0  0  0  0  0  0  0  0  0  0  0  0
   28.5609  -21.3084  -15.4974 C   0  0  2  0  0  0  0  0  0  0  0  0
   28.6982  -22.5645  -16.2218 N   0  0  0  0  0  0  0  0  0  0  0  0
   27.7086  -21.5343  -14.3121 C   0  0  0  0  0  0  0  0  0  0  0  0
   26.6398  -22.1781  -14.4466 O   0  0  0  0  0  0  0  0  0  0  0  0
   28.0308  -21.0661  -13.0344 N   0  0  0  0  0  0  0  0  0  0  0  0
   27.1684  -21.2650  -11.8868 C   0  0  1  0  0  0  0  0  0  0  0  0
   28.0074  -20.9716  -10.6688 C   0  0  0  0  0  0  0  0  0  0  0  0
   27.2317  -20.6644   -9.4666 C   0  0  0  0  0  0  0  0  0  0  0  0
   25.8602  -20.6757   -9.2836 C   0  0  0  0  0  0  0  0  0  0  0  0
   25.5871  -20.3312   -8.0302 N   0  0  0  0  0  0  0  0  0  0  0  0
   26.7215  -20.0781   -7.3265 C   0  0  0  0  0  0  0  0  0  0  0  0
   26.9745  -19.6978   -6.0347 C   0  0  0  0  0  0  0  0  0  0  0  0
   28.2636  -19.5177   -5.6135 C   0  0  0  0  0  0  0  0  0  0  0  0
   29.2970  -19.7231   -6.5021 C   0  0  0  0  0  0  0  0  0  0  0  0
   29.0382  -20.1043   -7.7962 C   0  0  0  0  0  0  0  0  0  0  0  0
   27.7492  -20.2886   -8.2320 C   0  0  0  0  0  0  0  0  0  0  0  0
   25.9378  -20.4837  -11.9490 C   0  0  0  0  0  0  0  0  0  0  0  0
   26.0194  -19.2431  -12.1384 O   0  0  0  0  0  0  0  0  0  0  0  0
   24.6148  -21.0195  -11.8100 N   0  0  0  0  0  0  0  0  0  0  0  0
   23.4449  -20.2753  -12.2256 C   0  0  1  0  0  0  0  0  0  0  0  0
   23.2756  -20.3405  -13.7398 C   0  0  0  0  0  0  0  0  0  0  0  0
   22.0320  -19.5907  -14.1111 C   0  0  0  0  0  0  0  0  0  0  0  0
   21.7395  -19.5716  -15.5674 C   0  0  0  0  0  0  0  0  0  0  0  0
   20.5733  -18.7498  -15.9947 C   0  0  0  0  0  0  0  0  0  0  0  0
   20.2980  -18.7334  -17.3931 N   0  0  0  0  0  0  0  0  0  0  0  0
   22.2686  -20.8539  -11.5494 C   0  0  0  0  0  0  0  0  0  0  0  0
   22.1952  -22.0881  -11.3512 O   0  0  0  0  0  0  0  0  0  0  0  0
   21.2320  -20.0459  -11.1253 O   0  0  0  0  0  0  0  0  0  0  0  0
  1  2  1  0
  2  3  1  0
  3  5  1  0
  3  4  1  6
  5  6  2  0
  7  8  1  0
  7  5  1  0
  9 10  1  0
  8  9  1  1
 10 11  2  0
 12 11  1  0
 13 12  1  0
 14 13  2  0
 15 14  1  0
 16 15  2  0
 16 17  1  0
 17 18  2  0
 18 13  1  0
 18 10  1  0
 19 20  2  0
 19  8  1  0
 21 19  1  0
 22 21  1  0
 22 28  1  0
 22 23  1  6
 24 23  1  0
 25 24  1  0
 26 25  1  0
 27 26  1  0
 28 29  2  0
 28 30  1  0
M  END
$$$$
