SWK.pdb
     RDKit          3D

 30 31  0  0  1  0  0  0  0  0999 V2000
   26.9396  -19.1278  -15.9528 O   0  0  0  0  0  0  0  0  0  0  0  0
   27.9942  -18.8939  -15.1011 C   0  0  0  0  0  0  0  0  0  0  0  0
   28.5947  -20.1540  -14.5214 C   0  0  2  0  0  0  0  0  0  0  0  0
   28.5665  -21.1849  -15.5499 N   0  0  0  0  0  0  0  0  0  0  0  0
   27.7514  -20.5892  -13.3892 C   0  0  0  0  0  0  0  0  0  0  0  0
   26.9267  -21.5180  -13.5683 O   0  0  0  0  0  0  0  0  0  0  0  0
   27.8225  -20.0177  -12.1149 N   0  0  0  0  0  0  0  0  0  0  0  0
   27.0366  -20.4982  -10.9961 C   0  0  1  0  0  0  0  0  0  0  0  0
   27.5377  -19.7639   -9.7782 C   0  0  0  0  0  0  0  0  0  0  0  0
   26.8961  -20.1701   -8.5273 C   0  0  0  0  0  0  0  0  0  0  0  0
   25.6618  -20.7634   -8.3295 C   0  0  0  0  0  0  0  0  0  0  0  0
   25.4788  -20.9603   -7.0287 N   0  0  0  0  0  0  0  0  0  0  0  0
   26.5439  -20.5250   -6.3060 C   0  0  0  0  0  0  0  0  0  0  0  0
   26.8398  -20.5010   -4.9684 C   0  0  0  0  0  0  0  0  0  0  0  0
   28.0304  -19.9813   -4.5394 C   0  0  0  0  0  0  0  0  0  0  0  0
   28.9217  -19.4857   -5.4665 C   0  0  0  0  0  0  0  0  0  0  0  0
   28.6204  -19.5121   -6.8065 C   0  0  0  0  0  0  0  0  0  0  0  0
   27.4292  -20.0307   -7.2507 C   0  0  0  0  0  0  0  0  0  0  0  0
   25.5984  -20.3681  -11.2045 C   0  0  0  0  0  0  0  0  0  0  0  0
   25.1369  -19.2492  -11.5465 O   0  0  0  0  0  0  0  0  0  0  0  0
   24.6451  -21.4283  -11.0500 N   0  0  0  0  0  0  0  0  0  0  0  0
   23.4428  -21.4936  -11.8536 C   0  0  1  0  0  0  0  0  0  0  0  0
   23.0783  -22.9424  -12.1597 C   0  0  0  0  0  0  0  0  0  0  0  0
   21.7906  -22.9560  -12.9266 C   0  0  0  0  0  0  0  0  0  0  0  0
   21.8240  -23.7736  -14.1665 C   0  0  0  0  0  0  0  0  0  0  0  0
   21.4601  -25.2101  -14.0187 C   0  0  0  0  0  0  0  0  0  0  0  0
   21.3720  -25.9609  -15.2271 N   0  0  0  0  0  0  0  0  0  0  0  0
   22.3550  -20.8345  -11.1065 C   0  0  0  0  0  0  0  0  0  0  0  0
   21.5161  -20.1231  -11.7048 O   0  0  0  0  0  0  0  0  0  0  0  0
   22.2448  -20.9911   -9.7388 O   0  0  0  0  0  0  0  0  0  0  0  0
  1  2  1  0
  2  3  1  0
  3  5  1  0
  3  4  1  6
  5  6  2  0
  7  8  1  0
  7  5  1  0
  9 10  1  0
  8  9  1  1
 10 11  2  0
 12 11  1  0
 13 12  1  0
 14 13  2  0
 15 14  1  0
 16 15  2  0
 16 17  1  0
 17 18  2  0
 18 13  1  0
 18 10  1  0
 19 20  2  0
 19  8  1  0
 21 19  1  0
 22 21  1  0
 22 28  1  0
 22 23  1  1
 24 23  1  0
 25 24  1  0
 26 25  1  0
 27 26  1  0
 28 29  2  0
 28 30  1  0
M  END
$$$$
