SWK.pdb
     RDKit          3D

 30 31  0  0  1  0  0  0  0  0999 V2000
   27.0644  -18.9839  -15.3069 O   0  0  0  0  0  0  0  0  0  0  0  0
   28.0877  -18.9131  -14.3903 C   0  0  0  0  0  0  0  0  0  0  0  0
   28.5019  -20.2589  -13.8409 C   0  0  2  0  0  0  0  0  0  0  0  0
   28.7256  -21.1583  -14.9645 N   0  0  0  0  0  0  0  0  0  0  0  0
   27.3900  -20.7866  -13.0240 C   0  0  0  0  0  0  0  0  0  0  0  0
   26.7165  -21.7495  -13.4647 O   0  0  0  0  0  0  0  0  0  0  0  0
   27.0429  -20.2675  -11.7728 N   0  0  0  0  0  0  0  0  0  0  0  0
   25.9258  -20.7703  -10.9986 C   0  0  1  0  0  0  0  0  0  0  0  0
   26.1097  -20.2459   -9.5970 C   0  0  0  0  0  0  0  0  0  0  0  0
   27.3397  -20.6971   -8.9449 C   0  0  0  0  0  0  0  0  0  0  0  0
   28.3044  -21.5742   -9.4080 C   0  0  0  0  0  0  0  0  0  0  0  0
   29.2546  -21.6987   -8.4883 N   0  0  0  0  0  0  0  0  0  0  0  0
   28.9894  -20.9378   -7.3942 C   0  0  0  0  0  0  0  0  0  0  0  0
   29.6371  -20.7216   -6.2063 C   0  0  0  0  0  0  0  0  0  0  0  0
   29.0996  -19.8729   -5.2776 C   0  0  0  0  0  0  0  0  0  0  0  0
   27.9051  -19.2429   -5.5529 C   0  0  0  0  0  0  0  0  0  0  0  0
   27.2596  -19.4630   -6.7454 C   0  0  0  0  0  0  0  0  0  0  0  0
   27.7878  -20.3122   -7.6862 C   0  0  0  0  0  0  0  0  0  0  0  0
   24.6283  -20.4406  -11.5788 C   0  0  0  0  0  0  0  0  0  0  0  0
   24.3676  -19.2359  -11.8290 O   0  0  0  0  0  0  0  0  0  0  0  0
   23.6026  -21.3916  -11.8954 N   0  0  0  0  0  0  0  0  0  0  0  0
   22.3993  -21.0061  -12.6017 C   0  0  1  0  0  0  0  0  0  0  0  0
   21.8413  -22.1825  -13.3958 C   0  0  0  0  0  0  0  0  0  0  0  0
   20.4827  -22.5162  -12.8581 C   0  0  0  0  0  0  0  0  0  0  0  0
   19.8753  -23.7393  -13.4430 C   0  0  0  0  0  0  0  0  0  0  0  0
   18.6099  -23.5474  -14.2045 C   0  0  0  0  0  0  0  0  0  0  0  0
   18.0936  -24.7021  -14.8614 N   0  0  0  0  0  0  0  0  0  0  0  0
   21.4135  -20.5398  -11.6086 C   0  0  0  0  0  0  0  0  0  0  0  0
   20.3627  -19.9685  -11.9790 O   0  0  0  0  0  0  0  0  0  0  0  0
   21.6330  -20.7254  -10.2578 O   0  0  0  0  0  0  0  0  0  0  0  0
  1  2  1  0
  2  3  1  0
  3  5  1  0
  3  4  1  6
  5  6  2  0
  7  8  1  0
  7  5  1  0
  9 10  1  0
  8  9  1  1
 10 11  2  0
 12 11  1  0
 13 12  1  0
 14 13  2  0
 15 14  1  0
 16 15  2  0
 16 17  1  0
 17 18  2  0
 18 13  1  0
 18 10  1  0
 19 20  2  0
 19  8  1  0
 21 19  1  0
 22 21  1  0
 22 28  1  0
 22 23  1  1
 24 23  1  0
 25 24  1  0
 26 25  1  0
 27 26  1  0
 28 29  2  0
 28 30  1  0
M  END
$$$$
