SWK.pdb
     RDKit          3D

 30 31  0  0  1  0  0  0  0  0999 V2000
   27.2464  -19.0624  -15.3449 O   0  0  0  0  0  0  0  0  0  0  0  0
   28.5161  -19.2040  -14.8348 C   0  0  0  0  0  0  0  0  0  0  0  0
   28.8336  -20.6113  -14.3841 C   0  0  2  0  0  0  0  0  0  0  0  0
   28.5433  -21.5173  -15.4870 N   0  0  0  0  0  0  0  0  0  0  0  0
   27.9475  -20.9443  -13.2499 C   0  0  0  0  0  0  0  0  0  0  0  0
   26.8819  -21.5679  -13.4746 O   0  0  0  0  0  0  0  0  0  0  0  0
   28.2339  -20.6000  -11.9252 N   0  0  0  0  0  0  0  0  0  0  0  0
   27.3153  -20.8547  -10.8336 C   0  0  1  0  0  0  0  0  0  0  0  0
   27.9883  -20.3452   -9.5842 C   0  0  0  0  0  0  0  0  0  0  0  0
   27.1910  -20.5030   -8.3672 C   0  0  0  0  0  0  0  0  0  0  0  0
   25.8811  -20.9264   -8.2281 C   0  0  0  0  0  0  0  0  0  0  0  0
   25.5581  -20.9209   -6.9397 N   0  0  0  0  0  0  0  0  0  0  0  0
   26.5980  -20.5076   -6.1689 C   0  0  0  0  0  0  0  0  0  0  0  0
   26.7718  -20.3313   -4.8214 C   0  0  0  0  0  0  0  0  0  0  0  0
   27.9727  -19.8892   -4.3375 C   0  0  0  0  0  0  0  0  0  0  0  0
   28.9980  -19.6256   -5.2200 C   0  0  0  0  0  0  0  0  0  0  0  0
   28.8188  -19.8040   -6.5702 C   0  0  0  0  0  0  0  0  0  0  0  0
   27.6189  -20.2471   -7.0692 C   0  0  0  0  0  0  0  0  0  0  0  0
   25.9886  -20.2888  -11.0534 C   0  0  0  0  0  0  0  0  0  0  0  0
   25.8951  -19.0757  -11.3718 O   0  0  0  0  0  0  0  0  0  0  0  0
   24.7556  -21.0115  -10.9353 N   0  0  0  0  0  0  0  0  0  0  0  0
   23.5549  -20.5851  -11.6222 C   0  0  1  0  0  0  0  0  0  0  0  0
   23.3243  -21.4245  -12.8743 C   0  0  0  0  0  0  0  0  0  0  0  0
   22.0205  -22.1489  -12.7266 C   0  0  0  0  0  0  0  0  0  0  0  0
   21.8717  -23.3305  -13.6147 C   0  0  0  0  0  0  0  0  0  0  0  0
   20.5455  -24.0079  -13.5938 C   0  0  0  0  0  0  0  0  0  0  0  0
   20.4024  -25.1305  -14.4602 N   0  0  0  0  0  0  0  0  0  0  0  0
   22.4194  -20.7244  -10.6911 C   0  0  0  0  0  0  0  0  0  0  0  0
   22.5574  -21.3445   -9.6120 O   0  0  0  0  0  0  0  0  0  0  0  0
   21.1891  -20.1748  -10.9937 O   0  0  0  0  0  0  0  0  0  0  0  0
  1  2  1  0
  2  3  1  0
  3  5  1  0
  3  4  1  6
  5  6  2  0
  7  8  1  0
  7  5  1  0
  9 10  1  0
  8  9  1  1
 10 11  2  0
 12 11  1  0
 13 12  1  0
 14 13  2  0
 15 14  1  0
 16 15  2  0
 16 17  1  0
 17 18  2  0
 18 13  1  0
 18 10  1  0
 19 20  2  0
 19  8  1  0
 21 19  1  0
 22 21  1  0
 22 28  1  0
 22 23  1  6
 24 23  1  0
 25 24  1  0
 26 25  1  0
 27 26  1  0
 28 29  2  0
 28 30  1  0
M  END
$$$$
