SWK.pdb
     RDKit          3D

 30 31  0  0  1  0  0  0  0  0999 V2000
   25.6400  -17.8375  -17.5588 O   0  0  0  0  0  0  0  0  0  0  0  0
   26.7090  -17.3744  -16.8273 C   0  0  0  0  0  0  0  0  0  0  0  0
   27.6565  -18.4654  -16.3837 C   0  0  2  0  0  0  0  0  0  0  0  0
   28.0123  -19.2598  -17.5514 N   0  0  0  0  0  0  0  0  0  0  0  0
   26.9463  -19.3301  -15.4192 C   0  0  0  0  0  0  0  0  0  0  0  0
   26.5309  -20.4513  -15.8002 O   0  0  0  0  0  0  0  0  0  0  0  0
   26.7094  -18.9648  -14.0903 N   0  0  0  0  0  0  0  0  0  0  0  0
   26.1707  -19.8852  -13.1091 C   0  0  1  0  0  0  0  0  0  0  0  0
   26.5965  -19.3649  -11.7595 C   0  0  0  0  0  0  0  0  0  0  0  0
   26.2741  -20.2563  -10.6446 C   0  0  0  0  0  0  0  0  0  0  0  0
   25.7125  -21.5206  -10.6694 C   0  0  0  0  0  0  0  0  0  0  0  0
   25.5960  -21.9679   -9.4241 N   0  0  0  0  0  0  0  0  0  0  0  0
   26.0573  -21.0595   -8.5251 C   0  0  0  0  0  0  0  0  0  0  0  0
   26.1554  -21.0390   -7.1586 C   0  0  0  0  0  0  0  0  0  0  0  0
   26.6807  -19.9457   -6.5258 C   0  0  0  0  0  0  0  0  0  0  0  0
   27.1068  -18.8725   -7.2783 C   0  0  0  0  0  0  0  0  0  0  0  0
   27.0063  -18.8979   -8.6481 C   0  0  0  0  0  0  0  0  0  0  0  0
   26.4811  -19.9886   -9.2960 C   0  0  0  0  0  0  0  0  0  0  0  0
   24.7297  -20.0786  -13.2312 C   0  0  0  0  0  0  0  0  0  0  0  0
   24.0106  -19.0893  -13.5244 O   0  0  0  0  0  0  0  0  0  0  0  0
   24.0476  -21.3259  -13.0419 N   0  0  0  0  0  0  0  0  0  0  0  0
   22.6208  -21.4522  -13.2504 C   0  0  1  0  0  0  0  0  0  0  0  0
   22.2152  -22.9206  -13.3212 C   0  0  0  0  0  0  0  0  0  0  0  0
   20.7340  -22.9940  -13.5381 C   0  0  0  0  0  0  0  0  0  0  0  0
   20.1976  -24.3753  -13.6439 C   0  0  0  0  0  0  0  0  0  0  0  0
   18.9473  -24.6567  -12.8852 C   0  0  0  0  0  0  0  0  0  0  0  0
   18.3615  -25.9387  -13.0976 N   0  0  0  0  0  0  0  0  0  0  0  0
   21.9322  -20.7799  -12.1324 C   0  0  0  0  0  0  0  0  0  0  0  0
   22.2755  -21.0054  -10.9496 O   0  0  0  0  0  0  0  0  0  0  0  0
   20.9007  -19.8935  -12.3718 O   0  0  0  0  0  0  0  0  0  0  0  0
  1  2  1  0
  2  3  1  0
  3  5  1  0
  3  4  1  6
  5  6  2  0
  7  8  1  0
  7  5  1  0
  9 10  1  0
  8  9  1  1
 10 11  2  0
 12 11  1  0
 13 12  1  0
 14 13  2  0
 15 14  1  0
 16 15  2  0
 16 17  1  0
 17 18  2  0
 18 13  1  0
 18 10  1  0
 19 20  2  0
 19  8  1  0
 21 19  1  0
 22 21  1  0
 22 28  1  0
 22 23  1  1
 24 23  1  0
 25 24  1  0
 26 25  1  0
 27 26  1  0
 28 29  2  0
 28 30  1  0
M  END
$$$$
