SWK.pdb
     RDKit          3D

 30 31  0  0  1  0  0  0  0  0999 V2000
   25.9959  -21.0613  -17.2564 O   0  0  0  0  0  0  0  0  0  0  0  0
   27.2710  -20.7403  -16.8519 C   0  0  0  0  0  0  0  0  0  0  0  0
   27.8373  -21.6925  -15.8239 C   0  0  2  0  0  0  0  0  0  0  0  0
   27.9572  -23.0067  -16.4401 N   0  0  0  0  0  0  0  0  0  0  0  0
   26.8827  -21.7801  -14.6998 C   0  0  0  0  0  0  0  0  0  0  0  0
   26.2468  -22.8478  -14.5250 O   0  0  0  0  0  0  0  0  0  0  0  0
   26.6464  -20.7279  -13.8095 N   0  0  0  0  0  0  0  0  0  0  0  0
   25.8187  -20.8719  -12.6288 C   0  0  1  0  0  0  0  0  0  0  0  0
   26.3126  -19.8499  -11.6362 C   0  0  0  0  0  0  0  0  0  0  0  0
   27.4146  -20.3164  -10.7939 C   0  0  0  0  0  0  0  0  0  0  0  0
   28.5413  -21.0376  -11.1473 C   0  0  0  0  0  0  0  0  0  0  0  0
   29.2806  -21.2456  -10.0636 N   0  0  0  0  0  0  0  0  0  0  0  0
   28.7105  -20.6943   -8.9603 C   0  0  0  0  0  0  0  0  0  0  0  0
   29.0634  -20.6317   -7.6379 C   0  0  0  0  0  0  0  0  0  0  0  0
   28.2552  -19.9854   -6.7430 C   0  0  0  0  0  0  0  0  0  0  0  0
   27.0886  -19.4023   -7.1886 C   0  0  0  0  0  0  0  0  0  0  0  0
   26.7392  -19.4678   -8.5156 C   0  0  0  0  0  0  0  0  0  0  0  0
   27.5410  -20.1131   -9.4243 C   0  0  0  0  0  0  0  0  0  0  0  0
   24.3908  -20.7684  -12.9103 C   0  0  0  0  0  0  0  0  0  0  0  0
   23.9788  -19.7939  -13.5903 O   0  0  0  0  0  0  0  0  0  0  0  0
   23.3952  -21.7018  -12.4696 N   0  0  0  0  0  0  0  0  0  0  0  0
   21.9910  -21.5133  -12.7666 C   0  0  1  0  0  0  0  0  0  0  0  0
   21.2103  -22.7986  -12.5135 C   0  0  0  0  0  0  0  0  0  0  0  0
   19.7667  -22.5469  -12.8281 C   0  0  0  0  0  0  0  0  0  0  0  0
   18.8887  -23.7349  -12.6710 C   0  0  0  0  0  0  0  0  0  0  0  0
   17.4558  -23.5479  -13.0313 C   0  0  0  0  0  0  0  0  0  0  0  0
   16.9633  -22.2119  -12.9660 N   0  0  0  0  0  0  0  0  0  0  0  0
   21.4831  -20.4241  -11.9113 C   0  0  0  0  0  0  0  0  0  0  0  0
   21.8823  -20.3075  -10.7302 O   0  0  0  0  0  0  0  0  0  0  0  0
   20.5617  -19.5180  -12.3982 O   0  0  0  0  0  0  0  0  0  0  0  0
  1  2  1  0
  2  3  1  0
  3  5  1  0
  3  4  1  6
  5  6  2  0
  7  8  1  0
  7  5  1  0
  9 10  1  0
  8  9  1  1
 10 11  2  0
 12 11  1  0
 13 12  1  0
 14 13  2  0
 15 14  1  0
 16 15  2  0
 16 17  1  0
 17 18  2  0
 18 13  1  0
 18 10  1  0
 19 20  2  0
 19  8  1  0
 21 19  1  0
 22 21  1  0
 22 28  1  0
 22 23  1  1
 24 23  1  0
 25 24  1  0
 26 25  1  0
 27 26  1  0
 28 29  2  0
 28 30  1  0
M  END
$$$$
