GFE.pdb
     RDKit          3D

 25 25  0  0  1  0  0  0  0  0999 V2000
    9.7277  -16.6668   18.8721 N   0  0  0  0  0  0  0  0  0  0  0  0
    8.6207  -16.8309   19.7699 C   0  0  0  0  0  0  0  0  0  0  0  0
    8.8889  -16.0450   21.0086 C   0  0  0  0  0  0  0  0  0  0  0  0
   10.0634  -15.6842   21.3211 O   0  0  0  0  0  0  0  0  0  0  0  0
    7.8613  -15.6527   21.9107 N   0  0  0  0  0  0  0  0  0  0  0  0
    8.1009  -14.9137   23.1258 C   0  0  1  0  0  0  0  0  0  0  0  0
    6.8105  -14.2184   23.4909 C   0  0  0  0  0  0  0  0  0  0  0  0
    6.8529  -13.5367   24.7846 C   0  0  0  0  0  0  0  0  0  0  0  0
    6.3079  -14.1178   25.9085 C   0  0  0  0  0  0  0  0  0  0  0  0
    6.3403  -13.4842   27.1501 C   0  0  0  0  0  0  0  0  0  0  0  0
    6.9223  -12.2452   27.3005 C   0  0  0  0  0  0  0  0  0  0  0  0
    7.4691  -11.6593   26.1792 C   0  0  0  0  0  0  0  0  0  0  0  0
    7.4349  -12.2930   24.9453 C   0  0  0  0  0  0  0  0  0  0  0  0
    8.6003  -15.8145   24.1606 C   0  0  0  0  0  0  0  0  0  0  0  0
    8.0595  -16.9119   24.4662 O   0  0  0  0  0  0  0  0  0  0  0  0
    9.7728  -15.4626   24.8950 N   0  0  0  0  0  0  0  0  0  0  0  0
   10.5217  -16.3454   25.6966 C   0  0  1  0  0  0  0  0  0  0  0  0
   11.9972  -16.3262   25.5055 C   0  0  0  0  0  0  0  0  0  0  0  0
   12.5323  -16.2329   24.1343 C   0  0  0  0  0  0  0  0  0  0  0  0
   13.9973  -16.1925   24.0165 C   0  0  0  0  0  0  0  0  0  0  0  0
   14.7893  -16.2204   24.9757 O   0  0  0  0  0  0  0  0  0  0  0  0
   10.2142  -16.2668   27.1450 C   0  0  0  0  0  0  0  0  0  0  0  0
   10.7699  -17.0982   27.9075 O   0  0  0  0  0  0  0  0  0  0  0  0
   14.5218  -16.1164   22.7110 O   0  0  0  0  0  0  0  0  0  0  0  0
    9.3592  -15.3430   27.7150 O   0  0  0  0  0  0  0  0  0  0  0  0
  1  2  1  0
  3  5  1  0
  3  2  1  0
  4  3  2  0
  6  5  1  0
  6 14  1  0
  6  7  1  1
  8  7  1  0
  9  8  2  0
 10  9  1  0
 11 12  1  0
 11 10  2  0
 12 13  2  0
 13  8  1  0
 14 16  1  0
 15 14  2  0
 16 17  1  0
 17 22  1  0
 17 18  1  1
 19 18  1  0
 20 19  1  0
 20 24  1  0
 21 20  2  0
 22 23  2  0
 22 25  1  0
M  END
$$$$
