GFE.pdb
     RDKit          3D

 25 25  0  0  1  0  0  0  0  0999 V2000
    6.3013  -18.9486   20.8807 N   0  0  0  0  0  0  0  0  0  0  0  0
    6.2058  -18.8607   22.3096 C   0  0  0  0  0  0  0  0  0  0  0  0
    6.8238  -17.5776   22.7522 C   0  0  0  0  0  0  0  0  0  0  0  0
    7.5607  -16.8969   21.9770 O   0  0  0  0  0  0  0  0  0  0  0  0
    6.6320  -17.0381   24.0544 N   0  0  0  0  0  0  0  0  0  0  0  0
    7.1867  -15.7801   24.4902 C   0  0  1  0  0  0  0  0  0  0  0  0
    6.1777  -15.1400   25.4143 C   0  0  0  0  0  0  0  0  0  0  0  0
    6.5849  -13.8266   25.9139 C   0  0  0  0  0  0  0  0  0  0  0  0
    6.7734  -13.6098   27.2612 C   0  0  0  0  0  0  0  0  0  0  0  0
    7.1629  -12.3656   27.7557 C   0  0  0  0  0  0  0  0  0  0  0  0
    7.3752  -11.2997   26.9101 C   0  0  0  0  0  0  0  0  0  0  0  0
    7.1879  -11.5113   25.5611 C   0  0  0  0  0  0  0  0  0  0  0  0
    6.8003  -12.7508   25.0727 C   0  0  0  0  0  0  0  0  0  0  0  0
    8.4925  -16.0031   25.1040 C   0  0  0  0  0  0  0  0  0  0  0  0
    9.1077  -15.1445   25.7928 O   0  0  0  0  0  0  0  0  0  0  0  0
    9.1454  -17.2611   24.9336 N   0  0  0  0  0  0  0  0  0  0  0  0
   10.5232  -17.4894   25.1139 C   0  0  1  0  0  0  0  0  0  0  0  0
   11.4353  -16.8678   24.1160 C   0  0  0  0  0  0  0  0  0  0  0  0
   12.8915  -16.9830   24.3197 C   0  0  0  0  0  0  0  0  0  0  0  0
   13.7367  -16.3752   23.2814 C   0  0  0  0  0  0  0  0  0  0  0  0
   13.8024  -16.7624   22.1008 O   0  0  0  0  0  0  0  0  0  0  0  0
   11.0184  -17.1952   26.4802 C   0  0  0  0  0  0  0  0  0  0  0  0
   10.7730  -16.0589   26.9599 O   0  0  0  0  0  0  0  0  0  0  0  0
   14.5225  -15.2738   23.6746 O   0  0  0  0  0  0  0  0  0  0  0  0
   11.7311  -18.0833   27.2629 O   0  0  0  0  0  0  0  0  0  0  0  0
  1  2  1  0
  3  5  1  0
  3  2  1  0
  4  3  2  0
  6  5  1  0
  6 14  1  0
  6  7  1  1
  8  7  1  0
  9  8  2  0
 10  9  1  0
 11 12  1  0
 11 10  2  0
 12 13  2  0
 13  8  1  0
 14 16  1  0
 15 14  2  0
 16 17  1  0
 17 22  1  0
 17 18  1  6
 19 18  1  0
 20 19  1  0
 20 24  1  0
 21 20  2  0
 22 23  2  0
 22 25  1  0
M  END
$$$$
