GFE.pdb
     RDKit          3D

 25 25  0  0  1  0  0  0  0  0999 V2000
    9.6888  -16.3429   18.6627 N   0  0  0  0  0  0  0  0  0  0  0  0
    8.5520  -16.5610   19.5104 C   0  0  0  0  0  0  0  0  0  0  0  0
    8.8325  -15.9666   20.8491 C   0  0  0  0  0  0  0  0  0  0  0  0
   10.0116  -15.9045   21.3108 O   0  0  0  0  0  0  0  0  0  0  0  0
    7.8121  -15.4370   21.6868 N   0  0  0  0  0  0  0  0  0  0  0  0
    8.0556  -14.8930   23.0002 C   0  0  1  0  0  0  0  0  0  0  0  0
    6.9587  -13.8938   23.2834 C   0  0  0  0  0  0  0  0  0  0  0  0
    7.0196  -13.3151   24.6257 C   0  0  0  0  0  0  0  0  0  0  0  0
    6.2556  -13.8265   25.6516 C   0  0  0  0  0  0  0  0  0  0  0  0
    6.3015  -13.2894   26.9375 C   0  0  0  0  0  0  0  0  0  0  0  0
    7.1179  -12.2203   27.2322 C   0  0  0  0  0  0  0  0  0  0  0  0
    7.8844  -11.7048   26.2093 C   0  0  0  0  0  0  0  0  0  0  0  0
    7.8360  -12.2420   24.9309 C   0  0  0  0  0  0  0  0  0  0  0  0
    8.1348  -15.9763   23.9758 C   0  0  0  0  0  0  0  0  0  0  0  0
    7.1817  -16.7558   24.2482 O   0  0  0  0  0  0  0  0  0  0  0  0
    9.3529  -16.1962   24.6871 N   0  0  0  0  0  0  0  0  0  0  0  0
    9.4733  -16.9409   25.8760 C   0  0  1  0  0  0  0  0  0  0  0  0
    9.7088  -16.1657   27.1241 C   0  0  0  0  0  0  0  0  0  0  0  0
    9.8334  -16.8970   28.3988 C   0  0  0  0  0  0  0  0  0  0  0  0
   10.9838  -16.5339   29.2394 C   0  0  0  0  0  0  0  0  0  0  0  0
   11.6878  -15.5202   29.0824 O   0  0  0  0  0  0  0  0  0  0  0  0
    8.3767  -17.9130   26.1027 C   0  0  0  0  0  0  0  0  0  0  0  0
    8.6219  -19.1298   25.9012 O   0  0  0  0  0  0  0  0  0  0  0  0
   11.2942  -17.4136   30.2954 O   0  0  0  0  0  0  0  0  0  0  0  0
    7.1038  -17.5741   26.5199 O   0  0  0  0  0  0  0  0  0  0  0  0
  1  2  1  0
  3  5  1  0
  3  2  1  0
  4  3  2  0
  6  5  1  0
  6 14  1  0
  6  7  1  1
  8  7  1  0
  9  8  2  0
 10  9  1  0
 11 12  1  0
 11 10  2  0
 12 13  2  0
 13  8  1  0
 14 16  1  0
 15 14  2  0
 16 17  1  0
 17 22  1  0
 17 18  1  1
 19 18  1  0
 20 19  1  0
 20 24  1  0
 21 20  2  0
 22 23  2  0
 22 25  1  0
M  END
$$$$
