GFE.pdb
     RDKit          3D

 25 25  0  0  1  0  0  0  0  0999 V2000
    9.7178  -16.8251   18.9912 N   0  0  0  0  0  0  0  0  0  0  0  0
    8.6579  -17.0004   19.9422 C   0  0  0  0  0  0  0  0  0  0  0  0
    8.8741  -16.0587   21.0782 C   0  0  0  0  0  0  0  0  0  0  0  0
    9.9900  -15.4842   21.2574 O   0  0  0  0  0  0  0  0  0  0  0  0
    7.8589  -15.7454   22.0242 N   0  0  0  0  0  0  0  0  0  0  0  0
    8.0950  -14.9989   23.2354 C   0  0  1  0  0  0  0  0  0  0  0  0
    6.8019  -14.3063   23.5958 C   0  0  0  0  0  0  0  0  0  0  0  0
    6.8587  -13.5704   24.8590 C   0  0  0  0  0  0  0  0  0  0  0  0
    6.3617  -14.1198   26.0205 C   0  0  0  0  0  0  0  0  0  0  0  0
    6.4085  -13.4344   27.2338 C   0  0  0  0  0  0  0  0  0  0  0  0
    6.9571  -12.1740   27.3172 C   0  0  0  0  0  0  0  0  0  0  0  0
    7.4557  -11.6197   26.1580 C   0  0  0  0  0  0  0  0  0  0  0  0
    7.4073  -12.3049   24.9524 C   0  0  0  0  0  0  0  0  0  0  0  0
    8.5971  -15.8921   24.2753 C   0  0  0  0  0  0  0  0  0  0  0  0
    7.9737  -16.9005   24.7051 O   0  0  0  0  0  0  0  0  0  0  0  0
    9.8709  -15.6381   24.8676 N   0  0  0  0  0  0  0  0  0  0  0  0
   10.5545  -16.5193   25.7273 C   0  0  1  0  0  0  0  0  0  0  0  0
   12.0310  -16.5978   25.5601 C   0  0  0  0  0  0  0  0  0  0  0  0
   12.6621  -15.8288   24.4713 C   0  0  0  0  0  0  0  0  0  0  0  0
   14.0363  -16.2175   24.1214 C   0  0  0  0  0  0  0  0  0  0  0  0
   14.6658  -17.1544   24.6449 O   0  0  0  0  0  0  0  0  0  0  0  0
   10.2328  -16.3446   27.1641 C   0  0  0  0  0  0  0  0  0  0  0  0
   10.6919  -17.1900   27.9740 O   0  0  0  0  0  0  0  0  0  0  0  0
   14.6682  -15.4589   23.1161 O   0  0  0  0  0  0  0  0  0  0  0  0
    9.4633  -15.3169   27.6749 O   0  0  0  0  0  0  0  0  0  0  0  0
  1  2  1  0
  3  5  1  0
  3  2  1  0
  4  3  2  0
  6  5  1  0
  6 14  1  0
  6  7  1  1
  8  7  1  0
  9  8  2  0
 10  9  1  0
 11 12  1  0
 11 10  2  0
 12 13  2  0
 13  8  1  0
 14 16  1  0
 15 14  2  0
 16 17  1  0
 17 22  1  0
 17 18  1  1
 19 18  1  0
 20 19  1  0
 20 24  1  0
 21 20  2  0
 22 23  2  0
 22 25  1  0
M  END
$$$$
