GFE.pdb
     RDKit          3D

 25 25  0  0  1  0  0  0  0  0999 V2000
   10.4427  -17.3064   19.6203 N   0  0  0  0  0  0  0  0  0  0  0  0
    9.1431  -16.9846   20.1361 C   0  0  0  0  0  0  0  0  0  0  0  0
    9.3051  -16.3292   21.4658 C   0  0  0  0  0  0  0  0  0  0  0  0
   10.4258  -16.3040   22.0582 O   0  0  0  0  0  0  0  0  0  0  0  0
    8.2300  -15.6974   22.1504 N   0  0  0  0  0  0  0  0  0  0  0  0
    8.3621  -15.0663   23.4405 C   0  0  1  0  0  0  0  0  0  0  0  0
    7.3160  -13.9794   23.5183 C   0  0  0  0  0  0  0  0  0  0  0  0
    7.2693  -13.2967   24.8115 C   0  0  0  0  0  0  0  0  0  0  0  0
    6.3189  -13.6281   25.7521 C   0  0  0  0  0  0  0  0  0  0  0  0
    6.2598  -12.9898   26.9904 C   0  0  0  0  0  0  0  0  0  0  0  0
    7.1554  -11.9976   27.3217 C   0  0  0  0  0  0  0  0  0  0  0  0
    8.1082  -11.6621   26.3841 C   0  0  0  0  0  0  0  0  0  0  0  0
    8.1638  -12.2996   25.1529 C   0  0  0  0  0  0  0  0  0  0  0  0
    8.2509  -16.0704   24.4945 C   0  0  0  0  0  0  0  0  0  0  0  0
    7.2771  -16.8618   24.6195 O   0  0  0  0  0  0  0  0  0  0  0  0
    9.2915  -16.1921   25.4642 N   0  0  0  0  0  0  0  0  0  0  0  0
    9.4148  -17.2441   26.3920 C   0  0  1  0  0  0  0  0  0  0  0  0
   10.1434  -18.4559   25.9286 C   0  0  0  0  0  0  0  0  0  0  0  0
   11.6057  -18.3786   25.7525 C   0  0  0  0  0  0  0  0  0  0  0  0
   12.2513  -19.5768   25.1961 C   0  0  0  0  0  0  0  0  0  0  0  0
   11.6643  -20.6393   24.9231 O   0  0  0  0  0  0  0  0  0  0  0  0
    9.9400  -16.8334   27.7164 C   0  0  0  0  0  0  0  0  0  0  0  0
   10.3275  -15.6445   27.8495 O   0  0  0  0  0  0  0  0  0  0  0  0
   13.6384  -19.4934   24.9629 O   0  0  0  0  0  0  0  0  0  0  0  0
   10.0331  -17.6668   28.8146 O   0  0  0  0  0  0  0  0  0  0  0  0
  1  2  1  0
  3  5  1  0
  3  2  1  0
  4  3  2  0
  6  5  1  0
  6 14  1  0
  6  7  1  1
  8  7  1  0
  9  8  2  0
 10  9  1  0
 11 12  1  0
 11 10  2  0
 12 13  2  0
 13  8  1  0
 14 16  1  0
 15 14  2  0
 16 17  1  0
 17 22  1  0
 17 18  1  6
 19 18  1  0
 20 19  1  0
 20 24  1  0
 21 20  2  0
 22 23  2  0
 22 25  1  0
M  END
$$$$
