GFE.pdb
     RDKit          3D

 25 25  0  0  1  0  0  0  0  0999 V2000
    8.7531  -17.2408   19.2036 N   0  0  0  0  0  0  0  0  0  0  0  0
    8.0964  -17.4580   20.4606 C   0  0  0  0  0  0  0  0  0  0  0  0
    8.4159  -16.3201   21.3701 C   0  0  0  0  0  0  0  0  0  0  0  0
    9.2460  -15.4213   21.0377 O   0  0  0  0  0  0  0  0  0  0  0  0
    7.8208  -16.1676   22.6531 N   0  0  0  0  0  0  0  0  0  0  0  0
    7.9744  -14.9911   23.4730 C   0  0  1  0  0  0  0  0  0  0  0  0
    6.7399  -14.8806   24.3365 C   0  0  0  0  0  0  0  0  0  0  0  0
    6.7987  -13.7936   25.3139 C   0  0  0  0  0  0  0  0  0  0  0  0
    6.6315  -12.4828   24.9247 C   0  0  0  0  0  0  0  0  0  0  0  0
    6.6825  -11.4339   25.8420 C   0  0  0  0  0  0  0  0  0  0  0  0
    6.9034  -11.6706   27.1805 C   0  0  0  0  0  0  0  0  0  0  0  0
    7.0714  -12.9804   27.5752 C   0  0  0  0  0  0  0  0  0  0  0  0
    7.0200  -14.0216   26.6594 C   0  0  0  0  0  0  0  0  0  0  0  0
    9.2197  -15.0769   24.2303 C   0  0  0  0  0  0  0  0  0  0  0  0
    9.6669  -14.1553   24.9657 O   0  0  0  0  0  0  0  0  0  0  0  0
   10.0087  -16.2643   24.1565 N   0  0  0  0  0  0  0  0  0  0  0  0
   11.3023  -16.4117   24.6929 C   0  0  1  0  0  0  0  0  0  0  0  0
   11.3928  -17.0044   26.0547 C   0  0  0  0  0  0  0  0  0  0  0  0
   10.6250  -18.2295   26.3460 C   0  0  0  0  0  0  0  0  0  0  0  0
   10.8674  -18.8440   27.6596 C   0  0  0  0  0  0  0  0  0  0  0  0
   11.9597  -19.3023   28.0400 O   0  0  0  0  0  0  0  0  0  0  0  0
   12.2623  -17.0980   23.7951 C   0  0  0  0  0  0  0  0  0  0  0  0
   13.4803  -17.0668   24.1065 O   0  0  0  0  0  0  0  0  0  0  0  0
    9.7667  -18.9082   28.5370 O   0  0  0  0  0  0  0  0  0  0  0  0
   11.9110  -17.7697   22.6398 O   0  0  0  0  0  0  0  0  0  0  0  0
  1  2  1  0
  3  5  1  0
  3  2  1  0
  4  3  2  0
  6  5  1  0
  6 14  1  0
  6  7  1  1
  8  7  1  0
  9  8  2  0
 10  9  1  0
 11 12  1  0
 11 10  2  0
 12 13  2  0
 13  8  1  0
 14 16  1  0
 15 14  2  0
 16 17  1  0
 17 22  1  0
 17 18  1  1
 19 18  1  0
 20 19  1  0
 20 24  1  0
 21 20  2  0
 22 23  2  0
 22 25  1  0
M  END
$$$$
