AMH.pdb
     RDKit          3D

 24 24  0  0  1  0  0  0  0  0999 V2000
    7.0088  -15.0601   19.5758 C   0  0  0  0  0  0  0  0  0  0  0  0
    7.3863  -13.7104   20.1166 C   0  0  2  0  0  0  0  0  0  0  0  0
    8.2546  -13.0711   19.1503 N   0  0  0  0  0  0  0  0  0  0  0  0
    8.0829  -13.8643   21.4404 C   0  0  0  0  0  0  0  0  0  0  0  0
    9.3220  -14.0476   21.4096 O   0  0  0  0  0  0  0  0  0  0  0  0
    5.6424  -11.3803   26.9790 C   0  0  0  0  0  0  0  0  0  0  0  0
    6.8706  -12.5446   27.6248 S   0  0  0  0  0  0  0  0  0  0  0  0
    7.8126  -13.3270   26.2959 C   0  0  0  0  0  0  0  0  0  0  0  0
    7.0940  -13.2005   24.9562 C   0  0  0  0  0  0  0  0  0  0  0  0
    7.9813  -13.8916   23.9411 C   0  0  2  0  0  0  0  0  0  0  0  0
    7.3719  -13.8043   22.6510 N   0  0  0  0  0  0  0  0  0  0  0  0
    8.3012  -15.2802   24.2655 C   0  0  0  0  0  0  0  0  0  0  0  0
    7.3978  -16.1415   24.2736 O   0  0  0  0  0  0  0  0  0  0  0  0
    9.6459  -15.7211   24.5857 N   0  0  0  0  0  0  0  0  0  0  0  0
    9.9026  -17.0844   24.9604 C   0  0  1  0  0  0  0  0  0  0  0  0
   11.1109  -17.5954   24.2306 C   0  0  0  0  0  0  0  0  0  0  0  0
   10.7781  -17.7604   22.7949 C   0  0  0  0  0  0  0  0  0  0  0  0
    9.5459  -18.1350   22.2572 C   0  0  0  0  0  0  0  0  0  0  0  0
    9.6720  -18.1667   20.9214 N   0  0  0  0  0  0  0  0  0  0  0  0
   10.9333  -17.8266   20.6142 C   0  0  0  0  0  0  0  0  0  0  0  0
   11.6082  -17.5788   21.7558 N   0  0  0  0  0  0  0  0  0  0  0  0
   10.1964  -17.1942   26.4337 C   0  0  0  0  0  0  0  0  0  0  0  0
   10.1544  -16.0707   27.2404 O   0  0  0  0  0  0  0  0  0  0  0  0
   10.4852  -18.2870   26.9766 O   0  0  0  0  0  0  0  0  0  0  0  0
  2  1  1  6
  3  2  1  0
  4  2  1  0
  5  4  2  0
  6  7  1  0
  8  7  1  0
  9  8  1  0
 10 11  1  0
 10  9  1  1
 11  4  1  0
 12 10  1  0
 13 12  2  0
 14 12  1  0
 15 16  1  6
 15 14  1  0
 16 17  1  0
 17 21  1  0
 18 17  2  0
 18 19  1  0
 19 20  1  0
 21 20  2  0
 22 23  1  0
 22 15  1  0
 24 22  2  0
M  END
$$$$
