AMH.pdb
     RDKit          3D

 24 24  0  0  1  0  0  0  0  0999 V2000
    7.7848  -13.0132   19.9889 C   0  0  0  0  0  0  0  0  0  0  0  0
    8.0170  -14.4347   20.4155 C   0  0  2  0  0  0  0  0  0  0  0  0
    6.7688  -15.1533   20.2667 N   0  0  0  0  0  0  0  0  0  0  0  0
    8.4873  -14.4719   21.8433 C   0  0  0  0  0  0  0  0  0  0  0  0
    9.6607  -14.0913   22.0625 O   0  0  0  0  0  0  0  0  0  0  0  0
    6.0635  -10.8771   26.8489 C   0  0  0  0  0  0  0  0  0  0  0  0
    6.4203  -12.6529   26.8265 S   0  0  0  0  0  0  0  0  0  0  0  0
    6.5648  -13.2837   25.1393 C   0  0  0  0  0  0  0  0  0  0  0  0
    6.8226  -14.7872   25.1282 C   0  0  0  0  0  0  0  0  0  0  0  0
    8.0395  -14.9944   24.2498 C   0  0  2  0  0  0  0  0  0  0  0  0
    7.6454  -14.9137   22.8782 N   0  0  0  0  0  0  0  0  0  0  0  0
    8.7627  -16.2385   24.5044 C   0  0  0  0  0  0  0  0  0  0  0  0
    8.1723  -17.3336   24.4029 O   0  0  0  0  0  0  0  0  0  0  0  0
   10.1645  -16.2687   24.8774 N   0  0  0  0  0  0  0  0  0  0  0  0
   10.8018  -17.5041   25.2415 C   0  0  1  0  0  0  0  0  0  0  0  0
   12.1780  -17.5637   24.6448 C   0  0  0  0  0  0  0  0  0  0  0  0
   12.0657  -17.6074   23.1667 C   0  0  0  0  0  0  0  0  0  0  0  0
   12.0705  -16.5193   22.2927 C   0  0  0  0  0  0  0  0  0  0  0  0
   11.9465  -16.9941   21.0435 N   0  0  0  0  0  0  0  0  0  0  0  0
   11.8654  -18.3318   21.1127 C   0  0  0  0  0  0  0  0  0  0  0  0
   11.9380  -18.7064   22.4068 N   0  0  0  0  0  0  0  0  0  0  0  0
   10.9624  -17.6100   26.7354 C   0  0  0  0  0  0  0  0  0  0  0  0
   11.5603  -18.7243   27.2969 O   0  0  0  0  0  0  0  0  0  0  0  0
   10.5679  -16.7096   27.5141 O   0  0  0  0  0  0  0  0  0  0  0  0
  2  1  1  1
  3  2  1  0
  4  2  1  0
  5  4  2  0
  6  7  1  0
  8  7  1  0
  9  8  1  0
 10 11  1  0
 10  9  1  1
 11  4  1  0
 12 10  1  0
 13 12  2  0
 14 12  1  0
 15 16  1  6
 15 14  1  0
 16 17  1  0
 17 21  1  0
 18 17  2  0
 18 19  1  0
 19 20  1  0
 21 20  2  0
 22 23  1  0
 22 15  1  0
 24 22  2  0
M  END
$$$$
