AMH.pdb
     RDKit          3D

 24 24  0  0  1  0  0  0  0  0999 V2000
    7.9753  -18.6589   20.7896 C   0  0  0  0  0  0  0  0  0  0  0  0
    7.8015  -17.2024   20.4658 C   0  0  2  0  0  0  0  0  0  0  0  0
    8.4454  -16.9496   19.1938 N   0  0  0  0  0  0  0  0  0  0  0  0
    8.4128  -16.3589   21.5503 C   0  0  0  0  0  0  0  0  0  0  0  0
    9.6572  -16.2159   21.5220 O   0  0  0  0  0  0  0  0  0  0  0  0
    7.0630  -11.2669   27.4412 C   0  0  0  0  0  0  0  0  0  0  0  0
    6.3317  -12.4273   26.2580 S   0  0  0  0  0  0  0  0  0  0  0  0
    7.5964  -13.2702   25.2806 C   0  0  0  0  0  0  0  0  0  0  0  0
    6.9739  -14.2609   24.3017 C   0  0  0  0  0  0  0  0  0  0  0  0
    8.1326  -14.9056   23.5688 C   0  0  2  0  0  0  0  0  0  0  0  0
    7.6200  -15.7620   22.5454 N   0  0  0  0  0  0  0  0  0  0  0  0
    9.0618  -15.6334   24.4305 C   0  0  0  0  0  0  0  0  0  0  0  0
    8.6737  -16.6454   25.0497 O   0  0  0  0  0  0  0  0  0  0  0  0
   10.4448  -15.2326   24.6079 N   0  0  0  0  0  0  0  0  0  0  0  0
   11.3167  -15.9677   25.4822 C   0  0  1  0  0  0  0  0  0  0  0  0
   10.5104  -16.6630   26.5405 C   0  0  0  0  0  0  0  0  0  0  0  0
   10.2710  -15.7254   27.6641 C   0  0  0  0  0  0  0  0  0  0  0  0
   10.5011  -14.3489   27.6714 C   0  0  0  0  0  0  0  0  0  0  0  0
   10.1538  -13.8797   28.8799 N   0  0  0  0  0  0  0  0  0  0  0  0
    9.7186  -14.9125   29.6181 C   0  0  0  0  0  0  0  0  0  0  0  0
    9.7899  -16.0380   28.8775 N   0  0  0  0  0  0  0  0  0  0  0  0
   12.0676  -17.0327   24.7268 C   0  0  0  0  0  0  0  0  0  0  0  0
   11.8230  -17.2389   23.3806 O   0  0  0  0  0  0  0  0  0  0  0  0
   12.9274  -17.7605   25.2777 O   0  0  0  0  0  0  0  0  0  0  0  0
  2  1  1  1
  3  2  1  0
  4  2  1  0
  5  4  2  0
  6  7  1  0
  8  7  1  0
  9  8  1  0
 10 11  1  0
 10  9  1  1
 11  4  1  0
 12 10  1  0
 13 12  2  0
 14 12  1  0
 15 16  1  1
 15 14  1  0
 16 17  1  0
 17 21  1  0
 18 17  2  0
 18 19  1  0
 19 20  1  0
 21 20  2  0
 22 23  1  0
 22 15  1  0
 24 22  2  0
M  END
$$$$
