AMH.pdb
     RDKit          3D

 24 24  0  0  1  0  0  0  0  0999 V2000
    7.4100  -13.4958   19.3396 C   0  0  0  0  0  0  0  0  0  0  0  0
    7.8256  -14.7707   20.0166 C   0  0  2  0  0  0  0  0  0  0  0  0
    6.6607  -15.6258   20.1084 N   0  0  0  0  0  0  0  0  0  0  0  0
    8.3761  -14.4704   21.3834 C   0  0  0  0  0  0  0  0  0  0  0  0
    9.5331  -13.9923   21.4347 O   0  0  0  0  0  0  0  0  0  0  0  0
    7.2208  -11.6951   28.4402 C   0  0  0  0  0  0  0  0  0  0  0  0
    6.4196  -12.3779   26.9660 S   0  0  0  0  0  0  0  0  0  0  0  0
    7.5541  -13.4040   26.0041 C   0  0  0  0  0  0  0  0  0  0  0  0
    6.9641  -13.7594   24.6430 C   0  0  0  0  0  0  0  0  0  0  0  0
    8.0795  -14.4311   23.8684 C   0  0  2  0  0  0  0  0  0  0  0  0
    7.6231  -14.7165   22.5441 N   0  0  0  0  0  0  0  0  0  0  0  0
    8.6113  -15.6370   24.4998 C   0  0  0  0  0  0  0  0  0  0  0  0
    7.8499  -16.5918   24.7582 O   0  0  0  0  0  0  0  0  0  0  0  0
   10.0113  -15.7869   24.8498 N   0  0  0  0  0  0  0  0  0  0  0  0
   10.4826  -16.9778   25.5014 C   0  0  1  0  0  0  0  0  0  0  0  0
   11.9233  -17.2146   25.1520 C   0  0  0  0  0  0  0  0  0  0  0  0
   12.0385  -17.4409   23.6910 C   0  0  0  0  0  0  0  0  0  0  0  0
   11.1134  -18.0823   22.8661 C   0  0  0  0  0  0  0  0  0  0  0  0
   11.6018  -18.0751   21.6161 N   0  0  0  0  0  0  0  0  0  0  0  0
   12.7916  -17.4547   21.6376 C   0  0  0  0  0  0  0  0  0  0  0  0
   13.0584  -17.0679   22.9022 N   0  0  0  0  0  0  0  0  0  0  0  0
   10.4075  -16.8404   26.9995 C   0  0  0  0  0  0  0  0  0  0  0  0
   10.7255  -17.9110   27.8165 O   0  0  0  0  0  0  0  0  0  0  0  0
   10.0602  -15.7709   27.5546 O   0  0  0  0  0  0  0  0  0  0  0  0
  2  1  1  1
  3  2  1  0
  4  2  1  0
  5  4  2  0
  6  7  1  0
  8  7  1  0
  9  8  1  0
 10 11  1  0
 10  9  1  1
 11  4  1  0
 12 10  1  0
 13 12  2  0
 14 12  1  0
 15 16  1  1
 15 14  1  0
 16 17  1  0
 17 21  1  0
 18 17  2  0
 18 19  1  0
 19 20  1  0
 21 20  2  0
 22 23  1  0
 22 15  1  0
 24 22  2  0
M  END
$$$$
