AMH.pdb
     RDKit          3D

 24 24  0  0  1  0  0  0  0  0999 V2000
    7.1678  -16.8742   20.5780 C   0  0  0  0  0  0  0  0  0  0  0  0
    7.2070  -15.3889   20.7990 C   0  0  2  0  0  0  0  0  0  0  0  0
    7.8512  -14.7853   19.6514 N   0  0  0  0  0  0  0  0  0  0  0  0
    7.9634  -15.0775   22.0608 C   0  0  0  0  0  0  0  0  0  0  0  0
    9.2053  -14.9468   21.9582 O   0  0  0  0  0  0  0  0  0  0  0  0
    7.5482  -10.7122   27.2843 C   0  0  0  0  0  0  0  0  0  0  0  0
    6.2413  -11.6534   26.4550 S   0  0  0  0  0  0  0  0  0  0  0  0
    6.8992  -12.6713   25.1148 C   0  0  0  0  0  0  0  0  0  0  0  0
    7.0202  -14.1328   25.5347 C   0  0  0  0  0  0  0  0  0  0  0  0
    7.9722  -14.7728   24.5451 C   0  0  2  0  0  0  0  0  0  0  0  0
    7.3025  -14.9405   23.2934 N   0  0  0  0  0  0  0  0  0  0  0  0
    8.5478  -16.0389   24.9938 C   0  0  0  0  0  0  0  0  0  0  0  0
    7.8232  -17.0502   25.0968 O   0  0  0  0  0  0  0  0  0  0  0  0
    9.9506  -16.1863   25.3335 N   0  0  0  0  0  0  0  0  0  0  0  0
   10.4657  -17.4440   25.8003 C   0  0  1  0  0  0  0  0  0  0  0  0
   11.9305  -17.5434   25.4872 C   0  0  0  0  0  0  0  0  0  0  0  0
   12.1159  -17.5238   24.0160 C   0  0  0  0  0  0  0  0  0  0  0  0
   11.2311  -18.0105   23.0527 C   0  0  0  0  0  0  0  0  0  0  0  0
   11.7792  -17.7991   21.8460 N   0  0  0  0  0  0  0  0  0  0  0  0
   12.9670  -17.2014   22.0272 C   0  0  0  0  0  0  0  0  0  0  0  0
   13.1728  -17.0333   23.3499 N   0  0  0  0  0  0  0  0  0  0  0  0
   10.3233  -17.5654   27.2948 C   0  0  0  0  0  0  0  0  0  0  0  0
    9.7049  -16.5636   28.0218 O   0  0  0  0  0  0  0  0  0  0  0  0
   10.7517  -18.5601   27.9270 O   0  0  0  0  0  0  0  0  0  0  0  0
  2  1  1  6
  3  2  1  0
  4  2  1  0
  5  4  2  0
  6  7  1  0
  8  7  1  0
  9  8  1  0
 10 11  1  0
 10  9  1  1
 11  4  1  0
 12 10  1  0
 13 12  2  0
 14 12  1  0
 15 16  1  1
 15 14  1  0
 16 17  1  0
 17 21  1  0
 18 17  2  0
 18 19  1  0
 19 20  1  0
 21 20  2  0
 22 23  1  0
 22 15  1  0
 24 22  2  0
M  END
$$$$
