AMH.pdb
     RDKit          3D

 24 24  0  0  1  0  0  0  0  0999 V2000
    7.3535  -17.4246   20.4048 C   0  0  0  0  0  0  0  0  0  0  0  0
    7.8325  -16.0090   20.2519 C   0  0  2  0  0  0  0  0  0  0  0  0
    8.7687  -15.9731   19.1479 N   0  0  0  0  0  0  0  0  0  0  0  0
    8.4896  -15.5492   21.5240 C   0  0  0  0  0  0  0  0  0  0  0  0
    9.7182  -15.7672   21.6368 O   0  0  0  0  0  0  0  0  0  0  0  0
    5.8165  -12.2807   27.3779 C   0  0  0  0  0  0  0  0  0  0  0  0
    7.1898  -11.5771   26.4292 S   0  0  0  0  0  0  0  0  0  0  0  0
    8.1495  -12.8593   25.5923 C   0  0  0  0  0  0  0  0  0  0  0  0
    7.4303  -13.3681   24.3469 C   0  0  0  0  0  0  0  0  0  0  0  0
    8.3189  -14.4487   23.7655 C   0  0  2  0  0  0  0  0  0  0  0  0
    7.7545  -14.9059   22.5343 N   0  0  0  0  0  0  0  0  0  0  0  0
    8.5690  -15.5730   24.6651 C   0  0  0  0  0  0  0  0  0  0  0  0
    7.6243  -16.3066   25.0221 O   0  0  0  0  0  0  0  0  0  0  0  0
    9.8893  -15.8894   25.1768 N   0  0  0  0  0  0  0  0  0  0  0  0
   10.1030  -17.0563   25.9877 C   0  0  1  0  0  0  0  0  0  0  0  0
   11.4191  -17.6875   25.6368 C   0  0  0  0  0  0  0  0  0  0  0  0
   11.3591  -18.1957   24.2449 C   0  0  0  0  0  0  0  0  0  0  0  0
   10.2496  -18.7431   23.5991 C   0  0  0  0  0  0  0  0  0  0  0  0
   10.6213  -19.0766   22.3534 N   0  0  0  0  0  0  0  0  0  0  0  0
   11.9162  -18.7566   22.2056 C   0  0  0  0  0  0  0  0  0  0  0  0
   12.3666  -18.2196   23.3584 N   0  0  0  0  0  0  0  0  0  0  0  0
   10.1607  -16.6962   27.4491 C   0  0  0  0  0  0  0  0  0  0  0  0
    9.9721  -15.3866   27.8542 O   0  0  0  0  0  0  0  0  0  0  0  0
   10.3779  -17.5525   28.3390 O   0  0  0  0  0  0  0  0  0  0  0  0
  2  1  1  1
  3  2  1  0
  4  2  1  0
  5  4  2  0
  6  7  1  0
  8  7  1  0
  9  8  1  0
 10 11  1  0
 10  9  1  1
 11  4  1  0
 12 10  1  0
 13 12  2  0
 14 12  1  0
 15 16  1  6
 15 14  1  0
 16 17  1  0
 17 21  1  0
 18 17  2  0
 18 19  1  0
 19 20  1  0
 21 20  2  0
 22 23  1  0
 22 15  1  0
 24 22  2  0
M  END
$$$$
