AMH.pdb
     RDKit          3D

 24 24  0  0  1  0  0  0  0  0999 V2000
    7.4832  -15.0537   19.8641 C   0  0  0  0  0  0  0  0  0  0  0  0
    7.6080  -13.7413   20.5842 C   0  0  2  0  0  0  0  0  0  0  0  0
    8.5530  -12.9219   19.8547 N   0  0  0  0  0  0  0  0  0  0  0  0
    8.0784  -13.9719   21.9938 C   0  0  0  0  0  0  0  0  0  0  0  0
    9.3171  -13.9938   22.1803 O   0  0  0  0  0  0  0  0  0  0  0  0
    6.8565  -10.2406   27.1432 C   0  0  0  0  0  0  0  0  0  0  0  0
    6.9427  -12.0456   27.0177 S   0  0  0  0  0  0  0  0  0  0  0  0
    6.3738  -12.6308   25.4055 C   0  0  0  0  0  0  0  0  0  0  0  0
    6.4076  -14.1537   25.3233 C   0  0  0  0  0  0  0  0  0  0  0  0
    7.5453  -14.4947   24.3827 C   0  0  2  0  0  0  0  0  0  0  0  0
    7.1663  -14.1532   23.0474 N   0  0  0  0  0  0  0  0  0  0  0  0
    7.9888  -15.8854   24.4514 C   0  0  0  0  0  0  0  0  0  0  0  0
    7.2375  -16.7988   24.0520 O   0  0  0  0  0  0  0  0  0  0  0  0
    9.2876  -16.2698   24.9713 N   0  0  0  0  0  0  0  0  0  0  0  0
    9.6082  -17.6518   25.2000 C   0  0  1  0  0  0  0  0  0  0  0  0
    9.5967  -18.4004   23.8989 C   0  0  0  0  0  0  0  0  0  0  0  0
   10.5853  -17.7897   22.9776 C   0  0  0  0  0  0  0  0  0  0  0  0
   11.3444  -16.6407   23.2039 C   0  0  0  0  0  0  0  0  0  0  0  0
   12.1105  -16.4336   22.1215 N   0  0  0  0  0  0  0  0  0  0  0  0
   11.8537  -17.4094   21.2369 C   0  0  0  0  0  0  0  0  0  0  0  0
   10.9240  -18.2365   21.7581 N   0  0  0  0  0  0  0  0  0  0  0  0
   10.9898  -17.7973   25.7821 C   0  0  0  0  0  0  0  0  0  0  0  0
   11.4707  -19.0451   26.1375 O   0  0  0  0  0  0  0  0  0  0  0  0
   11.7440  -16.8122   25.9640 O   0  0  0  0  0  0  0  0  0  0  0  0
  2  1  1  6
  3  2  1  0
  4  2  1  0
  5  4  2  0
  6  7  1  0
  8  7  1  0
  9  8  1  0
 10 11  1  0
 10  9  1  1
 11  4  1  0
 12 10  1  0
 13 12  2  0
 14 12  1  0
 15 16  1  6
 15 14  1  0
 16 17  1  0
 17 21  1  0
 18 17  2  0
 18 19  1  0
 19 20  1  0
 21 20  2  0
 22 23  1  0
 22 15  1  0
 24 22  2  0
M  END
$$$$
