AMH.pdb
     RDKit          3D

 24 24  0  0  1  0  0  0  0  0999 V2000
    8.0948  -17.6732   20.3320 C   0  0  0  0  0  0  0  0  0  0  0  0
    8.3380  -16.1908   20.3317 C   0  0  2  0  0  0  0  0  0  0  0  0
    9.3611  -15.9081   19.3469 N   0  0  0  0  0  0  0  0  0  0  0  0
    8.7748  -15.7421   21.6989 C   0  0  0  0  0  0  0  0  0  0  0  0
   10.0080  -15.7175   21.9191 O   0  0  0  0  0  0  0  0  0  0  0  0
    7.0294  -11.2919   27.7893 C   0  0  0  0  0  0  0  0  0  0  0  0
    6.2783  -12.4876   26.6547 S   0  0  0  0  0  0  0  0  0  0  0  0
    7.5209  -13.5517   25.8873 C   0  0  0  0  0  0  0  0  0  0  0  0
    7.0386  -14.0902   24.5440 C   0  0  0  0  0  0  0  0  0  0  0  0
    8.1905  -14.8978   23.9815 C   0  0  2  0  0  0  0  0  0  0  0  0
    7.8389  -15.3690   22.6786 N   0  0  0  0  0  0  0  0  0  0  0  0
    8.6210  -16.0068   24.8303 C   0  0  0  0  0  0  0  0  0  0  0  0
    7.7925  -16.8620   25.2049 O   0  0  0  0  0  0  0  0  0  0  0  0
    9.9938  -16.1706   25.2706 N   0  0  0  0  0  0  0  0  0  0  0  0
   10.3477  -17.2033   26.2050 C   0  0  1  0  0  0  0  0  0  0  0  0
   11.7665  -17.6361   25.9740 C   0  0  0  0  0  0  0  0  0  0  0  0
   11.8461  -18.3786   24.6928 C   0  0  0  0  0  0  0  0  0  0  0  0
   10.8168  -19.0826   24.0661 C   0  0  0  0  0  0  0  0  0  0  0  0
   11.3075  -19.6070   22.9324 N   0  0  0  0  0  0  0  0  0  0  0  0
   12.5986  -19.2543   22.8352 C   0  0  0  0  0  0  0  0  0  0  0  0
   12.9276  -18.5055   23.9081 N   0  0  0  0  0  0  0  0  0  0  0  0
   10.2633  -16.7019   27.6228 C   0  0  0  0  0  0  0  0  0  0  0  0
    9.8808  -15.3975   27.8813 O   0  0  0  0  0  0  0  0  0  0  0  0
   10.5314  -17.4329   28.6058 O   0  0  0  0  0  0  0  0  0  0  0  0
  2  1  1  1
  3  2  1  0
  4  2  1  0
  5  4  2  0
  6  7  1  0
  8  7  1  0
  9  8  1  0
 10 11  1  0
 10  9  1  1
 11  4  1  0
 12 10  1  0
 13 12  2  0
 14 12  1  0
 15 16  1  6
 15 14  1  0
 16 17  1  0
 17 21  1  0
 18 17  2  0
 18 19  1  0
 19 20  1  0
 21 20  2  0
 22 23  1  0
 22 15  1  0
 24 22  2  0
M  END
$$$$
