NLC.pdb
     RDKit          3D

 23 22  0  0  1  0  0  0  0  0999 V2000
   22.7940  -37.5537  -15.8392 N   0  0  0  0  0  0  0  0  0  0  0  0
   22.3650  -36.6807  -14.7973 C   0  0  0  0  0  0  0  0  0  0  0  0
   21.2157  -36.7814  -14.3246 O   0  0  0  0  0  0  0  0  0  0  0  0
   23.2805  -35.6372  -14.2600 C   0  0  0  0  0  0  0  0  0  0  0  0
   22.7261  -34.2818  -14.4307 C   0  0  2  0  0  0  0  0  0  0  0  0
   23.2115  -33.6891  -15.6927 N   0  0  0  0  0  0  0  0  0  0  0  0
   23.1679  -33.2813  -13.3994 C   0  0  0  0  0  0  0  0  0  0  0  0
   24.3956  -32.9341  -13.5733 O   0  0  0  0  0  0  0  0  0  0  0  0
   20.7768  -28.6516  -10.3508 C   0  0  0  0  0  0  0  0  0  0  0  0
   21.9474  -29.5390  -10.5287 C   0  0  1  0  0  0  0  0  0  0  0  0
   22.6010  -29.6964   -9.1565 C   0  0  0  0  0  0  0  0  0  0  0  0
   21.7816  -30.8119  -11.2344 C   0  0  0  0  0  0  0  0  0  0  0  0
   22.8697  -31.7661  -11.4404 C   0  0  2  0  0  0  0  0  0  0  0  0
   22.3391  -32.8007  -12.3831 N   0  0  0  0  0  0  0  0  0  0  0  0
   23.4246  -32.5403  -10.3318 C   0  0  0  0  0  0  0  0  0  0  0  0
   22.7931  -33.5257   -9.8002 O   0  0  0  0  0  0  0  0  0  0  0  0
   24.7121  -32.3149   -9.7202 N   0  0  0  0  0  0  0  0  0  0  0  0
   25.1652  -33.1114   -8.6251 C   0  0  1  0  0  0  0  0  0  0  0  0
   26.6528  -32.8722   -8.3354 C   0  0  0  0  0  0  0  0  0  0  0  0
   27.2154  -34.0442   -7.0738 S   0  0  0  0  0  0  0  0  0  0  0  0
   24.3884  -32.9278   -7.3828 C   0  0  0  0  0  0  0  0  0  0  0  0
   23.8900  -34.0547   -6.7258 O   0  0  0  0  0  0  0  0  0  0  0  0
   24.1318  -31.8254   -6.8548 O   0  0  0  0  0  0  0  0  0  0  0  0
  2  1  1  0
  2  3  2  0
  4  2  1  0
  5  4  1  0
  5  6  1  6
  7  5  1  0
  7  8  2  0
 10  9  1  1
 10 12  1  0
 11 10  1  0
 13 12  1  1
 13 15  1  0
 13 14  1  0
 14  7  1  0
 15 17  1  0
 16 15  2  0
 17 18  1  0
 18 21  1  0
 19 20  1  0
 18 19  1  1
 21 23  2  0
 21 22  1  0
M  END
$$$$
