NLC.pdb
     RDKit          3D

 23 22  0  0  1  0  0  0  0  0999 V2000
   19.3128  -13.2808  -20.3185 N   0  0  0  0  0  0  0  0  0  0  0  0
   18.6439  -12.2638  -19.5769 C   0  0  0  0  0  0  0  0  0  0  0  0
   17.5439  -11.8224  -19.9641 O   0  0  0  0  0  0  0  0  0  0  0  0
   19.2477  -11.7140  -18.3324 C   0  0  0  0  0  0  0  0  0  0  0  0
   20.5901  -12.2702  -18.0831 C   0  0  2  0  0  0  0  0  0  0  0  0
   20.4800  -13.6138  -17.4812 N   0  0  0  0  0  0  0  0  0  0  0  0
   21.4110  -11.5175  -17.0734 C   0  0  0  0  0  0  0  0  0  0  0  0
   21.0680  -11.8156  -15.8687 O   0  0  0  0  0  0  0  0  0  0  0  0
   25.8828  -10.2000  -14.4589 C   0  0  0  0  0  0  0  0  0  0  0  0
   25.7368   -9.7195  -15.8508 C   0  0  1  0  0  0  0  0  0  0  0  0
   27.0931   -9.9013  -16.5305 C   0  0  0  0  0  0  0  0  0  0  0  0
   24.6184  -10.2043  -16.6631 C   0  0  0  0  0  0  0  0  0  0  0  0
   23.2160   -9.9663  -16.3266 C   0  0  2  0  0  0  0  0  0  0  0  0
   22.4148  -10.6086  -17.4155 N   0  0  0  0  0  0  0  0  0  0  0  0
   22.6741   -8.6121  -16.2321 C   0  0  0  0  0  0  0  0  0  0  0  0
   22.6089   -7.8275  -17.2483 O   0  0  0  0  0  0  0  0  0  0  0  0
   22.1495   -8.0062  -15.0320 N   0  0  0  0  0  0  0  0  0  0  0  0
   21.6521   -6.6678  -15.0305 C   0  0  1  0  0  0  0  0  0  0  0  0
   20.2948   -6.5747  -14.3213 C   0  0  0  0  0  0  0  0  0  0  0  0
   19.1620   -7.7990  -15.0284 S   0  0  0  0  0  0  0  0  0  0  0  0
   22.5798   -5.6795  -14.4447 C   0  0  0  0  0  0  0  0  0  0  0  0
   22.2569   -4.3230  -14.5207 O   0  0  0  0  0  0  0  0  0  0  0  0
   23.6548   -5.9574  -13.8728 O   0  0  0  0  0  0  0  0  0  0  0  0
  2  1  1  0
  2  3  2  0
  4  2  1  0
  5  4  1  0
  5  6  1  1
  7  5  1  0
  7  8  2  0
 10  9  1  1
 10 12  1  0
 11 10  1  0
 13 12  1  6
 13 15  1  0
 13 14  1  0
 14  7  1  0
 15 17  1  0
 16 15  2  0
 17 18  1  0
 18 21  1  0
 19 20  1  0
 18 19  1  1
 21 23  2  0
 21 22  1  0
M  END
$$$$
