NLC.pdb
     RDKit          3D

 23 22  0  0  1  0  0  0  0  0999 V2000
   19.6218  -13.4477  -17.5970 N   0  0  0  0  0  0  0  0  0  0  0  0
   20.7965  -13.4343  -18.4042 C   0  0  0  0  0  0  0  0  0  0  0  0
   21.0859  -14.4197  -19.1113 O   0  0  0  0  0  0  0  0  0  0  0  0
   21.6938  -12.2467  -18.4144 C   0  0  0  0  0  0  0  0  0  0  0  0
   21.1233  -11.1229  -17.6494 C   0  0  2  0  0  0  0  0  0  0  0  0
   19.9699  -10.5500  -18.3712 N   0  0  0  0  0  0  0  0  0  0  0  0
   22.0360   -9.9398  -17.4845 C   0  0  0  0  0  0  0  0  0  0  0  0
   23.0625  -10.2317  -16.7641 O   0  0  0  0  0  0  0  0  0  0  0  0
   25.4506   -5.9848  -18.4122 C   0  0  0  0  0  0  0  0  0  0  0  0
   24.1314   -5.9094  -19.0784 C   0  0  1  0  0  0  0  0  0  0  0  0
   24.3841   -5.4751  -20.5214 C   0  0  0  0  0  0  0  0  0  0  0  0
   23.2094   -7.0428  -18.9736 C   0  0  0  0  0  0  0  0  0  0  0  0
   22.6883   -7.5421  -17.7023 C   0  0  2  0  0  0  0  0  0  0  0  0
   21.7859   -8.6857  -18.0461 N   0  0  0  0  0  0  0  0  0  0  0  0
   21.8800   -6.6971  -16.8253 C   0  0  0  0  0  0  0  0  0  0  0  0
   20.6403   -6.4526  -17.0611 O   0  0  0  0  0  0  0  0  0  0  0  0
   22.3487   -6.0604  -15.6180 N   0  0  0  0  0  0  0  0  0  0  0  0
   21.5054   -5.1940  -14.8583 C   0  0  1  0  0  0  0  0  0  0  0  0
   20.4568   -5.9854  -14.0657 C   0  0  0  0  0  0  0  0  0  0  0  0
   21.2816   -7.2803  -13.1041 S   0  0  0  0  0  0  0  0  0  0  0  0
   22.2335   -4.2924  -13.9432 C   0  0  0  0  0  0  0  0  0  0  0  0
   21.5074   -3.3780  -13.1773 O   0  0  0  0  0  0  0  0  0  0  0  0
   23.4730   -4.2757  -13.7901 O   0  0  0  0  0  0  0  0  0  0  0  0
  2  1  1  0
  2  3  2  0
  4  2  1  0
  5  4  1  0
  5  6  1  6
  7  5  1  0
  7  8  2  0
 10  9  1  6
 10 12  1  0
 11 10  1  0
 13 12  1  6
 13 15  1  0
 13 14  1  0
 14  7  1  0
 15 17  1  0
 16 15  2  0
 17 18  1  0
 18 21  1  0
 19 20  1  0
 18 19  1  1
 21 23  2  0
 21 22  1  0
M  END
$$$$
