NLC.pdb
     RDKit          3D

 23 22  0  0  1  0  0  0  0  0999 V2000
   18.3472  -12.3474  -20.2367 N   0  0  0  0  0  0  0  0  0  0  0  0
   18.1898  -10.9709  -19.9019 C   0  0  0  0  0  0  0  0  0  0  0  0
   17.4497  -10.2371  -20.5864 O   0  0  0  0  0  0  0  0  0  0  0  0
   18.9057  -10.3899  -18.7334 C   0  0  0  0  0  0  0  0  0  0  0  0
   19.8097  -11.3691  -18.1029 C   0  0  2  0  0  0  0  0  0  0  0  0
   19.0296  -12.3646  -17.3413 N   0  0  0  0  0  0  0  0  0  0  0  0
   20.7339  -10.8009  -17.0623 C   0  0  0  0  0  0  0  0  0  0  0  0
   20.1595  -10.7219  -15.9127 O   0  0  0  0  0  0  0  0  0  0  0  0
   26.5587  -10.8574  -15.5278 C   0  0  0  0  0  0  0  0  0  0  0  0
   25.2684  -10.1504  -15.3705 C   0  0  1  0  0  0  0  0  0  0  0  0
   25.5901   -8.6665  -15.2001 C   0  0  0  0  0  0  0  0  0  0  0  0
   24.1933  -10.3973  -16.3343 C   0  0  0  0  0  0  0  0  0  0  0  0
   22.8617   -9.8043  -16.2248 C   0  0  2  0  0  0  0  0  0  0  0  0
   22.0482  -10.4087  -17.3262 N   0  0  0  0  0  0  0  0  0  0  0  0
   22.6538   -8.3650  -16.3723 C   0  0  0  0  0  0  0  0  0  0  0  0
   22.8136   -7.7609  -17.4956 O   0  0  0  0  0  0  0  0  0  0  0  0
   22.2452   -7.4696  -15.3168 N   0  0  0  0  0  0  0  0  0  0  0  0
   22.0567   -6.0746  -15.5561 C   0  0  1  0  0  0  0  0  0  0  0  0
   20.5885   -5.7516  -15.8628 C   0  0  0  0  0  0  0  0  0  0  0  0
   20.3678   -3.9544  -15.9201 S   0  0  0  0  0  0  0  0  0  0  0  0
   22.5315   -5.2046  -14.4615 C   0  0  0  0  0  0  0  0  0  0  0  0
   22.6861   -3.8382  -14.7041 O   0  0  0  0  0  0  0  0  0  0  0  0
   22.8138   -5.5935  -13.3086 O   0  0  0  0  0  0  0  0  0  0  0  0
  2  1  1  0
  2  3  2  0
  4  2  1  0
  5  4  1  0
  5  6  1  1
  7  5  1  0
  7  8  2  0
 10  9  1  6
 10 12  1  0
 11 10  1  0
 13 12  1  6
 13 15  1  0
 13 14  1  0
 14  7  1  0
 15 17  1  0
 16 15  2  0
 17 18  1  0
 18 21  1  0
 19 20  1  0
 18 19  1  1
 21 23  2  0
 21 22  1  0
M  END
$$$$
