NLC.pdb
     RDKit          3D

 23 22  0  0  1  0  0  0  0  0999 V2000
   27.3996  -39.8957   -5.1299 N   0  0  0  0  0  0  0  0  0  0  0  0
   28.1849  -39.8580   -3.9410 C   0  0  0  0  0  0  0  0  0  0  0  0
   28.6169  -40.9140   -3.4380 O   0  0  0  0  0  0  0  0  0  0  0  0
   28.4996  -38.5604   -3.2831 C   0  0  0  0  0  0  0  0  0  0  0  0
   27.9385  -37.4186   -4.0280 C   0  0  2  0  0  0  0  0  0  0  0  0
   28.9257  -36.9124   -5.0021 N   0  0  0  0  0  0  0  0  0  0  0  0
   27.6373  -36.2041   -3.1949 C   0  0  0  0  0  0  0  0  0  0  0  0
   28.7083  -35.7038   -2.6843 O   0  0  0  0  0  0  0  0  0  0  0  0
   24.5036  -32.0036   -4.7570 C   0  0  0  0  0  0  0  0  0  0  0  0
   25.5641  -32.7663   -4.0619 C   0  0  1  0  0  0  0  0  0  0  0  0
   26.6785  -31.7765   -3.7254 C   0  0  0  0  0  0  0  0  0  0  0  0
   25.2046  -33.6301   -2.9348 C   0  0  0  0  0  0  0  0  0  0  0  0
   26.1734  -34.4446   -2.2033 C   0  0  2  0  0  0  0  0  0  0  0  0
   26.3502  -35.6962   -3.0050 N   0  0  0  0  0  0  0  0  0  0  0  0
   25.9004  -34.9205   -0.8486 C   0  0  0  0  0  0  0  0  0  0  0  0
   25.0758  -35.8776   -0.6115 O   0  0  0  0  0  0  0  0  0  0  0  0
   26.5085  -34.4047    0.3543 N   0  0  0  0  0  0  0  0  0  0  0  0
   26.1516  -34.9066    1.6425 C   0  0  1  0  0  0  0  0  0  0  0  0
   27.3936  -35.2743    2.4648 C   0  0  0  0  0  0  0  0  0  0  0  0
   28.4247  -36.4222    1.5156 S   0  0  0  0  0  0  0  0  0  0  0  0
   25.2948  -33.9968    2.4290 C   0  0  0  0  0  0  0  0  0  0  0  0
   24.8207  -34.4222    3.6717 O   0  0  0  0  0  0  0  0  0  0  0  0
   24.9486  -32.8512    2.0714 O   0  0  0  0  0  0  0  0  0  0  0  0
  2  1  1  0
  2  3  2  0
  4  2  1  0
  5  4  1  0
  5  6  1  6
  7  5  1  0
  7  8  2  0
 10  9  1  1
 10 12  1  0
 11 10  1  0
 13 12  1  6
 13 15  1  0
 13 14  1  0
 14  7  1  0
 15 17  1  0
 16 15  2  0
 17 18  1  0
 18 21  1  0
 19 20  1  0
 18 19  1  1
 21 23  2  0
 21 22  1  0
M  END
$$$$
