NLC.pdb
     RDKit          3D

 23 22  0  0  1  0  0  0  0  0999 V2000
   29.1887  -17.4248  -16.9205 N   0  0  0  0  0  0  0  0  0  0  0  0
   27.8993  -17.7362  -17.4422 C   0  0  0  0  0  0  0  0  0  0  0  0
   27.4226  -17.0700  -18.3821 O   0  0  0  0  0  0  0  0  0  0  0  0
   27.1039  -18.8583  -16.8731 C   0  0  0  0  0  0  0  0  0  0  0  0
   27.7965  -19.5018  -15.7418 C   0  0  2  0  0  0  0  0  0  0  0  0
   28.6997  -20.5607  -16.2344 N   0  0  0  0  0  0  0  0  0  0  0  0
   26.9009  -20.2426  -14.7884 C   0  0  0  0  0  0  0  0  0  0  0  0
   26.5984  -21.4115  -15.2356 O   0  0  0  0  0  0  0  0  0  0  0  0
   25.3369  -22.2253   -9.8864 C   0  0  0  0  0  0  0  0  0  0  0  0
   25.3041  -20.7670  -10.1354 C   0  0  1  0  0  0  0  0  0  0  0  0
   25.7285  -20.0826   -8.8370 C   0  0  0  0  0  0  0  0  0  0  0  0
   25.9804  -20.2260  -11.3167 C   0  0  0  0  0  0  0  0  0  0  0  0
   25.5925  -20.5537  -12.6875 C   0  0  2  0  0  0  0  0  0  0  0  0
   26.4579  -19.7136  -13.5740 N   0  0  0  0  0  0  0  0  0  0  0  0
   24.2359  -20.3110  -13.1744 C   0  0  0  0  0  0  0  0  0  0  0  0
   23.8123  -19.1326  -13.4644 O   0  0  0  0  0  0  0  0  0  0  0  0
   23.2359  -21.3276  -13.3964 N   0  0  0  0  0  0  0  0  0  0  0  0
   21.9268  -20.9949  -13.8594 C   0  0  1  0  0  0  0  0  0  0  0  0
   21.4573  -21.9607  -14.9553 C   0  0  0  0  0  0  0  0  0  0  0  0
   21.4654  -23.6530  -14.3087 S   0  0  0  0  0  0  0  0  0  0  0  0
   20.9074  -20.9307  -12.7931 C   0  0  0  0  0  0  0  0  0  0  0  0
   19.6327  -20.4539  -13.1059 O   0  0  0  0  0  0  0  0  0  0  0  0
   21.0896  -21.2745  -11.6062 O   0  0  0  0  0  0  0  0  0  0  0  0
  2  1  1  0
  2  3  2  0
  4  2  1  0
  5  4  1  0
  5  6  1  6
  7  5  1  0
  7  8  2  0
 10  9  1  1
 10 12  1  0
 11 10  1  0
 13 12  1  1
 13 15  1  0
 13 14  1  0
 14  7  1  0
 15 17  1  0
 16 15  2  0
 17 18  1  0
 18 21  1  0
 19 20  1  0
 18 19  1  6
 21 23  2  0
 21 22  1  0
M  END
$$$$
