NLC.pdb
     RDKit          3D

 23 22  0  0  1  0  0  0  0  0999 V2000
   15.8480  -24.1944  -11.8141 N   0  0  0  0  0  0  0  0  0  0  0  0
   15.8938  -23.1578  -10.8368 C   0  0  0  0  0  0  0  0  0  0  0  0
   14.9232  -22.9639  -10.0786 O   0  0  0  0  0  0  0  0  0  0  0  0
   17.0981  -22.2925  -10.7079 C   0  0  0  0  0  0  0  0  0  0  0  0
   18.1536  -22.6774  -11.6624 C   0  0  2  0  0  0  0  0  0  0  0  0
   18.9732  -23.7696  -11.1011 N   0  0  0  0  0  0  0  0  0  0  0  0
   19.1711  -21.6083  -11.9480 C   0  0  0  0  0  0  0  0  0  0  0  0
   18.6198  -20.4506  -12.0657 O   0  0  0  0  0  0  0  0  0  0  0  0
   23.8824  -21.1796   -9.3107 C   0  0  0  0  0  0  0  0  0  0  0  0
   22.6311  -20.9170  -10.0556 C   0  0  1  0  0  0  0  0  0  0  0  0
   22.0354  -19.6295   -9.4880 C   0  0  0  0  0  0  0  0  0  0  0  0
   22.6493  -20.9437  -11.5200 C   0  0  0  0  0  0  0  0  0  0  0  0
   21.4647  -20.7116  -12.3445 C   0  0  2  0  0  0  0  0  0  0  0  0
   20.5400  -21.8563  -12.0711 N   0  0  0  0  0  0  0  0  0  0  0  0
   21.5496  -20.6581  -13.8027 C   0  0  0  0  0  0  0  0  0  0  0  0
   21.9265  -21.6667  -14.5049 O   0  0  0  0  0  0  0  0  0  0  0  0
   21.2215  -19.5112  -14.6150 N   0  0  0  0  0  0  0  0  0  0  0  0
   21.4161  -19.5213  -16.0295 C   0  0  1  0  0  0  0  0  0  0  0  0
   20.0801  -19.4447  -16.7799 C   0  0  0  0  0  0  0  0  0  0  0  0
   20.3954  -19.3679  -18.5622 S   0  0  0  0  0  0  0  0  0  0  0  0
   22.3167  -18.4602  -16.5228 C   0  0  0  0  0  0  0  0  0  0  0  0
   23.3338  -18.8000  -17.4172 O   0  0  0  0  0  0  0  0  0  0  0  0
   22.2466  -17.2550  -16.2023 O   0  0  0  0  0  0  0  0  0  0  0  0
  2  1  1  0
  2  3  2  0
  4  2  1  0
  5  4  1  0
  5  6  1  1
  7  5  1  0
  7  8  2  0
 10  9  1  1
 10 12  1  0
 11 10  1  0
 13 12  1  1
 13 15  1  0
 13 14  1  0
 14  7  1  0
 15 17  1  0
 16 15  2  0
 17 18  1  0
 18 21  1  0
 19 20  1  0
 18 19  1  6
 21 23  2  0
 21 22  1  0
M  END
$$$$
