GLE.pdb
     RDKit          3D

 22 21  0  0  1  0  0  0  0  0999 V2000
    6.4266  -18.0461   21.1712 N   0  0  0  0  0  0  0  0  0  0  0  0
    6.1222  -17.9250   22.5727 C   0  0  0  0  0  0  0  0  0  0  0  0
    6.8845  -16.8605   23.2425 C   0  0  0  0  0  0  0  0  0  0  0  0
    8.0443  -16.5938   22.8078 O   0  0  0  0  0  0  0  0  0  0  0  0
    6.3828  -12.5467   27.8146 C   0  0  0  0  0  0  0  0  0  0  0  0
    7.0967  -13.2546   26.7242 C   0  0  2  0  0  0  0  0  0  0  0  0
    7.5610  -12.1991   25.7058 C   0  0  0  0  0  0  0  0  0  0  0  0
    6.3441  -14.2691   25.9583 C   0  0  0  0  0  0  0  0  0  0  0  0
    7.1075  -15.2318   25.1268 C   0  0  2  0  0  0  0  0  0  0  0  0
    6.3205  -16.1551   24.3513 N   0  0  0  0  0  0  0  0  0  0  0  0
    8.1815  -15.9216   25.8937 C   0  0  0  0  0  0  0  0  0  0  0  0
    7.8379  -16.8156   26.7032 O   0  0  0  0  0  0  0  0  0  0  0  0
    9.5644  -15.6329   25.7675 N   0  0  0  0  0  0  0  0  0  0  0  0
   10.5927  -16.5357   26.3338 C   0  0  1  0  0  0  0  0  0  0  0  0
   11.8553  -16.2992   25.5805 C   0  0  0  0  0  0  0  0  0  0  0  0
   11.8099  -16.7324   24.1472 C   0  0  0  0  0  0  0  0  0  0  0  0
   13.0224  -16.4178   23.3848 C   0  0  0  0  0  0  0  0  0  0  0  0
   13.9704  -15.7763   23.8989 O   0  0  0  0  0  0  0  0  0  0  0  0
   10.7389  -16.1452   27.7604 C   0  0  0  0  0  0  0  0  0  0  0  0
   10.2666  -15.0568   28.1821 O   0  0  0  0  0  0  0  0  0  0  0  0
   13.1919  -16.8087   22.0582 O   0  0  0  0  0  0  0  0  0  0  0  0
   11.3897  -16.9391   28.6956 O   0  0  0  0  0  0  0  0  0  0  0  0
  2  1  1  0
  2  3  1  0
  3 10  1  0
  3  4  2  0
  6  8  1  0
  6  5  1  1
  7  6  1  0
  9  8  1  1
 10  9  1  0
 11  9  1  0
 11 13  1  0
 12 11  2  0
 14 15  1  6
 14 13  1  0
 14 19  1  0
 16 15  1  0
 17 16  1  0
 18 17  2  0
 19 22  1  0
 20 19  2  0
 21 17  1  0
M  END
$$$$
