GLE.pdb
     RDKit          3D

 22 21  0  0  1  0  0  0  0  0999 V2000
    5.6522  -15.6630   20.8024 N   0  0  0  0  0  0  0  0  0  0  0  0
    6.9395  -15.0434   20.6278 C   0  0  0  0  0  0  0  0  0  0  0  0
    7.6536  -14.8215   21.8942 C   0  0  0  0  0  0  0  0  0  0  0  0
    8.9040  -14.6236   21.8469 O   0  0  0  0  0  0  0  0  0  0  0  0
    7.0933  -11.4561   25.1276 C   0  0  0  0  0  0  0  0  0  0  0  0
    6.1378  -12.5799   25.2823 C   0  0  2  0  0  0  0  0  0  0  0  0
    5.3005  -12.3124   26.5448 C   0  0  0  0  0  0  0  0  0  0  0  0
    6.6972  -13.9387   25.4340 C   0  0  0  0  0  0  0  0  0  0  0  0
    7.5891  -14.4553   24.3670 C   0  0  2  0  0  0  0  0  0  0  0  0
    6.9441  -14.8316   23.1359 N   0  0  0  0  0  0  0  0  0  0  0  0
    8.5130  -15.5144   24.8591 C   0  0  0  0  0  0  0  0  0  0  0  0
    8.0154  -16.6204   25.1779 O   0  0  0  0  0  0  0  0  0  0  0  0
    9.9160  -15.3527   24.9897 N   0  0  0  0  0  0  0  0  0  0  0  0
   10.8041  -16.5127   25.2321 C   0  0  1  0  0  0  0  0  0  0  0  0
   12.1338  -16.1843   24.6479 C   0  0  0  0  0  0  0  0  0  0  0  0
   13.1492  -17.2790   24.7691 C   0  0  0  0  0  0  0  0  0  0  0  0
   14.4443  -16.9692   24.1551 C   0  0  0  0  0  0  0  0  0  0  0  0
   14.7255  -15.8079   23.7718 O   0  0  0  0  0  0  0  0  0  0  0  0
   10.8894  -16.6609   26.7085 C   0  0  0  0  0  0  0  0  0  0  0  0
   10.6012  -15.7005   27.4702 O   0  0  0  0  0  0  0  0  0  0  0  0
   15.4293  -17.9359   23.9631 O   0  0  0  0  0  0  0  0  0  0  0  0
   11.2823  -17.8413   27.3255 O   0  0  0  0  0  0  0  0  0  0  0  0
  2  1  1  0
  2  3  1  0
  3 10  1  0
  3  4  2  0
  6  8  1  0
  6  5  1  1
  7  6  1  0
  9  8  1  1
 10  9  1  0
 11  9  1  0
 11 13  1  0
 12 11  2  0
 14 15  1  1
 14 13  1  0
 14 19  1  0
 16 15  1  0
 17 16  1  0
 18 17  2  0
 19 22  1  0
 20 19  2  0
 21 17  1  0
M  END
$$$$
