GLE.pdb
     RDKit          3D

 22 21  0  0  1  0  0  0  0  0999 V2000
    5.8911  -14.6204   21.0530 N   0  0  0  0  0  0  0  0  0  0  0  0
    7.3247  -14.6688   20.9349 C   0  0  0  0  0  0  0  0  0  0  0  0
    8.0155  -14.6394   22.2329 C   0  0  0  0  0  0  0  0  0  0  0  0
    9.2819  -14.6755   22.2354 O   0  0  0  0  0  0  0  0  0  0  0  0
    8.0122  -11.5120   25.9233 C   0  0  0  0  0  0  0  0  0  0  0  0
    6.8445  -12.4201   25.8166 C   0  0  2  0  0  0  0  0  0  0  0  0
    5.9227  -12.1408   27.0161 C   0  0  0  0  0  0  0  0  0  0  0  0
    7.1049  -13.8743   25.8214 C   0  0  0  0  0  0  0  0  0  0  0  0
    7.9237  -14.4458   24.7243 C   0  0  2  0  0  0  0  0  0  0  0  0
    7.2666  -14.5720   23.4494 N   0  0  0  0  0  0  0  0  0  0  0  0
    8.6134  -15.7039   25.1233 C   0  0  0  0  0  0  0  0  0  0  0  0
    7.9028  -16.7122   25.3487 O   0  0  0  0  0  0  0  0  0  0  0  0
   10.0187  -15.8342   25.2639 N   0  0  0  0  0  0  0  0  0  0  0  0
   10.6540  -17.1606   25.4380 C   0  0  1  0  0  0  0  0  0  0  0  0
   11.9825  -17.1086   24.7675 C   0  0  0  0  0  0  0  0  0  0  0  0
   12.8456  -18.3082   25.0126 C   0  0  0  0  0  0  0  0  0  0  0  0
   14.1699  -18.2347   24.3872 C   0  0  0  0  0  0  0  0  0  0  0  0
   14.6499  -17.1426   23.9980 O   0  0  0  0  0  0  0  0  0  0  0  0
   10.8011  -17.3543   26.9042 C   0  0  0  0  0  0  0  0  0  0  0  0
   10.7602  -16.3721   27.6912 O   0  0  0  0  0  0  0  0  0  0  0  0
   14.9655  -19.3615   24.1902 O   0  0  0  0  0  0  0  0  0  0  0  0
   10.9876  -18.6022   27.4841 O   0  0  0  0  0  0  0  0  0  0  0  0
  2  1  1  0
  2  3  1  0
  3 10  1  0
  3  4  2  0
  6  8  1  0
  6  5  1  1
  7  6  1  0
  9  8  1  1
 10  9  1  0
 11  9  1  0
 11 13  1  0
 12 11  2  0
 14 15  1  6
 14 13  1  0
 14 19  1  0
 16 15  1  0
 17 16  1  0
 18 17  2  0
 19 22  1  0
 20 19  2  0
 21 17  1  0
M  END
$$$$
