GLE.pdb
     RDKit          3D

 22 21  0  0  1  0  0  0  0  0999 V2000
    4.9974  -18.8364   23.1059 N   0  0  0  0  0  0  0  0  0  0  0  0
    5.3738  -18.2885   24.3825 C   0  0  0  0  0  0  0  0  0  0  0  0
    6.3542  -17.1971   24.2796 C   0  0  0  0  0  0  0  0  0  0  0  0
    7.1052  -17.1644   23.2598 O   0  0  0  0  0  0  0  0  0  0  0  0
    7.0937  -12.1381   24.6342 C   0  0  0  0  0  0  0  0  0  0  0  0
    6.5349  -12.9482   25.7438 C   0  0  2  0  0  0  0  0  0  0  0  0
    6.3315  -12.0144   26.9493 C   0  0  0  0  0  0  0  0  0  0  0  0
    7.3377  -14.0884   26.2313 C   0  0  0  0  0  0  0  0  0  0  0  0
    7.5237  -15.2534   25.3318 C   0  0  2  0  0  0  0  0  0  0  0  0
    6.4461  -16.2081   25.3085 N   0  0  0  0  0  0  0  0  0  0  0  0
    8.8473  -15.9105   25.5158 C   0  0  0  0  0  0  0  0  0  0  0  0
    9.0977  -16.4138   26.6367 O   0  0  0  0  0  0  0  0  0  0  0  0
    9.8399  -16.0033   24.5070 N   0  0  0  0  0  0  0  0  0  0  0  0
   11.0996  -16.7480   24.7345 C   0  0  1  0  0  0  0  0  0  0  0  0
   11.0946  -17.9209   23.8172 C   0  0  0  0  0  0  0  0  0  0  0  0
   10.7451  -19.2197   24.4769 C   0  0  0  0  0  0  0  0  0  0  0  0
   10.7629  -20.3763   23.5757 C   0  0  0  0  0  0  0  0  0  0  0  0
   11.0661  -20.2569   22.3640 O   0  0  0  0  0  0  0  0  0  0  0  0
   12.1983  -15.8066   24.3945 C   0  0  0  0  0  0  0  0  0  0  0  0
   11.9771  -14.7849   23.6925 O   0  0  0  0  0  0  0  0  0  0  0  0
   10.4475  -21.6631   24.0072 O   0  0  0  0  0  0  0  0  0  0  0  0
   13.5069  -15.9907   24.8211 O   0  0  0  0  0  0  0  0  0  0  0  0
  2  1  1  0
  2  3  1  0
  3 10  1  0
  3  4  2  0
  6  8  1  0
  6  5  1  6
  7  6  1  0
  9  8  1  1
 10  9  1  0
 11  9  1  0
 11 13  1  0
 12 11  2  0
 14 15  1  6
 14 13  1  0
 14 19  1  0
 16 15  1  0
 17 16  1  0
 18 17  2  0
 19 22  1  0
 20 19  2  0
 21 17  1  0
M  END
$$$$
