GLE.pdb
     RDKit          3D

 22 21  0  0  1  0  0  0  0  0999 V2000
    7.6410  -15.2914   19.2543 N   0  0  0  0  0  0  0  0  0  0  0  0
    6.7984  -15.2846   20.4213 C   0  0  0  0  0  0  0  0  0  0  0  0
    7.4944  -14.8372   21.6372 C   0  0  0  0  0  0  0  0  0  0  0  0
    8.7534  -14.9702   21.6866 O   0  0  0  0  0  0  0  0  0  0  0  0
    6.2558  -12.3012   27.2706 C   0  0  0  0  0  0  0  0  0  0  0  0
    7.1892  -12.7620   26.2141 C   0  0  2  0  0  0  0  0  0  0  0  0
    8.2386  -11.6574   26.0018 C   0  0  0  0  0  0  0  0  0  0  0  0
    6.6233  -13.0600   24.8824 C   0  0  0  0  0  0  0  0  0  0  0  0
    7.4063  -13.9206   23.9620 C   0  0  2  0  0  0  0  0  0  0  0  0
    6.7586  -14.2704   22.7246 N   0  0  0  0  0  0  0  0  0  0  0  0
    7.9824  -15.1113   24.6461 C   0  0  0  0  0  0  0  0  0  0  0  0
    7.2315  -16.0987   24.8294 O   0  0  0  0  0  0  0  0  0  0  0  0
    9.3225  -15.1997   25.1021 N   0  0  0  0  0  0  0  0  0  0  0  0
    9.9827  -16.5108   25.2980 C   0  0  1  0  0  0  0  0  0  0  0  0
   11.2944  -16.4575   24.5952 C   0  0  0  0  0  0  0  0  0  0  0  0
   12.1918  -17.6244   24.8726 C   0  0  0  0  0  0  0  0  0  0  0  0
   13.4991  -17.5485   24.2128 C   0  0  0  0  0  0  0  0  0  0  0  0
   14.2709  -18.5372   24.1741 O   0  0  0  0  0  0  0  0  0  0  0  0
   10.1668  -16.6607   26.7652 C   0  0  0  0  0  0  0  0  0  0  0  0
   10.0681  -15.6666   27.5318 O   0  0  0  0  0  0  0  0  0  0  0  0
   13.9571  -16.3861   23.5959 O   0  0  0  0  0  0  0  0  0  0  0  0
   10.4516  -17.8789   27.3679 O   0  0  0  0  0  0  0  0  0  0  0  0
  2  1  1  0
  2  3  1  0
  3 10  1  0
  3  4  2  0
  6  8  1  0
  6  5  1  1
  7  6  1  0
  9  8  1  1
 10  9  1  0
 11  9  1  0
 11 13  1  0
 12 11  2  0
 14 15  1  6
 14 13  1  0
 14 19  1  0
 16 15  1  0
 17 16  1  0
 18 17  2  0
 19 22  1  0
 20 19  2  0
 21 17  1  0
M  END
$$$$
