GLE.pdb
     RDKit          3D

 22 21  0  0  1  0  0  0  0  0999 V2000
    7.9698  -14.9071   19.2278 N   0  0  0  0  0  0  0  0  0  0  0  0
    7.0388  -14.9280   20.3252 C   0  0  0  0  0  0  0  0  0  0  0  0
    7.6564  -14.5912   21.6168 C   0  0  0  0  0  0  0  0  0  0  0  0
    8.8993  -14.7942   21.7545 O   0  0  0  0  0  0  0  0  0  0  0  0
    6.1724  -12.2137   27.2668 C   0  0  0  0  0  0  0  0  0  0  0  0
    7.1358  -12.6948   26.2470 C   0  0  2  0  0  0  0  0  0  0  0  0
    8.2328  -11.6266   26.0980 C   0  0  0  0  0  0  0  0  0  0  0  0
    6.6209  -12.9551   24.8870 C   0  0  0  0  0  0  0  0  0  0  0  0
    7.4279  -13.8084   23.9807 C   0  0  2  0  0  0  0  0  0  0  0  0
    6.8645  -14.0507   22.6780 N   0  0  0  0  0  0  0  0  0  0  0  0
    7.8808  -15.0669   24.6354 C   0  0  0  0  0  0  0  0  0  0  0  0
    7.0674  -16.0196   24.6935 O   0  0  0  0  0  0  0  0  0  0  0  0
    9.1699  -15.2565   25.1958 N   0  0  0  0  0  0  0  0  0  0  0  0
    9.7214  -16.6135   25.4134 C   0  0  1  0  0  0  0  0  0  0  0  0
   10.8543  -16.7906   24.4635 C   0  0  0  0  0  0  0  0  0  0  0  0
   11.6435  -18.0469   24.6705 C   0  0  0  0  0  0  0  0  0  0  0  0
   12.7298  -18.2413   23.7048 C   0  0  0  0  0  0  0  0  0  0  0  0
   12.5565  -18.0467   22.4773 O   0  0  0  0  0  0  0  0  0  0  0  0
   10.1941  -16.6418   26.8222 C   0  0  0  0  0  0  0  0  0  0  0  0
   10.3373  -15.5747   27.4753 O   0  0  0  0  0  0  0  0  0  0  0  0
   14.0054  -18.6492   24.0890 O   0  0  0  0  0  0  0  0  0  0  0  0
   10.4992  -17.8200   27.4908 O   0  0  0  0  0  0  0  0  0  0  0  0
  2  1  1  0
  2  3  1  0
  3 10  1  0
  3  4  2  0
  6  8  1  0
  6  5  1  1
  7  6  1  0
  9  8  1  1
 10  9  1  0
 11  9  1  0
 11 13  1  0
 12 11  2  0
 14 15  1  6
 14 13  1  0
 14 19  1  0
 16 15  1  0
 17 16  1  0
 18 17  2  0
 19 22  1  0
 20 19  2  0
 21 17  1  0
M  END
$$$$
