HWV.pdb
     RDKit          3D

 32 34  0  0  1  0  0  0  0  0999 V2000
   10.4323  -16.7009   19.1958 N   0  0  0  0  0  0  0  0  0  0  0  0
   10.8168  -17.3018   20.4502 C   0  0  1  0  0  0  0  0  0  0  0  0
   12.3182  -17.2566   20.5933 C   0  0  0  0  0  0  0  0  0  0  0  0
   13.0062  -18.1601   19.6607 C   0  0  0  0  0  0  0  0  0  0  0  0
   12.9511  -19.5345   19.6599 C   0  0  0  0  0  0  0  0  0  0  0  0
   13.7064  -19.9722   18.6619 N   0  0  0  0  0  0  0  0  0  0  0  0
   14.2312  -18.9069   18.0401 C   0  0  0  0  0  0  0  0  0  0  0  0
   13.8002  -17.7930   18.6548 N   0  0  0  0  0  0  0  0  0  0  0  0
   10.2316  -16.4969   21.5559 C   0  0  0  0  0  0  0  0  0  0  0  0
   10.4288  -15.2569   21.5137 O   0  0  0  0  0  0  0  0  0  0  0  0
    9.4889  -17.0266   22.6212 N   0  0  0  0  0  0  0  0  0  0  0  0
    8.9110  -16.2446   23.6880 C   0  0  1  0  0  0  0  0  0  0  0  0
    7.5444  -16.6810   24.0720 C   0  0  0  0  0  0  0  0  0  0  0  0
    6.8535  -15.5979   24.8135 C   0  0  0  0  0  0  0  0  0  0  0  0
    5.6978  -15.6628   25.5710 C   0  0  0  0  0  0  0  0  0  0  0  0
    5.4026  -14.4550   26.0725 N   0  0  0  0  0  0  0  0  0  0  0  0
    6.3373  -13.5787   25.6673 C   0  0  0  0  0  0  0  0  0  0  0  0
    6.5263  -12.2078   25.8855 C   0  0  0  0  0  0  0  0  0  0  0  0
    7.6176  -11.5890   25.3102 C   0  0  0  0  0  0  0  0  0  0  0  0
    8.5374  -12.2546   24.5268 C   0  0  0  0  0  0  0  0  0  0  0  0
    8.3204  -13.6092   24.3315 C   0  0  0  0  0  0  0  0  0  0  0  0
    7.2433  -14.2692   24.8870 C   0  0  0  0  0  0  0  0  0  0  0  0
    9.8054  -16.3567   24.8682 C   0  0  0  0  0  0  0  0  0  0  0  0
   10.6209  -17.2982   24.9925 O   0  0  0  0  0  0  0  0  0  0  0  0
   10.6486  -14.4426   29.4186 C   0  0  0  0  0  0  0  0  0  0  0  0
    9.9305  -14.3832   28.0938 C   0  0  1  0  0  0  0  0  0  0  0  0
    9.9891  -13.0076   27.4754 C   0  0  0  0  0  0  0  0  0  0  0  0
   10.4844  -15.4428   27.1313 C   0  0  2  0  0  0  0  0  0  0  0  0
    9.7450  -15.3659   25.9048 N   0  0  0  0  0  0  0  0  0  0  0  0
   10.3173  -16.7370   27.8266 C   0  0  0  0  0  0  0  0  0  0  0  0
    9.2869  -17.5679   27.4111 O   0  0  0  0  0  0  0  0  0  0  0  0
   11.0437  -17.1395   28.7696 O   0  0  0  0  0  0  0  0  0  0  0  0
  2  3  1  0
  2  1  1  6
  3  4  1  0
  4  8  1  0
  4  5  2  0
  5  6  1  0
  7  6  1  0
  8  7  2  0
  9 10  2  0
  9  2  1  0
 11  9  1  0
 12 11  1  0
 12 13  1  1
 13 14  1  0
 14 22  1  0
 14 15  2  0
 15 16  1  0
 17 16  1  0
 17 18  2  0
 19 18  1  0
 20 19  2  0
 21 20  1  0
 21 22  2  0
 22 17  1  0
 23 29  1  0
 23 12  1  0
 24 23  2  0
 26 28  1  0
 26 25  1  1
 27 26  1  0
 28 29  1  6
 28 30  1  0
 30 31  1  0
 32 30  2  0
M  END
$$$$
