HWV.pdb
     RDKit          3D

 32 34  0  0  1  0  0  0  0  0999 V2000
   10.0085  -16.8320   18.4955 N   0  0  0  0  0  0  0  0  0  0  0  0
    9.0553  -17.4973   19.3505 C   0  0  1  0  0  0  0  0  0  0  0  0
    9.4154  -18.9579   19.4688 C   0  0  0  0  0  0  0  0  0  0  0  0
    9.1453  -19.7121   18.2369 C   0  0  0  0  0  0  0  0  0  0  0  0
    7.9310  -20.2182   17.8352 C   0  0  0  0  0  0  0  0  0  0  0  0
    8.1085  -20.8286   16.6716 N   0  0  0  0  0  0  0  0  0  0  0  0
    9.4017  -20.7165   16.3369 C   0  0  0  0  0  0  0  0  0  0  0  0
   10.0386  -20.0299   17.2998 N   0  0  0  0  0  0  0  0  0  0  0  0
    9.1433  -16.8973   20.7088 C   0  0  0  0  0  0  0  0  0  0  0  0
   10.2924  -16.5932   21.1155 O   0  0  0  0  0  0  0  0  0  0  0  0
    8.0447  -16.6557   21.5466 N   0  0  0  0  0  0  0  0  0  0  0  0
    8.1327  -16.1028   22.8770 C   0  0  1  0  0  0  0  0  0  0  0  0
    6.8133  -15.7626   23.4679 C   0  0  0  0  0  0  0  0  0  0  0  0
    6.9953  -15.1893   24.8238 C   0  0  0  0  0  0  0  0  0  0  0  0
    6.9021  -15.8170   26.0530 C   0  0  0  0  0  0  0  0  0  0  0  0
    7.1320  -14.9403   27.0409 N   0  0  0  0  0  0  0  0  0  0  0  0
    7.3780  -13.7350   26.5003 C   0  0  0  0  0  0  0  0  0  0  0  0
    7.6749  -12.4801   27.0480 C   0  0  0  0  0  0  0  0  0  0  0  0
    7.8781  -11.4151   26.1941 C   0  0  0  0  0  0  0  0  0  0  0  0
    7.8037  -11.5230   24.8209 C   0  0  0  0  0  0  0  0  0  0  0  0
    7.5083  -12.7779   24.3129 C   0  0  0  0  0  0  0  0  0  0  0  0
    7.2975  -13.8708   25.1286 C   0  0  0  0  0  0  0  0  0  0  0  0
    8.8069  -17.1052   23.7408 C   0  0  0  0  0  0  0  0  0  0  0  0
    8.3478  -18.2593   23.8964 O   0  0  0  0  0  0  0  0  0  0  0  0
   13.0404  -18.0296   26.2276 C   0  0  0  0  0  0  0  0  0  0  0  0
   12.2298  -17.1899   25.2727 C   0  0  1  0  0  0  0  0  0  0  0  0
   12.8245  -17.1705   23.8856 C   0  0  0  0  0  0  0  0  0  0  0  0
   10.7712  -17.6665   25.2390 C   0  0  2  0  0  0  0  0  0  0  0  0
   10.0199  -16.7564   24.4240 N   0  0  0  0  0  0  0  0  0  0  0  0
   10.3258  -17.6821   26.6489 C   0  0  0  0  0  0  0  0  0  0  0  0
    9.6711  -16.5595   27.1345 O   0  0  0  0  0  0  0  0  0  0  0  0
   10.4983  -18.6421   27.4411 O   0  0  0  0  0  0  0  0  0  0  0  0
  2  3  1  0
  2  1  1  6
  3  4  1  0
  4  8  1  0
  4  5  2  0
  5  6  1  0
  7  6  1  0
  8  7  2  0
  9 10  2  0
  9  2  1  0
 11  9  1  0
 12 11  1  0
 12 13  1  1
 13 14  1  0
 14 22  1  0
 14 15  2  0
 15 16  1  0
 17 16  1  0
 17 18  2  0
 19 18  1  0
 20 19  2  0
 21 20  1  0
 21 22  2  0
 22 17  1  0
 23 29  1  0
 23 12  1  0
 24 23  2  0
 26 28  1  0
 26 25  1  1
 27 26  1  0
 28 29  1  6
 28 30  1  0
 30 31  1  0
 32 30  2  0
M  END
$$$$
