HWV.pdb
     RDKit          3D

 32 34  0  0  1  0  0  0  0  0999 V2000
   10.2247  -16.1404   20.2616 N   0  0  0  0  0  0  0  0  0  0  0  0
    9.2923  -16.2168   21.3603 C   0  0  1  0  0  0  0  0  0  0  0  0
    8.5327  -17.5188   21.2893 C   0  0  0  0  0  0  0  0  0  0  0  0
    7.6529  -17.6009   20.1152 C   0  0  0  0  0  0  0  0  0  0  0  0
    7.5294  -16.6635   19.1161 C   0  0  0  0  0  0  0  0  0  0  0  0
    6.6375  -17.1125   18.2438 N   0  0  0  0  0  0  0  0  0  0  0  0
    6.2013  -18.3053   18.6725 C   0  0  0  0  0  0  0  0  0  0  0  0
    6.8260  -18.6050   19.8233 N   0  0  0  0  0  0  0  0  0  0  0  0
   10.0633  -16.2108   22.6324 C   0  0  0  0  0  0  0  0  0  0  0  0
   11.2499  -16.6189   22.5723 O   0  0  0  0  0  0  0  0  0  0  0  0
    9.5571  -15.7865   23.8697 N   0  0  0  0  0  0  0  0  0  0  0  0
   10.2673  -15.8796   25.1229 C   0  0  1  0  0  0  0  0  0  0  0  0
    9.7241  -14.9908   26.1815 C   0  0  0  0  0  0  0  0  0  0  0  0
    8.2781  -14.7517   25.9531 C   0  0  0  0  0  0  0  0  0  0  0  0
    7.2853  -15.6622   25.6382 C   0  0  0  0  0  0  0  0  0  0  0  0
    6.1061  -15.0375   25.5093 N   0  0  0  0  0  0  0  0  0  0  0  0
    6.2861  -13.7245   25.7314 C   0  0  0  0  0  0  0  0  0  0  0  0
    5.4201  -12.6232   25.7288 C   0  0  0  0  0  0  0  0  0  0  0  0
    5.9363  -11.3731   26.0039 C   0  0  0  0  0  0  0  0  0  0  0  0
    7.2688  -11.1507   26.2829 C   0  0  0  0  0  0  0  0  0  0  0  0
    8.0971  -12.2615   26.2771 C   0  0  0  0  0  0  0  0  0  0  0  0
    7.6249  -13.5298   26.0076 C   0  0  0  0  0  0  0  0  0  0  0  0
   10.1883  -17.2887   25.5852 C   0  0  0  0  0  0  0  0  0  0  0  0
    9.1821  -18.0006   25.3667 O   0  0  0  0  0  0  0  0  0  0  0  0
   12.8709  -21.1625   27.1043 C   0  0  0  0  0  0  0  0  0  0  0  0
   12.7659  -19.7386   26.6189 C   0  0  1  0  0  0  0  0  0  0  0  0
   13.2634  -19.5816   25.2025 C   0  0  0  0  0  0  0  0  0  0  0  0
   11.3256  -19.2262   26.7557 C   0  0  2  0  0  0  0  0  0  0  0  0
   11.2881  -17.8654   26.3046 N   0  0  0  0  0  0  0  0  0  0  0  0
   10.9875  -19.3696   28.1880 C   0  0  0  0  0  0  0  0  0  0  0  0
   11.1109  -18.2504   28.9985 O   0  0  0  0  0  0  0  0  0  0  0  0
   10.5953  -20.4356   28.7254 O   0  0  0  0  0  0  0  0  0  0  0  0
  2  3  1  0
  2  1  1  6
  3  4  1  0
  4  8  1  0
  4  5  2  0
  5  6  1  0
  7  6  1  0
  8  7  2  0
  9 10  2  0
  9  2  1  0
 11  9  1  0
 12 11  1  0
 12 13  1  1
 13 14  1  0
 14 22  1  0
 14 15  2  0
 15 16  1  0
 17 16  1  0
 17 18  2  0
 19 18  1  0
 20 19  2  0
 21 20  1  0
 21 22  2  0
 22 17  1  0
 23 29  1  0
 23 12  1  0
 24 23  2  0
 26 28  1  0
 26 25  1  6
 27 26  1  0
 28 29  1  1
 28 30  1  0
 30 31  1  0
 32 30  2  0
M  END
$$$$
