HWV.pdb
     RDKit          3D

 32 34  0  0  1  0  0  0  0  0999 V2000
    9.9695  -16.6795   19.6877 N   0  0  0  0  0  0  0  0  0  0  0  0
   10.9334  -16.8220   20.7521 C   0  0  1  0  0  0  0  0  0  0  0  0
   12.1938  -16.0723   20.3965 C   0  0  0  0  0  0  0  0  0  0  0  0
   12.9619  -16.7254   19.3274 C   0  0  0  0  0  0  0  0  0  0  0  0
   13.3450  -16.1627   18.1321 C   0  0  0  0  0  0  0  0  0  0  0  0
   14.0205  -17.0767   17.4492 N   0  0  0  0  0  0  0  0  0  0  0  0
   14.0688  -18.1948   18.1872 C   0  0  0  0  0  0  0  0  0  0  0  0
   13.4177  -17.9781   19.3418 N   0  0  0  0  0  0  0  0  0  0  0  0
   10.3702  -16.2037   21.9822 C   0  0  0  0  0  0  0  0  0  0  0  0
   10.7116  -15.0188   22.2226 O   0  0  0  0  0  0  0  0  0  0  0  0
    9.4994  -16.8493   22.8722 N   0  0  0  0  0  0  0  0  0  0  0  0
    8.9829  -16.2630   24.0859 C   0  0  1  0  0  0  0  0  0  0  0  0
    7.7248  -16.8928   24.5617 C   0  0  0  0  0  0  0  0  0  0  0  0
    6.8214  -15.8613   25.1273 C   0  0  0  0  0  0  0  0  0  0  0  0
    5.5336  -16.0045   25.6121 C   0  0  0  0  0  0  0  0  0  0  0  0
    5.0603  -14.8218   26.0300 N   0  0  0  0  0  0  0  0  0  0  0  0
    6.0045  -13.8856   25.8359 C   0  0  0  0  0  0  0  0  0  0  0  0
    6.0547  -12.5075   26.0831 C   0  0  0  0  0  0  0  0  0  0  0  0
    7.2049  -11.8171   25.7590 C   0  0  0  0  0  0  0  0  0  0  0  0
    8.3144  -12.4173   25.2009 C   0  0  0  0  0  0  0  0  0  0  0  0
    8.2309  -13.7810   24.9697 C   0  0  0  0  0  0  0  0  0  0  0  0
    7.1015  -14.5116   25.2778 C   0  0  0  0  0  0  0  0  0  0  0  0
   10.0233  -16.4044   25.1362 C   0  0  0  0  0  0  0  0  0  0  0  0
   10.9600  -17.2281   25.0321 O   0  0  0  0  0  0  0  0  0  0  0  0
   11.2770  -14.8578   29.7417 C   0  0  0  0  0  0  0  0  0  0  0  0
   10.3661  -14.7753   28.5427 C   0  0  1  0  0  0  0  0  0  0  0  0
   10.2501  -13.3672   28.0115 C   0  0  0  0  0  0  0  0  0  0  0  0
   10.8309  -15.7409   27.4439 C   0  0  2  0  0  0  0  0  0  0  0  0
    9.9671  -15.5808   26.3102 N   0  0  0  0  0  0  0  0  0  0  0  0
   10.7540  -17.0907   28.0427 C   0  0  0  0  0  0  0  0  0  0  0  0
   11.9094  -17.6202   28.5986 O   0  0  0  0  0  0  0  0  0  0  0  0
    9.7139  -17.7947   28.0844 O   0  0  0  0  0  0  0  0  0  0  0  0
  2  3  1  0
  2  1  1  6
  3  4  1  0
  4  8  1  0
  4  5  2  0
  5  6  1  0
  7  6  1  0
  8  7  2  0
  9 10  2  0
  9  2  1  0
 11  9  1  0
 12 11  1  0
 12 13  1  1
 13 14  1  0
 14 22  1  0
 14 15  2  0
 15 16  1  0
 17 16  1  0
 17 18  2  0
 19 18  1  0
 20 19  2  0
 21 20  1  0
 21 22  2  0
 22 17  1  0
 23 29  1  0
 23 12  1  0
 24 23  2  0
 26 28  1  0
 26 25  1  1
 27 26  1  0
 28 29  1  6
 28 30  1  0
 30 31  1  0
 32 30  2  0
M  END
$$$$
