HWV.pdb
     RDKit          3D

 32 34  0  0  1  0  0  0  0  0999 V2000
   11.0805  -18.1311   20.4414 N   0  0  0  0  0  0  0  0  0  0  0  0
   11.7027  -16.8395   20.6055 C   0  0  1  0  0  0  0  0  0  0  0  0
   11.6154  -16.0681   19.3116 C   0  0  0  0  0  0  0  0  0  0  0  0
   10.7504  -16.7194   18.3181 C   0  0  0  0  0  0  0  0  0  0  0  0
   10.0571  -17.8962   18.4807 C   0  0  0  0  0  0  0  0  0  0  0  0
    9.3972  -18.1394   17.3566 N   0  0  0  0  0  0  0  0  0  0  0  0
    9.6607  -17.1450   16.4971 C   0  0  0  0  0  0  0  0  0  0  0  0
   10.4928  -16.2723   17.0889 N   0  0  0  0  0  0  0  0  0  0  0  0
   10.9460  -16.0808   21.6373 C   0  0  0  0  0  0  0  0  0  0  0  0
   11.3537  -14.9205   21.8934 O   0  0  0  0  0  0  0  0  0  0  0  0
    9.8283  -16.5715   22.3280 N   0  0  0  0  0  0  0  0  0  0  0  0
    9.1764  -15.8927   23.4225 C   0  0  1  0  0  0  0  0  0  0  0  0
    7.7116  -16.1302   23.4813 C   0  0  0  0  0  0  0  0  0  0  0  0
    7.1182  -15.3743   24.6112 C   0  0  0  0  0  0  0  0  0  0  0  0
    6.3978  -15.8496   25.6924 C   0  0  0  0  0  0  0  0  0  0  0  0
    6.0334  -14.8353   26.4898 N   0  0  0  0  0  0  0  0  0  0  0  0
    6.4945  -13.6868   25.9662 C   0  0  0  0  0  0  0  0  0  0  0  0
    6.4117  -12.3474   26.3684 C   0  0  0  0  0  0  0  0  0  0  0  0
    7.0096  -11.3815   25.5845 C   0  0  0  0  0  0  0  0  0  0  0  0
    7.6886  -11.6685   24.4186 C   0  0  0  0  0  0  0  0  0  0  0  0
    7.7513  -13.0029   24.0503 C   0  0  0  0  0  0  0  0  0  0  0  0
    7.1685  -14.0019   24.8030 C   0  0  0  0  0  0  0  0  0  0  0  0
    9.7960  -16.3693   24.6851 C   0  0  0  0  0  0  0  0  0  0  0  0
   10.4135  -17.4563   24.7493 O   0  0  0  0  0  0  0  0  0  0  0  0
   10.7370  -15.0263   29.4277 C   0  0  0  0  0  0  0  0  0  0  0  0
    9.9959  -14.8009   28.1337 C   0  0  1  0  0  0  0  0  0  0  0  0
   10.2117  -13.4100   27.5888 C   0  0  0  0  0  0  0  0  0  0  0  0
   10.3840  -15.8640   27.0969 C   0  0  2  0  0  0  0  0  0  0  0  0
    9.6925  -15.5730   25.8746 N   0  0  0  0  0  0  0  0  0  0  0  0
    9.9891  -17.1597   27.6898 C   0  0  0  0  0  0  0  0  0  0  0  0
   10.8391  -17.7305   28.6258 O   0  0  0  0  0  0  0  0  0  0  0  0
    8.9355  -17.7829   27.4057 O   0  0  0  0  0  0  0  0  0  0  0  0
  2  3  1  0
  2  1  1  6
  3  4  1  0
  4  8  1  0
  4  5  2  0
  5  6  1  0
  7  6  1  0
  8  7  2  0
  9 10  2  0
  9  2  1  0
 11  9  1  0
 12 11  1  0
 12 13  1  1
 13 14  1  0
 14 22  1  0
 14 15  2  0
 15 16  1  0
 17 16  1  0
 17 18  2  0
 19 18  1  0
 20 19  2  0
 21 20  1  0
 21 22  2  0
 22 17  1  0
 23 29  1  0
 23 12  1  0
 24 23  2  0
 26 28  1  0
 26 25  1  1
 27 26  1  0
 28 29  1  6
 28 30  1  0
 30 31  1  0
 32 30  2  0
M  END
$$$$
