HWV.pdb
     RDKit          3D

 32 34  0  0  1  0  0  0  0  0999 V2000
   11.6652  -18.1888   19.8551 N   0  0  0  0  0  0  0  0  0  0  0  0
   11.0663  -18.6507   21.0842 C   0  0  1  0  0  0  0  0  0  0  0  0
   12.0679  -19.4733   21.8568 C   0  0  0  0  0  0  0  0  0  0  0  0
   12.1107  -20.8756   21.4195 C   0  0  0  0  0  0  0  0  0  0  0  0
   12.8411  -21.3856   20.3715 C   0  0  0  0  0  0  0  0  0  0  0  0
   12.6075  -22.6892   20.3079 N   0  0  0  0  0  0  0  0  0  0  0  0
   11.7505  -23.0058   21.2889 C   0  0  0  0  0  0  0  0  0  0  0  0
   11.4454  -21.8902   21.9720 N   0  0  0  0  0  0  0  0  0  0  0  0
   10.7186  -17.4649   21.9123 C   0  0  0  0  0  0  0  0  0  0  0  0
   11.4723  -16.4653   21.8070 O   0  0  0  0  0  0  0  0  0  0  0  0
    9.6237  -17.3957   22.7860 N   0  0  0  0  0  0  0  0  0  0  0  0
    9.3058  -16.2580   23.6156 C   0  0  1  0  0  0  0  0  0  0  0  0
    7.8638  -15.9032   23.6108 C   0  0  0  0  0  0  0  0  0  0  0  0
    7.6953  -14.4533   23.8746 C   0  0  0  0  0  0  0  0  0  0  0  0
    8.1317  -13.3764   23.1238 C   0  0  0  0  0  0  0  0  0  0  0  0
    7.7789  -12.2254   23.7139 N   0  0  0  0  0  0  0  0  0  0  0  0
    7.1137  -12.5068   24.8469 C   0  0  0  0  0  0  0  0  0  0  0  0
    6.5268  -11.7097   25.8384 C   0  0  0  0  0  0  0  0  0  0  0  0
    5.9036  -12.3279   26.9034 C   0  0  0  0  0  0  0  0  0  0  0  0
    5.8282  -13.6982   27.0430 C   0  0  0  0  0  0  0  0  0  0  0  0
    6.4189  -14.4562   26.0447 C   0  0  0  0  0  0  0  0  0  0  0  0
    7.0527  -13.8814   24.9621 C   0  0  0  0  0  0  0  0  0  0  0  0
    9.7215  -16.5795   25.0046 C   0  0  0  0  0  0  0  0  0  0  0  0
    9.7963  -17.7595   25.4159 O   0  0  0  0  0  0  0  0  0  0  0  0
   10.5317  -14.6991   29.5340 C   0  0  0  0  0  0  0  0  0  0  0  0
    9.9984  -14.5784   28.1286 C   0  0  1  0  0  0  0  0  0  0  0  0
   10.3199  -13.2394   27.5106 C   0  0  0  0  0  0  0  0  0  0  0  0
   10.5183  -15.7270   27.2532 C   0  0  2  0  0  0  0  0  0  0  0  0
   10.0496  -15.5187   25.9138 N   0  0  0  0  0  0  0  0  0  0  0  0
    9.9878  -16.9641   27.8651 C   0  0  0  0  0  0  0  0  0  0  0  0
    8.7418  -17.4105   27.4492 O   0  0  0  0  0  0  0  0  0  0  0  0
   10.5864  -17.6423   28.7374 O   0  0  0  0  0  0  0  0  0  0  0  0
  2  3  1  0
  2  1  1  6
  3  4  1  0
  4  8  1  0
  4  5  2  0
  5  6  1  0
  7  6  1  0
  8  7  2  0
  9 10  2  0
  9  2  1  0
 11  9  1  0
 12 11  1  0
 12 13  1  1
 13 14  1  0
 14 22  1  0
 14 15  2  0
 15 16  1  0
 17 16  1  0
 17 18  2  0
 19 18  1  0
 20 19  2  0
 21 20  1  0
 21 22  2  0
 22 17  1  0
 23 29  1  0
 23 12  1  0
 24 23  2  0
 26 28  1  0
 26 25  1  1
 27 26  1  0
 28 29  1  6
 28 30  1  0
 30 31  1  0
 32 30  2  0
M  END
$$$$
