WGH.pdb
     RDKit          3D

 29 31  0  0  1  0  0  0  0  0999 V2000
   21.6045  -17.1601  -15.1431 N   0  0  0  0  0  0  0  0  0  0  0  0
   21.5106  -18.6359  -15.4328 C   0  0  1  0  0  0  0  0  0  0  0  0
   22.8992  -19.1457  -15.5564 C   0  0  0  0  0  0  0  0  0  0  0  0
   23.7246  -18.5232  -16.5695 C   0  0  0  0  0  0  0  0  0  0  0  0
   24.7621  -17.6572  -16.4994 C   0  0  0  0  0  0  0  0  0  0  0  0
   25.1983  -17.3738  -17.7586 N   0  0  0  0  0  0  0  0  0  0  0  0
   24.4707  -18.0366  -18.6662 C   0  0  0  0  0  0  0  0  0  0  0  0
   24.5188  -18.0929  -20.0654 C   0  0  0  0  0  0  0  0  0  0  0  0
   23.6251  -18.8839  -20.7176 C   0  0  0  0  0  0  0  0  0  0  0  0
   22.6917  -19.6173  -20.0462 C   0  0  0  0  0  0  0  0  0  0  0  0
   22.6571  -19.5509  -18.6547 C   0  0  0  0  0  0  0  0  0  0  0  0
   23.5532  -18.7544  -17.9530 C   0  0  0  0  0  0  0  0  0  0  0  0
   20.6955  -19.2530  -14.3661 C   0  0  0  0  0  0  0  0  0  0  0  0
   20.4427  -20.4882  -14.3152 O   0  0  0  0  0  0  0  0  0  0  0  0
   20.1262  -18.4630  -13.2960 N   0  0  0  0  0  0  0  0  0  0  0  0
   19.3024  -19.0884  -12.2945 C   0  0  0  0  0  0  0  0  0  0  0  0
   17.9604  -19.4852  -12.7134 C   0  0  0  0  0  0  0  0  0  0  0  0
   17.2103  -20.0003  -11.8105 O   0  0  0  0  0  0  0  0  0  0  0  0
   17.4466  -19.3430  -14.0056 N   0  0  0  0  0  0  0  0  0  0  0  0
   16.1832  -19.8396  -14.4809 C   0  0  1  0  0  0  0  0  0  0  0  0
   15.4875  -18.8430  -15.3465 C   0  0  0  0  0  0  0  0  0  0  0  0
   15.2766  -17.5162  -14.7573 C   0  0  0  0  0  0  0  0  0  0  0  0
   14.4611  -17.2355  -13.6812 C   0  0  0  0  0  0  0  0  0  0  0  0
   14.5230  -15.9179  -13.4362 N   0  0  0  0  0  0  0  0  0  0  0  0
   15.3508  -15.3916  -14.3308 C   0  0  0  0  0  0  0  0  0  0  0  0
   15.8176  -16.3591  -15.1439 N   0  0  0  0  0  0  0  0  0  0  0  0
   16.2560  -21.1968  -15.0618 C   0  0  0  0  0  0  0  0  0  0  0  0
   17.4037  -21.9395  -15.2556 O   0  0  0  0  0  0  0  0  0  0  0  0
   15.1774  -21.7429  -15.4160 O   0  0  0  0  0  0  0  0  0  0  0  0
  2  1  1  1
  2 13  1  0
  3  2  1  0
  3  4  1  0
  4 12  1  0
  4  5  2  0
  5  6  1  0
  7  8  2  0
  7  6  1  0
  9  8  1  0
 10  9  2  0
 11 10  1  0
 11 12  2  0
 12  7  1  0
 13 15  1  0
 13 14  2  0
 15 16  1  0
 17 16  1  0
 17 18  2  0
 19 17  1  0
 20 19  1  0
 20 21  1  6
 22 21  1  0
 23 22  2  0
 24 25  1  0
 24 23  1  0
 25 26  2  0
 26 22  1  0
 27 20  1  0
 28 27  1  0
 29 27  2  0
M  END
$$$$
