WGH.pdb
     RDKit          3D

 29 31  0  0  1  0  0  0  0  0999 V2000
   27.7564  -22.0598  -11.0355 N   0  0  0  0  0  0  0  0  0  0  0  0
   26.6811  -21.0834  -10.6344 C   0  0  1  0  0  0  0  0  0  0  0  0
   27.3077  -20.0946   -9.7218 C   0  0  0  0  0  0  0  0  0  0  0  0
   28.2891  -20.6105   -8.7912 C   0  0  0  0  0  0  0  0  0  0  0  0
   29.3897  -21.3806   -8.9555 C   0  0  0  0  0  0  0  0  0  0  0  0
   29.9798  -21.5872   -7.7450 N   0  0  0  0  0  0  0  0  0  0  0  0
   29.2928  -20.9673   -6.7775 C   0  0  0  0  0  0  0  0  0  0  0  0
   29.4816  -20.8670   -5.3928 C   0  0  0  0  0  0  0  0  0  0  0  0
   28.5914  -20.1418   -4.6638 C   0  0  0  0  0  0  0  0  0  0  0  0
   27.5286  -19.5156   -5.2452 C   0  0  0  0  0  0  0  0  0  0  0  0
   27.3548  -19.6246   -6.6235 C   0  0  0  0  0  0  0  0  0  0  0  0
   28.2428  -20.3563   -7.4019 C   0  0  0  0  0  0  0  0  0  0  0  0
   26.0926  -20.5289  -11.8710 C   0  0  0  0  0  0  0  0  0  0  0  0
   26.7524  -19.8562  -12.7103 O   0  0  0  0  0  0  0  0  0  0  0  0
   24.6975  -20.7262  -12.1996 N   0  0  0  0  0  0  0  0  0  0  0  0
   24.1330  -20.0981  -13.3657 C   0  0  0  0  0  0  0  0  0  0  0  0
   22.7442  -20.4301  -13.6734 C   0  0  0  0  0  0  0  0  0  0  0  0
   22.2169  -19.8131  -14.6657 O   0  0  0  0  0  0  0  0  0  0  0  0
   21.9657  -21.3577  -12.9753 N   0  0  0  0  0  0  0  0  0  0  0  0
   20.5784  -21.6559  -13.2102 C   0  0  1  0  0  0  0  0  0  0  0  0
   19.9186  -22.2125  -11.9931 C   0  0  0  0  0  0  0  0  0  0  0  0
   18.5223  -22.6326  -12.1542 C   0  0  0  0  0  0  0  0  0  0  0  0
   17.5307  -21.9034  -12.7761 C   0  0  0  0  0  0  0  0  0  0  0  0
   16.3911  -22.6096  -12.7246 N   0  0  0  0  0  0  0  0  0  0  0  0
   16.6618  -23.7441  -12.0905 C   0  0  0  0  0  0  0  0  0  0  0  0
   17.9615  -23.7694  -11.7369 N   0  0  0  0  0  0  0  0  0  0  0  0
   19.8312  -20.5531  -13.8507 C   0  0  0  0  0  0  0  0  0  0  0  0
   19.7573  -19.2500  -13.4007 O   0  0  0  0  0  0  0  0  0  0  0  0
   19.1991  -20.8093  -14.9100 O   0  0  0  0  0  0  0  0  0  0  0  0
  2  1  1  6
  2 13  1  0
  3  2  1  0
  3  4  1  0
  4 12  1  0
  4  5  2  0
  5  6  1  0
  7  8  2  0
  7  6  1  0
  9  8  1  0
 10  9  2  0
 11 10  1  0
 11 12  2  0
 12  7  1  0
 13 15  1  0
 13 14  2  0
 15 16  1  0
 17 16  1  0
 17 18  2  0
 19 17  1  0
 20 19  1  0
 20 21  1  1
 22 21  1  0
 23 22  2  0
 24 25  1  0
 24 23  1  0
 25 26  2  0
 26 22  1  0
 27 20  1  0
 28 27  1  0
 29 27  2  0
M  END
$$$$
