WGH.pdb
     RDKit          3D

 29 31  0  0  1  0  0  0  0  0999 V2000
   25.2659  -20.6593   -9.0537 N   0  0  0  0  0  0  0  0  0  0  0  0
   26.6896  -20.3058   -9.3984 C   0  0  1  0  0  0  0  0  0  0  0  0
   27.5411  -20.7842   -8.2806 C   0  0  0  0  0  0  0  0  0  0  0  0
   27.7562  -19.8538   -7.1927 C   0  0  0  0  0  0  0  0  0  0  0  0
   27.1697  -18.6796   -6.8636 C   0  0  0  0  0  0  0  0  0  0  0  0
   27.7450  -18.1911   -5.7292 N   0  0  0  0  0  0  0  0  0  0  0  0
   28.7032  -19.0197   -5.2962 C   0  0  0  0  0  0  0  0  0  0  0  0
   29.5683  -18.9790   -4.1948 C   0  0  0  0  0  0  0  0  0  0  0  0
   30.4489  -20.0004   -4.0187 C   0  0  0  0  0  0  0  0  0  0  0  0
   30.5081  -21.0541   -4.8824 C   0  0  0  0  0  0  0  0  0  0  0  0
   29.6408  -21.0802   -5.9728 C   0  0  0  0  0  0  0  0  0  0  0  0
   28.7274  -20.0555   -6.1862 C   0  0  0  0  0  0  0  0  0  0  0  0
   26.9891  -20.8859  -10.7238 C   0  0  0  0  0  0  0  0  0  0  0  0
   28.0950  -20.7337  -11.3121 O   0  0  0  0  0  0  0  0  0  0  0  0
   26.0134  -21.6773  -11.4414 N   0  0  0  0  0  0  0  0  0  0  0  0
   26.0362  -21.7235  -12.8802 C   0  0  0  0  0  0  0  0  0  0  0  0
   24.9771  -20.9910  -13.5699 C   0  0  0  0  0  0  0  0  0  0  0  0
   25.0241  -20.9924  -14.8509 O   0  0  0  0  0  0  0  0  0  0  0  0
   23.9348  -20.3035  -12.9417 N   0  0  0  0  0  0  0  0  0  0  0  0
   22.7056  -19.8741  -13.5527 C   0  0  1  0  0  0  0  0  0  0  0  0
   22.9100  -19.4522  -14.9693 C   0  0  0  0  0  0  0  0  0  0  0  0
   21.7599  -18.8191  -15.6237 C   0  0  0  0  0  0  0  0  0  0  0  0
   20.5180  -18.6265  -15.0557 C   0  0  0  0  0  0  0  0  0  0  0  0
   19.7299  -18.0216  -15.9573 N   0  0  0  0  0  0  0  0  0  0  0  0
   20.4559  -17.8419  -17.0541 C   0  0  0  0  0  0  0  0  0  0  0  0
   21.6986  -18.3256  -16.8621 N   0  0  0  0  0  0  0  0  0  0  0  0
   21.5825  -20.8154  -13.3595 C   0  0  0  0  0  0  0  0  0  0  0  0
   20.3885  -20.5395  -12.7237 O   0  0  0  0  0  0  0  0  0  0  0  0
   21.7099  -21.9832  -13.8148 O   0  0  0  0  0  0  0  0  0  0  0  0
  2  1  1  1
  2 13  1  0
  3  2  1  0
  3  4  1  0
  4 12  1  0
  4  5  2  0
  5  6  1  0
  7  8  2  0
  7  6  1  0
  9  8  1  0
 10  9  2  0
 11 10  1  0
 11 12  2  0
 12  7  1  0
 13 15  1  0
 13 14  2  0
 15 16  1  0
 17 16  1  0
 17 18  2  0
 19 17  1  0
 20 19  1  0
 20 21  1  6
 22 21  1  0
 23 22  2  0
 24 25  1  0
 24 23  1  0
 25 26  2  0
 26 22  1  0
 27 20  1  0
 28 27  1  0
 29 27  2  0
M  END
$$$$
