WGH.pdb
     RDKit          3D

 29 31  0  0  1  0  0  0  0  0999 V2000
   25.2602  -21.6380  -10.4431 N   0  0  0  0  0  0  0  0  0  0  0  0
   25.9035  -20.3087  -10.1436 C   0  0  1  0  0  0  0  0  0  0  0  0
   26.9925  -20.5610   -9.1669 C   0  0  0  0  0  0  0  0  0  0  0  0
   26.6225  -20.5243   -7.7679 C   0  0  0  0  0  0  0  0  0  0  0  0
   25.5079  -20.9121   -7.1058 C   0  0  0  0  0  0  0  0  0  0  0  0
   25.6628  -20.6591   -5.7761 N   0  0  0  0  0  0  0  0  0  0  0  0
   26.8613  -20.1109   -5.5404 C   0  0  0  0  0  0  0  0  0  0  0  0
   27.4954  -19.6805   -4.3675 C   0  0  0  0  0  0  0  0  0  0  0  0
   28.7485  -19.1596   -4.4567 C   0  0  0  0  0  0  0  0  0  0  0  0
   29.3961  -19.0479   -5.6516 C   0  0  0  0  0  0  0  0  0  0  0  0
   28.7523  -19.4808   -6.8092 C   0  0  0  0  0  0  0  0  0  0  0  0
   27.4724  -20.0185   -6.7585 C   0  0  0  0  0  0  0  0  0  0  0  0
   26.3228  -19.7119  -11.4284 C   0  0  0  0  0  0  0  0  0  0  0  0
   26.6794  -18.5074  -11.5485 O   0  0  0  0  0  0  0  0  0  0  0  0
   26.3487  -20.4867  -12.6500 N   0  0  0  0  0  0  0  0  0  0  0  0
   25.7049  -19.9877  -13.8371 C   0  0  0  0  0  0  0  0  0  0  0  0
   24.3550  -20.4804  -14.0992 C   0  0  0  0  0  0  0  0  0  0  0  0
   23.6779  -19.8456  -14.9834 O   0  0  0  0  0  0  0  0  0  0  0  0
   23.7624  -21.5767  -13.4660 N   0  0  0  0  0  0  0  0  0  0  0  0
   22.4482  -22.1021  -13.7222 C   0  0  1  0  0  0  0  0  0  0  0  0
   22.4490  -23.5934  -13.7732 C   0  0  0  0  0  0  0  0  0  0  0  0
   23.3437  -24.2020  -14.7637 C   0  0  0  0  0  0  0  0  0  0  0  0
   24.6150  -24.6749  -14.5146 C   0  0  0  0  0  0  0  0  0  0  0  0
   25.1201  -25.1541  -15.6615 N   0  0  0  0  0  0  0  0  0  0  0  0
   24.1940  -24.9859  -16.5978 C   0  0  0  0  0  0  0  0  0  0  0  0
   23.1037  -24.4046  -16.0608 N   0  0  0  0  0  0  0  0  0  0  0  0
   21.3970  -21.5286  -12.8556 C   0  0  0  0  0  0  0  0  0  0  0  0
   20.0513  -21.4460  -13.1532 O   0  0  0  0  0  0  0  0  0  0  0  0
   21.7449  -21.0702  -11.7349 O   0  0  0  0  0  0  0  0  0  0  0  0
  2  1  1  6
  2 13  1  0
  3  2  1  0
  3  4  1  0
  4 12  1  0
  4  5  2  0
  5  6  1  0
  7  8  2  0
  7  6  1  0
  9  8  1  0
 10  9  2  0
 11 10  1  0
 11 12  2  0
 12  7  1  0
 13 15  1  0
 13 14  2  0
 15 16  1  0
 17 16  1  0
 17 18  2  0
 19 17  1  0
 20 19  1  0
 20 21  1  1
 22 21  1  0
 23 22  2  0
 24 25  1  0
 24 23  1  0
 25 26  2  0
 26 22  1  0
 27 20  1  0
 28 27  1  0
 29 27  2  0
M  END
$$$$
