WGH.pdb
     RDKit          3D

 29 31  0  0  1  0  0  0  0  0999 V2000
   27.6336  -22.2225  -10.5332 N   0  0  0  0  0  0  0  0  0  0  0  0
   26.5639  -21.2639  -10.0778 C   0  0  1  0  0  0  0  0  0  0  0  0
   27.2532  -20.0740   -9.5188 C   0  0  0  0  0  0  0  0  0  0  0  0
   28.2206  -20.3246   -8.4715 C   0  0  0  0  0  0  0  0  0  0  0  0
   29.4160  -20.9586   -8.4628 C   0  0  0  0  0  0  0  0  0  0  0  0
   29.9380  -20.9185   -7.2049 N   0  0  0  0  0  0  0  0  0  0  0  0
   29.1122  -20.2679   -6.3760 C   0  0  0  0  0  0  0  0  0  0  0  0
   29.1868  -19.9554   -5.0122 C   0  0  0  0  0  0  0  0  0  0  0  0
   28.1643  -19.2607   -4.4452 C   0  0  0  0  0  0  0  0  0  0  0  0
   27.0776  -18.8649   -5.1678 C   0  0  0  0  0  0  0  0  0  0  0  0
   27.0185  -19.1831   -6.5233 C   0  0  0  0  0  0  0  0  0  0  0  0
   28.0432  -19.8912   -7.1382 C   0  0  0  0  0  0  0  0  0  0  0  0
   25.6724  -21.0051  -11.2272 C   0  0  0  0  0  0  0  0  0  0  0  0
   25.9422  -21.3630  -12.4068 O   0  0  0  0  0  0  0  0  0  0  0  0
   24.4131  -20.3111  -11.0668 N   0  0  0  0  0  0  0  0  0  0  0  0
   23.5931  -20.0252  -12.2152 C   0  0  0  0  0  0  0  0  0  0  0  0
   22.2535  -20.6077  -12.2172 C   0  0  0  0  0  0  0  0  0  0  0  0
   21.9327  -21.3034  -11.1895 O   0  0  0  0  0  0  0  0  0  0  0  0
   21.3143  -20.4600  -13.2419 N   0  0  0  0  0  0  0  0  0  0  0  0
   19.9617  -20.9491  -13.2365 C   0  0  1  0  0  0  0  0  0  0  0  0
   19.0528  -20.0708  -14.0297 C   0  0  0  0  0  0  0  0  0  0  0  0
   19.1038  -18.6395  -13.7122 C   0  0  0  0  0  0  0  0  0  0  0  0
   18.4931  -18.0334  -12.6345 C   0  0  0  0  0  0  0  0  0  0  0  0
   18.7618  -16.7197  -12.6800 N   0  0  0  0  0  0  0  0  0  0  0  0
   19.5164  -16.5113  -13.7522 C   0  0  0  0  0  0  0  0  0  0  0  0
   19.7320  -17.6775  -14.3912 N   0  0  0  0  0  0  0  0  0  0  0  0
   19.8458  -22.3866  -13.5603 C   0  0  0  0  0  0  0  0  0  0  0  0
   18.8831  -23.2540  -13.0837 O   0  0  0  0  0  0  0  0  0  0  0  0
   20.6964  -22.8822  -14.3465 O   0  0  0  0  0  0  0  0  0  0  0  0
  2  1  1  6
  2 13  1  0
  3  2  1  0
  3  4  1  0
  4 12  1  0
  4  5  2  0
  5  6  1  0
  7  8  2  0
  7  6  1  0
  9  8  1  0
 10  9  2  0
 11 10  1  0
 11 12  2  0
 12  7  1  0
 13 15  1  0
 13 14  2  0
 15 16  1  0
 17 16  1  0
 17 18  2  0
 19 17  1  0
 20 19  1  0
 20 21  1  6
 22 21  1  0
 23 22  2  0
 24 25  1  0
 24 23  1  0
 25 26  2  0
 26 22  1  0
 27 20  1  0
 28 27  1  0
 29 27  2  0
M  END
$$$$
