WDQ.pdb
     RDKit          3D

 32 33  0  0  1  0  0  0  0  0999 V2000
   25.1676  -32.4339  -11.2145 N   0  0  0  0  0  0  0  0  0  0  0  0
   24.1911  -32.0692  -10.2146 C   0  0  1  0  0  0  0  0  0  0  0  0
   22.8059  -32.2131  -10.8020 C   0  0  0  0  0  0  0  0  0  0  0  0
   22.5051  -31.2496  -11.8658 C   0  0  0  0  0  0  0  0  0  0  0  0
   22.7003  -31.4474  -13.2157 C   0  0  0  0  0  0  0  0  0  0  0  0
   22.2970  -30.3310  -13.8851 N   0  0  0  0  0  0  0  0  0  0  0  0
   21.8561  -29.4382  -13.0171 C   0  0  0  0  0  0  0  0  0  0  0  0
   21.3450  -28.1614  -13.1497 C   0  0  0  0  0  0  0  0  0  0  0  0
   20.9653  -27.4608  -12.0274 C   0  0  0  0  0  0  0  0  0  0  0  0
   21.0734  -27.9893  -10.7375 C   0  0  0  0  0  0  0  0  0  0  0  0
   21.5857  -29.2649  -10.6257 C   0  0  0  0  0  0  0  0  0  0  0  0
   21.9730  -29.9824  -11.7476 C   0  0  0  0  0  0  0  0  0  0  0  0
   24.2722  -33.0198   -9.0696 C   0  0  0  0  0  0  0  0  0  0  0  0
   24.4256  -34.2471   -9.2722 O   0  0  0  0  0  0  0  0  0  0  0  0
   24.1794  -32.6082   -7.6989 N   0  0  0  0  0  0  0  0  0  0  0  0
   24.1815  -33.4970   -6.5924 C   0  0  1  0  0  0  0  0  0  0  0  0
   25.4694  -33.7303   -5.8940 C   0  0  0  0  0  0  0  0  0  0  0  0
   25.5755  -33.0674   -4.5635 C   0  0  0  0  0  0  0  0  0  0  0  0
   24.6844  -33.1887   -3.7183 O   0  0  0  0  0  0  0  0  0  0  0  0
   23.1606  -33.1011   -5.5575 C   0  0  0  0  0  0  0  0  0  0  0  0
   23.0037  -31.9273   -5.1874 O   0  0  0  0  0  0  0  0  0  0  0  0
   26.7103  -32.2806   -4.2343 O   0  0  0  0  0  0  0  0  0  0  0  0
   18.3741  -31.8917   -4.9045 N   0  0  0  0  0  0  0  0  0  0  0  0
   17.9706  -32.9907   -4.0784 C   0  0  0  0  0  0  0  0  0  0  0  0
   16.8900  -32.9237   -3.4385 O   0  0  0  0  0  0  0  0  0  0  0  0
   18.7803  -34.1999   -3.9620 C   0  0  0  0  0  0  0  0  0  0  0  0
   20.0395  -34.2691   -4.7209 C   0  0  0  0  0  0  0  0  0  0  0  0
   21.2984  -33.8780   -4.0199 C   0  0  2  0  0  0  0  0  0  0  0  0
   22.3681  -34.1341   -5.0093 N   0  0  0  0  0  0  0  0  0  0  0  0
   21.5840  -34.6859   -2.8455 C   0  0  0  0  0  0  0  0  0  0  0  0
   20.9808  -34.3590   -1.6256 O   0  0  0  0  0  0  0  0  0  0  0  0
   22.3454  -35.6758   -2.8295 O   0  0  0  0  0  0  0  0  0  0  0  0
  2  1  1  6
  3  4  1  0
  3  2  1  0
  4 12  1  0
  4  5  2  0
  5  6  1  0
  7  8  2  0
  7  6  1  0
  9  8  1  0
 10  9  2  0
 11 10  1  0
 11 12  2  0
 12  7  1  0
 13  2  1  0
 14 13  2  0
 15 13  1  0
 16 15  1  0
 16 17  1  1
 18 19  2  0
 18 17  1  0
 20 16  1  0
 21 20  2  0
 22 18  1  0
 23 24  1  0
 24 26  1  0
 25 24  2  0
 27 26  1  0
 28 27  1  6
 28 29  1  0
 29 20  1  0
 30 28  1  0
 30 31  1  0
 32 30  2  0
M  END
$$$$
