WDQ.pdb
     RDKit          3D

 32 33  0  0  1  0  0  0  0  0999 V2000
   27.7456  -21.7039  -14.7969 N   0  0  0  0  0  0  0  0  0  0  0  0
   26.8070  -21.4583  -13.7269 C   0  0  1  0  0  0  0  0  0  0  0  0
   27.1716  -20.1633  -13.0380 C   0  0  0  0  0  0  0  0  0  0  0  0
   27.9714  -20.3385  -11.8214 C   0  0  0  0  0  0  0  0  0  0  0  0
   29.3470  -20.3974  -11.7588 C   0  0  0  0  0  0  0  0  0  0  0  0
   29.7199  -20.5602  -10.4583 N   0  0  0  0  0  0  0  0  0  0  0  0
   28.6406  -20.6066   -9.6982 C   0  0  0  0  0  0  0  0  0  0  0  0
   28.4463  -20.7582   -8.3387 C   0  0  0  0  0  0  0  0  0  0  0  0
   27.1666  -20.7714   -7.8318 C   0  0  0  0  0  0  0  0  0  0  0  0
   26.0347  -20.6354   -8.6413 C   0  0  0  0  0  0  0  0  0  0  0  0
   26.2492  -20.4851   -9.9954 C   0  0  0  0  0  0  0  0  0  0  0  0
   27.5329  -20.4707  -10.5203 C   0  0  0  0  0  0  0  0  0  0  0  0
   25.4418  -21.2721  -14.2952 C   0  0  0  0  0  0  0  0  0  0  0  0
   25.2439  -20.4440  -15.2150 O   0  0  0  0  0  0  0  0  0  0  0  0
   24.2950  -22.0030  -13.8398 N   0  0  0  0  0  0  0  0  0  0  0  0
   22.9858  -21.8514  -14.3667 C   0  0  1  0  0  0  0  0  0  0  0  0
   22.1392  -23.0646  -14.4773 C   0  0  0  0  0  0  0  0  0  0  0  0
   20.8717  -22.8620  -15.2345 C   0  0  0  0  0  0  0  0  0  0  0  0
   20.6105  -21.7768  -15.7610 O   0  0  0  0  0  0  0  0  0  0  0  0
   22.2004  -20.8075  -13.6163 C   0  0  0  0  0  0  0  0  0  0  0  0
   22.0039  -20.8693  -12.3928 O   0  0  0  0  0  0  0  0  0  0  0  0
   19.9327  -23.9179  -15.3715 O   0  0  0  0  0  0  0  0  0  0  0  0
   23.1826  -15.9834  -15.8356 N   0  0  0  0  0  0  0  0  0  0  0  0
   22.6025  -17.0528  -16.5928 C   0  0  0  0  0  0  0  0  0  0  0  0
   23.0795  -17.3478  -17.7184 O   0  0  0  0  0  0  0  0  0  0  0  0
   21.4687  -17.8219  -16.0885 C   0  0  0  0  0  0  0  0  0  0  0  0
   20.9701  -17.5204  -14.7369 C   0  0  0  0  0  0  0  0  0  0  0  0
   20.8803  -18.6459  -13.7599 C   0  0  2  0  0  0  0  0  0  0  0  0
   21.6830  -19.7294  -14.3684 N   0  0  0  0  0  0  0  0  0  0  0  0
   19.5290  -19.1499  -13.5774 C   0  0  0  0  0  0  0  0  0  0  0  0
   18.6961  -18.5492  -12.6263 O   0  0  0  0  0  0  0  0  0  0  0  0
   19.0317  -20.1026  -14.2138 O   0  0  0  0  0  0  0  0  0  0  0  0
  2  1  1  6
  3  4  1  0
  3  2  1  0
  4 12  1  0
  4  5  2  0
  5  6  1  0
  7  8  2  0
  7  6  1  0
  9  8  1  0
 10  9  2  0
 11 10  1  0
 11 12  2  0
 12  7  1  0
 13  2  1  0
 14 13  2  0
 15 13  1  0
 16 15  1  0
 16 17  1  1
 18 19  2  0
 18 17  1  0
 20 16  1  0
 21 20  2  0
 22 18  1  0
 23 24  1  0
 24 26  1  0
 25 24  2  0
 27 26  1  0
 28 27  1  6
 28 29  1  0
 29 20  1  0
 30 28  1  0
 30 31  1  0
 32 30  2  0
M  END
$$$$
