WDQ.pdb
     RDKit          3D

 32 33  0  0  1  0  0  0  0  0999 V2000
   24.5119  -19.2424  -18.2691 N   0  0  0  0  0  0  0  0  0  0  0  0
   23.8417  -18.4503  -17.2643 C   0  0  1  0  0  0  0  0  0  0  0  0
   22.6497  -17.7640  -17.8910 C   0  0  0  0  0  0  0  0  0  0  0  0
   22.9981  -16.8058  -18.9451 C   0  0  0  0  0  0  0  0  0  0  0  0
   23.3839  -17.1211  -20.2300 C   0  0  0  0  0  0  0  0  0  0  0  0
   23.6172  -15.9656  -20.9137 N   0  0  0  0  0  0  0  0  0  0  0  0
   23.3955  -14.9358  -20.1167 C   0  0  0  0  0  0  0  0  0  0  0  0
   23.4815  -13.5679  -20.2917 C   0  0  0  0  0  0  0  0  0  0  0  0
   23.1823  -12.7279  -19.2431 C   0  0  0  0  0  0  0  0  0  0  0  0
   22.7881  -13.2014  -17.9880 C   0  0  0  0  0  0  0  0  0  0  0  0
   22.7082  -14.5695  -17.8330 C   0  0  0  0  0  0  0  0  0  0  0  0
   23.0073  -15.4279  -18.8804 C   0  0  0  0  0  0  0  0  0  0  0  0
   23.3095  -19.3453  -16.1981 C   0  0  0  0  0  0  0  0  0  0  0  0
   22.6457  -20.3654  -16.4975 O   0  0  0  0  0  0  0  0  0  0  0  0
   23.5111  -19.1059  -14.7985 N   0  0  0  0  0  0  0  0  0  0  0  0
   22.9462  -19.8919  -13.7605 C   0  0  1  0  0  0  0  0  0  0  0  0
   23.5534  -19.7956  -12.4103 C   0  0  0  0  0  0  0  0  0  0  0  0
   23.2851  -20.9687  -11.5312 C   0  0  0  0  0  0  0  0  0  0  0  0
   22.4601  -21.8290  -11.8508 O   0  0  0  0  0  0  0  0  0  0  0  0
   21.4662  -19.6481  -13.6192 C   0  0  0  0  0  0  0  0  0  0  0  0
   20.9498  -18.5367  -13.8124 O   0  0  0  0  0  0  0  0  0  0  0  0
   23.9778  -21.1267  -10.3021 O   0  0  0  0  0  0  0  0  0  0  0  0
   16.0552  -21.2885  -15.0704 N   0  0  0  0  0  0  0  0  0  0  0  0
   17.2117  -21.7291  -15.7926 C   0  0  0  0  0  0  0  0  0  0  0  0
   17.0770  -22.5269  -16.7554 O   0  0  0  0  0  0  0  0  0  0  0  0
   18.5532  -21.2695  -15.4456 C   0  0  0  0  0  0  0  0  0  0  0  0
   18.6867  -20.2338  -14.4084 C   0  0  0  0  0  0  0  0  0  0  0  0
   19.2011  -20.6498  -13.0699 C   0  0  2  0  0  0  0  0  0  0  0  0
   20.6657  -20.7526  -13.2517 N   0  0  0  0  0  0  0  0  0  0  0  0
   18.7192  -21.9529  -12.6421 C   0  0  0  0  0  0  0  0  0  0  0  0
   17.4193  -22.0708  -12.1367 O   0  0  0  0  0  0  0  0  0  0  0  0
   19.3851  -23.0086  -12.6859 O   0  0  0  0  0  0  0  0  0  0  0  0
  2  1  1  6
  3  4  1  0
  3  2  1  0
  4 12  1  0
  4  5  2  0
  5  6  1  0
  7  8  2  0
  7  6  1  0
  9  8  1  0
 10  9  2  0
 11 10  1  0
 11 12  2  0
 12  7  1  0
 13  2  1  0
 14 13  2  0
 15 13  1  0
 16 15  1  0
 16 17  1  1
 18 19  2  0
 18 17  1  0
 20 16  1  0
 21 20  2  0
 22 18  1  0
 23 24  1  0
 24 26  1  0
 25 24  2  0
 27 26  1  0
 28 27  1  6
 28 29  1  0
 29 20  1  0
 30 28  1  0
 30 31  1  0
 32 30  2  0
M  END
$$$$
