WDQ.pdb
     RDKit          3D

 32 33  0  0  1  0  0  0  0  0999 V2000
   26.4830  -22.3665  -13.0556 N   0  0  0  0  0  0  0  0  0  0  0  0
   25.6905  -21.5755  -12.1432 C   0  0  1  0  0  0  0  0  0  0  0  0
   26.3724  -20.2445  -11.9236 C   0  0  0  0  0  0  0  0  0  0  0  0
   27.5018  -20.2988  -10.9898 C   0  0  0  0  0  0  0  0  0  0  0  0
   28.8364  -20.3019  -11.3334 C   0  0  0  0  0  0  0  0  0  0  0  0
   29.5822  -20.3534  -10.1940 N   0  0  0  0  0  0  0  0  0  0  0  0
   28.7769  -20.3829   -9.1474 C   0  0  0  0  0  0  0  0  0  0  0  0
   28.9978  -20.4399   -7.7847 C   0  0  0  0  0  0  0  0  0  0  0  0
   27.9254  -20.4626   -6.9221 C   0  0  0  0  0  0  0  0  0  0  0  0
   26.6003  -20.4293   -7.3673 C   0  0  0  0  0  0  0  0  0  0  0  0
   26.4004  -20.3725   -8.7307 C   0  0  0  0  0  0  0  0  0  0  0  0
   27.4713  -20.3498   -9.6117 C   0  0  0  0  0  0  0  0  0  0  0  0
   24.3659  -21.2820  -12.7600 C   0  0  0  0  0  0  0  0  0  0  0  0
   24.2251  -21.3075  -14.0052 O   0  0  0  0  0  0  0  0  0  0  0  0
   23.1976  -20.9567  -11.9944 N   0  0  0  0  0  0  0  0  0  0  0  0
   21.8940  -20.8201  -12.5387 C   0  0  1  0  0  0  0  0  0  0  0  0
   20.7393  -21.0763  -11.6431 C   0  0  0  0  0  0  0  0  0  0  0  0
   19.4245  -21.1465  -12.3411 C   0  0  0  0  0  0  0  0  0  0  0  0
   19.3479  -21.0389  -13.5682 O   0  0  0  0  0  0  0  0  0  0  0  0
   21.6940  -19.4688  -13.1742 C   0  0  0  0  0  0  0  0  0  0  0  0
   21.5359  -18.4335  -12.5090 O   0  0  0  0  0  0  0  0  0  0  0  0
   18.2246  -21.3433  -11.6083 O   0  0  0  0  0  0  0  0  0  0  0  0
   25.5569  -18.0689  -15.8104 N   0  0  0  0  0  0  0  0  0  0  0  0
   24.4119  -17.8111  -16.6324 C   0  0  0  0  0  0  0  0  0  0  0  0
   24.2699  -16.6802  -17.1639 O   0  0  0  0  0  0  0  0  0  0  0  0
   23.3998  -18.8338  -16.8795 C   0  0  0  0  0  0  0  0  0  0  0  0
   21.9844  -18.4653  -16.7150 C   0  0  0  0  0  0  0  0  0  0  0  0
   21.4998  -18.1569  -15.3368 C   0  0  2  0  0  0  0  0  0  0  0  0
   21.6931  -19.4169  -14.5859 N   0  0  0  0  0  0  0  0  0  0  0  0
   20.0859  -17.8241  -15.2795 C   0  0  0  0  0  0  0  0  0  0  0  0
   19.7022  -16.4862  -15.1318 O   0  0  0  0  0  0  0  0  0  0  0  0
   19.1549  -18.6538  -15.3509 O   0  0  0  0  0  0  0  0  0  0  0  0
  2  1  1  6
  3  4  1  0
  3  2  1  0
  4 12  1  0
  4  5  2  0
  5  6  1  0
  7  8  2  0
  7  6  1  0
  9  8  1  0
 10  9  2  0
 11 10  1  0
 11 12  2  0
 12  7  1  0
 13  2  1  0
 14 13  2  0
 15 13  1  0
 16 15  1  0
 16 17  1  1
 18 19  2  0
 18 17  1  0
 20 16  1  0
 21 20  2  0
 22 18  1  0
 23 24  1  0
 24 26  1  0
 25 24  2  0
 27 26  1  0
 28 27  1  6
 28 29  1  0
 29 20  1  0
 30 28  1  0
 30 31  1  0
 32 30  2  0
M  END
$$$$
