WDQ.pdb
     RDKit          3D

 32 33  0  0  1  0  0  0  0  0999 V2000
   26.7527  -21.1586  -12.6717 N   0  0  0  0  0  0  0  0  0  0  0  0
   25.7330  -21.3803  -11.6732 C   0  0  1  0  0  0  0  0  0  0  0  0
   26.0585  -20.5614  -10.4451 C   0  0  0  0  0  0  0  0  0  0  0  0
   27.3357  -20.9111   -9.8152 C   0  0  0  0  0  0  0  0  0  0  0  0
   28.3849  -21.5666  -10.4226 C   0  0  0  0  0  0  0  0  0  0  0  0
   29.3969  -21.7044   -9.5204 N   0  0  0  0  0  0  0  0  0  0  0  0
   29.0322  -21.1648   -8.3712 C   0  0  0  0  0  0  0  0  0  0  0  0
   29.6586  -21.0326   -7.1467 C   0  0  0  0  0  0  0  0  0  0  0  0
   29.0020  -20.4080   -6.1108 C   0  0  0  0  0  0  0  0  0  0  0  0
   27.7092  -19.8914   -6.2413 C   0  0  0  0  0  0  0  0  0  0  0  0
   27.1008  -20.0331   -7.4708 C   0  0  0  0  0  0  0  0  0  0  0  0
   27.7501  -20.6608   -8.5235 C   0  0  0  0  0  0  0  0  0  0  0  0
   24.4220  -20.8872  -12.1823 C   0  0  0  0  0  0  0  0  0  0  0  0
   24.1811  -19.6582  -12.2316 O   0  0  0  0  0  0  0  0  0  0  0  0
   23.3764  -21.7588  -12.6336 N   0  0  0  0  0  0  0  0  0  0  0  0
   22.0855  -21.3240  -13.0323 C   0  0  1  0  0  0  0  0  0  0  0  0
   21.9552  -20.6619  -14.3535 C   0  0  0  0  0  0  0  0  0  0  0  0
   22.5202  -21.4428  -15.4901 C   0  0  0  0  0  0  0  0  0  0  0  0
   21.8321  -22.2627  -16.1045 O   0  0  0  0  0  0  0  0  0  0  0  0
   21.0782  -22.4430  -12.9757 C   0  0  0  0  0  0  0  0  0  0  0  0
   21.3822  -23.6279  -13.1830 O   0  0  0  0  0  0  0  0  0  0  0  0
   23.8678  -21.2586  -15.8970 O   0  0  0  0  0  0  0  0  0  0  0  0
   14.9104  -22.4909   -9.9031 N   0  0  0  0  0  0  0  0  0  0  0  0
   15.5275  -23.2252  -10.9676 C   0  0  0  0  0  0  0  0  0  0  0  0
   14.8804  -23.4551  -12.0212 O   0  0  0  0  0  0  0  0  0  0  0  0
   16.8999  -23.7126  -10.8675 C   0  0  0  0  0  0  0  0  0  0  0  0
   17.9888  -22.8150  -11.2859 C   0  0  0  0  0  0  0  0  0  0  0  0
   18.6551  -23.0895  -12.5935 C   0  0  2  0  0  0  0  0  0  0  0  0
   19.7444  -22.0915  -12.6708 N   0  0  0  0  0  0  0  0  0  0  0  0
   17.7878  -22.8827  -13.7417 C   0  0  0  0  0  0  0  0  0  0  0  0
   17.1872  -23.9883  -14.3549 O   0  0  0  0  0  0  0  0  0  0  0  0
   17.5252  -21.7703  -14.2453 O   0  0  0  0  0  0  0  0  0  0  0  0
  2  1  1  6
  3  4  1  0
  3  2  1  0
  4 12  1  0
  4  5  2  0
  5  6  1  0
  7  8  2  0
  7  6  1  0
  9  8  1  0
 10  9  2  0
 11 10  1  0
 11 12  2  0
 12  7  1  0
 13  2  1  0
 14 13  2  0
 15 13  1  0
 16 15  1  0
 16 17  1  6
 18 19  2  0
 18 17  1  0
 20 16  1  0
 21 20  2  0
 22 18  1  0
 23 24  1  0
 24 26  1  0
 25 24  2  0
 27 26  1  0
 28 27  1  1
 28 29  1  0
 29 20  1  0
 30 28  1  0
 30 31  1  0
 32 30  2  0
M  END
$$$$
