EEC.pdb
     RDKit          3D

 25 24  0  0  1  0  0  0  0  0999 V2000
   13.9205  -19.2535   18.9260 N   0  0  0  0  0  0  0  0  0  0  0  0
   14.6441  -18.0710   18.6084 C   0  0  1  0  0  0  0  0  0  0  0  0
   15.0359  -17.9123   17.1827 C   0  0  0  0  0  0  0  0  0  0  0  0
   15.9833  -18.9639   16.7390 C   0  0  0  0  0  0  0  0  0  0  0  0
   16.9920  -18.4247   15.8191 C   0  0  0  0  0  0  0  0  0  0  0  0
   16.8137  -17.4708   15.0458 O   0  0  0  0  0  0  0  0  0  0  0  0
   13.8648  -16.8835   19.0997 C   0  0  0  0  0  0  0  0  0  0  0  0
   14.3105  -15.7232   18.9781 O   0  0  0  0  0  0  0  0  0  0  0  0
   18.2541  -19.0242   15.8051 O   0  0  0  0  0  0  0  0  0  0  0  0
   12.6065  -17.0844   19.7092 N   0  0  0  0  0  0  0  0  0  0  0  0
   11.7122  -15.9949   20.0558 C   0  0  1  0  0  0  0  0  0  0  0  0
   10.3580  -16.1494   19.3991 C   0  0  0  0  0  0  0  0  0  0  0  0
    9.9809  -17.5871   19.2042 C   0  0  0  0  0  0  0  0  0  0  0  0
    8.6470  -17.6595   18.5806 C   0  0  0  0  0  0  0  0  0  0  0  0
    7.6281  -17.4682   19.2694 O   0  0  0  0  0  0  0  0  0  0  0  0
   11.5797  -16.0143   21.5456 C   0  0  0  0  0  0  0  0  0  0  0  0
   10.8713  -15.1285   22.0724 O   0  0  0  0  0  0  0  0  0  0  0  0
    8.5250  -17.9381   17.2390 O   0  0  0  0  0  0  0  0  0  0  0  0
   12.2053  -16.9679   22.3642 N   0  0  0  0  0  0  0  0  0  0  0  0
   12.1247  -16.9572   23.8029 C   0  0  1  0  0  0  0  0  0  0  0  0
   10.6886  -17.1716   24.2324 C   0  0  0  0  0  0  0  0  0  0  0  0
   10.5514  -16.6429   25.9760 S   0  0  0  0  0  0  0  0  0  0  0  0
   12.9295  -18.0386   24.4065 C   0  0  0  0  0  0  0  0  0  0  0  0
   13.1110  -18.1298   25.7621 O   0  0  0  0  0  0  0  0  0  0  0  0
   13.4561  -18.8909   23.6462 O   0  0  0  0  0  0  0  0  0  0  0  0
  2  1  1  6
  3  4  1  0
  3  2  1  0
  5  4  1  0
  5  6  2  0
  7  2  1  0
  7  8  2  0
  9  5  1  0
 10  7  1  0
 11 10  1  0
 11 16  1  0
 11 12  1  6
 13 12  1  0
 14 13  1  0
 14 15  2  0
 16 17  2  0
 18 14  1  0
 19 16  1  0
 19 20  1  0
 20 23  1  0
 20 21  1  6
 22 21  1  0
 23 25  2  0
 23 24  1  0
M  END
$$$$
