EEC.pdb
     RDKit          3D

 25 24  0  0  1  0  0  0  0  0999 V2000
    8.1487  -15.1544   18.4302 N   0  0  0  0  0  0  0  0  0  0  0  0
    8.8363  -14.5210   19.5020 C   0  0  1  0  0  0  0  0  0  0  0  0
    8.6925  -13.0431   19.5830 C   0  0  0  0  0  0  0  0  0  0  0  0
    9.4177  -12.3466   18.4925 C   0  0  0  0  0  0  0  0  0  0  0  0
   10.8510  -12.6622   18.5135 C   0  0  0  0  0  0  0  0  0  0  0  0
   11.5988  -12.5147   19.4927 O   0  0  0  0  0  0  0  0  0  0  0  0
    8.4345  -15.1837   20.7898 C   0  0  0  0  0  0  0  0  0  0  0  0
    7.2675  -15.5903   20.9703 O   0  0  0  0  0  0  0  0  0  0  0  0
   11.4283  -13.1686   17.3461 O   0  0  0  0  0  0  0  0  0  0  0  0
    9.3942  -15.3489   21.8129 N   0  0  0  0  0  0  0  0  0  0  0  0
    9.0953  -15.9852   23.0829 C   0  0  1  0  0  0  0  0  0  0  0  0
   10.0580  -17.1122   23.3865 C   0  0  0  0  0  0  0  0  0  0  0  0
    9.9165  -18.2554   22.4273 C   0  0  0  0  0  0  0  0  0  0  0  0
   10.9222  -19.2851   22.7465 C   0  0  0  0  0  0  0  0  0  0  0  0
   11.6432  -19.1580   23.7531 O   0  0  0  0  0  0  0  0  0  0  0  0
    9.1914  -14.9162   24.1245 C   0  0  0  0  0  0  0  0  0  0  0  0
    9.5657  -13.7822   23.7533 O   0  0  0  0  0  0  0  0  0  0  0  0
   11.0663  -20.3863   21.9348 O   0  0  0  0  0  0  0  0  0  0  0  0
    8.8845  -15.1271   25.4782 N   0  0  0  0  0  0  0  0  0  0  0  0
    8.4922  -14.0728   26.3788 C   0  0  1  0  0  0  0  0  0  0  0  0
    7.2527  -13.3854   25.8461 C   0  0  0  0  0  0  0  0  0  0  0  0
    6.7927  -12.0796   27.0387 S   0  0  0  0  0  0  0  0  0  0  0  0
    8.1636  -14.5915   27.7221 C   0  0  0  0  0  0  0  0  0  0  0  0
    8.4921  -13.9016   28.8600 O   0  0  0  0  0  0  0  0  0  0  0  0
    7.5670  -15.6952   27.8100 O   0  0  0  0  0  0  0  0  0  0  0  0
  2  1  1  6
  3  4  1  0
  3  2  1  0
  5  4  1  0
  5  6  2  0
  7  2  1  0
  7  8  2  0
  9  5  1  0
 10  7  1  0
 11 10  1  0
 11 16  1  0
 11 12  1  1
 13 12  1  0
 14 13  1  0
 14 15  2  0
 16 17  2  0
 18 14  1  0
 19 16  1  0
 19 20  1  0
 20 23  1  0
 20 21  1  6
 22 21  1  0
 23 25  2  0
 23 24  1  0
M  END
$$$$
