EEC.pdb
     RDKit          3D

 25 24  0  0  1  0  0  0  0  0999 V2000
   10.9721  -16.8319   19.3711 N   0  0  0  0  0  0  0  0  0  0  0  0
   11.0467  -17.2850   20.7171 C   0  0  1  0  0  0  0  0  0  0  0  0
   12.4077  -17.3232   21.3153 C   0  0  0  0  0  0  0  0  0  0  0  0
   13.4730  -17.1203   20.3033 C   0  0  0  0  0  0  0  0  0  0  0  0
   14.8089  -17.1999   20.9064 C   0  0  0  0  0  0  0  0  0  0  0  0
   15.7073  -16.3562   20.7621 O   0  0  0  0  0  0  0  0  0  0  0  0
   10.1018  -16.4679   21.5529 C   0  0  0  0  0  0  0  0  0  0  0  0
    9.9917  -15.2352   21.3847 O   0  0  0  0  0  0  0  0  0  0  0  0
   15.1021  -18.3070   21.7069 O   0  0  0  0  0  0  0  0  0  0  0  0
    9.3254  -17.1062   22.5452 N   0  0  0  0  0  0  0  0  0  0  0  0
    8.2794  -16.4282   23.2891 C   0  0  1  0  0  0  0  0  0  0  0  0
    7.1318  -17.3577   23.6182 C   0  0  0  0  0  0  0  0  0  0  0  0
    6.4417  -17.8671   22.3889 C   0  0  0  0  0  0  0  0  0  0  0  0
    5.2903  -18.6974   22.7867 C   0  0  0  0  0  0  0  0  0  0  0  0
    5.0633  -18.9078   23.9923 O   0  0  0  0  0  0  0  0  0  0  0  0
    8.9160  -15.9145   24.5413 C   0  0  0  0  0  0  0  0  0  0  0  0
   10.0080  -16.4200   24.8815 O   0  0  0  0  0  0  0  0  0  0  0  0
    4.4656  -19.2407   21.8290 O   0  0  0  0  0  0  0  0  0  0  0  0
    8.3504  -14.9060   25.3377 N   0  0  0  0  0  0  0  0  0  0  0  0
    8.9385  -14.4397   26.5677 C   0  0  1  0  0  0  0  0  0  0  0  0
    8.1101  -13.3024   27.1271 C   0  0  0  0  0  0  0  0  0  0  0  0
    7.9071  -12.0647   25.7984 S   0  0  0  0  0  0  0  0  0  0  0  0
    8.9781  -15.5004   27.5947 C   0  0  0  0  0  0  0  0  0  0  0  0
    9.6246  -15.3209   28.7900 O   0  0  0  0  0  0  0  0  0  0  0  0
    8.4001  -16.5911   27.3538 O   0  0  0  0  0  0  0  0  0  0  0  0
  2  1  1  6
  3  4  1  0
  3  2  1  0
  5  4  1  0
  5  6  2  0
  7  2  1  0
  7  8  2  0
  9  5  1  0
 10  7  1  0
 11 10  1  0
 11 16  1  0
 11 12  1  1
 13 12  1  0
 14 13  1  0
 14 15  2  0
 16 17  2  0
 18 14  1  0
 19 16  1  0
 19 20  1  0
 20 23  1  0
 20 21  1  1
 22 21  1  0
 23 25  2  0
 23 24  1  0
M  END
$$$$
