EEC.pdb
     RDKit          3D

 25 24  0  0  1  0  0  0  0  0999 V2000
    9.4235  -12.7404   19.0214 N   0  0  0  0  0  0  0  0  0  0  0  0
    8.2045  -13.4672   19.1133 C   0  0  1  0  0  0  0  0  0  0  0  0
    7.7197  -14.0851   17.8505 C   0  0  0  0  0  0  0  0  0  0  0  0
    8.8337  -14.5200   16.9730 C   0  0  0  0  0  0  0  0  0  0  0  0
    8.3353  -15.1122   15.7258 C   0  0  0  0  0  0  0  0  0  0  0  0
    7.1916  -14.9566   15.2704 O   0  0  0  0  0  0  0  0  0  0  0  0
    8.3339  -14.4870   20.2098 C   0  0  0  0  0  0  0  0  0  0  0  0
    7.3414  -15.1251   20.6189 O   0  0  0  0  0  0  0  0  0  0  0  0
    9.2079  -15.9148   14.9863 O   0  0  0  0  0  0  0  0  0  0  0  0
    9.6007  -14.7271   20.7868 N   0  0  0  0  0  0  0  0  0  0  0  0
    9.8367  -15.7650   21.7736 C   0  0  1  0  0  0  0  0  0  0  0  0
   11.2624  -16.2695   21.7279 C   0  0  0  0  0  0  0  0  0  0  0  0
   11.5043  -17.1871   20.5675 C   0  0  0  0  0  0  0  0  0  0  0  0
   12.8951  -17.6738   20.6145 C   0  0  0  0  0  0  0  0  0  0  0  0
   13.6020  -17.6340   19.5909 O   0  0  0  0  0  0  0  0  0  0  0  0
    9.5363  -15.1572   23.1068 C   0  0  0  0  0  0  0  0  0  0  0  0
   10.1813  -14.1368   23.4332 O   0  0  0  0  0  0  0  0  0  0  0  0
   13.4141  -18.1725   21.7869 O   0  0  0  0  0  0  0  0  0  0  0  0
    8.5773  -15.6738   23.9927 N   0  0  0  0  0  0  0  0  0  0  0  0
    8.5081  -15.3169   25.3871 C   0  0  1  0  0  0  0  0  0  0  0  0
    7.1146  -14.8247   25.7164 C   0  0  0  0  0  0  0  0  0  0  0  0
    6.9413  -13.1495   25.0074 S   0  0  0  0  0  0  0  0  0  0  0  0
    8.7843  -16.4725   26.2645 C   0  0  0  0  0  0  0  0  0  0  0  0
    8.8140  -16.3488   27.6292 O   0  0  0  0  0  0  0  0  0  0  0  0
    8.9959  -17.5926   25.7331 O   0  0  0  0  0  0  0  0  0  0  0  0
  2  1  1  6
  3  4  1  0
  3  2  1  0
  5  4  1  0
  5  6  2  0
  7  2  1  0
  7  8  2  0
  9  5  1  0
 10  7  1  0
 11 10  1  0
 11 16  1  0
 11 12  1  1
 13 12  1  0
 14 13  1  0
 14 15  2  0
 16 17  2  0
 18 14  1  0
 19 16  1  0
 19 20  1  0
 20 23  1  0
 20 21  1  1
 22 21  1  0
 23 25  2  0
 23 24  1  0
M  END
$$$$
