EEC.pdb
     RDKit          3D

 25 24  0  0  1  0  0  0  0  0999 V2000
   11.7897  -17.2233   14.1095 N   0  0  0  0  0  0  0  0  0  0  0  0
   12.7157  -17.5458   15.1396 C   0  0  1  0  0  0  0  0  0  0  0  0
   13.9206  -16.6784   15.2250 C   0  0  0  0  0  0  0  0  0  0  0  0
   15.0400  -17.1869   14.3951 C   0  0  0  0  0  0  0  0  0  0  0  0
   16.2146  -16.3110   14.4827 C   0  0  0  0  0  0  0  0  0  0  0  0
   16.3481  -15.2356   13.8782 O   0  0  0  0  0  0  0  0  0  0  0  0
   11.9803  -17.5952   16.4495 C   0  0  0  0  0  0  0  0  0  0  0  0
   11.0605  -16.7898   16.7046 O   0  0  0  0  0  0  0  0  0  0  0  0
   17.2697  -16.7092   15.3078 O   0  0  0  0  0  0  0  0  0  0  0  0
   12.3363  -18.5700   17.4076 N   0  0  0  0  0  0  0  0  0  0  0  0
   11.6377  -18.7311   18.6698 C   0  0  1  0  0  0  0  0  0  0  0  0
   11.6196  -20.1750   19.1212 C   0  0  0  0  0  0  0  0  0  0  0  0
   10.8240  -20.3686   20.3768 C   0  0  0  0  0  0  0  0  0  0  0  0
   10.8502  -21.7936   20.7539 C   0  0  0  0  0  0  0  0  0  0  0  0
    9.7827  -22.4111   20.9230 O   0  0  0  0  0  0  0  0  0  0  0  0
   12.3591  -17.8780   19.6643 C   0  0  0  0  0  0  0  0  0  0  0  0
   13.5144  -17.5010   19.3693 O   0  0  0  0  0  0  0  0  0  0  0  0
   12.0514  -22.4432   20.9198 O   0  0  0  0  0  0  0  0  0  0  0  0
   11.8045  -17.4884   20.8939 N   0  0  0  0  0  0  0  0  0  0  0  0
   12.4589  -16.5930   21.8139 C   0  0  1  0  0  0  0  0  0  0  0  0
   11.5099  -15.4773   22.1979 C   0  0  0  0  0  0  0  0  0  0  0  0
   10.0228  -16.2475   22.9287 S   0  0  0  0  0  0  0  0  0  0  0  0
   12.8565  -17.2793   23.0598 C   0  0  0  0  0  0  0  0  0  0  0  0
   13.6975  -16.6911   23.9684 O   0  0  0  0  0  0  0  0  0  0  0  0
   12.4050  -18.4322   23.2804 O   0  0  0  0  0  0  0  0  0  0  0  0
  2  1  1  6
  3  4  1  0
  3  2  1  0
  5  4  1  0
  5  6  2  0
  7  2  1  0
  7  8  2  0
  9  5  1  0
 10  7  1  0
 11 10  1  0
 11 16  1  0
 11 12  1  1
 13 12  1  0
 14 13  1  0
 14 15  2  0
 16 17  2  0
 18 14  1  0
 19 16  1  0
 19 20  1  0
 20 23  1  0
 20 21  1  1
 22 21  1  0
 23 25  2  0
 23 24  1  0
M  END
$$$$
