EEC.pdb
     RDKit          3D

 25 24  0  0  1  0  0  0  0  0999 V2000
    9.0530  -12.5787   19.1640 N   0  0  0  0  0  0  0  0  0  0  0  0
    7.8431  -13.3233   19.0961 C   0  0  1  0  0  0  0  0  0  0  0  0
    7.5982  -14.0502   17.8221 C   0  0  0  0  0  0  0  0  0  0  0  0
    8.8401  -14.6355   17.2604 C   0  0  0  0  0  0  0  0  0  0  0  0
    8.5600  -15.4517   16.0730 C   0  0  0  0  0  0  0  0  0  0  0  0
    7.4364  -15.6231   15.5751 O   0  0  0  0  0  0  0  0  0  0  0  0
    7.7816  -14.2498   20.2780 C   0  0  0  0  0  0  0  0  0  0  0  0
    6.7975  -14.9962   20.4630 O   0  0  0  0  0  0  0  0  0  0  0  0
    9.6343  -16.0891   15.4469 O   0  0  0  0  0  0  0  0  0  0  0  0
    8.8559  -14.2761   21.1946 N   0  0  0  0  0  0  0  0  0  0  0  0
    8.8794  -15.1388   22.3616 C   0  0  1  0  0  0  0  0  0  0  0  0
   10.1732  -15.9173   22.4584 C   0  0  0  0  0  0  0  0  0  0  0  0
   10.1909  -16.8476   23.6337 C   0  0  0  0  0  0  0  0  0  0  0  0
   11.4770  -17.5676   23.6643 C   0  0  0  0  0  0  0  0  0  0  0  0
   11.6446  -18.5703   22.9462 O   0  0  0  0  0  0  0  0  0  0  0  0
    8.7120  -14.2468   23.5505 C   0  0  0  0  0  0  0  0  0  0  0  0
    8.8351  -13.0157   23.3687 O   0  0  0  0  0  0  0  0  0  0  0  0
   12.4927  -17.1346   24.4848 O   0  0  0  0  0  0  0  0  0  0  0  0
    8.4271  -14.7237   24.8399 N   0  0  0  0  0  0  0  0  0  0  0  0
    8.1620  -13.8642   25.9657 C   0  0  1  0  0  0  0  0  0  0  0  0
    6.9938  -12.9554   25.6462 C   0  0  0  0  0  0  0  0  0  0  0  0
    6.6560  -11.9504   27.1344 S   0  0  0  0  0  0  0  0  0  0  0  0
    7.8012  -14.6351   27.1727 C   0  0  0  0  0  0  0  0  0  0  0  0
    7.8282  -14.0709   28.4216 O   0  0  0  0  0  0  0  0  0  0  0  0
    7.4625  -15.8387   27.0372 O   0  0  0  0  0  0  0  0  0  0  0  0
  2  1  1  6
  3  4  1  0
  3  2  1  0
  5  4  1  0
  5  6  2  0
  7  2  1  0
  7  8  2  0
  9  5  1  0
 10  7  1  0
 11 10  1  0
 11 16  1  0
 11 12  1  1
 13 12  1  0
 14 13  1  0
 14 15  2  0
 16 17  2  0
 18 14  1  0
 19 16  1  0
 19 20  1  0
 20 23  1  0
 20 21  1  6
 22 21  1  0
 23 25  2  0
 23 24  1  0
M  END
$$$$
