EEC.pdb
     RDKit          3D

 25 24  0  0  1  0  0  0  0  0999 V2000
   16.8043  -18.1432   16.8929 N   0  0  0  0  0  0  0  0  0  0  0  0
   16.6718  -18.7853   18.1550 C   0  0  1  0  0  0  0  0  0  0  0  0
   17.7842  -18.5635   19.1167 C   0  0  0  0  0  0  0  0  0  0  0  0
   18.4714  -17.2681   18.8932 C   0  0  0  0  0  0  0  0  0  0  0  0
   19.5596  -17.0641   19.8570 C   0  0  0  0  0  0  0  0  0  0  0  0
   20.4241  -16.1775   19.7784 O   0  0  0  0  0  0  0  0  0  0  0  0
   15.3457  -18.4049   18.7514 C   0  0  0  0  0  0  0  0  0  0  0  0
   14.7221  -17.3995   18.3514 O   0  0  0  0  0  0  0  0  0  0  0  0
   19.6372  -17.9294   20.9514 O   0  0  0  0  0  0  0  0  0  0  0  0
   14.7961  -19.1992   19.7821 N   0  0  0  0  0  0  0  0  0  0  0  0
   13.4267  -19.0607   20.2429 C   0  0  1  0  0  0  0  0  0  0  0  0
   12.7594  -20.4053   20.4325 C   0  0  0  0  0  0  0  0  0  0  0  0
   11.3321  -20.2753   20.8716 C   0  0  0  0  0  0  0  0  0  0  0  0
   10.7483  -21.6196   21.0313 C   0  0  0  0  0  0  0  0  0  0  0  0
   10.7900  -22.1874   22.1381 O   0  0  0  0  0  0  0  0  0  0  0  0
   13.4898  -18.3174   21.5393 C   0  0  0  0  0  0  0  0  0  0  0  0
   14.5444  -18.4091   22.2051 O   0  0  0  0  0  0  0  0  0  0  0  0
   10.1575  -22.2488   19.9600 O   0  0  0  0  0  0  0  0  0  0  0  0
   12.4343  -17.5339   22.0325 N   0  0  0  0  0  0  0  0  0  0  0  0
   12.4864  -16.8279   23.2876 C   0  0  1  0  0  0  0  0  0  0  0  0
   11.4918  -15.6863   23.2693 C   0  0  0  0  0  0  0  0  0  0  0  0
    9.8385  -16.4023   22.9653 S   0  0  0  0  0  0  0  0  0  0  0  0
   12.1314  -17.7012   24.4246 C   0  0  0  0  0  0  0  0  0  0  0  0
   12.3845  -17.3337   25.7206 O   0  0  0  0  0  0  0  0  0  0  0  0
   11.5836  -18.8073   24.1837 O   0  0  0  0  0  0  0  0  0  0  0  0
  2  1  1  6
  3  4  1  0
  3  2  1  0
  5  4  1  0
  5  6  2  0
  7  2  1  0
  7  8  2  0
  9  5  1  0
 10  7  1  0
 11 10  1  0
 11 16  1  0
 11 12  1  1
 13 12  1  0
 14 13  1  0
 14 15  2  0
 16 17  2  0
 18 14  1  0
 19 16  1  0
 19 20  1  0
 20 23  1  0
 20 21  1  6
 22 21  1  0
 23 25  2  0
 23 24  1  0
M  END
$$$$
