EEC.pdb
     RDKit          3D

 25 24  0  0  1  0  0  0  0  0999 V2000
    8.1787  -13.2841   18.8760 N   0  0  0  0  0  0  0  0  0  0  0  0
    8.4338  -14.5910   19.3756 C   0  0  1  0  0  0  0  0  0  0  0  0
    9.8562  -15.0247   19.3643 C   0  0  0  0  0  0  0  0  0  0  0  0
   10.7515  -14.0343   20.0108 C   0  0  0  0  0  0  0  0  0  0  0  0
   12.1556  -14.4576   19.9470 C   0  0  0  0  0  0  0  0  0  0  0  0
   12.5420  -15.6333   19.8573 O   0  0  0  0  0  0  0  0  0  0  0  0
    7.8350  -14.7062   20.7494 C   0  0  0  0  0  0  0  0  0  0  0  0
    7.0222  -13.8579   21.1729 O   0  0  0  0  0  0  0  0  0  0  0  0
   13.1414  -13.4682   19.9895 O   0  0  0  0  0  0  0  0  0  0  0  0
    8.1985  -15.7932   21.5748 N   0  0  0  0  0  0  0  0  0  0  0  0
    7.5423  -16.0825   22.8368 C   0  0  1  0  0  0  0  0  0  0  0  0
    7.8390  -17.4871   23.3149 C   0  0  0  0  0  0  0  0  0  0  0  0
    7.3566  -17.7256   24.7139 C   0  0  0  0  0  0  0  0  0  0  0  0
    7.7373  -19.0866   25.1338 C   0  0  0  0  0  0  0  0  0  0  0  0
    8.3848  -19.8166   24.3612 O   0  0  0  0  0  0  0  0  0  0  0  0
    8.0500  -15.0745   23.8183 C   0  0  0  0  0  0  0  0  0  0  0  0
    9.2523  -14.7415   23.7322 O   0  0  0  0  0  0  0  0  0  0  0  0
    7.3786  -19.5524   26.3776 O   0  0  0  0  0  0  0  0  0  0  0  0
    7.2486  -14.4955   24.8151 N   0  0  0  0  0  0  0  0  0  0  0  0
    7.6984  -13.4361   25.6821 C   0  0  1  0  0  0  0  0  0  0  0  0
    6.5931  -12.4151   25.8514 C   0  0  0  0  0  0  0  0  0  0  0  0
    7.2211  -11.1033   26.9576 S   0  0  0  0  0  0  0  0  0  0  0  0
    8.0435  -13.9368   27.0281 C   0  0  0  0  0  0  0  0  0  0  0  0
    8.6847  -13.1472   27.9470 O   0  0  0  0  0  0  0  0  0  0  0  0
    7.7356  -15.1192   27.3259 O   0  0  0  0  0  0  0  0  0  0  0  0
  2  1  1  1
  3  4  1  0
  3  2  1  0
  5  4  1  0
  5  6  2  0
  7  2  1  0
  7  8  2  0
  9  5  1  0
 10  7  1  0
 11 10  1  0
 11 16  1  0
 11 12  1  1
 13 12  1  0
 14 13  1  0
 14 15  2  0
 16 17  2  0
 18 14  1  0
 19 16  1  0
 19 20  1  0
 20 23  1  0
 20 21  1  1
 22 21  1  0
 23 25  2  0
 23 24  1  0
M  END
$$$$
