EEC.pdb
     RDKit          3D

 25 24  0  0  1  0  0  0  0  0999 V2000
   10.6633  -18.2231   20.2178 N   0  0  0  0  0  0  0  0  0  0  0  0
    9.9267  -17.0080   20.2795 C   0  0  1  0  0  0  0  0  0  0  0  0
    9.1990  -16.6258   19.0403 C   0  0  0  0  0  0  0  0  0  0  0  0
    9.5694  -17.4785   17.8845 C   0  0  0  0  0  0  0  0  0  0  0  0
    8.9714  -16.9839   16.6386 C   0  0  0  0  0  0  0  0  0  0  0  0
    8.2367  -15.9881   16.5471 O   0  0  0  0  0  0  0  0  0  0  0  0
    9.0029  -17.0652   21.4638 C   0  0  0  0  0  0  0  0  0  0  0  0
    7.9269  -17.6972   21.4137 O   0  0  0  0  0  0  0  0  0  0  0  0
    9.2443  -17.6805   15.4584 O   0  0  0  0  0  0  0  0  0  0  0  0
    9.3590  -16.3921   22.6534 N   0  0  0  0  0  0  0  0  0  0  0  0
    8.5562  -16.4425   23.8617 C   0  0  1  0  0  0  0  0  0  0  0  0
    9.1547  -17.3715   24.8951 C   0  0  0  0  0  0  0  0  0  0  0  0
   10.5564  -16.9870   25.2619 C   0  0  0  0  0  0  0  0  0  0  0  0
   11.0408  -17.8784   26.3316 C   0  0  0  0  0  0  0  0  0  0  0  0
   11.9076  -17.4770   27.1295 O   0  0  0  0  0  0  0  0  0  0  0  0
    8.4928  -15.0432   24.3861 C   0  0  0  0  0  0  0  0  0  0  0  0
    9.5378  -14.3586   24.3286 O   0  0  0  0  0  0  0  0  0  0  0  0
   10.5375  -19.1532   26.4504 O   0  0  0  0  0  0  0  0  0  0  0  0
    7.3305  -14.4744   24.9307 N   0  0  0  0  0  0  0  0  0  0  0  0
    7.3208  -13.2373   25.6696 C   0  0  1  0  0  0  0  0  0  0  0  0
    5.9020  -12.9010   26.0778 C   0  0  0  0  0  0  0  0  0  0  0  0
    5.9543  -11.3246   27.0003 S   0  0  0  0  0  0  0  0  0  0  0  0
    8.1233  -13.3295   26.9061 C   0  0  0  0  0  0  0  0  0  0  0  0
    8.3419  -14.5279   27.5344 O   0  0  0  0  0  0  0  0  0  0  0  0
    8.6128  -12.2741   27.3841 O   0  0  0  0  0  0  0  0  0  0  0  0
  2  1  1  6
  3  4  1  0
  3  2  1  0
  5  4  1  0
  5  6  2  0
  7  2  1  0
  7  8  2  0
  9  5  1  0
 10  7  1  0
 11 10  1  0
 11 16  1  0
 11 12  1  1
 13 12  1  0
 14 13  1  0
 14 15  2  0
 16 17  2  0
 18 14  1  0
 19 16  1  0
 19 20  1  0
 20 23  1  0
 20 21  1  1
 22 21  1  0
 23 25  2  0
 23 24  1  0
M  END
$$$$
