EEC.pdb
     RDKit          3D

 25 24  0  0  1  0  0  0  0  0999 V2000
   10.0155  -15.9716   19.8077 N   0  0  0  0  0  0  0  0  0  0  0  0
    8.6364  -15.9026   20.1481 C   0  0  1  0  0  0  0  0  0  0  0  0
    7.7173  -16.7099   19.3024 C   0  0  0  0  0  0  0  0  0  0  0  0
    8.4275  -17.3946   18.1947 C   0  0  0  0  0  0  0  0  0  0  0  0
    7.5117  -18.2208   17.3990 C   0  0  0  0  0  0  0  0  0  0  0  0
    6.3162  -18.4186   17.6660 O   0  0  0  0  0  0  0  0  0  0  0  0
    8.4827  -16.2409   21.6045 C   0  0  0  0  0  0  0  0  0  0  0  0
    7.3544  -16.3172   22.1343 O   0  0  0  0  0  0  0  0  0  0  0  0
    8.0145  -18.8367   16.2499 O   0  0  0  0  0  0  0  0  0  0  0  0
    9.6352  -16.4766   22.3864 N   0  0  0  0  0  0  0  0  0  0  0  0
    9.5775  -16.8608   23.7849 C   0  0  1  0  0  0  0  0  0  0  0  0
   10.7298  -17.7639   24.1671 C   0  0  0  0  0  0  0  0  0  0  0  0
   10.5355  -19.1695   23.6839 C   0  0  0  0  0  0  0  0  0  0  0  0
   11.7181  -19.9740   24.0411 C   0  0  0  0  0  0  0  0  0  0  0  0
   12.5585  -20.2637   23.1698 O   0  0  0  0  0  0  0  0  0  0  0  0
    9.6200  -15.5912   24.5744 C   0  0  0  0  0  0  0  0  0  0  0  0
   10.6149  -14.8496   24.4196 O   0  0  0  0  0  0  0  0  0  0  0  0
   11.8956  -20.4061   25.3350 O   0  0  0  0  0  0  0  0  0  0  0  0
    8.6080  -15.2023   25.4665 N   0  0  0  0  0  0  0  0  0  0  0  0
    8.6328  -13.9673   26.2087 C   0  0  1  0  0  0  0  0  0  0  0  0
    7.2508  -13.3485   26.2104 C   0  0  0  0  0  0  0  0  0  0  0  0
    7.3294  -11.8305   27.2245 S   0  0  0  0  0  0  0  0  0  0  0  0
    9.0200  -14.1807   27.6179 C   0  0  0  0  0  0  0  0  0  0  0  0
    9.3976  -13.1398   28.4259 O   0  0  0  0  0  0  0  0  0  0  0  0
    8.9984  -15.3519   28.0756 O   0  0  0  0  0  0  0  0  0  0  0  0
  2  1  1  6
  3  4  1  0
  3  2  1  0
  5  4  1  0
  5  6  2  0
  7  2  1  0
  7  8  2  0
  9  5  1  0
 10  7  1  0
 11 10  1  0
 11 16  1  0
 11 12  1  1
 13 12  1  0
 14 13  1  0
 14 15  2  0
 16 17  2  0
 18 14  1  0
 19 16  1  0
 19 20  1  0
 20 23  1  0
 20 21  1  1
 22 21  1  0
 23 25  2  0
 23 24  1  0
M  END
$$$$
