EEC.pdb
     RDKit          3D

 25 24  0  0  1  0  0  0  0  0999 V2000
   11.1824  -18.0732   20.4579 N   0  0  0  0  0  0  0  0  0  0  0  0
   12.0395  -17.9537   21.5866 C   0  0  1  0  0  0  0  0  0  0  0  0
   13.1323  -16.9519   21.4694 C   0  0  0  0  0  0  0  0  0  0  0  0
   13.9633  -16.8796   22.6959 C   0  0  0  0  0  0  0  0  0  0  0  0
   14.9966  -15.8431   22.5842 C   0  0  0  0  0  0  0  0  0  0  0  0
   14.8885  -14.6809   23.0053 O   0  0  0  0  0  0  0  0  0  0  0  0
   11.1968  -17.7075   22.8066 C   0  0  0  0  0  0  0  0  0  0  0  0
   10.2616  -16.8800   22.7894 O   0  0  0  0  0  0  0  0  0  0  0  0
   16.1990  -16.1806   21.9573 O   0  0  0  0  0  0  0  0  0  0  0  0
   11.4682  -18.4253   23.9925 N   0  0  0  0  0  0  0  0  0  0  0  0
   10.6534  -18.3141   25.1886 C   0  0  1  0  0  0  0  0  0  0  0  0
   10.9558  -19.4177   26.1785 C   0  0  0  0  0  0  0  0  0  0  0  0
   10.1899  -19.2603   27.4574 C   0  0  0  0  0  0  0  0  0  0  0  0
   10.5986  -20.3162   28.4017 C   0  0  0  0  0  0  0  0  0  0  0  0
    9.7458  -21.0876   28.8779 O   0  0  0  0  0  0  0  0  0  0  0  0
   10.9564  -16.9758   25.7839 C   0  0  0  0  0  0  0  0  0  0  0  0
   12.1315  -16.5577   25.6931 O   0  0  0  0  0  0  0  0  0  0  0  0
   11.9203  -20.4514   28.7584 O   0  0  0  0  0  0  0  0  0  0  0  0
    9.9949  -16.1820   26.4291 N   0  0  0  0  0  0  0  0  0  0  0  0
   10.2975  -14.9244   27.0643 C   0  0  1  0  0  0  0  0  0  0  0  0
    9.0909  -14.0130   26.9859 C   0  0  0  0  0  0  0  0  0  0  0  0
    9.5237  -12.4536   27.8343 S   0  0  0  0  0  0  0  0  0  0  0  0
   10.6260  -15.0960   28.4940 C   0  0  0  0  0  0  0  0  0  0  0  0
   11.2206  -14.0973   29.2205 O   0  0  0  0  0  0  0  0  0  0  0  0
   10.3477  -16.1909   29.0467 O   0  0  0  0  0  0  0  0  0  0  0  0
  2  1  1  6
  3  4  1  0
  3  2  1  0
  5  4  1  0
  5  6  2  0
  7  2  1  0
  7  8  2  0
  9  5  1  0
 10  7  1  0
 11 10  1  0
 11 16  1  0
 11 12  1  1
 13 12  1  0
 14 13  1  0
 14 15  2  0
 16 17  2  0
 18 14  1  0
 19 16  1  0
 19 20  1  0
 20 23  1  0
 20 21  1  1
 22 21  1  0
 23 25  2  0
 23 24  1  0
M  END
$$$$
