MGQ.pdb
     RDKit          3D

 22 21  0  0  1  0  0  0  0  0999 V2000
    8.0208  -11.8197   26.5281 C   0  0  0  0  0  0  0  0  0  0  0  0
    6.6178  -12.9496   26.6004 S   0  0  0  0  0  0  0  0  0  0  0  0
    6.9582  -14.4852   25.7134 C   0  0  0  0  0  0  0  0  0  0  0  0
    7.9209  -14.2471   24.5532 C   0  0  0  0  0  0  0  0  0  0  0  0
    7.6907  -15.3123   23.5219 C   0  0  2  0  0  0  0  0  0  0  0  0
    6.4403  -15.9926   23.8192 N   0  0  0  0  0  0  0  0  0  0  0  0
    8.7954  -16.2851   23.5274 C   0  0  0  0  0  0  0  0  0  0  0  0
    9.9548  -15.9248   23.1693 O   0  0  0  0  0  0  0  0  0  0  0  0
    8.6245  -17.6419   23.9238 N   0  0  0  0  0  0  0  0  0  0  0  0
    9.7119  -18.5756   23.7435 C   0  0  0  0  0  0  0  0  0  0  0  0
   10.6842  -18.4694   24.8537 C   0  0  0  0  0  0  0  0  0  0  0  0
   11.8408  -18.9489   24.6732 O   0  0  0  0  0  0  0  0  0  0  0  0
   10.7275  -13.5824   27.5538 N   0  0  0  0  0  0  0  0  0  0  0  0
   10.1235  -14.4639   28.4903 C   0  0  0  0  0  0  0  0  0  0  0  0
    9.2902  -13.9815   29.2889 O   0  0  0  0  0  0  0  0  0  0  0  0
   10.4471  -15.8929   28.5421 C   0  0  0  0  0  0  0  0  0  0  0  0
   11.4978  -16.3583   27.6016 C   0  0  0  0  0  0  0  0  0  0  0  0
   11.3771  -17.7709   27.1250 C   0  0  2  0  0  0  0  0  0  0  0  0
   10.3583  -17.8558   26.0902 N   0  0  0  0  0  0  0  0  0  0  0  0
   11.0882  -18.7427   28.2195 C   0  0  0  0  0  0  0  0  0  0  0  0
   10.0061  -19.3751   28.2464 O   0  0  0  0  0  0  0  0  0  0  0  0
   11.9969  -18.9882   29.2486 O   0  0  0  0  0  0  0  0  0  0  0  0
  2  1  1  0
  3  2  1  0
  3  4  1  0
  4  5  1  0
  5  7  1  0
  5  6  1  1
  7  8  2  0
  9 10  1  0
  9  7  1  0
 10 11  1  0
 11 12  2  0
 11 19  1  0
 14 13  1  0
 14 15  2  0
 16 17  1  0
 16 14  1  0
 18 20  1  0
 18 17  1  1
 19 18  1  0
 20 22  1  0
 21 20  2  0
M  END
$$$$
