MGQ.pdb
     RDKit          3D

 22 21  0  0  1  0  0  0  0  0999 V2000
    5.7978  -16.8814   20.4184 C   0  0  0  0  0  0  0  0  0  0  0  0
    4.9038  -17.5309   21.8428 S   0  0  0  0  0  0  0  0  0  0  0  0
    3.6681  -18.7512   21.3486 C   0  0  0  0  0  0  0  0  0  0  0  0
    2.8570  -19.2287   22.5502 C   0  0  0  0  0  0  0  0  0  0  0  0
    1.8856  -20.2713   22.0803 C   0  0  2  0  0  0  0  0  0  0  0  0
    1.1424  -19.7451   20.9466 N   0  0  0  0  0  0  0  0  0  0  0  0
    0.9510  -20.6311   23.1592 C   0  0  0  0  0  0  0  0  0  0  0  0
    1.3958  -21.0879   24.2526 O   0  0  0  0  0  0  0  0  0  0  0  0
   -0.4603  -20.4889   23.0345 N   0  0  0  0  0  0  0  0  0  0  0  0
   -1.3094  -20.8394   24.1493 C   0  0  0  0  0  0  0  0  0  0  0  0
   -2.0586  -22.0837   23.8674 C   0  0  0  0  0  0  0  0  0  0  0  0
   -2.2398  -22.4022   22.6566 O   0  0  0  0  0  0  0  0  0  0  0  0
   -2.2950  -27.1162   27.7035 N   0  0  0  0  0  0  0  0  0  0  0  0
   -1.2398  -26.5643   26.9284 C   0  0  0  0  0  0  0  0  0  0  0  0
   -0.0783  -26.9693   27.1556 O   0  0  0  0  0  0  0  0  0  0  0  0
   -1.4748  -25.5536   25.8926 C   0  0  0  0  0  0  0  0  0  0  0  0
   -2.8924  -25.1814   25.6541 C   0  0  0  0  0  0  0  0  0  0  0  0
   -3.1403  -24.2027   24.5506 C   0  0  2  0  0  0  0  0  0  0  0  0
   -2.5683  -22.9117   24.9000 N   0  0  0  0  0  0  0  0  0  0  0  0
   -4.5837  -24.0544   24.2034 C   0  0  0  0  0  0  0  0  0  0  0  0
   -5.2552  -23.0943   24.6494 O   0  0  0  0  0  0  0  0  0  0  0  0
   -5.2425  -24.9654   23.3779 O   0  0  0  0  0  0  0  0  0  0  0  0
  2  1  1  0
  3  2  1  0
  3  4  1  0
  4  5  1  0
  5  7  1  0
  5  6  1  6
  7  8  2  0
  9 10  1  0
  9  7  1  0
 10 11  1  0
 11 12  2  0
 11 19  1  0
 14 13  1  0
 14 15  2  0
 16 17  1  0
 16 14  1  0
 18 20  1  0
 18 17  1  1
 19 18  1  0
 20 22  1  0
 21 20  2  0
M  END
$$$$
