MGQ.pdb
     RDKit          3D

 22 21  0  0  1  0  0  0  0  0999 V2000
    5.4283  -12.6121   26.6287 C   0  0  0  0  0  0  0  0  0  0  0  0
    6.8080  -12.1070   25.5839 S   0  0  0  0  0  0  0  0  0  0  0  0
    6.7888  -12.9713   23.9986 C   0  0  0  0  0  0  0  0  0  0  0  0
    8.1990  -13.3741   23.5759 C   0  0  0  0  0  0  0  0  0  0  0  0
    8.1581  -14.7908   23.0834 C   0  0  2  0  0  0  0  0  0  0  0  0
    7.0768  -14.9232   22.1203 N   0  0  0  0  0  0  0  0  0  0  0  0
    7.9390  -15.7214   24.2027 C   0  0  0  0  0  0  0  0  0  0  0  0
    8.0462  -15.3101   25.3950 O   0  0  0  0  0  0  0  0  0  0  0  0
    7.6050  -17.0921   24.0103 N   0  0  0  0  0  0  0  0  0  0  0  0
    8.5885  -17.9896   23.4502 C   0  0  0  0  0  0  0  0  0  0  0  0
    9.5895  -18.3735   24.4699 C   0  0  0  0  0  0  0  0  0  0  0  0
   10.4219  -19.2772   24.1689 O   0  0  0  0  0  0  0  0  0  0  0  0
   10.3449  -13.8714   27.1785 N   0  0  0  0  0  0  0  0  0  0  0  0
   10.3561  -14.6900   28.3399 C   0  0  0  0  0  0  0  0  0  0  0  0
    9.9837  -14.1752   29.4175 O   0  0  0  0  0  0  0  0  0  0  0  0
   10.7848  -16.0916   28.3060 C   0  0  0  0  0  0  0  0  0  0  0  0
   11.3206  -16.5787   27.0096 C   0  0  0  0  0  0  0  0  0  0  0  0
   10.8373  -17.9206   26.5590 C   0  0  2  0  0  0  0  0  0  0  0  0
    9.6381  -17.7657   25.7505 N   0  0  0  0  0  0  0  0  0  0  0  0
   10.5868  -18.8683   27.6837 C   0  0  0  0  0  0  0  0  0  0  0  0
    9.4298  -19.2871   27.9236 O   0  0  0  0  0  0  0  0  0  0  0  0
   11.6148  -19.3249   28.5081 O   0  0  0  0  0  0  0  0  0  0  0  0
  2  1  1  0
  3  2  1  0
  3  4  1  0
  4  5  1  0
  5  7  1  0
  5  6  1  6
  7  8  2  0
  9 10  1  0
  9  7  1  0
 10 11  1  0
 11 12  2  0
 11 19  1  0
 14 13  1  0
 14 15  2  0
 16 17  1  0
 16 14  1  0
 18 20  1  0
 18 17  1  1
 19 18  1  0
 20 22  1  0
 21 20  2  0
M  END
$$$$
