MGQ.pdb
     RDKit          3D

 22 21  0  0  1  0  0  0  0  0999 V2000
    7.6021  -11.8274   20.4642 C   0  0  0  0  0  0  0  0  0  0  0  0
    7.3948  -12.7192   18.9111 S   0  0  0  0  0  0  0  0  0  0  0  0
    7.6194  -14.4971   19.1337 C   0  0  0  0  0  0  0  0  0  0  0  0
    8.8439  -14.7919   19.9959 C   0  0  0  0  0  0  0  0  0  0  0  0
    8.9310  -16.2757   20.2011 C   0  0  2  0  0  0  0  0  0  0  0  0
    7.5854  -16.8145   20.3171 N   0  0  0  0  0  0  0  0  0  0  0  0
    9.6936  -16.5851   21.4216 C   0  0  0  0  0  0  0  0  0  0  0  0
   10.9590  -16.5816   21.3925 O   0  0  0  0  0  0  0  0  0  0  0  0
    9.0679  -16.8956   22.6624 N   0  0  0  0  0  0  0  0  0  0  0  0
    9.7798  -16.6533   23.8957 C   0  0  0  0  0  0  0  0  0  0  0  0
    8.9757  -15.8118   24.8091 C   0  0  0  0  0  0  0  0  0  0  0  0
    7.7977  -15.5159   24.4556 O   0  0  0  0  0  0  0  0  0  0  0  0
   11.8683  -14.5966   29.4742 N   0  0  0  0  0  0  0  0  0  0  0  0
   11.0253  -15.7388   29.5330 C   0  0  0  0  0  0  0  0  0  0  0  0
   11.4752  -16.7655   30.0883 O   0  0  0  0  0  0  0  0  0  0  0  0
    9.6715  -15.7427   28.9702 C   0  0  0  0  0  0  0  0  0  0  0  0
    9.2426  -14.4922   28.2939 C   0  0  0  0  0  0  0  0  0  0  0  0
    8.5815  -14.6563   26.9623 C   0  0  2  0  0  0  0  0  0  0  0  0
    9.4825  -15.3383   26.0463 N   0  0  0  0  0  0  0  0  0  0  0  0
    8.1151  -13.3688   26.3699 C   0  0  0  0  0  0  0  0  0  0  0  0
    7.2323  -12.6840   26.9384 O   0  0  0  0  0  0  0  0  0  0  0  0
    8.6335  -12.8757   25.1727 O   0  0  0  0  0  0  0  0  0  0  0  0
  2  1  1  0
  3  2  1  0
  3  4  1  0
  4  5  1  0
  5  7  1  0
  5  6  1  1
  7  8  2  0
  9 10  1  0
  9  7  1  0
 10 11  1  0
 11 12  2  0
 11 19  1  0
 14 13  1  0
 14 15  2  0
 16 17  1  0
 16 14  1  0
 18 20  1  0
 18 17  1  1
 19 18  1  0
 20 22  1  0
 21 20  2  0
M  END
$$$$
