MGQ.pdb
     RDKit          3D

 22 21  0  0  1  0  0  0  0  0999 V2000
    7.2084  -11.8917   20.1776 C   0  0  0  0  0  0  0  0  0  0  0  0
    7.8493  -13.0492   18.9529 S   0  0  0  0  0  0  0  0  0  0  0  0
    8.4138  -14.5820   19.7227 C   0  0  0  0  0  0  0  0  0  0  0  0
    8.1461  -14.5726   21.2253 C   0  0  0  0  0  0  0  0  0  0  0  0
    8.6168  -15.8775   21.7973 C   0  0  2  0  0  0  0  0  0  0  0  0
    8.0475  -16.9654   21.0183 N   0  0  0  0  0  0  0  0  0  0  0  0
    8.2002  -16.0063   23.2032 C   0  0  0  0  0  0  0  0  0  0  0  0
    8.5781  -15.1487   24.0541 O   0  0  0  0  0  0  0  0  0  0  0  0
    7.3751  -17.0698   23.6674 N   0  0  0  0  0  0  0  0  0  0  0  0
    7.0974  -17.1871   25.0800 C   0  0  0  0  0  0  0  0  0  0  0  0
    8.3512  -17.3411   25.8503 C   0  0  0  0  0  0  0  0  0  0  0  0
    8.7586  -18.5152   26.0863 O   0  0  0  0  0  0  0  0  0  0  0  0
   10.6394  -13.2126   27.3665 N   0  0  0  0  0  0  0  0  0  0  0  0
    9.3663  -13.4143   27.9643 C   0  0  0  0  0  0  0  0  0  0  0  0
    8.5826  -12.4402   28.0056 O   0  0  0  0  0  0  0  0  0  0  0  0
    8.9590  -14.7076   28.5220 C   0  0  0  0  0  0  0  0  0  0  0  0
    9.9913  -15.7751   28.5151 C   0  0  0  0  0  0  0  0  0  0  0  0
   10.2251  -16.4576   27.2048 C   0  0  2  0  0  0  0  0  0  0  0  0
    9.0927  -16.2275   26.3212 N   0  0  0  0  0  0  0  0  0  0  0  0
   10.4916  -17.9195   27.3377 C   0  0  0  0  0  0  0  0  0  0  0  0
   11.2174  -18.5169   26.5083 O   0  0  0  0  0  0  0  0  0  0  0  0
    9.9526  -18.6773   28.3770 O   0  0  0  0  0  0  0  0  0  0  0  0
  2  1  1  0
  3  2  1  0
  3  4  1  0
  4  5  1  0
  5  7  1  0
  5  6  1  6
  7  8  2  0
  9 10  1  0
  9  7  1  0
 10 11  1  0
 11 12  2  0
 11 19  1  0
 14 13  1  0
 14 15  2  0
 16 17  1  0
 16 14  1  0
 18 20  1  0
 18 17  1  1
 19 18  1  0
 20 22  1  0
 21 20  2  0
M  END
$$$$
