MGQ.pdb
     RDKit          3D

 22 21  0  0  1  0  0  0  0  0999 V2000
    7.4519  -11.5896   20.7055 C   0  0  0  0  0  0  0  0  0  0  0  0
    8.4102  -12.7140   19.6722 S   0  0  0  0  0  0  0  0  0  0  0  0
    7.8583  -14.4225   19.8647 C   0  0  0  0  0  0  0  0  0  0  0  0
    8.7676  -15.3822   19.1019 C   0  0  0  0  0  0  0  0  0  0  0  0
    8.3362  -16.7862   19.4086 C   0  0  2  0  0  0  0  0  0  0  0  0
    6.9268  -16.9278   19.0801 N   0  0  0  0  0  0  0  0  0  0  0  0
    8.5441  -17.0916   20.8336 C   0  0  0  0  0  0  0  0  0  0  0  0
    9.7185  -17.1433   21.3027 O   0  0  0  0  0  0  0  0  0  0  0  0
    7.4681  -17.3376   21.7331 N   0  0  0  0  0  0  0  0  0  0  0  0
    7.7559  -17.6609   23.1112 C   0  0  0  0  0  0  0  0  0  0  0  0
    8.3944  -16.5156   23.7966 C   0  0  0  0  0  0  0  0  0  0  0  0
    8.3610  -15.3898   23.2207 O   0  0  0  0  0  0  0  0  0  0  0  0
    5.6602  -12.9525   25.9704 N   0  0  0  0  0  0  0  0  0  0  0  0
    6.8254  -12.6399   26.7212 C   0  0  0  0  0  0  0  0  0  0  0  0
    6.9570  -11.4642   27.1275 O   0  0  0  0  0  0  0  0  0  0  0  0
    7.8540  -13.6400   27.0232 C   0  0  0  0  0  0  0  0  0  0  0  0
    7.8546  -14.8540   26.1681 C   0  0  0  0  0  0  0  0  0  0  0  0
    9.1916  -15.4645   25.8910 C   0  0  2  0  0  0  0  0  0  0  0  0
    9.0300  -16.6460   25.0579 N   0  0  0  0  0  0  0  0  0  0  0  0
    9.9567  -15.8011   27.1268 C   0  0  0  0  0  0  0  0  0  0  0  0
   10.4226  -14.8963   27.8588 O   0  0  0  0  0  0  0  0  0  0  0  0
   10.1849  -17.1200   27.5183 O   0  0  0  0  0  0  0  0  0  0  0  0
  2  1  1  0
  3  2  1  0
  3  4  1  0
  4  5  1  0
  5  7  1  0
  5  6  1  1
  7  8  2  0
  9 10  1  0
  9  7  1  0
 10 11  1  0
 11 12  2  0
 11 19  1  0
 14 13  1  0
 14 15  2  0
 16 17  1  0
 16 14  1  0
 18 20  1  0
 18 17  1  1
 19 18  1  0
 20 22  1  0
 21 20  2  0
M  END
$$$$
