IRK.pdb
     RDKit          3D

 29 28  0  0  1  0  0  0  0  0999 V2000
   24.1788  -16.6366  -17.8265 C   0  0  0  0  0  0  0  0  0  0  0  0
   22.9096  -16.7668  -17.0144 C   0  0  0  0  0  0  0  0  0  0  0  0
   22.3715  -18.1760  -17.1371 C   0  0  2  0  0  0  0  0  0  0  0  0
   21.3780  -18.2080  -18.2511 C   0  0  0  0  0  0  0  0  0  0  0  0
   21.8898  -18.7461  -15.8415 C   0  0  2  0  0  0  0  0  0  0  0  0
   22.9898  -18.6982  -14.8983 N   0  0  0  0  0  0  0  0  0  0  0  0
   21.2912  -20.0883  -15.9393 C   0  0  0  0  0  0  0  0  0  0  0  0
   20.3454  -20.3022  -16.7377 O   0  0  0  0  0  0  0  0  0  0  0  0
   25.5977  -21.0433  -13.9541 N   0  0  0  0  0  0  0  0  0  0  0  0
   25.8256  -21.9213  -12.8465 C   0  0  0  0  0  0  0  0  0  0  0  0
   26.6685  -21.6227  -11.9244 N   0  0  0  0  0  0  0  0  0  0  0  0
   25.1184  -23.1438  -12.7502 N   0  0  0  0  0  0  0  0  0  0  0  0
   24.2199  -23.5084  -13.8124 C   0  0  0  0  0  0  0  0  0  0  0  0
   22.7701  -23.1305  -13.4508 C   0  0  0  0  0  0  0  0  0  0  0  0
   21.9426  -23.5082  -14.6228 C   0  0  0  0  0  0  0  0  0  0  0  0
   21.0141  -22.4854  -15.1690 C   0  0  2  0  0  0  0  0  0  0  0  0
   21.7357  -21.1879  -15.1583 N   0  0  0  0  0  0  0  0  0  0  0  0
   19.7446  -22.2947  -14.4575 C   0  0  0  0  0  0  0  0  0  0  0  0
   19.5643  -21.1863  -13.8554 O   0  0  0  0  0  0  0  0  0  0  0  0
   26.9582  -22.2927  -11.1782 N   0  0  0  0  0  0  0  0  0  0  0  0
   18.6904  -23.2061  -14.3680 C   0  0  1  0  0  0  0  0  0  0  0  0
   17.2607  -22.7243  -14.2851 C   0  0  0  0  0  0  0  0  0  0  0  0
   16.9296  -22.2544  -15.6486 C   0  0  0  0  0  0  0  0  0  0  0  0
   15.6507  -21.7437  -16.0722 C   0  0  0  0  0  0  0  0  0  0  0  0
   15.0784  -20.4666  -15.6218 C   0  0  0  0  0  0  0  0  0  0  0  0
   13.6831  -20.3450  -16.3283 N   0  0  0  0  0  0  0  0  0  0  0  0
   13.0511  -19.2046  -15.7349 C   0  0  0  0  0  0  0  0  0  0  0  0
   16.5340  -23.8768  -13.7557 O   0  0  0  0  0  0  0  0  0  0  0  0
   15.4364  -23.7816  -13.1974 O   0  0  0  0  0  0  0  0  0  0  0  0
  2  1  1  0
  2  3  1  0
  3  4  1  6
  5  6  1  1
  5  3  1  0
  7  5  1  0
  8  7  2  0
 10 12  1  0
 10  9  1  0
 11 10  2  0
 13 14  1  0
 13 12  1  0
 16 15  1  1
 15 14  1  0
 16 17  1  0
 17  7  1  0
 18 19  2  0
 18 16  1  0
 20 18  1  0
 21 20  1  0
 22 23  1  0
 21 22  1  1
 23 24  1  0
 24 25  1  0
 25 26  1  0
 27 29  1  0
 27 21  1  0
 28 27  2  0
M  END
$$$$
