IRK.pdb
     RDKit          3D

 29 28  0  0  1  0  0  0  0  0999 V2000
   24.8962  -16.3519  -18.2337 C   0  0  0  0  0  0  0  0  0  0  0  0
   26.2131  -17.0651  -18.0228 C   0  0  0  0  0  0  0  0  0  0  0  0
   26.0821  -18.0428  -16.8751 C   0  0  2  0  0  0  0  0  0  0  0  0
   25.5675  -17.3066  -15.6825 C   0  0  0  0  0  0  0  0  0  0  0  0
   27.3164  -18.8521  -16.6364 C   0  0  2  0  0  0  0  0  0  0  0  0
   27.6469  -19.5342  -17.8722 N   0  0  0  0  0  0  0  0  0  0  0  0
   27.2419  -19.7725  -15.4889 C   0  0  0  0  0  0  0  0  0  0  0  0
   26.4571  -20.7530  -15.5146 O   0  0  0  0  0  0  0  0  0  0  0  0
   32.3300  -21.6051   -9.7683 N   0  0  0  0  0  0  0  0  0  0  0  0
   32.6223  -22.3810  -10.9355 C   0  0  0  0  0  0  0  0  0  0  0  0
   33.1736  -23.5375  -10.8437 N   0  0  0  0  0  0  0  0  0  0  0  0
   32.3047  -21.8801  -12.2209 N   0  0  0  0  0  0  0  0  0  0  0  0
   31.6538  -20.6016  -12.3234 C   0  0  0  0  0  0  0  0  0  0  0  0
   30.4684  -20.6733  -13.3058 C   0  0  0  0  0  0  0  0  0  0  0  0
   29.2426  -20.5396  -12.4809 C   0  0  0  0  0  0  0  0  0  0  0  0
   27.9338  -20.5606  -13.1831 C   0  0  2  0  0  0  0  0  0  0  0  0
   28.0306  -19.6096  -14.3192 N   0  0  0  0  0  0  0  0  0  0  0  0
   26.7519  -20.1931  -12.3942 C   0  0  0  0  0  0  0  0  0  0  0  0
   26.4309  -18.9608  -12.3482 O   0  0  0  0  0  0  0  0  0  0  0  0
   33.4254  -24.1165  -11.6749 N   0  0  0  0  0  0  0  0  0  0  0  0
   25.9214  -21.0580  -11.6787 C   0  0  2  0  0  0  0  0  0  0  0  0
   24.7316  -20.5264  -10.9139 C   0  0  0  0  0  0  0  0  0  0  0  0
   23.5553  -20.8523  -11.7503 C   0  0  0  0  0  0  0  0  0  0  0  0
   22.1815  -20.5903  -11.4040 C   0  0  0  0  0  0  0  0  0  0  0  0
   21.0312  -20.9588  -12.2423 C   0  0  0  0  0  0  0  0  0  0  0  0
   19.7574  -20.4737  -11.4659 N   0  0  0  0  0  0  0  0  0  0  0  0
   18.6453  -20.8199  -12.2998 C   0  0  0  0  0  0  0  0  0  0  0  0
   24.8458  -21.1635   -9.6034 O   0  0  0  0  0  0  0  0  0  0  0  0
   25.5981  -22.1179   -9.3825 O   0  0  0  0  0  0  0  0  0  0  0  0
  2  1  1  0
  2  3  1  0
  3  4  1  1
  5  6  1  6
  5  3  1  0
  7  5  1  0
  8  7  2  0
 10 12  1  0
 10  9  1  0
 11 10  2  0
 13 14  1  0
 13 12  1  0
 16 15  1  1
 15 14  1  0
 16 17  1  0
 17  7  1  0
 18 19  2  0
 18 16  1  0
 20 18  1  0
 21 20  1  0
 22 23  1  0
 21 22  1  6
 23 24  1  0
 24 25  1  0
 25 26  1  0
 27 29  1  0
 27 21  1  0
 28 27  2  0
M  END
$$$$
