IRK.pdb
     RDKit          3D

 29 28  0  0  1  0  0  0  0  0999 V2000
   15.3791  -13.3754  -13.3542 C   0  0  0  0  0  0  0  0  0  0  0  0
   14.8433  -12.5766  -12.1870 C   0  0  0  0  0  0  0  0  0  0  0  0
   15.4481  -11.1894  -12.2018 C   0  0  2  0  0  0  0  0  0  0  0  0
   16.9309  -11.3206  -12.3157 C   0  0  0  0  0  0  0  0  0  0  0  0
   14.9729  -10.3189  -11.0830 C   0  0  2  0  0  0  0  0  0  0  0  0
   13.5310  -10.2085  -11.1871 N   0  0  0  0  0  0  0  0  0  0  0  0
   15.6325   -9.0048  -10.9968 C   0  0  0  0  0  0  0  0  0  0  0  0
   16.7087   -8.8779  -10.3617 O   0  0  0  0  0  0  0  0  0  0  0  0
   18.0815   -4.3379  -17.3016 N   0  0  0  0  0  0  0  0  0  0  0  0
   18.0759   -3.2627  -16.3562 C   0  0  0  0  0  0  0  0  0  0  0  0
   18.4955   -2.0923  -16.6787 N   0  0  0  0  0  0  0  0  0  0  0  0
   17.6030   -3.4756  -15.0390 N   0  0  0  0  0  0  0  0  0  0  0  0
   17.1058   -4.7779  -14.6849 C   0  0  0  0  0  0  0  0  0  0  0  0
   16.6895   -4.8150  -13.2014 C   0  0  0  0  0  0  0  0  0  0  0  0
   16.2354   -6.2023  -12.9368 C   0  0  0  0  0  0  0  0  0  0  0  0
   15.8252   -6.5403  -11.5497 C   0  0  2  0  0  0  0  0  0  0  0  0
   15.1049   -7.8372  -11.6093 N   0  0  0  0  0  0  0  0  0  0  0  0
   14.9549   -5.5788  -10.8625 C   0  0  0  0  0  0  0  0  0  0  0  0
   13.7513   -5.4751  -11.2678 O   0  0  0  0  0  0  0  0  0  0  0  0
   18.4871   -1.2823  -16.0203 N   0  0  0  0  0  0  0  0  0  0  0  0
   15.3022   -4.7525   -9.7917 C   0  0  2  0  0  0  0  0  0  0  0  0
   14.3171   -3.7456   -9.2448 C   0  0  0  0  0  0  0  0  0  0  0  0
   13.9799   -4.2298   -7.8879 C   0  0  0  0  0  0  0  0  0  0  0  0
   13.0912   -3.5764   -6.9610 C   0  0  0  0  0  0  0  0  0  0  0  0
   12.8412   -4.0381   -5.5878 C   0  0  0  0  0  0  0  0  0  0  0  0
   11.7829   -3.0493   -4.9852 N   0  0  0  0  0  0  0  0  0  0  0  0
   11.4493   -3.5826   -3.6982 C   0  0  0  0  0  0  0  0  0  0  0  0
   15.0177   -2.4688   -9.3689 O   0  0  0  0  0  0  0  0  0  0  0  0
   16.2132   -2.3836   -9.6674 O   0  0  0  0  0  0  0  0  0  0  0  0
  2  1  1  0
  2  3  1  0
  3  4  1  1
  5  6  1  6
  5  3  1  0
  7  5  1  0
  8  7  2  0
 10 12  1  0
 10  9  1  0
 11 10  2  0
 13 14  1  0
 13 12  1  0
 16 15  1  6
 15 14  1  0
 16 17  1  0
 17  7  1  0
 18 19  2  0
 18 16  1  0
 20 18  1  0
 21 20  1  0
 22 23  1  0
 21 22  1  1
 23 24  1  0
 24 25  1  0
 25 26  1  0
 27 29  1  0
 27 21  1  0
 28 27  2  0
M  END
$$$$
