IRK.pdb
     RDKit          3D

 29 28  0  0  1  0  0  0  0  0999 V2000
   21.9584   -9.0462  -15.1218 C   0  0  0  0  0  0  0  0  0  0  0  0
   21.9031   -8.5485  -13.6947 C   0  0  0  0  0  0  0  0  0  0  0  0
   20.5256   -7.9926  -13.4046 C   0  0  2  0  0  0  0  0  0  0  0  0
   20.1691   -7.0244  -14.4838 C   0  0  0  0  0  0  0  0  0  0  0  0
   20.3728   -7.4730  -12.0111 C   0  0  2  0  0  0  0  0  0  0  0  0
   20.7901   -8.5191  -11.0982 N   0  0  0  0  0  0  0  0  0  0  0  0
   19.0355   -6.9465  -11.6890 C   0  0  0  0  0  0  0  0  0  0  0  0
   18.5611   -5.9835  -12.3413 O   0  0  0  0  0  0  0  0  0  0  0  0
   12.7615  -12.0883   -9.4127 N   0  0  0  0  0  0  0  0  0  0  0  0
   12.4201  -10.7231   -9.6760 C   0  0  0  0  0  0  0  0  0  0  0  0
   11.2383  -10.2769   -9.4433 N   0  0  0  0  0  0  0  0  0  0  0  0
   13.3897   -9.8358  -10.2019 N   0  0  0  0  0  0  0  0  0  0  0  0
   14.7542  -10.2804  -10.2979 C   0  0  0  0  0  0  0  0  0  0  0  0
   15.6128   -9.2406  -11.0442 C   0  0  0  0  0  0  0  0  0  0  0  0
   16.0591   -8.2650  -10.0195 C   0  0  0  0  0  0  0  0  0  0  0  0
   16.8099   -7.0710  -10.4858 C   0  0  2  0  0  0  0  0  0  0  0  0
   18.2271   -7.4815  -10.6512 N   0  0  0  0  0  0  0  0  0  0  0  0
   16.7871   -5.8909   -9.6135 C   0  0  0  0  0  0  0  0  0  0  0  0
   17.3554   -5.9840   -8.4768 O   0  0  0  0  0  0  0  0  0  0  0  0
   10.9225   -9.3237   -9.7286 N   0  0  0  0  0  0  0  0  0  0  0  0
   16.2059   -4.6529   -9.8956 C   0  0  1  0  0  0  0  0  0  0  0  0
   16.1633   -3.5653   -8.8475 C   0  0  0  0  0  0  0  0  0  0  0  0
   16.7927   -2.3874   -9.4845 C   0  0  0  0  0  0  0  0  0  0  0  0
   16.9686   -1.0958   -8.8707 C   0  0  0  0  0  0  0  0  0  0  0  0
   18.0019   -0.7874   -7.8714 C   0  0  0  0  0  0  0  0  0  0  0  0
   17.7057    0.6724   -7.3796 N   0  0  0  0  0  0  0  0  0  0  0  0
   18.6328    0.9135   -6.3144 C   0  0  0  0  0  0  0  0  0  0  0  0
   14.7492   -3.4830   -8.4869 O   0  0  0  0  0  0  0  0  0  0  0  0
   13.8418   -3.8714   -9.2294 O   0  0  0  0  0  0  0  0  0  0  0  0
  2  1  1  0
  2  3  1  0
  3  4  1  6
  5  6  1  1
  5  3  1  0
  7  5  1  0
  8  7  2  0
 10 12  1  0
 10  9  1  0
 11 10  2  0
 13 14  1  0
 13 12  1  0
 16 15  1  1
 15 14  1  0
 16 17  1  0
 17  7  1  0
 18 19  2  0
 18 16  1  0
 20 18  1  0
 21 20  1  0
 22 23  1  0
 21 22  1  6
 23 24  1  0
 24 25  1  0
 25 26  1  0
 27 29  1  0
 27 21  1  0
 28 27  2  0
M  END
$$$$
