IRK.pdb
     RDKit          3D

 29 28  0  0  1  0  0  0  0  0999 V2000
    7.0087  -10.8955  -19.8474 C   0  0  0  0  0  0  0  0  0  0  0  0
    8.4727  -10.6603  -20.1453 C   0  0  0  0  0  0  0  0  0  0  0  0
    8.6794   -9.2217  -20.5675 C   0  0  2  0  0  0  0  0  0  0  0  0
    7.7017   -8.9008  -21.6493 C   0  0  0  0  0  0  0  0  0  0  0  0
   10.1032   -8.8903  -20.8813 C   0  0  2  0  0  0  0  0  0  0  0  0
   10.4600   -9.5777  -22.1069 N   0  0  0  0  0  0  0  0  0  0  0  0
   11.0563   -9.1553  -19.7901 C   0  0  0  0  0  0  0  0  0  0  0  0
   10.8922   -8.6235  -18.6641 O   0  0  0  0  0  0  0  0  0  0  0  0
   15.3622  -16.4210  -18.4825 N   0  0  0  0  0  0  0  0  0  0  0  0
   15.7993  -15.6886  -17.3325 C   0  0  0  0  0  0  0  0  0  0  0  0
   16.4060  -16.2737  -16.3633 N   0  0  0  0  0  0  0  0  0  0  0  0
   15.5669  -14.2949  -17.2458 N   0  0  0  0  0  0  0  0  0  0  0  0
   14.7497  -13.6664  -18.2487 C   0  0  0  0  0  0  0  0  0  0  0  0
   14.4562  -12.2015  -17.8699 C   0  0  0  0  0  0  0  0  0  0  0  0
   13.5492  -11.6792  -18.9213 C   0  0  0  0  0  0  0  0  0  0  0  0
   13.1159  -10.2623  -18.8159 C   0  0  2  0  0  0  0  0  0  0  0  0
   12.1849  -10.0036  -19.9432 N   0  0  0  0  0  0  0  0  0  0  0  0
   14.1691   -9.2413  -18.8651 C   0  0  0  0  0  0  0  0  0  0  0  0
   14.7727   -9.0665  -19.9737 O   0  0  0  0  0  0  0  0  0  0  0  0
   16.7365  -15.7701  -15.5108 N   0  0  0  0  0  0  0  0  0  0  0  0
   14.5893   -8.4213  -17.8158 C   0  0  2  0  0  0  0  0  0  0  0  0
   15.6844   -7.4017  -18.0262 C   0  0  0  0  0  0  0  0  0  0  0  0
   15.1288   -6.1257  -17.5235 C   0  0  0  0  0  0  0  0  0  0  0  0
   15.8638   -4.8974  -17.3601 C   0  0  0  0  0  0  0  0  0  0  0  0
   15.2890   -3.6524  -16.8298 C   0  0  0  0  0  0  0  0  0  0  0  0
   16.4186   -2.5703  -16.9473 N   0  0  0  0  0  0  0  0  0  0  0  0
   15.8327   -1.3518  -16.4739 C   0  0  0  0  0  0  0  0  0  0  0  0
   16.8347   -7.9763  -17.3310 O   0  0  0  0  0  0  0  0  0  0  0  0
   16.7477   -8.9523  -16.5791 O   0  0  0  0  0  0  0  0  0  0  0  0
  2  1  1  0
  2  3  1  0
  3  4  1  6
  5  6  1  6
  5  3  1  0
  7  5  1  0
  8  7  2  0
 10 12  1  0
 10  9  1  0
 11 10  2  0
 13 14  1  0
 13 12  1  0
 16 15  1  6
 15 14  1  0
 16 17  1  0
 17  7  1  0
 18 19  2  0
 18 16  1  0
 20 18  1  0
 21 20  1  0
 22 23  1  0
 21 22  1  1
 23 24  1  0
 24 25  1  0
 25 26  1  0
 27 29  1  0
 27 21  1  0
 28 27  2  0
M  END
$$$$
