IRK.pdb
     RDKit          3D

 29 28  0  0  1  0  0  0  0  0999 V2000
   29.5243  -16.0715  -17.6957 C   0  0  0  0  0  0  0  0  0  0  0  0
   28.0570  -16.2528  -17.3769 C   0  0  0  0  0  0  0  0  0  0  0  0
   27.2866  -16.4976  -18.6563 C   0  0  2  0  0  0  0  0  0  0  0  0
   27.5892  -15.3898  -19.6103 C   0  0  0  0  0  0  0  0  0  0  0  0
   25.8321  -16.7645  -18.4356 C   0  0  2  0  0  0  0  0  0  0  0  0
   25.2442  -15.5723  -17.8567 N   0  0  0  0  0  0  0  0  0  0  0  0
   25.5361  -17.9752  -17.6508 C   0  0  0  0  0  0  0  0  0  0  0  0
   25.8886  -19.1044  -18.0731 O   0  0  0  0  0  0  0  0  0  0  0  0
   25.9710  -22.0448  -10.9849 N   0  0  0  0  0  0  0  0  0  0  0  0
   25.9763  -20.7088  -10.4705 C   0  0  0  0  0  0  0  0  0  0  0  0
   25.5883  -20.4566   -9.2722 N   0  0  0  0  0  0  0  0  0  0  0  0
   26.4135  -19.6351  -11.2829 N   0  0  0  0  0  0  0  0  0  0  0  0
   26.9337  -19.9257  -12.5920 C   0  0  0  0  0  0  0  0  0  0  0  0
   25.7889  -20.2530  -13.5706 C   0  0  0  0  0  0  0  0  0  0  0  0
   25.6743  -19.0824  -14.4748 C   0  0  0  0  0  0  0  0  0  0  0  0
   24.6847  -19.1597  -15.5800 C   0  0  2  0  0  0  0  0  0  0  0  0
   24.8537  -17.9376  -16.4059 N   0  0  0  0  0  0  0  0  0  0  0  0
   23.2701  -19.2473  -15.1986 C   0  0  0  0  0  0  0  0  0  0  0  0
   22.6725  -18.1653  -14.8890 O   0  0  0  0  0  0  0  0  0  0  0  0
   25.5802  -19.4950   -8.8662 N   0  0  0  0  0  0  0  0  0  0  0  0
   22.4893  -20.4035  -15.1400 C   0  0  2  0  0  0  0  0  0  0  0  0
   21.0255  -20.3266  -14.7732 C   0  0  0  0  0  0  0  0  0  0  0  0
   20.4626  -21.6439  -15.1438 C   0  0  0  0  0  0  0  0  0  0  0  0
   19.0727  -22.0147  -15.0630 C   0  0  0  0  0  0  0  0  0  0  0  0
   18.5257  -23.2891  -15.5513 C   0  0  0  0  0  0  0  0  0  0  0  0
   16.9695  -23.1840  -15.3838 N   0  0  0  0  0  0  0  0  0  0  0  0
   16.4385  -24.3715  -15.9839 C   0  0  0  0  0  0  0  0  0  0  0  0
   21.0389  -19.9534  -13.3600 O   0  0  0  0  0  0  0  0  0  0  0  0
   21.9905  -20.1927  -12.6098 O   0  0  0  0  0  0  0  0  0  0  0  0
  2  1  1  0
  2  3  1  0
  3  4  1  6
  5  6  1  1
  5  3  1  0
  7  5  1  0
  8  7  2  0
 10 12  1  0
 10  9  1  0
 11 10  2  0
 13 14  1  0
 13 12  1  0
 16 15  1  1
 15 14  1  0
 16 17  1  0
 17  7  1  0
 18 19  2  0
 18 16  1  0
 20 18  1  0
 21 20  1  0
 22 23  1  0
 21 22  1  6
 23 24  1  0
 24 25  1  0
 25 26  1  0
 27 29  1  0
 27 21  1  0
 28 27  2  0
M  END
$$$$
