IRK.pdb
     RDKit          3D

 29 28  0  0  1  0  0  0  0  0999 V2000
   24.8557  -16.8432  -19.0807 C   0  0  0  0  0  0  0  0  0  0  0  0
   26.1742  -17.5427  -18.8366 C   0  0  0  0  0  0  0  0  0  0  0  0
   26.0282  -18.5114  -17.6830 C   0  0  2  0  0  0  0  0  0  0  0  0
   25.4223  -17.7844  -16.5283 C   0  0  0  0  0  0  0  0  0  0  0  0
   27.2831  -19.2622  -17.3715 C   0  0  2  0  0  0  0  0  0  0  0  0
   27.6370  -20.0417  -18.5415 N   0  0  0  0  0  0  0  0  0  0  0  0
   27.2289  -20.0791  -16.1471 C   0  0  0  0  0  0  0  0  0  0  0  0
   26.5249  -21.1187  -16.1111 O   0  0  0  0  0  0  0  0  0  0  0  0
   31.5305  -21.7334   -8.6920 N   0  0  0  0  0  0  0  0  0  0  0  0
   31.9971  -22.3861   -9.8777 C   0  0  0  0  0  0  0  0  0  0  0  0
   32.8123  -23.3768   -9.8139 N   0  0  0  0  0  0  0  0  0  0  0  0
   31.5627  -21.9451  -11.1508 N   0  0  0  0  0  0  0  0  0  0  0  0
   30.7418  -20.7668  -11.2313 C   0  0  0  0  0  0  0  0  0  0  0  0
   29.3288  -21.1229  -11.7334 C   0  0  0  0  0  0  0  0  0  0  0  0
   29.1944  -20.4869  -13.0669 C   0  0  0  0  0  0  0  0  0  0  0  0
   27.8842  -20.6040  -13.7572 C   0  0  2  0  0  0  0  0  0  0  0  0
   27.9491  -19.7481  -14.9686 N   0  0  0  0  0  0  0  0  0  0  0  0
   26.6949  -20.2067  -12.9944 C   0  0  0  0  0  0  0  0  0  0  0  0
   26.4875  -18.9604  -12.8282 O   0  0  0  0  0  0  0  0  0  0  0  0
   33.2418  -23.8168  -10.6573 N   0  0  0  0  0  0  0  0  0  0  0  0
   25.7447  -21.0558  -12.4235 C   0  0  2  0  0  0  0  0  0  0  0  0
   24.5706  -20.4931  -11.6567 C   0  0  0  0  0  0  0  0  0  0  0  0
   23.3702  -21.0154  -12.3463 C   0  0  0  0  0  0  0  0  0  0  0  0
   22.0052  -20.7668  -11.9580 C   0  0  0  0  0  0  0  0  0  0  0  0
   20.8324  -21.3032  -12.6640 C   0  0  0  0  0  0  0  0  0  0  0  0
   19.5797  -20.8037  -11.8628 N   0  0  0  0  0  0  0  0  0  0  0  0
   18.4433  -21.3036  -12.5775 C   0  0  0  0  0  0  0  0  0  0  0  0
   24.8167  -20.9180  -10.2800 O   0  0  0  0  0  0  0  0  0  0  0  0
   25.5682  -21.8540   -9.9889 O   0  0  0  0  0  0  0  0  0  0  0  0
  2  1  1  0
  2  3  1  0
  3  4  1  1
  5  6  1  6
  5  3  1  0
  7  5  1  0
  8  7  2  0
 10 12  1  0
 10  9  1  0
 11 10  2  0
 13 14  1  0
 13 12  1  0
 16 15  1  1
 15 14  1  0
 16 17  1  0
 17  7  1  0
 18 19  2  0
 18 16  1  0
 20 18  1  0
 21 20  1  0
 22 23  1  0
 21 22  1  6
 23 24  1  0
 24 25  1  0
 25 26  1  0
 27 29  1  0
 27 21  1  0
 28 27  2  0
M  END
$$$$
