GWN.pdb
     RDKit          3D

 27 28  0  0  1  0  0  0  0  0999 V2000
   27.8384  -24.5982  -16.3576 N   0  0  0  0  0  0  0  0  0  0  0  0
   27.7087  -23.1560  -16.2934 C   0  0  0  0  0  0  0  0  0  0  0  0
   26.8377  -22.7856  -15.1488 C   0  0  0  0  0  0  0  0  0  0  0  0
   26.1262  -23.6324  -14.5498 O   0  0  0  0  0  0  0  0  0  0  0  0
   26.7892  -21.4580  -14.7028 N   0  0  0  0  0  0  0  0  0  0  0  0
   25.9263  -20.9572  -13.6548 C   0  0  1  0  0  0  0  0  0  0  0  0
   26.6212  -19.8027  -12.9114 C   0  0  0  0  0  0  0  0  0  0  0  0
   27.5835  -20.3156  -11.9228 C   0  0  0  0  0  0  0  0  0  0  0  0
   28.8535  -20.7616  -12.1699 C   0  0  0  0  0  0  0  0  0  0  0  0
   29.4416  -21.1577  -11.0208 N   0  0  0  0  0  0  0  0  0  0  0  0
   28.5377  -20.9612  -10.0389 C   0  0  0  0  0  0  0  0  0  0  0  0
   28.5938  -21.1848   -8.6896 C   0  0  0  0  0  0  0  0  0  0  0  0
   27.5086  -20.8893   -7.9085 C   0  0  0  0  0  0  0  0  0  0  0  0
   26.3489  -20.3752   -8.3962 C   0  0  0  0  0  0  0  0  0  0  0  0
   26.2812  -20.1444   -9.7639 C   0  0  0  0  0  0  0  0  0  0  0  0
   27.3586  -20.4322  -10.5762 C   0  0  0  0  0  0  0  0  0  0  0  0
   24.6441  -20.4547  -14.1731 C   0  0  0  0  0  0  0  0  0  0  0  0
   24.5518  -20.0089  -15.3575 O   0  0  0  0  0  0  0  0  0  0  0  0
   20.4760  -20.7668  -16.7845 N   0  0  0  0  0  0  0  0  0  0  0  0
   20.6903  -21.6440  -15.6649 C   0  0  0  0  0  0  0  0  0  0  0  0
   19.7208  -22.3419  -15.3399 O   0  0  0  0  0  0  0  0  0  0  0  0
   22.0241  -21.6178  -15.0326 C   0  0  0  0  0  0  0  0  0  0  0  0
   22.1213  -20.4936  -14.0621 C   0  0  2  0  0  0  0  0  0  0  0  0
   23.4306  -20.4212  -13.4276 N   0  0  0  0  0  0  0  0  0  0  0  0
   21.0868  -20.4602  -13.0171 C   0  0  0  0  0  0  0  0  0  0  0  0
   21.3500  -20.9563  -11.8597 O   0  0  0  0  0  0  0  0  0  0  0  0
   19.8130  -19.9413  -13.1248 O   0  0  0  0  0  0  0  0  0  0  0  0
  1  2  1  0
  2  3  1  0
  3  4  2  0
  5  6  1  0
  5  3  1  0
  6 17  1  0
  7  8  1  0
  6  7  1  6
  8 16  1  0
  9  8  2  0
  9 10  1  0
 10 11  1  0
 11 12  1  0
 12 13  2  0
 14 13  1  0
 15 14  2  0
 16 11  2  0
 16 15  1  0
 17 18  2  0
 19 20  1  0
 20 22  1  0
 21 20  2  0
 23 22  1  1
 23 25  1  0
 24 23  1  0
 24 17  1  0
 25 26  2  0
 25 27  1  0
M  END
$$$$
