GWN.pdb
     RDKit          3D

 27 28  0  0  1  0  0  0  0  0999 V2000
   28.9440  -21.3131  -14.5694 N   0  0  0  0  0  0  0  0  0  0  0  0
   28.4407  -20.3312  -13.6296 C   0  0  0  0  0  0  0  0  0  0  0  0
   27.3879  -20.9477  -12.7825 C   0  0  0  0  0  0  0  0  0  0  0  0
   26.8198  -22.0237  -13.1012 O   0  0  0  0  0  0  0  0  0  0  0  0
   26.9973  -20.3312  -11.5862 N   0  0  0  0  0  0  0  0  0  0  0  0
   25.8639  -20.7195  -10.7748 C   0  0  1  0  0  0  0  0  0  0  0  0
   26.0713  -20.2464   -9.3252 C   0  0  0  0  0  0  0  0  0  0  0  0
   27.4165  -20.5986   -8.8428 C   0  0  0  0  0  0  0  0  0  0  0  0
   28.3310  -21.3970   -9.4747 C   0  0  0  0  0  0  0  0  0  0  0  0
   29.4554  -21.4966   -8.7338 N   0  0  0  0  0  0  0  0  0  0  0  0
   29.2518  -20.7560   -7.6248 C   0  0  0  0  0  0  0  0  0  0  0  0
   30.0468  -20.5004   -6.5403 C   0  0  0  0  0  0  0  0  0  0  0  0
   29.5817  -19.6964   -5.5342 C   0  0  0  0  0  0  0  0  0  0  0  0
   28.3509  -19.1200   -5.5405 C   0  0  0  0  0  0  0  0  0  0  0  0
   27.5361  -19.3728   -6.6362 C   0  0  0  0  0  0  0  0  0  0  0  0
   27.9774  -20.1788   -7.6653 C   0  0  0  0  0  0  0  0  0  0  0  0
   24.5996  -20.1451  -11.2616 C   0  0  0  0  0  0  0  0  0  0  0  0
   24.5947  -19.0962  -11.9755 O   0  0  0  0  0  0  0  0  0  0  0  0
   21.4659  -20.5239  -15.1502 N   0  0  0  0  0  0  0  0  0  0  0  0
   21.4715  -21.5444  -14.1366 C   0  0  0  0  0  0  0  0  0  0  0  0
   20.5254  -22.3419  -14.1762 O   0  0  0  0  0  0  0  0  0  0  0  0
   22.5888  -21.5310  -13.1716 C   0  0  0  0  0  0  0  0  0  0  0  0
   22.2446  -20.7024  -11.9840 C   0  0  2  0  0  0  0  0  0  0  0  0
   23.3106  -20.6879  -10.9911 N   0  0  0  0  0  0  0  0  0  0  0  0
   20.9792  -21.0396  -11.3145 C   0  0  0  0  0  0  0  0  0  0  0  0
   20.9442  -22.0438  -10.5111 O   0  0  0  0  0  0  0  0  0  0  0  0
   19.7707  -20.3868  -11.4440 O   0  0  0  0  0  0  0  0  0  0  0  0
  1  2  1  0
  2  3  1  0
  3  4  2  0
  5  6  1  0
  5  3  1  0
  6 17  1  0
  7  8  1  0
  6  7  1  1
  8 16  1  0
  9  8  2  0
  9 10  1  0
 10 11  1  0
 11 12  1  0
 12 13  2  0
 14 13  1  0
 15 14  2  0
 16 11  2  0
 16 15  1  0
 17 18  2  0
 19 20  1  0
 20 22  1  0
 21 20  2  0
 23 22  1  6
 23 25  1  0
 24 23  1  0
 24 17  1  0
 25 26  2  0
 25 27  1  0
M  END
$$$$
