GWN.pdb
     RDKit          3D

 27 28  0  0  1  0  0  0  0  0999 V2000
   29.2937  -23.2462  -16.5784 N   0  0  0  0  0  0  0  0  0  0  0  0
   28.7902  -21.9520  -16.1632 C   0  0  0  0  0  0  0  0  0  0  0  0
   27.8504  -22.1256  -15.0262 C   0  0  0  0  0  0  0  0  0  0  0  0
   27.2993  -23.2287  -14.7780 O   0  0  0  0  0  0  0  0  0  0  0  0
   27.5519  -21.0423  -14.1890 N   0  0  0  0  0  0  0  0  0  0  0  0
   26.7120  -21.0995  -13.0121 C   0  0  1  0  0  0  0  0  0  0  0  0
   27.0963  -19.9708  -12.0392 C   0  0  0  0  0  0  0  0  0  0  0  0
   28.0423  -20.4525  -11.0197 C   0  0  0  0  0  0  0  0  0  0  0  0
   29.2416  -21.0731  -11.2422 C   0  0  0  0  0  0  0  0  0  0  0  0
   29.8368  -21.3745  -10.0684 N   0  0  0  0  0  0  0  0  0  0  0  0
   29.0087  -20.9418   -9.0953 C   0  0  0  0  0  0  0  0  0  0  0  0
   29.1047  -20.9842   -7.7306 C   0  0  0  0  0  0  0  0  0  0  0  0
   28.0979  -20.4604   -6.9643 C   0  0  0  0  0  0  0  0  0  0  0  0
   26.9802  -19.8860   -7.4820 C   0  0  0  0  0  0  0  0  0  0  0  0
   26.8727  -19.8377   -8.8656 C   0  0  0  0  0  0  0  0  0  0  0  0
   27.8710  -20.3572   -9.6636 C   0  0  0  0  0  0  0  0  0  0  0  0
   25.2831  -20.9539  -13.3321 C   0  0  0  0  0  0  0  0  0  0  0  0
   24.8850  -20.0536  -14.1327 O   0  0  0  0  0  0  0  0  0  0  0  0
   23.5850  -24.7334  -14.6695 N   0  0  0  0  0  0  0  0  0  0  0  0
   22.8931  -23.4787  -14.7954 C   0  0  0  0  0  0  0  0  0  0  0  0
   22.9107  -22.9699  -15.9238 O   0  0  0  0  0  0  0  0  0  0  0  0
   22.2459  -22.9402  -13.5826 C   0  0  0  0  0  0  0  0  0  0  0  0
   22.8556  -21.6379  -13.1985 C   0  0  2  0  0  0  0  0  0  0  0  0
   24.2494  -21.7756  -12.7977 N   0  0  0  0  0  0  0  0  0  0  0  0
   22.1389  -20.8772  -12.1637 C   0  0  0  0  0  0  0  0  0  0  0  0
   20.8956  -20.5979  -12.3403 O   0  0  0  0  0  0  0  0  0  0  0  0
   22.6532  -20.4037  -10.9743 O   0  0  0  0  0  0  0  0  0  0  0  0
  1  2  1  0
  2  3  1  0
  3  4  2  0
  5  6  1  0
  5  3  1  0
  6 17  1  0
  7  8  1  0
  6  7  1  1
  8 16  1  0
  9  8  2  0
  9 10  1  0
 10 11  1  0
 11 12  1  0
 12 13  2  0
 14 13  1  0
 15 14  2  0
 16 11  2  0
 16 15  1  0
 17 18  2  0
 19 20  1  0
 20 22  1  0
 21 20  2  0
 23 22  1  1
 23 25  1  0
 24 23  1  0
 24 17  1  0
 25 26  2  0
 25 27  1  0
M  END
$$$$
