GWN.pdb
     RDKit          3D

 27 28  0  0  1  0  0  0  0  0999 V2000
   27.9372  -23.3984  -16.2653 N   0  0  0  0  0  0  0  0  0  0  0  0
   27.6910  -22.0913  -15.6896 C   0  0  0  0  0  0  0  0  0  0  0  0
   26.8931  -22.2382  -14.4455 C   0  0  0  0  0  0  0  0  0  0  0  0
   26.2701  -23.2964  -14.1730 O   0  0  0  0  0  0  0  0  0  0  0  0
   26.8158  -21.1797  -13.5305 N   0  0  0  0  0  0  0  0  0  0  0  0
   25.8978  -21.1021  -12.4147 C   0  0  1  0  0  0  0  0  0  0  0  0
   26.3553  -20.0067  -11.4354 C   0  0  0  0  0  0  0  0  0  0  0  0
   27.4779  -20.4754  -10.6069 C   0  0  0  0  0  0  0  0  0  0  0  0
   28.6361  -21.0558  -11.0481 C   0  0  0  0  0  0  0  0  0  0  0  0
   29.4356  -21.3573  -10.0026 N   0  0  0  0  0  0  0  0  0  0  0  0
   28.7791  -20.9651   -8.8912 C   0  0  0  0  0  0  0  0  0  0  0  0
   29.1136  -21.0259   -7.5653 C   0  0  0  0  0  0  0  0  0  0  0  0
   28.2428  -20.5448   -6.6245 C   0  0  0  0  0  0  0  0  0  0  0  0
   27.0366  -19.9965   -6.9272 C   0  0  0  0  0  0  0  0  0  0  0  0
   26.6873  -19.9299   -8.2695 C   0  0  0  0  0  0  0  0  0  0  0  0
   27.5441  -20.4065   -9.2400 C   0  0  0  0  0  0  0  0  0  0  0  0
   24.5239  -20.7865  -12.8366 C   0  0  0  0  0  0  0  0  0  0  0  0
   24.2989  -19.8700  -13.6848 O   0  0  0  0  0  0  0  0  0  0  0  0
   19.8399  -22.1914  -15.3453 N   0  0  0  0  0  0  0  0  0  0  0  0
   20.0463  -22.2059  -13.9219 C   0  0  0  0  0  0  0  0  0  0  0  0
   19.0392  -21.9936  -13.2339 O   0  0  0  0  0  0  0  0  0  0  0  0
   21.4174  -22.4682  -13.4414 C   0  0  0  0  0  0  0  0  0  0  0  0
   22.0371  -21.2194  -12.9200 C   0  0  2  0  0  0  0  0  0  0  0  0
   23.3597  -21.4515  -12.3552 N   0  0  0  0  0  0  0  0  0  0  0  0
   21.2329  -20.4650  -11.9467 C   0  0  0  0  0  0  0  0  0  0  0  0
   21.3149  -20.7670  -10.6989 O   0  0  0  0  0  0  0  0  0  0  0  0
   20.3628  -19.4282  -12.2134 O   0  0  0  0  0  0  0  0  0  0  0  0
  1  2  1  0
  2  3  1  0
  3  4  2  0
  5  6  1  0
  5  3  1  0
  6 17  1  0
  7  8  1  0
  6  7  1  1
  8 16  1  0
  9  8  2  0
  9 10  1  0
 10 11  1  0
 11 12  1  0
 12 13  2  0
 14 13  1  0
 15 14  2  0
 16 11  2  0
 16 15  1  0
 17 18  2  0
 19 20  1  0
 20 22  1  0
 21 20  2  0
 23 22  1  1
 23 25  1  0
 24 23  1  0
 24 17  1  0
 25 26  2  0
 25 27  1  0
M  END
$$$$
