GWN.pdb
     RDKit          3D

 27 28  0  0  1  0  0  0  0  0999 V2000
   14.6016  -23.0787  -14.4652 N   0  0  0  0  0  0  0  0  0  0  0  0
   14.2783  -21.9731  -15.3449 C   0  0  0  0  0  0  0  0  0  0  0  0
   15.0860  -20.7850  -14.9677 C   0  0  0  0  0  0  0  0  0  0  0  0
   15.5779  -20.6498  -13.8180 O   0  0  0  0  0  0  0  0  0  0  0  0
   15.3219  -19.7691  -15.9036 N   0  0  0  0  0  0  0  0  0  0  0  0
   15.9377  -18.4916  -15.6162 C   0  0  1  0  0  0  0  0  0  0  0  0
   17.0702  -18.2183  -16.6215 C   0  0  0  0  0  0  0  0  0  0  0  0
   18.3586  -18.7158  -16.1126 C   0  0  0  0  0  0  0  0  0  0  0  0
   18.6099  -19.9552  -15.5895 C   0  0  0  0  0  0  0  0  0  0  0  0
   19.9061  -20.0546  -15.2247 N   0  0  0  0  0  0  0  0  0  0  0  0
   20.4800  -18.8696  -15.5189 C   0  0  0  0  0  0  0  0  0  0  0  0
   21.7612  -18.4135  -15.3640 C   0  0  0  0  0  0  0  0  0  0  0  0
   22.0788  -17.1404  -15.7556 C   0  0  0  0  0  0  0  0  0  0  0  0
   21.1832  -16.2766  -16.3022 C   0  0  0  0  0  0  0  0  0  0  0  0
   19.8804  -16.7292  -16.4639 C   0  0  0  0  0  0  0  0  0  0  0  0
   19.5307  -18.0070  -16.0788 C   0  0  0  0  0  0  0  0  0  0  0  0
   14.9825  -17.3752  -15.6962 C   0  0  0  0  0  0  0  0  0  0  0  0
   14.1089  -17.3320  -16.6155 O   0  0  0  0  0  0  0  0  0  0  0  0
   13.4967  -11.8169  -15.5969 N   0  0  0  0  0  0  0  0  0  0  0  0
   13.1510  -13.1831  -15.8846 C   0  0  0  0  0  0  0  0  0  0  0  0
   11.9602  -13.3874  -16.1543 O   0  0  0  0  0  0  0  0  0  0  0  0
   14.2379  -14.1806  -15.8276 C   0  0  0  0  0  0  0  0  0  0  0  0
   13.9154  -15.2505  -14.8444 C   0  0  2  0  0  0  0  0  0  0  0  0
   14.9456  -16.2789  -14.7872 N   0  0  0  0  0  0  0  0  0  0  0  0
   12.6070  -15.9006  -15.0136 C   0  0  0  0  0  0  0  0  0  0  0  0
   11.6172  -15.5134  -14.2888 O   0  0  0  0  0  0  0  0  0  0  0  0
   12.2918  -16.9184  -15.8900 O   0  0  0  0  0  0  0  0  0  0  0  0
  1  2  1  0
  2  3  1  0
  3  4  2  0
  5  6  1  0
  5  3  1  0
  6 17  1  0
  7  8  1  0
  6  7  1  6
  8 16  1  0
  9  8  2  0
  9 10  1  0
 10 11  1  0
 11 12  1  0
 12 13  2  0
 14 13  1  0
 15 14  2  0
 16 11  2  0
 16 15  1  0
 17 18  2  0
 19 20  1  0
 20 22  1  0
 21 20  2  0
 23 22  1  6
 23 25  1  0
 24 23  1  0
 24 17  1  0
 25 26  2  0
 25 27  1  0
M  END
$$$$
