GWN.pdb
     RDKit          3D

 27 28  0  0  1  0  0  0  0  0999 V2000
   28.6707  -21.6386  -15.1210 N   0  0  0  0  0  0  0  0  0  0  0  0
   28.2226  -20.6167  -14.1960 C   0  0  0  0  0  0  0  0  0  0  0  0
   27.2609  -21.2072  -13.2304 C   0  0  0  0  0  0  0  0  0  0  0  0
   26.7014  -22.3145  -13.4379 O   0  0  0  0  0  0  0  0  0  0  0  0
   26.9502  -20.5297  -12.0437 N   0  0  0  0  0  0  0  0  0  0  0  0
   25.9202  -20.9158  -11.1036 C   0  0  1  0  0  0  0  0  0  0  0  0
   26.1366  -20.1914   -9.7632 C   0  0  0  0  0  0  0  0  0  0  0  0
   27.3918  -20.6231   -9.1271 C   0  0  0  0  0  0  0  0  0  0  0  0
   28.3460  -21.4413   -9.6683 C   0  0  0  0  0  0  0  0  0  0  0  0
   29.3595  -21.6194   -8.7941 N   0  0  0  0  0  0  0  0  0  0  0  0
   29.0451  -20.9089   -7.6913 C   0  0  0  0  0  0  0  0  0  0  0  0
   29.7027  -20.7287   -6.5044 C   0  0  0  0  0  0  0  0  0  0  0  0
   29.1453  -19.9390   -5.5345 C   0  0  0  0  0  0  0  0  0  0  0  0
   27.9511  -19.3054   -5.6752 C   0  0  0  0  0  0  0  0  0  0  0  0
   27.2756  -19.4814   -6.8756 C   0  0  0  0  0  0  0  0  0  0  0  0
   27.8123  -20.2712   -7.8714 C   0  0  0  0  0  0  0  0  0  0  0  0
   24.5684  -20.5867  -11.5825 C   0  0  0  0  0  0  0  0  0  0  0  0
   24.3148  -19.4475  -12.0805 O   0  0  0  0  0  0  0  0  0  0  0  0
   20.2495  -21.7863  -14.8281 N   0  0  0  0  0  0  0  0  0  0  0  0
   20.2998  -22.1311  -13.4326 C   0  0  0  0  0  0  0  0  0  0  0  0
   19.2093  -22.1478  -12.8468 O   0  0  0  0  0  0  0  0  0  0  0  0
   21.6276  -22.4233  -12.8571 C   0  0  0  0  0  0  0  0  0  0  0  0
   22.2067  -21.2034  -12.2311 C   0  0  2  0  0  0  0  0  0  0  0  0
   23.4577  -21.4777  -11.5369 N   0  0  0  0  0  0  0  0  0  0  0  0
   21.3144  -20.4656  -11.3240 C   0  0  0  0  0  0  0  0  0  0  0  0
   20.5672  -19.5337  -11.8019 O   0  0  0  0  0  0  0  0  0  0  0  0
   21.1702  -20.6540   -9.9650 O   0  0  0  0  0  0  0  0  0  0  0  0
  1  2  1  0
  2  3  1  0
  3  4  2  0
  5  6  1  0
  5  3  1  0
  6 17  1  0
  7  8  1  0
  6  7  1  1
  8 16  1  0
  9  8  2  0
  9 10  1  0
 10 11  1  0
 11 12  1  0
 12 13  2  0
 14 13  1  0
 15 14  2  0
 16 11  2  0
 16 15  1  0
 17 18  2  0
 19 20  1  0
 20 22  1  0
 21 20  2  0
 23 22  1  1
 23 25  1  0
 24 23  1  0
 24 17  1  0
 25 26  2  0
 25 27  1  0
M  END
$$$$
