GWN.pdb
     RDKit          3D

 27 28  0  0  1  0  0  0  0  0999 V2000
   28.1787  -22.2871  -15.5162 N   0  0  0  0  0  0  0  0  0  0  0  0
   28.4272  -21.2282  -14.5582 C   0  0  0  0  0  0  0  0  0  0  0  0
   27.5609  -21.4218  -13.3674 C   0  0  0  0  0  0  0  0  0  0  0  0
   26.4583  -22.0234  -13.4346 O   0  0  0  0  0  0  0  0  0  0  0  0
   27.9616  -20.9283  -12.1185 N   0  0  0  0  0  0  0  0  0  0  0  0
   27.2022  -21.0375  -10.8916 C   0  0  1  0  0  0  0  0  0  0  0  0
   28.0430  -20.5265   -9.7083 C   0  0  0  0  0  0  0  0  0  0  0  0
   27.3021  -20.6506   -8.4425 C   0  0  0  0  0  0  0  0  0  0  0  0
   26.0384  -21.1495   -8.2778 C   0  0  0  0  0  0  0  0  0  0  0  0
   25.6850  -21.1065   -6.9754 N   0  0  0  0  0  0  0  0  0  0  0  0
   26.7324  -20.5767   -6.3103 C   0  0  0  0  0  0  0  0  0  0  0  0
   26.9261  -20.3040   -4.9830 C   0  0  0  0  0  0  0  0  0  0  0  0
   28.1104  -19.7541   -4.5706 C   0  0  0  0  0  0  0  0  0  0  0  0
   29.1334  -19.4531   -5.4132 C   0  0  0  0  0  0  0  0  0  0  0  0
   28.9473  -19.7258   -6.7621 C   0  0  0  0  0  0  0  0  0  0  0  0
   27.7649  -20.2798   -7.2073 C   0  0  0  0  0  0  0  0  0  0  0  0
   25.9547  -20.2581  -10.9301 C   0  0  0  0  0  0  0  0  0  0  0  0
   25.9816  -18.9925  -11.0167 O   0  0  0  0  0  0  0  0  0  0  0  0
   22.1411  -18.5374  -14.0732 N   0  0  0  0  0  0  0  0  0  0  0  0
   22.0251  -19.7589  -13.3228 C   0  0  0  0  0  0  0  0  0  0  0  0
   20.8705  -20.1672  -13.1419 O   0  0  0  0  0  0  0  0  0  0  0  0
   23.2776  -20.3853  -12.8553 C   0  0  0  0  0  0  0  0  0  0  0  0
   23.4765  -20.1360  -11.4015 C   0  0  2  0  0  0  0  0  0  0  0  0
   24.6485  -20.8241  -10.8768 N   0  0  0  0  0  0  0  0  0  0  0  0
   22.3249  -20.4377  -10.5379 C   0  0  0  0  0  0  0  0  0  0  0  0
   22.1650  -21.6383  -10.1044 O   0  0  0  0  0  0  0  0  0  0  0  0
   21.3505  -19.5576  -10.1144 O   0  0  0  0  0  0  0  0  0  0  0  0
  1  2  1  0
  2  3  1  0
  3  4  2  0
  5  6  1  0
  5  3  1  0
  6 17  1  0
  7  8  1  0
  6  7  1  1
  8 16  1  0
  9  8  2  0
  9 10  1  0
 10 11  1  0
 11 12  1  0
 12 13  2  0
 14 13  1  0
 15 14  2  0
 16 11  2  0
 16 15  1  0
 17 18  2  0
 19 20  1  0
 20 22  1  0
 21 20  2  0
 23 22  1  6
 23 25  1  0
 24 23  1  0
 24 17  1  0
 25 26  2  0
 25 27  1  0
M  END
$$$$
