GWN.pdb
     RDKit          3D

 27 28  0  0  1  0  0  0  0  0999 V2000
   28.7522  -21.5424  -15.3466 N   0  0  0  0  0  0  0  0  0  0  0  0
   27.8969  -20.5684  -14.6981 C   0  0  0  0  0  0  0  0  0  0  0  0
   26.9490  -21.2647  -13.7911 C   0  0  0  0  0  0  0  0  0  0  0  0
   26.5118  -22.4176  -14.0400 O   0  0  0  0  0  0  0  0  0  0  0  0
   26.5130  -20.6396  -12.6153 N   0  0  0  0  0  0  0  0  0  0  0  0
   25.4826  -21.1416  -11.7320 C   0  0  1  0  0  0  0  0  0  0  0  0
   25.6608  -20.5424  -10.3258 C   0  0  0  0  0  0  0  0  0  0  0  0
   26.9779  -20.8891   -9.7678 C   0  0  0  0  0  0  0  0  0  0  0  0
   27.9810  -21.5738  -10.3987 C   0  0  0  0  0  0  0  0  0  0  0  0
   29.0441  -21.7075   -9.5771 N   0  0  0  0  0  0  0  0  0  0  0  0
   28.7122  -21.1032   -8.4176 C   0  0  0  0  0  0  0  0  0  0  0  0
   29.4010  -20.9360   -7.2466 C   0  0  0  0  0  0  0  0  0  0  0  0
   28.8140  -20.2683   -6.2051 C   0  0  0  0  0  0  0  0  0  0  0  0
   27.5600  -19.7468   -6.2578 C   0  0  0  0  0  0  0  0  0  0  0  0
   26.8524  -19.9108   -7.4413 C   0  0  0  0  0  0  0  0  0  0  0  0
   27.4176  -20.5789   -8.5077 C   0  0  0  0  0  0  0  0  0  0  0  0
   24.1281  -20.8056  -12.1986 C   0  0  0  0  0  0  0  0  0  0  0  0
   23.8226  -19.6120  -12.5019 O   0  0  0  0  0  0  0  0  0  0  0  0
   22.8150  -23.6706  -15.3535 N   0  0  0  0  0  0  0  0  0  0  0  0
   22.1845  -22.4112  -15.0620 C   0  0  0  0  0  0  0  0  0  0  0  0
   22.4698  -21.4811  -15.8276 O   0  0  0  0  0  0  0  0  0  0  0  0
   21.2782  -22.3636  -13.8975 C   0  0  0  0  0  0  0  0  0  0  0  0
   21.7690  -21.3819  -12.8921 C   0  0  2  0  0  0  0  0  0  0  0  0
   23.0706  -21.7481  -12.3501 N   0  0  0  0  0  0  0  0  0  0  0  0
   20.8543  -21.0991  -11.7757 C   0  0  0  0  0  0  0  0  0  0  0  0
   19.6490  -20.7295  -12.0321 O   0  0  0  0  0  0  0  0  0  0  0  0
   21.1368  -21.1834  -10.4279 O   0  0  0  0  0  0  0  0  0  0  0  0
  1  2  1  0
  2  3  1  0
  3  4  2  0
  5  6  1  0
  5  3  1  0
  6 17  1  0
  7  8  1  0
  6  7  1  1
  8 16  1  0
  9  8  2  0
  9 10  1  0
 10 11  1  0
 11 12  1  0
 12 13  2  0
 14 13  1  0
 15 14  2  0
 16 11  2  0
 16 15  1  0
 17 18  2  0
 19 20  1  0
 20 22  1  0
 21 20  2  0
 23 22  1  1
 23 25  1  0
 24 23  1  0
 24 17  1  0
 25 26  2  0
 25 27  1  0
M  END
$$$$
