GWN.pdb
     RDKit          3D

 27 28  0  0  1  0  0  0  0  0999 V2000
   28.4452  -23.5883  -17.5428 N   0  0  0  0  0  0  0  0  0  0  0  0
   27.9456  -22.2769  -17.1806 C   0  0  0  0  0  0  0  0  0  0  0  0
   27.3089  -22.3401  -15.8402 C   0  0  0  0  0  0  0  0  0  0  0  0
   26.8773  -23.4180  -15.3563 O   0  0  0  0  0  0  0  0  0  0  0  0
   27.1728  -21.1770  -15.0707 N   0  0  0  0  0  0  0  0  0  0  0  0
   26.5398  -21.1010  -13.7717 C   0  0  1  0  0  0  0  0  0  0  0  0
   27.1258  -19.9242  -12.9717 C   0  0  0  0  0  0  0  0  0  0  0  0
   27.7889  -20.3980  -11.7460 C   0  0  0  0  0  0  0  0  0  0  0  0
   29.0701  -20.8662  -11.6357 C   0  0  0  0  0  0  0  0  0  0  0  0
   29.3328  -21.2126  -10.3574 N   0  0  0  0  0  0  0  0  0  0  0  0
   28.2099  -20.9621   -9.6529 C   0  0  0  0  0  0  0  0  0  0  0  0
   27.9106  -21.1221   -8.3269 C   0  0  0  0  0  0  0  0  0  0  0  0
   26.6666  -20.7807   -7.8675 C   0  0  0  0  0  0  0  0  0  0  0  0
   25.6833  -20.2802   -8.6611 C   0  0  0  0  0  0  0  0  0  0  0  0
   25.9764  -20.1138  -10.0082 C   0  0  0  0  0  0  0  0  0  0  0  0
   27.2210  -20.4489  -10.5001 C   0  0  0  0  0  0  0  0  0  0  0  0
   25.0845  -20.9044  -13.8650 C   0  0  0  0  0  0  0  0  0  0  0  0
   24.5966  -20.0128  -14.6246 O   0  0  0  0  0  0  0  0  0  0  0  0
   19.8273  -23.0005  -14.2934 N   0  0  0  0  0  0  0  0  0  0  0  0
   20.4614  -22.4529  -13.1243 C   0  0  0  0  0  0  0  0  0  0  0  0
   19.7189  -21.8238  -12.3591 O   0  0  0  0  0  0  0  0  0  0  0  0
   21.9089  -22.6961  -12.9651 C   0  0  0  0  0  0  0  0  0  0  0  0
   22.6863  -21.4769  -13.3178 C   0  0  2  0  0  0  0  0  0  0  0  0
   24.1203  -21.6645  -13.1425 N   0  0  0  0  0  0  0  0  0  0  0  0
   22.2835  -20.2409  -12.6299 C   0  0  0  0  0  0  0  0  0  0  0  0
   21.5203  -19.4046  -13.2409 O   0  0  0  0  0  0  0  0  0  0  0  0
   22.6355  -19.8463  -11.3556 O   0  0  0  0  0  0  0  0  0  0  0  0
  1  2  1  0
  2  3  1  0
  3  4  2  0
  5  6  1  0
  5  3  1  0
  6 17  1  0
  7  8  1  0
  6  7  1  1
  8 16  1  0
  9  8  2  0
  9 10  1  0
 10 11  1  0
 11 12  1  0
 12 13  2  0
 14 13  1  0
 15 14  2  0
 16 11  2  0
 16 15  1  0
 17 18  2  0
 19 20  1  0
 20 22  1  0
 21 20  2  0
 23 22  1  1
 23 25  1  0
 24 23  1  0
 24 17  1  0
 25 26  2  0
 25 27  1  0
M  END
$$$$
