GWN.pdb
     RDKit          3D

 27 28  0  0  1  0  0  0  0  0999 V2000
   21.0370   -9.2720  -19.1042 N   0  0  0  0  0  0  0  0  0  0  0  0
   20.3522   -8.0027  -19.2479 C   0  0  0  0  0  0  0  0  0  0  0  0
   20.0797   -7.4299  -17.9048 C   0  0  0  0  0  0  0  0  0  0  0  0
   19.0381   -7.7108  -17.2581 O   0  0  0  0  0  0  0  0  0  0  0  0
   20.9957   -6.5467  -17.3179 N   0  0  0  0  0  0  0  0  0  0  0  0
   20.8265   -5.8919  -16.0387 C   0  0  1  0  0  0  0  0  0  0  0  0
   22.1511   -5.9215  -15.2560 C   0  0  0  0  0  0  0  0  0  0  0  0
   22.4324   -7.2735  -14.7464 C   0  0  0  0  0  0  0  0  0  0  0  0
   23.3536   -8.1590  -15.2365 C   0  0  0  0  0  0  0  0  0  0  0  0
   23.3317   -9.3019  -14.5179 N   0  0  0  0  0  0  0  0  0  0  0  0
   22.3900   -9.1391  -13.5657 C   0  0  0  0  0  0  0  0  0  0  0  0
   21.9479   -9.9670  -12.5694 C   0  0  0  0  0  0  0  0  0  0  0  0
   20.9585   -9.5410  -11.7240 C   0  0  0  0  0  0  0  0  0  0  0  0
   20.3704   -8.3188  -11.8105 C   0  0  0  0  0  0  0  0  0  0  0  0
   20.8114   -7.4708  -12.8179 C   0  0  0  0  0  0  0  0  0  0  0  0
   21.8068   -7.8723  -13.6847 C   0  0  0  0  0  0  0  0  0  0  0  0
   20.4134   -4.4863  -16.1758 C   0  0  0  0  0  0  0  0  0  0  0  0
   20.9474   -3.7340  -17.0470 O   0  0  0  0  0  0  0  0  0  0  0  0
   17.6557   -0.3618  -16.6463 N   0  0  0  0  0  0  0  0  0  0  0  0
   17.6259   -1.4374  -17.6009 C   0  0  0  0  0  0  0  0  0  0  0  0
   17.0993   -1.1712  -18.6892 O   0  0  0  0  0  0  0  0  0  0  0  0
   18.2176   -2.7247  -17.1858 C   0  0  0  0  0  0  0  0  0  0  0  0
   18.7354   -2.6379  -15.7931 C   0  0  2  0  0  0  0  0  0  0  0  0
   19.4145   -3.8579  -15.3777 N   0  0  0  0  0  0  0  0  0  0  0  0
   17.7482   -2.2729  -14.7658 C   0  0  0  0  0  0  0  0  0  0  0  0
   17.1997   -1.1101  -14.8099 O   0  0  0  0  0  0  0  0  0  0  0  0
   17.3161   -3.0537  -13.7137 O   0  0  0  0  0  0  0  0  0  0  0  0
  1  2  1  0
  2  3  1  0
  3  4  2  0
  5  6  1  0
  5  3  1  0
  6 17  1  0
  7  8  1  0
  6  7  1  6
  8 16  1  0
  9  8  2  0
  9 10  1  0
 10 11  1  0
 11 12  1  0
 12 13  2  0
 14 13  1  0
 15 14  2  0
 16 11  2  0
 16 15  1  0
 17 18  2  0
 19 20  1  0
 20 22  1  0
 21 20  2  0
 23 22  1  6
 23 25  1  0
 24 23  1  0
 24 17  1  0
 25 26  2  0
 25 27  1  0
M  END
$$$$
