TNE.pdb
     RDKit          3D

 25 24  0  0  1  0  0  0  0  0999 V2000
   22.3464  -10.4878  -18.6864 C   0  0  0  0  0  0  0  0  0  0  0  0
   21.1124  -11.2925  -18.9123 C   0  0  1  0  0  0  0  0  0  0  0  0
   21.4897  -12.5193  -19.4582 O   0  0  0  0  0  0  0  0  0  0  0  0
   20.3316  -11.5786  -17.6619 C   0  0  2  0  0  0  0  0  0  0  0  0
   19.2480  -12.4841  -17.9977 N   0  0  0  0  0  0  0  0  0  0  0  0
   19.7745  -10.3499  -17.0410 C   0  0  0  0  0  0  0  0  0  0  0  0
   19.1589   -9.5311  -17.7574 O   0  0  0  0  0  0  0  0  0  0  0  0
   16.9561   -9.9618  -15.1446 N   0  0  0  0  0  0  0  0  0  0  0  0
   17.4516   -9.6945  -13.8203 C   0  0  0  0  0  0  0  0  0  0  0  0
   16.7231   -9.9424  -12.8277 O   0  0  0  0  0  0  0  0  0  0  0  0
   18.8105   -9.1329  -13.6623 C   0  0  0  0  0  0  0  0  0  0  0  0
   19.4703   -8.8874  -15.0014 C   0  0  2  0  0  0  0  0  0  0  0  0
   19.9197  -10.0746  -15.6533 N   0  0  0  0  0  0  0  0  0  0  0  0
   20.5914   -7.9008  -14.8051 C   0  0  0  0  0  0  0  0  0  0  0  0
   21.7189   -8.3752  -14.5214 O   0  0  0  0  0  0  0  0  0  0  0  0
   20.4165   -6.5124  -14.9266 N   0  0  0  0  0  0  0  0  0  0  0  0
   21.5368   -5.5999  -14.8241 C   0  0  1  0  0  0  0  0  0  0  0  0
   21.3143   -4.3842  -15.6955 C   0  0  0  0  0  0  0  0  0  0  0  0
   22.4973   -3.4517  -15.5452 C   0  0  0  0  0  0  0  0  0  0  0  0
   22.3237   -2.2099  -16.3300 C   0  0  0  0  0  0  0  0  0  0  0  0
   21.3443   -2.1042  -17.0942 O   0  0  0  0  0  0  0  0  0  0  0  0
   21.7705   -5.1835  -13.4155 C   0  0  0  0  0  0  0  0  0  0  0  0
   22.9855   -4.7295  -12.9646 O   0  0  0  0  0  0  0  0  0  0  0  0
   23.2209   -1.1711  -16.2328 O   0  0  0  0  0  0  0  0  0  0  0  0
   20.8023   -5.2578  -12.6199 O   0  0  0  0  0  0  0  0  0  0  0  0
  2  1  1  1
  2  3  1  0
  2  4  1  0
  4  6  1  0
  4  5  1  6
  6 13  1  0
  6  7  2  0
  9  8  1  0
  9 10  2  0
 11  9  1  0
 12 14  1  0
 12 11  1  1
 13 12  1  0
 14 16  1  0
 15 14  2  0
 16 17  1  0
 17 18  1  6
 17 22  1  0
 18 19  1  0
 19 20  1  0
 20 24  1  0
 20 21  2  0
 22 25  2  0
 22 23  1  0
M  END
$$$$
