TNE.pdb
     RDKit          3D

 25 24  0  0  1  0  0  0  0  0999 V2000
   19.8855   -8.8963  -19.7994 C   0  0  0  0  0  0  0  0  0  0  0  0
   19.3533  -10.1969  -19.3028 C   0  0  1  0  0  0  0  0  0  0  0  0
   18.7435  -10.8518  -20.3727 O   0  0  0  0  0  0  0  0  0  0  0  0
   20.4043  -11.1177  -18.7529 C   0  0  2  0  0  0  0  0  0  0  0  0
   19.7716  -12.3776  -18.4074 N   0  0  0  0  0  0  0  0  0  0  0  0
   21.0834  -10.5610  -17.5552 C   0  0  0  0  0  0  0  0  0  0  0  0
   20.4308  -10.4113  -16.4996 O   0  0  0  0  0  0  0  0  0  0  0  0
   24.0105  -12.1062  -15.8519 N   0  0  0  0  0  0  0  0  0  0  0  0
   25.0324  -11.1740  -16.2489 C   0  0  0  0  0  0  0  0  0  0  0  0
   26.2214  -11.5668  -16.3455 O   0  0  0  0  0  0  0  0  0  0  0  0
   24.6543   -9.7731  -16.5339 C   0  0  0  0  0  0  0  0  0  0  0  0
   23.1544   -9.5809  -16.4867 C   0  0  2  0  0  0  0  0  0  0  0  0
   22.4567  -10.1916  -17.5713 N   0  0  0  0  0  0  0  0  0  0  0  0
   22.8668   -8.1049  -16.3995 C   0  0  0  0  0  0  0  0  0  0  0  0
   22.7598   -7.4845  -17.4858 O   0  0  0  0  0  0  0  0  0  0  0  0
   22.7202   -7.4266  -15.1782 N   0  0  0  0  0  0  0  0  0  0  0  0
   22.3036   -6.0401  -15.1316 C   0  0  1  0  0  0  0  0  0  0  0  0
   20.9650   -5.8636  -15.8125 C   0  0  0  0  0  0  0  0  0  0  0  0
   20.5378   -4.4169  -15.6836 C   0  0  0  0  0  0  0  0  0  0  0  0
   19.1998   -4.1829  -16.2694 C   0  0  0  0  0  0  0  0  0  0  0  0
   19.0763   -3.3582  -17.1961 O   0  0  0  0  0  0  0  0  0  0  0  0
   22.2353   -5.5408  -13.7322 C   0  0  0  0  0  0  0  0  0  0  0  0
   22.3347   -4.2094  -13.4106 O   0  0  0  0  0  0  0  0  0  0  0  0
   18.0909   -4.8570  -15.8116 O   0  0  0  0  0  0  0  0  0  0  0  0
   22.0797   -6.3889  -12.8200 O   0  0  0  0  0  0  0  0  0  0  0  0
  2  1  1  6
  2  3  1  0
  2  4  1  0
  4  6  1  0
  4  5  1  1
  6 13  1  0
  6  7  2  0
  9  8  1  0
  9 10  2  0
 11  9  1  0
 12 14  1  0
 12 11  1  6
 13 12  1  0
 14 16  1  0
 15 14  2  0
 16 17  1  0
 17 18  1  1
 17 22  1  0
 18 19  1  0
 19 20  1  0
 20 24  1  0
 20 21  2  0
 22 25  2  0
 22 23  1  0
M  END
$$$$
