TNE.pdb
     RDKit          3D

 25 24  0  0  1  0  0  0  0  0999 V2000
   19.2703  -12.2832  -19.2102 C   0  0  0  0  0  0  0  0  0  0  0  0
   19.9059  -11.3095  -18.2779 C   0  0  1  0  0  0  0  0  0  0  0  0
   18.9051  -10.7622  -17.4753 O   0  0  0  0  0  0  0  0  0  0  0  0
   20.9314  -11.9173  -17.3647 C   0  0  2  0  0  0  0  0  0  0  0  0
   20.2734  -12.9126  -16.5380 N   0  0  0  0  0  0  0  0  0  0  0  0
   21.5920  -10.9109  -16.4951 C   0  0  0  0  0  0  0  0  0  0  0  0
   21.0237  -10.5493  -15.4420 O   0  0  0  0  0  0  0  0  0  0  0  0
   25.6654  -12.1052  -15.9685 N   0  0  0  0  0  0  0  0  0  0  0  0
   25.3832  -10.9052  -15.2261 C   0  0  0  0  0  0  0  0  0  0  0  0
   25.4141  -10.9350  -13.9709 O   0  0  0  0  0  0  0  0  0  0  0  0
   25.0631   -9.6639  -15.9634 C   0  0  0  0  0  0  0  0  0  0  0  0
   23.5717   -9.4145  -16.0123 C   0  0  2  0  0  0  0  0  0  0  0  0
   22.8543  -10.3439  -16.8233 N   0  0  0  0  0  0  0  0  0  0  0  0
   23.3416   -7.9937  -16.4562 C   0  0  0  0  0  0  0  0  0  0  0  0
   23.7235   -7.6942  -17.6143 O   0  0  0  0  0  0  0  0  0  0  0  0
   22.7324   -7.0276  -15.6385 N   0  0  0  0  0  0  0  0  0  0  0  0
   22.4346   -5.6998  -16.1348 C   0  0  1  0  0  0  0  0  0  0  0  0
   20.9415   -5.5076  -16.2777 C   0  0  0  0  0  0  0  0  0  0  0  0
   20.3014   -5.6153  -14.9100 C   0  0  0  0  0  0  0  0  0  0  0  0
   18.8274   -5.5147  -14.9817 C   0  0  0  0  0  0  0  0  0  0  0  0
   18.2910   -4.3900  -14.9428 O   0  0  0  0  0  0  0  0  0  0  0  0
   23.0029   -4.6491  -15.2484 C   0  0  0  0  0  0  0  0  0  0  0  0
   23.1247   -3.3363  -15.6325 O   0  0  0  0  0  0  0  0  0  0  0  0
   18.0384   -6.6369  -15.0903 O   0  0  0  0  0  0  0  0  0  0  0  0
   23.3817   -4.9978  -14.1036 O   0  0  0  0  0  0  0  0  0  0  0  0
  2  1  1  6
  2  3  1  0
  2  4  1  0
  4  6  1  0
  4  5  1  1
  6 13  1  0
  6  7  2  0
  9  8  1  0
  9 10  2  0
 11  9  1  0
 12 14  1  0
 12 11  1  6
 13 12  1  0
 14 16  1  0
 15 14  2  0
 16 17  1  0
 17 18  1  1
 17 22  1  0
 18 19  1  0
 19 20  1  0
 20 24  1  0
 20 21  2  0
 22 25  2  0
 22 23  1  0
M  END
$$$$
