TNE.pdb
     RDKit          3D

 25 24  0  0  1  0  0  0  0  0999 V2000
   16.6970   -7.9573  -18.2656 C   0  0  0  0  0  0  0  0  0  0  0  0
   15.9759   -9.1128  -17.6607 C   0  0  1  0  0  0  0  0  0  0  0  0
   15.0574   -9.5878  -18.5967 O   0  0  0  0  0  0  0  0  0  0  0  0
   16.8677  -10.2609  -17.2842 C   0  0  2  0  0  0  0  0  0  0  0  0
   16.0477  -11.2985  -16.6859 N   0  0  0  0  0  0  0  0  0  0  0  0
   17.9377   -9.8666  -16.3328 C   0  0  0  0  0  0  0  0  0  0  0  0
   17.6956   -9.8752  -15.1065 O   0  0  0  0  0  0  0  0  0  0  0  0
   22.8867   -9.8534  -13.8949 N   0  0  0  0  0  0  0  0  0  0  0  0
   22.6619   -9.4140  -15.2467 C   0  0  0  0  0  0  0  0  0  0  0  0
   23.4355   -8.5656  -15.7559 O   0  0  0  0  0  0  0  0  0  0  0  0
   21.5220   -9.9749  -16.0034 C   0  0  0  0  0  0  0  0  0  0  0  0
   20.3048   -9.0802  -15.9207 C   0  0  2  0  0  0  0  0  0  0  0  0
   19.2327   -9.4784  -16.7741 N   0  0  0  0  0  0  0  0  0  0  0  0
   20.7371   -7.6632  -16.1927 C   0  0  0  0  0  0  0  0  0  0  0  0
   20.8552   -7.3294  -17.3974 O   0  0  0  0  0  0  0  0  0  0  0  0
   21.0026   -6.7365  -15.1710 N   0  0  0  0  0  0  0  0  0  0  0  0
   21.3276   -5.3571  -15.4705 C   0  0  1  0  0  0  0  0  0  0  0  0
   20.0680   -4.5476  -15.6820 C   0  0  0  0  0  0  0  0  0  0  0  0
   20.4531   -3.1210  -16.0114 C   0  0  0  0  0  0  0  0  0  0  0  0
   19.2659   -2.2650  -16.2258 C   0  0  0  0  0  0  0  0  0  0  0  0
   19.3945   -1.0254  -16.1912 O   0  0  0  0  0  0  0  0  0  0  0  0
   22.1523   -4.7477  -14.3932 C   0  0  0  0  0  0  0  0  0  0  0  0
   22.8955   -3.6078  -14.5784 O   0  0  0  0  0  0  0  0  0  0  0  0
   18.0246   -2.8099  -16.4622 O   0  0  0  0  0  0  0  0  0  0  0  0
   22.1558   -5.3148  -13.2733 O   0  0  0  0  0  0  0  0  0  0  0  0
  2  1  1  6
  2  3  1  0
  2  4  1  0
  4  6  1  0
  4  5  1  1
  6 13  1  0
  6  7  2  0
  9  8  1  0
  9 10  2  0
 11  9  1  0
 12 14  1  0
 12 11  1  6
 13 12  1  0
 14 16  1  0
 15 14  2  0
 16 17  1  0
 17 18  1  1
 17 22  1  0
 18 19  1  0
 19 20  1  0
 20 24  1  0
 20 21  2  0
 22 25  2  0
 22 23  1  0
M  END
$$$$
