TNE.pdb
     RDKit          3D

 25 24  0  0  1  0  0  0  0  0999 V2000
   18.2603  -10.4362  -12.1792 C   0  0  0  0  0  0  0  0  0  0  0  0
   16.9440  -11.0009  -12.5916 C   0  0  1  0  0  0  0  0  0  0  0  0
   17.1212  -12.3573  -12.8638 O   0  0  0  0  0  0  0  0  0  0  0  0
   15.8753  -10.8893  -11.5426 C   0  0  2  0  0  0  0  0  0  0  0  0
   14.6929  -11.5826  -12.0204 N   0  0  0  0  0  0  0  0  0  0  0  0
   15.5281   -9.4804  -11.2265 C   0  0  0  0  0  0  0  0  0  0  0  0
   14.8878   -8.8085  -12.0638 O   0  0  0  0  0  0  0  0  0  0  0  0
   12.6625   -6.5480   -7.9966 N   0  0  0  0  0  0  0  0  0  0  0  0
   13.5847   -7.6126   -8.2916 C   0  0  0  0  0  0  0  0  0  0  0  0
   13.1408   -8.7578   -8.5542 O   0  0  0  0  0  0  0  0  0  0  0  0
   15.0361   -7.3292   -8.2780 C   0  0  0  0  0  0  0  0  0  0  0  0
   15.6512   -7.5091   -9.6484 C   0  0  2  0  0  0  0  0  0  0  0  0
   15.9021   -8.8697   -9.9978 N   0  0  0  0  0  0  0  0  0  0  0  0
   16.9033   -6.6750   -9.7207 C   0  0  0  0  0  0  0  0  0  0  0  0
   17.6722   -6.7222   -8.7292 O   0  0  0  0  0  0  0  0  0  0  0  0
   17.2235   -5.8733  -10.8288 N   0  0  0  0  0  0  0  0  0  0  0  0
   18.5209   -5.2409  -10.9515 C   0  0  1  0  0  0  0  0  0  0  0  0
   19.6048   -6.2803  -11.1287 C   0  0  0  0  0  0  0  0  0  0  0  0
   19.3228   -7.0710  -12.3885 C   0  0  0  0  0  0  0  0  0  0  0  0
   20.4319   -6.9708  -13.3622 C   0  0  0  0  0  0  0  0  0  0  0  0
   21.5173   -6.4754  -13.0004 O   0  0  0  0  0  0  0  0  0  0  0  0
   18.5489   -4.2749  -12.0821 C   0  0  0  0  0  0  0  0  0  0  0  0
   19.5620   -3.3649  -12.2596 O   0  0  0  0  0  0  0  0  0  0  0  0
   20.2886   -7.4130  -14.6573 O   0  0  0  0  0  0  0  0  0  0  0  0
   17.5961   -4.3089  -12.8986 O   0  0  0  0  0  0  0  0  0  0  0  0
  2  1  1  1
  2  3  1  0
  2  4  1  0
  4  6  1  0
  4  5  1  6
  6 13  1  0
  6  7  2  0
  9  8  1  0
  9 10  2  0
 11  9  1  0
 12 14  1  0
 12 11  1  1
 13 12  1  0
 14 16  1  0
 15 14  2  0
 16 17  1  0
 17 18  1  6
 17 22  1  0
 18 19  1  0
 19 20  1  0
 20 24  1  0
 20 21  2  0
 22 25  2  0
 22 23  1  0
M  END
$$$$
