TNE.pdb
     RDKit          3D

 25 24  0  0  1  0  0  0  0  0999 V2000
   19.9009  -17.3555  -16.2225 C   0  0  0  0  0  0  0  0  0  0  0  0
   19.5968  -16.0481  -16.8702 C   0  0  1  0  0  0  0  0  0  0  0  0
   18.6720  -16.2748  -17.8893 O   0  0  0  0  0  0  0  0  0  0  0  0
   19.0007  -15.0296  -15.9415 C   0  0  2  0  0  0  0  0  0  0  0  0
   17.7392  -15.5481  -15.4448 N   0  0  0  0  0  0  0  0  0  0  0  0
   18.7711  -13.7188  -16.6006 C   0  0  0  0  0  0  0  0  0  0  0  0
   18.4507  -13.6924  -17.8086 O   0  0  0  0  0  0  0  0  0  0  0  0
   17.3660   -9.3278  -18.8601 N   0  0  0  0  0  0  0  0  0  0  0  0
   16.9883   -9.6920  -17.5201 C   0  0  0  0  0  0  0  0  0  0  0  0
   16.4465   -8.8357  -16.7780 O   0  0  0  0  0  0  0  0  0  0  0  0
   17.2489  -11.0697  -17.0504 C   0  0  0  0  0  0  0  0  0  0  0  0
   18.6290  -11.1994  -16.4444 C   0  0  2  0  0  0  0  0  0  0  0  0
   18.9045  -12.4890  -15.8989 N   0  0  0  0  0  0  0  0  0  0  0  0
   18.8014  -10.1113  -15.4173 C   0  0  0  0  0  0  0  0  0  0  0  0
   18.2262  -10.2790  -14.3138 O   0  0  0  0  0  0  0  0  0  0  0  0
   19.5617   -8.9537  -15.6518 N   0  0  0  0  0  0  0  0  0  0  0  0
   19.7919   -7.9786  -14.6057 C   0  0  1  0  0  0  0  0  0  0  0  0
   20.9679   -7.0936  -14.9527 C   0  0  0  0  0  0  0  0  0  0  0  0
   21.1980   -6.1187  -13.8176 C   0  0  0  0  0  0  0  0  0  0  0  0
   22.3820   -5.2645  -14.0558 C   0  0  0  0  0  0  0  0  0  0  0  0
   22.3951   -4.1021  -13.6053 O   0  0  0  0  0  0  0  0  0  0  0  0
   18.5819   -7.1488  -14.3615 C   0  0  0  0  0  0  0  0  0  0  0  0
   18.1755   -6.7760  -13.1039 O   0  0  0  0  0  0  0  0  0  0  0  0
   23.4671   -5.7277  -14.7640 O   0  0  0  0  0  0  0  0  0  0  0  0
   17.9170   -6.7834  -15.3616 O   0  0  0  0  0  0  0  0  0  0  0  0
  2  1  1  1
  2  3  1  0
  2  4  1  0
  4  6  1  0
  4  5  1  6
  6 13  1  0
  6  7  2  0
  9  8  1  0
  9 10  2  0
 11  9  1  0
 12 14  1  0
 12 11  1  1
 13 12  1  0
 14 16  1  0
 15 14  2  0
 16 17  1  0
 17 18  1  6
 17 22  1  0
 18 19  1  0
 19 20  1  0
 20 24  1  0
 20 21  2  0
 22 25  2  0
 22 23  1  0
M  END
$$$$
