TNE.pdb
     RDKit          3D

 25 24  0  0  1  0  0  0  0  0999 V2000
   17.1670  -10.9631  -16.6937 C   0  0  0  0  0  0  0  0  0  0  0  0
   16.1469  -11.6461  -15.8486 C   0  0  1  0  0  0  0  0  0  0  0  0
   16.2123  -13.0142  -16.1122 O   0  0  0  0  0  0  0  0  0  0  0  0
   16.3538  -11.4629  -14.3726 C   0  0  2  0  0  0  0  0  0  0  0  0
   15.4438  -12.3495  -13.6707 N   0  0  0  0  0  0  0  0  0  0  0  0
   16.1201  -10.0643  -13.9309 C   0  0  0  0  0  0  0  0  0  0  0  0
   15.1938   -9.4075  -14.4536 O   0  0  0  0  0  0  0  0  0  0  0  0
   15.1241   -9.0151  -10.5361 N   0  0  0  0  0  0  0  0  0  0  0  0
   16.3368   -8.3846  -10.0859 C   0  0  0  0  0  0  0  0  0  0  0  0
   16.5694   -8.3041   -8.8544 O   0  0  0  0  0  0  0  0  0  0  0  0
   17.2806   -7.8460  -11.0889 C   0  0  0  0  0  0  0  0  0  0  0  0
   16.7935   -8.0919  -12.4999 C   0  0  2  0  0  0  0  0  0  0  0  0
   16.9190   -9.4470  -12.9293 N   0  0  0  0  0  0  0  0  0  0  0  0
   17.5145   -7.1455  -13.4235 C   0  0  0  0  0  0  0  0  0  0  0  0
   18.4232   -7.6354  -14.1383 O   0  0  0  0  0  0  0  0  0  0  0  0
   17.2089   -5.7768  -13.5046 N   0  0  0  0  0  0  0  0  0  0  0  0
   17.6966   -4.9592  -14.5963 C   0  0  1  0  0  0  0  0  0  0  0  0
   17.3528   -5.5890  -15.9274 C   0  0  0  0  0  0  0  0  0  0  0  0
   17.7882   -4.6557  -17.0370 C   0  0  0  0  0  0  0  0  0  0  0  0
   17.4510   -5.1928  -18.3734 C   0  0  0  0  0  0  0  0  0  0  0  0
   17.8470   -4.5896  -19.3900 O   0  0  0  0  0  0  0  0  0  0  0  0
   17.1482   -3.5783  -14.5271 C   0  0  0  0  0  0  0  0  0  0  0  0
   17.7731   -2.4989  -15.1017 O   0  0  0  0  0  0  0  0  0  0  0  0
   16.7099   -6.3435  -18.5154 O   0  0  0  0  0  0  0  0  0  0  0  0
   16.0663   -3.4134  -13.9122 O   0  0  0  0  0  0  0  0  0  0  0  0
  2  1  1  6
  2  3  1  0
  2  4  1  0
  4  6  1  0
  4  5  1  1
  6 13  1  0
  6  7  2  0
  9  8  1  0
  9 10  2  0
 11  9  1  0
 12 14  1  0
 12 11  1  1
 13 12  1  0
 14 16  1  0
 15 14  2  0
 16 17  1  0
 17 18  1  6
 17 22  1  0
 18 19  1  0
 19 20  1  0
 20 24  1  0
 20 21  2  0
 22 25  2  0
 22 23  1  0
M  END
$$$$
