TNE.pdb
     RDKit          3D

 25 24  0  0  1  0  0  0  0  0999 V2000
   18.6964  -12.0734  -20.8890 C   0  0  0  0  0  0  0  0  0  0  0  0
   19.3747  -11.3719  -19.7625 C   0  0  1  0  0  0  0  0  0  0  0  0
   18.4512  -10.5107  -19.1702 O   0  0  0  0  0  0  0  0  0  0  0  0
   19.8852  -12.2898  -18.6893 C   0  0  2  0  0  0  0  0  0  0  0  0
   18.7577  -13.0196  -18.1388 N   0  0  0  0  0  0  0  0  0  0  0  0
   20.5834  -11.5629  -17.5986 C   0  0  0  0  0  0  0  0  0  0  0  0
   19.9319  -11.1960  -16.5969 O   0  0  0  0  0  0  0  0  0  0  0  0
   24.0900   -9.9468  -14.2089 N   0  0  0  0  0  0  0  0  0  0  0  0
   24.8192  -10.4545  -15.3409 C   0  0  0  0  0  0  0  0  0  0  0  0
   26.0577  -10.2592  -15.4145 O   0  0  0  0  0  0  0  0  0  0  0  0
   24.0885  -11.1954  -16.3915 C   0  0  0  0  0  0  0  0  0  0  0  0
   22.7166  -10.6065  -16.6361 C   0  0  2  0  0  0  0  0  0  0  0  0
   21.9739  -11.2701  -17.6580 N   0  0  0  0  0  0  0  0  0  0  0  0
   22.8751   -9.1371  -16.9271 C   0  0  0  0  0  0  0  0  0  0  0  0
   23.3105   -8.8296  -18.0640 O   0  0  0  0  0  0  0  0  0  0  0  0
   22.5600   -8.1357  -15.9938 N   0  0  0  0  0  0  0  0  0  0  0  0
   22.6387   -6.7314  -16.3400 C   0  0  1  0  0  0  0  0  0  0  0  0
   21.4436   -6.3203  -17.1704 C   0  0  0  0  0  0  0  0  0  0  0  0
   20.1863   -6.5232  -16.3520 C   0  0  0  0  0  0  0  0  0  0  0  0
   18.9711   -6.1434  -17.1050 C   0  0  0  0  0  0  0  0  0  0  0  0
   17.9526   -6.8572  -17.0180 O   0  0  0  0  0  0  0  0  0  0  0  0
   22.7356   -5.8778  -15.1257 C   0  0  0  0  0  0  0  0  0  0  0  0
   22.5427   -6.3640  -13.8560 O   0  0  0  0  0  0  0  0  0  0  0  0
   18.9434   -5.0193  -17.8982 O   0  0  0  0  0  0  0  0  0  0  0  0
   23.0064   -4.6632  -15.2900 O   0  0  0  0  0  0  0  0  0  0  0  0
  2  1  1  6
  2  3  1  0
  2  4  1  0
  4  6  1  0
  4  5  1  1
  6 13  1  0
  6  7  2  0
  9  8  1  0
  9 10  2  0
 11  9  1  0
 12 14  1  0
 12 11  1  6
 13 12  1  0
 14 16  1  0
 15 14  2  0
 16 17  1  0
 17 18  1  1
 17 22  1  0
 18 19  1  0
 19 20  1  0
 20 24  1  0
 20 21  2  0
 22 25  2  0
 22 23  1  0
M  END
$$$$
