TNE.pdb
     RDKit          3D

 25 24  0  0  1  0  0  0  0  0999 V2000
   25.7847  -26.5248  -18.9933 C   0  0  0  0  0  0  0  0  0  0  0  0
   26.1347  -27.6374  -18.0655 C   0  0  1  0  0  0  0  0  0  0  0  0
   26.1308  -28.8264  -18.7946 O   0  0  0  0  0  0  0  0  0  0  0  0
   27.4902  -27.5029  -17.4334 C   0  0  2  0  0  0  0  0  0  0  0  0
   27.6585  -28.5845  -16.4801 N   0  0  0  0  0  0  0  0  0  0  0  0
   27.6728  -26.2015  -16.7416 C   0  0  0  0  0  0  0  0  0  0  0  0
   27.1275  -26.0203  -15.6315 O   0  0  0  0  0  0  0  0  0  0  0  0
   31.2837  -24.5766  -15.4425 N   0  0  0  0  0  0  0  0  0  0  0  0
   31.1134  -24.0857  -16.7845 C   0  0  0  0  0  0  0  0  0  0  0  0
   31.9455  -24.4068  -17.6687 O   0  0  0  0  0  0  0  0  0  0  0  0
   29.9589  -23.2130  -17.0882 C   0  0  0  0  0  0  0  0  0  0  0  0
   28.6498  -23.8700  -16.7095 C   0  0  2  0  0  0  0  0  0  0  0  0
   28.4505  -25.1519  -17.3038 N   0  0  0  0  0  0  0  0  0  0  0  0
   27.5281  -22.9211  -17.0416 C   0  0  0  0  0  0  0  0  0  0  0  0
   26.9484  -23.0940  -18.1419 O   0  0  0  0  0  0  0  0  0  0  0  0
   27.1265  -21.8838  -16.1838 N   0  0  0  0  0  0  0  0  0  0  0  0
   25.8371  -21.2406  -16.3314 C   0  0  1  0  0  0  0  0  0  0  0  0
   24.7186  -22.2279  -16.0844 C   0  0  0  0  0  0  0  0  0  0  0  0
   23.3964  -21.5538  -16.3829 C   0  0  0  0  0  0  0  0  0  0  0  0
   22.4097  -21.7725  -15.3027 C   0  0  0  0  0  0  0  0  0  0  0  0
   21.6178  -20.8564  -15.0064 O   0  0  0  0  0  0  0  0  0  0  0  0
   25.7033  -20.0766  -15.4152 C   0  0  0  0  0  0  0  0  0  0  0  0
   26.3961  -19.9747  -14.2340 O   0  0  0  0  0  0  0  0  0  0  0  0
   22.3495  -22.9658  -14.6201 O   0  0  0  0  0  0  0  0  0  0  0  0
   24.9179  -19.1579  -15.7545 O   0  0  0  0  0  0  0  0  0  0  0  0
  2  1  1  6
  2  3  1  0
  2  4  1  0
  4  6  1  0
  4  5  1  1
  6 13  1  0
  6  7  2  0
  9  8  1  0
  9 10  2  0
 11  9  1  0
 12 14  1  0
 12 11  1  6
 13 12  1  0
 14 16  1  0
 15 14  2  0
 16 17  1  0
 17 18  1  1
 17 22  1  0
 18 19  1  0
 19 20  1  0
 20 24  1  0
 20 21  2  0
 22 25  2  0
 22 23  1  0
M  END
$$$$
