LYT.pdb
     RDKit          3D

 28 28  0  0  1  0  0  0  0  0999 V2000
    7.9254  -22.5393   27.4286 C   0  0  0  0  0  0  0  0  0  0  0  0
    6.6594  -22.0625   26.7440 C   0  0  1  0  0  0  0  0  0  0  0  0
    5.8207  -21.3465   27.7482 C   0  0  0  0  0  0  0  0  0  0  0  0
    7.0653  -21.1884   25.5833 C   0  0  0  0  0  0  0  0  0  0  0  0
    5.9104  -20.5188   24.9190 C   0  0  2  0  0  0  0  0  0  0  0  0
    5.1786  -21.5170   24.1678 N   0  0  0  0  0  0  0  0  0  0  0  0
    6.4875  -19.4798   23.9914 C   0  0  0  0  0  0  0  0  0  0  0  0
    6.8284  -19.7775   22.8281 O   0  0  0  0  0  0  0  0  0  0  0  0
    7.8680  -12.0273   19.5283 O   0  0  0  0  0  0  0  0  0  0  0  0
    7.5645  -12.9504   20.5177 C   0  0  0  0  0  0  0  0  0  0  0  0
    6.8479  -14.0557   20.1907 C   0  0  0  0  0  0  0  0  0  0  0  0
    6.5361  -14.9798   21.1468 C   0  0  0  0  0  0  0  0  0  0  0  0
    6.9075  -14.8764   22.4792 C   0  0  0  0  0  0  0  0  0  0  0  0
    6.5907  -15.8566   23.5172 C   0  0  0  0  0  0  0  0  0  0  0  0
    7.1940  -17.1666   23.4416 C   0  0  2  0  0  0  0  0  0  0  0  0
    6.6737  -18.1478   24.3651 N   0  0  0  0  0  0  0  0  0  0  0  0
    8.6526  -17.2072   23.6169 C   0  0  0  0  0  0  0  0  0  0  0  0
    9.0841  -17.3307   24.8287 O   0  0  0  0  0  0  0  0  0  0  0  0
    7.6468  -13.7196   22.7763 C   0  0  0  0  0  0  0  0  0  0  0  0
    7.9603  -12.7894   21.8126 C   0  0  0  0  0  0  0  0  0  0  0  0
   13.2918  -17.6960   22.1580 C   0  0  0  0  0  0  0  0  0  0  0  0
   11.8933  -17.3422   21.6860 C   0  0  1  0  0  0  0  0  0  0  0  0
   11.4398  -18.3696   20.8610 O   0  0  0  0  0  0  0  0  0  0  0  0
   11.0151  -17.3006   22.9398 C   0  0  2  0  0  0  0  0  0  0  0  0
    9.6278  -17.1329   22.5740 N   0  0  0  0  0  0  0  0  0  0  0  0
   11.4521  -16.2845   23.8751 C   0  0  0  0  0  0  0  0  0  0  0  0
   10.9797  -15.0193   23.9128 O   0  0  0  0  0  0  0  0  0  0  0  0
   12.3484  -16.6029   24.7264 O   0  0  0  0  0  0  0  0  0  0  0  0
  2  1  1  1
  3  2  1  0
  4  2  1  0
  4  5  1  0
  5  6  1  6
  7  5  1  0
  7  8  2  0
  9 10  1  0
 10 11  2  0
 10 20  1  0
 11 12  1  0
 12 13  2  0
 13 14  1  0
 15 14  1  1
 15 16  1  0
 15 17  1  0
 16  7  1  0
 17 25  1  0
 18 17  2  0
 19 13  1  0
 20 19  2  0
 22 24  1  0
 22 21  1  1
 22 23  1  0
 24 26  1  0
 24 25  1  6
 26 28  2  0
 26 27  1  0
M  END
$$$$
