LYT.pdb
     RDKit          3D

 28 28  0  0  1  0  0  0  0  0999 V2000
    6.2329  -11.5023   27.3060 C   0  0  0  0  0  0  0  0  0  0  0  0
    5.9805  -12.7198   26.4384 C   0  0  1  0  0  0  0  0  0  0  0  0
    4.8086  -12.4385   25.5596 C   0  0  0  0  0  0  0  0  0  0  0  0
    7.2441  -13.0030   25.6643 C   0  0  0  0  0  0  0  0  0  0  0  0
    7.1553  -14.2301   24.8217 C   0  0  2  0  0  0  0  0  0  0  0  0
    6.7139  -15.3247   25.6602 N   0  0  0  0  0  0  0  0  0  0  0  0
    8.5432  -14.4956   24.2961 C   0  0  0  0  0  0  0  0  0  0  0  0
    9.1318  -13.6541   23.5866 O   0  0  0  0  0  0  0  0  0  0  0  0
   10.1795  -15.6293   30.5441 O   0  0  0  0  0  0  0  0  0  0  0  0
   10.5360  -15.6480   29.2042 C   0  0  0  0  0  0  0  0  0  0  0  0
   10.7436  -16.8424   28.5937 C   0  0  0  0  0  0  0  0  0  0  0  0
   11.0954  -16.8876   27.2749 C   0  0  0  0  0  0  0  0  0  0  0  0
   11.2646  -15.7665   26.4759 C   0  0  0  0  0  0  0  0  0  0  0  0
   11.6339  -15.7922   25.0611 C   0  0  0  0  0  0  0  0  0  0  0  0
   10.5855  -15.8850   24.0721 C   0  0  2  0  0  0  0  0  0  0  0  0
    9.2437  -15.6731   24.5628 N   0  0  0  0  0  0  0  0  0  0  0  0
   10.5271  -17.1478   23.3224 C   0  0  0  0  0  0  0  0  0  0  0  0
    9.3736  -17.7265   23.2574 O   0  0  0  0  0  0  0  0  0  0  0  0
   11.0410  -14.5515   27.1444 C   0  0  0  0  0  0  0  0  0  0  0  0
   10.6867  -14.5070   28.4729 C   0  0  0  0  0  0  0  0  0  0  0  0
    9.5100  -16.9389   21.2068 C   0  0  0  0  0  0  0  0  0  0  0  0
   10.5991  -17.6674   20.4408 C   0  0  1  0  0  0  0  0  0  0  0  0
   11.4936  -16.7190   19.9486 O   0  0  0  0  0  0  0  0  0  0  0  0
   11.3305  -18.5425   21.4628 C   0  0  2  0  0  0  0  0  0  0  0  0
   11.6215  -17.7820   22.6559 N   0  0  0  0  0  0  0  0  0  0  0  0
   12.5228  -19.1471   20.9052 C   0  0  0  0  0  0  0  0  0  0  0  0
   12.5285  -20.2100   20.0714 O   0  0  0  0  0  0  0  0  0  0  0  0
   13.6518  -18.6427   21.2220 O   0  0  0  0  0  0  0  0  0  0  0  0
  2  1  1  1
  3  2  1  0
  4  2  1  0
  4  5  1  0
  5  6  1  1
  7  5  1  0
  7  8  2  0
  9 10  1  0
 10 11  2  0
 10 20  1  0
 11 12  1  0
 12 13  2  0
 13 14  1  0
 15 14  1  1
 15 16  1  0
 15 17  1  0
 16  7  1  0
 17 25  1  0
 18 17  2  0
 19 13  1  0
 20 19  2  0
 22 24  1  0
 22 21  1  1
 22 23  1  0
 24 26  1  0
 24 25  1  1
 26 28  2  0
 26 27  1  0
M  END
$$$$
