LYT.pdb
     RDKit          3D

 28 28  0  0  1  0  0  0  0  0999 V2000
    7.2859  -12.6868   18.8287 C   0  0  0  0  0  0  0  0  0  0  0  0
    8.0284  -13.9904   19.0476 C   0  0  1  0  0  0  0  0  0  0  0  0
    9.4583  -13.7877   18.6747 C   0  0  0  0  0  0  0  0  0  0  0  0
    7.8457  -14.3871   20.4917 C   0  0  0  0  0  0  0  0  0  0  0  0
    8.5359  -15.6611   20.8438 C   0  0  2  0  0  0  0  0  0  0  0  0
    7.8176  -16.7530   20.2209 N   0  0  0  0  0  0  0  0  0  0  0  0
    8.4804  -15.7828   22.3455 C   0  0  0  0  0  0  0  0  0  0  0  0
    7.4652  -16.2333   22.9150 O   0  0  0  0  0  0  0  0  0  0  0  0
   10.6983  -16.0901   30.9656 O   0  0  0  0  0  0  0  0  0  0  0  0
   10.6895  -16.0467   29.5796 C   0  0  0  0  0  0  0  0  0  0  0  0
   10.8309  -14.8493   28.9565 C   0  0  0  0  0  0  0  0  0  0  0  0
   10.8255  -14.7800   27.5925 C   0  0  0  0  0  0  0  0  0  0  0  0
   10.6816  -15.8787   26.7582 C   0  0  0  0  0  0  0  0  0  0  0  0
   10.6801  -15.8282   25.2966 C   0  0  0  0  0  0  0  0  0  0  0  0
    9.4459  -15.5162   24.6146 C   0  0  2  0  0  0  0  0  0  0  0  0
    9.5370  -15.4079   23.1772 N   0  0  0  0  0  0  0  0  0  0  0  0
    8.7696  -14.2869   25.0520 C   0  0  0  0  0  0  0  0  0  0  0  0
    9.2349  -13.1757   24.5844 O   0  0  0  0  0  0  0  0  0  0  0  0
   10.5381  -17.0977   27.4412 C   0  0  0  0  0  0  0  0  0  0  0  0
   10.5435  -17.1665   28.8151 C   0  0  0  0  0  0  0  0  0  0  0  0
    5.6939  -12.5828   24.3167 C   0  0  0  0  0  0  0  0  0  0  0  0
    5.6726  -12.7780   25.8218 C   0  0  1  0  0  0  0  0  0  0  0  0
    5.0251  -13.9812   26.0952 O   0  0  0  0  0  0  0  0  0  0  0  0
    7.1350  -12.9014   26.2591 C   0  0  2  0  0  0  0  0  0  0  0  0
    7.6462  -14.2125   25.9332 N   0  0  0  0  0  0  0  0  0  0  0  0
    7.3100  -12.5885   27.6625 C   0  0  0  0  0  0  0  0  0  0  0  0
    7.0361  -11.3905   28.2237 O   0  0  0  0  0  0  0  0  0  0  0  0
    7.7554  -13.5079   28.4279 O   0  0  0  0  0  0  0  0  0  0  0  0
  2  1  1  1
  3  2  1  0
  4  2  1  0
  4  5  1  0
  5  6  1  6
  7  5  1  0
  7  8  2  0
  9 10  1  0
 10 11  2  0
 10 20  1  0
 11 12  1  0
 12 13  2  0
 13 14  1  0
 15 14  1  1
 15 16  1  0
 15 17  1  0
 16  7  1  0
 17 25  1  0
 18 17  2  0
 19 13  1  0
 20 19  2  0
 22 24  1  0
 22 21  1  6
 22 23  1  0
 24 26  1  0
 24 25  1  1
 26 28  2  0
 26 27  1  0
M  END
$$$$
