LYT.pdb
     RDKit          3D

 28 28  0  0  1  0  0  0  0  0999 V2000
    7.3060  -11.9899   19.1043 C   0  0  0  0  0  0  0  0  0  0  0  0
    7.4050  -13.4843   19.3400 C   0  0  1  0  0  0  0  0  0  0  0  0
    7.6104  -14.1571   18.0247 C   0  0  0  0  0  0  0  0  0  0  0  0
    8.5371  -13.7233   20.3081 C   0  0  0  0  0  0  0  0  0  0  0  0
    8.6146  -15.1337   20.7861 C   0  0  2  0  0  0  0  0  0  0  0  0
    7.2652  -15.6228   20.9758 N   0  0  0  0  0  0  0  0  0  0  0  0
    9.3542  -15.1055   22.0996 C   0  0  0  0  0  0  0  0  0  0  0  0
   10.5426  -14.7283   22.1582 O   0  0  0  0  0  0  0  0  0  0  0  0
   10.9796  -15.2651   30.8716 O   0  0  0  0  0  0  0  0  0  0  0  0
   10.4196  -15.1948   29.6049 C   0  0  0  0  0  0  0  0  0  0  0  0
   10.5022  -14.0312   28.9111 C   0  0  0  0  0  0  0  0  0  0  0  0
    9.9588  -13.9365   27.6618 C   0  0  0  0  0  0  0  0  0  0  0  0
    9.3027  -14.9753   27.0179 C   0  0  0  0  0  0  0  0  0  0  0  0
    8.7200  -14.8979   25.6788 C   0  0  0  0  0  0  0  0  0  0  0  0
    9.4853  -15.3952   24.5595 C   0  0  2  0  0  0  0  0  0  0  0  0
    8.7708  -15.4908   23.3079 N   0  0  0  0  0  0  0  0  0  0  0  0
   10.1089  -16.7124   24.7493 C   0  0  0  0  0  0  0  0  0  0  0  0
    9.3241  -17.7367   24.6811 O   0  0  0  0  0  0  0  0  0  0  0  0
    9.2386  -16.1608   27.7686 C   0  0  0  0  0  0  0  0  0  0  0  0
    9.7862  -16.2551   29.0270 C   0  0  0  0  0  0  0  0  0  0  0  0
   13.6146  -19.9863   24.4504 C   0  0  0  0  0  0  0  0  0  0  0  0
   13.2034  -18.5397   24.2460 C   0  0  1  0  0  0  0  0  0  0  0  0
   12.8942  -18.3615   22.8990 O   0  0  0  0  0  0  0  0  0  0  0  0
   11.9285  -18.3356   25.0696 C   0  0  2  0  0  0  0  0  0  0  0  0
   11.4963  -16.9596   24.9906 N   0  0  0  0  0  0  0  0  0  0  0  0
   12.0932  -18.7706   26.4414 C   0  0  0  0  0  0  0  0  0  0  0  0
   11.7294  -19.9833   26.9129 O   0  0  0  0  0  0  0  0  0  0  0  0
   12.6191  -17.9523   27.2679 O   0  0  0  0  0  0  0  0  0  0  0  0
  2  1  1  6
  3  2  1  0
  4  2  1  0
  4  5  1  0
  5  6  1  1
  7  5  1  0
  7  8  2  0
  9 10  1  0
 10 11  2  0
 10 20  1  0
 11 12  1  0
 12 13  2  0
 13 14  1  0
 15 14  1  1
 15 16  1  0
 15 17  1  0
 16  7  1  0
 17 25  1  0
 18 17  2  0
 19 13  1  0
 20 19  2  0
 22 24  1  0
 22 21  1  6
 22 23  1  0
 24 26  1  0
 24 25  1  1
 26 28  2  0
 26 27  1  0
M  END
$$$$
