LYT.pdb
     RDKit          3D

 28 28  0  0  1  0  0  0  0  0999 V2000
    6.7929  -12.8445   19.0953 C   0  0  0  0  0  0  0  0  0  0  0  0
    7.9482  -13.7488   19.4776 C   0  0  1  0  0  0  0  0  0  0  0  0
    9.2144  -12.9677   19.3714 C   0  0  0  0  0  0  0  0  0  0  0  0
    7.6877  -14.2638   20.8715 C   0  0  0  0  0  0  0  0  0  0  0  0
    8.8690  -14.9417   21.4786 C   0  0  2  0  0  0  0  0  0  0  0  0
    9.2123  -16.0803   20.6528 N   0  0  0  0  0  0  0  0  0  0  0  0
    8.4483  -15.3957   22.8534 C   0  0  0  0  0  0  0  0  0  0  0  0
    7.6578  -14.7154   23.5391 O   0  0  0  0  0  0  0  0  0  0  0  0
    4.2652  -20.3654   20.9985 O   0  0  0  0  0  0  0  0  0  0  0  0
    5.1692  -19.8889   21.9359 C   0  0  0  0  0  0  0  0  0  0  0  0
    6.4921  -19.8833   21.6327 C   0  0  0  0  0  0  0  0  0  0  0  0
    7.4025  -19.4191   22.5387 C   0  0  0  0  0  0  0  0  0  0  0  0
    7.0715  -18.9328   23.7949 C   0  0  0  0  0  0  0  0  0  0  0  0
    8.0286  -18.4248   24.7771 C   0  0  0  0  0  0  0  0  0  0  0  0
    8.4145  -17.0345   24.7149 C   0  0  2  0  0  0  0  0  0  0  0  0
    8.9054  -16.5795   23.4350 N   0  0  0  0  0  0  0  0  0  0  0  0
    9.4292  -16.6109   25.6900 C   0  0  0  0  0  0  0  0  0  0  0  0
   10.6637  -16.7679   25.3420 O   0  0  0  0  0  0  0  0  0  0  0  0
    5.6942  -18.9556   24.0697 C   0  0  0  0  0  0  0  0  0  0  0  0
    4.7780  -19.4234   23.1565 C   0  0  0  0  0  0  0  0  0  0  0  0
    9.8669  -13.3516   27.6330 C   0  0  0  0  0  0  0  0  0  0  0  0
   10.0520  -14.4761   28.6354 C   0  0  1  0  0  0  0  0  0  0  0  0
    8.8573  -14.6367   29.3345 O   0  0  0  0  0  0  0  0  0  0  0  0
   10.3109  -15.7434   27.8157 C   0  0  2  0  0  0  0  0  0  0  0  0
    9.1741  -16.0363   26.9741 N   0  0  0  0  0  0  0  0  0  0  0  0
   10.6643  -16.8699   28.6549 C   0  0  0  0  0  0  0  0  0  0  0  0
   11.7272  -16.9050   29.4881 O   0  0  0  0  0  0  0  0  0  0  0  0
    9.9209  -17.9064   28.6066 O   0  0  0  0  0  0  0  0  0  0  0  0
  2  1  1  1
  3  2  1  0
  4  2  1  0
  4  5  1  0
  5  6  1  6
  7  5  1  0
  7  8  2  0
  9 10  1  0
 10 11  2  0
 10 20  1  0
 11 12  1  0
 12 13  2  0
 13 14  1  0
 15 14  1  6
 15 16  1  0
 15 17  1  0
 16  7  1  0
 17 25  1  0
 18 17  2  0
 19 13  1  0
 20 19  2  0
 22 24  1  0
 22 21  1  6
 22 23  1  0
 24 26  1  0
 24 25  1  1
 26 28  2  0
 26 27  1  0
M  END
$$$$
