LYT.pdb
     RDKit          3D

 28 28  0  0  1  0  0  0  0  0999 V2000
    7.4578  -12.2878   19.2348 C   0  0  0  0  0  0  0  0  0  0  0  0
    7.7204  -13.7809   19.2114 C   0  0  1  0  0  0  0  0  0  0  0  0
    9.1944  -14.0019   19.2654 C   0  0  0  0  0  0  0  0  0  0  0  0
    6.9884  -14.3951   20.3788 C   0  0  0  0  0  0  0  0  0  0  0  0
    7.2505  -15.8547   20.5356 C   0  0  2  0  0  0  0  0  0  0  0  0
    6.2839  -16.5773   19.7359 N   0  0  0  0  0  0  0  0  0  0  0  0
    7.0675  -16.1727   21.9979 C   0  0  0  0  0  0  0  0  0  0  0  0
    5.9278  -16.3287   22.4823 O   0  0  0  0  0  0  0  0  0  0  0  0
    8.4263  -19.3997   30.1410 O   0  0  0  0  0  0  0  0  0  0  0  0
    8.4572  -19.0470   28.8003 C   0  0  0  0  0  0  0  0  0  0  0  0
    7.3190  -19.1424   28.0670 C   0  0  0  0  0  0  0  0  0  0  0  0
    7.3234  -18.8011   26.7446 C   0  0  0  0  0  0  0  0  0  0  0  0
    8.4420  -18.3461   26.0622 C   0  0  0  0  0  0  0  0  0  0  0  0
    8.4674  -17.9688   24.6495 C   0  0  0  0  0  0  0  0  0  0  0  0
    7.9340  -16.6829   24.2653 C   0  0  2  0  0  0  0  0  0  0  0  0
    8.1368  -16.3101   22.8847 N   0  0  0  0  0  0  0  0  0  0  0  0
    8.4121  -15.5351   25.0490 C   0  0  0  0  0  0  0  0  0  0  0  0
    9.6252  -15.1501   24.8257 O   0  0  0  0  0  0  0  0  0  0  0  0
    9.5981  -18.2620   26.8556 C   0  0  0  0  0  0  0  0  0  0  0  0
    9.5927  -18.6061   28.1874 C   0  0  0  0  0  0  0  0  0  0  0  0
    7.2187  -11.9177   25.5324 C   0  0  0  0  0  0  0  0  0  0  0  0
    7.3772  -12.5473   26.9043 C   0  0  1  0  0  0  0  0  0  0  0  0
    6.1336  -13.0291   27.3081 O   0  0  0  0  0  0  0  0  0  0  0  0
    8.3252  -13.7363   26.7238 C   0  0  2  0  0  0  0  0  0  0  0  0
    7.6574  -14.8069   26.0207 N   0  0  0  0  0  0  0  0  0  0  0  0
    8.8805  -14.1839   27.9846 C   0  0  0  0  0  0  0  0  0  0  0  0
    9.6270  -13.4193   28.8111 O   0  0  0  0  0  0  0  0  0  0  0  0
    8.6507  -15.3869   28.3443 O   0  0  0  0  0  0  0  0  0  0  0  0
  2  1  1  1
  3  2  1  0
  4  2  1  0
  4  5  1  0
  5  6  1  6
  7  5  1  0
  7  8  2  0
  9 10  1  0
 10 11  2  0
 10 20  1  0
 11 12  1  0
 12 13  2  0
 13 14  1  0
 15 14  1  1
 15 16  1  0
 15 17  1  0
 16  7  1  0
 17 25  1  0
 18 17  2  0
 19 13  1  0
 20 19  2  0
 22 24  1  0
 22 21  1  6
 22 23  1  0
 24 26  1  0
 24 25  1  1
 26 28  2  0
 26 27  1  0
M  END
$$$$
