LYT.pdb
     RDKit          3D

 28 28  0  0  1  0  0  0  0  0999 V2000
    8.5877  -18.0172   16.6176 C   0  0  0  0  0  0  0  0  0  0  0  0
    8.3644  -18.7766   17.9107 C   0  0  1  0  0  0  0  0  0  0  0  0
    8.7959  -20.1900   17.7088 C   0  0  0  0  0  0  0  0  0  0  0  0
    9.1389  -18.0727   18.9973 C   0  0  0  0  0  0  0  0  0  0  0  0
    9.0039  -18.7236   20.3321 C   0  0  2  0  0  0  0  0  0  0  0  0
    7.6132  -19.0767   20.5257 N   0  0  0  0  0  0  0  0  0  0  0  0
    9.4362  -17.7049   21.3561 C   0  0  0  0  0  0  0  0  0  0  0  0
   10.6052  -17.2677   21.3715 O   0  0  0  0  0  0  0  0  0  0  0  0
    7.6082  -11.9511   18.5634 O   0  0  0  0  0  0  0  0  0  0  0  0
    7.7394  -12.6996   19.7233 C   0  0  0  0  0  0  0  0  0  0  0  0
    8.9522  -12.7704   20.3287 C   0  0  0  0  0  0  0  0  0  0  0  0
    9.1074  -13.5010   21.4720 C   0  0  0  0  0  0  0  0  0  0  0  0
    8.0847  -14.2051   22.0903 C   0  0  0  0  0  0  0  0  0  0  0  0
    8.2271  -14.9874   23.3178 C   0  0  0  0  0  0  0  0  0  0  0  0
    9.0119  -16.1992   23.2809 C   0  0  2  0  0  0  0  0  0  0  0  0
    8.5764  -17.1965   22.3312 N   0  0  0  0  0  0  0  0  0  0  0  0
    9.1407  -16.9137   24.5587 C   0  0  0  0  0  0  0  0  0  0  0  0
    8.0400  -17.2036   25.1704 O   0  0  0  0  0  0  0  0  0  0  0  0
    6.8471  -14.1065   21.4334 C   0  0  0  0  0  0  0  0  0  0  0  0
    6.6917  -13.3705   20.2817 C   0  0  0  0  0  0  0  0  0  0  0  0
    9.6738  -20.1080   25.2722 C   0  0  0  0  0  0  0  0  0  0  0  0
   10.6931  -19.5043   26.2210 C   0  0  1  0  0  0  0  0  0  0  0  0
   11.9380  -19.5296   25.5955 O   0  0  0  0  0  0  0  0  0  0  0  0
   10.2790  -18.0439   26.4231 C   0  0  2  0  0  0  0  0  0  0  0  0
   10.3646  -17.3219   25.1749 N   0  0  0  0  0  0  0  0  0  0  0  0
   11.0466  -17.4020   27.4704 C   0  0  0  0  0  0  0  0  0  0  0  0
   11.0419  -17.7777   28.7681 O   0  0  0  0  0  0  0  0  0  0  0  0
   11.7817  -16.4092   27.1486 O   0  0  0  0  0  0  0  0  0  0  0  0
  2  1  1  6
  3  2  1  0
  4  2  1  0
  4  5  1  0
  5  6  1  1
  7  5  1  0
  7  8  2  0
  9 10  1  0
 10 11  2  0
 10 20  1  0
 11 12  1  0
 12 13  2  0
 13 14  1  0
 15 14  1  1
 15 16  1  0
 15 17  1  0
 16  7  1  0
 17 25  1  0
 18 17  2  0
 19 13  1  0
 20 19  2  0
 22 24  1  0
 22 21  1  6
 22 23  1  0
 24 26  1  0
 24 25  1  6
 26 28  2  0
 26 27  1  0
M  END
$$$$
