LYT.pdb
     RDKit          3D

 28 28  0  0  1  0  0  0  0  0999 V2000
    7.3559  -11.8220   19.0658 C   0  0  0  0  0  0  0  0  0  0  0  0
    7.4600  -13.3182   19.2879 C   0  0  1  0  0  0  0  0  0  0  0  0
    7.7740  -13.9685   17.9828 C   0  0  0  0  0  0  0  0  0  0  0  0
    8.5196  -13.5552   20.3353 C   0  0  0  0  0  0  0  0  0  0  0  0
    8.6587  -14.9899   20.7174 C   0  0  2  0  0  0  0  0  0  0  0  0
    7.3323  -15.5579   20.8365 N   0  0  0  0  0  0  0  0  0  0  0  0
    9.3647  -15.0166   22.0493 C   0  0  0  0  0  0  0  0  0  0  0  0
   10.5368  -14.6026   22.1620 O   0  0  0  0  0  0  0  0  0  0  0  0
   10.9298  -15.3713   30.8142 O   0  0  0  0  0  0  0  0  0  0  0  0
   10.3814  -15.2784   29.5439 C   0  0  0  0  0  0  0  0  0  0  0  0
    9.8493  -16.3887   28.9727 C   0  0  0  0  0  0  0  0  0  0  0  0
    9.3031  -16.3234   27.7227 C   0  0  0  0  0  0  0  0  0  0  0  0
    9.2455  -15.1674   26.9582 C   0  0  0  0  0  0  0  0  0  0  0  0
    8.6595  -15.0734   25.6216 C   0  0  0  0  0  0  0  0  0  0  0  0
    9.4558  -15.4742   24.4853 C   0  0  2  0  0  0  0  0  0  0  0  0
    8.7666  -15.4953   23.2162 N   0  0  0  0  0  0  0  0  0  0  0  0
   10.1044  -16.7886   24.5939 C   0  0  0  0  0  0  0  0  0  0  0  0
    9.3309  -17.8209   24.5180 O   0  0  0  0  0  0  0  0  0  0  0  0
    9.8062  -14.0419   27.5843 C   0  0  0  0  0  0  0  0  0  0  0  0
   10.3562  -14.1088   28.8435 C   0  0  0  0  0  0  0  0  0  0  0  0
   12.0493  -18.5949   22.4142 C   0  0  0  0  0  0  0  0  0  0  0  0
   12.8843  -18.7199   23.6755 C   0  0  1  0  0  0  0  0  0  0  0  0
   13.8873  -17.7535   23.6308 O   0  0  0  0  0  0  0  0  0  0  0  0
   11.9482  -18.3969   24.8436 C   0  0  2  0  0  0  0  0  0  0  0  0
   11.5042  -17.0246   24.7646 N   0  0  0  0  0  0  0  0  0  0  0  0
   12.5562  -18.6934   26.1244 C   0  0  0  0  0  0  0  0  0  0  0  0
   12.9109  -19.9290   26.5400 O   0  0  0  0  0  0  0  0  0  0  0  0
   12.7741  -17.7202   26.9212 O   0  0  0  0  0  0  0  0  0  0  0  0
  2  1  1  6
  3  2  1  0
  4  2  1  0
  4  5  1  0
  5  6  1  1
  7  5  1  0
  7  8  2  0
  9 10  1  0
 10 11  2  0
 10 20  1  0
 11 12  1  0
 12 13  2  0
 13 14  1  0
 15 14  1  1
 15 16  1  0
 15 17  1  0
 16  7  1  0
 17 25  1  0
 18 17  2  0
 19 13  1  0
 20 19  2  0
 22 24  1  0
 22 21  1  6
 22 23  1  0
 24 26  1  0
 24 25  1  1
 26 28  2  0
 26 27  1  0
M  END
$$$$
