LYT.pdb
     RDKit          3D

 28 28  0  0  1  0  0  0  0  0999 V2000
    7.2970  -11.9027   18.9521 C   0  0  0  0  0  0  0  0  0  0  0  0
    7.4624  -13.3913   19.1875 C   0  0  1  0  0  0  0  0  0  0  0  0
    7.6677  -14.0578   17.8690 C   0  0  0  0  0  0  0  0  0  0  0  0
    8.6233  -13.5816   20.1320 C   0  0  0  0  0  0  0  0  0  0  0  0
    8.7933  -14.9942   20.5782 C   0  0  2  0  0  0  0  0  0  0  0  0
    7.4821  -15.6014   20.6704 N   0  0  0  0  0  0  0  0  0  0  0  0
    9.4470  -14.9436   21.9359 C   0  0  0  0  0  0  0  0  0  0  0  0
   10.6259  -14.5547   22.0656 O   0  0  0  0  0  0  0  0  0  0  0  0
   10.6826  -15.2676   30.7752 O   0  0  0  0  0  0  0  0  0  0  0  0
   10.1835  -15.1516   29.4865 C   0  0  0  0  0  0  0  0  0  0  0  0
    9.6452  -16.2439   28.8872 C   0  0  0  0  0  0  0  0  0  0  0  0
    9.1470  -16.1557   27.6187 C   0  0  0  0  0  0  0  0  0  0  0  0
    9.1462  -14.9930   26.8622 C   0  0  0  0  0  0  0  0  0  0  0  0
    8.6121  -14.8746   25.5059 C   0  0  0  0  0  0  0  0  0  0  0  0
    9.4466  -15.2682   24.3949 C   0  0  2  0  0  0  0  0  0  0  0  0
    8.7908  -15.3200   23.1090 N   0  0  0  0  0  0  0  0  0  0  0  0
   10.1239  -16.5649   24.5350 C   0  0  0  0  0  0  0  0  0  0  0  0
    9.3871  -17.6176   24.3982 O   0  0  0  0  0  0  0  0  0  0  0  0
    9.7115  -13.8867   27.5175 C   0  0  0  0  0  0  0  0  0  0  0  0
   10.2131  -13.9766   28.7953 C   0  0  0  0  0  0  0  0  0  0  0  0
   13.8288  -19.6492   24.2848 C   0  0  0  0  0  0  0  0  0  0  0  0
   13.3767  -18.2065   24.1506 C   0  0  1  0  0  0  0  0  0  0  0  0
   13.2212  -17.9237   22.7949 O   0  0  0  0  0  0  0  0  0  0  0  0
   12.0051  -18.1220   24.8264 C   0  0  2  0  0  0  0  0  0  0  0  0
   11.5154  -16.7635   24.7971 N   0  0  0  0  0  0  0  0  0  0  0  0
   12.0294  -18.6571   26.1722 C   0  0  0  0  0  0  0  0  0  0  0  0
   12.5899  -18.0401   27.2354 O   0  0  0  0  0  0  0  0  0  0  0  0
   11.4834  -19.7933   26.3727 O   0  0  0  0  0  0  0  0  0  0  0  0
  2  1  1  6
  3  2  1  0
  4  2  1  0
  4  5  1  0
  5  6  1  1
  7  5  1  0
  7  8  2  0
  9 10  1  0
 10 11  2  0
 10 20  1  0
 11 12  1  0
 12 13  2  0
 13 14  1  0
 15 14  1  1
 15 16  1  0
 15 17  1  0
 16  7  1  0
 17 25  1  0
 18 17  2  0
 19 13  1  0
 20 19  2  0
 22 24  1  0
 22 21  1  6
 22 23  1  0
 24 26  1  0
 24 25  1  1
 26 28  2  0
 26 27  1  0
M  END
$$$$
