QGR.pdb
     RDKit          3D

 25 24  0  0  1  0  0  0  0  0999 V2000
   28.7388  -19.9441  -21.4079 N   0  0  0  0  0  0  0  0  0  0  0  0
   29.2043  -18.9881  -20.4920 C   0  0  0  0  0  0  0  0  0  0  0  0
   29.4105  -17.8140  -20.9422 O   0  0  0  0  0  0  0  0  0  0  0  0
   29.4608  -19.2407  -19.0733 C   0  0  0  0  0  0  0  0  0  0  0  0
   29.3976  -20.6445  -18.6285 C   0  0  0  0  0  0  0  0  0  0  0  0
   28.1825  -21.0312  -17.8373 C   0  0  2  0  0  0  0  0  0  0  0  0
   27.0060  -20.4097  -18.5026 N   0  0  0  0  0  0  0  0  0  0  0  0
   28.1670  -20.6387  -16.4438 C   0  0  0  0  0  0  0  0  0  0  0  0
   28.9978  -21.0629  -15.6270 O   0  0  0  0  0  0  0  0  0  0  0  0
   27.1597  -19.7226  -15.9965 N   0  0  0  0  0  0  0  0  0  0  0  0
   27.1946  -19.3217  -14.6302 C   0  0  0  0  0  0  0  0  0  0  0  0
   26.2767  -20.0477  -13.7275 C   0  0  0  0  0  0  0  0  0  0  0  0
   25.5494  -20.9320  -14.2774 O   0  0  0  0  0  0  0  0  0  0  0  0
   20.0683  -21.1493   -8.6978 N   0  0  0  0  0  0  0  0  0  0  0  0
   20.9830  -21.9174   -7.9254 C   0  0  0  0  0  0  0  0  0  0  0  0
   20.4594  -22.7370   -7.0660 N   0  0  0  0  0  0  0  0  0  0  0  0
   22.3703  -21.7882   -8.0912 N   0  0  0  0  0  0  0  0  0  0  0  0
   22.8688  -20.9678   -9.2385 C   0  0  0  0  0  0  0  0  0  0  0  0
   24.3357  -20.9640   -9.2055 C   0  0  0  0  0  0  0  0  0  0  0  0
   25.1765  -20.2911  -10.1904 C   0  0  0  0  0  0  0  0  0  0  0  0
   25.1055  -20.6936  -11.6031 C   0  0  2  0  0  0  0  0  0  0  0  0
   26.1316  -19.8621  -12.3492 N   0  0  0  0  0  0  0  0  0  0  0  0
   23.8275  -20.2721  -12.2442 C   0  0  0  0  0  0  0  0  0  0  0  0
   23.7516  -19.0192  -12.5623 O   0  0  0  0  0  0  0  0  0  0  0  0
   22.7684  -21.0547  -12.5221 O   0  0  0  0  0  0  0  0  0  0  0  0
  2  3  2  0
  2  1  1  0
  4  2  1  0
  5  4  1  0
  6  5  1  0
  6  7  1  6
  8  9  2  0
  8  6  1  0
 10  8  1  0
 11 12  1  0
 11 10  1  0
 12 22  1  0
 13 12  2  0
 15 14  1  0
 16 15  2  0
 17 15  1  0
 18 17  1  0
 19 18  1  0
 20 19  1  0
 21 22  1  0
 21 20  1  1
 23 21  1  0
 24 23  2  0
 25 23  1  0
M  END
$$$$
