QGR.pdb
     RDKit          3D

 25 24  0  0  1  0  0  0  0  0999 V2000
   21.8737  -15.0757  -20.6729 N   0  0  0  0  0  0  0  0  0  0  0  0
   23.2123  -14.9826  -21.0841 C   0  0  0  0  0  0  0  0  0  0  0  0
   23.5485  -15.6671  -22.1049 O   0  0  0  0  0  0  0  0  0  0  0  0
   24.2342  -14.1607  -20.4341 C   0  0  0  0  0  0  0  0  0  0  0  0
   23.8102  -13.3887  -19.2522 C   0  0  0  0  0  0  0  0  0  0  0  0
   24.8601  -12.5231  -18.6191 C   0  0  2  0  0  0  0  0  0  0  0  0
   25.9807  -13.4134  -18.2133 N   0  0  0  0  0  0  0  0  0  0  0  0
   24.4537  -11.7589  -17.4586 C   0  0  0  0  0  0  0  0  0  0  0  0
   24.0986  -12.2995  -16.4007 O   0  0  0  0  0  0  0  0  0  0  0  0
   24.4696  -10.3278  -17.5350 N   0  0  0  0  0  0  0  0  0  0  0  0
   24.0547   -9.6025  -16.3815 C   0  0  0  0  0  0  0  0  0  0  0  0
   22.6480   -9.1488  -16.3837 C   0  0  0  0  0  0  0  0  0  0  0  0
   22.0888   -9.0954  -17.5230 O   0  0  0  0  0  0  0  0  0  0  0  0
   14.8497  -11.2836  -13.1211 N   0  0  0  0  0  0  0  0  0  0  0  0
   14.6941  -10.2486  -14.0844 C   0  0  0  0  0  0  0  0  0  0  0  0
   13.4905  -10.0584  -14.5310 N   0  0  0  0  0  0  0  0  0  0  0  0
   15.7865   -9.4832  -14.5198 N   0  0  0  0  0  0  0  0  0  0  0  0
   17.1609  -10.0361  -14.3123 C   0  0  0  0  0  0  0  0  0  0  0  0
   18.1311   -9.1039  -14.8975 C   0  0  0  0  0  0  0  0  0  0  0  0
   19.5735   -9.3250  -14.9148 C   0  0  0  0  0  0  0  0  0  0  0  0
   20.4587   -8.3027  -15.4931 C   0  0  2  0  0  0  0  0  0  0  0  0
   21.8822   -8.7789  -15.2738 N   0  0  0  0  0  0  0  0  0  0  0  0
   20.4267   -7.0288  -14.7199 C   0  0  0  0  0  0  0  0  0  0  0  0
   19.4270   -6.2471  -14.9770 O   0  0  0  0  0  0  0  0  0  0  0  0
   21.3175   -6.6239  -13.7957 O   0  0  0  0  0  0  0  0  0  0  0  0
  2  3  2  0
  2  1  1  0
  4  2  1  0
  5  4  1  0
  6  5  1  0
  6  7  1  1
  8  9  2  0
  8  6  1  0
 10  8  1  0
 11 12  1  0
 11 10  1  0
 12 22  1  0
 13 12  2  0
 15 14  1  0
 16 15  2  0
 17 15  1  0
 18 17  1  0
 19 18  1  0
 20 19  1  0
 21 22  1  0
 21 20  1  1
 23 21  1  0
 24 23  2  0
 25 23  1  0
M  END
$$$$
