QGR.pdb
     RDKit          3D

 25 24  0  0  1  0  0  0  0  0999 V2000
   20.9526  -21.1450  -16.1500 N   0  0  0  0  0  0  0  0  0  0  0  0
   19.6008  -20.9480  -16.4711 C   0  0  0  0  0  0  0  0  0  0  0  0
   19.3302  -20.7023  -17.6918 O   0  0  0  0  0  0  0  0  0  0  0  0
   18.4940  -21.0097  -15.5154 C   0  0  0  0  0  0  0  0  0  0  0  0
   18.8444  -21.3035  -14.1141 C   0  0  0  0  0  0  0  0  0  0  0  0
   18.5264  -22.6886  -13.6317 C   0  0  2  0  0  0  0  0  0  0  0  0
   17.0679  -22.7315  -13.3424 N   0  0  0  0  0  0  0  0  0  0  0  0
   19.2300  -23.1383  -12.4491 C   0  0  0  0  0  0  0  0  0  0  0  0
   20.4677  -23.1373  -12.3744 O   0  0  0  0  0  0  0  0  0  0  0  0
   18.4676  -23.5937  -11.3242 N   0  0  0  0  0  0  0  0  0  0  0  0
   19.1862  -24.0097  -10.1670 C   0  0  0  0  0  0  0  0  0  0  0  0
   18.3580  -24.4277   -9.0164 C   0  0  0  0  0  0  0  0  0  0  0  0
   17.1932  -23.9237   -8.9650 O   0  0  0  0  0  0  0  0  0  0  0  0
   20.0466  -31.3420   -8.7530 N   0  0  0  0  0  0  0  0  0  0  0  0
   20.4585  -29.9916   -8.9259 C   0  0  0  0  0  0  0  0  0  0  0  0
   21.6699  -29.8130   -9.3559 N   0  0  0  0  0  0  0  0  0  0  0  0
   19.5960  -28.9212   -8.6444 N   0  0  0  0  0  0  0  0  0  0  0  0
   18.1773  -29.2350   -8.2886 C   0  0  0  0  0  0  0  0  0  0  0  0
   17.4783  -27.9759   -8.0076 C   0  0  0  0  0  0  0  0  0  0  0  0
   17.7177  -27.1503   -6.8283 C   0  0  0  0  0  0  0  0  0  0  0  0
   17.6894  -25.6849   -6.9489 C   0  0  2  0  0  0  0  0  0  0  0  0
   18.7224  -25.3098   -7.9945 N   0  0  0  0  0  0  0  0  0  0  0  0
   18.2134  -25.0100   -5.7275 C   0  0  0  0  0  0  0  0  0  0  0  0
   17.4252  -25.0286   -4.7003 O   0  0  0  0  0  0  0  0  0  0  0  0
   19.4052  -24.3994   -5.5922 O   0  0  0  0  0  0  0  0  0  0  0  0
  2  3  2  0
  2  1  1  0
  4  2  1  0
  5  4  1  0
  6  5  1  0
  6  7  1  1
  8  9  2  0
  8  6  1  0
 10  8  1  0
 11 12  1  0
 11 10  1  0
 12 22  1  0
 13 12  2  0
 15 14  1  0
 16 15  2  0
 17 15  1  0
 18 17  1  0
 19 18  1  0
 20 19  1  0
 21 22  1  0
 21 20  1  1
 23 21  1  0
 24 23  2  0
 25 23  1  0
M  END
$$$$
