QGR.pdb
     RDKit          3D

 25 24  0  0  1  0  0  0  0  0999 V2000
   16.3270  -23.4661  -11.9362 N   0  0  0  0  0  0  0  0  0  0  0  0
   17.4337  -23.1717  -12.7473 C   0  0  0  0  0  0  0  0  0  0  0  0
   17.3696  -22.1050  -13.4414 O   0  0  0  0  0  0  0  0  0  0  0  0
   18.6429  -23.9905  -12.8460 C   0  0  0  0  0  0  0  0  0  0  0  0
   18.6883  -25.2074  -12.0156 C   0  0  0  0  0  0  0  0  0  0  0  0
   19.2779  -25.0482  -10.6447 C   0  0  2  0  0  0  0  0  0  0  0  0
   19.7691  -26.3857  -10.2171 N   0  0  0  0  0  0  0  0  0  0  0  0
   18.3924  -24.5471   -9.6148 C   0  0  0  0  0  0  0  0  0  0  0  0
   17.6648  -23.5586   -9.7904 O   0  0  0  0  0  0  0  0  0  0  0  0
   18.3518  -25.2226   -8.3514 N   0  0  0  0  0  0  0  0  0  0  0  0
   17.4581  -24.7181   -7.3638 C   0  0  0  0  0  0  0  0  0  0  0  0
   17.4444  -25.4509   -6.0802 C   0  0  0  0  0  0  0  0  0  0  0  0
   18.4159  -26.2470   -5.8907 O   0  0  0  0  0  0  0  0  0  0  0  0
   12.8282  -22.1559    0.0982 N   0  0  0  0  0  0  0  0  0  0  0  0
   14.0959  -21.6445   -0.2948 C   0  0  0  0  0  0  0  0  0  0  0  0
   14.4321  -20.4972    0.2102 N   0  0  0  0  0  0  0  0  0  0  0  0
   14.9276  -22.3486   -1.1788 N   0  0  0  0  0  0  0  0  0  0  0  0
   14.6008  -23.7805   -1.4631 C   0  0  0  0  0  0  0  0  0  0  0  0
   15.6295  -24.3242   -2.3570 C   0  0  0  0  0  0  0  0  0  0  0  0
   15.6480  -25.6992   -2.8456 C   0  0  0  0  0  0  0  0  0  0  0  0
   16.7020  -26.1249   -3.7788 C   0  0  2  0  0  0  0  0  0  0  0  0
   16.4840  -25.3563   -5.0683 N   0  0  0  0  0  0  0  0  0  0  0  0
   16.5271  -27.5387   -4.2176 C   0  0  0  0  0  0  0  0  0  0  0  0
   15.7436  -27.7127   -5.2337 O   0  0  0  0  0  0  0  0  0  0  0  0
   17.0976  -28.6287   -3.6720 O   0  0  0  0  0  0  0  0  0  0  0  0
  2  3  2  0
  2  1  1  0
  4  2  1  0
  5  4  1  0
  6  5  1  0
  6  7  1  1
  8  9  2  0
  8  6  1  0
 10  8  1  0
 11 12  1  0
 11 10  1  0
 12 22  1  0
 13 12  2  0
 15 14  1  0
 16 15  2  0
 17 15  1  0
 18 17  1  0
 19 18  1  0
 20 19  1  0
 21 22  1  0
 21 20  1  1
 23 21  1  0
 24 23  2  0
 25 23  1  0
M  END
$$$$
