QGR.pdb
     RDKit          3D

 25 24  0  0  1  0  0  0  0  0999 V2000
   25.0217  -18.1857  -17.3253 N   0  0  0  0  0  0  0  0  0  0  0  0
   23.9071  -18.4753  -18.1274 C   0  0  0  0  0  0  0  0  0  0  0  0
   24.1088  -18.5574  -19.3829 O   0  0  0  0  0  0  0  0  0  0  0  0
   22.5484  -18.6922  -17.6286 C   0  0  0  0  0  0  0  0  0  0  0  0
   22.3745  -18.7065  -16.1649 C   0  0  0  0  0  0  0  0  0  0  0  0
   22.3712  -20.0591  -15.5147 C   0  0  2  0  0  0  0  0  0  0  0  0
   21.1904  -20.7976  -16.0376 N   0  0  0  0  0  0  0  0  0  0  0  0
   22.3074  -20.0806  -14.0686 C   0  0  0  0  0  0  0  0  0  0  0  0
   23.0107  -19.3419  -13.3636 O   0  0  0  0  0  0  0  0  0  0  0  0
   21.3939  -20.9829  -13.4318 N   0  0  0  0  0  0  0  0  0  0  0  0
   21.3071  -20.9377  -12.0109 C   0  0  0  0  0  0  0  0  0  0  0  0
   20.2809  -21.8121  -11.4051 C   0  0  0  0  0  0  0  0  0  0  0  0
   19.4469  -22.3243  -12.2148 O   0  0  0  0  0  0  0  0  0  0  0  0
   18.4504  -26.1098   -5.2131 N   0  0  0  0  0  0  0  0  0  0  0  0
   17.1003  -26.2588   -5.6350 C   0  0  0  0  0  0  0  0  0  0  0  0
   16.2789  -26.7556   -4.7615 N   0  0  0  0  0  0  0  0  0  0  0  0
   16.6906  -25.8869   -6.9245 N   0  0  0  0  0  0  0  0  0  0  0  0
   17.7321  -25.3964   -7.8799 C   0  0  0  0  0  0  0  0  0  0  0  0
   18.1386  -24.0466   -7.4729 C   0  0  0  0  0  0  0  0  0  0  0  0
   19.1280  -23.2399   -8.1799 C   0  0  0  0  0  0  0  0  0  0  0  0
   18.9599  -22.9787   -9.6174 C   0  0  2  0  0  0  0  0  0  0  0  0
   20.1389  -22.1281  -10.0505 N   0  0  0  0  0  0  0  0  0  0  0  0
   17.8019  -22.0821   -9.8944 C   0  0  0  0  0  0  0  0  0  0  0  0
   18.0236  -20.8180   -9.7222 O   0  0  0  0  0  0  0  0  0  0  0  0
   16.5742  -22.4533  -10.3022 O   0  0  0  0  0  0  0  0  0  0  0  0
  2  3  2  0
  2  1  1  0
  4  2  1  0
  5  4  1  0
  6  5  1  0
  6  7  1  6
  8  9  2  0
  8  6  1  0
 10  8  1  0
 11 12  1  0
 11 10  1  0
 12 22  1  0
 13 12  2  0
 15 14  1  0
 16 15  2  0
 17 15  1  0
 18 17  1  0
 19 18  1  0
 20 19  1  0
 21 22  1  0
 21 20  1  1
 23 21  1  0
 24 23  2  0
 25 23  1  0
M  END
$$$$
