QGR.pdb
     RDKit          3D

 25 24  0  0  1  0  0  0  0  0999 V2000
   15.1580  -20.7557  -12.5623 N   0  0  0  0  0  0  0  0  0  0  0  0
   16.3818  -21.4369  -12.4741 C   0  0  0  0  0  0  0  0  0  0  0  0
   17.1088  -21.1830  -11.4588 O   0  0  0  0  0  0  0  0  0  0  0  0
   16.8724  -22.4101  -13.4510 C   0  0  0  0  0  0  0  0  0  0  0  0
   16.1072  -22.5334  -14.7048 C   0  0  0  0  0  0  0  0  0  0  0  0
   16.6869  -23.4484  -15.7435 C   0  0  2  0  0  0  0  0  0  0  0  0
   16.7467  -24.8105  -15.1485 N   0  0  0  0  0  0  0  0  0  0  0  0
   18.0084  -23.1159  -16.2323 C   0  0  0  0  0  0  0  0  0  0  0  0
   18.7382  -23.9500  -16.7882 O   0  0  0  0  0  0  0  0  0  0  0  0
   18.4851  -21.7736  -16.0734 N   0  0  0  0  0  0  0  0  0  0  0  0
   19.7458  -21.4502  -16.6518 C   0  0  0  0  0  0  0  0  0  0  0  0
   20.2395  -20.0828  -16.3848 C   0  0  0  0  0  0  0  0  0  0  0  0
   19.4742  -19.3482  -15.6862 O   0  0  0  0  0  0  0  0  0  0  0  0
   25.6543  -20.8666  -15.1013 N   0  0  0  0  0  0  0  0  0  0  0  0
   26.0148  -21.2785  -16.4141 C   0  0  0  0  0  0  0  0  0  0  0  0
   26.3220  -22.5314  -16.5570 N   0  0  0  0  0  0  0  0  0  0  0  0
   26.0339  -20.3736  -17.4863 N   0  0  0  0  0  0  0  0  0  0  0  0
   25.5172  -18.9899  -17.2489 C   0  0  0  0  0  0  0  0  0  0  0  0
   24.0930  -19.0770  -16.9072 C   0  0  0  0  0  0  0  0  0  0  0  0
   23.2268  -17.9207  -16.7009 C   0  0  0  0  0  0  0  0  0  0  0  0
   21.8103  -18.1247  -16.3622 C   0  0  2  0  0  0  0  0  0  0  0  0
   21.4470  -19.5256  -16.8168 N   0  0  0  0  0  0  0  0  0  0  0  0
   20.9064  -17.2770  -17.1906 C   0  0  0  0  0  0  0  0  0  0  0  0
   20.4799  -17.8229  -18.2846 O   0  0  0  0  0  0  0  0  0  0  0  0
   20.4963  -16.0255  -16.9132 O   0  0  0  0  0  0  0  0  0  0  0  0
  2  3  2  0
  2  1  1  0
  4  2  1  0
  5  4  1  0
  6  5  1  0
  6  7  1  1
  8  9  2  0
  8  6  1  0
 10  8  1  0
 11 12  1  0
 11 10  1  0
 12 22  1  0
 13 12  2  0
 15 14  1  0
 16 15  2  0
 17 15  1  0
 18 17  1  0
 19 18  1  0
 20 19  1  0
 21 22  1  0
 21 20  1  6
 23 21  1  0
 24 23  2  0
 25 23  1  0
M  END
$$$$
