QGR.pdb
     RDKit          3D

 25 24  0  0  1  0  0  0  0  0999 V2000
   26.7234  -21.8498  -14.1292 N   0  0  0  0  0  0  0  0  0  0  0  0
   26.5047  -21.3268  -15.4130 C   0  0  0  0  0  0  0  0  0  0  0  0
   27.3140  -21.6913  -16.3273 O   0  0  0  0  0  0  0  0  0  0  0  0
   25.4228  -20.4085  -15.7715 C   0  0  0  0  0  0  0  0  0  0  0  0
   24.4306  -20.1122  -14.7226 C   0  0  0  0  0  0  0  0  0  0  0  0
   23.5173  -21.2405  -14.3417 C   0  0  2  0  0  0  0  0  0  0  0  0
   22.8524  -21.7101  -15.5868 N   0  0  0  0  0  0  0  0  0  0  0  0
   22.4863  -20.9378  -13.3715 C   0  0  0  0  0  0  0  0  0  0  0  0
   22.7307  -20.3520  -12.3063 O   0  0  0  0  0  0  0  0  0  0  0  0
   21.1357  -21.3233  -13.6571 N   0  0  0  0  0  0  0  0  0  0  0  0
   20.1432  -21.0144  -12.6833 C   0  0  0  0  0  0  0  0  0  0  0  0
   19.5349  -22.1755  -12.0003 C   0  0  0  0  0  0  0  0  0  0  0  0
   19.5211  -23.2588  -12.6635 O   0  0  0  0  0  0  0  0  0  0  0  0
   17.8038  -25.2938   -4.8838 N   0  0  0  0  0  0  0  0  0  0  0  0
   17.3731  -26.3682   -5.7105 C   0  0  0  0  0  0  0  0  0  0  0  0
   16.3943  -27.0866   -5.2519 N   0  0  0  0  0  0  0  0  0  0  0  0
   17.9790  -26.6276   -6.9492 N   0  0  0  0  0  0  0  0  0  0  0  0
   18.7202  -25.5131   -7.6174 C   0  0  0  0  0  0  0  0  0  0  0  0
   17.7647  -24.4490   -7.9451 C   0  0  0  0  0  0  0  0  0  0  0  0
   18.0772  -23.2952   -8.7822 C   0  0  0  0  0  0  0  0  0  0  0  0
   18.3628  -23.4903  -10.2117 C   0  0  2  0  0  0  0  0  0  0  0  0
   18.9823  -22.2008  -10.7161 N   0  0  0  0  0  0  0  0  0  0  0  0
   17.1178  -23.5850  -11.0259 C   0  0  0  0  0  0  0  0  0  0  0  0
   16.6371  -22.4563  -11.4403 O   0  0  0  0  0  0  0  0  0  0  0  0
   16.4617  -24.7092  -11.3680 O   0  0  0  0  0  0  0  0  0  0  0  0
  2  3  2  0
  2  1  1  0
  4  2  1  0
  5  4  1  0
  6  5  1  0
  6  7  1  6
  8  9  2  0
  8  6  1  0
 10  8  1  0
 11 12  1  0
 11 10  1  0
 12 22  1  0
 13 12  2  0
 15 14  1  0
 16 15  2  0
 17 15  1  0
 18 17  1  0
 19 18  1  0
 20 19  1  0
 21 22  1  0
 21 20  1  1
 23 21  1  0
 24 23  2  0
 25 23  1  0
M  END
$$$$
