WIG.pdb
     RDKit          3D

 27 28  0  0  1  0  0  0  0  0999 V2000
   18.0375  -12.6738  -17.3228 N   0  0  0  0  0  0  0  0  0  0  0  0
   19.0227  -11.7439  -17.7852 C   0  0  1  0  0  0  0  0  0  0  0  0
   18.2522  -10.5820  -18.4290 C   0  0  0  0  0  0  0  0  0  0  0  0
   17.7056  -10.9683  -19.7514 C   0  0  0  0  0  0  0  0  0  0  0  0
   16.5047  -11.5779  -19.9967 C   0  0  0  0  0  0  0  0  0  0  0  0
   16.4114  -11.7438  -21.3272 N   0  0  0  0  0  0  0  0  0  0  0  0
   17.4947  -11.2700  -21.9467 C   0  0  0  0  0  0  0  0  0  0  0  0
   17.8394  -11.2219  -23.2866 C   0  0  0  0  0  0  0  0  0  0  0  0
   19.0540  -10.6559  -23.6053 C   0  0  0  0  0  0  0  0  0  0  0  0
   19.9191  -10.1470  -22.6573 C   0  0  0  0  0  0  0  0  0  0  0  0
   19.5503  -10.2087  -21.3376 C   0  0  0  0  0  0  0  0  0  0  0  0
   18.3276  -10.7738  -20.9661 C   0  0  0  0  0  0  0  0  0  0  0  0
   19.7453  -11.1531  -16.6312 C   0  0  0  0  0  0  0  0  0  0  0  0
   19.1341  -10.9926  -15.5513 O   0  0  0  0  0  0  0  0  0  0  0  0
   24.5887  -12.6829  -15.0802 C   0  0  0  0  0  0  0  0  0  0  0  0
   23.1522  -12.2044  -15.1188 C   0  0  0  0  0  0  0  0  0  0  0  0
   23.1864  -10.7151  -15.3624 C   0  0  2  0  0  0  0  0  0  0  0  0
   23.8241  -10.0297  -14.1868 C   0  0  0  0  0  0  0  0  0  0  0  0
   21.7949  -10.1406  -15.5708 C   0  0  2  0  0  0  0  0  0  0  0  0
   21.1046  -10.7539  -16.6778 N   0  0  0  0  0  0  0  0  0  0  0  0
   21.8414   -8.6526  -15.7108 C   0  0  0  0  0  0  0  0  0  0  0  0
   22.4285   -8.1341  -16.6946 O   0  0  0  0  0  0  0  0  0  0  0  0
   21.2166   -7.8153  -14.7234 N   0  0  0  0  0  0  0  0  0  0  0  0
   21.3377   -6.3989  -14.9004 C   0  0  0  0  0  0  0  0  0  0  0  0
   20.1875   -5.7738  -15.5408 C   0  0  0  0  0  0  0  0  0  0  0  0
   19.2659   -6.4724  -16.0108 O   0  0  0  0  0  0  0  0  0  0  0  0
   20.0995   -4.4016  -15.6373 O   0  0  0  0  0  0  0  0  0  0  0  0
  2  1  1  1
  3  2  1  0
  4  3  1  0
  4  5  2  0
  6  5  1  0
  7  6  1  0
  8  7  2  0
  9  8  1  0
 10  9  2  0
 10 11  1  0
 11 12  2  0
 12  7  1  0
 12  4  1  0
 13  2  1  0
 14 13  2  0
 16 15  1  0
 17 16  1  0
 17 18  1  1
 19 17  1  0
 19 20  1  6
 20 13  1  0
 21 19  1  0
 22 21  2  0
 23 21  1  0
 24 23  1  0
 25 24  1  0
 25 27  1  0
 26 25  2  0
M  END
$$$$
