WIG.pdb
     RDKit          3D

 27 28  0  0  1  0  0  0  0  0999 V2000
   14.1662  -22.9259   -9.7171 N   0  0  0  0  0  0  0  0  0  0  0  0
   13.6293  -21.7297   -9.1426 C   0  0  1  0  0  0  0  0  0  0  0  0
   12.5477  -21.2318  -10.1123 C   0  0  0  0  0  0  0  0  0  0  0  0
   13.1428  -20.7732  -11.3899 C   0  0  0  0  0  0  0  0  0  0  0  0
   13.1589  -21.4525  -12.5783 C   0  0  0  0  0  0  0  0  0  0  0  0
   13.7972  -20.6741  -13.4687 N   0  0  0  0  0  0  0  0  0  0  0  0
   14.1913  -19.5283  -12.9084 C   0  0  0  0  0  0  0  0  0  0  0  0
   14.8714  -18.4390  -13.4254 C   0  0  0  0  0  0  0  0  0  0  0  0
   15.1299  -17.3923  -12.5683 C   0  0  0  0  0  0  0  0  0  0  0  0
   14.7436  -17.3918  -11.2429 C   0  0  0  0  0  0  0  0  0  0  0  0
   14.0713  -18.4850  -10.7590 C   0  0  0  0  0  0  0  0  0  0  0  0
   13.7863  -19.5709  -11.5909 C   0  0  0  0  0  0  0  0  0  0  0  0
   12.9175  -22.0475   -7.8795 C   0  0  0  0  0  0  0  0  0  0  0  0
   12.2839  -23.1231   -7.7951 O   0  0  0  0  0  0  0  0  0  0  0  0
   13.3273  -24.1244   -4.6159 C   0  0  0  0  0  0  0  0  0  0  0  0
   14.1462  -22.8505   -4.6027 C   0  0  0  0  0  0  0  0  0  0  0  0
   13.1894  -21.7098   -4.3543 C   0  0  2  0  0  0  0  0  0  0  0  0
   12.3942  -21.9851   -3.1091 C   0  0  0  0  0  0  0  0  0  0  0  0
   12.2299  -21.5088   -5.5157 C   0  0  2  0  0  0  0  0  0  0  0  0
   12.9115  -21.1953   -6.7468 N   0  0  0  0  0  0  0  0  0  0  0  0
   11.1931  -20.4827   -5.1870 C   0  0  0  0  0  0  0  0  0  0  0  0
   10.4612  -20.6334   -4.1755 O   0  0  0  0  0  0  0  0  0  0  0  0
   11.0320  -19.3258   -6.0249 N   0  0  0  0  0  0  0  0  0  0  0  0
    9.9931  -18.4053   -5.6708 C   0  0  0  0  0  0  0  0  0  0  0  0
    8.6763  -18.7599   -6.1849 C   0  0  0  0  0  0  0  0  0  0  0  0
    8.5164  -19.8008   -6.8552 O   0  0  0  0  0  0  0  0  0  0  0  0
    7.5874  -17.9515   -5.9389 O   0  0  0  0  0  0  0  0  0  0  0  0
  2  1  1  6
  3  2  1  0
  4  3  1  0
  4  5  2  0
  6  5  1  0
  7  6  1  0
  8  7  2  0
  9  8  1  0
 10  9  2  0
 10 11  1  0
 11 12  2  0
 12  7  1  0
 12  4  1  0
 13  2  1  0
 14 13  2  0
 16 15  1  0
 17 16  1  0
 17 18  1  1
 19 17  1  0
 19 20  1  6
 20 13  1  0
 21 19  1  0
 22 21  2  0
 23 21  1  0
 24 23  1  0
 25 24  1  0
 25 27  1  0
 26 25  2  0
M  END
$$$$
