WIG.pdb
     RDKit          3D

 27 28  0  0  1  0  0  0  0  0999 V2000
   25.5777  -19.0254  -11.0162 N   0  0  0  0  0  0  0  0  0  0  0  0
   26.0865  -20.3405  -11.2631 C   0  0  1  0  0  0  0  0  0  0  0  0
   25.5904  -21.2204  -10.1064 C   0  0  0  0  0  0  0  0  0  0  0  0
   26.0208  -20.6769   -8.7964 C   0  0  0  0  0  0  0  0  0  0  0  0
   25.2194  -20.1236   -7.8342 C   0  0  0  0  0  0  0  0  0  0  0  0
   26.0181  -19.7640   -6.8149 N   0  0  0  0  0  0  0  0  0  0  0  0
   27.2931  -20.0601   -7.0771 C   0  0  0  0  0  0  0  0  0  0  0  0
   28.4492  -19.8791   -6.3375 C   0  0  0  0  0  0  0  0  0  0  0  0
   29.6319  -20.3025   -6.9023 C   0  0  0  0  0  0  0  0  0  0  0  0
   29.7028  -20.8873   -8.1509 C   0  0  0  0  0  0  0  0  0  0  0  0
   28.5407  -21.0535   -8.8603 C   0  0  0  0  0  0  0  0  0  0  0  0
   27.3167  -20.6396   -8.3283 C   0  0  0  0  0  0  0  0  0  0  0  0
   25.4659  -20.9039  -12.4880 C   0  0  0  0  0  0  0  0  0  0  0  0
   24.3260  -20.5130  -12.8246 O   0  0  0  0  0  0  0  0  0  0  0  0
   29.0738  -20.1685  -15.1323 C   0  0  0  0  0  0  0  0  0  0  0  0
   27.5795  -20.1920  -15.3777 C   0  0  0  0  0  0  0  0  0  0  0  0
   27.1741  -21.6397  -15.5131 C   0  0  2  0  0  0  0  0  0  0  0  0
   26.9504  -21.9636  -16.9634 C   0  0  0  0  0  0  0  0  0  0  0  0
   25.9037  -21.9497  -14.7386 C   0  0  2  0  0  0  0  0  0  0  0  0
   26.0942  -21.8713  -13.3117 N   0  0  0  0  0  0  0  0  0  0  0  0
   25.3345  -23.2717  -15.1435 C   0  0  0  0  0  0  0  0  0  0  0  0
   25.1183  -23.5151  -16.3583 O   0  0  0  0  0  0  0  0  0  0  0  0
   25.0346  -24.2636  -14.1473 N   0  0  0  0  0  0  0  0  0  0  0  0
   24.4760  -25.4999  -14.6071 C   0  0  0  0  0  0  0  0  0  0  0  0
   23.0243  -25.4913  -14.7358 C   0  0  0  0  0  0  0  0  0  0  0  0
   22.3756  -24.4448  -14.5302 O   0  0  0  0  0  0  0  0  0  0  0  0
   22.3455  -26.6385  -15.0866 O   0  0  0  0  0  0  0  0  0  0  0  0
  2  1  1  1
  3  2  1  0
  4  3  1  0
  4  5  2  0
  6  5  1  0
  7  6  1  0
  8  7  2  0
  9  8  1  0
 10  9  2  0
 10 11  1  0
 11 12  2  0
 12  7  1  0
 12  4  1  0
 13  2  1  0
 14 13  2  0
 16 15  1  0
 17 16  1  0
 17 18  1  6
 19 17  1  0
 19 20  1  1
 20 13  1  0
 21 19  1  0
 22 21  2  0
 23 21  1  0
 24 23  1  0
 25 24  1  0
 25 27  1  0
 26 25  2  0
M  END
$$$$
