WIG.pdb
     RDKit          3D

 27 28  0  0  1  0  0  0  0  0999 V2000
   27.8068  -21.6285   -9.9984 N   0  0  0  0  0  0  0  0  0  0  0  0
   26.5169  -21.2063   -9.5432 C   0  0  1  0  0  0  0  0  0  0  0  0
   26.7661  -20.1502   -8.4566 C   0  0  0  0  0  0  0  0  0  0  0  0
   28.0511  -20.3918   -7.7586 C   0  0  0  0  0  0  0  0  0  0  0  0
   29.1418  -21.0548   -8.2535 C   0  0  0  0  0  0  0  0  0  0  0  0
   30.0807  -21.0417   -7.2919 N   0  0  0  0  0  0  0  0  0  0  0  0
   29.6445  -20.4023   -6.2043 C   0  0  0  0  0  0  0  0  0  0  0  0
   30.2500  -20.1420   -4.9869 C   0  0  0  0  0  0  0  0  0  0  0  0
   29.5161  -19.4429   -4.0544 C   0  0  0  0  0  0  0  0  0  0  0  0
   28.2280  -19.0033   -4.2860 C   0  0  0  0  0  0  0  0  0  0  0  0
   27.6543  -19.2761   -5.5016 C   0  0  0  0  0  0  0  0  0  0  0  0
   28.3601  -19.9823   -6.4792 C   0  0  0  0  0  0  0  0  0  0  0  0
   25.8005  -20.4971  -10.6326 C   0  0  0  0  0  0  0  0  0  0  0  0
   26.2208  -19.3797  -11.0072 O   0  0  0  0  0  0  0  0  0  0  0  0
   26.4830  -21.7601  -15.0186 C   0  0  0  0  0  0  0  0  0  0  0  0
   25.8113  -20.6228  -14.2776 C   0  0  0  0  0  0  0  0  0  0  0  0
   24.5052  -21.1539  -13.7385 C   0  0  2  0  0  0  0  0  0  0  0  0
   23.4310  -20.9896  -14.7766 C   0  0  0  0  0  0  0  0  0  0  0  0
   24.0778  -20.4329  -12.4707 C   0  0  2  0  0  0  0  0  0  0  0  0
   24.6531  -21.0152  -11.2840 N   0  0  0  0  0  0  0  0  0  0  0  0
   22.5879  -20.3506  -12.3735 C   0  0  0  0  0  0  0  0  0  0  0  0
   21.9358  -19.7344  -13.2547 O   0  0  0  0  0  0  0  0  0  0  0  0
   21.9011  -20.9742  -11.2754 N   0  0  0  0  0  0  0  0  0  0  0  0
   20.4829  -20.7862  -11.2036 C   0  0  0  0  0  0  0  0  0  0  0  0
   19.7039  -21.8613  -11.8045 C   0  0  0  0  0  0  0  0  0  0  0  0
   20.2403  -22.6717  -12.5880 O   0  0  0  0  0  0  0  0  0  0  0  0
   18.3630  -21.9999  -11.5171 O   0  0  0  0  0  0  0  0  0  0  0  0
  2  1  1  6
  3  2  1  0
  4  3  1  0
  4  5  2  0
  6  5  1  0
  7  6  1  0
  8  7  2  0
  9  8  1  0
 10  9  2  0
 10 11  1  0
 11 12  2  0
 12  7  1  0
 12  4  1  0
 13  2  1  0
 14 13  2  0
 16 15  1  0
 17 16  1  0
 17 18  1  6
 19 17  1  0
 19 20  1  1
 20 13  1  0
 21 19  1  0
 22 21  2  0
 23 21  1  0
 24 23  1  0
 25 24  1  0
 25 27  1  0
 26 25  2  0
M  END
$$$$
