WIG.pdb
     RDKit          3D

 27 28  0  0  1  0  0  0  0  0999 V2000
   24.5729  -18.5689  -12.5464 N   0  0  0  0  0  0  0  0  0  0  0  0
   25.2380  -19.7992  -12.8518 C   0  0  1  0  0  0  0  0  0  0  0  0
   24.2389  -20.9213  -12.5343 C   0  0  0  0  0  0  0  0  0  0  0  0
   23.9117  -20.9551  -11.0891 C   0  0  0  0  0  0  0  0  0  0  0  0
   24.7374  -20.6115  -10.0526 C   0  0  0  0  0  0  0  0  0  0  0  0
   24.0406  -20.7912   -8.9175 N   0  0  0  0  0  0  0  0  0  0  0  0
   22.8080  -21.2335   -9.1763 C   0  0  0  0  0  0  0  0  0  0  0  0
   21.7524  -21.5537   -8.3399 C   0  0  0  0  0  0  0  0  0  0  0  0
   20.5882  -21.9899   -8.9326 C   0  0  0  0  0  0  0  0  0  0  0  0
   20.4409  -22.1161  -10.2996 C   0  0  0  0  0  0  0  0  0  0  0  0
   21.5042  -21.7914  -11.1029 C   0  0  0  0  0  0  0  0  0  0  0  0
   22.7057  -21.3442  -10.5470 C   0  0  0  0  0  0  0  0  0  0  0  0
   25.4915  -19.8913  -14.3113 C   0  0  0  0  0  0  0  0  0  0  0  0
   24.5738  -19.5884  -15.1061 O   0  0  0  0  0  0  0  0  0  0  0  0
   28.6563  -16.9281  -17.1621 C   0  0  0  0  0  0  0  0  0  0  0  0
   27.5037  -17.8611  -16.8540 C   0  0  0  0  0  0  0  0  0  0  0  0
   28.0924  -19.2297  -16.6119 C   0  0  2  0  0  0  0  0  0  0  0  0
   28.8338  -19.6803  -17.8391 C   0  0  0  0  0  0  0  0  0  0  0  0
   27.0240  -20.2577  -16.2780 C   0  0  2  0  0  0  0  0  0  0  0  0
   26.7269  -20.3071  -14.8682 N   0  0  0  0  0  0  0  0  0  0  0  0
   27.3897  -21.6071  -16.8084 C   0  0  0  0  0  0  0  0  0  0  0  0
   27.5218  -21.7785  -18.0472 O   0  0  0  0  0  0  0  0  0  0  0  0
   27.5901  -22.7072  -15.9051 N   0  0  0  0  0  0  0  0  0  0  0  0
   27.8268  -23.9938  -16.4887 C   0  0  0  0  0  0  0  0  0  0  0  0
   29.2311  -24.2873  -16.7449 C   0  0  0  0  0  0  0  0  0  0  0  0
   30.0896  -23.3832  -16.6826 O   0  0  0  0  0  0  0  0  0  0  0  0
   29.6329  -25.5676  -17.0599 O   0  0  0  0  0  0  0  0  0  0  0  0
  2  1  1  6
  3  2  1  0
  4  3  1  0
  4  5  2  0
  6  5  1  0
  7  6  1  0
  8  7  2  0
  9  8  1  0
 10  9  2  0
 10 11  1  0
 11 12  2  0
 12  7  1  0
 12  4  1  0
 13  2  1  0
 14 13  2  0
 16 15  1  0
 17 16  1  0
 17 18  1  6
 19 17  1  0
 19 20  1  1
 20 13  1  0
 21 19  1  0
 22 21  2  0
 23 21  1  0
 24 23  1  0
 25 24  1  0
 25 27  1  0
 26 25  2  0
M  END
$$$$
