ECI.pdb
     RDKit          3D

 24 23  0  0  1  0  0  0  0  0999 V2000
    9.9256  -19.9167   21.5944 N   0  0  0  0  0  0  0  0  0  0  0  0
    9.5031  -19.4359   22.8914 C   0  0  1  0  0  0  0  0  0  0  0  0
   10.5038  -19.9018   23.9123 C   0  0  0  0  0  0  0  0  0  0  0  0
   11.7747  -19.1108   23.8924 C   0  0  0  0  0  0  0  0  0  0  0  0
   12.7019  -19.6586   24.9033 C   0  0  0  0  0  0  0  0  0  0  0  0
   12.7230  -19.1535   26.0486 O   0  0  0  0  0  0  0  0  0  0  0  0
    9.5162  -17.9431   22.9095 C   0  0  0  0  0  0  0  0  0  0  0  0
   10.5391  -17.2885   22.5591 O   0  0  0  0  0  0  0  0  0  0  0  0
   13.5598  -20.7166   24.6437 O   0  0  0  0  0  0  0  0  0  0  0  0
    8.4037  -17.1729   23.3132 N   0  0  0  0  0  0  0  0  0  0  0  0
    8.3284  -15.7525   23.3268 C   0  0  1  0  0  0  0  0  0  0  0  0
    6.9440  -15.1938   23.2109 C   0  0  0  0  0  0  0  0  0  0  0  0
    5.8923  -15.7795   24.5688 S   0  0  0  0  0  0  0  0  0  0  0  0
    9.0699  -15.1985   24.4890 C   0  0  0  0  0  0  0  0  0  0  0  0
    9.5010  -14.0199   24.4400 O   0  0  0  0  0  0  0  0  0  0  0  0
    7.9346  -12.1973   27.2226 C   0  0  0  0  0  0  0  0  0  0  0  0
    8.7377  -13.2657   26.5496 C   0  0  0  0  0  0  0  0  0  0  0  0
    9.2111  -14.3231   27.5235 C   0  0  2  0  0  0  0  0  0  0  0  0
   10.1057  -13.7228   28.5947 C   0  0  0  0  0  0  0  0  0  0  0  0
   10.0084  -15.3927   26.8220 C   0  0  2  0  0  0  0  0  0  0  0  0
    9.3222  -15.9369   25.6691 N   0  0  0  0  0  0  0  0  0  0  0  0
   10.4357  -16.4719   27.7475 C   0  0  0  0  0  0  0  0  0  0  0  0
    9.6017  -17.2387   28.2783 O   0  0  0  0  0  0  0  0  0  0  0  0
   11.7718  -16.6723   28.0595 O   0  0  0  0  0  0  0  0  0  0  0  0
  2  1  1  6
  3  2  1  0
  4  3  1  0
  4  5  1  0
  5  6  2  0
  7  2  1  0
  8  7  2  0
  9  5  1  0
 10  7  1  0
 11 10  1  0
 11 14  1  0
 12 13  1  0
 11 12  1  1
 14 21  1  0
 15 14  2  0
 17 16  1  0
 18 20  1  0
 18 17  1  0
 18 19  1  1
 20 22  1  0
 20 21  1  6
 22 23  2  0
 22 24  1  0
M  END
$$$$
