ECI.pdb
     RDKit          3D

 24 23  0  0  1  0  0  0  0  0999 V2000
    9.8812  -18.1965   19.2064 N   0  0  0  0  0  0  0  0  0  0  0  0
    9.7716  -18.6930   20.5605 C   0  0  1  0  0  0  0  0  0  0  0  0
   11.0391  -18.3453   21.2908 C   0  0  0  0  0  0  0  0  0  0  0  0
   11.4848  -16.9357   21.0551 C   0  0  0  0  0  0  0  0  0  0  0  0
   12.6995  -16.6721   21.8530 C   0  0  0  0  0  0  0  0  0  0  0  0
   13.1371  -17.5672   22.6111 O   0  0  0  0  0  0  0  0  0  0  0  0
    8.6517  -18.0026   21.2663 C   0  0  0  0  0  0  0  0  0  0  0  0
    7.5024  -17.9120   20.7482 O   0  0  0  0  0  0  0  0  0  0  0  0
   13.3868  -15.4689   21.8036 O   0  0  0  0  0  0  0  0  0  0  0  0
    8.7982  -17.4131   22.5409 N   0  0  0  0  0  0  0  0  0  0  0  0
    7.7493  -16.8948   23.3500 C   0  0  1  0  0  0  0  0  0  0  0  0
    6.6472  -17.8633   23.6494 C   0  0  0  0  0  0  0  0  0  0  0  0
    6.6657  -18.3467   25.3984 S   0  0  0  0  0  0  0  0  0  0  0  0
    8.2970  -16.2596   24.5764 C   0  0  0  0  0  0  0  0  0  0  0  0
    9.3423  -16.7228   25.0961 O   0  0  0  0  0  0  0  0  0  0  0  0
    5.7602  -11.6250   26.9774 C   0  0  0  0  0  0  0  0  0  0  0  0
    6.3748  -12.9745   26.7756 C   0  0  0  0  0  0  0  0  0  0  0  0
    7.7647  -12.8860   26.1829 C   0  0  2  0  0  0  0  0  0  0  0  0
    7.7274  -12.3101   24.7775 C   0  0  0  0  0  0  0  0  0  0  0  0
    8.4063  -14.2469   26.0923 C   0  0  2  0  0  0  0  0  0  0  0  0
    7.6967  -15.1423   25.2031 N   0  0  0  0  0  0  0  0  0  0  0  0
    8.6021  -14.8650   27.4278 C   0  0  0  0  0  0  0  0  0  0  0  0
    8.0064  -15.9174   27.7487 O   0  0  0  0  0  0  0  0  0  0  0  0
    9.4502  -14.3024   28.3695 O   0  0  0  0  0  0  0  0  0  0  0  0
  2  1  1  6
  3  2  1  0
  4  3  1  0
  4  5  1  0
  5  6  2  0
  7  2  1  0
  8  7  2  0
  9  5  1  0
 10  7  1  0
 11 10  1  0
 11 14  1  0
 12 13  1  0
 11 12  1  1
 14 21  1  0
 15 14  2  0
 17 16  1  0
 18 20  1  0
 18 17  1  0
 18 19  1  6
 20 22  1  0
 20 21  1  6
 22 23  2  0
 22 24  1  0
M  END
$$$$
