ECI.pdb
     RDKit          3D

 24 23  0  0  1  0  0  0  0  0999 V2000
    8.3923  -19.2027   19.1987 N   0  0  0  0  0  0  0  0  0  0  0  0
    9.1707  -18.6142   20.2663 C   0  0  1  0  0  0  0  0  0  0  0  0
   10.1323  -17.6315   19.6580 C   0  0  0  0  0  0  0  0  0  0  0  0
   11.5589  -18.0780   19.7403 C   0  0  0  0  0  0  0  0  0  0  0  0
   12.1385  -18.0999   18.3819 C   0  0  0  0  0  0  0  0  0  0  0  0
   12.0628  -17.0728   17.6700 O   0  0  0  0  0  0  0  0  0  0  0  0
    8.2772  -17.8473   21.1842 C   0  0  0  0  0  0  0  0  0  0  0  0
    7.4022  -17.0510   20.7393 O   0  0  0  0  0  0  0  0  0  0  0  0
   12.7695  -19.2141   17.8501 O   0  0  0  0  0  0  0  0  0  0  0  0
    8.3479  -17.9577   22.5901 N   0  0  0  0  0  0  0  0  0  0  0  0
    7.4744  -17.3351   23.5245 C   0  0  1  0  0  0  0  0  0  0  0  0
    6.5343  -18.2664   24.2253 C   0  0  0  0  0  0  0  0  0  0  0  0
    7.4273  -19.6799   24.9308 S   0  0  0  0  0  0  0  0  0  0  0  0
    8.2391  -16.4812   24.4697 C   0  0  0  0  0  0  0  0  0  0  0  0
    9.4574  -16.7159   24.6648 O   0  0  0  0  0  0  0  0  0  0  0  0
    5.9002  -11.7367   26.0457 C   0  0  0  0  0  0  0  0  0  0  0  0
    7.0238  -12.6178   25.5978 C   0  0  0  0  0  0  0  0  0  0  0  0
    7.5501  -13.4867   26.7197 C   0  0  2  0  0  0  0  0  0  0  0  0
    8.4472  -12.6936   27.6547 C   0  0  0  0  0  0  0  0  0  0  0  0
    8.3661  -14.6348   26.1831 C   0  0  2  0  0  0  0  0  0  0  0  0
    7.6620  -15.3991   25.1751 N   0  0  0  0  0  0  0  0  0  0  0  0
    8.8729  -15.5166   27.2645 C   0  0  0  0  0  0  0  0  0  0  0  0
    8.2135  -16.5044   27.6579 O   0  0  0  0  0  0  0  0  0  0  0  0
   10.0931  -15.2813   27.8796 O   0  0  0  0  0  0  0  0  0  0  0  0
  2  1  1  6
  3  2  1  0
  4  3  1  0
  4  5  1  0
  5  6  2  0
  7  2  1  0
  8  7  2  0
  9  5  1  0
 10  7  1  0
 11 10  1  0
 11 14  1  0
 12 13  1  0
 11 12  1  1
 14 21  1  0
 15 14  2  0
 17 16  1  0
 18 20  1  0
 18 17  1  0
 18 19  1  1
 20 22  1  0
 20 21  1  6
 22 23  2  0
 22 24  1  0
M  END
$$$$
