ECI.pdb
     RDKit          3D

 24 23  0  0  1  0  0  0  0  0999 V2000
    5.5822  -18.6261   20.0246 N   0  0  0  0  0  0  0  0  0  0  0  0
    6.7399  -18.5512   20.8883 C   0  0  1  0  0  0  0  0  0  0  0  0
    7.7225  -17.5942   20.2724 C   0  0  0  0  0  0  0  0  0  0  0  0
    7.0847  -16.3309   19.7842 C   0  0  0  0  0  0  0  0  0  0  0  0
    8.0947  -15.5230   19.0709 C   0  0  0  0  0  0  0  0  0  0  0  0
    9.1858  -16.0501   18.7561 O   0  0  0  0  0  0  0  0  0  0  0  0
    6.3491  -17.9896   22.2153 C   0  0  0  0  0  0  0  0  0  0  0  0
    5.2679  -17.3533   22.3692 O   0  0  0  0  0  0  0  0  0  0  0  0
    7.8920  -14.1947   18.7287 O   0  0  0  0  0  0  0  0  0  0  0  0
    7.1485  -18.1291   23.3708 N   0  0  0  0  0  0  0  0  0  0  0  0
    6.8151  -17.6821   24.6794 C   0  0  1  0  0  0  0  0  0  0  0  0
    6.5460  -18.7735   25.6686 C   0  0  0  0  0  0  0  0  0  0  0  0
    8.0741  -19.6556   26.0929 S   0  0  0  0  0  0  0  0  0  0  0  0
    7.8186  -16.7032   25.1715 C   0  0  0  0  0  0  0  0  0  0  0  0
    8.9884  -16.7378   24.7155 O   0  0  0  0  0  0  0  0  0  0  0  0
    5.9248  -11.9314   26.5804 C   0  0  0  0  0  0  0  0  0  0  0  0
    6.9006  -12.9127   26.0111 C   0  0  0  0  0  0  0  0  0  0  0  0
    7.8430  -13.4567   27.0630 C   0  0  2  0  0  0  0  0  0  0  0  0
    8.9599  -12.4714   27.3629 C   0  0  0  0  0  0  0  0  0  0  0  0
    8.4885  -14.7397   26.6057 C   0  0  2  0  0  0  0  0  0  0  0  0
    7.5257  -15.7165   26.1422 N   0  0  0  0  0  0  0  0  0  0  0  0
    9.3807  -15.3190   27.6412 C   0  0  0  0  0  0  0  0  0  0  0  0
   10.4288  -14.7344   27.9946 O   0  0  0  0  0  0  0  0  0  0  0  0
    9.0888  -16.5272   28.2558 O   0  0  0  0  0  0  0  0  0  0  0  0
  2  1  1  6
  3  2  1  0
  4  3  1  0
  4  5  1  0
  5  6  2  0
  7  2  1  0
  8  7  2  0
  9  5  1  0
 10  7  1  0
 11 10  1  0
 11 14  1  0
 12 13  1  0
 11 12  1  1
 14 21  1  0
 15 14  2  0
 17 16  1  0
 18 20  1  0
 18 17  1  0
 18 19  1  6
 20 22  1  0
 20 21  1  1
 22 23  2  0
 22 24  1  0
M  END
$$$$
