ECI.pdb
     RDKit          3D

 24 23  0  0  1  0  0  0  0  0999 V2000
    9.4683  -15.4810   19.2603 N   0  0  0  0  0  0  0  0  0  0  0  0
    9.5666  -16.4026   20.3706 C   0  0  1  0  0  0  0  0  0  0  0  0
   10.9712  -16.9376   20.4122 C   0  0  0  0  0  0  0  0  0  0  0  0
   11.0685  -18.2817   21.0641 C   0  0  0  0  0  0  0  0  0  0  0  0
   12.3331  -18.3613   21.8232 C   0  0  0  0  0  0  0  0  0  0  0  0
   13.3828  -17.9140   21.3078 O   0  0  0  0  0  0  0  0  0  0  0  0
    9.3317  -15.6786   21.6550 C   0  0  0  0  0  0  0  0  0  0  0  0
    9.7744  -14.5098   21.8434 O   0  0  0  0  0  0  0  0  0  0  0  0
   12.4162  -18.9129   23.0925 O   0  0  0  0  0  0  0  0  0  0  0  0
    8.6100  -16.2419   22.7300 N   0  0  0  0  0  0  0  0  0  0  0  0
    8.3172  -15.6049   23.9678 C   0  0  1  0  0  0  0  0  0  0  0  0
    6.8728  -15.6281   24.3620 C   0  0  0  0  0  0  0  0  0  0  0  0
    6.5707  -14.5404   25.7829 S   0  0  0  0  0  0  0  0  0  0  0  0
    9.2084  -16.1119   25.0429 C   0  0  0  0  0  0  0  0  0  0  0  0
    9.7804  -17.2205   24.8977 O   0  0  0  0  0  0  0  0  0  0  0  0
   10.4410  -12.5044   29.0297 C   0  0  0  0  0  0  0  0  0  0  0  0
   10.6835  -13.5296   27.9669 C   0  0  0  0  0  0  0  0  0  0  0  0
   10.4165  -14.9359   28.4586 C   0  0  2  0  0  0  0  0  0  0  0  0
   11.5439  -15.4305   29.3489 C   0  0  0  0  0  0  0  0  0  0  0  0
   10.2976  -15.9024   27.3081 C   0  0  2  0  0  0  0  0  0  0  0  0
    9.4537  -15.4035   26.2428 N   0  0  0  0  0  0  0  0  0  0  0  0
    9.8588  -17.2499   27.7503 C   0  0  0  0  0  0  0  0  0  0  0  0
    8.6451  -17.5451   27.8225 O   0  0  0  0  0  0  0  0  0  0  0  0
   10.7734  -18.2317   28.0997 O   0  0  0  0  0  0  0  0  0  0  0  0
  2  1  1  6
  3  2  1  0
  4  3  1  0
  4  5  1  0
  5  6  2  0
  7  2  1  0
  8  7  2  0
  9  5  1  0
 10  7  1  0
 11 10  1  0
 11 14  1  0
 12 13  1  0
 11 12  1  1
 14 21  1  0
 15 14  2  0
 17 16  1  0
 18 20  1  0
 18 17  1  0
 18 19  1  1
 20 22  1  0
 20 21  1  6
 22 23  2  0
 22 24  1  0
M  END
$$$$
