ECI.pdb
     RDKit          3D

 24 23  0  0  1  0  0  0  0  0999 V2000
   10.3696  -16.8143   19.6031 N   0  0  0  0  0  0  0  0  0  0  0  0
   10.3054  -17.7383   20.7139 C   0  0  1  0  0  0  0  0  0  0  0  0
   11.7084  -18.0008   21.1864 C   0  0  0  0  0  0  0  0  0  0  0  0
   12.6959  -16.9953   20.6813 C   0  0  0  0  0  0  0  0  0  0  0  0
   14.0499  -17.3788   21.1301 C   0  0  0  0  0  0  0  0  0  0  0  0
   14.6198  -18.3518   20.5861 O   0  0  0  0  0  0  0  0  0  0  0  0
    9.5656  -17.1157   21.8514 C   0  0  0  0  0  0  0  0  0  0  0  0
    9.6372  -15.8755   22.0843 O   0  0  0  0  0  0  0  0  0  0  0  0
   14.7286  -16.7070   22.1354 O   0  0  0  0  0  0  0  0  0  0  0  0
    8.7481  -17.8588   22.7309 N   0  0  0  0  0  0  0  0  0  0  0  0
    7.9484  -17.3284   23.7810 C   0  0  1  0  0  0  0  0  0  0  0  0
    6.8712  -18.2432   24.2761 C   0  0  0  0  0  0  0  0  0  0  0  0
    6.0985  -17.5818   25.7790 S   0  0  0  0  0  0  0  0  0  0  0  0
    8.8022  -16.8080   24.8798 C   0  0  0  0  0  0  0  0  0  0  0  0
    9.9328  -17.3184   25.0762 O   0  0  0  0  0  0  0  0  0  0  0  0
    7.3899  -11.9338   26.7899 C   0  0  0  0  0  0  0  0  0  0  0  0
    8.3745  -12.9635   26.3319 C   0  0  0  0  0  0  0  0  0  0  0  0
    8.6870  -13.9753   27.4132 C   0  0  2  0  0  0  0  0  0  0  0  0
    9.7407  -13.4475   28.3721 C   0  0  0  0  0  0  0  0  0  0  0  0
    9.2196  -15.2563   26.8237 C   0  0  2  0  0  0  0  0  0  0  0  0
    8.4065  -15.7510   25.7328 N   0  0  0  0  0  0  0  0  0  0  0  0
    9.4259  -16.3049   27.8541 C   0  0  0  0  0  0  0  0  0  0  0  0
    8.5269  -17.1312   28.1272 O   0  0  0  0  0  0  0  0  0  0  0  0
   10.6191  -16.4100   28.5525 O   0  0  0  0  0  0  0  0  0  0  0  0
  2  1  1  6
  3  2  1  0
  4  3  1  0
  4  5  1  0
  5  6  2  0
  7  2  1  0
  8  7  2  0
  9  5  1  0
 10  7  1  0
 11 10  1  0
 11 14  1  0
 12 13  1  0
 11 12  1  1
 14 21  1  0
 15 14  2  0
 17 16  1  0
 18 20  1  0
 18 17  1  0
 18 19  1  1
 20 22  1  0
 20 21  1  6
 22 23  2  0
 22 24  1  0
M  END
$$$$
