AKH.pdb
     RDKit          3D

 25 25  0  0  1  0  0  0  0  0999 V2000
    8.1806  -16.1398   15.8643 C   0  0  0  0  0  0  0  0  0  0  0  0
    8.4120  -17.6104   16.1375 C   0  0  2  0  0  0  0  0  0  0  0  0
    7.4792  -18.3800   15.3626 N   0  0  0  0  0  0  0  0  0  0  0  0
    8.2241  -17.8436   17.5952 C   0  0  0  0  0  0  0  0  0  0  0  0
    7.0969  -17.6529   18.1019 O   0  0  0  0  0  0  0  0  0  0  0  0
    9.2897  -18.2741   18.4132 N   0  0  0  0  0  0  0  0  0  0  0  0
    9.0091  -18.5062   19.8429 C   0  0  1  0  0  0  0  0  0  0  0  0
    9.6303  -19.8511   20.2048 C   0  0  0  0  0  0  0  0  0  0  0  0
    8.7735  -20.9593   19.7185 C   0  0  0  0  0  0  0  0  0  0  0  0
    9.4514  -22.2993   20.0377 C   0  0  0  0  0  0  0  0  0  0  0  0
    8.5571  -23.4011   19.5496 C   0  0  0  0  0  0  0  0  0  0  0  0
    9.1771  -24.6835   19.8723 N   0  0  0  0  0  0  0  0  0  0  0  0
    9.6009  -17.4399   20.6506 C   0  0  0  0  0  0  0  0  0  0  0  0
   10.7552  -16.9546   20.4229 O   0  0  0  0  0  0  0  0  0  0  0  0
    8.9107  -16.8819   21.7333 N   0  0  0  0  0  0  0  0  0  0  0  0
    9.5342  -15.8844   22.5807 C   0  0  1  0  0  0  0  0  0  0  0  0
    8.5175  -14.7675   22.6785 C   0  0  0  0  0  0  0  0  0  0  0  0
    8.4462  -13.9479   21.4749 C   0  0  0  0  0  0  0  0  0  0  0  0
    9.2480  -14.1130   20.3596 C   0  0  0  0  0  0  0  0  0  0  0  0
    8.8736  -13.1716   19.4816 N   0  0  0  0  0  0  0  0  0  0  0  0
    7.8801  -12.4565   20.0376 C   0  0  0  0  0  0  0  0  0  0  0  0
    7.6050  -12.9233   21.2674 N   0  0  0  0  0  0  0  0  0  0  0  0
    9.8778  -16.3515   23.9097 C   0  0  0  0  0  0  0  0  0  0  0  0
    9.4288  -17.4689   24.2749 O   0  0  0  0  0  0  0  0  0  0  0  0
   10.6643  -15.6893   24.8453 O   0  0  0  0  0  0  0  0  0  0  0  0
  2  1  1  1
  2  4  1  0
  3  2  1  0
  4  6  1  0
  4  5  2  0
  6  7  1  0
  7 13  1  0
  7  8  1  1
  8  9  1  0
 10  9  1  0
 10 11  1  0
 11 12  1  0
 13 14  2  0
 15 13  1  0
 15 16  1  0
 16 23  1  0
 16 17  1  1
 18 17  1  0
 19 18  2  0
 20 19  1  0
 21 20  1  0
 21 22  2  0
 22 18  1  0
 23 25  1  0
 24 23  2  0
M  END
$$$$
