AKH.pdb
     RDKit          3D

 25 25  0  0  1  0  0  0  0  0999 V2000
   11.0895  -18.4642   19.7985 C   0  0  0  0  0  0  0  0  0  0  0  0
   10.7302  -18.4488   21.2687 C   0  0  2  0  0  0  0  0  0  0  0  0
    9.6132  -19.3257   21.4839 N   0  0  0  0  0  0  0  0  0  0  0  0
   10.3975  -17.0486   21.6472 C   0  0  0  0  0  0  0  0  0  0  0  0
   11.2901  -16.1745   21.5921 O   0  0  0  0  0  0  0  0  0  0  0  0
    9.0988  -16.6900   22.0655 N   0  0  0  0  0  0  0  0  0  0  0  0
    8.7978  -15.2540   22.2196 C   0  0  1  0  0  0  0  0  0  0  0  0
    7.3411  -15.0594   21.8125 C   0  0  0  0  0  0  0  0  0  0  0  0
    7.1781  -15.3016   20.3586 C   0  0  0  0  0  0  0  0  0  0  0  0
    6.3862  -16.6000   20.1485 C   0  0  0  0  0  0  0  0  0  0  0  0
    6.3210  -16.8717   18.6741 C   0  0  0  0  0  0  0  0  0  0  0  0
    5.5589  -18.0990   18.4587 N   0  0  0  0  0  0  0  0  0  0  0  0
    8.9950  -14.8457   23.6103 C   0  0  0  0  0  0  0  0  0  0  0  0
    8.7990  -13.6568   24.0201 O   0  0  0  0  0  0  0  0  0  0  0  0
    9.4109  -15.7622   24.5834 N   0  0  0  0  0  0  0  0  0  0  0  0
    9.2822  -15.4602   25.9955 C   0  0  1  0  0  0  0  0  0  0  0  0
    7.7916  -15.4548   26.2574 C   0  0  0  0  0  0  0  0  0  0  0  0
    7.2446  -14.1156   26.4387 C   0  0  0  0  0  0  0  0  0  0  0  0
    7.9847  -12.9478   26.3881 C   0  0  0  0  0  0  0  0  0  0  0  0
    7.1224  -11.9437   26.6017 N   0  0  0  0  0  0  0  0  0  0  0  0
    5.9001  -12.4758   26.7765 C   0  0  0  0  0  0  0  0  0  0  0  0
    5.9591  -13.8148   26.6788 N   0  0  0  0  0  0  0  0  0  0  0  0
    9.9308  -16.4112   26.8772 C   0  0  0  0  0  0  0  0  0  0  0  0
   10.2076  -17.5482   26.4146 O   0  0  0  0  0  0  0  0  0  0  0  0
   10.2886  -16.2032   28.2043 O   0  0  0  0  0  0  0  0  0  0  0  0
  2  1  1  6
  2  4  1  0
  3  2  1  0
  4  6  1  0
  4  5  2  0
  6  7  1  0
  7 13  1  0
  7  8  1  1
  8  9  1  0
 10  9  1  0
 10 11  1  0
 11 12  1  0
 13 14  2  0
 15 13  1  0
 15 16  1  0
 16 23  1  0
 16 17  1  1
 18 17  1  0
 19 18  2  0
 20 19  1  0
 21 20  1  0
 21 22  2  0
 22 18  1  0
 23 25  1  0
 24 23  2  0
M  END
$$$$
