AKH.pdb
     RDKit          3D

 25 25  0  0  1  0  0  0  0  0999 V2000
    7.8385  -12.3428   20.7872 C   0  0  0  0  0  0  0  0  0  0  0  0
    7.8737  -13.6854   20.0892 C   0  0  2  0  0  0  0  0  0  0  0  0
    6.6308  -13.8824   19.3968 N   0  0  0  0  0  0  0  0  0  0  0  0
    8.0887  -14.7358   21.1211 C   0  0  0  0  0  0  0  0  0  0  0  0
    7.1036  -15.1865   21.7455 O   0  0  0  0  0  0  0  0  0  0  0  0
    9.3784  -15.2309   21.4070 N   0  0  0  0  0  0  0  0  0  0  0  0
    9.4936  -16.3196   22.3959 C   0  0  1  0  0  0  0  0  0  0  0  0
   10.1566  -17.4956   21.6866 C   0  0  0  0  0  0  0  0  0  0  0  0
    9.4936  -17.7494   20.3848 C   0  0  0  0  0  0  0  0  0  0  0  0
   10.1630  -18.9509   19.7027 C   0  0  0  0  0  0  0  0  0  0  0  0
    9.5211  -19.1406   18.3596 C   0  0  0  0  0  0  0  0  0  0  0  0
   10.2071  -20.2257   17.6631 N   0  0  0  0  0  0  0  0  0  0  0  0
   10.3098  -15.8847   23.5292 C   0  0  0  0  0  0  0  0  0  0  0  0
   11.5824  -15.8976   23.5146 O   0  0  0  0  0  0  0  0  0  0  0  0
    9.7210  -15.4155   24.7094 N   0  0  0  0  0  0  0  0  0  0  0  0
    9.4309  -16.3168   25.8073 C   0  0  1  0  0  0  0  0  0  0  0  0
    8.3873  -17.2685   25.2632 C   0  0  0  0  0  0  0  0  0  0  0  0
    7.9425  -18.2541   26.2411 C   0  0  0  0  0  0  0  0  0  0  0  0
    6.6200  -18.5677   26.4994 C   0  0  0  0  0  0  0  0  0  0  0  0
    6.6338  -19.5095   27.4535 N   0  0  0  0  0  0  0  0  0  0  0  0
    7.9160  -19.7635   27.7681 C   0  0  0  0  0  0  0  0  0  0  0  0
    8.7354  -18.9969   27.0286 N   0  0  0  0  0  0  0  0  0  0  0  0
   10.5739  -17.0674   26.2897 C   0  0  0  0  0  0  0  0  0  0  0  0
   10.6952  -17.2201   27.5328 O   0  0  0  0  0  0  0  0  0  0  0  0
   11.5716  -17.6496   25.5164 O   0  0  0  0  0  0  0  0  0  0  0  0
  2  1  1  1
  2  4  1  0
  3  2  1  0
  4  6  1  0
  4  5  2  0
  6  7  1  0
  7 13  1  0
  7  8  1  6
  8  9  1  0
 10  9  1  0
 10 11  1  0
 11 12  1  0
 13 14  2  0
 15 13  1  0
 15 16  1  0
 16 23  1  0
 16 17  1  6
 18 17  1  0
 19 18  2  0
 20 19  1  0
 21 20  1  0
 21 22  2  0
 22 18  1  0
 23 25  1  0
 24 23  2  0
M  END
$$$$
