AKH.pdb
     RDKit          3D

 25 25  0  0  1  0  0  0  0  0999 V2000
    9.2961  -12.2345   19.7504 C   0  0  0  0  0  0  0  0  0  0  0  0
    8.7594  -13.4796   19.0777 C   0  0  2  0  0  0  0  0  0  0  0  0
    7.5077  -13.1651   18.4473 N   0  0  0  0  0  0  0  0  0  0  0  0
    8.5903  -14.5294   20.1187 C   0  0  0  0  0  0  0  0  0  0  0  0
    7.5327  -14.5615   20.7850 O   0  0  0  0  0  0  0  0  0  0  0  0
    9.5972  -15.4858   20.3672 N   0  0  0  0  0  0  0  0  0  0  0  0
    9.3567  -16.4766   21.4335 C   0  0  1  0  0  0  0  0  0  0  0  0
    9.8492  -17.8214   20.9095 C   0  0  0  0  0  0  0  0  0  0  0  0
    8.9035  -18.3561   19.9001 C   0  0  0  0  0  0  0  0  0  0  0  0
    9.4744  -19.6536   19.3105 C   0  0  0  0  0  0  0  0  0  0  0  0
    8.4373  -20.2481   18.4033 C   0  0  0  0  0  0  0  0  0  0  0  0
    9.0071  -21.4233   17.7495 N   0  0  0  0  0  0  0  0  0  0  0  0
   10.0915  -16.1028   22.6418 C   0  0  0  0  0  0  0  0  0  0  0  0
   11.2983  -15.6990   22.6244 O   0  0  0  0  0  0  0  0  0  0  0  0
    9.4902  -16.1642   23.9045 N   0  0  0  0  0  0  0  0  0  0  0  0
   10.2503  -15.8834   25.1067 C   0  0  1  0  0  0  0  0  0  0  0  0
    9.3019  -15.1056   25.9933 C   0  0  0  0  0  0  0  0  0  0  0  0
    9.8632  -14.7944   27.3023 C   0  0  0  0  0  0  0  0  0  0  0  0
   11.1441  -15.1225   27.7094 C   0  0  0  0  0  0  0  0  0  0  0  0
   11.2710  -14.6665   28.9637 N   0  0  0  0  0  0  0  0  0  0  0  0
   10.1119  -14.0812   29.3123 C   0  0  0  0  0  0  0  0  0  0  0  0
    9.2334  -14.1521   28.2978 N   0  0  0  0  0  0  0  0  0  0  0  0
   10.7238  -17.0600   25.8096 C   0  0  0  0  0  0  0  0  0  0  0  0
   10.0274  -18.1059   25.7414 O   0  0  0  0  0  0  0  0  0  0  0  0
   11.8852  -17.1643   26.5662 O   0  0  0  0  0  0  0  0  0  0  0  0
  2  1  1  1
  2  4  1  0
  3  2  1  0
  4  6  1  0
  4  5  2  0
  6  7  1  0
  7 13  1  0
  7  8  1  6
  8  9  1  0
 10  9  1  0
 10 11  1  0
 11 12  1  0
 13 14  2  0
 15 13  1  0
 15 16  1  0
 16 23  1  0
 16 17  1  1
 18 17  1  0
 19 18  2  0
 20 19  1  0
 21 20  1  0
 21 22  2  0
 22 18  1  0
 23 25  1  0
 24 23  2  0
M  END
$$$$
