AKH.pdb
     RDKit          3D

 25 25  0  0  1  0  0  0  0  0999 V2000
    5.3176  -20.1734   24.4241 C   0  0  0  0  0  0  0  0  0  0  0  0
    5.3189  -19.9831   22.9226 C   0  0  2  0  0  0  0  0  0  0  0  0
    5.4958  -21.2613   22.2918 N   0  0  0  0  0  0  0  0  0  0  0  0
    6.4277  -19.0529   22.5768 C   0  0  0  0  0  0  0  0  0  0  0  0
    7.6051  -19.4732   22.6015 O   0  0  0  0  0  0  0  0  0  0  0  0
    6.1765  -17.7105   22.2231 N   0  0  0  0  0  0  0  0  0  0  0  0
    7.3338  -16.8596   21.8868 C   0  0  1  0  0  0  0  0  0  0  0  0
    6.7853  -15.6189   21.1902 C   0  0  0  0  0  0  0  0  0  0  0  0
    7.8896  -14.8502   20.5668 C   0  0  0  0  0  0  0  0  0  0  0  0
    7.2987  -13.7803   19.6378 C   0  0  0  0  0  0  0  0  0  0  0  0
    8.4261  -13.1621   18.8639 C   0  0  0  0  0  0  0  0  0  0  0  0
    7.8839  -12.1085   18.0100 N   0  0  0  0  0  0  0  0  0  0  0  0
    8.0511  -16.4827   23.1046 C   0  0  0  0  0  0  0  0  0  0  0  0
    7.5184  -15.8108   24.0452 O   0  0  0  0  0  0  0  0  0  0  0  0
    9.3854  -16.8556   23.3054 N   0  0  0  0  0  0  0  0  0  0  0  0
   10.1330  -16.3648   24.4465 C   0  0  1  0  0  0  0  0  0  0  0  0
   10.3139  -17.5722   25.3410 C   0  0  0  0  0  0  0  0  0  0  0  0
    9.0986  -17.9470   26.0536 C   0  0  0  0  0  0  0  0  0  0  0  0
    7.9150  -17.2313   26.0251 C   0  0  0  0  0  0  0  0  0  0  0  0
    7.0498  -17.8997   26.8010 N   0  0  0  0  0  0  0  0  0  0  0  0
    7.6791  -18.9839   27.2867 C   0  0  0  0  0  0  0  0  0  0  0  0
    8.9439  -19.0271   26.8346 N   0  0  0  0  0  0  0  0  0  0  0  0
   11.4275  -15.7982   24.1210 C   0  0  0  0  0  0  0  0  0  0  0  0
   11.8325  -15.9001   22.9339 O   0  0  0  0  0  0  0  0  0  0  0  0
   12.2892  -15.1412   24.9916 O   0  0  0  0  0  0  0  0  0  0  0  0
  2  1  1  1
  2  4  1  0
  3  2  1  0
  4  6  1  0
  4  5  2  0
  6  7  1  0
  7 13  1  0
  7  8  1  1
  8  9  1  0
 10  9  1  0
 10 11  1  0
 11 12  1  0
 13 14  2  0
 15 13  1  0
 15 16  1  0
 16 23  1  0
 16 17  1  1
 18 17  1  0
 19 18  2  0
 20 19  1  0
 21 20  1  0
 21 22  2  0
 22 18  1  0
 23 25  1  0
 24 23  2  0
M  END
$$$$
