AKH.pdb
     RDKit          3D

 25 25  0  0  1  0  0  0  0  0999 V2000
   10.4477  -20.1845   18.4072 C   0  0  0  0  0  0  0  0  0  0  0  0
    9.8009  -18.8604   18.0616 C   0  0  2  0  0  0  0  0  0  0  0  0
   10.3104  -18.4099   16.7966 N   0  0  0  0  0  0  0  0  0  0  0  0
   10.1208  -17.8940   19.1471 C   0  0  0  0  0  0  0  0  0  0  0  0
   11.3076  -17.7687   19.5204 O   0  0  0  0  0  0  0  0  0  0  0  0
    9.1140  -17.1194   19.7606 N   0  0  0  0  0  0  0  0  0  0  0  0
    9.5278  -16.1349   20.7784 C   0  0  1  0  0  0  0  0  0  0  0  0
    8.4762  -15.0305   20.7814 C   0  0  0  0  0  0  0  0  0  0  0  0
    8.4870  -14.3083   19.4864 C   0  0  0  0  0  0  0  0  0  0  0  0
    7.3456  -13.2816   19.4710 C   0  0  0  0  0  0  0  0  0  0  0  0
    7.2692  -12.6915   18.0934 C   0  0  0  0  0  0  0  0  0  0  0  0
    6.1379  -11.7690   18.0425 N   0  0  0  0  0  0  0  0  0  0  0  0
    9.5993  -16.7714   22.0934 C   0  0  0  0  0  0  0  0  0  0  0  0
    8.6102  -17.3621   22.6343 O   0  0  0  0  0  0  0  0  0  0  0  0
   10.7857  -16.7698   22.8365 N   0  0  0  0  0  0  0  0  0  0  0  0
   10.8399  -17.3684   24.1558 C   0  0  1  0  0  0  0  0  0  0  0  0
   12.1774  -18.0748   24.2074 C   0  0  0  0  0  0  0  0  0  0  0  0
   12.2778  -19.1850   23.2678 C   0  0  0  0  0  0  0  0  0  0  0  0
   11.2297  -19.6718   22.5073 C   0  0  0  0  0  0  0  0  0  0  0  0
   11.7269  -20.6831   21.7810 N   0  0  0  0  0  0  0  0  0  0  0  0
   13.0303  -20.8113   22.0848 C   0  0  0  0  0  0  0  0  0  0  0  0
   13.3852  -19.8941   23.0006 N   0  0  0  0  0  0  0  0  0  0  0  0
   10.7427  -16.4234   25.2514 C   0  0  0  0  0  0  0  0  0  0  0  0
   10.7945  -16.8756   26.4245 O   0  0  0  0  0  0  0  0  0  0  0  0
   10.5958  -15.0450   25.1487 O   0  0  0  0  0  0  0  0  0  0  0  0
  2  1  1  1
  2  4  1  0
  3  2  1  0
  4  6  1  0
  4  5  2  0
  6  7  1  0
  7 13  1  0
  7  8  1  1
  8  9  1  0
 10  9  1  0
 10 11  1  0
 11 12  1  0
 13 14  2  0
 15 13  1  0
 15 16  1  0
 16 23  1  0
 16 17  1  1
 18 17  1  0
 19 18  2  0
 20 19  1  0
 21 20  1  0
 21 22  2  0
 22 18  1  0
 23 25  1  0
 24 23  2  0
M  END
$$$$
