AKH.pdb
     RDKit          3D

 25 25  0  0  1  0  0  0  0  0999 V2000
    5.8127  -18.8849   20.3029 C   0  0  0  0  0  0  0  0  0  0  0  0
    7.0148  -19.6795   20.7660 C   0  0  2  0  0  0  0  0  0  0  0  0
    6.8850  -21.0326   20.3019 N   0  0  0  0  0  0  0  0  0  0  0  0
    7.0610  -19.6211   22.2523 C   0  0  0  0  0  0  0  0  0  0  0  0
    7.0405  -18.5065   22.8187 O   0  0  0  0  0  0  0  0  0  0  0  0
    7.1274  -20.7953   23.0314 N   0  0  0  0  0  0  0  0  0  0  0  0
    7.0251  -20.6554   24.4965 C   0  0  1  0  0  0  0  0  0  0  0  0
    6.4841  -21.9768   25.0321 C   0  0  0  0  0  0  0  0  0  0  0  0
    5.0682  -22.1529   24.6281 C   0  0  0  0  0  0  0  0  0  0  0  0
    4.8844  -23.5546   24.0294 C   0  0  0  0  0  0  0  0  0  0  0  0
    3.4684  -23.6721   23.5464 C   0  0  0  0  0  0  0  0  0  0  0  0
    3.2943  -24.9821   22.9245 N   0  0  0  0  0  0  0  0  0  0  0  0
    8.3425  -20.3773   25.0679 C   0  0  0  0  0  0  0  0  0  0  0  0
    9.3984  -20.9922   24.7118 O   0  0  0  0  0  0  0  0  0  0  0  0
    8.5143  -19.3953   26.0507 N   0  0  0  0  0  0  0  0  0  0  0  0
    9.7983  -19.2025   26.6956 C   0  0  1  0  0  0  0  0  0  0  0  0
   10.1347  -17.7452   26.4636 C   0  0  0  0  0  0  0  0  0  0  0  0
   10.4017  -17.4324   25.0649 C   0  0  0  0  0  0  0  0  0  0  0  0
   10.3453  -18.3463   24.0277 C   0  0  0  0  0  0  0  0  0  0  0  0
   10.6531  -17.6709   22.9112 N   0  0  0  0  0  0  0  0  0  0  0  0
   10.8891  -16.3917   23.2510 C   0  0  0  0  0  0  0  0  0  0  0  0
   10.7380  -16.2288   24.5764 N   0  0  0  0  0  0  0  0  0  0  0  0
    9.8079  -19.4867   28.1175 C   0  0  0  0  0  0  0  0  0  0  0  0
   10.9163  -19.4709   28.7131 O   0  0  0  0  0  0  0  0  0  0  0  0
    8.7066  -19.7808   28.9131 O   0  0  0  0  0  0  0  0  0  0  0  0
  2  1  1  1
  2  4  1  0
  3  2  1  0
  4  6  1  0
  4  5  2  0
  6  7  1  0
  7 13  1  0
  7  8  1  1
  8  9  1  0
 10  9  1  0
 10 11  1  0
 11 12  1  0
 13 14  2  0
 15 13  1  0
 15 16  1  0
 16 23  1  0
 16 17  1  1
 18 17  1  0
 19 18  2  0
 20 19  1  0
 21 20  1  0
 21 22  2  0
 22 18  1  0
 23 25  1  0
 24 23  2  0
M  END
$$$$
