AKH.pdb
     RDKit          3D

 25 25  0  0  1  0  0  0  0  0999 V2000
    7.1811  -12.4466   19.7719 C   0  0  0  0  0  0  0  0  0  0  0  0
    8.3875  -13.2519   20.2044 C   0  0  2  0  0  0  0  0  0  0  0  0
    8.9313  -13.9267   19.0590 N   0  0  0  0  0  0  0  0  0  0  0  0
    7.9459  -14.2222   21.2427 C   0  0  0  0  0  0  0  0  0  0  0  0
    7.3054  -13.8053   22.2324 O   0  0  0  0  0  0  0  0  0  0  0  0
    8.2352  -15.5985   21.1318 N   0  0  0  0  0  0  0  0  0  0  0  0
    7.7124  -16.4977   22.1780 C   0  0  1  0  0  0  0  0  0  0  0  0
    7.9369  -17.9249   21.6897 C   0  0  0  0  0  0  0  0  0  0  0  0
    7.4409  -18.8951   22.6955 C   0  0  0  0  0  0  0  0  0  0  0  0
    7.5545  -20.3161   22.1254 C   0  0  0  0  0  0  0  0  0  0  0  0
    7.0758  -21.2775   23.1736 C   0  0  0  0  0  0  0  0  0  0  0  0
    7.2890  -22.6393   22.6906 N   0  0  0  0  0  0  0  0  0  0  0  0
    8.4251  -16.2735   23.4355 C   0  0  0  0  0  0  0  0  0  0  0  0
    9.6853  -16.1076   23.5001 O   0  0  0  0  0  0  0  0  0  0  0  0
    7.7427  -16.2214   24.6567 N   0  0  0  0  0  0  0  0  0  0  0  0
    8.4273  -15.8447   25.8779 C   0  0  1  0  0  0  0  0  0  0  0  0
    7.3676  -15.1764   26.7271 C   0  0  0  0  0  0  0  0  0  0  0  0
    7.0572  -13.8187   26.2959 C   0  0  0  0  0  0  0  0  0  0  0  0
    7.7702  -13.1108   25.3449 C   0  0  0  0  0  0  0  0  0  0  0  0
    7.1719  -11.9160   25.2354 N   0  0  0  0  0  0  0  0  0  0  0  0
    6.1318  -11.8925   26.0868 C   0  0  0  0  0  0  0  0  0  0  0  0
    6.0478  -13.0592   26.7484 N   0  0  0  0  0  0  0  0  0  0  0  0
    9.0127  -16.9526   26.6076 C   0  0  0  0  0  0  0  0  0  0  0  0
    9.6446  -16.6926   27.6642 O   0  0  0  0  0  0  0  0  0  0  0  0
    8.9526  -18.2980   26.2635 O   0  0  0  0  0  0  0  0  0  0  0  0
  2  1  1  6
  2  4  1  0
  3  2  1  0
  4  6  1  0
  4  5  2  0
  6  7  1  0
  7 13  1  0
  7  8  1  6
  8  9  1  0
 10  9  1  0
 10 11  1  0
 11 12  1  0
 13 14  2  0
 15 13  1  0
 15 16  1  0
 16 23  1  0
 16 17  1  1
 18 17  1  0
 19 18  2  0
 20 19  1  0
 21 20  1  0
 21 22  2  0
 22 18  1  0
 23 25  1  0
 24 23  2  0
M  END
$$$$
