MEL.pdb
     RDKit          3D

 26 25  0  0  1  0  0  0  0  0999 V2000
    7.6751  -11.4808   19.5408 C   0  0  0  0  0  0  0  0  0  0  0  0
    8.3196  -12.8920   20.4904 S   0  0  0  0  0  0  0  0  0  0  0  0
    6.9393  -13.6228   21.4126 C   0  0  0  0  0  0  0  0  0  0  0  0
    7.5020  -14.7333   22.2762 C   0  0  0  0  0  0  0  0  0  0  0  0
    8.0617  -15.8579   21.4095 C   0  0  2  0  0  0  0  0  0  0  0  0
    6.9068  -16.6211   20.9790 N   0  0  0  0  0  0  0  0  0  0  0  0
    8.9163  -16.6752   22.3380 C   0  0  0  0  0  0  0  0  0  0  0  0
    8.4063  -17.4079   23.2223 O   0  0  0  0  0  0  0  0  0  0  0  0
   10.3345  -16.6582   22.2611 N   0  0  0  0  0  0  0  0  0  0  0  0
   11.1088  -17.3556   23.2334 C   0  0  1  0  0  0  0  0  0  0  0  0
   12.4628  -17.7287   22.7159 C   0  0  0  0  0  0  0  0  0  0  0  0
   12.4781  -18.4419   21.4279 C   0  0  0  0  0  0  0  0  0  0  0  0
   13.7964  -18.7191   20.8343 C   0  0  0  0  0  0  0  0  0  0  0  0
   14.2910  -18.0386   19.9167 O   0  0  0  0  0  0  0  0  0  0  0  0
   11.3187  -16.5767   24.4818 C   0  0  0  0  0  0  0  0  0  0  0  0
   12.0190  -15.5407   24.5544 O   0  0  0  0  0  0  0  0  0  0  0  0
   14.5543  -19.7963   21.3065 O   0  0  0  0  0  0  0  0  0  0  0  0
   10.3075  -13.4568   28.0583 C   0  0  0  0  0  0  0  0  0  0  0  0
    9.1706  -14.5163   27.9306 C   0  0  1  0  0  0  0  0  0  0  0  0
    7.9225  -13.6941   27.6737 C   0  0  0  0  0  0  0  0  0  0  0  0
    9.5311  -15.3722   26.7838 C   0  0  0  0  0  0  0  0  0  0  0  0
   10.7057  -16.2822   26.9255 C   0  0  2  0  0  0  0  0  0  0  0  0
   10.6731  -17.0601   25.6464 N   0  0  0  0  0  0  0  0  0  0  0  0
   10.6268  -17.2847   27.9674 C   0  0  0  0  0  0  0  0  0  0  0  0
    9.8395  -18.2558   27.8864 O   0  0  0  0  0  0  0  0  0  0  0  0
   11.4185  -17.2284   29.0966 O   0  0  0  0  0  0  0  0  0  0  0  0
  2  1  1  0
  3  2  1  0
  4  3  1  0
  5  7  1  0
  5  4  1  0
  5  6  1  1
  7  9  1  0
  7  8  2  0
  9 10  1  0
 10 11  1  6
 11 12  1  0
 12 13  1  0
 13 17  1  0
 14 13  2  0
 15 10  1  0
 16 15  2  0
 19 18  1  6
 19 21  1  0
 20 19  1  0
 22 21  1  6
 22 24  1  0
 22 23  1  0
 23 15  1  0
 24 26  1  0
 25 24  2  0
M  END
$$$$
