MEL.pdb
     RDKit          3D

 26 25  0  0  1  0  0  0  0  0999 V2000
    7.3622  -12.1879   17.7062 C   0  0  0  0  0  0  0  0  0  0  0  0
    7.9303  -13.6046   18.6955 S   0  0  0  0  0  0  0  0  0  0  0  0
    6.5432  -14.1616   19.7229 C   0  0  0  0  0  0  0  0  0  0  0  0
    7.0702  -15.2211   20.6691 C   0  0  0  0  0  0  0  0  0  0  0  0
    8.4713  -14.8600   21.1547 C   0  0  2  0  0  0  0  0  0  0  0  0
    9.3735  -15.3946   20.1539 N   0  0  0  0  0  0  0  0  0  0  0  0
    8.6329  -15.5957   22.4559 C   0  0  0  0  0  0  0  0  0  0  0  0
    7.8304  -15.4260   23.4078 O   0  0  0  0  0  0  0  0  0  0  0  0
    9.6957  -16.5131   22.6711 N   0  0  0  0  0  0  0  0  0  0  0  0
    9.8655  -17.1189   23.9499 C   0  0  1  0  0  0  0  0  0  0  0  0
   10.9485  -18.1522   23.9465 C   0  0  0  0  0  0  0  0  0  0  0  0
   11.0936  -18.9268   25.1901 C   0  0  0  0  0  0  0  0  0  0  0  0
   12.1505  -19.9512   25.2186 C   0  0  0  0  0  0  0  0  0  0  0  0
   12.4061  -20.6437   26.2210 O   0  0  0  0  0  0  0  0  0  0  0  0
   10.1983  -16.1422   25.0198 C   0  0  0  0  0  0  0  0  0  0  0  0
   11.2534  -15.4680   25.0525 O   0  0  0  0  0  0  0  0  0  0  0  0
   12.9227  -20.1796   24.0743 O   0  0  0  0  0  0  0  0  0  0  0  0
    6.3296  -12.7968   26.5010 C   0  0  0  0  0  0  0  0  0  0  0  0
    7.7512  -13.3311   26.1477 C   0  0  1  0  0  0  0  0  0  0  0  0
    8.6319  -12.0969   26.1808 C   0  0  0  0  0  0  0  0  0  0  0  0
    8.0999  -14.3042   27.2009 C   0  0  0  0  0  0  0  0  0  0  0  0
    9.4360  -14.9662   27.1341 C   0  0  2  0  0  0  0  0  0  0  0  0
    9.2427  -15.9850   26.0537 N   0  0  0  0  0  0  0  0  0  0  0  0
    9.8380  -15.7331   28.2947 C   0  0  0  0  0  0  0  0  0  0  0  0
   10.4623  -15.2077   29.2453 O   0  0  0  0  0  0  0  0  0  0  0  0
    9.5478  -17.0768   28.4185 O   0  0  0  0  0  0  0  0  0  0  0  0
  2  1  1  0
  3  2  1  0
  4  3  1  0
  5  7  1  0
  5  4  1  0
  5  6  1  6
  7  9  1  0
  7  8  2  0
  9 10  1  0
 10 11  1  6
 11 12  1  0
 12 13  1  0
 13 17  1  0
 14 13  2  0
 15 10  1  0
 16 15  2  0
 19 18  1  1
 19 21  1  0
 20 19  1  0
 22 21  1  1
 22 24  1  0
 22 23  1  0
 23 15  1  0
 24 26  1  0
 25 24  2  0
M  END
$$$$
