MEL.pdb
     RDKit          3D

 26 25  0  0  1  0  0  0  0  0999 V2000
    7.4907  -12.1334   17.4335 C   0  0  0  0  0  0  0  0  0  0  0  0
    7.9361  -13.3226   18.7358 S   0  0  0  0  0  0  0  0  0  0  0  0
    6.4118  -14.1204   19.3101 C   0  0  0  0  0  0  0  0  0  0  0  0
    6.7800  -15.0419   20.4550 C   0  0  0  0  0  0  0  0  0  0  0  0
    8.1968  -14.7533   20.9436 C   0  0  2  0  0  0  0  0  0  0  0  0
    9.0723  -15.3760   19.9704 N   0  0  0  0  0  0  0  0  0  0  0  0
    8.3006  -15.4544   22.2696 C   0  0  0  0  0  0  0  0  0  0  0  0
    7.4940  -15.2132   23.2024 O   0  0  0  0  0  0  0  0  0  0  0  0
    9.3108  -16.4182   22.5307 N   0  0  0  0  0  0  0  0  0  0  0  0
    9.4127  -17.0107   23.8229 C   0  0  1  0  0  0  0  0  0  0  0  0
   10.3618  -18.1681   23.8406 C   0  0  0  0  0  0  0  0  0  0  0  0
   10.1534  -19.1788   22.7905 C   0  0  0  0  0  0  0  0  0  0  0  0
   11.3048  -20.0280   22.4438 C   0  0  0  0  0  0  0  0  0  0  0  0
   11.5371  -21.1226   22.9892 O   0  0  0  0  0  0  0  0  0  0  0  0
    9.8680  -16.0576   24.8687 C   0  0  0  0  0  0  0  0  0  0  0  0
   10.9004  -15.3543   24.7772 O   0  0  0  0  0  0  0  0  0  0  0  0
   12.2001  -19.6081   21.4539 O   0  0  0  0  0  0  0  0  0  0  0  0
    6.3603  -12.7423   26.9725 C   0  0  0  0  0  0  0  0  0  0  0  0
    7.7097  -13.3080   26.4337 C   0  0  1  0  0  0  0  0  0  0  0  0
    8.6252  -12.1001   26.3803 C   0  0  0  0  0  0  0  0  0  0  0  0
    8.1567  -14.3146   27.4158 C   0  0  0  0  0  0  0  0  0  0  0  0
    9.4349  -15.0384   27.1508 C   0  0  2  0  0  0  0  0  0  0  0  0
    9.0630  -15.9596   26.0303 N   0  0  0  0  0  0  0  0  0  0  0  0
    9.9146  -15.9123   28.2010 C   0  0  0  0  0  0  0  0  0  0  0  0
   10.4759  -15.4609   29.2260 O   0  0  0  0  0  0  0  0  0  0  0  0
    9.7714  -17.2834   28.1325 O   0  0  0  0  0  0  0  0  0  0  0  0
  2  1  1  0
  3  2  1  0
  4  3  1  0
  5  7  1  0
  5  4  1  0
  5  6  1  6
  7  9  1  0
  7  8  2  0
  9 10  1  0
 10 11  1  6
 11 12  1  0
 12 13  1  0
 13 17  1  0
 14 13  2  0
 15 10  1  0
 16 15  2  0
 19 18  1  1
 19 21  1  0
 20 19  1  0
 22 21  1  1
 22 24  1  0
 22 23  1  0
 23 15  1  0
 24 26  1  0
 25 24  2  0
M  END
$$$$
