MEL.pdb
     RDKit          3D

 26 25  0  0  1  0  0  0  0  0999 V2000
    7.6940  -11.5291   19.4565 C   0  0  0  0  0  0  0  0  0  0  0  0
    7.6088  -12.0521   21.1966 S   0  0  0  0  0  0  0  0  0  0  0  0
    6.9159  -13.7276   21.2438 C   0  0  0  0  0  0  0  0  0  0  0  0
    7.7410  -14.5912   20.3118 C   0  0  0  0  0  0  0  0  0  0  0  0
    7.3911  -16.0657   20.4934 C   0  0  2  0  0  0  0  0  0  0  0  0
    5.9434  -16.1117   20.5518 N   0  0  0  0  0  0  0  0  0  0  0  0
    7.9838  -16.4446   21.8222 C   0  0  0  0  0  0  0  0  0  0  0  0
    7.2641  -16.5924   22.8415 O   0  0  0  0  0  0  0  0  0  0  0  0
    9.3790  -16.6523   21.9886 N   0  0  0  0  0  0  0  0  0  0  0  0
    9.8771  -17.2002   23.2063 C   0  0  1  0  0  0  0  0  0  0  0  0
   11.2051  -17.8665   23.0247 C   0  0  0  0  0  0  0  0  0  0  0  0
   11.6956  -18.6348   24.1810 C   0  0  0  0  0  0  0  0  0  0  0  0
   13.0118  -19.2797   24.0437 C   0  0  0  0  0  0  0  0  0  0  0  0
   13.2767  -20.4020   24.5127 O   0  0  0  0  0  0  0  0  0  0  0  0
   10.0418  -16.1853   24.2797 C   0  0  0  0  0  0  0  0  0  0  0  0
   10.8639  -15.2414   24.2342 O   0  0  0  0  0  0  0  0  0  0  0  0
   14.0362  -18.6203   23.3554 O   0  0  0  0  0  0  0  0  0  0  0  0
    6.2146  -13.2233   26.0005 C   0  0  0  0  0  0  0  0  0  0  0  0
    7.6849  -13.6552   25.7125 C   0  0  1  0  0  0  0  0  0  0  0  0
    8.5023  -12.4114   26.0037 C   0  0  0  0  0  0  0  0  0  0  0  0
    7.9811  -14.7590   26.6461 C   0  0  0  0  0  0  0  0  0  0  0  0
    9.3309  -15.3929   26.5821 C   0  0  2  0  0  0  0  0  0  0  0  0
    9.2021  -16.3194   25.4127 N   0  0  0  0  0  0  0  0  0  0  0  0
    9.6980  -16.2491   27.6906 C   0  0  0  0  0  0  0  0  0  0  0  0
    9.4119  -17.4687   27.7015 O   0  0  0  0  0  0  0  0  0  0  0  0
   10.3880  -15.7703   28.7860 O   0  0  0  0  0  0  0  0  0  0  0  0
  2  1  1  0
  3  2  1  0
  4  3  1  0
  5  7  1  0
  5  4  1  0
  5  6  1  1
  7  9  1  0
  7  8  2  0
  9 10  1  0
 10 11  1  6
 11 12  1  0
 12 13  1  0
 13 17  1  0
 14 13  2  0
 15 10  1  0
 16 15  2  0
 19 18  1  1
 19 21  1  0
 20 19  1  0
 22 21  1  1
 22 24  1  0
 22 23  1  0
 23 15  1  0
 24 26  1  0
 25 24  2  0
M  END
$$$$
