MEL.pdb
     RDKit          3D

 26 25  0  0  1  0  0  0  0  0999 V2000
    8.5183  -11.5497   19.6925 C   0  0  0  0  0  0  0  0  0  0  0  0
    7.5575  -12.3482   18.3705 S   0  0  0  0  0  0  0  0  0  0  0  0
    8.0956  -14.0764   18.2535 C   0  0  0  0  0  0  0  0  0  0  0  0
    8.2335  -14.6099   19.6648 C   0  0  0  0  0  0  0  0  0  0  0  0
    8.7386  -16.0500   19.6488 C   0  0  2  0  0  0  0  0  0  0  0  0
    7.7102  -16.8094   18.9652 N   0  0  0  0  0  0  0  0  0  0  0  0
    8.8148  -16.4510   21.0958 C   0  0  0  0  0  0  0  0  0  0  0  0
    7.7937  -16.4562   21.8281 O   0  0  0  0  0  0  0  0  0  0  0  0
   10.0387  -16.8409   21.7019 N   0  0  0  0  0  0  0  0  0  0  0  0
   10.0792  -17.1442   23.0939 C   0  0  1  0  0  0  0  0  0  0  0  0
   11.2290  -18.0358   23.4449 C   0  0  0  0  0  0  0  0  0  0  0  0
   11.4127  -19.2102   22.5760 C   0  0  0  0  0  0  0  0  0  0  0  0
   12.6388  -20.0007   22.7730 C   0  0  0  0  0  0  0  0  0  0  0  0
   13.1294  -20.7339   21.8947 O   0  0  0  0  0  0  0  0  0  0  0  0
   10.1868  -15.9356   23.9526 C   0  0  0  0  0  0  0  0  0  0  0  0
   11.0338  -15.0281   23.7855 O   0  0  0  0  0  0  0  0  0  0  0  0
   13.3080  -19.9439   24.0006 O   0  0  0  0  0  0  0  0  0  0  0  0
    6.2367  -12.2767   25.7428 C   0  0  0  0  0  0  0  0  0  0  0  0
    7.5823  -12.7719   26.3556 C   0  0  1  0  0  0  0  0  0  0  0  0
    7.2441  -13.0723   27.8032 C   0  0  0  0  0  0  0  0  0  0  0  0
    7.9597  -13.9816   25.5994 C   0  0  0  0  0  0  0  0  0  0  0  0
    9.2589  -14.6399   25.9260 C   0  0  2  0  0  0  0  0  0  0  0  0
    9.2594  -15.8309   25.0183 N   0  0  0  0  0  0  0  0  0  0  0  0
    9.3885  -15.1930   27.2579 C   0  0  0  0  0  0  0  0  0  0  0  0
   10.0230  -14.5961   28.1582 O   0  0  0  0  0  0  0  0  0  0  0  0
    8.8143  -16.3985   27.6072 O   0  0  0  0  0  0  0  0  0  0  0  0
  2  1  1  0
  3  2  1  0
  4  3  1  0
  5  7  1  0
  5  4  1  0
  5  6  1  6
  7  9  1  0
  7  8  2  0
  9 10  1  0
 10 11  1  6
 11 12  1  0
 12 13  1  0
 13 17  1  0
 14 13  2  0
 15 10  1  0
 16 15  2  0
 19 18  1  6
 19 21  1  0
 20 19  1  0
 22 21  1  1
 22 24  1  0
 22 23  1  0
 23 15  1  0
 24 26  1  0
 25 24  2  0
M  END
$$$$
