AHK.pdb
     RDKit          3D

 25 25  0  0  1  0  0  0  0  0999 V2000
    9.2151  -17.5304   17.4590 C   0  0  0  0  0  0  0  0  0  0  0  0
    9.5302  -18.0474   18.8268 C   0  0  2  0  0  0  0  0  0  0  0  0
    8.2969  -18.5005   19.4399 N   0  0  0  0  0  0  0  0  0  0  0  0
   10.0671  -16.9319   19.6586 C   0  0  0  0  0  0  0  0  0  0  0  0
   11.1671  -16.3745   19.3487 O   0  0  0  0  0  0  0  0  0  0  0  0
    9.3119  -16.5390   20.7737 N   0  0  0  0  0  0  0  0  0  0  0  0
    9.7234  -15.3642   21.5694 C   0  0  1  0  0  0  0  0  0  0  0  0
    8.5635  -14.4412   21.7373 C   0  0  0  0  0  0  0  0  0  0  0  0
    8.0513  -13.7912   20.5407 C   0  0  0  0  0  0  0  0  0  0  0  0
    8.4492  -12.7470   19.7621 C   0  0  0  0  0  0  0  0  0  0  0  0
    7.6001  -12.6094   18.7099 N   0  0  0  0  0  0  0  0  0  0  0  0
    6.6824  -13.5519   18.8222 C   0  0  0  0  0  0  0  0  0  0  0  0
    6.9280  -14.2797   19.9151 N   0  0  0  0  0  0  0  0  0  0  0  0
   10.1447  -15.9574   22.8869 C   0  0  0  0  0  0  0  0  0  0  0  0
    9.4217  -15.8271   23.9020 O   0  0  0  0  0  0  0  0  0  0  0  0
   11.3627  -16.6659   22.9840 N   0  0  0  0  0  0  0  0  0  0  0  0
   11.7798  -17.3075   24.2503 C   0  0  1  0  0  0  0  0  0  0  0  0
   11.8833  -18.7938   24.0591 C   0  0  0  0  0  0  0  0  0  0  0  0
   10.5279  -19.4312   24.0066 C   0  0  0  0  0  0  0  0  0  0  0  0
   10.6115  -20.9167   23.8975 C   0  0  0  0  0  0  0  0  0  0  0  0
    9.2378  -21.5687   23.9034 C   0  0  0  0  0  0  0  0  0  0  0  0
    9.4364  -23.0091   23.8802 N   0  0  0  0  0  0  0  0  0  0  0  0
   13.0120  -16.6715   24.7585 C   0  0  0  0  0  0  0  0  0  0  0  0
   13.6214  -15.6997   23.9758 O   0  0  0  0  0  0  0  0  0  0  0  0
   13.5715  -16.9289   25.8486 O   0  0  0  0  0  0  0  0  0  0  0  0
  2  4  1  0
  2  1  1  6
  3  2  1  0
  4  5  2  0
  6  7  1  0
  6  4  1  0
  7  8  1  1
  9  8  1  0
 10  9  2  0
 11 12  1  0
 11 10  1  0
 12 13  2  0
 13  9  1  0
 14 15  2  0
 14  7  1  0
 16 14  1  0
 17 16  1  0
 17 23  1  0
 17 18  1  6
 19 20  1  0
 19 18  1  0
 21 20  1  0
 22 21  1  0
 23 25  2  0
 23 24  1  0
M  END
$$$$
