AHK.pdb
     RDKit          3D

 25 25  0  0  1  0  0  0  0  0999 V2000
    8.0234  -19.8582   20.0548 C   0  0  0  0  0  0  0  0  0  0  0  0
    8.0755  -18.6228   19.2130 C   0  0  2  0  0  0  0  0  0  0  0  0
    8.8350  -18.9182   18.0137 N   0  0  0  0  0  0  0  0  0  0  0  0
    8.8018  -17.5545   19.9582 C   0  0  0  0  0  0  0  0  0  0  0  0
   10.0384  -17.3514   19.7427 O   0  0  0  0  0  0  0  0  0  0  0  0
    8.0660  -16.8030   20.8866 N   0  0  0  0  0  0  0  0  0  0  0  0
    8.6985  -15.6650   21.5849 C   0  0  1  0  0  0  0  0  0  0  0  0
    7.8146  -14.4667   21.4933 C   0  0  0  0  0  0  0  0  0  0  0  0
    7.7813  -13.7596   20.2222 C   0  0  0  0  0  0  0  0  0  0  0  0
    8.3366  -12.6140   19.7383 C   0  0  0  0  0  0  0  0  0  0  0  0
    8.0047  -12.4605   18.4293 N   0  0  0  0  0  0  0  0  0  0  0  0
    7.2537  -13.4928   18.0927 C   0  0  0  0  0  0  0  0  0  0  0  0
    7.1018  -14.2927   19.1517 N   0  0  0  0  0  0  0  0  0  0  0  0
    8.8227  -16.1449   23.0060 C   0  0  0  0  0  0  0  0  0  0  0  0
    7.8571  -16.7072   23.5729 O   0  0  0  0  0  0  0  0  0  0  0  0
   10.0339  -15.9613   23.7089 N   0  0  0  0  0  0  0  0  0  0  0  0
   10.5885  -17.0249   24.5752 C   0  0  1  0  0  0  0  0  0  0  0  0
   10.7395  -18.2960   23.7892 C   0  0  0  0  0  0  0  0  0  0  0  0
   11.1959  -19.4249   24.6629 C   0  0  0  0  0  0  0  0  0  0  0  0
   11.3523  -20.6965   23.8986 C   0  0  0  0  0  0  0  0  0  0  0  0
   11.8464  -21.8348   24.7776 C   0  0  0  0  0  0  0  0  0  0  0  0
   11.9557  -23.0190   23.9406 N   0  0  0  0  0  0  0  0  0  0  0  0
   11.8318  -16.5560   25.2198 C   0  0  0  0  0  0  0  0  0  0  0  0
   12.1030  -16.9818   26.5134 O   0  0  0  0  0  0  0  0  0  0  0  0
   12.6822  -15.7965   24.7022 O   0  0  0  0  0  0  0  0  0  0  0  0
  2  4  1  0
  2  1  1  1
  3  2  1  0
  4  5  2  0
  6  7  1  0
  6  4  1  0
  7  8  1  1
  9  8  1  0
 10  9  2  0
 11 12  1  0
 11 10  1  0
 12 13  2  0
 13  9  1  0
 14 15  2  0
 14  7  1  0
 16 14  1  0
 17 16  1  0
 17 23  1  0
 17 18  1  6
 19 20  1  0
 19 18  1  0
 21 20  1  0
 22 21  1  0
 23 25  2  0
 23 24  1  0
M  END
$$$$
