AHK.pdb
     RDKit          3D

 25 25  0  0  1  0  0  0  0  0999 V2000
    7.2948  -14.7734   19.4605 C   0  0  0  0  0  0  0  0  0  0  0  0
    7.5260  -13.5226   20.2476 C   0  0  2  0  0  0  0  0  0  0  0  0
    8.4344  -12.6739   19.5014 N   0  0  0  0  0  0  0  0  0  0  0  0
    8.1884  -13.8726   21.5371 C   0  0  0  0  0  0  0  0  0  0  0  0
    9.4453  -13.7331   21.6696 O   0  0  0  0  0  0  0  0  0  0  0  0
    7.3709  -14.3516   22.5717 N   0  0  0  0  0  0  0  0  0  0  0  0
    7.9709  -14.7708   23.8551 C   0  0  1  0  0  0  0  0  0  0  0  0
    6.9757  -14.6000   24.9533 C   0  0  0  0  0  0  0  0  0  0  0  0
    6.8480  -13.2728   25.5355 C   0  0  0  0  0  0  0  0  0  0  0  0
    7.4800  -12.0782   25.3671 C   0  0  0  0  0  0  0  0  0  0  0  0
    6.8967  -11.1354   26.1532 N   0  0  0  0  0  0  0  0  0  0  0  0
    5.9122  -11.7252   26.8058 C   0  0  0  0  0  0  0  0  0  0  0  0
    5.8580  -13.0128   26.4543 N   0  0  0  0  0  0  0  0  0  0  0  0
    8.2989  -16.2233   23.6362 C   0  0  0  0  0  0  0  0  0  0  0  0
    7.8117  -16.8445   22.6631 O   0  0  0  0  0  0  0  0  0  0  0  0
    9.1605  -16.8944   24.5317 N   0  0  0  0  0  0  0  0  0  0  0  0
   10.0836  -17.9516   24.0635 C   0  0  1  0  0  0  0  0  0  0  0  0
   10.9822  -17.4056   22.9907 C   0  0  0  0  0  0  0  0  0  0  0  0
   11.9240  -18.4554   22.4835 C   0  0  0  0  0  0  0  0  0  0  0  0
   12.7934  -17.9438   21.3845 C   0  0  0  0  0  0  0  0  0  0  0  0
   13.6665  -19.0377   20.7899 C   0  0  0  0  0  0  0  0  0  0  0  0
   14.5124  -18.4225   19.7796 N   0  0  0  0  0  0  0  0  0  0  0  0
   10.7974  -18.5458   25.2118 C   0  0  0  0  0  0  0  0  0  0  0  0
   11.1734  -17.7110   26.2559 O   0  0  0  0  0  0  0  0  0  0  0  0
   11.1023  -19.7537   25.3374 O   0  0  0  0  0  0  0  0  0  0  0  0
  2  4  1  0
  2  1  1  6
  3  2  1  0
  4  5  2  0
  6  7  1  0
  6  4  1  0
  7  8  1  1
  9  8  1  0
 10  9  2  0
 11 12  1  0
 11 10  1  0
 12 13  2  0
 13  9  1  0
 14 15  2  0
 14  7  1  0
 16 14  1  0
 17 16  1  0
 17 23  1  0
 17 18  1  6
 19 20  1  0
 19 18  1  0
 21 20  1  0
 22 21  1  0
 23 25  2  0
 23 24  1  0
M  END
$$$$
