AHK.pdb
     RDKit          3D

 25 25  0  0  1  0  0  0  0  0999 V2000
    8.6191  -12.3611   19.2008 C   0  0  0  0  0  0  0  0  0  0  0  0
    8.7150  -13.7725   18.7147 C   0  0  2  0  0  0  0  0  0  0  0  0
    7.7212  -13.9675   17.6771 N   0  0  0  0  0  0  0  0  0  0  0  0
    8.3870  -14.6986   19.8367 C   0  0  0  0  0  0  0  0  0  0  0  0
    7.1808  -15.0358   20.0565 O   0  0  0  0  0  0  0  0  0  0  0  0
    9.4541  -15.1676   20.6174 N   0  0  0  0  0  0  0  0  0  0  0  0
    9.2145  -16.1802   21.6663 C   0  0  1  0  0  0  0  0  0  0  0  0
   10.2045  -17.2877   21.5292 C   0  0  0  0  0  0  0  0  0  0  0  0
    9.8960  -18.3421   20.5753 C   0  0  0  0  0  0  0  0  0  0  0  0
    8.8358  -18.6417   19.7747 C   0  0  0  0  0  0  0  0  0  0  0  0
    9.1205  -19.7415   19.0286 N   0  0  0  0  0  0  0  0  0  0  0  0
   10.3405  -20.1284   19.3522 C   0  0  0  0  0  0  0  0  0  0  0  0
   10.8334  -19.3048   20.2812 N   0  0  0  0  0  0  0  0  0  0  0  0
    9.4203  -15.4191   22.9483 C   0  0  0  0  0  0  0  0  0  0  0  0
   10.4785  -14.7769   23.1426 O   0  0  0  0  0  0  0  0  0  0  0  0
    8.4165  -15.4269   23.9419 N   0  0  0  0  0  0  0  0  0  0  0  0
    8.4806  -14.5165   25.1064 C   0  0  1  0  0  0  0  0  0  0  0  0
    7.1724  -13.7949   25.2623 C   0  0  0  0  0  0  0  0  0  0  0  0
    7.1620  -12.9486   26.4992 C   0  0  0  0  0  0  0  0  0  0  0  0
    5.8477  -12.2734   26.7046 C   0  0  0  0  0  0  0  0  0  0  0  0
    5.8315  -11.4256   27.9669 C   0  0  0  0  0  0  0  0  0  0  0  0
    4.5045  -10.8430   28.0865 N   0  0  0  0  0  0  0  0  0  0  0  0
    8.9131  -15.2597   26.3071 C   0  0  0  0  0  0  0  0  0  0  0  0
    8.9202  -16.6474   26.2546 O   0  0  0  0  0  0  0  0  0  0  0  0
    9.2814  -14.7494   27.3895 O   0  0  0  0  0  0  0  0  0  0  0  0
  2  4  1  0
  2  1  1  1
  3  2  1  0
  4  5  2  0
  6  7  1  0
  6  4  1  0
  7  8  1  6
  9  8  1  0
 10  9  2  0
 11 12  1  0
 11 10  1  0
 12 13  2  0
 13  9  1  0
 14 15  2  0
 14  7  1  0
 16 14  1  0
 17 16  1  0
 17 23  1  0
 17 18  1  1
 19 20  1  0
 19 18  1  0
 21 20  1  0
 22 21  1  0
 23 25  2  0
 23 24  1  0
M  END
$$$$
