VGV.pdb
     RDKit          3D

 19 18  0  0  1  0  0  0  0  0999 V2000
    8.4210  -13.3384   17.4601 C   0  0  0  0  0  0  0  0  0  0  0  0
    7.8085  -13.7696   18.7560 C   0  0  2  0  0  0  0  0  0  0  0  0
    7.2931  -12.5387   19.4791 C   0  0  0  0  0  0  0  0  0  0  0  0
    8.7915  -14.4412   19.6753 C   0  0  2  0  0  0  0  0  0  0  0  0
    9.2645  -15.6327   19.0449 N   0  0  0  0  0  0  0  0  0  0  0  0
    8.2542  -14.6664   21.0341 C   0  0  0  0  0  0  0  0  0  0  0  0
    7.9370  -13.6647   21.7256 O   0  0  0  0  0  0  0  0  0  0  0  0
    8.0706  -15.9475   21.6162 N   0  0  0  0  0  0  0  0  0  0  0  0
    7.4307  -16.1757   22.8732 C   0  0  0  0  0  0  0  0  0  0  0  0
    8.0734  -15.4146   23.9858 C   0  0  0  0  0  0  0  0  0  0  0  0
    9.2331  -15.6954   24.4019 O   0  0  0  0  0  0  0  0  0  0  0  0
    5.7086  -13.1903   26.7101 C   0  0  0  0  0  0  0  0  0  0  0  0
    6.9467  -12.5599   26.1603 C   0  0  1  0  0  0  0  0  0  0  0  0
    7.5282  -11.5847   27.1527 C   0  0  0  0  0  0  0  0  0  0  0  0
    7.9882  -13.5909   25.7366 C   0  0  2  0  0  0  0  0  0  0  0  0
    7.4122  -14.3353   24.6329 N   0  0  0  0  0  0  0  0  0  0  0  0
    8.3611  -14.4781   26.8436 C   0  0  0  0  0  0  0  0  0  0  0  0
    9.3828  -14.1115   27.6932 O   0  0  0  0  0  0  0  0  0  0  0  0
    7.7965  -15.5901   27.0840 O   0  0  0  0  0  0  0  0  0  0  0  0
  2  3  1  1
  2  4  1  0
  2  1  1  0
  4  5  1  6
  6  4  1  0
  6  7  2  0
  8  6  1  0
  9  8  1  0
  9 10  1  0
 10 16  1  0
 11 10  2  0
 13 12  1  1
 13 15  1  0
 13 14  1  0
 15 17  1  0
 15 16  1  6
 17 19  2  0
 17 18  1  0
M  END
$$$$
