VGV.pdb
     RDKit          3D

 19 18  0  0  1  0  0  0  0  0999 V2000
    7.4437  -14.2735   23.1866 C   0  0  0  0  0  0  0  0  0  0  0  0
    7.7756  -14.5260   21.7490 C   0  0  2  0  0  0  0  0  0  0  0  0
    6.4855  -14.5288   20.9495 C   0  0  0  0  0  0  0  0  0  0  0  0
    8.4361  -15.8585   21.5242 C   0  0  2  0  0  0  0  0  0  0  0  0
    7.5622  -16.8857   21.9953 N   0  0  0  0  0  0  0  0  0  0  0  0
    9.7975  -15.9346   22.0953 C   0  0  0  0  0  0  0  0  0  0  0  0
   10.6763  -15.1505   21.6535 O   0  0  0  0  0  0  0  0  0  0  0  0
   10.1836  -16.8404   23.1172 N   0  0  0  0  0  0  0  0  0  0  0  0
   11.5108  -16.9515   23.6344 C   0  0  0  0  0  0  0  0  0  0  0  0
   11.6090  -16.4966   25.0534 C   0  0  0  0  0  0  0  0  0  0  0  0
   12.6605  -16.6616   25.7345 O   0  0  0  0  0  0  0  0  0  0  0  0
    8.2885  -14.5195   26.4918 C   0  0  0  0  0  0  0  0  0  0  0  0
    9.6027  -14.1399   27.0928 C   0  0  1  0  0  0  0  0  0  0  0  0
    9.4159  -13.6561   28.5087 C   0  0  0  0  0  0  0  0  0  0  0  0
   10.6205  -15.2748   27.0355 C   0  0  2  0  0  0  0  0  0  0  0  0
   10.5234  -15.8546   25.7094 N   0  0  0  0  0  0  0  0  0  0  0  0
   10.3792  -16.2787   28.0773 C   0  0  0  0  0  0  0  0  0  0  0  0
    9.8197  -17.4912   27.7355 O   0  0  0  0  0  0  0  0  0  0  0  0
   10.6552  -16.1088   29.3053 O   0  0  0  0  0  0  0  0  0  0  0  0
  2  3  1  6
  2  4  1  0
  2  1  1  0
  4  5  1  1
  6  4  1  0
  6  7  2  0
  8  6  1  0
  9  8  1  0
  9 10  1  0
 10 16  1  0
 11 10  2  0
 13 12  1  1
 13 15  1  0
 13 14  1  0
 15 17  1  0
 15 16  1  6
 17 19  2  0
 17 18  1  0
M  END
$$$$
