VGV.pdb
     RDKit          3D

 19 18  0  0  1  0  0  0  0  0999 V2000
    8.5492  -16.4703   17.7511 C   0  0  0  0  0  0  0  0  0  0  0  0
    7.7861  -16.0722   18.9758 C   0  0  2  0  0  0  0  0  0  0  0  0
    7.5277  -14.5778   18.9185 C   0  0  0  0  0  0  0  0  0  0  0  0
    8.5391  -16.3405   20.2499 C   0  0  2  0  0  0  0  0  0  0  0  0
    8.6822  -17.7533   20.4060 N   0  0  0  0  0  0  0  0  0  0  0  0
    7.9426  -15.6746   21.4273 C   0  0  0  0  0  0  0  0  0  0  0  0
    7.9908  -14.4193   21.4929 O   0  0  0  0  0  0  0  0  0  0  0  0
    7.3139  -16.3616   22.4980 N   0  0  0  0  0  0  0  0  0  0  0  0
    6.6627  -15.7179   23.5948 C   0  0  0  0  0  0  0  0  0  0  0  0
    7.6141  -14.9450   24.4479 C   0  0  0  0  0  0  0  0  0  0  0  0
    8.8629  -14.9870   24.2589 O   0  0  0  0  0  0  0  0  0  0  0  0
    6.7890  -11.2738   25.8038 C   0  0  0  0  0  0  0  0  0  0  0  0
    7.2526  -12.1784   26.8989 C   0  0  1  0  0  0  0  0  0  0  0  0
    6.0838  -12.6424   27.7311 C   0  0  0  0  0  0  0  0  0  0  0  0
    8.0532  -13.3666   26.3751 C   0  0  2  0  0  0  0  0  0  0  0  0
    7.1622  -14.1228   25.5159 N   0  0  0  0  0  0  0  0  0  0  0  0
    8.5768  -14.1963   27.4655 C   0  0  0  0  0  0  0  0  0  0  0  0
    9.5976  -13.7137   28.2563 O   0  0  0  0  0  0  0  0  0  0  0  0
    8.1474  -15.3590   27.7429 O   0  0  0  0  0  0  0  0  0  0  0  0
  2  3  1  6
  2  4  1  0
  2  1  1  0
  4  5  1  1
  6  4  1  0
  6  7  2  0
  8  6  1  0
  9  8  1  0
  9 10  1  0
 10 16  1  0
 11 10  2  0
 13 12  1  6
 13 15  1  0
 13 14  1  0
 15 17  1  0
 15 16  1  6
 17 19  2  0
 17 18  1  0
M  END
$$$$
