VGV.pdb
     RDKit          3D

 19 18  0  0  1  0  0  0  0  0999 V2000
    8.3670  -12.8368   17.8189 C   0  0  0  0  0  0  0  0  0  0  0  0
    8.1495  -13.8007   18.9434 C   0  0  2  0  0  0  0  0  0  0  0  0
    6.6579  -13.9132   19.2004 C   0  0  0  0  0  0  0  0  0  0  0  0
    8.7860  -13.3542   20.2309 C   0  0  2  0  0  0  0  0  0  0  0  0
   10.1984  -13.2683   20.0354 N   0  0  0  0  0  0  0  0  0  0  0  0
    8.4005  -14.1891   21.3884 C   0  0  0  0  0  0  0  0  0  0  0  0
    7.1922  -14.2064   21.7377 O   0  0  0  0  0  0  0  0  0  0  0  0
    9.3094  -14.9794   22.1389 N   0  0  0  0  0  0  0  0  0  0  0  0
    8.9233  -15.8829   23.1762 C   0  0  0  0  0  0  0  0  0  0  0  0
    9.0687  -15.2838   24.5364 C   0  0  0  0  0  0  0  0  0  0  0  0
    9.7908  -15.8177   25.4255 O   0  0  0  0  0  0  0  0  0  0  0  0
    6.9165  -12.0132   24.9219 C   0  0  0  0  0  0  0  0  0  0  0  0
    7.3465  -12.4487   26.2850 C   0  0  1  0  0  0  0  0  0  0  0  0
    6.1581  -12.9051   27.0931 C   0  0  0  0  0  0  0  0  0  0  0  0
    8.4217  -13.5299   26.2404 C   0  0  2  0  0  0  0  0  0  0  0  0
    8.4016  -14.0821   24.8992 N   0  0  0  0  0  0  0  0  0  0  0  0
    8.1942  -14.5691   27.2503 C   0  0  0  0  0  0  0  0  0  0  0  0
    8.7743  -14.4456   28.4946 O   0  0  0  0  0  0  0  0  0  0  0  0
    7.4823  -15.6032   27.0579 O   0  0  0  0  0  0  0  0  0  0  0  0
  2  3  1  1
  2  4  1  0
  2  1  1  0
  4  5  1  6
  6  4  1  0
  6  7  2  0
  8  6  1  0
  9  8  1  0
  9 10  1  0
 10 16  1  0
 11 10  2  0
 13 12  1  6
 13 15  1  0
 13 14  1  0
 15 17  1  0
 15 16  1  6
 17 19  2  0
 17 18  1  0
M  END
$$$$
