VGV.pdb
     RDKit          3D

 19 18  0  0  1  0  0  0  0  0999 V2000
    6.5208  -13.7496   18.6310 C   0  0  0  0  0  0  0  0  0  0  0  0
    7.9443  -13.3687   18.8940 C   0  0  2  0  0  0  0  0  0  0  0  0
    8.6921  -13.3560   17.5734 C   0  0  0  0  0  0  0  0  0  0  0  0
    8.6558  -14.3415   19.7938 C   0  0  2  0  0  0  0  0  0  0  0  0
    8.6532  -15.6261   19.1689 N   0  0  0  0  0  0  0  0  0  0  0  0
    8.1206  -14.3550   21.1718 C   0  0  0  0  0  0  0  0  0  0  0  0
    8.2318  -13.3126   21.8671 O   0  0  0  0  0  0  0  0  0  0  0  0
    7.4841  -15.4741   21.7687 N   0  0  0  0  0  0  0  0  0  0  0  0
    6.8774  -15.4593   23.0622 C   0  0  0  0  0  0  0  0  0  0  0  0
    7.7617  -14.8480   24.0989 C   0  0  0  0  0  0  0  0  0  0  0  0
    9.0211  -14.9233   24.0284 O   0  0  0  0  0  0  0  0  0  0  0  0
    6.9878  -11.3344   25.8910 C   0  0  0  0  0  0  0  0  0  0  0  0
    7.2508  -12.4294   26.8729 C   0  0  1  0  0  0  0  0  0  0  0  0
    5.9574  -12.9301   27.4646 C   0  0  0  0  0  0  0  0  0  0  0  0
    8.0521  -13.5773   26.2667 C   0  0  2  0  0  0  0  0  0  0  0  0
    7.2303  -14.1503   25.2177 N   0  0  0  0  0  0  0  0  0  0  0  0
    8.4137  -14.5823   27.2721 C   0  0  0  0  0  0  0  0  0  0  0  0
    9.3609  -14.2781   28.2263 O   0  0  0  0  0  0  0  0  0  0  0  0
    7.9047  -15.7444   27.3303 O   0  0  0  0  0  0  0  0  0  0  0  0
  2  3  1  6
  2  4  1  0
  2  1  1  0
  4  5  1  6
  6  4  1  0
  6  7  2  0
  8  6  1  0
  9  8  1  0
  9 10  1  0
 10 16  1  0
 11 10  2  0
 13 12  1  6
 13 15  1  0
 13 14  1  0
 15 17  1  0
 15 16  1  6
 17 19  2  0
 17 18  1  0
M  END
$$$$
