GFW.pdb
     RDKit          3D

 30 32  0  0  1  0  0  0  0  0999 V2000
   27.1221   -7.3266  -18.3120 N   0  0  0  0  0  0  0  0  0  0  0  0
   26.1371   -7.1668  -17.2867 C   0  0  0  0  0  0  0  0  0  0  0  0
   25.3617   -8.4236  -17.1571 C   0  0  0  0  0  0  0  0  0  0  0  0
   24.8360   -8.9153  -18.1658 O   0  0  0  0  0  0  0  0  0  0  0  0
   25.2174   -9.0657  -15.8862 N   0  0  0  0  0  0  0  0  0  0  0  0
   24.3879  -10.2329  -15.7298 C   0  0  1  0  0  0  0  0  0  0  0  0
   25.0151  -11.2544  -14.8204 C   0  0  0  0  0  0  0  0  0  0  0  0
   26.1149  -11.9495  -15.5332 C   0  0  0  0  0  0  0  0  0  0  0  0
   25.8960  -13.1028  -16.2394 C   0  0  0  0  0  0  0  0  0  0  0  0
   26.9165  -13.7351  -16.8940 C   0  0  0  0  0  0  0  0  0  0  0  0
   28.1957  -13.1810  -16.8298 C   0  0  0  0  0  0  0  0  0  0  0  0
   28.4037  -12.0217  -16.1171 C   0  0  0  0  0  0  0  0  0  0  0  0
   27.3710  -11.3967  -15.4644 C   0  0  0  0  0  0  0  0  0  0  0  0
   23.0499   -9.8329  -15.1912 C   0  0  0  0  0  0  0  0  0  0  0  0
   22.9659   -9.5383  -13.9846 O   0  0  0  0  0  0  0  0  0  0  0  0
   21.8922   -9.7787  -15.9966 N   0  0  0  0  0  0  0  0  0  0  0  0
   20.6531   -9.3166  -15.4183 C   0  0  1  0  0  0  0  0  0  0  0  0
   20.8214   -8.1240  -14.5648 C   0  0  0  0  0  0  0  0  0  0  0  0
   20.7186   -6.8057  -15.2235 C   0  0  0  0  0  0  0  0  0  0  0  0
   19.5203   -6.2223  -15.6658 C   0  0  0  0  0  0  0  0  0  0  0  0
   19.7929   -5.0505  -16.2450 N   0  0  0  0  0  0  0  0  0  0  0  0
   21.1173   -4.8416  -16.2001 C   0  0  0  0  0  0  0  0  0  0  0  0
   21.9356   -3.7963  -16.6331 C   0  0  0  0  0  0  0  0  0  0  0  0
   23.2944   -3.8572  -16.4258 C   0  0  0  0  0  0  0  0  0  0  0  0
   23.8731   -4.9335  -15.7962 C   0  0  0  0  0  0  0  0  0  0  0  0
   23.0678   -5.9695  -15.3672 C   0  0  0  0  0  0  0  0  0  0  0  0
   21.6982   -5.9114  -15.5752 C   0  0  0  0  0  0  0  0  0  0  0  0
   19.5378   -9.3380  -16.3733 C   0  0  0  0  0  0  0  0  0  0  0  0
   19.7924   -9.4709  -17.5953 O   0  0  0  0  0  0  0  0  0  0  0  0
   18.1910   -9.2212  -16.0511 O   0  0  0  0  0  0  0  0  0  0  0  0
  2  1  1  0
  3  2  1  0
  4  3  2  0
  5  3  1  0
  6  7  1  1
  6  5  1  0
  8  7  1  0
  9  8  2  0
 10  9  1  0
 11 12  1  0
 11 10  2  0
 12 13  2  0
 13  8  1  0
 14 15  2  0
 14  6  1  0
 16 14  1  0
 17 16  1  0
 17 18  1  6
 19 18  1  0
 20 19  2  0
 21 20  1  0
 22 21  1  0
 22 27  2  0
 23 22  1  0
 24 23  2  0
 24 25  1  0
 25 26  2  0
 26 27  1  0
 27 19  1  0
 28 30  1  0
 28 17  1  0
 29 28  2  0
M  END
$$$$
