GFW.pdb
     RDKit          3D

 30 32  0  0  1  0  0  0  0  0999 V2000
   28.3915  -22.3346  -16.5666 N   0  0  0  0  0  0  0  0  0  0  0  0
   27.7015  -22.8432  -15.4212 C   0  0  0  0  0  0  0  0  0  0  0  0
   26.2476  -22.8845  -15.7079 C   0  0  0  0  0  0  0  0  0  0  0  0
   25.8382  -22.4921  -16.8097 O   0  0  0  0  0  0  0  0  0  0  0  0
   25.3230  -23.3695  -14.7290 N   0  0  0  0  0  0  0  0  0  0  0  0
   23.9161  -23.4748  -15.0190 C   0  0  1  0  0  0  0  0  0  0  0  0
   23.3873  -24.8592  -14.7584 C   0  0  0  0  0  0  0  0  0  0  0  0
   23.8646  -25.7836  -15.8159 C   0  0  0  0  0  0  0  0  0  0  0  0
   24.9817  -26.5573  -15.6418 C   0  0  0  0  0  0  0  0  0  0  0  0
   25.4127  -27.4071  -16.6225 C   0  0  0  0  0  0  0  0  0  0  0  0
   24.6891  -27.4734  -17.8139 C   0  0  0  0  0  0  0  0  0  0  0  0
   23.5682  -26.6912  -17.9776 C   0  0  0  0  0  0  0  0  0  0  0  0
   23.1460  -25.8422  -16.9856 C   0  0  0  0  0  0  0  0  0  0  0  0
   23.1554  -22.4819  -14.1970 C   0  0  0  0  0  0  0  0  0  0  0  0
   23.1668  -22.6118  -12.9589 O   0  0  0  0  0  0  0  0  0  0  0  0
   22.4332  -21.4143  -14.7718 N   0  0  0  0  0  0  0  0  0  0  0  0
   21.8636  -20.4053  -13.9111 C   0  0  1  0  0  0  0  0  0  0  0  0
   22.3267  -19.0410  -14.2326 C   0  0  0  0  0  0  0  0  0  0  0  0
   21.7009  -18.3743  -15.3928 C   0  0  0  0  0  0  0  0  0  0  0  0
   20.4782  -17.6846  -15.3572 C   0  0  0  0  0  0  0  0  0  0  0  0
   20.1926  -17.2386  -16.5829 N   0  0  0  0  0  0  0  0  0  0  0  0
   21.1756  -17.6059  -17.4187 C   0  0  0  0  0  0  0  0  0  0  0  0
   21.3983  -17.4004  -18.7818 C   0  0  0  0  0  0  0  0  0  0  0  0
   22.5379  -17.8950  -19.3733 C   0  0  0  0  0  0  0  0  0  0  0  0
   23.4731  -18.5942  -18.6479 C   0  0  0  0  0  0  0  0  0  0  0  0
   23.2564  -18.8002  -17.3001 C   0  0  0  0  0  0  0  0  0  0  0  0
   22.1087  -18.3038  -16.7012 C   0  0  0  0  0  0  0  0  0  0  0  0
   20.4316  -20.6142  -13.6614 C   0  0  0  0  0  0  0  0  0  0  0  0
   19.7811  -21.3409  -14.4517 O   0  0  0  0  0  0  0  0  0  0  0  0
   19.7036  -20.0716  -12.6093 O   0  0  0  0  0  0  0  0  0  0  0  0
  2  1  1  0
  3  2  1  0
  4  3  2  0
  5  3  1  0
  6  7  1  1
  6  5  1  0
  8  7  1  0
  9  8  2  0
 10  9  1  0
 11 12  1  0
 11 10  2  0
 12 13  2  0
 13  8  1  0
 14 15  2  0
 14  6  1  0
 16 14  1  0
 17 16  1  0
 17 18  1  6
 19 18  1  0
 20 19  2  0
 21 20  1  0
 22 21  1  0
 22 27  2  0
 23 22  1  0
 24 23  2  0
 24 25  1  0
 25 26  2  0
 26 27  1  0
 27 19  1  0
 28 30  1  0
 28 17  1  0
 29 28  2  0
M  END
$$$$
