GFW.pdb
     RDKit          3D

 30 32  0  0  1  0  0  0  0  0999 V2000
   16.1287  -12.3164    2.7213 N   0  0  0  0  0  0  0  0  0  0  0  0
   15.7502  -12.9804    3.9307 C   0  0  0  0  0  0  0  0  0  0  0  0
   16.8915  -13.7917    4.4176 C   0  0  0  0  0  0  0  0  0  0  0  0
   17.7949  -14.0985    3.6270 O   0  0  0  0  0  0  0  0  0  0  0  0
   16.9549  -14.2191    5.7821 N   0  0  0  0  0  0  0  0  0  0  0  0
   18.0062  -15.0889    6.2434 C   0  0  1  0  0  0  0  0  0  0  0  0
   18.5311  -14.6755    7.5916 C   0  0  0  0  0  0  0  0  0  0  0  0
   19.3118  -13.4208    7.4603 C   0  0  0  0  0  0  0  0  0  0  0  0
   18.7106  -12.1915    7.5265 C   0  0  0  0  0  0  0  0  0  0  0  0
   19.4395  -11.0410    7.4056 C   0  0  0  0  0  0  0  0  0  0  0  0
   20.8179  -11.1411    7.2118 C   0  0  0  0  0  0  0  0  0  0  0  0
   21.4109  -12.3817    7.1469 C   0  0  0  0  0  0  0  0  0  0  0  0
   20.6683  -13.5290    7.2697 C   0  0  0  0  0  0  0  0  0  0  0  0
   17.5041  -16.4975    6.3086 C   0  0  0  0  0  0  0  0  0  0  0  0
   16.3039  -16.6817    6.5837 O   0  0  0  0  0  0  0  0  0  0  0  0
   18.3362  -17.6123    6.0712 N   0  0  0  0  0  0  0  0  0  0  0  0
   17.7567  -18.9342    6.0619 C   0  0  1  0  0  0  0  0  0  0  0  0
   18.0888  -19.7036    4.8466 C   0  0  0  0  0  0  0  0  0  0  0  0
   17.0015  -19.9219    3.8707 C   0  0  0  0  0  0  0  0  0  0  0  0
   16.5733  -21.1796    3.4162 C   0  0  0  0  0  0  0  0  0  0  0  0
   15.6013  -21.0112    2.5164 N   0  0  0  0  0  0  0  0  0  0  0  0
   15.3744  -19.6978    2.3631 C   0  0  0  0  0  0  0  0  0  0  0  0
   14.4785  -18.9674    1.5798 C   0  0  0  0  0  0  0  0  0  0  0  0
   14.4665  -17.5933    1.6512 C   0  0  0  0  0  0  0  0  0  0  0  0
   15.3240  -16.9142    2.4837 C   0  0  0  0  0  0  0  0  0  0  0  0
   16.2119  -17.6325    3.2593 C   0  0  0  0  0  0  0  0  0  0  0  0
   16.2270  -19.0171    3.1890 C   0  0  0  0  0  0  0  0  0  0  0  0
   17.8585  -19.6082    7.3626 C   0  0  0  0  0  0  0  0  0  0  0  0
   18.8474  -19.3600    8.0949 O   0  0  0  0  0  0  0  0  0  0  0  0
   16.9451  -20.5200    7.8779 O   0  0  0  0  0  0  0  0  0  0  0  0
  2  1  1  0
  3  2  1  0
  4  3  2  0
  5  3  1  0
  6  7  1  1
  6  5  1  0
  8  7  1  0
  9  8  2  0
 10  9  1  0
 11 12  1  0
 11 10  2  0
 12 13  2  0
 13  8  1  0
 14 15  2  0
 14  6  1  0
 16 14  1  0
 17 16  1  0
 17 18  1  6
 19 18  1  0
 20 19  2  0
 21 20  1  0
 22 21  1  0
 22 27  2  0
 23 22  1  0
 24 23  2  0
 24 25  1  0
 25 26  2  0
 26 27  1  0
 27 19  1  0
 28 30  1  0
 28 17  1  0
 29 28  2  0
M  END
$$$$
