GFW.pdb
     RDKit          3D

 30 32  0  0  1  0  0  0  0  0999 V2000
   28.0037  -18.2411  -14.2981 N   0  0  0  0  0  0  0  0  0  0  0  0
   27.3579  -18.1546  -13.0244 C   0  0  0  0  0  0  0  0  0  0  0  0
   26.8677  -19.4985  -12.6353 C   0  0  0  0  0  0  0  0  0  0  0  0
   26.9832  -20.4380  -13.4350 O   0  0  0  0  0  0  0  0  0  0  0  0
   26.2670  -19.7148  -11.3544 N   0  0  0  0  0  0  0  0  0  0  0  0
   25.6724  -20.9817  -11.0135 C   0  0  1  0  0  0  0  0  0  0  0  0
   25.6902  -21.2336   -9.5303 C   0  0  0  0  0  0  0  0  0  0  0  0
   26.9967  -20.8125   -8.9677 C   0  0  0  0  0  0  0  0  0  0  0  0
   27.0806  -19.8752   -7.9721 C   0  0  0  0  0  0  0  0  0  0  0  0
   28.2898  -19.4949   -7.4595 C   0  0  0  0  0  0  0  0  0  0  0  0
   29.4470  -20.0827   -7.9723 C   0  0  0  0  0  0  0  0  0  0  0  0
   29.3504  -21.0235   -8.9727 C   0  0  0  0  0  0  0  0  0  0  0  0
   28.1307  -21.3966   -9.4787 C   0  0  0  0  0  0  0  0  0  0  0  0
   24.2632  -21.0295  -11.5159 C   0  0  0  0  0  0  0  0  0  0  0  0
   23.3971  -20.3812  -10.8999 O   0  0  0  0  0  0  0  0  0  0  0  0
   23.8869  -21.7767  -12.6524 N   0  0  0  0  0  0  0  0  0  0  0  0
   22.9974  -21.1836  -13.6222 C   0  0  1  0  0  0  0  0  0  0  0  0
   23.3661  -19.7986  -13.9755 C   0  0  0  0  0  0  0  0  0  0  0  0
   22.5027  -19.1005  -14.9498 C   0  0  0  0  0  0  0  0  0  0  0  0
   21.2720  -18.4983  -14.6425 C   0  0  0  0  0  0  0  0  0  0  0  0
   20.7423  -17.9927  -15.7591 N   0  0  0  0  0  0  0  0  0  0  0  0
   21.5734  -18.2374  -16.7834 C   0  0  0  0  0  0  0  0  0  0  0  0
   21.5305  -17.9281  -18.1444 C   0  0  0  0  0  0  0  0  0  0  0  0
   22.5670  -18.3051  -18.9670 C   0  0  0  0  0  0  0  0  0  0  0  0
   23.6559  -18.9862  -18.4770 C   0  0  0  0  0  0  0  0  0  0  0  0
   23.7020  -19.2945  -17.1322 C   0  0  0  0  0  0  0  0  0  0  0  0
   22.6587  -18.9168  -16.3008 C   0  0  0  0  0  0  0  0  0  0  0  0
   22.6415  -22.1079  -14.7064 C   0  0  0  0  0  0  0  0  0  0  0  0
   23.4992  -22.9362  -15.0990 O   0  0  0  0  0  0  0  0  0  0  0  0
   21.4165  -22.1582  -15.3608 O   0  0  0  0  0  0  0  0  0  0  0  0
  2  1  1  0
  3  2  1  0
  4  3  2  0
  5  3  1  0
  6  7  1  1
  6  5  1  0
  8  7  1  0
  9  8  2  0
 10  9  1  0
 11 12  1  0
 11 10  2  0
 12 13  2  0
 13  8  1  0
 14 15  2  0
 14  6  1  0
 16 14  1  0
 17 16  1  0
 17 18  1  6
 19 18  1  0
 20 19  2  0
 21 20  1  0
 22 21  1  0
 22 27  2  0
 23 22  1  0
 24 23  2  0
 24 25  1  0
 25 26  2  0
 26 27  1  0
 27 19  1  0
 28 30  1  0
 28 17  1  0
 29 28  2  0
M  END
$$$$
