GFW.pdb
     RDKit          3D

 30 32  0  0  1  0  0  0  0  0999 V2000
   29.8312  -24.9792  -16.5747 N   0  0  0  0  0  0  0  0  0  0  0  0
   28.7871  -24.2999  -17.2786 C   0  0  0  0  0  0  0  0  0  0  0  0
   28.4571  -23.0432  -16.5646 C   0  0  0  0  0  0  0  0  0  0  0  0
   28.9754  -22.8218  -15.4611 O   0  0  0  0  0  0  0  0  0  0  0  0
   27.5516  -22.0938  -17.1366 N   0  0  0  0  0  0  0  0  0  0  0  0
   27.2577  -20.8496  -16.4731 C   0  0  1  0  0  0  0  0  0  0  0  0
   26.7909  -19.7920  -17.4362 C   0  0  0  0  0  0  0  0  0  0  0  0
   26.5594  -18.5204  -16.7080 C   0  0  0  0  0  0  0  0  0  0  0  0
   27.5943  -17.6896  -16.3681 C   0  0  0  0  0  0  0  0  0  0  0  0
   27.3701  -16.5191  -15.6979 C   0  0  0  0  0  0  0  0  0  0  0  0
   26.0579  -16.1822  -15.3631 C   0  0  0  0  0  0  0  0  0  0  0  0
   25.0260  -17.0248  -15.7099 C   0  0  0  0  0  0  0  0  0  0  0  0
   25.2642  -18.1969  -16.3825 C   0  0  0  0  0  0  0  0  0  0  0  0
   26.2139  -21.0713  -15.4235 C   0  0  0  0  0  0  0  0  0  0  0  0
   25.3097  -21.8944  -15.6581 O   0  0  0  0  0  0  0  0  0  0  0  0
   26.2199  -20.3863  -14.1897 N   0  0  0  0  0  0  0  0  0  0  0  0
   25.2443  -20.7364  -13.1852 C   0  0  1  0  0  0  0  0  0  0  0  0
   25.4910  -20.0819  -11.8852 C   0  0  0  0  0  0  0  0  0  0  0  0
   24.5969  -20.4478  -10.7676 C   0  0  0  0  0  0  0  0  0  0  0  0
   24.9871  -21.1844   -9.6376 C   0  0  0  0  0  0  0  0  0  0  0  0
   23.9265  -21.3655   -8.8468 N   0  0  0  0  0  0  0  0  0  0  0  0
   22.8596  -20.7787   -9.4101 C   0  0  0  0  0  0  0  0  0  0  0  0
   21.5251  -20.6459   -9.0213 C   0  0  0  0  0  0  0  0  0  0  0  0
   20.6432  -19.9543   -9.8194 C   0  0  0  0  0  0  0  0  0  0  0  0
   21.0475  -19.3844  -11.0032 C   0  0  0  0  0  0  0  0  0  0  0  0
   22.3659  -19.5139  -11.3917 C   0  0  0  0  0  0  0  0  0  0  0  0
   23.2569  -20.2110  -10.5900 C   0  0  0  0  0  0  0  0  0  0  0  0
   23.8719  -20.7529  -13.7075 C   0  0  0  0  0  0  0  0  0  0  0  0
   23.1690  -21.7767  -13.5248 O   0  0  0  0  0  0  0  0  0  0  0  0
   23.2565  -19.7202  -14.4048 O   0  0  0  0  0  0  0  0  0  0  0  0
  2  1  1  0
  3  2  1  0
  4  3  2  0
  5  3  1  0
  6  7  1  6
  6  5  1  0
  8  7  1  0
  9  8  2  0
 10  9  1  0
 11 12  1  0
 11 10  2  0
 12 13  2  0
 13  8  1  0
 14 15  2  0
 14  6  1  0
 16 14  1  0
 17 16  1  0
 17 18  1  1
 19 18  1  0
 20 19  2  0
 21 20  1  0
 22 21  1  0
 22 27  2  0
 23 22  1  0
 24 23  2  0
 24 25  1  0
 25 26  2  0
 26 27  1  0
 27 19  1  0
 28 30  1  0
 28 17  1  0
 29 28  2  0
M  END
$$$$
