GFW.pdb
     RDKit          3D

 30 32  0  0  1  0  0  0  0  0999 V2000
   17.6137  -26.8109   -4.4650 N   0  0  0  0  0  0  0  0  0  0  0  0
   17.8645  -28.0677   -3.8290 C   0  0  0  0  0  0  0  0  0  0  0  0
   19.3208  -28.3441   -3.8554 C   0  0  0  0  0  0  0  0  0  0  0  0
   20.0793  -27.5327   -4.4048 O   0  0  0  0  0  0  0  0  0  0  0  0
   19.8504  -29.5312   -3.2566 N   0  0  0  0  0  0  0  0  0  0  0  0
   21.2679  -29.7857   -3.2315 C   0  0  1  0  0  0  0  0  0  0  0  0
   21.9342  -29.1561   -2.0384 C   0  0  0  0  0  0  0  0  0  0  0  0
   20.9281  -28.4176   -1.2363 C   0  0  0  0  0  0  0  0  0  0  0  0
   20.5573  -27.1374   -1.5532 C   0  0  0  0  0  0  0  0  0  0  0  0
   19.6281  -26.4659   -0.8080 C   0  0  0  0  0  0  0  0  0  0  0  0
   19.0591  -27.1123    0.2902 C   0  0  0  0  0  0  0  0  0  0  0  0
   19.4396  -28.3988    0.5990 C   0  0  0  0  0  0  0  0  0  0  0  0
   20.3733  -29.0620   -0.1569 C   0  0  0  0  0  0  0  0  0  0  0  0
   21.5158  -31.2618   -3.2264 C   0  0  0  0  0  0  0  0  0  0  0  0
   20.5434  -32.0208   -3.0586 O   0  0  0  0  0  0  0  0  0  0  0  0
   22.8012  -31.8167   -3.4037 N   0  0  0  0  0  0  0  0  0  0  0  0
   22.9484  -33.2519   -3.4500 C   0  0  1  0  0  0  0  0  0  0  0  0
   23.8214  -33.7095   -4.5489 C   0  0  0  0  0  0  0  0  0  0  0  0
   23.7857  -32.9321   -5.8045 C   0  0  0  0  0  0  0  0  0  0  0  0
   22.6215  -32.4095   -6.3904 C   0  0  0  0  0  0  0  0  0  0  0  0
   22.9445  -31.7960   -7.5316 N   0  0  0  0  0  0  0  0  0  0  0  0
   24.2696  -31.8938   -7.7171 C   0  0  0  0  0  0  0  0  0  0  0  0
   25.1323  -31.4311   -8.7128 C   0  0  0  0  0  0  0  0  0  0  0  0
   26.4829  -31.6768   -8.6194 C   0  0  0  0  0  0  0  0  0  0  0  0
   27.0100  -32.3742   -7.5586 C   0  0  0  0  0  0  0  0  0  0  0  0
   26.1605  -32.8340   -6.5723 C   0  0  0  0  0  0  0  0  0  0  0  0
   24.7989  -32.5887   -6.6639 C   0  0  0  0  0  0  0  0  0  0  0  0
   23.1324  -33.8471   -2.1202 C   0  0  0  0  0  0  0  0  0  0  0  0
   23.3509  -35.0804   -2.0361 O   0  0  0  0  0  0  0  0  0  0  0  0
   23.0859  -33.1631   -0.9113 O   0  0  0  0  0  0  0  0  0  0  0  0
  2  1  1  0
  3  2  1  0
  4  3  2  0
  5  3  1  0
  6  7  1  1
  6  5  1  0
  8  7  1  0
  9  8  2  0
 10  9  1  0
 11 12  1  0
 11 10  2  0
 12 13  2  0
 13  8  1  0
 14 15  2  0
 14  6  1  0
 16 14  1  0
 17 16  1  0
 17 18  1  6
 19 18  1  0
 20 19  2  0
 21 20  1  0
 22 21  1  0
 22 27  2  0
 23 22  1  0
 24 23  2  0
 24 25  1  0
 25 26  2  0
 26 27  1  0
 27 19  1  0
 28 30  1  0
 28 17  1  0
 29 28  2  0
M  END
$$$$
