GFW.pdb
     RDKit          3D

 30 32  0  0  1  0  0  0  0  0999 V2000
   27.3530  -25.6865  -17.3852 N   0  0  0  0  0  0  0  0  0  0  0  0
   26.4216  -25.5075  -16.3141 C   0  0  0  0  0  0  0  0  0  0  0  0
   26.5797  -24.1436  -15.7550 C   0  0  0  0  0  0  0  0  0  0  0  0
   27.7046  -23.6242  -15.7394 O   0  0  0  0  0  0  0  0  0  0  0  0
   25.4517  -23.4306  -15.2375 N   0  0  0  0  0  0  0  0  0  0  0  0
   25.5894  -22.0965  -14.7122 C   0  0  1  0  0  0  0  0  0  0  0  0
   24.5837  -21.1483  -15.3068 C   0  0  0  0  0  0  0  0  0  0  0  0
   24.9436  -20.8580  -16.7165 C   0  0  0  0  0  0  0  0  0  0  0  0
   25.7992  -19.8392  -17.0433 C   0  0  0  0  0  0  0  0  0  0  0  0
   26.1255  -19.5806  -18.3457 C   0  0  0  0  0  0  0  0  0  0  0  0
   25.5672  -20.3790  -19.3450 C   0  0  0  0  0  0  0  0  0  0  0  0
   24.7087  -21.3999  -19.0046 C   0  0  0  0  0  0  0  0  0  0  0  0
   24.3892  -21.6492  -17.6936 C   0  0  0  0  0  0  0  0  0  0  0  0
   25.4385  -22.1221  -13.2232 C   0  0  0  0  0  0  0  0  0  0  0  0
   24.4660  -22.7316  -12.7411 O   0  0  0  0  0  0  0  0  0  0  0  0
   26.3521  -21.4854  -12.3562 N   0  0  0  0  0  0  0  0  0  0  0  0
   26.0510  -21.4124  -10.9464 C   0  0  1  0  0  0  0  0  0  0  0  0
   27.2491  -21.2110  -10.1079 C   0  0  0  0  0  0  0  0  0  0  0  0
   27.0341  -20.6944   -8.7407 C   0  0  0  0  0  0  0  0  0  0  0  0
   25.7943  -20.2830   -8.2254 C   0  0  0  0  0  0  0  0  0  0  0  0
   25.9653  -19.8404   -6.9773 N   0  0  0  0  0  0  0  0  0  0  0  0
   27.2630  -19.9452   -6.6534 C   0  0  0  0  0  0  0  0  0  0  0  0
   27.9865  -19.6500   -5.4962 C   0  0  0  0  0  0  0  0  0  0  0  0
   29.3410  -19.8884   -5.4539 C   0  0  0  0  0  0  0  0  0  0  0  0
   30.0072  -20.4155   -6.5346 C   0  0  0  0  0  0  0  0  0  0  0  0
   29.2958  -20.7082   -7.6810 C   0  0  0  0  0  0  0  0  0  0  0  0
   27.9310  -20.4684   -7.7270 C   0  0  0  0  0  0  0  0  0  0  0  0
   24.8577  -20.6053  -10.6615 C   0  0  0  0  0  0  0  0  0  0  0  0
   24.6534  -19.5697  -11.3409 O   0  0  0  0  0  0  0  0  0  0  0  0
   23.9058  -20.8800   -9.6869 O   0  0  0  0  0  0  0  0  0  0  0  0
  2  1  1  0
  3  2  1  0
  4  3  2  0
  5  3  1  0
  6  7  1  6
  6  5  1  0
  8  7  1  0
  9  8  2  0
 10  9  1  0
 11 12  1  0
 11 10  2  0
 12 13  2  0
 13  8  1  0
 14 15  2  0
 14  6  1  0
 16 14  1  0
 17 16  1  0
 17 18  1  1
 19 18  1  0
 20 19  2  0
 21 20  1  0
 22 21  1  0
 22 27  2  0
 23 22  1  0
 24 23  2  0
 24 25  1  0
 25 26  2  0
 26 27  1  0
 27 19  1  0
 28 30  1  0
 28 17  1  0
 29 28  2  0
M  END
$$$$
