GFW.pdb
     RDKit          3D

 30 32  0  0  1  0  0  0  0  0999 V2000
   29.5470  -23.5636  -19.6095 N   0  0  0  0  0  0  0  0  0  0  0  0
   28.8445  -22.3399  -19.3726 C   0  0  0  0  0  0  0  0  0  0  0  0
   28.4650  -22.2663  -17.9414 C   0  0  0  0  0  0  0  0  0  0  0  0
   28.2879  -23.3171  -17.3090 O   0  0  0  0  0  0  0  0  0  0  0  0
   28.3028  -21.0011  -17.2924 N   0  0  0  0  0  0  0  0  0  0  0  0
   28.0147  -20.9166  -15.8836 C   0  0  1  0  0  0  0  0  0  0  0  0
   28.6583  -19.7152  -15.2462 C   0  0  0  0  0  0  0  0  0  0  0  0
   28.3274  -19.6794  -13.8005 C   0  0  0  0  0  0  0  0  0  0  0  0
   27.4150  -18.7912  -13.2951 C   0  0  0  0  0  0  0  0  0  0  0  0
   27.1162  -18.7672  -11.9610 C   0  0  0  0  0  0  0  0  0  0  0  0
   27.7620  -19.6706  -11.1158 C   0  0  0  0  0  0  0  0  0  0  0  0
   28.6771  -20.5584  -11.6349 C   0  0  0  0  0  0  0  0  0  0  0  0
   28.9682  -20.5724  -12.9758 C   0  0  0  0  0  0  0  0  0  0  0  0
   26.5336  -20.8657  -15.6733 C   0  0  0  0  0  0  0  0  0  0  0  0
   25.8488  -20.2004  -16.4723 O   0  0  0  0  0  0  0  0  0  0  0  0
   25.8937  -21.5394  -14.6111 N   0  0  0  0  0  0  0  0  0  0  0  0
   24.4571  -21.4639  -14.4932 C   0  0  1  0  0  0  0  0  0  0  0  0
   23.9220  -22.2903  -13.3932 C   0  0  0  0  0  0  0  0  0  0  0  0
   23.4950  -21.5842  -12.1679 C   0  0  0  0  0  0  0  0  0  0  0  0
   22.1915  -21.1239  -11.9214 C   0  0  0  0  0  0  0  0  0  0  0  0
   22.1641  -20.5017  -10.7403 N   0  0  0  0  0  0  0  0  0  0  0  0
   23.3929  -20.5356  -10.2031 C   0  0  0  0  0  0  0  0  0  0  0  0
   23.9245  -20.0628   -9.0016 C   0  0  0  0  0  0  0  0  0  0  0  0
   25.2535  -20.2688   -8.7107 C   0  0  0  0  0  0  0  0  0  0  0  0
   26.0802  -20.9358   -9.5832 C   0  0  0  0  0  0  0  0  0  0  0  0
   25.5588  -21.4043  -10.7726 C   0  0  0  0  0  0  0  0  0  0  0  0
   24.2202  -21.1977  -11.0689 C   0  0  0  0  0  0  0  0  0  0  0  0
   23.9455  -20.0963  -14.6495 C   0  0  0  0  0  0  0  0  0  0  0  0
   22.9349  -19.9089  -15.3703 O   0  0  0  0  0  0  0  0  0  0  0  0
   24.4838  -18.9565  -14.0643 O   0  0  0  0  0  0  0  0  0  0  0  0
  2  1  1  0
  3  2  1  0
  4  3  2  0
  5  3  1  0
  6  7  1  6
  6  5  1  0
  8  7  1  0
  9  8  2  0
 10  9  1  0
 11 12  1  0
 11 10  2  0
 12 13  2  0
 13  8  1  0
 14 15  2  0
 14  6  1  0
 16 14  1  0
 17 16  1  0
 17 18  1  1
 19 18  1  0
 20 19  2  0
 21 20  1  0
 22 21  1  0
 22 27  2  0
 23 22  1  0
 24 23  2  0
 24 25  1  0
 25 26  2  0
 26 27  1  0
 27 19  1  0
 28 30  1  0
 28 17  1  0
 29 28  2  0
M  END
$$$$
