GFW.pdb
     RDKit          3D

 30 32  0  0  1  0  0  0  0  0999 V2000
   25.2390  -18.2799  -19.5433 N   0  0  0  0  0  0  0  0  0  0  0  0
   24.6946  -18.6512  -18.2734 C   0  0  0  0  0  0  0  0  0  0  0  0
   25.7547  -19.2908  -17.4581 C   0  0  0  0  0  0  0  0  0  0  0  0
   26.1959  -20.3966  -17.8015 O   0  0  0  0  0  0  0  0  0  0  0  0
   26.2660  -18.6451  -16.2875 N   0  0  0  0  0  0  0  0  0  0  0  0
   27.1513  -19.3325  -15.3828 C   0  0  1  0  0  0  0  0  0  0  0  0
   28.3859  -18.5278  -15.0795 C   0  0  0  0  0  0  0  0  0  0  0  0
   28.9607  -18.0001  -16.3413 C   0  0  0  0  0  0  0  0  0  0  0  0
   28.5315  -16.8188  -16.8863 C   0  0  0  0  0  0  0  0  0  0  0  0
   29.0687  -16.3406  -18.0492 C   0  0  0  0  0  0  0  0  0  0  0  0
   30.0702  -17.0827  -18.6768 C   0  0  0  0  0  0  0  0  0  0  0  0
   30.4934  -18.2684  -18.1198 C   0  0  0  0  0  0  0  0  0  0  0  0
   29.9461  -18.7376  -16.9522 C   0  0  0  0  0  0  0  0  0  0  0  0
   26.4287  -19.6456  -14.1099 C   0  0  0  0  0  0  0  0  0  0  0  0
   25.9616  -18.6985  -13.4506 O   0  0  0  0  0  0  0  0  0  0  0  0
   26.2605  -20.9645  -13.6366 N   0  0  0  0  0  0  0  0  0  0  0  0
   25.2484  -21.2323  -12.6429 C   0  0  1  0  0  0  0  0  0  0  0  0
   24.6922  -20.0062  -12.0376 C   0  0  0  0  0  0  0  0  0  0  0  0
   25.4062  -19.4487  -10.8707 C   0  0  0  0  0  0  0  0  0  0  0  0
   25.9874  -18.1713  -10.8223 C   0  0  0  0  0  0  0  0  0  0  0  0
   26.5794  -18.0055   -9.6370 N   0  0  0  0  0  0  0  0  0  0  0  0
   26.4102  -19.1186   -8.9076 C   0  0  0  0  0  0  0  0  0  0  0  0
   26.7976  -19.4840   -7.6169 C   0  0  0  0  0  0  0  0  0  0  0  0
   26.4534  -20.7205   -7.1210 C   0  0  0  0  0  0  0  0  0  0  0  0
   25.7296  -21.6151   -7.8730 C   0  0  0  0  0  0  0  0  0  0  0  0
   25.3452  -21.2581   -9.1500 C   0  0  0  0  0  0  0  0  0  0  0  0
   25.6911  -20.0131   -9.6528 C   0  0  0  0  0  0  0  0  0  0  0  0
   24.3172  -22.2916  -13.0518 C   0  0  0  0  0  0  0  0  0  0  0  0
   24.4783  -22.8377  -14.1705 O   0  0  0  0  0  0  0  0  0  0  0  0
   23.2444  -22.7623  -12.3042 O   0  0  0  0  0  0  0  0  0  0  0  0
  2  1  1  0
  3  2  1  0
  4  3  2  0
  5  3  1  0
  6  7  1  1
  6  5  1  0
  8  7  1  0
  9  8  2  0
 10  9  1  0
 11 12  1  0
 11 10  2  0
 12 13  2  0
 13  8  1  0
 14 15  2  0
 14  6  1  0
 16 14  1  0
 17 16  1  0
 17 18  1  6
 19 18  1  0
 20 19  2  0
 21 20  1  0
 22 21  1  0
 22 27  2  0
 23 22  1  0
 24 23  2  0
 24 25  1  0
 25 26  2  0
 26 27  1  0
 27 19  1  0
 28 30  1  0
 28 17  1  0
 29 28  2  0
M  END
$$$$
