GFW.pdb
     RDKit          3D

 30 32  0  0  1  0  0  0  0  0999 V2000
   27.3324  -23.1114  -17.7975 N   0  0  0  0  0  0  0  0  0  0  0  0
   27.3288  -21.8220  -17.1777 C   0  0  0  0  0  0  0  0  0  0  0  0
   26.6796  -21.9230  -15.8488 C   0  0  0  0  0  0  0  0  0  0  0  0
   25.8248  -22.7999  -15.6596 O   0  0  0  0  0  0  0  0  0  0  0  0
   27.0304  -21.0220  -14.7936 N   0  0  0  0  0  0  0  0  0  0  0  0
   26.3975  -21.1027  -13.5022 C   0  0  1  0  0  0  0  0  0  0  0  0
   27.2951  -20.6075  -12.4008 C   0  0  0  0  0  0  0  0  0  0  0  0
   26.5498  -20.5914  -11.1182 C   0  0  0  0  0  0  0  0  0  0  0  0
   25.9606  -19.4487  -10.6451 C   0  0  0  0  0  0  0  0  0  0  0  0
   25.2748  -19.4448   -9.4621 C   0  0  0  0  0  0  0  0  0  0  0  0
   25.1845  -20.6349   -8.7388 C   0  0  0  0  0  0  0  0  0  0  0  0
   25.7806  -21.7769   -9.2242 C   0  0  0  0  0  0  0  0  0  0  0  0
   26.4661  -21.7677  -10.4128 C   0  0  0  0  0  0  0  0  0  0  0  0
   25.1277  -20.3102  -13.5119 C   0  0  0  0  0  0  0  0  0  0  0  0
   25.1840  -19.1136  -13.8505 O   0  0  0  0  0  0  0  0  0  0  0  0
   23.8816  -20.8679  -13.1541 N   0  0  0  0  0  0  0  0  0  0  0  0
   22.6950  -20.0500  -13.2347 C   0  0  1  0  0  0  0  0  0  0  0  0
   22.5148  -19.4194  -14.5571 C   0  0  0  0  0  0  0  0  0  0  0  0
   21.8986  -20.2436  -15.6170 C   0  0  0  0  0  0  0  0  0  0  0  0
   20.5721  -20.7041  -15.6044 C   0  0  0  0  0  0  0  0  0  0  0  0
   20.3575  -21.4474  -16.6927 N   0  0  0  0  0  0  0  0  0  0  0  0
   21.4859  -21.4926  -17.4170 C   0  0  0  0  0  0  0  0  0  0  0  0
   21.8201  -22.0996  -18.6292 C   0  0  0  0  0  0  0  0  0  0  0  0
   23.0865  -21.9494  -19.1460 C   0  0  0  0  0  0  0  0  0  0  0  0
   24.0415  -21.2085  -18.4912 C   0  0  0  0  0  0  0  0  0  0  0  0
   23.7154  -20.6073  -17.2920 C   0  0  0  0  0  0  0  0  0  0  0  0
   22.4404  -20.7574  -16.7683 C   0  0  0  0  0  0  0  0  0  0  0  0
   21.5296  -20.6756  -12.5967 C   0  0  0  0  0  0  0  0  0  0  0  0
   21.5507  -21.9123  -12.3821 O   0  0  0  0  0  0  0  0  0  0  0  0
   20.3726  -20.0177  -12.1967 O   0  0  0  0  0  0  0  0  0  0  0  0
  2  1  1  0
  3  2  1  0
  4  3  2  0
  5  3  1  0
  6  7  1  1
  6  5  1  0
  8  7  1  0
  9  8  2  0
 10  9  1  0
 11 12  1  0
 11 10  2  0
 12 13  2  0
 13  8  1  0
 14 15  2  0
 14  6  1  0
 16 14  1  0
 17 16  1  0
 17 18  1  6
 19 18  1  0
 20 19  2  0
 21 20  1  0
 22 21  1  0
 22 27  2  0
 23 22  1  0
 24 23  2  0
 24 25  1  0
 25 26  2  0
 26 27  1  0
 27 19  1  0
 28 30  1  0
 28 17  1  0
 29 28  2  0
M  END
$$$$
