HWY.pdb
     RDKit          3D

 37 40  0  0  1  0  0  0  0  0999 V2000
    6.9858  -17.1572   20.2072 N   0  0  0  0  0  0  0  0  0  0  0  0
    8.3131  -16.5072   20.2469 C   0  0  1  0  0  0  0  0  0  0  0  0
    8.2532  -15.3719   19.2773 C   0  0  0  0  0  0  0  0  0  0  0  0
    8.1458  -15.7890   17.8793 C   0  0  0  0  0  0  0  0  0  0  0  0
    9.1294  -16.2291   17.0126 C   0  0  0  0  0  0  0  0  0  0  0  0
    8.5480  -16.4717   15.8283 N   0  0  0  0  0  0  0  0  0  0  0  0
    7.2375  -16.2025   15.9127 C   0  0  0  0  0  0  0  0  0  0  0  0
    7.0076  -15.7926   17.1512 N   0  0  0  0  0  0  0  0  0  0  0  0
    8.5272  -16.0739   21.6371 C   0  0  0  0  0  0  0  0  0  0  0  0
    8.4254  -14.8306   21.9345 O   0  0  0  0  0  0  0  0  0  0  0  0
    8.8390  -16.9482   22.6969 N   0  0  0  0  0  0  0  0  0  0  0  0
    9.3949  -16.4464   23.9624 C   0  0  1  0  0  0  0  0  0  0  0  0
    8.3720  -16.8216   25.0370 C   0  0  0  0  0  0  0  0  0  0  0  0
    7.4509  -15.7162   25.3580 C   0  0  0  0  0  0  0  0  0  0  0  0
    6.0447  -15.8455   25.3497 C   0  0  0  0  0  0  0  0  0  0  0  0
    5.4869  -14.6959   25.7107 N   0  0  0  0  0  0  0  0  0  0  0  0
    6.4215  -13.7798   25.9675 C   0  0  0  0  0  0  0  0  0  0  0  0
    6.3589  -12.4684   26.3582 C   0  0  0  0  0  0  0  0  0  0  0  0
    7.5155  -11.7229   26.5482 C   0  0  0  0  0  0  0  0  0  0  0  0
    8.7072  -12.3658   26.3248 C   0  0  0  0  0  0  0  0  0  0  0  0
    8.7948  -13.6956   25.9282 C   0  0  0  0  0  0  0  0  0  0  0  0
    7.6398  -14.4143   25.7475 C   0  0  0  0  0  0  0  0  0  0  0  0
   10.7162  -16.9885   24.2148 C   0  0  0  0  0  0  0  0  0  0  0  0
   10.9507  -18.2069   23.9737 O   0  0  0  0  0  0  0  0  0  0  0  0
   14.0759  -15.6961   18.7739 O   0  0  0  0  0  0  0  0  0  0  0  0
   14.0986  -15.7483   20.1782 C   0  0  0  0  0  0  0  0  0  0  0  0
   14.7905  -16.7473   20.8283 C   0  0  0  0  0  0  0  0  0  0  0  0
   14.8364  -16.8320   22.2143 C   0  0  0  0  0  0  0  0  0  0  0  0
   14.1771  -15.8993   22.9861 C   0  0  0  0  0  0  0  0  0  0  0  0
   14.2066  -15.9642   24.4689 C   0  0  0  0  0  0  0  0  0  0  0  0
   13.0556  -16.8267   25.0096 C   0  0  2  0  0  0  0  0  0  0  0  0
   11.7962  -16.1784   24.7321 N   0  0  0  0  0  0  0  0  0  0  0  0
   13.2589  -17.1306   26.4299 C   0  0  0  0  0  0  0  0  0  0  0  0
   12.4290  -16.7231   27.2742 O   0  0  0  0  0  0  0  0  0  0  0  0
   13.4857  -14.9010   22.3338 C   0  0  0  0  0  0  0  0  0  0  0  0
   13.4396  -14.8160   20.9521 C   0  0  0  0  0  0  0  0  0  0  0  0
   14.3471  -17.8602   26.8788 O   0  0  0  0  0  0  0  0  0  0  0  0
  2  1  1  1
  3  4  1  0
  3  2  1  0
  4  5  2  0
  6  5  1  0
  7  6  1  0
  8  7  2  0
  8  4  1  0
  9  2  1  0
  9 11  1  0
 10  9  2  0
 12 11  1  0
 12 13  1  1
 14 13  1  0
 14 15  2  0
 16 15  1  0
 17 22  2  0
 17 16  1  0
 18 17  1  0
 19 20  1  0
 19 18  2  0
 20 21  2  0
 21 22  1  0
 22 14  1  0
 23 12  1  0
 24 23  2  0
 25 26  1  0
 26 27  2  0
 26 36  1  0
 27 28  1  0
 28 29  2  0
 29 30  1  0
 31 30  1  1
 31 32  1  0
 32 23  1  0
 33 37  1  0
 33 31  1  0
 34 33  2  0
 35 29  1  0
 36 35  2  0
M  END
$$$$
