HWY.pdb
     RDKit          3D

 37 40  0  0  1  0  0  0  0  0999 V2000
    9.3670  -17.9383   18.6553 N   0  0  0  0  0  0  0  0  0  0  0  0
   10.4421  -16.9407   18.8417 C   0  0  1  0  0  0  0  0  0  0  0  0
   10.3345  -15.9891   17.6946 C   0  0  0  0  0  0  0  0  0  0  0  0
   10.3990  -16.6309   16.3817 C   0  0  0  0  0  0  0  0  0  0  0  0
    9.4784  -17.4507   15.7550 C   0  0  0  0  0  0  0  0  0  0  0  0
    9.9961  -17.8119   14.5714 N   0  0  0  0  0  0  0  0  0  0  0  0
   11.2060  -17.2534   14.4260 C   0  0  0  0  0  0  0  0  0  0  0  0
   11.4374  -16.5454   15.5214 N   0  0  0  0  0  0  0  0  0  0  0  0
   10.2041  -16.3058   20.1481 C   0  0  0  0  0  0  0  0  0  0  0  0
   11.0357  -15.4345   20.5882 O   0  0  0  0  0  0  0  0  0  0  0  0
    9.0968  -16.5877   20.9722 N   0  0  0  0  0  0  0  0  0  0  0  0
    8.9649  -15.9844   22.3067 C   0  0  1  0  0  0  0  0  0  0  0  0
    7.5048  -16.1989   22.7113 C   0  0  0  0  0  0  0  0  0  0  0  0
    7.1684  -15.5561   23.9947 C   0  0  0  0  0  0  0  0  0  0  0  0
    6.7534  -16.2707   25.1397 C   0  0  0  0  0  0  0  0  0  0  0  0
    6.5551  -15.4279   26.1464 N   0  0  0  0  0  0  0  0  0  0  0  0
    6.8071  -14.1744   25.7670 C   0  0  0  0  0  0  0  0  0  0  0  0
    6.7440  -12.9722   26.4204 C   0  0  0  0  0  0  0  0  0  0  0  0
    7.0577  -11.7865   25.7683 C   0  0  0  0  0  0  0  0  0  0  0  0
    7.4286  -11.8870   24.4508 C   0  0  0  0  0  0  0  0  0  0  0  0
    7.4998  -13.0959   23.7676 C   0  0  0  0  0  0  0  0  0  0  0  0
    7.1870  -14.2555   24.4312 C   0  0  0  0  0  0  0  0  0  0  0  0
    9.9099  -16.5582   23.2454 C   0  0  0  0  0  0  0  0  0  0  0  0
   10.2612  -17.7661   23.1222 O   0  0  0  0  0  0  0  0  0  0  0  0
    8.8374  -15.1244   30.7689 O   0  0  0  0  0  0  0  0  0  0  0  0
    9.6374  -15.1682   29.6142 C   0  0  0  0  0  0  0  0  0  0  0  0
   10.3173  -16.3193   29.2795 C   0  0  0  0  0  0  0  0  0  0  0  0
   11.1172  -16.4012   28.1465 C   0  0  0  0  0  0  0  0  0  0  0  0
   11.2515  -15.3102   27.3148 C   0  0  0  0  0  0  0  0  0  0  0  0
   12.0999  -15.3668   26.0979 C   0  0  0  0  0  0  0  0  0  0  0  0
   11.5549  -16.3889   25.0884 C   0  0  2  0  0  0  0  0  0  0  0  0
   10.4820  -15.7916   24.3296 N   0  0  0  0  0  0  0  0  0  0  0  0
   11.1733  -17.6328   25.7651 C   0  0  0  0  0  0  0  0  0  0  0  0
   12.0515  -18.3239   26.3298 O   0  0  0  0  0  0  0  0  0  0  0  0
   10.5706  -14.1599   27.6514 C   0  0  0  0  0  0  0  0  0  0  0  0
    9.7729  -14.0777   28.7807 C   0  0  0  0  0  0  0  0  0  0  0  0
    9.8625  -18.0780   25.8043 O   0  0  0  0  0  0  0  0  0  0  0  0
  2  1  1  6
  3  4  1  0
  3  2  1  0
  4  5  2  0
  6  5  1  0
  7  6  1  0
  8  7  2  0
  8  4  1  0
  9  2  1  0
  9 11  1  0
 10  9  2  0
 12 11  1  0
 12 13  1  1
 14 13  1  0
 14 15  2  0
 16 15  1  0
 17 22  2  0
 17 16  1  0
 18 17  1  0
 19 20  1  0
 19 18  2  0
 20 21  2  0
 21 22  1  0
 22 14  1  0
 23 12  1  0
 24 23  2  0
 25 26  1  0
 26 27  2  0
 26 36  1  0
 27 28  1  0
 28 29  2  0
 29 30  1  0
 31 30  1  1
 31 32  1  0
 32 23  1  0
 33 37  1  0
 33 31  1  0
 34 33  2  0
 35 29  1  0
 36 35  2  0
M  END
$$$$
