HWY.pdb
     RDKit          3D

 37 40  0  0  1  0  0  0  0  0999 V2000
    8.3661  -17.4858   19.3852 N   0  0  0  0  0  0  0  0  0  0  0  0
    9.0358  -16.1682   19.4159 C   0  0  1  0  0  0  0  0  0  0  0  0
    8.2449  -15.2748   18.5163 C   0  0  0  0  0  0  0  0  0  0  0  0
    8.3021  -15.6518   17.1041 C   0  0  0  0  0  0  0  0  0  0  0  0
    9.2400  -15.3253   16.1417 C   0  0  0  0  0  0  0  0  0  0  0  0
    8.8498  -15.8868   14.9876 N   0  0  0  0  0  0  0  0  0  0  0  0
    7.7038  -16.5543   15.1829 C   0  0  0  0  0  0  0  0  0  0  0  0
    7.3843  -16.4055   16.4598 N   0  0  0  0  0  0  0  0  0  0  0  0
    9.0335  -15.7284   20.8205 C   0  0  0  0  0  0  0  0  0  0  0  0
    9.0579  -14.4750   21.0905 O   0  0  0  0  0  0  0  0  0  0  0  0
    8.9998  -16.6062   21.9219 N   0  0  0  0  0  0  0  0  0  0  0  0
    9.2408  -16.1242   23.2901 C   0  0  1  0  0  0  0  0  0  0  0  0
    8.1768  -16.8014   24.1568 C   0  0  0  0  0  0  0  0  0  0  0  0
    7.2584  -15.8372   24.7894 C   0  0  0  0  0  0  0  0  0  0  0  0
    5.9905  -16.1888   25.3020 C   0  0  0  0  0  0  0  0  0  0  0  0
    5.4116  -15.1204   25.8373 N   0  0  0  0  0  0  0  0  0  0  0  0
    6.2017  -14.0518   25.7256 C   0  0  0  0  0  0  0  0  0  0  0  0
    6.0589  -12.7433   26.1046 C   0  0  0  0  0  0  0  0  0  0  0  0
    7.0575  -11.8119   25.8498 C   0  0  0  0  0  0  0  0  0  0  0  0
    8.1789  -12.2710   25.2055 C   0  0  0  0  0  0  0  0  0  0  0  0
    8.3456  -13.5941   24.8117 C   0  0  0  0  0  0  0  0  0  0  0  0
    7.3472  -14.4981   25.0745 C   0  0  0  0  0  0  0  0  0  0  0  0
   10.5963  -16.4060   23.7222 C   0  0  0  0  0  0  0  0  0  0  0  0
   11.2519  -17.3327   23.1660 O   0  0  0  0  0  0  0  0  0  0  0  0
    9.2466  -15.7950   30.7038 O   0  0  0  0  0  0  0  0  0  0  0  0
   10.1599  -15.6483   29.6457 C   0  0  0  0  0  0  0  0  0  0  0  0
   11.1450  -16.5895   29.4385 C   0  0  0  0  0  0  0  0  0  0  0  0
   12.0655  -16.4793   28.4037 C   0  0  0  0  0  0  0  0  0  0  0  0
   12.0128  -15.4037   27.5433 C   0  0  0  0  0  0  0  0  0  0  0  0
   12.9830  -15.2577   26.4293 C   0  0  0  0  0  0  0  0  0  0  0  0
   12.5517  -16.0817   25.2061 C   0  0  2  0  0  0  0  0  0  0  0  0
   11.2423  -15.6540   24.7745 N   0  0  0  0  0  0  0  0  0  0  0  0
   12.6351  -17.5175   25.4931 C   0  0  0  0  0  0  0  0  0  0  0  0
   11.5883  -18.2038   25.5230 O   0  0  0  0  0  0  0  0  0  0  0  0
   11.0266  -14.4634   27.7523 C   0  0  0  0  0  0  0  0  0  0  0  0
   10.1087  -14.5728   28.7837 C   0  0  0  0  0  0  0  0  0  0  0  0
   13.8423  -18.1515   25.7353 O   0  0  0  0  0  0  0  0  0  0  0  0
  2  1  1  1
  3  4  1  0
  3  2  1  0
  4  5  2  0
  6  5  1  0
  7  6  1  0
  8  7  2  0
  8  4  1  0
  9  2  1  0
  9 11  1  0
 10  9  2  0
 12 11  1  0
 12 13  1  1
 14 13  1  0
 14 15  2  0
 16 15  1  0
 17 22  2  0
 17 16  1  0
 18 17  1  0
 19 20  1  0
 19 18  2  0
 20 21  2  0
 21 22  1  0
 22 14  1  0
 23 12  1  0
 24 23  2  0
 25 26  1  0
 26 27  2  0
 26 36  1  0
 27 28  1  0
 28 29  2  0
 29 30  1  0
 31 30  1  1
 31 32  1  0
 32 23  1  0
 33 37  1  0
 33 31  1  0
 34 33  2  0
 35 29  1  0
 36 35  2  0
M  END
$$$$
