HWY.pdb
     RDKit          3D

 37 40  0  0  1  0  0  0  0  0999 V2000
    8.3464  -16.2369   20.0673 N   0  0  0  0  0  0  0  0  0  0  0  0
    9.6218  -15.5586   20.3818 C   0  0  1  0  0  0  0  0  0  0  0  0
    9.4648  -14.1417   19.9338 C   0  0  0  0  0  0  0  0  0  0  0  0
    8.9115  -14.0021   18.5868 C   0  0  0  0  0  0  0  0  0  0  0  0
    7.6494  -13.6005   18.1895 C   0  0  0  0  0  0  0  0  0  0  0  0
    7.6091  -13.6547   16.8498 N   0  0  0  0  0  0  0  0  0  0  0  0
    8.7948  -14.0742   16.3858 C   0  0  0  0  0  0  0  0  0  0  0  0
    9.5698  -14.2800   17.4401 N   0  0  0  0  0  0  0  0  0  0  0  0
    9.8206  -15.6904   21.8342 C   0  0  0  0  0  0  0  0  0  0  0  0
   10.8345  -15.1325   22.3867 O   0  0  0  0  0  0  0  0  0  0  0  0
    8.9527  -16.3991   22.6882 N   0  0  0  0  0  0  0  0  0  0  0  0
    9.2507  -16.5574   24.1195 C   0  0  1  0  0  0  0  0  0  0  0  0
    7.8905  -16.5988   24.8194 C   0  0  0  0  0  0  0  0  0  0  0  0
    7.1071  -15.3666   24.6165 C   0  0  0  0  0  0  0  0  0  0  0  0
    6.2319  -15.1696   23.5259 C   0  0  0  0  0  0  0  0  0  0  0  0
    5.6454  -13.9829   23.6307 N   0  0  0  0  0  0  0  0  0  0  0  0
    6.0622  -13.3475   24.7266 C   0  0  0  0  0  0  0  0  0  0  0  0
    5.7674  -12.1217   25.2623 C   0  0  0  0  0  0  0  0  0  0  0  0
    6.3683  -11.6922   26.4387 C   0  0  0  0  0  0  0  0  0  0  0  0
    7.2615  -12.5535   27.0250 C   0  0  0  0  0  0  0  0  0  0  0  0
    7.5758  -13.8019   26.4995 C   0  0  0  0  0  0  0  0  0  0  0  0
    6.9697  -14.2072   25.3370 C   0  0  0  0  0  0  0  0  0  0  0  0
   10.0588  -17.7359   24.3672 C   0  0  0  0  0  0  0  0  0  0  0  0
   10.7433  -18.2354   23.4293 O   0  0  0  0  0  0  0  0  0  0  0  0
   10.5525  -14.0041   30.4027 O   0  0  0  0  0  0  0  0  0  0  0  0
   10.9899  -14.8793   29.3937 C   0  0  0  0  0  0  0  0  0  0  0  0
   11.0526  -14.4578   28.0831 C   0  0  0  0  0  0  0  0  0  0  0  0
   11.4797  -15.2933   27.0585 C   0  0  0  0  0  0  0  0  0  0  0  0
   11.8580  -16.5895   27.3358 C   0  0  0  0  0  0  0  0  0  0  0  0
   12.3175  -17.5062   26.2624 C   0  0  0  0  0  0  0  0  0  0  0  0
   11.4185  -18.7491   26.1716 C   0  0  2  0  0  0  0  0  0  0  0  0
   10.1211  -18.3693   25.6654 N   0  0  0  0  0  0  0  0  0  0  0  0
   11.3645  -19.4449   27.4614 C   0  0  0  0  0  0  0  0  0  0  0  0
   12.4262  -19.8349   27.9984 O   0  0  0  0  0  0  0  0  0  0  0  0
   11.7944  -17.0091   28.6474 C   0  0  0  0  0  0  0  0  0  0  0  0
   11.3688  -16.1766   29.6693 C   0  0  0  0  0  0  0  0  0  0  0  0
   10.1693  -19.6902   28.1168 O   0  0  0  0  0  0  0  0  0  0  0  0
  2  1  1  1
  3  4  1  0
  3  2  1  0
  4  5  2  0
  6  5  1  0
  7  6  1  0
  8  7  2  0
  8  4  1  0
  9  2  1  0
  9 11  1  0
 10  9  2  0
 12 11  1  0
 12 13  1  1
 14 13  1  0
 14 15  2  0
 16 15  1  0
 17 22  2  0
 17 16  1  0
 18 17  1  0
 19 20  1  0
 19 18  2  0
 20 21  2  0
 21 22  1  0
 22 14  1  0
 23 12  1  0
 24 23  2  0
 25 26  1  0
 26 27  2  0
 26 36  1  0
 27 28  1  0
 28 29  2  0
 29 30  1  0
 31 30  1  1
 31 32  1  0
 32 23  1  0
 33 37  1  0
 33 31  1  0
 34 33  2  0
 35 29  1  0
 36 35  2  0
M  END
$$$$
