HWY.pdb
     RDKit          3D

 37 40  0  0  1  0  0  0  0  0999 V2000
    9.4700  -19.1378   19.4959 N   0  0  0  0  0  0  0  0  0  0  0  0
   10.7871  -18.4663   19.5013 C   0  0  1  0  0  0  0  0  0  0  0  0
   11.1644  -18.2717   18.0687 C   0  0  0  0  0  0  0  0  0  0  0  0
   11.3092  -19.5185   17.3174 C   0  0  0  0  0  0  0  0  0  0  0  0
   10.3382  -20.3277   16.7565 C   0  0  0  0  0  0  0  0  0  0  0  0
   10.9586  -21.3732   16.1897 N   0  0  0  0  0  0  0  0  0  0  0  0
   12.2819  -21.2566   16.3705 C   0  0  0  0  0  0  0  0  0  0  0  0
   12.4804  -20.1371   17.0501 N   0  0  0  0  0  0  0  0  0  0  0  0
   10.6107  -17.2015   20.2331 C   0  0  0  0  0  0  0  0  0  0  0  0
   11.5978  -16.3898   20.3396 O   0  0  0  0  0  0  0  0  0  0  0  0
    9.4027  -16.8017   20.8378 N   0  0  0  0  0  0  0  0  0  0  0  0
    9.3397  -15.6190   21.7093 C   0  0  1  0  0  0  0  0  0  0  0  0
    7.8525  -15.3982   21.9942 C   0  0  0  0  0  0  0  0  0  0  0  0
    7.5938  -14.1546   22.7425 C   0  0  0  0  0  0  0  0  0  0  0  0
    7.6898  -12.8666   22.1715 C   0  0  0  0  0  0  0  0  0  0  0  0
    7.3686  -11.9500   23.0769 N   0  0  0  0  0  0  0  0  0  0  0  0
    7.0570  -12.5257   24.2388 C   0  0  0  0  0  0  0  0  0  0  0  0
    6.6757  -12.0239   25.4550 C   0  0  0  0  0  0  0  0  0  0  0  0
    6.4162  -12.8679   26.5273 C   0  0  0  0  0  0  0  0  0  0  0  0
    6.5621  -14.2137   26.3020 C   0  0  0  0  0  0  0  0  0  0  0  0
    6.9478  -14.7454   25.0764 C   0  0  0  0  0  0  0  0  0  0  0  0
    7.1979  -13.8938   24.0299 C   0  0  0  0  0  0  0  0  0  0  0  0
   10.1325  -15.8004   22.9101 C   0  0  0  0  0  0  0  0  0  0  0  0
   10.9664  -14.9137   23.2509 O   0  0  0  0  0  0  0  0  0  0  0  0
   11.3335  -15.1529   31.2433 O   0  0  0  0  0  0  0  0  0  0  0  0
   10.9145  -15.3156   29.9117 C   0  0  0  0  0  0  0  0  0  0  0  0
   10.9839  -14.2632   29.0246 C   0  0  0  0  0  0  0  0  0  0  0  0
   10.5796  -14.3854   27.7010 C   0  0  0  0  0  0  0  0  0  0  0  0
   10.0897  -15.5870   27.2360 C   0  0  0  0  0  0  0  0  0  0  0  0
    9.6487  -15.7480   25.8277 C   0  0  0  0  0  0  0  0  0  0  0  0
   10.4343  -16.8660   25.1246 C   0  0  2  0  0  0  0  0  0  0  0  0
   10.0014  -16.9688   23.7515 N   0  0  0  0  0  0  0  0  0  0  0  0
   10.3247  -18.1241   25.8703 C   0  0  0  0  0  0  0  0  0  0  0  0
   10.3674  -18.1069   27.1216 O   0  0  0  0  0  0  0  0  0  0  0  0
   10.0210  -16.6384   28.1249 C   0  0  0  0  0  0  0  0  0  0  0  0
   10.4241  -16.5171   29.4446 C   0  0  0  0  0  0  0  0  0  0  0  0
   10.1739  -19.3458   25.2359 O   0  0  0  0  0  0  0  0  0  0  0  0
  2  1  1  6
  3  4  1  0
  3  2  1  0
  4  5  2  0
  6  5  1  0
  7  6  1  0
  8  7  2  0
  8  4  1  0
  9  2  1  0
  9 11  1  0
 10  9  2  0
 12 11  1  0
 12 13  1  1
 14 13  1  0
 14 15  2  0
 16 15  1  0
 17 22  2  0
 17 16  1  0
 18 17  1  0
 19 20  1  0
 19 18  2  0
 20 21  2  0
 21 22  1  0
 22 14  1  0
 23 12  1  0
 24 23  2  0
 25 26  1  0
 26 27  2  0
 26 36  1  0
 27 28  1  0
 28 29  2  0
 29 30  1  0
 31 30  1  1
 31 32  1  0
 32 23  1  0
 33 37  1  0
 33 31  1  0
 34 33  2  0
 35 29  1  0
 36 35  2  0
M  END
$$$$
