HWY.pdb
     RDKit          3D

 37 40  0  0  1  0  0  0  0  0999 V2000
   11.4982  -16.2114   20.3806 N   0  0  0  0  0  0  0  0  0  0  0  0
   11.0157  -17.3133   21.2400 C   0  0  1  0  0  0  0  0  0  0  0  0
   12.1095  -18.3308   21.2711 C   0  0  0  0  0  0  0  0  0  0  0  0
   12.2466  -19.0942   20.0308 C   0  0  0  0  0  0  0  0  0  0  0  0
   13.1018  -18.8946   18.9626 C   0  0  0  0  0  0  0  0  0  0  0  0
   12.8374  -19.8402   18.0486 N   0  0  0  0  0  0  0  0  0  0  0  0
   11.8499  -20.6283   18.4969 C   0  0  0  0  0  0  0  0  0  0  0  0
   11.5028  -20.1696   19.6901 N   0  0  0  0  0  0  0  0  0  0  0  0
   10.7321  -16.7241   22.5587 C   0  0  0  0  0  0  0  0  0  0  0  0
   11.5514  -15.8750   23.0610 O   0  0  0  0  0  0  0  0  0  0  0  0
    9.5929  -17.0276   23.3299 N   0  0  0  0  0  0  0  0  0  0  0  0
    9.3667  -16.3970   24.6389 C   0  0  1  0  0  0  0  0  0  0  0  0
    7.8500  -16.4073   24.8425 C   0  0  0  0  0  0  0  0  0  0  0  0
    7.2406  -15.0780   24.6553 C   0  0  0  0  0  0  0  0  0  0  0  0
    6.5463  -14.6960   23.4865 C   0  0  0  0  0  0  0  0  0  0  0  0
    6.0846  -13.4587   23.6238 N   0  0  0  0  0  0  0  0  0  0  0  0
    6.4179  -12.9619   24.8158 C   0  0  0  0  0  0  0  0  0  0  0  0
    6.1901  -11.7532   25.4187 C   0  0  0  0  0  0  0  0  0  0  0  0
    6.6713  -11.4885   26.6946 C   0  0  0  0  0  0  0  0  0  0  0  0
    7.3782  -12.4925   27.3075 C   0  0  0  0  0  0  0  0  0  0  0  0
    7.6215  -13.7267   26.7151 C   0  0  0  0  0  0  0  0  0  0  0  0
    7.1358  -13.9678   25.4545 C   0  0  0  0  0  0  0  0  0  0  0  0
   10.0909  -17.0827   25.6918 C   0  0  0  0  0  0  0  0  0  0  0  0
   10.1871  -18.3429   25.6686 O   0  0  0  0  0  0  0  0  0  0  0  0
   16.3053  -18.0133   23.9202 O   0  0  0  0  0  0  0  0  0  0  0  0
   15.4185  -17.6616   24.9524 C   0  0  0  0  0  0  0  0  0  0  0  0
   15.2783  -18.4719   26.0583 C   0  0  0  0  0  0  0  0  0  0  0  0
   14.4125  -18.1579   27.0986 C   0  0  0  0  0  0  0  0  0  0  0  0
   13.6587  -17.0050   27.0464 C   0  0  0  0  0  0  0  0  0  0  0  0
   12.7242  -16.6433   28.1417 C   0  0  0  0  0  0  0  0  0  0  0  0
   11.3037  -17.1512   27.8494 C   0  0  2  0  0  0  0  0  0  0  0  0
   10.7242  -16.3731   26.7807 N   0  0  0  0  0  0  0  0  0  0  0  0
   10.4952  -17.1615   29.0730 C   0  0  0  0  0  0  0  0  0  0  0  0
   10.8966  -17.7977   30.0739 O   0  0  0  0  0  0  0  0  0  0  0  0
   13.8004  -16.1960   25.9393 C   0  0  0  0  0  0  0  0  0  0  0  0
   14.6635  -16.5085   24.9020 C   0  0  0  0  0  0  0  0  0  0  0  0
    9.2896  -16.4862   29.1651 O   0  0  0  0  0  0  0  0  0  0  0  0
  2  1  1  6
  3  4  1  0
  3  2  1  0
  4  5  2  0
  6  5  1  0
  7  6  1  0
  8  7  2  0
  8  4  1  0
  9  2  1  0
  9 11  1  0
 10  9  2  0
 12 11  1  0
 12 13  1  1
 14 13  1  0
 14 15  2  0
 16 15  1  0
 17 22  2  0
 17 16  1  0
 18 17  1  0
 19 20  1  0
 19 18  2  0
 20 21  2  0
 21 22  1  0
 22 14  1  0
 23 12  1  0
 24 23  2  0
 25 26  1  0
 26 27  2  0
 26 36  1  0
 27 28  1  0
 28 29  2  0
 29 30  1  0
 31 30  1  1
 31 32  1  0
 32 23  1  0
 33 37  1  0
 33 31  1  0
 34 33  2  0
 35 29  1  0
 36 35  2  0
M  END
$$$$
