HWY.pdb
     RDKit          3D

 37 40  0  0  1  0  0  0  0  0999 V2000
    7.8043  -15.9764   18.8914 N   0  0  0  0  0  0  0  0  0  0  0  0
    8.9396  -15.0419   19.0440 C   0  0  1  0  0  0  0  0  0  0  0  0
    8.5043  -13.7498   18.4326 C   0  0  0  0  0  0  0  0  0  0  0  0
    8.2055  -13.8393   17.0034 C   0  0  0  0  0  0  0  0  0  0  0  0
    7.0353  -13.5462   16.3273 C   0  0  0  0  0  0  0  0  0  0  0  0
    7.2403  -13.8090   15.0280 N   0  0  0  0  0  0  0  0  0  0  0  0
    8.4925  -14.2562   14.8569 C   0  0  0  0  0  0  0  0  0  0  0  0
    9.0631  -14.2700   16.0523 N   0  0  0  0  0  0  0  0  0  0  0  0
    9.2091  -14.9404   20.4874 C   0  0  0  0  0  0  0  0  0  0  0  0
   10.1245  -14.1454   20.9052 O   0  0  0  0  0  0  0  0  0  0  0  0
    8.5131  -15.6678   21.4729 N   0  0  0  0  0  0  0  0  0  0  0  0
    8.9775  -15.7012   22.8678 C   0  0  1  0  0  0  0  0  0  0  0  0
    7.8432  -16.3527   23.6621 C   0  0  0  0  0  0  0  0  0  0  0  0
    7.1209  -15.3926   24.5164 C   0  0  0  0  0  0  0  0  0  0  0  0
    6.2187  -15.7777   25.5322 C   0  0  0  0  0  0  0  0  0  0  0  0
    5.7522  -14.6989   26.1498 N   0  0  0  0  0  0  0  0  0  0  0  0
    6.2763  -13.5916   25.6227 C   0  0  0  0  0  0  0  0  0  0  0  0
    6.1112  -12.2599   25.8975 C   0  0  0  0  0  0  0  0  0  0  0  0
    6.7880  -11.2901   25.1689 C   0  0  0  0  0  0  0  0  0  0  0  0
    7.6192  -11.7359   24.1721 C   0  0  0  0  0  0  0  0  0  0  0  0
    7.8024  -13.0821   23.8756 C   0  0  0  0  0  0  0  0  0  0  0  0
    7.1250  -14.0237   24.6087 C   0  0  0  0  0  0  0  0  0  0  0  0
   10.2403  -16.4035   22.9911 C   0  0  0  0  0  0  0  0  0  0  0  0
   10.3636  -17.5627   22.5023 O   0  0  0  0  0  0  0  0  0  0  0  0
   10.6902  -16.1639   31.4421 O   0  0  0  0  0  0  0  0  0  0  0  0
   10.5899  -15.9768   30.0528 C   0  0  0  0  0  0  0  0  0  0  0  0
   10.5120  -17.0617   29.2064 C   0  0  0  0  0  0  0  0  0  0  0  0
   10.4118  -16.9171   27.8282 C   0  0  0  0  0  0  0  0  0  0  0  0
   10.3876  -15.6592   27.2651 C   0  0  0  0  0  0  0  0  0  0  0  0
   10.2825  -15.4727   25.7961 C   0  0  0  0  0  0  0  0  0  0  0  0
   11.5216  -16.0272   25.0762 C   0  0  2  0  0  0  0  0  0  0  0  0
   11.3853  -15.8207   23.6541 N   0  0  0  0  0  0  0  0  0  0  0  0
   11.7526  -17.4273   25.4465 C   0  0  0  0  0  0  0  0  0  0  0  0
   10.9445  -18.3073   25.0719 O   0  0  0  0  0  0  0  0  0  0  0  0
   10.4656  -14.5755   28.1134 C   0  0  0  0  0  0  0  0  0  0  0  0
   10.5655  -14.7190   29.4875 C   0  0  0  0  0  0  0  0  0  0  0  0
   12.8441  -17.8187   26.2039 O   0  0  0  0  0  0  0  0  0  0  0  0
  2  1  1  1
  3  4  1  0
  3  2  1  0
  4  5  2  0
  6  5  1  0
  7  6  1  0
  8  7  2  0
  8  4  1  0
  9  2  1  0
  9 11  1  0
 10  9  2  0
 12 11  1  0
 12 13  1  1
 14 13  1  0
 14 15  2  0
 16 15  1  0
 17 22  2  0
 17 16  1  0
 18 17  1  0
 19 20  1  0
 19 18  2  0
 20 21  2  0
 21 22  1  0
 22 14  1  0
 23 12  1  0
 24 23  2  0
 25 26  1  0
 26 27  2  0
 26 36  1  0
 27 28  1  0
 28 29  2  0
 29 30  1  0
 31 30  1  1
 31 32  1  0
 32 23  1  0
 33 37  1  0
 33 31  1  0
 34 33  2  0
 35 29  1  0
 36 35  2  0
M  END
$$$$
