HWY.pdb
     RDKit          3D

 37 40  0  0  1  0  0  0  0  0999 V2000
   10.8550  -17.8221   18.1098 N   0  0  0  0  0  0  0  0  0  0  0  0
   10.7872  -18.4868   19.4286 C   0  0  1  0  0  0  0  0  0  0  0  0
   12.0677  -19.2409   19.5845 C   0  0  0  0  0  0  0  0  0  0  0  0
   12.1003  -20.5127   18.8625 C   0  0  0  0  0  0  0  0  0  0  0  0
   12.3605  -20.7621   17.5275 C   0  0  0  0  0  0  0  0  0  0  0  0
   12.2509  -22.0848   17.3327 N   0  0  0  0  0  0  0  0  0  0  0  0
   11.9320  -22.6799   18.4908 C   0  0  0  0  0  0  0  0  0  0  0  0
   11.8441  -21.7240   19.4035 N   0  0  0  0  0  0  0  0  0  0  0  0
   10.6152  -17.4202   20.4282 C   0  0  0  0  0  0  0  0  0  0  0  0
   11.4530  -16.4502   20.4682 O   0  0  0  0  0  0  0  0  0  0  0  0
    9.5660  -17.3811   21.3676 N   0  0  0  0  0  0  0  0  0  0  0  0
    9.4590  -16.2902   22.3479 C   0  0  1  0  0  0  0  0  0  0  0  0
    7.9752  -15.9178   22.3866 C   0  0  0  0  0  0  0  0  0  0  0  0
    7.7385  -14.5765   22.9509 C   0  0  0  0  0  0  0  0  0  0  0  0
    7.9341  -13.3802   22.2267 C   0  0  0  0  0  0  0  0  0  0  0  0
    7.6090  -12.3394   22.9845 N   0  0  0  0  0  0  0  0  0  0  0  0
    7.2013  -12.7433   24.1884 C   0  0  0  0  0  0  0  0  0  0  0  0
    6.7768  -12.0699   25.3031 C   0  0  0  0  0  0  0  0  0  0  0  0
    6.4124  -12.7536   26.4560 C   0  0  0  0  0  0  0  0  0  0  0  0
    6.5010  -14.1225   26.4151 C   0  0  0  0  0  0  0  0  0  0  0  0
    6.9288  -14.8269   25.2952 C   0  0  0  0  0  0  0  0  0  0  0  0
    7.2829  -14.1318   24.1662 C   0  0  0  0  0  0  0  0  0  0  0  0
    9.9850  -16.6837   23.6408 C   0  0  0  0  0  0  0  0  0  0  0  0
    9.6850  -17.8131   24.1226 O   0  0  0  0  0  0  0  0  0  0  0  0
   11.0607  -15.8577   32.2206 O   0  0  0  0  0  0  0  0  0  0  0  0
   11.0913  -15.5966   30.8399 C   0  0  0  0  0  0  0  0  0  0  0  0
   11.8495  -16.3812   29.9979 C   0  0  0  0  0  0  0  0  0  0  0  0
   11.9050  -16.1546   28.6284 C   0  0  0  0  0  0  0  0  0  0  0  0
   11.1881  -15.1183   28.0695 C   0  0  0  0  0  0  0  0  0  0  0  0
   11.2283  -14.8505   26.6099 C   0  0  0  0  0  0  0  0  0  0  0  0
   11.0663  -16.1481   25.8030 C   0  0  2  0  0  0  0  0  0  0  0  0
   10.8587  -15.8271   24.4111 N   0  0  0  0  0  0  0  0  0  0  0  0
   10.0080  -16.9861   26.3762 C   0  0  0  0  0  0  0  0  0  0  0  0
   10.3045  -18.0832   26.9017 O   0  0  0  0  0  0  0  0  0  0  0  0
   10.4304  -14.3348   28.9134 C   0  0  0  0  0  0  0  0  0  0  0  0
   10.3746  -14.5603   30.2789 C   0  0  0  0  0  0  0  0  0  0  0  0
    8.6764  -16.6059   26.3585 O   0  0  0  0  0  0  0  0  0  0  0  0
  2  1  1  6
  3  4  1  0
  3  2  1  0
  4  5  2  0
  6  5  1  0
  7  6  1  0
  8  7  2  0
  8  4  1  0
  9  2  1  0
  9 11  1  0
 10  9  2  0
 12 11  1  0
 12 13  1  1
 14 13  1  0
 14 15  2  0
 16 15  1  0
 17 22  2  0
 17 16  1  0
 18 17  1  0
 19 20  1  0
 19 18  2  0
 20 21  2  0
 21 22  1  0
 22 14  1  0
 23 12  1  0
 24 23  2  0
 25 26  1  0
 26 27  2  0
 26 36  1  0
 27 28  1  0
 28 29  2  0
 29 30  1  0
 31 30  1  1
 31 32  1  0
 32 23  1  0
 33 37  1  0
 33 31  1  0
 34 33  2  0
 35 29  1  0
 36 35  2  0
M  END
$$$$
