HWY.pdb
     RDKit          3D

 37 40  0  0  1  0  0  0  0  0999 V2000
   10.8452  -16.3172   19.1660 N   0  0  0  0  0  0  0  0  0  0  0  0
   10.8599  -17.2298   20.3290 C   0  0  1  0  0  0  0  0  0  0  0  0
   12.2521  -17.7641   20.4252 C   0  0  0  0  0  0  0  0  0  0  0  0
   12.6057  -18.6975   19.3559 C   0  0  0  0  0  0  0  0  0  0  0  0
   13.0742  -18.4405   18.0804 C   0  0  0  0  0  0  0  0  0  0  0  0
   13.2315  -19.6196   17.4604 N   0  0  0  0  0  0  0  0  0  0  0  0
   12.8811  -20.6101   18.2929 C   0  0  0  0  0  0  0  0  0  0  0  0
   12.5064  -20.0430   19.4299 N   0  0  0  0  0  0  0  0  0  0  0  0
   10.4631  -16.4276   21.4975 C   0  0  0  0  0  0  0  0  0  0  0  0
   11.0625  -15.3194   21.7365 O   0  0  0  0  0  0  0  0  0  0  0  0
    9.4411  -16.7936   22.3955 N   0  0  0  0  0  0  0  0  0  0  0  0
    9.1311  -15.9726   23.5754 C   0  0  1  0  0  0  0  0  0  0  0  0
    7.6035  -15.9198   23.6484 C   0  0  0  0  0  0  0  0  0  0  0  0
    7.1138  -15.2400   24.8614 C   0  0  0  0  0  0  0  0  0  0  0  0
    6.4850  -15.9123   25.9322 C   0  0  0  0  0  0  0  0  0  0  0  0
    6.1862  -15.0450   26.8922 N   0  0  0  0  0  0  0  0  0  0  0  0
    6.5696  -13.8143   26.5502 C   0  0  0  0  0  0  0  0  0  0  0  0
    6.4804  -12.6013   27.1802 C   0  0  0  0  0  0  0  0  0  0  0  0
    6.9623  -11.4458   26.5785 C   0  0  0  0  0  0  0  0  0  0  0  0
    7.5244  -11.5868   25.3345 C   0  0  0  0  0  0  0  0  0  0  0  0
    7.6258  -12.8074   24.6763 C   0  0  0  0  0  0  0  0  0  0  0  0
    7.1445  -13.9368   25.2893 C   0  0  0  0  0  0  0  0  0  0  0  0
    9.7438  -16.5117   24.7742 C   0  0  0  0  0  0  0  0  0  0  0  0
    9.7521  -17.7610   24.9668 O   0  0  0  0  0  0  0  0  0  0  0  0
   15.6592  -17.9490   22.9257 O   0  0  0  0  0  0  0  0  0  0  0  0
   14.8513  -17.4195   23.9466 C   0  0  0  0  0  0  0  0  0  0  0  0
   14.6148  -18.1429   25.0956 C   0  0  0  0  0  0  0  0  0  0  0  0
   13.8223  -17.6532   26.1263 C   0  0  0  0  0  0  0  0  0  0  0  0
   13.2428  -16.4070   26.0204 C   0  0  0  0  0  0  0  0  0  0  0  0
   12.3901  -15.8574   27.1042 C   0  0  0  0  0  0  0  0  0  0  0  0
   10.9280  -16.2999   26.9384 C   0  0  2  0  0  0  0  0  0  0  0  0
   10.3624  -15.6667   25.7710 N   0  0  0  0  0  0  0  0  0  0  0  0
   10.1684  -16.0497   28.1677 C   0  0  0  0  0  0  0  0  0  0  0  0
   10.5759  -16.5222   29.2533 O   0  0  0  0  0  0  0  0  0  0  0  0
   13.4805  -15.6851   24.8704 C   0  0  0  0  0  0  0  0  0  0  0  0
   14.2706  -16.1728   23.8425 C   0  0  0  0  0  0  0  0  0  0  0  0
    9.0030  -15.3015   28.1743 O   0  0  0  0  0  0  0  0  0  0  0  0
  2  1  1  6
  3  4  1  0
  3  2  1  0
  4  5  2  0
  6  5  1  0
  7  6  1  0
  8  7  2  0
  8  4  1  0
  9  2  1  0
  9 11  1  0
 10  9  2  0
 12 11  1  0
 12 13  1  1
 14 13  1  0
 14 15  2  0
 16 15  1  0
 17 22  2  0
 17 16  1  0
 18 17  1  0
 19 20  1  0
 19 18  2  0
 20 21  2  0
 21 22  1  0
 22 14  1  0
 23 12  1  0
 24 23  2  0
 25 26  1  0
 26 27  2  0
 26 36  1  0
 27 28  1  0
 28 29  2  0
 29 30  1  0
 31 30  1  1
 31 32  1  0
 32 23  1  0
 33 37  1  0
 33 31  1  0
 34 33  2  0
 35 29  1  0
 36 35  2  0
M  END
$$$$
