TWI.pdb
     RDKit          3D

 30 31  0  0  1  0  0  0  0  0999 V2000
   27.3594  -18.8934  -14.7273 C   0  0  0  0  0  0  0  0  0  0  0  0
   27.9383  -20.2186  -15.1689 C   0  0  1  0  0  0  0  0  0  0  0  0
   28.7583  -19.9904  -16.2649 O   0  0  0  0  0  0  0  0  0  0  0  0
   28.6686  -20.9194  -14.0280 C   0  0  2  0  0  0  0  0  0  0  0  0
   29.3271  -22.1221  -14.4499 N   0  0  0  0  0  0  0  0  0  0  0  0
   27.6665  -21.2068  -12.9472 C   0  0  0  0  0  0  0  0  0  0  0  0
   26.9971  -22.2399  -13.0438 O   0  0  0  0  0  0  0  0  0  0  0  0
   27.4763  -20.3436  -11.8457 N   0  0  0  0  0  0  0  0  0  0  0  0
   26.3723  -20.4300  -10.8935 C   0  0  1  0  0  0  0  0  0  0  0  0
   26.6912  -19.7402   -9.6220 C   0  0  0  0  0  0  0  0  0  0  0  0
   27.7843  -20.2630   -8.8209 C   0  0  0  0  0  0  0  0  0  0  0  0
   28.8260  -21.0264   -9.3036 C   0  0  0  0  0  0  0  0  0  0  0  0
   29.6575  -21.2951   -8.2940 N   0  0  0  0  0  0  0  0  0  0  0  0
   29.2028  -20.7321   -7.1403 C   0  0  0  0  0  0  0  0  0  0  0  0
   29.7112  -20.7451   -5.8569 C   0  0  0  0  0  0  0  0  0  0  0  0
   29.0088  -20.0830   -4.8685 C   0  0  0  0  0  0  0  0  0  0  0  0
   27.8268  -19.4273   -5.1693 C   0  0  0  0  0  0  0  0  0  0  0  0
   27.3492  -19.4344   -6.4605 C   0  0  0  0  0  0  0  0  0  0  0  0
   28.0342  -20.0940   -7.4893 C   0  0  0  0  0  0  0  0  0  0  0  0
   25.0703  -20.2998  -11.5171 C   0  0  0  0  0  0  0  0  0  0  0  0
   24.7284  -19.2199  -12.1464 O   0  0  0  0  0  0  0  0  0  0  0  0
   23.3936  -23.2229  -15.2345 C   0  0  0  0  0  0  0  0  0  0  0  0
   23.6064  -22.1104  -14.2371 C   0  0  0  0  0  0  0  0  0  0  0  0
   22.4980  -22.1580  -13.2111 C   0  0  2  0  0  0  0  0  0  0  0  0
   21.2263  -21.8039  -13.9222 C   0  0  0  0  0  0  0  0  0  0  0  0
   22.7470  -21.0657  -12.1392 C   0  0  2  0  0  0  0  0  0  0  0  0
   24.0396  -21.2839  -11.5406 N   0  0  0  0  0  0  0  0  0  0  0  0
   21.6065  -20.9213  -11.2785 C   0  0  0  0  0  0  0  0  0  0  0  0
   20.4924  -20.2159  -11.7788 O   0  0  0  0  0  0  0  0  0  0  0  0
   21.4890  -21.3553  -10.1258 O   0  0  0  0  0  0  0  0  0  0  0  0
  2  3  1  0
  2  1  1  1
  4  2  1  0
  4  5  1  6
  6  4  1  0
  6  8  1  0
  7  6  2  0
  9  8  1  0
 10 11  1  0
  9 10  1  1
 11 19  1  0
 12 11  2  0
 12 13  1  0
 13 14  1  0
 14 15  1  0
 15 16  2  0
 17 16  1  0
 18 17  2  0
 19 14  2  0
 19 18  1  0
 20  9  1  0
 21 20  2  0
 22 23  1  0
 23 24  1  0
 24 26  1  0
 24 25  1  6
 26 27  1  1
 26 28  1  0
 27 20  1  0
 28 29  1  0
 30 28  2  0
M  END
$$$$
