TWI.pdb
     RDKit          3D

 30 31  0  0  1  0  0  0  0  0999 V2000
   27.7936  -18.8009  -15.4384 C   0  0  0  0  0  0  0  0  0  0  0  0
   27.0161  -19.3842  -14.2803 C   0  0  1  0  0  0  0  0  0  0  0  0
   25.6717  -19.3998  -14.6240 O   0  0  0  0  0  0  0  0  0  0  0  0
   27.5370  -20.7647  -13.8939 C   0  0  2  0  0  0  0  0  0  0  0  0
   27.2988  -21.7491  -14.9099 N   0  0  0  0  0  0  0  0  0  0  0  0
   26.8830  -21.1585  -12.6007 C   0  0  0  0  0  0  0  0  0  0  0  0
   26.0198  -22.0405  -12.6384 O   0  0  0  0  0  0  0  0  0  0  0  0
   27.2252  -20.5587  -11.3689 N   0  0  0  0  0  0  0  0  0  0  0  0
   26.5285  -20.7827  -10.1050 C   0  0  1  0  0  0  0  0  0  0  0  0
   27.3950  -20.4819   -8.9418 C   0  0  0  0  0  0  0  0  0  0  0  0
   26.7943  -20.5181   -7.6197 C   0  0  0  0  0  0  0  0  0  0  0  0
   25.5436  -21.0215   -7.3310 C   0  0  0  0  0  0  0  0  0  0  0  0
   25.3408  -20.9231   -6.0150 N   0  0  0  0  0  0  0  0  0  0  0  0
   26.4240  -20.3647   -5.4070 C   0  0  0  0  0  0  0  0  0  0  0  0
   26.6706  -20.0591   -4.0835 C   0  0  0  0  0  0  0  0  0  0  0  0
   27.8798  -19.4738   -3.7617 C   0  0  0  0  0  0  0  0  0  0  0  0
   28.8123  -19.2050   -4.7495 C   0  0  0  0  0  0  0  0  0  0  0  0
   28.5333  -19.5237   -6.0596 C   0  0  0  0  0  0  0  0  0  0  0  0
   27.3186  -20.1190   -6.4239 C   0  0  0  0  0  0  0  0  0  0  0  0
   25.1396  -20.3690  -10.1387 C   0  0  0  0  0  0  0  0  0  0  0  0
   24.8068  -19.1422  -10.3904 O   0  0  0  0  0  0  0  0  0  0  0  0
   19.7488  -22.6632  -11.8012 C   0  0  0  0  0  0  0  0  0  0  0  0
   20.4472  -21.5334  -11.0847 C   0  0  0  0  0  0  0  0  0  0  0  0
   21.8247  -21.9969  -10.6714 C   0  0  2  0  0  0  0  0  0  0  0  0
   21.6457  -22.9123   -9.4973 C   0  0  0  0  0  0  0  0  0  0  0  0
   22.6492  -20.7774  -10.1843 C   0  0  2  0  0  0  0  0  0  0  0  0
   24.0021  -21.2009   -9.9255 N   0  0  0  0  0  0  0  0  0  0  0  0
   21.9461  -20.0586   -9.1590 C   0  0  0  0  0  0  0  0  0  0  0  0
   20.8088  -19.3168   -9.5404 O   0  0  0  0  0  0  0  0  0  0  0  0
   22.2308  -20.0168   -7.9556 O   0  0  0  0  0  0  0  0  0  0  0  0
  2  3  1  0
  2  1  1  6
  4  2  1  0
  4  5  1  6
  6  4  1  0
  6  8  1  0
  7  6  2  0
  9  8  1  0
 10 11  1  0
  9 10  1  1
 11 19  1  0
 12 11  2  0
 12 13  1  0
 13 14  1  0
 14 15  1  0
 15 16  2  0
 17 16  1  0
 18 17  2  0
 19 14  2  0
 19 18  1  0
 20  9  1  0
 21 20  2  0
 22 23  1  0
 23 24  1  0
 24 26  1  0
 24 25  1  1
 26 27  1  1
 26 28  1  0
 27 20  1  0
 28 29  1  0
 30 28  2  0
M  END
$$$$
