TWI.pdb
     RDKit          3D

 30 31  0  0  1  0  0  0  0  0999 V2000
   28.9724  -18.9847  -16.2772 C   0  0  0  0  0  0  0  0  0  0  0  0
   28.0669  -19.4824  -15.1734 C   0  0  1  0  0  0  0  0  0  0  0  0
   26.7529  -19.3654  -15.6041 O   0  0  0  0  0  0  0  0  0  0  0  0
   28.4212  -20.9063  -14.7569 C   0  0  2  0  0  0  0  0  0  0  0  0
   28.1645  -21.8649  -15.7929 N   0  0  0  0  0  0  0  0  0  0  0  0
   27.6381  -21.2321  -13.5177 C   0  0  0  0  0  0  0  0  0  0  0  0
   26.5819  -21.8571  -13.6530 O   0  0  0  0  0  0  0  0  0  0  0  0
   28.0719  -20.8508  -12.2290 N   0  0  0  0  0  0  0  0  0  0  0  0
   27.2596  -20.9170  -11.0171 C   0  0  1  0  0  0  0  0  0  0  0  0
   28.0532  -20.5961   -9.8082 C   0  0  0  0  0  0  0  0  0  0  0  0
   27.3514  -20.5016   -8.5400 C   0  0  0  0  0  0  0  0  0  0  0  0
   25.9901  -20.6448   -8.3750 C   0  0  0  0  0  0  0  0  0  0  0  0
   25.7067  -20.5317   -7.0751 N   0  0  0  0  0  0  0  0  0  0  0  0
   26.8436  -20.3149   -6.3573 C   0  0  0  0  0  0  0  0  0  0  0  0
   27.0467  -20.1284   -5.0047 C   0  0  0  0  0  0  0  0  0  0  0  0
   28.3370  -19.9126   -4.5607 C   0  0  0  0  0  0  0  0  0  0  0  0
   29.3909  -19.8859   -5.4584 C   0  0  0  0  0  0  0  0  0  0  0  0
   29.1519  -20.0763   -6.8009 C   0  0  0  0  0  0  0  0  0  0  0  0
   27.8574  -20.2989   -7.2881 C   0  0  0  0  0  0  0  0  0  0  0  0
   25.9192  -20.3964  -11.2003 C   0  0  0  0  0  0  0  0  0  0  0  0
   25.7082  -19.1358  -11.4138 O   0  0  0  0  0  0  0  0  0  0  0  0
   21.6030  -20.2995  -14.8481 C   0  0  0  0  0  0  0  0  0  0  0  0
   21.8061  -20.1747  -13.3578 C   0  0  0  0  0  0  0  0  0  0  0  0
   23.0786  -20.8957  -12.9780 C   0  0  2  0  0  0  0  0  0  0  0  0
   22.7948  -22.3651  -13.0710 C   0  0  0  0  0  0  0  0  0  0  0  0
   23.4197  -20.5843  -11.4978 C   0  0  2  0  0  0  0  0  0  0  0  0
   24.7086  -21.1485  -11.1863 N   0  0  0  0  0  0  0  0  0  0  0  0
   22.3098  -20.8905  -10.6396 C   0  0  0  0  0  0  0  0  0  0  0  0
   21.1978  -20.0236  -10.6710 O   0  0  0  0  0  0  0  0  0  0  0  0
   22.2174  -21.8481   -9.8615 O   0  0  0  0  0  0  0  0  0  0  0  0
  2  3  1  0
  2  1  1  6
  4  2  1  0
  4  5  1  6
  6  4  1  0
  6  8  1  0
  7  6  2  0
  9  8  1  0
 10 11  1  0
  9 10  1  1
 11 19  1  0
 12 11  2  0
 12 13  1  0
 13 14  1  0
 14 15  1  0
 15 16  2  0
 17 16  1  0
 18 17  2  0
 19 14  2  0
 19 18  1  0
 20  9  1  0
 21 20  2  0
 22 23  1  0
 23 24  1  0
 24 26  1  0
 24 25  1  1
 26 27  1  1
 26 28  1  0
 27 20  1  0
 28 29  1  0
 30 28  2  0
M  END
$$$$
