TWI.pdb
     RDKit          3D

 30 31  0  0  1  0  0  0  0  0999 V2000
   28.8506  -21.5133  -15.9348 C   0  0  0  0  0  0  0  0  0  0  0  0
   28.1671  -21.2828  -14.6060 C   0  0  1  0  0  0  0  0  0  0  0  0
   29.1304  -20.9018  -13.6827 O   0  0  0  0  0  0  0  0  0  0  0  0
   27.0372  -20.2652  -14.7259 C   0  0  2  0  0  0  0  0  0  0  0  0
   27.4604  -19.0398  -15.3402 N   0  0  0  0  0  0  0  0  0  0  0  0
   26.4938  -20.0157  -13.3484 C   0  0  0  0  0  0  0  0  0  0  0  0
   26.7478  -18.9298  -12.8183 O   0  0  0  0  0  0  0  0  0  0  0  0
   25.7147  -20.9715  -12.6601 N   0  0  0  0  0  0  0  0  0  0  0  0
   25.0709  -20.7546  -11.3672 C   0  0  1  0  0  0  0  0  0  0  0  0
   23.6455  -21.1570  -11.3914 C   0  0  0  0  0  0  0  0  0  0  0  0
   22.7281  -20.3603  -12.1873 C   0  0  0  0  0  0  0  0  0  0  0  0
   21.7513  -19.5313  -11.6779 C   0  0  0  0  0  0  0  0  0  0  0  0
   21.1278  -18.9352  -12.6971 N   0  0  0  0  0  0  0  0  0  0  0  0
   21.6591  -19.3416  -13.8833 C   0  0  0  0  0  0  0  0  0  0  0  0
   21.3417  -19.0118  -15.1857 C   0  0  0  0  0  0  0  0  0  0  0  0
   22.0608  -19.6060  -16.2047 C   0  0  0  0  0  0  0  0  0  0  0  0
   23.0709  -20.5078  -15.9150 C   0  0  0  0  0  0  0  0  0  0  0  0
   23.3611  -20.8132  -14.6042 C   0  0  0  0  0  0  0  0  0  0  0  0
   22.6545  -20.2299  -13.5445 C   0  0  0  0  0  0  0  0  0  0  0  0
   25.9273  -21.0768  -10.2429 C   0  0  0  0  0  0  0  0  0  0  0  0
   26.6108  -22.1772  -10.2088 O   0  0  0  0  0  0  0  0  0  0  0  0
   29.6591  -19.1325   -5.8845 C   0  0  0  0  0  0  0  0  0  0  0  0
   28.6365  -20.1705   -6.2772 C   0  0  0  0  0  0  0  0  0  0  0  0
   27.8697  -19.6682   -7.4785 C   0  0  2  0  0  0  0  0  0  0  0  0
   27.0960  -18.4636   -7.0330 C   0  0  0  0  0  0  0  0  0  0  0  0
   26.8403  -20.7431   -7.9135 C   0  0  2  0  0  0  0  0  0  0  0  0
   26.1421  -20.2753   -9.0841 N   0  0  0  0  0  0  0  0  0  0  0  0
   26.0703  -21.2006   -6.7910 C   0  0  0  0  0  0  0  0  0  0  0  0
   26.7071  -22.0477   -5.8604 O   0  0  0  0  0  0  0  0  0  0  0  0
   24.8887  -20.9294   -6.5434 O   0  0  0  0  0  0  0  0  0  0  0  0
  2  3  1  0
  2  1  1  6
  4  2  1  0
  4  5  1  1
  6  4  1  0
  6  8  1  0
  7  6  2  0
  9  8  1  0
 10 11  1  0
  9 10  1  6
 11 19  1  0
 12 11  2  0
 12 13  1  0
 13 14  1  0
 14 15  1  0
 15 16  2  0
 17 16  1  0
 18 17  2  0
 19 14  2  0
 19 18  1  0
 20  9  1  0
 21 20  2  0
 22 23  1  0
 23 24  1  0
 24 26  1  0
 24 25  1  1
 26 27  1  6
 26 28  1  0
 27 20  1  0
 28 29  1  0
 30 28  2  0
M  END
$$$$
