TWI.pdb
     RDKit          3D

 30 31  0  0  1  0  0  0  0  0999 V2000
   28.7426  -18.7918  -15.8544 C   0  0  0  0  0  0  0  0  0  0  0  0
   27.8372  -19.3324  -14.7709 C   0  0  1  0  0  0  0  0  0  0  0  0
   26.5322  -19.3047  -15.2420 O   0  0  0  0  0  0  0  0  0  0  0  0
   28.2680  -20.7255  -14.3236 C   0  0  2  0  0  0  0  0  0  0  0  0
   28.1190  -21.7084  -15.3579 N   0  0  0  0  0  0  0  0  0  0  0  0
   27.4576  -21.0920  -13.1137 C   0  0  0  0  0  0  0  0  0  0  0  0
   26.4323  -21.7573  -13.2887 O   0  0  0  0  0  0  0  0  0  0  0  0
   27.8325  -20.7040  -11.8086 N   0  0  0  0  0  0  0  0  0  0  0  0
   26.9905  -20.8300  -10.6219 C   0  0  1  0  0  0  0  0  0  0  0  0
   27.7633  -20.6122   -9.3771 C   0  0  0  0  0  0  0  0  0  0  0  0
   27.0409  -20.6297   -8.1171 C   0  0  0  0  0  0  0  0  0  0  0  0
   25.7589  -21.1071   -7.9451 C   0  0  0  0  0  0  0  0  0  0  0  0
   25.4357  -20.9977   -6.6542 N   0  0  0  0  0  0  0  0  0  0  0  0
   26.4681  -20.4573   -5.9494 C   0  0  0  0  0  0  0  0  0  0  0  0
   26.5956  -20.1496   -4.6097 C   0  0  0  0  0  0  0  0  0  0  0  0
   27.7808  -19.5862   -4.1779 C   0  0  0  0  0  0  0  0  0  0  0  0
   28.8068  -19.3409   -5.0749 C   0  0  0  0  0  0  0  0  0  0  0  0
   28.6455  -19.6610   -6.4042 C   0  0  0  0  0  0  0  0  0  0  0  0
   27.4586  -20.2345   -6.8787 C   0  0  0  0  0  0  0  0  0  0  0  0
   25.6682  -20.2629  -10.7985 C   0  0  0  0  0  0  0  0  0  0  0  0
   25.5058  -19.0408  -11.1974 O   0  0  0  0  0  0  0  0  0  0  0  0
   22.1736  -19.1388  -14.5329 C   0  0  0  0  0  0  0  0  0  0  0  0
   22.0106  -19.4916  -13.0746 C   0  0  0  0  0  0  0  0  0  0  0  0
   23.2787  -20.1552  -12.5899 C   0  0  2  0  0  0  0  0  0  0  0  0
   23.3669  -21.4863  -13.2745 C   0  0  0  0  0  0  0  0  0  0  0  0
   23.1637  -20.4259  -11.0675 C   0  0  2  0  0  0  0  0  0  0  0  0
   24.4256  -20.9276  -10.5851 N   0  0  0  0  0  0  0  0  0  0  0  0
   21.9698  -21.1647  -10.7660 C   0  0  0  0  0  0  0  0  0  0  0  0
   20.7772  -20.4357  -10.5781 O   0  0  0  0  0  0  0  0  0  0  0  0
   21.8678  -22.3925  -10.6512 O   0  0  0  0  0  0  0  0  0  0  0  0
  2  3  1  0
  2  1  1  6
  4  2  1  0
  4  5  1  6
  6  4  1  0
  6  8  1  0
  7  6  2  0
  9  8  1  0
 10 11  1  0
  9 10  1  1
 11 19  1  0
 12 11  2  0
 12 13  1  0
 13 14  1  0
 14 15  1  0
 15 16  2  0
 17 16  1  0
 18 17  2  0
 19 14  2  0
 19 18  1  0
 20  9  1  0
 21 20  2  0
 22 23  1  0
 23 24  1  0
 24 26  1  0
 24 25  1  6
 26 27  1  6
 26 28  1  0
 27 20  1  0
 28 29  1  0
 30 28  2  0
M  END
$$$$
