TWI.pdb
     RDKit          3D

 30 31  0  0  1  0  0  0  0  0999 V2000
   25.8746  -26.4777  -16.3845 C   0  0  0  0  0  0  0  0  0  0  0  0
   25.4181  -25.5194  -17.4612 C   0  0  1  0  0  0  0  0  0  0  0  0
   24.3124  -24.8281  -16.9866 O   0  0  0  0  0  0  0  0  0  0  0  0
   26.5453  -24.5898  -17.8990 C   0  0  2  0  0  0  0  0  0  0  0  0
   27.6474  -25.2964  -18.4857 N   0  0  0  0  0  0  0  0  0  0  0  0
   26.9886  -23.8056  -16.6976 C   0  0  0  0  0  0  0  0  0  0  0  0
   28.0178  -24.1701  -16.1210 O   0  0  0  0  0  0  0  0  0  0  0  0
   26.2733  -22.6844  -16.2225 N   0  0  0  0  0  0  0  0  0  0  0  0
   26.6745  -21.8513  -15.0920 C   0  0  1  0  0  0  0  0  0  0  0  0
   27.2942  -20.5826  -15.5401 C   0  0  0  0  0  0  0  0  0  0  0  0
   27.8204  -19.6876  -14.5243 C   0  0  0  0  0  0  0  0  0  0  0  0
   27.3289  -18.4302  -14.2442 C   0  0  0  0  0  0  0  0  0  0  0  0
   28.0324  -17.9160  -13.2326 N   0  0  0  0  0  0  0  0  0  0  0  0
   28.9881  -18.7952  -12.8222 C   0  0  0  0  0  0  0  0  0  0  0  0
   29.9457  -18.7050  -11.8320 C   0  0  0  0  0  0  0  0  0  0  0  0
   30.8032  -19.7731  -11.6521 C   0  0  0  0  0  0  0  0  0  0  0  0
   30.6956  -20.8993  -12.4507 C   0  0  0  0  0  0  0  0  0  0  0  0
   29.7282  -20.9554  -13.4286 C   0  0  0  0  0  0  0  0  0  0  0  0
   28.8402  -19.8926  -13.6398 C   0  0  0  0  0  0  0  0  0  0  0  0
   25.7261  -21.8824  -13.9961 C   0  0  0  0  0  0  0  0  0  0  0  0
   24.4632  -22.0862  -14.2022 O   0  0  0  0  0  0  0  0  0  0  0  0
   25.3629  -21.1804   -7.8028 C   0  0  0  0  0  0  0  0  0  0  0  0
   24.6680  -21.3481   -9.1319 C   0  0  0  0  0  0  0  0  0  0  0  0
   25.7056  -21.3230  -10.2301 C   0  0  2  0  0  0  0  0  0  0  0  0
   26.2612  -19.9311  -10.2772 C   0  0  0  0  0  0  0  0  0  0  0  0
   25.0144  -21.5903  -11.5921 C   0  0  2  0  0  0  0  0  0  0  0  0
   26.0243  -21.7163  -12.6124 N   0  0  0  0  0  0  0  0  0  0  0  0
   23.9310  -20.6726  -11.8071 C   0  0  0  0  0  0  0  0  0  0  0  0
   24.1364  -19.6178  -12.7206 O   0  0  0  0  0  0  0  0  0  0  0  0
   22.8161  -20.7043  -11.2714 O   0  0  0  0  0  0  0  0  0  0  0  0
  2  3  1  0
  2  1  1  1
  4  2  1  0
  4  5  1  1
  6  4  1  0
  6  8  1  0
  7  6  2  0
  9  8  1  0
 10 11  1  0
  9 10  1  6
 11 19  1  0
 12 11  2  0
 12 13  1  0
 13 14  1  0
 14 15  1  0
 15 16  2  0
 17 16  1  0
 18 17  2  0
 19 14  2  0
 19 18  1  0
 20  9  1  0
 21 20  2  0
 22 23  1  0
 23 24  1  0
 24 26  1  0
 24 25  1  6
 26 27  1  6
 26 28  1  0
 27 20  1  0
 28 29  1  0
 30 28  2  0
M  END
$$$$
