TWI.pdb
     RDKit          3D

 30 31  0  0  1  0  0  0  0  0999 V2000
   16.1308  -25.7073   -9.7126 C   0  0  0  0  0  0  0  0  0  0  0  0
   16.8136  -25.8569   -8.3719 C   0  0  1  0  0  0  0  0  0  0  0  0
   17.6911  -26.9291   -8.4489 O   0  0  0  0  0  0  0  0  0  0  0  0
   17.5045  -24.5651   -7.9475 C   0  0  2  0  0  0  0  0  0  0  0  0
   18.9268  -24.6144   -8.1279 N   0  0  0  0  0  0  0  0  0  0  0  0
   17.1543  -24.3060   -6.5103 C   0  0  0  0  0  0  0  0  0  0  0  0
   18.0287  -24.5030   -5.6611 O   0  0  0  0  0  0  0  0  0  0  0  0
   15.8771  -23.8507   -6.1153 N   0  0  0  0  0  0  0  0  0  0  0  0
   15.4784  -23.5611   -4.7405 C   0  0  1  0  0  0  0  0  0  0  0  0
   14.4383  -22.5080   -4.6828 C   0  0  0  0  0  0  0  0  0  0  0  0
   14.0206  -22.0365   -3.3739 C   0  0  0  0  0  0  0  0  0  0  0  0
   14.5416  -22.4683   -2.1726 C   0  0  0  0  0  0  0  0  0  0  0  0
   13.9461  -21.7942   -1.1858 N   0  0  0  0  0  0  0  0  0  0  0  0
   13.0346  -20.9175   -1.6910 C   0  0  0  0  0  0  0  0  0  0  0  0
   12.1829  -20.0272   -1.0682 C   0  0  0  0  0  0  0  0  0  0  0  0
   11.3451  -19.2627   -1.8570 C   0  0  0  0  0  0  0  0  0  0  0  0
   11.3678  -19.3950   -3.2352 C   0  0  0  0  0  0  0  0  0  0  0  0
   12.2306  -20.2926   -3.8229 C   0  0  0  0  0  0  0  0  0  0  0  0
   13.0955  -21.0840   -3.0559 C   0  0  0  0  0  0  0  0  0  0  0  0
   15.4007  -24.7452   -3.9080 C   0  0  0  0  0  0  0  0  0  0  0  0
   14.8359  -25.8319   -4.3314 O   0  0  0  0  0  0  0  0  0  0  0  0
   19.3695  -27.2813   -1.6096 C   0  0  0  0  0  0  0  0  0  0  0  0
   18.0277  -26.9753   -2.2290 C   0  0  0  0  0  0  0  0  0  0  0  0
   17.1020  -26.4570   -1.1530 C   0  0  2  0  0  0  0  0  0  0  0  0
   16.8496  -27.5925   -0.2068 C   0  0  0  0  0  0  0  0  0  0  0  0
   15.7408  -26.0760   -1.7903 C   0  0  2  0  0  0  0  0  0  0  0  0
   15.9134  -24.8867   -2.5857 N   0  0  0  0  0  0  0  0  0  0  0  0
   14.6903  -26.1017   -0.8115 C   0  0  0  0  0  0  0  0  0  0  0  0
   14.5970  -25.0123    0.0793 O   0  0  0  0  0  0  0  0  0  0  0  0
   13.8411  -26.9887   -0.6596 O   0  0  0  0  0  0  0  0  0  0  0  0
  2  3  1  0
  2  1  1  6
  4  2  1  0
  4  5  1  1
  6  4  1  0
  6  8  1  0
  7  6  2  0
  9  8  1  0
 10 11  1  0
  9 10  1  6
 11 19  1  0
 12 11  2  0
 12 13  1  0
 13 14  1  0
 14 15  1  0
 15 16  2  0
 17 16  1  0
 18 17  2  0
 19 14  2  0
 19 18  1  0
 20  9  1  0
 21 20  2  0
 22 23  1  0
 23 24  1  0
 24 26  1  0
 24 25  1  1
 26 27  1  1
 26 28  1  0
 27 20  1  0
 28 29  1  0
 30 28  2  0
M  END
$$$$
