TWI.pdb
     RDKit          3D

 30 31  0  0  1  0  0  0  0  0999 V2000
   28.8497  -18.9845  -16.0473 C   0  0  0  0  0  0  0  0  0  0  0  0
   27.9001  -19.4584  -14.9704 C   0  0  1  0  0  0  0  0  0  0  0  0
   26.6045  -19.3485  -15.4551 O   0  0  0  0  0  0  0  0  0  0  0  0
   28.2345  -20.8740  -14.5113 C   0  0  2  0  0  0  0  0  0  0  0  0
   28.0309  -21.8513  -15.5415 N   0  0  0  0  0  0  0  0  0  0  0  0
   27.3907  -21.1792  -13.3072 C   0  0  0  0  0  0  0  0  0  0  0  0
   26.3391  -21.8014  -13.4851 O   0  0  0  0  0  0  0  0  0  0  0  0
   27.7635  -20.7820  -12.0043 N   0  0  0  0  0  0  0  0  0  0  0  0
   26.9211  -20.9032  -10.8174 C   0  0  1  0  0  0  0  0  0  0  0  0
   27.6864  -20.6486   -9.5749 C   0  0  0  0  0  0  0  0  0  0  0  0
   26.9542  -20.6146   -8.3209 C   0  0  0  0  0  0  0  0  0  0  0  0
   25.6440  -21.0114   -8.1572 C   0  0  0  0  0  0  0  0  0  0  0  0
   25.3178  -20.8752   -6.8696 N   0  0  0  0  0  0  0  0  0  0  0  0
   26.3758  -20.3952   -6.1590 C   0  0  0  0  0  0  0  0  0  0  0  0
   26.5113  -20.0884   -4.8198 C   0  0  0  0  0  0  0  0  0  0  0  0
   27.7254  -19.5964   -4.3811 C   0  0  0  0  0  0  0  0  0  0  0  0
   28.7717  -19.4196   -5.2708 C   0  0  0  0  0  0  0  0  0  0  0  0
   28.6016  -19.7367   -6.5997 C   0  0  0  0  0  0  0  0  0  0  0  0
   27.3856  -20.2388   -7.0812 C   0  0  0  0  0  0  0  0  0  0  0  0
   25.5885  -20.3651  -11.0069 C   0  0  0  0  0  0  0  0  0  0  0  0
   25.3939  -19.0997  -11.2069 O   0  0  0  0  0  0  0  0  0  0  0  0
   23.3675  -20.2415  -15.0494 C   0  0  0  0  0  0  0  0  0  0  0  0
   23.6666  -19.9355  -13.6021 C   0  0  0  0  0  0  0  0  0  0  0  0
   22.6928  -20.6965  -12.7326 C   0  0  2  0  0  0  0  0  0  0  0  0
   21.3456  -20.0683  -12.9290 C   0  0  0  0  0  0  0  0  0  0  0  0
   23.0794  -20.5037  -11.2434 C   0  0  2  0  0  0  0  0  0  0  0  0
   24.3695  -21.1034  -11.0138 N   0  0  0  0  0  0  0  0  0  0  0  0
   21.9904  -20.8640  -10.3794 C   0  0  0  0  0  0  0  0  0  0  0  0
   21.8386  -22.2266  -10.0488 O   0  0  0  0  0  0  0  0  0  0  0  0
   21.1549  -20.0986   -9.8823 O   0  0  0  0  0  0  0  0  0  0  0  0
  2  3  1  0
  2  1  1  6
  4  2  1  0
  4  5  1  6
  6  4  1  0
  6  8  1  0
  7  6  2  0
  9  8  1  0
 10 11  1  0
  9 10  1  1
 11 19  1  0
 12 11  2  0
 12 13  1  0
 13 14  1  0
 14 15  1  0
 15 16  2  0
 17 16  1  0
 18 17  2  0
 19 14  2  0
 19 18  1  0
 20  9  1  0
 21 20  2  0
 22 23  1  0
 23 24  1  0
 24 26  1  0
 24 25  1  1
 26 27  1  1
 26 28  1  0
 27 20  1  0
 28 29  1  0
 30 28  2  0
M  END
$$$$
