TWI.pdb
     RDKit          3D

 30 31  0  0  1  0  0  0  0  0999 V2000
   29.4744  -19.4493  -16.7571 C   0  0  0  0  0  0  0  0  0  0  0  0
   28.4073  -19.8180  -15.7515 C   0  0  1  0  0  0  0  0  0  0  0  0
   27.1685  -19.6702  -16.3592 O   0  0  0  0  0  0  0  0  0  0  0  0
   28.6220  -21.2219  -15.1954 C   0  0  2  0  0  0  0  0  0  0  0  0
   28.4625  -22.2412  -16.1921 N   0  0  0  0  0  0  0  0  0  0  0  0
   27.6557  -21.4219  -14.0634 C   0  0  0  0  0  0  0  0  0  0  0  0
   26.5805  -21.9735  -14.3162 O   0  0  0  0  0  0  0  0  0  0  0  0
   27.9416  -21.0047  -12.7448 N   0  0  0  0  0  0  0  0  0  0  0  0
   27.0394  -21.1493  -11.6054 C   0  0  1  0  0  0  0  0  0  0  0  0
   27.7557  -20.9977  -10.3177 C   0  0  0  0  0  0  0  0  0  0  0  0
   26.9641  -20.7537   -9.1245 C   0  0  0  0  0  0  0  0  0  0  0  0
   25.6007  -20.9352   -9.0271 C   0  0  0  0  0  0  0  0  0  0  0  0
   25.2234  -20.6486   -7.7788 N   0  0  0  0  0  0  0  0  0  0  0  0
   26.2985  -20.2771   -7.0301 C   0  0  0  0  0  0  0  0  0  0  0  0
   26.3997  -19.8874   -5.7096 C   0  0  0  0  0  0  0  0  0  0  0  0
   27.6470  -19.5494   -5.2211 C   0  0  0  0  0  0  0  0  0  0  0  0
   28.7592  -19.6034   -6.0441 C   0  0  0  0  0  0  0  0  0  0  0  0
   28.6217  -19.9972   -7.3563 C   0  0  0  0  0  0  0  0  0  0  0  0
   27.3736  -20.3484   -7.8867 C   0  0  0  0  0  0  0  0  0  0  0  0
   25.7427  -20.5395  -11.8243 C   0  0  0  0  0  0  0  0  0  0  0  0
   25.6238  -19.2689  -12.0492 O   0  0  0  0  0  0  0  0  0  0  0  0
   23.4655  -20.2723  -15.8626 C   0  0  0  0  0  0  0  0  0  0  0  0
   23.8187  -20.0057  -14.4197 C   0  0  0  0  0  0  0  0  0  0  0  0
   22.8123  -20.7047  -13.5353 C   0  0  2  0  0  0  0  0  0  0  0  0
   21.5027  -19.9973  -13.7167 C   0  0  0  0  0  0  0  0  0  0  0  0
   23.2289  -20.5315  -12.0518 C   0  0  2  0  0  0  0  0  0  0  0  0
   24.4835  -21.2070  -11.8365 N   0  0  0  0  0  0  0  0  0  0  0  0
   22.1314  -20.8234  -11.1728 C   0  0  0  0  0  0  0  0  0  0  0  0
   21.2759  -19.7603  -10.8164 O   0  0  0  0  0  0  0  0  0  0  0  0
   21.8461  -21.9239  -10.6845 O   0  0  0  0  0  0  0  0  0  0  0  0
  2  3  1  0
  2  1  1  6
  4  2  1  0
  4  5  1  6
  6  4  1  0
  6  8  1  0
  7  6  2  0
  9  8  1  0
 10 11  1  0
  9 10  1  1
 11 19  1  0
 12 11  2  0
 12 13  1  0
 13 14  1  0
 14 15  1  0
 15 16  2  0
 17 16  1  0
 18 17  2  0
 19 14  2  0
 19 18  1  0
 20  9  1  0
 21 20  2  0
 22 23  1  0
 23 24  1  0
 24 26  1  0
 24 25  1  1
 26 27  1  1
 26 28  1  0
 27 20  1  0
 28 29  1  0
 30 28  2  0
M  END
$$$$
