VHQ.pdb
     RDKit          3D

 27 27  0  0  1  0  0  0  0  0999 V2000
    8.8100  -12.7571   20.7745 C   0  0  0  0  0  0  0  0  0  0  0  0
    7.9829  -13.4197   19.7007 C   0  0  1  0  0  0  0  0  0  0  0  0
    7.7265  -12.4872   18.5452 C   0  0  0  0  0  0  0  0  0  0  0  0
    8.6279  -14.7028   19.1949 C   0  0  2  0  0  0  0  0  0  0  0  0
    7.7944  -15.2225   18.1481 N   0  0  0  0  0  0  0  0  0  0  0  0
    8.7587  -15.6955   20.3050 C   0  0  0  0  0  0  0  0  0  0  0  0
    7.7580  -16.2184   20.7995 O   0  0  0  0  0  0  0  0  0  0  0  0
   10.0336  -16.0368   20.7907 N   0  0  0  0  0  0  0  0  0  0  0  0
   10.4025  -16.9572   21.7961 C   0  0  1  0  0  0  0  0  0  0  0  0
   11.1951  -18.1773   21.3866 C   0  0  0  0  0  0  0  0  0  0  0  0
   10.4974  -19.0294   20.4009 C   0  0  0  0  0  0  0  0  0  0  0  0
    9.2888  -19.6903   20.7330 C   0  0  0  0  0  0  0  0  0  0  0  0
    8.8531  -20.3959   19.6763 N   0  0  0  0  0  0  0  0  0  0  0  0
    9.7297  -20.2134   18.6884 C   0  0  0  0  0  0  0  0  0  0  0  0
   10.6966  -19.3976   19.1451 N   0  0  0  0  0  0  0  0  0  0  0  0
   10.7976  -16.3782   23.0940 C   0  0  0  0  0  0  0  0  0  0  0  0
   11.7417  -15.5110   23.1718 O   0  0  0  0  0  0  0  0  0  0  0  0
    7.3634  -13.7244   27.2827 N   0  0  0  0  0  0  0  0  0  0  0  0
    8.6404  -13.6929   27.9010 C   0  0  0  0  0  0  0  0  0  0  0  0
    8.7923  -13.0316   28.9456 O   0  0  0  0  0  0  0  0  0  0  0  0
    9.7353  -14.4392   27.2861 C   0  0  0  0  0  0  0  0  0  0  0  0
    9.3951  -15.1880   26.0346 C   0  0  0  0  0  0  0  0  0  0  0  0
   10.5334  -16.0077   25.5537 C   0  0  2  0  0  0  0  0  0  0  0  0
   10.1868  -16.7203   24.3200 N   0  0  0  0  0  0  0  0  0  0  0  0
   10.9357  -17.0145   26.5494 C   0  0  0  0  0  0  0  0  0  0  0  0
   10.4610  -18.1810   26.5528 O   0  0  0  0  0  0  0  0  0  0  0  0
   11.8593  -16.7100   27.5203 O   0  0  0  0  0  0  0  0  0  0  0  0
  2  1  1  1
  3  2  1  0
  4  2  1  0
  4  5  1  6
  6  4  1  0
  7  6  2  0
  8  6  1  0
  9  8  1  0
 10 11  1  0
  9 10  1  6
 11 15  1  0
 12 13  1  0
 12 11  2  0
 13 14  1  0
 14 15  2  0
 16 24  1  0
 16  9  1  0
 17 16  2  0
 19 18  1  0
 20 19  2  0
 21 19  1  0
 22 21  1  0
 23 24  1  0
 23 22  1  1
 25 23  1  0
 26 25  2  0
 27 25  1  0
M  END
$$$$
