VHQ.pdb
     RDKit          3D

 27 27  0  0  1  0  0  0  0  0999 V2000
    8.3795  -12.5858   20.8789 C   0  0  0  0  0  0  0  0  0  0  0  0
    7.8212  -13.3381   19.6964 C   0  0  1  0  0  0  0  0  0  0  0  0
    7.7503  -12.4665   18.4694 C   0  0  0  0  0  0  0  0  0  0  0  0
    8.6235  -14.5955   19.3904 C   0  0  2  0  0  0  0  0  0  0  0  0
    8.0746  -15.1798   18.1997 N   0  0  0  0  0  0  0  0  0  0  0  0
    8.5452  -15.5569   20.5326 C   0  0  0  0  0  0  0  0  0  0  0  0
    7.4670  -16.0584   20.8569 O   0  0  0  0  0  0  0  0  0  0  0  0
    9.7106  -15.8931   21.2442 N   0  0  0  0  0  0  0  0  0  0  0  0
    9.8617  -16.6447   22.4300 C   0  0  1  0  0  0  0  0  0  0  0  0
   10.6773  -17.9157   22.3669 C   0  0  0  0  0  0  0  0  0  0  0  0
   10.3644  -18.7587   21.1940 C   0  0  0  0  0  0  0  0  0  0  0  0
    9.4341  -18.3306   20.2145 C   0  0  0  0  0  0  0  0  0  0  0  0
    9.3251  -19.2640   19.2548 N   0  0  0  0  0  0  0  0  0  0  0  0
   10.1433  -20.2652   19.5798 C   0  0  0  0  0  0  0  0  0  0  0  0
   10.7486  -19.9398   20.7359 N   0  0  0  0  0  0  0  0  0  0  0  0
   10.0320  -15.8697   23.6735 C   0  0  0  0  0  0  0  0  0  0  0  0
   10.9384  -14.9649   23.7705 O   0  0  0  0  0  0  0  0  0  0  0  0
    7.2072  -11.7703   26.6253 N   0  0  0  0  0  0  0  0  0  0  0  0
    6.5270  -12.9917   26.3816 C   0  0  0  0  0  0  0  0  0  0  0  0
    5.2828  -12.9918   26.3227 O   0  0  0  0  0  0  0  0  0  0  0  0
    7.3144  -14.2100   26.2094 C   0  0  0  0  0  0  0  0  0  0  0  0
    8.7945  -14.0201   26.0824 C   0  0  0  0  0  0  0  0  0  0  0  0
    9.5181  -15.3141   26.0578 C   0  0  2  0  0  0  0  0  0  0  0  0
    9.2347  -16.0541   24.8240 N   0  0  0  0  0  0  0  0  0  0  0  0
    9.1317  -16.1734   27.1889 C   0  0  0  0  0  0  0  0  0  0  0  0
    8.4777  -17.2377   27.0294 O   0  0  0  0  0  0  0  0  0  0  0  0
    9.4809  -15.8380   28.4750 O   0  0  0  0  0  0  0  0  0  0  0  0
  2  1  1  1
  3  2  1  0
  4  2  1  0
  4  5  1  6
  6  4  1  0
  7  6  2  0
  8  6  1  0
  9  8  1  0
 10 11  1  0
  9 10  1  6
 11 15  1  0
 12 13  1  0
 12 11  2  0
 13 14  1  0
 14 15  2  0
 16 24  1  0
 16  9  1  0
 17 16  2  0
 19 18  1  0
 20 19  2  0
 21 19  1  0
 22 21  1  0
 23 24  1  0
 23 22  1  6
 25 23  1  0
 26 25  2  0
 27 25  1  0
M  END
$$$$
