VHQ.pdb
     RDKit          3D

 27 27  0  0  1  0  0  0  0  0999 V2000
    7.6999  -20.0626   21.7631 C   0  0  0  0  0  0  0  0  0  0  0  0
    8.0812  -20.2783   20.3194 C   0  0  1  0  0  0  0  0  0  0  0  0
    7.4114  -21.5006   19.7468 C   0  0  0  0  0  0  0  0  0  0  0  0
    7.7621  -19.0639   19.4581 C   0  0  2  0  0  0  0  0  0  0  0  0
    8.0566  -19.4099   18.0965 N   0  0  0  0  0  0  0  0  0  0  0  0
    8.5771  -17.8875   19.8901 C   0  0  0  0  0  0  0  0  0  0  0  0
    9.8078  -17.9514   19.9117 O   0  0  0  0  0  0  0  0  0  0  0  0
    7.9358  -16.6967   20.2755 N   0  0  0  0  0  0  0  0  0  0  0  0
    8.4734  -15.5247   20.8511 C   0  0  1  0  0  0  0  0  0  0  0  0
    7.7467  -14.2201   20.6173 C   0  0  0  0  0  0  0  0  0  0  0  0
    7.7055  -13.8152   19.1966 C   0  0  0  0  0  0  0  0  0  0  0  0
    8.3951  -14.5572   18.2056 C   0  0  0  0  0  0  0  0  0  0  0  0
    8.2027  -13.9934   17.0018 N   0  0  0  0  0  0  0  0  0  0  0  0
    7.4226  -12.9274   17.1827 C   0  0  0  0  0  0  0  0  0  0  0  0
    7.1417  -12.8442   18.4953 N   0  0  0  0  0  0  0  0  0  0  0  0
    9.0517  -15.6696   22.2003 C   0  0  0  0  0  0  0  0  0  0  0  0
    8.2997  -15.8326   23.2287 O   0  0  0  0  0  0  0  0  0  0  0  0
   10.6906  -20.4835   23.9243 N   0  0  0  0  0  0  0  0  0  0  0  0
   11.2709  -19.7804   25.0120 C   0  0  0  0  0  0  0  0  0  0  0  0
   11.7538  -20.4249   25.9623 O   0  0  0  0  0  0  0  0  0  0  0  0
   11.2793  -18.3201   24.9778 C   0  0  0  0  0  0  0  0  0  0  0  0
   10.7075  -17.6910   23.7449 C   0  0  0  0  0  0  0  0  0  0  0  0
   10.9806  -16.2347   23.6894 C   0  0  2  0  0  0  0  0  0  0  0  0
   10.4387  -15.6422   22.4625 N   0  0  0  0  0  0  0  0  0  0  0  0
   12.4251  -15.9521   23.7179 C   0  0  0  0  0  0  0  0  0  0  0  0
   13.0448  -15.5257   22.7079 O   0  0  0  0  0  0  0  0  0  0  0  0
   13.1543  -16.1443   24.8667 O   0  0  0  0  0  0  0  0  0  0  0  0
  2  1  1  1
  3  2  1  0
  4  2  1  0
  4  5  1  6
  6  4  1  0
  7  6  2  0
  8  6  1  0
  9  8  1  0
 10 11  1  0
  9 10  1  1
 11 15  1  0
 12 13  1  0
 12 11  2  0
 13 14  1  0
 14 15  2  0
 16 24  1  0
 16  9  1  0
 17 16  2  0
 19 18  1  0
 20 19  2  0
 21 19  1  0
 22 21  1  0
 23 24  1  0
 23 22  1  6
 25 23  1  0
 26 25  2  0
 27 25  1  0
M  END
$$$$
