VHQ.pdb
     RDKit          3D

 27 27  0  0  1  0  0  0  0  0999 V2000
    8.5798  -12.1551   20.6668 C   0  0  0  0  0  0  0  0  0  0  0  0
    7.7363  -13.3636   20.3442 C   0  0  1  0  0  0  0  0  0  0  0  0
    7.2886  -13.3578   18.9055 C   0  0  0  0  0  0  0  0  0  0  0  0
    8.4635  -14.6652   20.6530 C   0  0  2  0  0  0  0  0  0  0  0  0
    7.5899  -15.7451   20.2912 N   0  0  0  0  0  0  0  0  0  0  0  0
    8.8150  -14.7364   22.1043 C   0  0  0  0  0  0  0  0  0  0  0  0
    9.7414  -14.0622   22.5588 O   0  0  0  0  0  0  0  0  0  0  0  0
    8.0835  -15.5793   22.9599 N   0  0  0  0  0  0  0  0  0  0  0  0
    8.2513  -15.8355   24.3384 C   0  0  1  0  0  0  0  0  0  0  0  0
    7.0378  -15.7316   25.2335 C   0  0  0  0  0  0  0  0  0  0  0  0
    6.7325  -14.3479   25.6537 C   0  0  0  0  0  0  0  0  0  0  0  0
    7.6236  -13.2842   25.3662 C   0  0  0  0  0  0  0  0  0  0  0  0
    7.1246  -12.1331   25.8460 N   0  0  0  0  0  0  0  0  0  0  0  0
    5.9576  -12.4170   26.4249 C   0  0  0  0  0  0  0  0  0  0  0  0
    5.7484  -13.7393   26.2966 N   0  0  0  0  0  0  0  0  0  0  0  0
    9.1778  -16.9287   24.6883 C   0  0  0  0  0  0  0  0  0  0  0  0
    8.9736  -18.1272   24.2743 O   0  0  0  0  0  0  0  0  0  0  0  0
   14.0943  -15.7298   23.8784 N   0  0  0  0  0  0  0  0  0  0  0  0
   13.7044  -16.9424   23.2527 C   0  0  0  0  0  0  0  0  0  0  0  0
   13.9742  -17.1181   22.0494 O   0  0  0  0  0  0  0  0  0  0  0  0
   12.9962  -17.9440   24.0458 C   0  0  0  0  0  0  0  0  0  0  0  0
   12.6320  -17.5368   25.4402 C   0  0  0  0  0  0  0  0  0  0  0  0
   11.2262  -17.8769   25.7665 C   0  0  2  0  0  0  0  0  0  0  0  0
   10.3311  -16.7507   25.4830 N   0  0  0  0  0  0  0  0  0  0  0  0
   11.0675  -18.2224   27.1886 C   0  0  0  0  0  0  0  0  0  0  0  0
   10.2801  -17.5970   27.9467 O   0  0  0  0  0  0  0  0  0  0  0  0
   11.7826  -19.2571   27.7424 O   0  0  0  0  0  0  0  0  0  0  0  0
  2  1  1  6
  3  2  1  0
  4  2  1  0
  4  5  1  1
  6  4  1  0
  7  6  2  0
  8  6  1  0
  9  8  1  0
 10 11  1  0
  9 10  1  6
 11 15  1  0
 12 13  1  0
 12 11  2  0
 13 14  1  0
 14 15  2  0
 16 24  1  0
 16  9  1  0
 17 16  2  0
 19 18  1  0
 20 19  2  0
 21 19  1  0
 22 21  1  0
 23 24  1  0
 23 22  1  1
 25 23  1  0
 26 25  2  0
 27 25  1  0
M  END
$$$$
