VHQ.pdb
     RDKit          3D

 27 27  0  0  1  0  0  0  0  0999 V2000
    8.2971  -11.9512   25.8058 C   0  0  0  0  0  0  0  0  0  0  0  0
    7.1123  -12.6936   26.3725 C   0  0  1  0  0  0  0  0  0  0  0  0
    6.0396  -11.7464   26.8440 C   0  0  0  0  0  0  0  0  0  0  0  0
    6.5260  -13.6802   25.3717 C   0  0  2  0  0  0  0  0  0  0  0  0
    5.4308  -14.3492   26.0147 N   0  0  0  0  0  0  0  0  0  0  0  0
    7.5637  -14.6656   24.9393 C   0  0  0  0  0  0  0  0  0  0  0  0
    7.8051  -15.6624   25.6230 O   0  0  0  0  0  0  0  0  0  0  0  0
    8.2715  -14.4552   23.7425 N   0  0  0  0  0  0  0  0  0  0  0  0
    9.2132  -15.2814   23.0908 C   0  0  1  0  0  0  0  0  0  0  0  0
    9.5613  -14.9663   21.6541 C   0  0  0  0  0  0  0  0  0  0  0  0
    8.4051  -14.5108   20.8542 C   0  0  0  0  0  0  0  0  0  0  0  0
    7.2266  -15.2924   20.7637 C   0  0  0  0  0  0  0  0  0  0  0  0
    6.3269  -14.6673   19.9866 N   0  0  0  0  0  0  0  0  0  0  0  0
    6.8800  -13.5245   19.5793 C   0  0  0  0  0  0  0  0  0  0  0  0
    8.1144  -13.4561   20.1089 N   0  0  0  0  0  0  0  0  0  0  0  0
   10.3511  -15.7409   23.9094 C   0  0  0  0  0  0  0  0  0  0  0  0
   11.3781  -14.9922   24.0946 O   0  0  0  0  0  0  0  0  0  0  0  0
   10.1107  -19.2926   28.9959 N   0  0  0  0  0  0  0  0  0  0  0  0
    9.4919  -19.5323   27.7414 C   0  0  0  0  0  0  0  0  0  0  0  0
    8.3949  -20.1214   27.7089 O   0  0  0  0  0  0  0  0  0  0  0  0
   10.1680  -19.0786   26.5286 C   0  0  0  0  0  0  0  0  0  0  0  0
   11.0853  -17.9059   26.6904 C   0  0  0  0  0  0  0  0  0  0  0  0
   11.5407  -17.3754   25.3828 C   0  0  2  0  0  0  0  0  0  0  0  0
   10.4012  -17.0041   24.5379 N   0  0  0  0  0  0  0  0  0  0  0  0
   12.3371  -18.3676   24.6423 C   0  0  0  0  0  0  0  0  0  0  0  0
   11.9393  -18.8738   23.5600 O   0  0  0  0  0  0  0  0  0  0  0  0
   13.5611  -18.7770   25.1142 O   0  0  0  0  0  0  0  0  0  0  0  0
  2  1  1  6
  3  2  1  0
  4  2  1  0
  4  5  1  1
  6  4  1  0
  7  6  2  0
  8  6  1  0
  9  8  1  0
 10 11  1  0
  9 10  1  6
 11 15  1  0
 12 13  1  0
 12 11  2  0
 13 14  1  0
 14 15  2  0
 16 24  1  0
 16  9  1  0
 17 16  2  0
 19 18  1  0
 20 19  2  0
 21 19  1  0
 22 21  1  0
 23 24  1  0
 23 22  1  1
 25 23  1  0
 26 25  2  0
 27 25  1  0
M  END
$$$$
