VHQ.pdb
     RDKit          3D

 27 27  0  0  1  0  0  0  0  0999 V2000
    8.7442  -12.3048   18.4970 C   0  0  0  0  0  0  0  0  0  0  0  0
    8.7169  -13.2558   19.6680 C   0  0  1  0  0  0  0  0  0  0  0  0
    7.3831  -13.2328   20.3685 C   0  0  0  0  0  0  0  0  0  0  0  0
    9.0573  -14.6807   19.2530 C   0  0  2  0  0  0  0  0  0  0  0  0
    8.1034  -15.0810   18.2578 N   0  0  0  0  0  0  0  0  0  0  0  0
    9.0022  -15.5966   20.4332 C   0  0  0  0  0  0  0  0  0  0  0  0
    7.9597  -16.1890   20.7188 O   0  0  0  0  0  0  0  0  0  0  0  0
   10.1486  -15.7851   21.2256 N   0  0  0  0  0  0  0  0  0  0  0  0
   10.3371  -16.5965   22.3659 C   0  0  1  0  0  0  0  0  0  0  0  0
   11.2763  -17.7753   22.2521 C   0  0  0  0  0  0  0  0  0  0  0  0
   10.6489  -18.9728   21.6549 C   0  0  0  0  0  0  0  0  0  0  0  0
   10.3569  -19.0299   20.2694 C   0  0  0  0  0  0  0  0  0  0  0  0
    9.7959  -20.2139   19.9732 N   0  0  0  0  0  0  0  0  0  0  0  0
    9.7183  -20.9112   21.1069 C   0  0  0  0  0  0  0  0  0  0  0  0
   10.2317  -20.1512   22.0905 N   0  0  0  0  0  0  0  0  0  0  0  0
   10.3914  -15.8939   23.6617 C   0  0  0  0  0  0  0  0  0  0  0  0
   11.2317  -14.9440   23.8648 O   0  0  0  0  0  0  0  0  0  0  0  0
    5.6850  -13.2406   26.1918 N   0  0  0  0  0  0  0  0  0  0  0  0
    6.6672  -13.0149   27.1909 C   0  0  0  0  0  0  0  0  0  0  0  0
    6.4230  -12.2115   28.1110 O   0  0  0  0  0  0  0  0  0  0  0  0
    7.9351  -13.7350   27.1025 C   0  0  0  0  0  0  0  0  0  0  0  0
    8.0989  -14.6278   25.9113 C   0  0  0  0  0  0  0  0  0  0  0  0
    9.4301  -15.2805   25.8882 C   0  0  2  0  0  0  0  0  0  0  0  0
    9.5479  -16.1995   24.7518 N   0  0  0  0  0  0  0  0  0  0  0  0
    9.6747  -16.0577   27.1143 C   0  0  0  0  0  0  0  0  0  0  0  0
    9.4331  -17.2915   27.1853 O   0  0  0  0  0  0  0  0  0  0  0  0
   10.1859  -15.4526   28.2373 O   0  0  0  0  0  0  0  0  0  0  0  0
  2  1  1  6
  3  2  1  0
  4  2  1  0
  4  5  1  6
  6  4  1  0
  7  6  2  0
  8  6  1  0
  9  8  1  0
 10 11  1  0
  9 10  1  6
 11 15  1  0
 12 13  1  0
 12 11  2  0
 13 14  1  0
 14 15  2  0
 16 24  1  0
 16  9  1  0
 17 16  2  0
 19 18  1  0
 20 19  2  0
 21 19  1  0
 22 21  1  0
 23 24  1  0
 23 22  1  1
 25 23  1  0
 26 25  2  0
 27 25  1  0
M  END
$$$$
