VHQ.pdb
     RDKit          3D

 27 27  0  0  1  0  0  0  0  0999 V2000
    9.1106  -12.8215   20.4078 C   0  0  0  0  0  0  0  0  0  0  0  0
    8.4105  -13.6415   19.3525 C   0  0  1  0  0  0  0  0  0  0  0  0
    7.2218  -12.9116   18.7828 C   0  0  0  0  0  0  0  0  0  0  0  0
    9.3534  -14.0484   18.2284 C   0  0  2  0  0  0  0  0  0  0  0  0
    8.5707  -14.7169   17.2280 N   0  0  0  0  0  0  0  0  0  0  0  0
   10.4266  -14.9510   18.7468 C   0  0  0  0  0  0  0  0  0  0  0  0
   10.2180  -16.1580   18.8849 O   0  0  0  0  0  0  0  0  0  0  0  0
   11.6854  -14.4202   19.0802 N   0  0  0  0  0  0  0  0  0  0  0  0
   12.8259  -15.0613   19.6115 C   0  0  1  0  0  0  0  0  0  0  0  0
   14.1836  -14.6310   19.1054 C   0  0  0  0  0  0  0  0  0  0  0  0
   14.5070  -15.1604   17.7640 C   0  0  0  0  0  0  0  0  0  0  0  0
   14.9723  -14.3051   16.7343 C   0  0  0  0  0  0  0  0  0  0  0  0
   15.1964  -15.0193   15.6190 N   0  0  0  0  0  0  0  0  0  0  0  0
   14.8949  -16.2888   15.8931 C   0  0  0  0  0  0  0  0  0  0  0  0
   14.4880  -16.3451   17.1738 N   0  0  0  0  0  0  0  0  0  0  0  0
   12.7819  -15.3775   21.0517 C   0  0  0  0  0  0  0  0  0  0  0  0
   12.7947  -14.4450   21.9347 O   0  0  0  0  0  0  0  0  0  0  0  0
   11.0832  -20.7566   24.1055 N   0  0  0  0  0  0  0  0  0  0  0  0
   11.6623  -19.9395   25.1110 C   0  0  0  0  0  0  0  0  0  0  0  0
   11.7666  -20.3855   26.2694 O   0  0  0  0  0  0  0  0  0  0  0  0
   12.1155  -18.5987   24.7494 C   0  0  0  0  0  0  0  0  0  0  0  0
   12.0253  -18.2471   23.2965 C   0  0  0  0  0  0  0  0  0  0  0  0
   12.6500  -16.9342   23.0053 C   0  0  2  0  0  0  0  0  0  0  0  0
   12.7231  -16.6930   21.5609 N   0  0  0  0  0  0  0  0  0  0  0  0
   14.0201  -16.8552   23.5380 C   0  0  0  0  0  0  0  0  0  0  0  0
   15.0260  -17.1746   22.8508 O   0  0  0  0  0  0  0  0  0  0  0  0
   14.2491  -16.4204   24.8213 O   0  0  0  0  0  0  0  0  0  0  0  0
  2  1  1  1
  3  2  1  0
  4  2  1  0
  4  5  1  6
  6  4  1  0
  7  6  2  0
  8  6  1  0
  9  8  1  0
 10 11  1  0
  9 10  1  1
 11 15  1  0
 12 13  1  0
 12 11  2  0
 13 14  1  0
 14 15  2  0
 16 24  1  0
 16  9  1  0
 17 16  2  0
 19 18  1  0
 20 19  2  0
 21 19  1  0
 22 21  1  0
 23 24  1  0
 23 22  1  6
 25 23  1  0
 26 25  2  0
 27 25  1  0
M  END
$$$$
