VHQ.pdb
     RDKit          3D

 27 27  0  0  1  0  0  0  0  0999 V2000
    5.0275  -17.5034   23.3165 C   0  0  0  0  0  0  0  0  0  0  0  0
    5.2261  -18.5522   22.2502 C   0  0  1  0  0  0  0  0  0  0  0  0
    3.9517  -19.3063   21.9716 C   0  0  0  0  0  0  0  0  0  0  0  0
    5.7657  -17.9554   20.9574 C   0  0  2  0  0  0  0  0  0  0  0  0
    5.7554  -18.9925   19.9650 N   0  0  0  0  0  0  0  0  0  0  0  0
    7.1524  -17.4351   21.1603 C   0  0  0  0  0  0  0  0  0  0  0  0
    8.1179  -18.2011   21.1448 O   0  0  0  0  0  0  0  0  0  0  0  0
    7.3590  -16.0600   21.3708 N   0  0  0  0  0  0  0  0  0  0  0  0
    8.5513  -15.3560   21.6477 C   0  0  1  0  0  0  0  0  0  0  0  0
    8.6970  -13.9582   21.0913 C   0  0  0  0  0  0  0  0  0  0  0  0
    8.5089  -13.8845   19.6272 C   0  0  0  0  0  0  0  0  0  0  0  0
    7.5442  -13.0166   19.0579 C   0  0  0  0  0  0  0  0  0  0  0  0
    7.5670  -13.1295   17.7196 N   0  0  0  0  0  0  0  0  0  0  0  0
    8.5018  -14.0293   17.4130 C   0  0  0  0  0  0  0  0  0  0  0  0
    9.0461  -14.4622   18.5642 N   0  0  0  0  0  0  0  0  0  0  0  0
    9.1150  -15.5385   22.9986 C   0  0  0  0  0  0  0  0  0  0  0  0
    8.9961  -14.6257   23.8942 O   0  0  0  0  0  0  0  0  0  0  0  0
    8.3056  -20.1839   26.7800 N   0  0  0  0  0  0  0  0  0  0  0  0
    9.0006  -19.2290   27.5670 C   0  0  0  0  0  0  0  0  0  0  0  0
    9.0672  -19.3925   28.8001 O   0  0  0  0  0  0  0  0  0  0  0  0
    9.6137  -18.0835   26.8994 C   0  0  0  0  0  0  0  0  0  0  0  0
    9.3845  -17.9870   25.4226 C   0  0  0  0  0  0  0  0  0  0  0  0
   10.1802  -16.8963   24.8095 C   0  0  2  0  0  0  0  0  0  0  0  0
    9.8102  -16.6984   23.4045 N   0  0  0  0  0  0  0  0  0  0  0  0
   11.6226  -17.1874   24.8514 C   0  0  0  0  0  0  0  0  0  0  0  0
   12.2721  -17.5077   23.8211 O   0  0  0  0  0  0  0  0  0  0  0  0
   12.3182  -17.1145   26.0344 O   0  0  0  0  0  0  0  0  0  0  0  0
  2  1  1  1
  3  2  1  0
  4  2  1  0
  4  5  1  6
  6  4  1  0
  7  6  2  0
  8  6  1  0
  9  8  1  0
 10 11  1  0
  9 10  1  1
 11 15  1  0
 12 13  1  0
 12 11  2  0
 13 14  1  0
 14 15  2  0
 16 24  1  0
 16  9  1  0
 17 16  2  0
 19 18  1  0
 20 19  2  0
 21 19  1  0
 22 21  1  0
 23 24  1  0
 23 22  1  6
 25 23  1  0
 26 25  2  0
 27 25  1  0
M  END
$$$$
