AGC.pdb
     RDKit          3D

 16 15  0  0  1  0  0  0  0  0999 V2000
   16.2346   -9.6825  -15.1547 C   0  0  0  0  0  0  0  0  0  0  0  0
   17.2633  -10.4234  -14.3016 C   0  0  2  0  0  0  0  0  0  0  0  0
   16.9789  -11.8199  -14.4253 N   0  0  0  0  0  0  0  0  0  0  0  0
   17.1195   -9.9845  -12.8853 C   0  0  0  0  0  0  0  0  0  0  0  0
   16.1385  -10.4504  -12.2153 O   0  0  0  0  0  0  0  0  0  0  0  0
   18.0257   -9.0785  -12.2677 N   0  0  0  0  0  0  0  0  0  0  0  0
   17.8677   -8.8344  -10.8597 C   0  0  0  0  0  0  0  0  0  0  0  0
   16.8036   -7.8517  -10.5659 C   0  0  0  0  0  0  0  0  0  0  0  0
   16.2599   -7.1437  -11.4602 O   0  0  0  0  0  0  0  0  0  0  0  0
   16.3581   -7.6798   -9.2278 N   0  0  0  0  0  0  0  0  0  0  0  0
   15.3638   -6.7125   -8.8278 C   0  0  1  0  0  0  0  0  0  0  0  0
   14.8074   -7.1971   -7.4880 C   0  0  0  0  0  0  0  0  0  0  0  0
   13.4715   -6.0236   -7.0549 S   0  0  0  0  0  0  0  0  0  0  0  0
   15.9152   -5.3452   -8.7295 C   0  0  0  0  0  0  0  0  0  0  0  0
   17.0260   -5.1698   -8.2024 O   0  0  0  0  0  0  0  0  0  0  0  0
   15.2145   -4.2605   -9.2146 O   0  0  0  0  0  0  0  0  0  0  0  0
  2  1  1  6
  2  3  1  0
  4  2  1  0
  4  5  2  0
  6  4  1  0
  7  6  1  0
  8  7  1  0
  9  8  2  0
 10  8  1  0
 11 12  1  1
 11 10  1  0
 12 13  1  0
 14 11  1  0
 15 14  2  0
 16 14  1  0
M  END
$$$$
