AGC.pdb
     RDKit          3D

 16 15  0  0  1  0  0  0  0  0999 V2000
   18.9900  -13.3668  -17.5762 C   0  0  0  0  0  0  0  0  0  0  0  0
   19.4942  -12.0008  -18.0399 C   0  0  2  0  0  0  0  0  0  0  0  0
   20.7254  -12.2245  -18.7332 N   0  0  0  0  0  0  0  0  0  0  0  0
   19.7166  -11.1390  -16.8452 C   0  0  0  0  0  0  0  0  0  0  0  0
   18.6902  -10.7424  -16.1990 O   0  0  0  0  0  0  0  0  0  0  0  0
   21.0143  -10.7516  -16.4104 N   0  0  0  0  0  0  0  0  0  0  0  0
   21.1045   -9.9238  -15.2384 C   0  0  0  0  0  0  0  0  0  0  0  0
   21.8630   -8.6777  -15.4758 C   0  0  0  0  0  0  0  0  0  0  0  0
   22.6882   -8.5489  -16.4240 O   0  0  0  0  0  0  0  0  0  0  0  0
   21.6713   -7.5652  -14.6133 N   0  0  0  0  0  0  0  0  0  0  0  0
   22.3069   -6.2824  -14.7998 C   0  0  1  0  0  0  0  0  0  0  0  0
   21.7942   -5.7388  -16.1344 C   0  0  0  0  0  0  0  0  0  0  0  0
   22.5953   -4.1065  -16.3428 S   0  0  0  0  0  0  0  0  0  0  0  0
   22.0321   -5.3501  -13.6868 C   0  0  0  0  0  0  0  0  0  0  0  0
   22.9020   -4.5324  -13.3446 O   0  0  0  0  0  0  0  0  0  0  0  0
   20.8235   -5.3745  -13.0223 O   0  0  0  0  0  0  0  0  0  0  0  0
  2  1  1  1
  2  3  1  0
  4  2  1  0
  4  5  2  0
  6  4  1  0
  7  6  1  0
  8  7  1  0
  9  8  2  0
 10  8  1  0
 11 12  1  6
 11 10  1  0
 12 13  1  0
 14 11  1  0
 15 14  2  0
 16 14  1  0
M  END
$$$$
