AGC.pdb
     RDKit          3D

 16 15  0  0  1  0  0  0  0  0999 V2000
   19.4537  -12.5300  -17.4165 C   0  0  0  0  0  0  0  0  0  0  0  0
   18.7430  -11.3315  -16.7893 C   0  0  2  0  0  0  0  0  0  0  0  0
   18.3860  -10.4519  -17.8595 N   0  0  0  0  0  0  0  0  0  0  0  0
   19.6791  -10.6556  -15.8478 C   0  0  0  0  0  0  0  0  0  0  0  0
   20.0395  -11.2969  -14.8051 O   0  0  0  0  0  0  0  0  0  0  0  0
   20.1746   -9.3411  -16.0712 N   0  0  0  0  0  0  0  0  0  0  0  0
   21.0065   -8.7608  -15.0523 C   0  0  0  0  0  0  0  0  0  0  0  0
   20.3024   -7.7342  -14.2557 C   0  0  0  0  0  0  0  0  0  0  0  0
   19.2112   -7.2130  -14.6221 O   0  0  0  0  0  0  0  0  0  0  0  0
   20.8585   -7.3006  -13.0223 N   0  0  0  0  0  0  0  0  0  0  0  0
   20.3004   -6.2417  -12.2151 C   0  0  1  0  0  0  0  0  0  0  0  0
   20.1047   -6.8262  -10.8152 C   0  0  0  0  0  0  0  0  0  0  0  0
   19.3878   -5.4740   -9.8116 S   0  0  0  0  0  0  0  0  0  0  0  0
   21.1585   -5.0390  -12.1914 C   0  0  0  0  0  0  0  0  0  0  0  0
   22.3832   -5.1643  -12.0282 O   0  0  0  0  0  0  0  0  0  0  0  0
   20.6192   -3.7790  -12.3478 O   0  0  0  0  0  0  0  0  0  0  0  0
  2  1  1  6
  2  3  1  0
  4  2  1  0
  4  5  2  0
  6  4  1  0
  7  6  1  0
  8  7  1  0
  9  8  2  0
 10  8  1  0
 11 12  1  1
 11 10  1  0
 12 13  1  0
 14 11  1  0
 15 14  2  0
 16 14  1  0
M  END
$$$$
