AGC.pdb
     RDKit          3D

 16 15  0  0  1  0  0  0  0  0999 V2000
   13.6714  -17.3979  -45.8985 C   0  0  0  0  0  0  0  0  0  0  0  0
   12.8753  -16.3763  -46.7094 C   0  0  2  0  0  0  0  0  0  0  0  0
   13.4992  -15.1051  -46.5056 N   0  0  0  0  0  0  0  0  0  0  0  0
   11.4715  -16.3551  -46.2113 C   0  0  0  0  0  0  0  0  0  0  0  0
   10.8936  -15.2218  -46.1107 O   0  0  0  0  0  0  0  0  0  0  0  0
   10.7680  -17.5377  -45.8509 N   0  0  0  0  0  0  0  0  0  0  0  0
    9.4379  -17.3876  -45.3262 C   0  0  0  0  0  0  0  0  0  0  0  0
    8.4144  -18.0434  -46.1670 C   0  0  0  0  0  0  0  0  0  0  0  0
    8.2705  -17.7859  -47.3957 O   0  0  0  0  0  0  0  0  0  0  0  0
    7.5452  -19.0074  -45.5895 N   0  0  0  0  0  0  0  0  0  0  0  0
    7.9970  -20.1311  -44.8037 C   0  0  1  0  0  0  0  0  0  0  0  0
    8.4830  -19.5566  -43.4721 C   0  0  0  0  0  0  0  0  0  0  0  0
    7.1391  -18.4603  -42.8877 S   0  0  0  0  0  0  0  0  0  0  0  0
    6.9394  -21.1446  -44.6095 C   0  0  0  0  0  0  0  0  0  0  0  0
    7.1210  -22.0719  -43.8036 O   0  0  0  0  0  0  0  0  0  0  0  0
    5.7531  -21.0760  -45.3102 O   0  0  0  0  0  0  0  0  0  0  0  0
  2  1  1  1
  2  3  1  0
  4  2  1  0
  4  5  2  0
  6  4  1  0
  7  6  1  0
  8  7  1  0
  9  8  2  0
 10  8  1  0
 11 12  1  1
 11 10  1  0
 12 13  1  0
 14 11  1  0
 15 14  2  0
 16 14  1  0
M  END
$$$$
