AGC.pdb
     RDKit          3D

 16 15  0  0  1  0  0  0  0  0999 V2000
   17.6692  -12.6173  -17.2993 C   0  0  0  0  0  0  0  0  0  0  0  0
   19.0770  -12.0262  -17.3594 C   0  0  2  0  0  0  0  0  0  0  0  0
   19.8397  -12.6610  -16.3289 N   0  0  0  0  0  0  0  0  0  0  0  0
   18.9933  -10.5585  -17.1183 C   0  0  0  0  0  0  0  0  0  0  0  0
   18.5364   -9.8268  -18.0588 O   0  0  0  0  0  0  0  0  0  0  0  0
   19.3995   -9.9582  -15.8944 N   0  0  0  0  0  0  0  0  0  0  0  0
   19.1681   -8.5482  -15.7351 C   0  0  0  0  0  0  0  0  0  0  0  0
   20.1550   -7.9042  -14.8431 C   0  0  0  0  0  0  0  0  0  0  0  0
   20.2317   -8.1614  -13.6083 O   0  0  0  0  0  0  0  0  0  0  0  0
   21.0656   -6.9528  -15.3759 N   0  0  0  0  0  0  0  0  0  0  0  0
   22.1226   -6.3337  -14.6118 C   0  0  1  0  0  0  0  0  0  0  0  0
   23.3009   -6.1591  -15.5715 C   0  0  0  0  0  0  0  0  0  0  0  0
   23.7928   -7.8522  -16.0621 S   0  0  0  0  0  0  0  0  0  0  0  0
   21.7075   -5.0476  -14.0146 C   0  0  0  0  0  0  0  0  0  0  0  0
   20.8573   -4.3506  -14.5924 O   0  0  0  0  0  0  0  0  0  0  0  0
   22.2503   -4.6093  -12.8245 O   0  0  0  0  0  0  0  0  0  0  0  0
  2  1  1  1
  2  3  1  0
  4  2  1  0
  4  5  2  0
  6  4  1  0
  7  6  1  0
  8  7  1  0
  9  8  2  0
 10  8  1  0
 11 12  1  6
 11 10  1  0
 12 13  1  0
 14 11  1  0
 15 14  2  0
 16 14  1  0
M  END
$$$$
