AGC.pdb
     RDKit          3D

 16 15  0  0  1  0  0  0  0  0999 V2000
   16.7427  -12.2848  -17.8868 C   0  0  0  0  0  0  0  0  0  0  0  0
   18.1056  -12.1465  -17.2097 C   0  0  2  0  0  0  0  0  0  0  0  0
   17.9140  -12.4427  -15.8233 N   0  0  0  0  0  0  0  0  0  0  0  0
   18.5892  -10.7481  -17.3830 C   0  0  0  0  0  0  0  0  0  0  0  0
   18.9758  -10.3928  -18.5461 O   0  0  0  0  0  0  0  0  0  0  0  0
   18.6325   -9.8136  -16.3115 N   0  0  0  0  0  0  0  0  0  0  0  0
   19.0113   -8.4617  -16.6217 C   0  0  0  0  0  0  0  0  0  0  0  0
   19.6706   -7.7787  -15.4888 C   0  0  0  0  0  0  0  0  0  0  0  0
   19.0591   -7.4673  -14.4279 O   0  0  0  0  0  0  0  0  0  0  0  0
   21.0498   -7.4492  -15.5755 N   0  0  0  0  0  0  0  0  0  0  0  0
   21.8147   -6.8910  -14.4857 C   0  0  1  0  0  0  0  0  0  0  0  0
   23.2294   -7.4569  -14.6196 C   0  0  0  0  0  0  0  0  0  0  0  0
   23.0835   -9.2432  -14.2490 S   0  0  0  0  0  0  0  0  0  0  0  0
   21.8128   -5.4134  -14.4945 C   0  0  0  0  0  0  0  0  0  0  0  0
   22.1288   -4.7950  -13.4650 O   0  0  0  0  0  0  0  0  0  0  0  0
   21.4651   -4.7107  -15.6295 O   0  0  0  0  0  0  0  0  0  0  0  0
  2  1  1  6
  2  3  1  0
  4  2  1  0
  4  5  2  0
  6  4  1  0
  7  6  1  0
  8  7  1  0
  9  8  2  0
 10  8  1  0
 11 12  1  6
 11 10  1  0
 12 13  1  0
 14 11  1  0
 15 14  2  0
 16 14  1  0
M  END
$$$$
