AGC.pdb
     RDKit          3D

 16 15  0  0  1  0  0  0  0  0999 V2000
   17.1579  -11.9651  -17.5692 C   0  0  0  0  0  0  0  0  0  0  0  0
   18.6071  -12.0252  -18.0499 C   0  0  2  0  0  0  0  0  0  0  0  0
   19.3532  -12.7102  -17.0396 N   0  0  0  0  0  0  0  0  0  0  0  0
   19.1150  -10.6353  -18.2222 C   0  0  0  0  0  0  0  0  0  0  0  0
   19.4160  -10.2545  -19.4023 O   0  0  0  0  0  0  0  0  0  0  0  0
   19.2718   -9.7358  -17.1315 N   0  0  0  0  0  0  0  0  0  0  0  0
   19.7216   -8.4026  -17.4271 C   0  0  0  0  0  0  0  0  0  0  0  0
   19.7397   -7.5282  -16.2356 C   0  0  0  0  0  0  0  0  0  0  0  0
   18.7053   -7.2783  -15.5544 O   0  0  0  0  0  0  0  0  0  0  0  0
   20.9614   -6.9332  -15.8212 N   0  0  0  0  0  0  0  0  0  0  0  0
   21.0996   -6.1179  -14.6378 C   0  0  1  0  0  0  0  0  0  0  0  0
   22.4459   -6.4900  -14.0144 C   0  0  0  0  0  0  0  0  0  0  0  0
   22.2963   -8.2486  -13.5303 S   0  0  0  0  0  0  0  0  0  0  0  0
   21.0146   -4.6731  -14.9357 C   0  0  0  0  0  0  0  0  0  0  0  0
   21.3050   -4.2645  -16.0720 O   0  0  0  0  0  0  0  0  0  0  0  0
   20.6175   -3.7714  -13.9703 O   0  0  0  0  0  0  0  0  0  0  0  0
  2  1  1  1
  2  3  1  0
  4  2  1  0
  4  5  2  0
  6  4  1  0
  7  6  1  0
  8  7  1  0
  9  8  2  0
 10  8  1  0
 11 12  1  6
 11 10  1  0
 12 13  1  0
 14 11  1  0
 15 14  2  0
 16 14  1  0
M  END
$$$$
