AGC.pdb
     RDKit          3D

 16 15  0  0  1  0  0  0  0  0999 V2000
   18.7210  -11.6237  -19.1151 C   0  0  0  0  0  0  0  0  0  0  0  0
   19.0347  -10.1314  -19.2132 C   0  0  2  0  0  0  0  0  0  0  0  0
   20.4551   -9.9966  -19.1098 N   0  0  0  0  0  0  0  0  0  0  0  0
   18.3597   -9.4230  -18.0898 C   0  0  0  0  0  0  0  0  0  0  0  0
   17.0837   -9.4131  -18.0745 O   0  0  0  0  0  0  0  0  0  0  0  0
   19.0805   -8.7690  -17.0525 N   0  0  0  0  0  0  0  0  0  0  0  0
   18.3196   -8.1185  -16.0205 C   0  0  0  0  0  0  0  0  0  0  0  0
   19.1735   -7.4583  -15.0108 C   0  0  0  0  0  0  0  0  0  0  0  0
   18.7084   -6.9271  -13.9630 O   0  0  0  0  0  0  0  0  0  0  0  0
   20.5797   -7.4075  -15.2070 N   0  0  0  0  0  0  0  0  0  0  0  0
   21.5070   -6.8517  -14.2502 C   0  0  1  0  0  0  0  0  0  0  0  0
   22.8536   -7.5273  -14.5144 C   0  0  0  0  0  0  0  0  0  0  0  0
   22.5922   -9.3038  -14.1603 S   0  0  0  0  0  0  0  0  0  0  0  0
   21.6038   -5.3805  -14.3483 C   0  0  0  0  0  0  0  0  0  0  0  0
   21.1025   -4.7979  -15.3239 O   0  0  0  0  0  0  0  0  0  0  0  0
   22.2430   -4.6445  -13.3723 O   0  0  0  0  0  0  0  0  0  0  0  0
  2  1  1  1
  2  3  1  0
  4  2  1  0
  4  5  2  0
  6  4  1  0
  7  6  1  0
  8  7  1  0
  9  8  2  0
 10  8  1  0
 11 12  1  6
 11 10  1  0
 12 13  1  0
 14 11  1  0
 15 14  2  0
 16 14  1  0
M  END
$$$$
