AGC.pdb
     RDKit          3D

 16 15  0  0  1  0  0  0  0  0999 V2000
   17.1079  -12.0417  -17.1869 C   0  0  0  0  0  0  0  0  0  0  0  0
   18.4447  -11.3080  -17.2850 C   0  0  2  0  0  0  0  0  0  0  0  0
   19.4326  -12.1621  -16.7009 N   0  0  0  0  0  0  0  0  0  0  0  0
   18.3478  -10.0281  -16.5288 C   0  0  0  0  0  0  0  0  0  0  0  0
   17.6836   -9.0747  -17.0566 O   0  0  0  0  0  0  0  0  0  0  0  0
   18.9616   -9.8392  -15.2596 N   0  0  0  0  0  0  0  0  0  0  0  0
   18.8053   -8.5570  -14.6284 C   0  0  0  0  0  0  0  0  0  0  0  0
   20.0945   -7.9588  -14.2225 C   0  0  0  0  0  0  0  0  0  0  0  0
   20.6334   -8.1889  -13.1031 O   0  0  0  0  0  0  0  0  0  0  0  0
   20.7735   -7.0852  -15.1137 N   0  0  0  0  0  0  0  0  0  0  0  0
   22.0431   -6.4634  -14.8210 C   0  0  1  0  0  0  0  0  0  0  0  0
   22.8573   -6.5192  -16.1146 C   0  0  0  0  0  0  0  0  0  0  0  0
   24.4823   -5.7824  -15.7072 S   0  0  0  0  0  0  0  0  0  0  0  0
   21.8922   -5.0786  -14.3282 C   0  0  0  0  0  0  0  0  0  0  0  0
   22.4954   -4.7252  -13.3017 O   0  0  0  0  0  0  0  0  0  0  0  0
   21.0912   -4.1724  -14.9915 O   0  0  0  0  0  0  0  0  0  0  0  0
  2  1  1  1
  2  3  1  0
  4  2  1  0
  4  5  2  0
  6  4  1  0
  7  6  1  0
  8  7  1  0
  9  8  2  0
 10  8  1  0
 11 12  1  6
 11 10  1  0
 12 13  1  0
 14 11  1  0
 15 14  2  0
 16 14  1  0
M  END
$$$$
