IND.pdb
     RDKit          3D

 25 24  0  0  1  0  0  0  0  0999 V2000
   28.9439  -13.0377  -15.7390 C   0  0  0  0  0  0  0  0  0  0  0  0
   27.5580  -13.6786  -16.0066 C   0  0  0  0  0  0  0  0  0  0  0  0
   26.6485  -12.5509  -16.3700 C   0  0  2  0  0  0  0  0  0  0  0  0
   26.6158  -11.5932  -15.1863 C   0  0  0  0  0  0  0  0  0  0  0  0
   25.3108  -12.8729  -16.8932 C   0  0  2  0  0  0  0  0  0  0  0  0
   25.5291  -13.7972  -18.0527 N   0  0  0  0  0  0  0  0  0  0  0  0
   24.4321  -11.8138  -17.3557 C   0  0  0  0  0  0  0  0  0  0  0  0
   24.7486  -11.1828  -18.4438 O   0  0  0  0  0  0  0  0  0  0  0  0
   19.2039  -10.4613  -19.1692 N   0  0  0  0  0  0  0  0  0  0  0  0
   20.4987   -9.9155  -18.8847 C   0  0  0  0  0  0  0  0  0  0  0  0
   20.6618   -8.7297  -19.2201 O   0  0  0  0  0  0  0  0  0  0  0  0
   21.4498  -10.8163  -18.2434 C   0  0  0  0  0  0  0  0  0  0  0  0
   22.4847  -10.2043  -17.3600 C   0  0  2  0  0  0  0  0  0  0  0  0
   23.2319  -11.3437  -16.7877 N   0  0  0  0  0  0  0  0  0  0  0  0
   21.9825   -9.3172  -16.3091 C   0  0  0  0  0  0  0  0  0  0  0  0
   21.5184   -9.7915  -15.2486 O   0  0  0  0  0  0  0  0  0  0  0  0
   21.9743   -7.8926  -16.3948 N   0  0  0  0  0  0  0  0  0  0  0  0
   21.4966   -6.9922  -15.3935 C   0  0  1  0  0  0  0  0  0  0  0  0
   22.5037   -5.9616  -14.9970 C   0  0  0  0  0  0  0  0  0  0  0  0
   22.1194   -5.0703  -13.9140 C   0  0  0  0  0  0  0  0  0  0  0  0
   20.9840   -5.1459  -13.3618 O   0  0  0  0  0  0  0  0  0  0  0  0
   20.2208   -6.3109  -15.7942 C   0  0  0  0  0  0  0  0  0  0  0  0
   20.0511   -5.9245  -16.9880 O   0  0  0  0  0  0  0  0  0  0  0  0
   22.9522   -4.0634  -13.3895 O   0  0  0  0  0  0  0  0  0  0  0  0
   19.1747   -6.0594  -14.9265 O   0  0  0  0  0  0  0  0  0  0  0  0
  1  2  1  0
  2  3  1  0
  3  5  1  0
  3  4  1  1
  5  6  1  6
  7  5  1  0
  7  8  2  0
 10 12  1  0
 10  9  1  0
 11 10  2  0
 13 12  1  1
 13 14  1  0
 13 15  1  0
 14  7  1  0
 15 17  1  0
 16 15  2  0
 17 18  1  0
 18 22  1  0
 18 19  1  6
 20 19  1  0
 20 24  1  0
 21 20  2  0
 22 23  2  0
 22 25  1  0
M  END
$$$$
