IND.pdb
     RDKit          3D

 25 24  0  0  1  0  0  0  0  0999 V2000
   27.8553  -15.7417  -18.0420 C   0  0  0  0  0  0  0  0  0  0  0  0
   27.5828  -14.8031  -16.8388 C   0  0  0  0  0  0  0  0  0  0  0  0
   26.6493  -13.7516  -17.3427 C   0  0  2  0  0  0  0  0  0  0  0  0
   27.2546  -13.1789  -18.6174 C   0  0  0  0  0  0  0  0  0  0  0  0
   26.1895  -12.7166  -16.4024 C   0  0  2  0  0  0  0  0  0  0  0  0
   25.7785  -13.4401  -15.1559 N   0  0  0  0  0  0  0  0  0  0  0  0
   25.0922  -11.8369  -16.7626 C   0  0  0  0  0  0  0  0  0  0  0  0
   25.2836  -10.9697  -17.7079 O   0  0  0  0  0  0  0  0  0  0  0  0
   20.4940   -9.5253  -17.6221 N   0  0  0  0  0  0  0  0  0  0  0  0
   20.4673  -10.9561  -17.7078 C   0  0  0  0  0  0  0  0  0  0  0  0
   19.4228  -11.4419  -18.1751 O   0  0  0  0  0  0  0  0  0  0  0  0
   21.6608  -11.6510  -17.2388 C   0  0  0  0  0  0  0  0  0  0  0  0
   22.7824  -10.8142  -16.7215 C   0  0  2  0  0  0  0  0  0  0  0  0
   23.7906  -11.7754  -16.2279 N   0  0  0  0  0  0  0  0  0  0  0  0
   22.4272   -9.8399  -15.6880 C   0  0  0  0  0  0  0  0  0  0  0  0
   22.0865  -10.2231  -14.5469 O   0  0  0  0  0  0  0  0  0  0  0  0
   22.4342   -8.4255  -15.8793 N   0  0  0  0  0  0  0  0  0  0  0  0
   22.1135   -7.4417  -14.8940 C   0  0  1  0  0  0  0  0  0  0  0  0
   22.7120   -6.1024  -15.1801 C   0  0  0  0  0  0  0  0  0  0  0  0
   22.3650   -5.0328  -14.2579 C   0  0  0  0  0  0  0  0  0  0  0  0
   22.7297   -5.0544  -13.0470 O   0  0  0  0  0  0  0  0  0  0  0  0
   20.6340   -7.2910  -14.6920 C   0  0  0  0  0  0  0  0  0  0  0  0
   19.8372   -7.4551  -15.6624 O   0  0  0  0  0  0  0  0  0  0  0  0
   21.6093   -3.8996  -14.6146 O   0  0  0  0  0  0  0  0  0  0  0  0
   20.0489   -6.9715  -13.4813 O   0  0  0  0  0  0  0  0  0  0  0  0
  1  2  1  0
  2  3  1  0
  3  5  1  0
  3  4  1  6
  5  6  1  1
  7  5  1  0
  7  8  2  0
 10 12  1  0
 10  9  1  0
 11 10  2  0
 13 12  1  1
 13 14  1  0
 13 15  1  0
 14  7  1  0
 15 17  1  0
 16 15  2  0
 17 18  1  0
 18 22  1  0
 18 19  1  6
 20 19  1  0
 20 24  1  0
 21 20  2  0
 22 23  2  0
 22 25  1  0
M  END
$$$$
