IND.pdb
     RDKit          3D

 25 24  0  0  1  0  0  0  0  0999 V2000
   11.8930  -11.6606   -9.5056 C   0  0  0  0  0  0  0  0  0  0  0  0
   12.1613  -11.4588  -11.0189 C   0  0  0  0  0  0  0  0  0  0  0  0
   13.4179  -10.6564  -11.1088 C   0  0  2  0  0  0  0  0  0  0  0  0
   13.2341   -9.4239  -10.2331 C   0  0  0  0  0  0  0  0  0  0  0  0
   13.9544  -10.3452  -12.4437 C   0  0  2  0  0  0  0  0  0  0  0  0
   14.0282  -11.6504  -13.1768 N   0  0  0  0  0  0  0  0  0  0  0  0
   15.2522   -9.7090  -12.5801 C   0  0  0  0  0  0  0  0  0  0  0  0
   15.4585   -8.5915  -11.9550 O   0  0  0  0  0  0  0  0  0  0  0  0
   20.1521   -8.3149  -13.8815 N   0  0  0  0  0  0  0  0  0  0  0  0
   19.9923   -9.7177  -14.1302 C   0  0  0  0  0  0  0  0  0  0  0  0
   21.0101  -10.3059  -14.5345 O   0  0  0  0  0  0  0  0  0  0  0  0
   18.6655  -10.2687  -13.8786 C   0  0  0  0  0  0  0  0  0  0  0  0
   17.6135   -9.3283  -13.3938 C   0  0  2  0  0  0  0  0  0  0  0  0
   16.3774  -10.1343  -13.3130 N   0  0  0  0  0  0  0  0  0  0  0  0
   17.4110   -8.1255  -14.2035 C   0  0  0  0  0  0  0  0  0  0  0  0
   16.8218   -8.1955  -15.3049 O   0  0  0  0  0  0  0  0  0  0  0  0
   17.8499   -6.8201  -13.8288 N   0  0  0  0  0  0  0  0  0  0  0  0
   17.7025   -5.6283  -14.6030 C   0  0  1  0  0  0  0  0  0  0  0  0
   17.7215   -4.3821  -13.7783 C   0  0  0  0  0  0  0  0  0  0  0  0
   17.4913   -3.1356  -14.4913 C   0  0  0  0  0  0  0  0  0  0  0  0
   17.3435   -3.1055  -15.7470 O   0  0  0  0  0  0  0  0  0  0  0  0
   18.7300   -5.5188  -15.6915 C   0  0  0  0  0  0  0  0  0  0  0  0
   19.9640   -5.5309  -15.4079 O   0  0  0  0  0  0  0  0  0  0  0  0
   17.4131   -1.8751  -13.8688 O   0  0  0  0  0  0  0  0  0  0  0  0
   18.4228   -5.3981  -17.0336 O   0  0  0  0  0  0  0  0  0  0  0  0
  1  2  1  0
  2  3  1  0
  3  5  1  0
  3  4  1  6
  5  6  1  6
  7  5  1  0
  7  8  2  0
 10 12  1  0
 10  9  1  0
 11 10  2  0
 13 12  1  6
 13 14  1  0
 13 15  1  0
 14  7  1  0
 15 17  1  0
 16 15  2  0
 17 18  1  0
 18 22  1  0
 18 19  1  1
 20 19  1  0
 20 24  1  0
 21 20  2  0
 22 23  2  0
 22 25  1  0
M  END
$$$$
