IND.pdb
     RDKit          3D

 25 24  0  0  1  0  0  0  0  0999 V2000
   18.8039  -13.7442  -15.9260 C   0  0  0  0  0  0  0  0  0  0  0  0
   19.2083  -12.5774  -16.8630 C   0  0  0  0  0  0  0  0  0  0  0  0
   19.0509  -11.3305  -16.0559 C   0  0  2  0  0  0  0  0  0  0  0  0
   17.6212  -11.3054  -15.5317 C   0  0  0  0  0  0  0  0  0  0  0  0
   19.4726  -10.0532  -16.6538 C   0  0  2  0  0  0  0  0  0  0  0  0
   20.8013  -10.3134  -17.2965 N   0  0  0  0  0  0  0  0  0  0  0  0
   19.6281   -8.8729  -15.8229 C   0  0  0  0  0  0  0  0  0  0  0  0
   18.5865   -8.4192  -15.1971 O   0  0  0  0  0  0  0  0  0  0  0  0
   22.2182   -5.2731  -12.2955 N   0  0  0  0  0  0  0  0  0  0  0  0
   22.4298   -5.3304  -13.7123 C   0  0  0  0  0  0  0  0  0  0  0  0
   22.8386   -4.2779  -14.2324 O   0  0  0  0  0  0  0  0  0  0  0  0
   22.1398   -6.6072  -14.3549 C   0  0  0  0  0  0  0  0  0  0  0  0
   20.7402   -6.8399  -14.8165 C   0  0  2  0  0  0  0  0  0  0  0  0
   20.7848   -8.1093  -15.5719 N   0  0  0  0  0  0  0  0  0  0  0  0
   20.1456   -5.7670  -15.6159 C   0  0  0  0  0  0  0  0  0  0  0  0
   20.4876   -5.6016  -16.8078 O   0  0  0  0  0  0  0  0  0  0  0  0
   19.1659   -4.8500  -15.1298 N   0  0  0  0  0  0  0  0  0  0  0  0
   18.5741   -3.7806  -15.8698 C   0  0  1  0  0  0  0  0  0  0  0  0
   17.0869   -3.7209  -15.7344 C   0  0  0  0  0  0  0  0  0  0  0  0
   16.3464   -4.8514  -16.2716 C   0  0  0  0  0  0  0  0  0  0  0  0
   15.3042   -5.2925  -15.7068 O   0  0  0  0  0  0  0  0  0  0  0  0
   19.1585   -2.4442  -15.5166 C   0  0  0  0  0  0  0  0  0  0  0  0
   19.5168   -2.1984  -14.3272 O   0  0  0  0  0  0  0  0  0  0  0  0
   16.7087   -5.5460  -17.4416 O   0  0  0  0  0  0  0  0  0  0  0  0
   19.3416   -1.4177  -16.4238 O   0  0  0  0  0  0  0  0  0  0  0  0
  1  2  1  0
  2  3  1  0
  3  5  1  0
  3  4  1  6
  5  6  1  1
  7  5  1  0
  7  8  2  0
 10 12  1  0
 10  9  1  0
 11 10  2  0
 13 12  1  6
 13 14  1  0
 13 15  1  0
 14  7  1  0
 15 17  1  0
 16 15  2  0
 17 18  1  0
 18 22  1  0
 18 19  1  1
 20 19  1  0
 20 24  1  0
 21 20  2  0
 22 23  2  0
 22 25  1  0
M  END
$$$$
