IND.pdb
     RDKit          3D

 25 24  0  0  1  0  0  0  0  0999 V2000
   23.9637  -20.9893   -7.4267 C   0  0  0  0  0  0  0  0  0  0  0  0
   25.2976  -20.8656   -8.2066 C   0  0  0  0  0  0  0  0  0  0  0  0
   24.9214  -20.7674   -9.6487 C   0  0  2  0  0  0  0  0  0  0  0  0
   24.0305  -21.9605   -9.9686 C   0  0  0  0  0  0  0  0  0  0  0  0
   25.9919  -20.5608  -10.6376 C   0  0  2  0  0  0  0  0  0  0  0  0
   26.6620  -19.2737  -10.2624 N   0  0  0  0  0  0  0  0  0  0  0  0
   25.6747  -20.4762  -12.0518 C   0  0  0  0  0  0  0  0  0  0  0  0
   25.0517  -19.4225  -12.4808 O   0  0  0  0  0  0  0  0  0  0  0  0
   26.1579  -20.2760  -17.3039 N   0  0  0  0  0  0  0  0  0  0  0  0
   26.4862  -21.5651  -16.7694 C   0  0  0  0  0  0  0  0  0  0  0  0
   26.5897  -22.4780  -17.6068 O   0  0  0  0  0  0  0  0  0  0  0  0
   26.6548  -21.6376  -15.3224 C   0  0  0  0  0  0  0  0  0  0  0  0
   25.5184  -21.1711  -14.4758 C   0  0  2  0  0  0  0  0  0  0  0  0
   25.9530  -21.3963  -13.0813 N   0  0  0  0  0  0  0  0  0  0  0  0
   24.2252  -21.8056  -14.7379 C   0  0  0  0  0  0  0  0  0  0  0  0
   23.9667  -22.9347  -14.2653 O   0  0  0  0  0  0  0  0  0  0  0  0
   23.1871  -21.2215  -15.5240 N   0  0  0  0  0  0  0  0  0  0  0  0
   21.7946  -21.5308  -15.4425 C   0  0  1  0  0  0  0  0  0  0  0  0
   21.2673  -21.5165  -14.0442 C   0  0  0  0  0  0  0  0  0  0  0  0
   19.8513  -21.8091  -13.8879 C   0  0  0  0  0  0  0  0  0  0  0  0
   19.2394  -22.5782  -14.6841 O   0  0  0  0  0  0  0  0  0  0  0  0
   20.9540  -20.6295  -16.2991 C   0  0  0  0  0  0  0  0  0  0  0  0
   19.9000  -21.0693  -16.8459 O   0  0  0  0  0  0  0  0  0  0  0  0
   19.0459  -21.2784  -12.8622 O   0  0  0  0  0  0  0  0  0  0  0  0
   21.2535  -19.3039  -16.5504 O   0  0  0  0  0  0  0  0  0  0  0  0
  1  2  1  0
  2  3  1  0
  3  5  1  0
  3  4  1  6
  5  6  1  1
  7  5  1  0
  7  8  2  0
 10 12  1  0
 10  9  1  0
 11 10  2  0
 13 12  1  6
 13 14  1  0
 13 15  1  0
 14  7  1  0
 15 17  1  0
 16 15  2  0
 17 18  1  0
 18 22  1  0
 18 19  1  1
 20 19  1  0
 20 24  1  0
 21 20  2  0
 22 23  2  0
 22 25  1  0
M  END
$$$$
