IND.pdb
     RDKit          3D

 25 24  0  0  1  0  0  0  0  0999 V2000
   28.5543  -11.0453  -16.6765 C   0  0  0  0  0  0  0  0  0  0  0  0
   27.3352  -11.9707  -16.4308 C   0  0  0  0  0  0  0  0  0  0  0  0
   26.1333  -11.0849  -16.4740 C   0  0  2  0  0  0  0  0  0  0  0  0
   26.4002   -9.9103  -15.5420 C   0  0  0  0  0  0  0  0  0  0  0  0
   24.8084  -11.6946  -16.2747 C   0  0  2  0  0  0  0  0  0  0  0  0
   24.7012  -12.7960  -17.2855 N   0  0  0  0  0  0  0  0  0  0  0  0
   23.6068  -10.8890  -16.3974 C   0  0  0  0  0  0  0  0  0  0  0  0
   23.3417  -10.0327  -15.4601 O   0  0  0  0  0  0  0  0  0  0  0  0
   18.1531  -10.5360  -18.5550 N   0  0  0  0  0  0  0  0  0  0  0  0
   18.9534  -10.3216  -17.3851 C   0  0  0  0  0  0  0  0  0  0  0  0
   18.4199   -9.6399  -16.4928 O   0  0  0  0  0  0  0  0  0  0  0  0
   20.2805  -10.9267  -17.3936 C   0  0  0  0  0  0  0  0  0  0  0  0
   21.4540  -10.0054  -17.3809 C   0  0  2  0  0  0  0  0  0  0  0  0
   22.6407  -10.8851  -17.4225 N   0  0  0  0  0  0  0  0  0  0  0  0
   21.5221   -9.0750  -16.2525 C   0  0  0  0  0  0  0  0  0  0  0  0
   21.7459   -9.4972  -15.0964 O   0  0  0  0  0  0  0  0  0  0  0  0
   21.3450   -7.6630  -16.3622 N   0  0  0  0  0  0  0  0  0  0  0  0
   21.3557   -6.7273  -15.2825 C   0  0  1  0  0  0  0  0  0  0  0  0
   22.4788   -5.7446  -15.3639 C   0  0  0  0  0  0  0  0  0  0  0  0
   22.5319   -4.7403  -14.3133 C   0  0  0  0  0  0  0  0  0  0  0  0
   21.6596   -4.6879  -13.3989 O   0  0  0  0  0  0  0  0  0  0  0  0
   20.0571   -5.9868  -15.1502 C   0  0  0  0  0  0  0  0  0  0  0  0
   19.8014   -5.3294  -14.0985 O   0  0  0  0  0  0  0  0  0  0  0  0
   23.5331   -3.7552  -14.2153 O   0  0  0  0  0  0  0  0  0  0  0  0
   19.0769   -5.9672  -16.1244 O   0  0  0  0  0  0  0  0  0  0  0  0
  1  2  1  0
  2  3  1  0
  3  5  1  0
  3  4  1  1
  5  6  1  6
  7  5  1  0
  7  8  2  0
 10 12  1  0
 10  9  1  0
 11 10  2  0
 13 12  1  1
 13 14  1  0
 13 15  1  0
 14  7  1  0
 15 17  1  0
 16 15  2  0
 17 18  1  0
 18 22  1  0
 18 19  1  6
 20 19  1  0
 20 24  1  0
 21 20  2  0
 22 23  2  0
 22 25  1  0
M  END
$$$$
