IND.pdb
     RDKit          3D

 25 24  0  0  1  0  0  0  0  0999 V2000
   12.4404  -23.0915  -13.1411 C   0  0  0  0  0  0  0  0  0  0  0  0
   12.5925  -23.6873  -11.7181 C   0  0  0  0  0  0  0  0  0  0  0  0
   14.0330  -23.5258  -11.3581 C   0  0  2  0  0  0  0  0  0  0  0  0
   14.1872  -22.1610  -10.7001 C   0  0  0  0  0  0  0  0  0  0  0  0
   15.0458  -23.7888  -12.3934 C   0  0  2  0  0  0  0  0  0  0  0  0
   14.9615  -25.2545  -12.6948 N   0  0  0  0  0  0  0  0  0  0  0  0
   16.4437  -23.4880  -12.1421 C   0  0  0  0  0  0  0  0  0  0  0  0
   16.7922  -22.2453  -12.0133 O   0  0  0  0  0  0  0  0  0  0  0  0
   18.3348  -24.3631   -9.1561 N   0  0  0  0  0  0  0  0  0  0  0  0
   19.2767  -25.2662   -9.7498 C   0  0  0  0  0  0  0  0  0  0  0  0
   19.6807  -26.1778   -9.0074 O   0  0  0  0  0  0  0  0  0  0  0  0
   19.6362  -24.9999  -11.1380 C   0  0  0  0  0  0  0  0  0  0  0  0
   18.9183  -23.8907  -11.8312 C   0  0  2  0  0  0  0  0  0  0  0  0
   17.5317  -24.3718  -12.0041 N   0  0  0  0  0  0  0  0  0  0  0  0
   19.4929  -23.4579  -13.1064 C   0  0  0  0  0  0  0  0  0  0  0  0
   19.3252  -24.1411  -14.1408 O   0  0  0  0  0  0  0  0  0  0  0  0
   20.2654  -22.2702  -13.2788 N   0  0  0  0  0  0  0  0  0  0  0  0
   20.7951  -21.7828  -14.5130 C   0  0  1  0  0  0  0  0  0  0  0  0
   19.7560  -21.6043  -15.5723 C   0  0  0  0  0  0  0  0  0  0  0  0
   19.6898  -22.6416  -16.5895 C   0  0  0  0  0  0  0  0  0  0  0  0
   20.6879  -23.3684  -16.8638 O   0  0  0  0  0  0  0  0  0  0  0  0
   21.5581  -20.5013  -14.3454 C   0  0  0  0  0  0  0  0  0  0  0  0
   22.0942  -19.9420  -15.3470 O   0  0  0  0  0  0  0  0  0  0  0  0
   18.5385  -22.9291  -17.3473 O   0  0  0  0  0  0  0  0  0  0  0  0
   21.7310  -19.8588  -13.1340 O   0  0  0  0  0  0  0  0  0  0  0  0
  1  2  1  0
  2  3  1  0
  3  5  1  0
  3  4  1  6
  5  6  1  1
  7  5  1  0
  7  8  2  0
 10 12  1  0
 10  9  1  0
 11 10  2  0
 13 12  1  6
 13 14  1  0
 13 15  1  0
 14  7  1  0
 15 17  1  0
 16 15  2  0
 17 18  1  0
 18 22  1  0
 18 19  1  6
 20 19  1  0
 20 24  1  0
 21 20  2  0
 22 23  2  0
 22 25  1  0
M  END
$$$$
