IND.pdb
     RDKit          3D

 25 24  0  0  1  0  0  0  0  0999 V2000
   29.2589  -20.6514   -4.5019 C   0  0  0  0  0  0  0  0  0  0  0  0
   27.9090  -20.0355   -4.9507 C   0  0  0  0  0  0  0  0  0  0  0  0
   27.8980  -20.1153   -6.4422 C   0  0  2  0  0  0  0  0  0  0  0  0
   29.2680  -19.6652   -6.9319 C   0  0  0  0  0  0  0  0  0  0  0  0
   26.7851  -19.4814   -7.1677 C   0  0  2  0  0  0  0  0  0  0  0  0
   25.5433  -19.8138   -6.3971 N   0  0  0  0  0  0  0  0  0  0  0  0
   26.5271  -19.8240   -8.5547 C   0  0  0  0  0  0  0  0  0  0  0  0
   27.4925  -19.6930   -9.4108 O   0  0  0  0  0  0  0  0  0  0  0  0
   26.8170  -21.1859  -13.2196 N   0  0  0  0  0  0  0  0  0  0  0  0
   26.3790  -22.1263  -12.2302 C   0  0  0  0  0  0  0  0  0  0  0  0
   26.1352  -23.2694  -12.6535 O   0  0  0  0  0  0  0  0  0  0  0  0
   26.2770  -21.6232  -10.8650 C   0  0  0  0  0  0  0  0  0  0  0  0
   25.2424  -20.5831  -10.5934 C   0  0  2  0  0  0  0  0  0  0  0  0
   25.3417  -20.3032   -9.1457 N   0  0  0  0  0  0  0  0  0  0  0  0
   23.8723  -20.9318  -10.9740 C   0  0  0  0  0  0  0  0  0  0  0  0
   22.9572  -20.9254  -10.1210 O   0  0  0  0  0  0  0  0  0  0  0  0
   23.4725  -21.2973  -12.2944 N   0  0  0  0  0  0  0  0  0  0  0  0
   22.2315  -20.9652  -12.9199 C   0  0  1  0  0  0  0  0  0  0  0  0
   21.8902  -19.5135  -12.8213 C   0  0  0  0  0  0  0  0  0  0  0  0
   20.4740  -19.1889  -12.7562 C   0  0  0  0  0  0  0  0  0  0  0  0
   19.6294  -19.7423  -13.5178 O   0  0  0  0  0  0  0  0  0  0  0  0
   22.1806  -21.3903  -14.3584 C   0  0  0  0  0  0  0  0  0  0  0  0
   21.2743  -22.1785  -14.7594 O   0  0  0  0  0  0  0  0  0  0  0  0
   19.9211  -18.2516  -11.8627 O   0  0  0  0  0  0  0  0  0  0  0  0
   23.0835  -20.9742  -15.3186 O   0  0  0  0  0  0  0  0  0  0  0  0
  1  2  1  0
  2  3  1  0
  3  5  1  0
  3  4  1  6
  5  6  1  1
  7  5  1  0
  7  8  2  0
 10 12  1  0
 10  9  1  0
 11 10  2  0
 13 12  1  1
 13 14  1  0
 13 15  1  0
 14  7  1  0
 15 17  1  0
 16 15  2  0
 17 18  1  0
 18 22  1  0
 18 19  1  6
 20 19  1  0
 20 24  1  0
 21 20  2  0
 22 23  2  0
 22 25  1  0
M  END
$$$$
