IND.pdb
     RDKit          3D

 25 24  0  0  1  0  0  0  0  0999 V2000
   28.0290  -18.9770   -7.6905 C   0  0  0  0  0  0  0  0  0  0  0  0
   28.2195  -20.2869   -8.4972 C   0  0  0  0  0  0  0  0  0  0  0  0
   27.1957  -20.2511   -9.5843 C   0  0  2  0  0  0  0  0  0  0  0  0
   25.8385  -20.0465   -8.9244 C   0  0  0  0  0  0  0  0  0  0  0  0
   27.1986  -21.3328  -10.5827 C   0  0  2  0  0  0  0  0  0  0  0  0
   28.5880  -21.3783  -11.1427 N   0  0  0  0  0  0  0  0  0  0  0  0
   26.2881  -21.2873  -11.7126 C   0  0  0  0  0  0  0  0  0  0  0  0
   26.6755  -20.6797  -12.7910 O   0  0  0  0  0  0  0  0  0  0  0  0
   24.8671  -25.2458  -12.9318 N   0  0  0  0  0  0  0  0  0  0  0  0
   24.6594  -24.1193  -13.7939 C   0  0  0  0  0  0  0  0  0  0  0  0
   25.3224  -24.1244  -14.8455 O   0  0  0  0  0  0  0  0  0  0  0  0
   23.7038  -23.1206  -13.3285 C   0  0  0  0  0  0  0  0  0  0  0  0
   24.2174  -21.7407  -13.0871 C   0  0  2  0  0  0  0  0  0  0  0  0
   24.9927  -21.8274  -11.8320 N   0  0  0  0  0  0  0  0  0  0  0  0
   23.2039  -20.6867  -13.0135 C   0  0  0  0  0  0  0  0  0  0  0  0
   22.7905  -20.2824  -11.9042 O   0  0  0  0  0  0  0  0  0  0  0  0
   22.6182  -20.0530  -14.1503 N   0  0  0  0  0  0  0  0  0  0  0  0
   21.6346  -19.0170  -14.1223 C   0  0  1  0  0  0  0  0  0  0  0  0
   21.5655  -18.2337  -15.3932 C   0  0  0  0  0  0  0  0  0  0  0  0
   20.5239  -17.2216  -15.4690 C   0  0  0  0  0  0  0  0  0  0  0  0
   20.6726  -16.0748  -14.9568 O   0  0  0  0  0  0  0  0  0  0  0  0
   20.2666  -19.5318  -13.7817 C   0  0  0  0  0  0  0  0  0  0  0  0
   19.8751  -20.6492  -14.2305 O   0  0  0  0  0  0  0  0  0  0  0  0
   19.2819  -17.4157  -16.1031 O   0  0  0  0  0  0  0  0  0  0  0  0
   19.3625  -18.8533  -12.9864 O   0  0  0  0  0  0  0  0  0  0  0  0
  1  2  1  0
  2  3  1  0
  3  5  1  0
  3  4  1  1
  5  6  1  6
  7  5  1  0
  7  8  2  0
 10 12  1  0
 10  9  1  0
 11 10  2  0
 13 12  1  1
 13 14  1  0
 13 15  1  0
 14  7  1  0
 15 17  1  0
 16 15  2  0
 17 18  1  0
 18 22  1  0
 18 19  1  6
 20 19  1  0
 20 24  1  0
 21 20  2  0
 22 23  2  0
 22 25  1  0
M  END
$$$$
