RKP.pdb
     RDKit          3D

 28 28  0  0  1  0  0  0  0  0999 V2000
   27.0618  -21.9965  -20.4500 N   0  0  0  0  0  0  0  0  0  0  0  0
   27.5069  -20.7129  -20.8887 C   0  0  0  0  0  0  0  0  0  0  0  0
   26.8371  -19.9922  -21.7080 N   0  0  0  0  0  0  0  0  0  0  0  0
   28.7391  -20.2366  -20.3869 N   0  0  0  0  0  0  0  0  0  0  0  0
   29.2667  -20.7501  -19.1223 C   0  0  0  0  0  0  0  0  0  0  0  0
   28.4150  -20.1550  -18.0392 C   0  0  0  0  0  0  0  0  0  0  0  0
   28.9446  -20.5288  -16.6889 C   0  0  0  0  0  0  0  0  0  0  0  0
   28.0870  -21.5201  -15.9498 C   0  0  2  0  0  0  0  0  0  0  0  0
   27.4514  -22.4650  -16.8122 N   0  0  0  0  0  0  0  0  0  0  0  0
   27.0851  -20.7215  -15.1681 C   0  0  0  0  0  0  0  0  0  0  0  0
   27.4095  -19.8637  -14.3154 O   0  0  0  0  0  0  0  0  0  0  0  0
   27.1873  -19.0921  -22.0795 N   0  0  0  0  0  0  0  0  0  0  0  0
   25.6578  -20.9061  -15.3626 C   0  0  1  0  0  0  0  0  0  0  0  0
   24.7023  -20.2111  -14.5883 C   0  0  0  0  0  0  0  0  0  0  0  0
   23.5277  -19.7006  -15.4271 C   0  0  0  0  0  0  0  0  0  0  0  0
   22.5429  -18.9469  -14.5746 C   0  0  0  0  0  0  0  0  0  0  0  0
   21.3066  -18.5499  -15.3370 C   0  0  0  0  0  0  0  0  0  0  0  0
   20.3153  -17.8035  -14.4473 N   0  0  0  0  0  0  0  0  0  0  0  0
   19.1274  -17.4994  -15.2616 C   0  0  0  0  0  0  0  0  0  0  0  0
   24.1959  -20.9560  -13.4418 O   0  0  0  0  0  0  0  0  0  0  0  0
   23.5587  -22.0792  -13.6752 N   0  0  0  0  0  0  0  0  0  0  0  0
   24.2858  -20.6494  -12.0813 C   0  0  0  0  0  0  0  0  0  0  0  0
   24.9158  -19.4154  -11.5226 C   0  0  0  0  0  0  0  0  0  0  0  0
   24.8154  -19.5011  -10.0451 C   0  0  0  0  0  0  0  0  0  0  0  0
   24.7400  -20.9770   -9.7964 C   0  0  1  0  0  0  0  0  0  0  0  0
   23.8197  -21.4042  -10.9542 C   0  0  0  0  0  0  0  0  0  0  0  0
   22.4533  -20.8944  -10.5992 O   0  0  0  0  0  0  0  0  0  0  0  0
   21.7883  -21.4742   -9.7099 O   0  0  0  0  0  0  0  0  0  0  0  0
  2  1  1  0
  3  2  2  0
  4  2  1  0
  5  4  1  0
  6  5  1  0
  7  6  1  0
  8  7  1  0
  8  9  1  6
 10 11  2  0
 10  8  1  0
 12 10  1  0
 13 12  1  0
 13 14  1  1
 14 15  1  0
 16 15  1  0
 17 16  1  0
 18 17  1  0
 19 20  2  0
 19 13  1  0
 21 19  1  0
 22 21  1  0
 23 22  1  0
 24 23  1  0
 24 25  1  0
 25 26  1  1
 25 21  1  0
 26 28  1  0
 27 26  2  0
M  END
$$$$
