RKP.pdb
     RDKit          3D

 28 28  0  0  1  0  0  0  0  0999 V2000
   19.0797  -24.4544   -7.0979 N   0  0  0  0  0  0  0  0  0  0  0  0
   18.1717  -25.5260   -7.3532 C   0  0  0  0  0  0  0  0  0  0  0  0
   17.5159  -26.1127   -6.4231 N   0  0  0  0  0  0  0  0  0  0  0  0
   18.0040  -25.9414   -8.6936 N   0  0  0  0  0  0  0  0  0  0  0  0
   18.5363  -25.1289   -9.7880 C   0  0  0  0  0  0  0  0  0  0  0  0
   17.5314  -24.0409  -10.0308 C   0  0  0  0  0  0  0  0  0  0  0  0
   18.2061  -22.8081  -10.5490 C   0  0  0  0  0  0  0  0  0  0  0  0
   18.5399  -22.8654  -12.0151 C   0  0  2  0  0  0  0  0  0  0  0  0
   18.8023  -24.1905  -12.4795 N   0  0  0  0  0  0  0  0  0  0  0  0
   19.7201  -21.9616  -12.2219 C   0  0  0  0  0  0  0  0  0  0  0  0
   19.7011  -20.7390  -11.9514 O   0  0  0  0  0  0  0  0  0  0  0  0
   16.9368  -26.9539   -6.5894 N   0  0  0  0  0  0  0  0  0  0  0  0
   20.9713  -22.4673  -12.7584 C   0  0  1  0  0  0  0  0  0  0  0  0
   22.0229  -21.6051  -13.1410 C   0  0  0  0  0  0  0  0  0  0  0  0
   23.3832  -22.0710  -12.6153 C   0  0  0  0  0  0  0  0  0  0  0  0
   24.4662  -21.0908  -12.9770 C   0  0  0  0  0  0  0  0  0  0  0  0
   25.4315  -21.6468  -13.9902 C   0  0  0  0  0  0  0  0  0  0  0  0
   26.5847  -20.6815  -14.2538 N   0  0  0  0  0  0  0  0  0  0  0  0
   27.5721  -21.3847  -15.0888 C   0  0  0  0  0  0  0  0  0  0  0  0
   22.1120  -21.3599  -14.5755 O   0  0  0  0  0  0  0  0  0  0  0  0
   22.2890  -22.3945  -15.3631 N   0  0  0  0  0  0  0  0  0  0  0  0
   22.0360  -20.1494  -15.2697 C   0  0  0  0  0  0  0  0  0  0  0  0
   22.0369  -18.7975  -14.6339 C   0  0  0  0  0  0  0  0  0  0  0  0
   21.9198  -17.7989  -15.7245 C   0  0  0  0  0  0  0  0  0  0  0  0
   21.2324  -18.5661  -16.8130 C   0  0  1  0  0  0  0  0  0  0  0  0
   21.9444  -19.9248  -16.6834 C   0  0  0  0  0  0  0  0  0  0  0  0
   23.3366  -19.7074  -17.2004 O   0  0  0  0  0  0  0  0  0  0  0  0
   23.5264  -19.5805  -18.4321 O   0  0  0  0  0  0  0  0  0  0  0  0
  2  1  1  0
  3  2  2  0
  4  2  1  0
  5  4  1  0
  6  5  1  0
  7  6  1  0
  8  7  1  0
  8  9  1  1
 10 11  2  0
 10  8  1  0
 12 10  1  0
 13 12  1  0
 13 14  1  1
 14 15  1  0
 16 15  1  0
 17 16  1  0
 18 17  1  0
 19 20  2  0
 19 13  1  0
 21 19  1  0
 22 21  1  0
 23 22  1  0
 24 23  1  0
 24 25  1  0
 25 26  1  6
 25 21  1  0
 26 28  1  0
 27 26  2  0
M  END
$$$$
