RKP.pdb
     RDKit          3D

 28 28  0  0  1  0  0  0  0  0999 V2000
   27.1732  -28.3153  -16.6274 N   0  0  0  0  0  0  0  0  0  0  0  0
   26.6955  -27.3615  -17.5762 C   0  0  0  0  0  0  0  0  0  0  0  0
   26.1444  -27.7017  -18.6806 N   0  0  0  0  0  0  0  0  0  0  0  0
   26.8466  -25.9912  -17.2650 N   0  0  0  0  0  0  0  0  0  0  0  0
   27.3669  -25.5862  -15.9586 C   0  0  0  0  0  0  0  0  0  0  0  0
   27.4083  -24.0859  -15.9696 C   0  0  0  0  0  0  0  0  0  0  0  0
   27.1192  -23.5620  -17.3427 C   0  0  0  0  0  0  0  0  0  0  0  0
   27.2345  -22.0665  -17.4623 C   0  0  2  0  0  0  0  0  0  0  0  0
   28.4337  -21.5482  -16.8844 N   0  0  0  0  0  0  0  0  0  0  0  0
   26.0112  -21.4886  -16.8127 C   0  0  0  0  0  0  0  0  0  0  0  0
   25.7666  -21.6046  -15.5900 O   0  0  0  0  0  0  0  0  0  0  0  0
   25.7521  -27.0143  -19.3472 N   0  0  0  0  0  0  0  0  0  0  0  0
   25.0264  -20.7505  -17.5836 C   0  0  2  0  0  0  0  0  0  0  0  0
   23.8852  -20.1749  -16.9819 C   0  0  0  0  0  0  0  0  0  0  0  0
   23.0045  -19.4304  -17.9889 C   0  0  0  0  0  0  0  0  0  0  0  0
   21.7803  -18.8650  -17.3209 C   0  0  0  0  0  0  0  0  0  0  0  0
   21.4899  -17.4517  -17.7516 C   0  0  0  0  0  0  0  0  0  0  0  0
   20.2085  -16.9229  -17.1115 N   0  0  0  0  0  0  0  0  0  0  0  0
   19.9032  -15.6242  -17.7333 C   0  0  0  0  0  0  0  0  0  0  0  0
   23.0687  -21.1098  -16.2170 O   0  0  0  0  0  0  0  0  0  0  0  0
   22.8106  -22.2786  -16.7552 N   0  0  0  0  0  0  0  0  0  0  0  0
   22.4955  -20.9501  -14.9525 C   0  0  0  0  0  0  0  0  0  0  0  0
   22.5707  -19.7049  -14.1306 C   0  0  0  0  0  0  0  0  0  0  0  0
   21.8538  -19.9731  -12.8600 C   0  0  0  0  0  0  0  0  0  0  0  0
   21.9600  -21.4614  -12.7195 C   0  0  1  0  0  0  0  0  0  0  0  0
   21.7375  -21.8919  -14.1806 C   0  0  0  0  0  0  0  0  0  0  0  0
   20.2839  -21.6452  -14.4623 O   0  0  0  0  0  0  0  0  0  0  0  0
   19.4244  -22.4436  -14.0230 O   0  0  0  0  0  0  0  0  0  0  0  0
  2  1  1  0
  3  2  2  0
  4  2  1  0
  5  4  1  0
  6  5  1  0
  7  6  1  0
  8  7  1  0
  8  9  1  1
 10 11  2  0
 10  8  1  0
 12 10  1  0
 13 12  1  0
 13 14  1  6
 14 15  1  0
 16 15  1  0
 17 16  1  0
 18 17  1  0
 19 20  2  0
 19 13  1  0
 21 19  1  0
 22 21  1  0
 23 22  1  0
 24 23  1  0
 24 25  1  0
 25 26  1  6
 25 21  1  0
 26 28  1  0
 27 26  2  0
M  END
$$$$
