RKP.pdb
     RDKit          3D

 28 28  0  0  1  0  0  0  0  0999 V2000
   17.7709  -12.0400  -15.2580 N   0  0  0  0  0  0  0  0  0  0  0  0
   17.9898  -10.8556  -16.0244 C   0  0  0  0  0  0  0  0  0  0  0  0
   17.1250   -9.9150  -16.1052 N   0  0  0  0  0  0  0  0  0  0  0  0
   19.2173  -10.7357  -16.7145 N   0  0  0  0  0  0  0  0  0  0  0  0
   19.8464  -11.9161  -17.3078 C   0  0  0  0  0  0  0  0  0  0  0  0
   20.4498  -11.4633  -18.6053 C   0  0  0  0  0  0  0  0  0  0  0  0
   21.0857  -12.6159  -19.3199 C   0  0  0  0  0  0  0  0  0  0  0  0
   22.5792  -12.6896  -19.1516 C   0  0  2  0  0  0  0  0  0  0  0  0
   22.9996  -12.5291  -17.7958 N   0  0  0  0  0  0  0  0  0  0  0  0
   23.1639  -11.6325  -20.0421 C   0  0  0  0  0  0  0  0  0  0  0  0
   23.1082  -11.6837  -21.2922 O   0  0  0  0  0  0  0  0  0  0  0  0
   17.2571   -9.0808  -16.7030 N   0  0  0  0  0  0  0  0  0  0  0  0
   23.8398  -10.4717  -19.4901 C   0  0  1  0  0  0  0  0  0  0  0  0
   24.4119   -9.4778  -20.3149 C   0  0  0  0  0  0  0  0  0  0  0  0
   24.2192   -8.0671  -19.7523 C   0  0  0  0  0  0  0  0  0  0  0  0
   24.6913   -7.0263  -20.7312 C   0  0  0  0  0  0  0  0  0  0  0  0
   24.5376   -5.6253  -20.2013 C   0  0  0  0  0  0  0  0  0  0  0  0
   24.9417   -4.5847  -21.2431 N   0  0  0  0  0  0  0  0  0  0  0  0
   24.8878   -3.2633  -20.5969 C   0  0  0  0  0  0  0  0  0  0  0  0
   25.8198   -9.6899  -20.6291 O   0  0  0  0  0  0  0  0  0  0  0  0
   26.6385   -9.9352  -19.6332 N   0  0  0  0  0  0  0  0  0  0  0  0
   26.4586   -9.6715  -21.8718 C   0  0  0  0  0  0  0  0  0  0  0  0
   25.7799   -9.4193  -23.1786 C   0  0  0  0  0  0  0  0  0  0  0  0
   26.8154   -9.5118  -24.2367 C   0  0  0  0  0  0  0  0  0  0  0  0
   27.8478  -10.4076  -23.6220 C   0  0  1  0  0  0  0  0  0  0  0  0
   27.8449   -9.8787  -22.1763 C   0  0  0  0  0  0  0  0  0  0  0  0
   28.5042   -8.5314  -22.2330 O   0  0  0  0  0  0  0  0  0  0  0  0
   27.8055   -7.4961  -22.1372 O   0  0  0  0  0  0  0  0  0  0  0  0
  2  1  1  0
  3  2  2  0
  4  2  1  0
  5  4  1  0
  6  5  1  0
  7  6  1  0
  8  7  1  0
  8  9  1  1
 10 11  2  0
 10  8  1  0
 12 10  1  0
 13 12  1  0
 13 14  1  6
 14 15  1  0
 16 15  1  0
 17 16  1  0
 18 17  1  0
 19 20  2  0
 19 13  1  0
 21 19  1  0
 22 21  1  0
 23 22  1  0
 24 23  1  0
 24 25  1  0
 25 26  1  1
 25 21  1  0
 26 28  1  0
 27 26  2  0
M  END
$$$$
