RKP.pdb
     RDKit          3D

 28 28  0  0  1  0  0  0  0  0999 V2000
   32.1849  -24.9786  -18.2420 N   0  0  0  0  0  0  0  0  0  0  0  0
   31.6232  -24.3336  -19.3850 C   0  0  0  0  0  0  0  0  0  0  0  0
   31.6329  -24.8620  -20.5512 N   0  0  0  0  0  0  0  0  0  0  0  0
   31.0375  -23.0606  -19.2009 N   0  0  0  0  0  0  0  0  0  0  0  0
   30.4238  -22.7112  -17.9193 C   0  0  0  0  0  0  0  0  0  0  0  0
   28.9831  -22.4088  -18.2119 C   0  0  0  0  0  0  0  0  0  0  0  0
   28.3003  -21.8721  -16.9916 C   0  0  0  0  0  0  0  0  0  0  0  0
   28.1183  -22.8885  -15.8971 C   0  0  2  0  0  0  0  0  0  0  0  0
   28.2700  -24.2346  -16.3505 N   0  0  0  0  0  0  0  0  0  0  0  0
   26.7566  -22.6504  -15.3128 C   0  0  0  0  0  0  0  0  0  0  0  0
   25.7066  -23.1139  -15.8139 O   0  0  0  0  0  0  0  0  0  0  0  0
   31.1463  -24.4417  -21.3619 N   0  0  0  0  0  0  0  0  0  0  0  0
   26.5811  -21.8531  -14.1117 C   0  0  1  0  0  0  0  0  0  0  0  0
   25.3165  -21.6844  -13.5051 C   0  0  0  0  0  0  0  0  0  0  0  0
   25.4220  -21.3225  -12.0213 C   0  0  0  0  0  0  0  0  0  0  0  0
   24.0584  -21.1371  -11.4126 C   0  0  0  0  0  0  0  0  0  0  0  0
   24.1241  -20.7531   -9.9581 C   0  0  0  0  0  0  0  0  0  0  0  0
   22.7351  -20.4739   -9.3889 N   0  0  0  0  0  0  0  0  0  0  0  0
   22.9041  -20.0503   -7.9895 C   0  0  0  0  0  0  0  0  0  0  0  0
   24.4451  -20.7297  -14.1796 O   0  0  0  0  0  0  0  0  0  0  0  0
   24.9108  -19.5215  -14.3933 N   0  0  0  0  0  0  0  0  0  0  0  0
   23.1417  -20.9061  -14.6518 C   0  0  0  0  0  0  0  0  0  0  0  0
   22.3097  -22.1269  -14.4300 C   0  0  0  0  0  0  0  0  0  0  0  0
   21.0126  -21.9050  -15.1147 C   0  0  0  0  0  0  0  0  0  0  0  0
   21.3619  -20.9215  -16.1903 C   0  0  1  0  0  0  0  0  0  0  0  0
   22.3319  -20.0063  -15.4213 C   0  0  0  0  0  0  0  0  0  0  0  0
   21.4823  -19.2253  -14.4614 O   0  0  0  0  0  0  0  0  0  0  0  0
   21.4899  -19.5233  -13.2447 O   0  0  0  0  0  0  0  0  0  0  0  0
  2  1  1  0
  3  2  2  0
  4  2  1  0
  5  4  1  0
  6  5  1  0
  7  6  1  0
  8  7  1  0
  8  9  1  6
 10 11  2  0
 10  8  1  0
 12 10  1  0
 13 12  1  0
 13 14  1  6
 14 15  1  0
 16 15  1  0
 17 16  1  0
 18 17  1  0
 19 20  2  0
 19 13  1  0
 21 19  1  0
 22 21  1  0
 23 22  1  0
 24 23  1  0
 24 25  1  0
 25 26  1  1
 25 21  1  0
 26 28  1  0
 27 26  2  0
M  END
$$$$
