RKP.pdb
     RDKit          3D

 28 28  0  0  1  0  0  0  0  0999 V2000
   16.3076  -24.4107   -5.5969 N   0  0  0  0  0  0  0  0  0  0  0  0
   17.2396  -25.4629   -5.3471 C   0  0  0  0  0  0  0  0  0  0  0  0
   17.0824  -26.3163   -4.4058 N   0  0  0  0  0  0  0  0  0  0  0  0
   18.3753  -25.5486   -6.1840 N   0  0  0  0  0  0  0  0  0  0  0  0
   18.2145  -25.6461   -7.6351 C   0  0  0  0  0  0  0  0  0  0  0  0
   17.5835  -24.3574   -8.0754 C   0  0  0  0  0  0  0  0  0  0  0  0
   17.7036  -24.1933   -9.5594 C   0  0  0  0  0  0  0  0  0  0  0  0
   19.1188  -24.2514  -10.0675 C   0  0  2  0  0  0  0  0  0  0  0  0
   20.0783  -23.8054   -9.1078 N   0  0  0  0  0  0  0  0  0  0  0  0
   19.1598  -23.4234  -11.3185 C   0  0  0  0  0  0  0  0  0  0  0  0
   18.3666  -23.5875  -12.2736 O   0  0  0  0  0  0  0  0  0  0  0  0
   17.7832  -27.0454   -4.1864 N   0  0  0  0  0  0  0  0  0  0  0  0
   20.1418  -22.3676  -11.4912 C   0  0  1  0  0  0  0  0  0  0  0  0
   20.1997  -21.5861  -12.6666 C   0  0  0  0  0  0  0  0  0  0  0  0
   20.9524  -20.2693  -12.4583 C   0  0  0  0  0  0  0  0  0  0  0  0
   20.9188  -19.4255  -13.7038 C   0  0  0  0  0  0  0  0  0  0  0  0
   19.9785  -18.2557  -13.5819 C   0  0  0  0  0  0  0  0  0  0  0  0
   19.8382  -17.5092  -14.9064 N   0  0  0  0  0  0  0  0  0  0  0  0
   19.0178  -16.3125  -14.6584 C   0  0  0  0  0  0  0  0  0  0  0  0
   20.7431  -22.2804  -13.8279 O   0  0  0  0  0  0  0  0  0  0  0  0
   21.8397  -22.9823  -13.6630 N   0  0  0  0  0  0  0  0  0  0  0  0
   20.2613  -22.3166  -15.1391 C   0  0  0  0  0  0  0  0  0  0  0  0
   19.0134  -21.6440  -15.6104 C   0  0  0  0  0  0  0  0  0  0  0  0
   18.8646  -21.9550  -17.0532 C   0  0  0  0  0  0  0  0  0  0  0  0
   19.6093  -23.2473  -17.1990 C   0  0  1  0  0  0  0  0  0  0  0  0
   20.8184  -22.9722  -16.2868 C   0  0  0  0  0  0  0  0  0  0  0  0
   21.6622  -21.9692  -17.0183 O   0  0  0  0  0  0  0  0  0  0  0  0
   21.6906  -20.7803  -16.6250 O   0  0  0  0  0  0  0  0  0  0  0  0
  2  1  1  0
  3  2  2  0
  4  2  1  0
  5  4  1  0
  6  5  1  0
  7  6  1  0
  8  7  1  0
  8  9  1  1
 10 11  2  0
 10  8  1  0
 12 10  1  0
 13 12  1  0
 13 14  1  6
 14 15  1  0
 16 15  1  0
 17 16  1  0
 18 17  1  0
 19 20  2  0
 19 13  1  0
 21 19  1  0
 22 21  1  0
 23 22  1  0
 24 23  1  0
 24 25  1  0
 25 26  1  6
 25 21  1  0
 26 28  1  0
 27 26  2  0
M  END
$$$$
