RKP.pdb
     RDKit          3D

 28 28  0  0  1  0  0  0  0  0999 V2000
   30.2638  -22.0122   -9.1692 N   0  0  0  0  0  0  0  0  0  0  0  0
   31.0694  -22.0805  -10.3458 C   0  0  0  0  0  0  0  0  0  0  0  0
   32.1401  -22.7796  -10.4107 N   0  0  0  0  0  0  0  0  0  0  0  0
   30.6510  -21.3392  -11.4739 N   0  0  0  0  0  0  0  0  0  0  0  0
   29.3085  -20.7585  -11.5164 C   0  0  0  0  0  0  0  0  0  0  0  0
   28.5400  -21.5508  -12.5334 C   0  0  0  0  0  0  0  0  0  0  0  0
   27.1490  -21.0140  -12.6764 C   0  0  0  0  0  0  0  0  0  0  0  0
   26.1941  -21.5042  -11.6218 C   0  0  2  0  0  0  0  0  0  0  0  0
   26.5086  -22.8135  -11.1450 N   0  0  0  0  0  0  0  0  0  0  0  0
   24.8218  -21.4492  -12.2268 C   0  0  0  0  0  0  0  0  0  0  0  0
   24.5101  -22.0640  -13.2724 O   0  0  0  0  0  0  0  0  0  0  0  0
   32.7372  -22.8146  -11.2550 N   0  0  0  0  0  0  0  0  0  0  0  0
   23.7619  -20.6636  -11.6199 C   0  0  1  0  0  0  0  0  0  0  0  0
   22.4536  -20.6364  -12.1522 C   0  0  0  0  0  0  0  0  0  0  0  0
   21.5083  -19.7488  -11.3384 C   0  0  0  0  0  0  0  0  0  0  0  0
   20.0944  -19.8628  -11.8409 C   0  0  0  0  0  0  0  0  0  0  0  0
   19.4534  -21.1726  -11.4656 C   0  0  0  0  0  0  0  0  0  0  0  0
   18.0475  -21.2957  -12.0482 N   0  0  0  0  0  0  0  0  0  0  0  0
   17.4856  -22.5762  -11.5888 C   0  0  0  0  0  0  0  0  0  0  0  0
   22.3816  -20.2641  -13.5600 O   0  0  0  0  0  0  0  0  0  0  0  0
   23.0625  -19.2123  -13.9502 N   0  0  0  0  0  0  0  0  0  0  0  0
   21.6736  -20.8747  -14.5987 C   0  0  0  0  0  0  0  0  0  0  0  0
   20.7276  -22.0189  -14.4317 C   0  0  0  0  0  0  0  0  0  0  0  0
   20.2175  -22.3677  -15.7803 C   0  0  0  0  0  0  0  0  0  0  0  0
   21.3106  -21.8921  -16.6886 C   0  0  1  0  0  0  0  0  0  0  0  0
   21.6833  -20.5669  -15.9996 C   0  0  0  0  0  0  0  0  0  0  0  0
   20.5403  -19.6316  -16.2676 O   0  0  0  0  0  0  0  0  0  0  0  0
   19.7749  -19.3058  -15.3310 O   0  0  0  0  0  0  0  0  0  0  0  0
  2  1  1  0
  3  2  2  0
  4  2  1  0
  5  4  1  0
  6  5  1  0
  7  6  1  0
  8  7  1  0
  8  9  1  6
 10 11  2  0
 10  8  1  0
 12 10  1  0
 13 12  1  0
 13 14  1  6
 14 15  1  0
 16 15  1  0
 17 16  1  0
 18 17  1  0
 19 20  2  0
 19 13  1  0
 21 19  1  0
 22 21  1  0
 23 22  1  0
 24 23  1  0
 24 25  1  0
 25 26  1  6
 25 21  1  0
 26 28  1  0
 27 26  2  0
M  END
$$$$
