RKP.pdb
     RDKit          3D

 28 28  0  0  1  0  0  0  0  0999 V2000
   24.4358  -23.5844  -17.0914 N   0  0  0  0  0  0  0  0  0  0  0  0
   24.2585  -24.4383  -15.9612 C   0  0  0  0  0  0  0  0  0  0  0  0
   25.2259  -25.0804  -15.4216 N   0  0  0  0  0  0  0  0  0  0  0  0
   22.9546  -24.5666  -15.4313 N   0  0  0  0  0  0  0  0  0  0  0  0
   21.8473  -23.8037  -16.0084 C   0  0  0  0  0  0  0  0  0  0  0  0
   21.9885  -22.4018  -15.4914 C   0  0  0  0  0  0  0  0  0  0  0  0
   21.4735  -22.3045  -14.0883 C   0  0  0  0  0  0  0  0  0  0  0  0
   21.4224  -20.8992  -13.5528 C   0  0  2  0  0  0  0  0  0  0  0  0
   20.5026  -20.0635  -14.2571 N   0  0  0  0  0  0  0  0  0  0  0  0
   22.8225  -20.3631  -13.6207 C   0  0  0  0  0  0  0  0  0  0  0  0
   23.1226  -19.3089  -14.2264 O   0  0  0  0  0  0  0  0  0  0  0  0
   25.1141  -25.6458  -14.5622 N   0  0  0  0  0  0  0  0  0  0  0  0
   23.9255  -21.0530  -12.9754 C   0  0  2  0  0  0  0  0  0  0  0  0
   25.2590  -20.6013  -13.0905 C   0  0  0  0  0  0  0  0  0  0  0  0
   26.2232  -21.3885  -12.1992 C   0  0  0  0  0  0  0  0  0  0  0  0
   26.3566  -20.7432  -10.8463 C   0  0  0  0  0  0  0  0  0  0  0  0
   25.2482  -21.1395   -9.9072 C   0  0  0  0  0  0  0  0  0  0  0  0
   25.3331  -20.3774   -8.5869 N   0  0  0  0  0  0  0  0  0  0  0  0
   24.2606  -20.8799   -7.7129 C   0  0  0  0  0  0  0  0  0  0  0  0
   25.7710  -20.5703  -14.4553 O   0  0  0  0  0  0  0  0  0  0  0  0
   25.4098  -21.5369  -15.2662 N   0  0  0  0  0  0  0  0  0  0  0  0
   26.6188  -19.6373  -15.0583 C   0  0  0  0  0  0  0  0  0  0  0  0
   27.4290  -18.6188  -14.3248 C   0  0  0  0  0  0  0  0  0  0  0  0
   28.1618  -17.8251  -15.3414 C   0  0  0  0  0  0  0  0  0  0  0  0
   27.3014  -17.9609  -16.5610 C   0  0  1  0  0  0  0  0  0  0  0  0
   26.9010  -19.4432  -16.4511 C   0  0  0  0  0  0  0  0  0  0  0  0
   28.1394  -20.2261  -16.7776 O   0  0  0  0  0  0  0  0  0  0  0  0
   28.7685  -20.8003  -15.8590 O   0  0  0  0  0  0  0  0  0  0  0  0
  2  1  1  0
  3  2  2  0
  4  2  1  0
  5  4  1  0
  6  5  1  0
  7  6  1  0
  8  7  1  0
  8  9  1  6
 10 11  2  0
 10  8  1  0
 12 10  1  0
 13 12  1  0
 13 14  1  1
 14 15  1  0
 16 15  1  0
 17 16  1  0
 18 17  1  0
 19 20  2  0
 19 13  1  0
 21 19  1  0
 22 21  1  0
 23 22  1  0
 24 23  1  0
 24 25  1  0
 25 26  1  6
 25 21  1  0
 26 28  1  0
 27 26  2  0
M  END
$$$$
