TVG.pdb
     RDKit          3D

 19 18  0  0  1  0  0  0  0  0999 V2000
    6.3068  -15.9031   21.4496 C   0  0  0  0  0  0  0  0  0  0  0  0
    7.3916  -15.0718   20.7679 C   0  0  1  0  0  0  0  0  0  0  0  0
    7.0268  -14.9375   19.4196 O   0  0  0  0  0  0  0  0  0  0  0  0
    7.3116  -13.6840   21.4110 C   0  0  2  0  0  0  0  0  0  0  0  0
    7.8587  -12.7529   20.4709 N   0  0  0  0  0  0  0  0  0  0  0  0
    7.9826  -13.6603   22.7104 C   0  0  0  0  0  0  0  0  0  0  0  0
    9.2252  -13.5157   22.7634 O   0  0  0  0  0  0  0  0  0  0  0  0
    5.7752  -13.2937   26.2814 C   0  0  0  0  0  0  0  0  0  0  0  0
    7.2263  -12.9045   26.1539 C   0  0  2  0  0  0  0  0  0  0  0  0
    7.3111  -11.4903   25.6728 C   0  0  0  0  0  0  0  0  0  0  0  0
    7.9187  -13.8822   25.2230 C   0  0  2  0  0  0  0  0  0  0  0  0
    7.2725  -13.7965   23.9303 N   0  0  0  0  0  0  0  0  0  0  0  0
    7.9351  -15.2519   25.7561 C   0  0  0  0  0  0  0  0  0  0  0  0
    6.8585  -15.8808   25.9021 O   0  0  0  0  0  0  0  0  0  0  0  0
    9.1463  -15.8899   26.1141 N   0  0  0  0  0  0  0  0  0  0  0  0
    9.1306  -17.2936   26.5327 C   0  0  0  0  0  0  0  0  0  0  0  0
   10.0133  -17.4791   27.7077 C   0  0  0  0  0  0  0  0  0  0  0  0
   10.6133  -16.4715   28.1622 O   0  0  0  0  0  0  0  0  0  0  0  0
   10.1883  -18.7056   28.3020 O   0  0  0  0  0  0  0  0  0  0  0  0
  2  1  1  1
  2  3  1  0
  4  5  1  6
  4  2  1  0
  6  4  1  0
  7  6  2  0
  9  8  1  6
  9 11  1  0
 10  9  1  0
 11 12  1  6
 11 13  1  0
 12  6  1  0
 13 15  1  0
 14 13  2  0
 15 16  1  0
 16 17  1  0
 17 19  1  0
 18 17  2  0
M  END
$$$$
