TVG.pdb
     RDKit          3D

 19 18  0  0  1  0  0  0  0  0999 V2000
   -3.9220  -19.9101   25.1765 C   0  0  0  0  0  0  0  0  0  0  0  0
   -3.4369  -20.9304   24.1489 C   0  0  1  0  0  0  0  0  0  0  0  0
   -2.4601  -20.2982   23.3644 O   0  0  0  0  0  0  0  0  0  0  0  0
   -2.7425  -22.0305   24.9573 C   0  0  2  0  0  0  0  0  0  0  0  0
   -2.0903  -22.8935   24.0192 N   0  0  0  0  0  0  0  0  0  0  0  0
   -3.6881  -22.7277   25.8286 C   0  0  0  0  0  0  0  0  0  0  0  0
   -4.5593  -23.4735   25.3261 O   0  0  0  0  0  0  0  0  0  0  0  0
   -2.9909  -25.1275   28.3340 C   0  0  0  0  0  0  0  0  0  0  0  0
   -3.7746  -24.0938   29.1026 C   0  0  2  0  0  0  0  0  0  0  0  0
   -4.6276  -24.7853   30.1188 C   0  0  0  0  0  0  0  0  0  0  0  0
   -4.5850  -23.2631   28.1254 C   0  0  2  0  0  0  0  0  0  0  0  0
   -3.6576  -22.5911   27.2397 N   0  0  0  0  0  0  0  0  0  0  0  0
   -5.4972  -22.3295   28.8012 C   0  0  0  0  0  0  0  0  0  0  0  0
   -5.0384  -21.3194   29.3886 O   0  0  0  0  0  0  0  0  0  0  0  0
   -6.8964  -22.5401   28.8085 N   0  0  0  0  0  0  0  0  0  0  0  0
   -7.7692  -21.5913   29.5040 C   0  0  0  0  0  0  0  0  0  0  0  0
   -8.7115  -22.3233   30.3817 C   0  0  0  0  0  0  0  0  0  0  0  0
   -8.6644  -23.5802   30.3829 O   0  0  0  0  0  0  0  0  0  0  0  0
   -9.6201  -21.6718   31.1805 O   0  0  0  0  0  0  0  0  0  0  0  0
  2  1  1  1
  2  3  1  0
  4  5  1  6
  4  2  1  0
  6  4  1  0
  7  6  2  0
  9  8  1  6
  9 11  1  0
 10  9  1  0
 11 12  1  1
 11 13  1  0
 12  6  1  0
 13 15  1  0
 14 13  2  0
 15 16  1  0
 16 17  1  0
 17 19  1  0
 18 17  2  0
M  END
$$$$
