TVG.pdb
     RDKit          3D

 19 18  0  0  1  0  0  0  0  0999 V2000
    8.2830  -18.6460   17.5087 C   0  0  0  0  0  0  0  0  0  0  0  0
    8.7626  -18.0371   16.1927 C   0  0  1  0  0  0  0  0  0  0  0  0
    8.1071  -18.7187   15.1560 O   0  0  0  0  0  0  0  0  0  0  0  0
    8.2502  -16.5938   16.1961 C   0  0  2  0  0  0  0  0  0  0  0  0
    8.3886  -16.0954   14.8610 N   0  0  0  0  0  0  0  0  0  0  0  0
    8.9482  -15.7839   17.1943 C   0  0  0  0  0  0  0  0  0  0  0  0
   10.1397  -15.4520   16.9995 O   0  0  0  0  0  0  0  0  0  0  0  0
    7.1883  -12.8547   19.0615 C   0  0  0  0  0  0  0  0  0  0  0  0
    7.9041  -13.7054   20.0801 C   0  0  2  0  0  0  0  0  0  0  0  0
    8.4609  -12.8198   21.1497 C   0  0  0  0  0  0  0  0  0  0  0  0
    8.9746  -14.5190   19.3773 C   0  0  2  0  0  0  0  0  0  0  0  0
    8.3210  -15.3532   18.3909 N   0  0  0  0  0  0  0  0  0  0  0  0
    9.7990  -15.2944   20.3153 C   0  0  0  0  0  0  0  0  0  0  0  0
    9.2789  -16.2116   20.9966 O   0  0  0  0  0  0  0  0  0  0  0  0
   11.1805  -15.0328   20.4737 N   0  0  0  0  0  0  0  0  0  0  0  0
   11.9925  -15.9100   21.3204 C   0  0  0  0  0  0  0  0  0  0  0  0
   13.4166  -15.5104   21.2407 C   0  0  0  0  0  0  0  0  0  0  0  0
   13.8285  -14.9984   20.1683 O   0  0  0  0  0  0  0  0  0  0  0  0
   14.2827  -15.6835   22.2934 O   0  0  0  0  0  0  0  0  0  0  0  0
  2  1  1  1
  2  3  1  0
  4  5  1  6
  4  2  1  0
  6  4  1  0
  7  6  2  0
  9  8  1  6
  9 11  1  0
 10  9  1  0
 11 12  1  6
 11 13  1  0
 12  6  1  0
 13 15  1  0
 14 13  2  0
 15 16  1  0
 16 17  1  0
 17 19  1  0
 18 17  2  0
M  END
$$$$
