TVG.pdb
     RDKit          3D

 19 18  0  0  1  0  0  0  0  0999 V2000
    7.0636  -17.3593   23.0770 C   0  0  0  0  0  0  0  0  0  0  0  0
    7.5232  -16.5731   21.8510 C   0  0  1  0  0  0  0  0  0  0  0  0
    6.9779  -17.2054   20.7232 O   0  0  0  0  0  0  0  0  0  0  0  0
    6.8649  -15.1958   21.9747 C   0  0  2  0  0  0  0  0  0  0  0  0
    6.8495  -14.6179   20.6647 N   0  0  0  0  0  0  0  0  0  0  0  0
    7.5478  -14.3670   22.9678 C   0  0  0  0  0  0  0  0  0  0  0  0
    8.5718  -13.7252   22.6403 O   0  0  0  0  0  0  0  0  0  0  0  0
    5.8912  -12.0470   25.6786 C   0  0  0  0  0  0  0  0  0  0  0  0
    6.7996  -13.0450   26.3509 C   0  0  2  0  0  0  0  0  0  0  0  0
    7.4410  -12.3979   27.5376 C   0  0  0  0  0  0  0  0  0  0  0  0
    7.8125  -13.5485   25.3398 C   0  0  2  0  0  0  0  0  0  0  0  0
    7.0905  -14.2595   24.3057 N   0  0  0  0  0  0  0  0  0  0  0  0
    8.8657  -14.3670   25.9574 C   0  0  0  0  0  0  0  0  0  0  0  0
    9.6976  -13.8367   26.7336 O   0  0  0  0  0  0  0  0  0  0  0  0
    8.9696  -15.7541   25.6981 N   0  0  0  0  0  0  0  0  0  0  0  0
   10.1101  -16.5072   26.2253 C   0  0  0  0  0  0  0  0  0  0  0  0
    9.6790  -17.3357   27.3750 C   0  0  0  0  0  0  0  0  0  0  0  0
    8.4512  -17.3816   27.6440 O   0  0  0  0  0  0  0  0  0  0  0  0
   10.5743  -18.0429   28.1407 O   0  0  0  0  0  0  0  0  0  0  0  0
  2  1  1  1
  2  3  1  0
  4  5  1  6
  4  2  1  0
  6  4  1  0
  7  6  2  0
  9  8  1  6
  9 11  1  0
 10  9  1  0
 11 12  1  6
 11 13  1  0
 12  6  1  0
 13 15  1  0
 14 13  2  0
 15 16  1  0
 16 17  1  0
 17 19  1  0
 18 17  2  0
M  END
$$$$
