TVG.pdb
     RDKit          3D

 19 18  0  0  1  0  0  0  0  0999 V2000
    5.4572  -18.1137   22.6261 C   0  0  0  0  0  0  0  0  0  0  0  0
    5.6580  -18.8495   21.3029 C   0  0  1  0  0  0  0  0  0  0  0  0
    4.5613  -19.7085   21.1344 O   0  0  0  0  0  0  0  0  0  0  0  0
    5.5756  -17.7729   20.2167 C   0  0  2  0  0  0  0  0  0  0  0  0
    5.4044  -18.4493   18.9664 N   0  0  0  0  0  0  0  0  0  0  0  0
    6.7454  -16.8954   20.2477 C   0  0  0  0  0  0  0  0  0  0  0  0
    7.8416  -17.3087   19.8058 O   0  0  0  0  0  0  0  0  0  0  0  0
    7.0840  -13.0531   19.4367 C   0  0  0  0  0  0  0  0  0  0  0  0
    7.4645  -13.3122   20.8725 C   0  0  2  0  0  0  0  0  0  0  0  0
    8.5607  -12.3721   21.2634 C   0  0  0  0  0  0  0  0  0  0  0  0
    7.8613  -14.7689   21.0218 C   0  0  2  0  0  0  0  0  0  0  0  0
    6.6874  -15.5765   20.7654 N   0  0  0  0  0  0  0  0  0  0  0  0
    8.4692  -15.0559   22.3290 C   0  0  0  0  0  0  0  0  0  0  0  0
    7.7795  -14.9678   23.3741 O   0  0  0  0  0  0  0  0  0  0  0  0
    9.8280  -15.4336   22.4439 N   0  0  0  0  0  0  0  0  0  0  0  0
   10.3766  -15.7779   23.7578 C   0  0  0  0  0  0  0  0  0  0  0  0
   11.8286  -16.0473   23.6430 C   0  0  0  0  0  0  0  0  0  0  0  0
   12.3305  -16.1056   22.4912 O   0  0  0  0  0  0  0  0  0  0  0  0
   12.6258  -16.2318   24.7469 O   0  0  0  0  0  0  0  0  0  0  0  0
  2  1  1  1
  2  3  1  0
  4  5  1  6
  4  2  1  0
  6  4  1  0
  7  6  2  0
  9  8  1  6
  9 11  1  0
 10  9  1  0
 11 12  1  1
 11 13  1  0
 12  6  1  0
 13 15  1  0
 14 13  2  0
 15 16  1  0
 16 17  1  0
 17 19  1  0
 18 17  2  0
M  END
$$$$
