TVG.pdb
     RDKit          3D

 19 18  0  0  1  0  0  0  0  0999 V2000
    8.3033  -18.7867   19.7685 C   0  0  0  0  0  0  0  0  0  0  0  0
    9.0392  -18.5716   18.4476 C   0  0  1  0  0  0  0  0  0  0  0  0
    8.5733  -19.5436   17.5491 O   0  0  0  0  0  0  0  0  0  0  0  0
    8.5743  -17.2051   17.9354 C   0  0  2  0  0  0  0  0  0  0  0  0
    8.9067  -17.1423   16.5441 N   0  0  0  0  0  0  0  0  0  0  0  0
    9.1547  -16.1167   18.7215 C   0  0  0  0  0  0  0  0  0  0  0  0
   10.3417  -15.7724   18.5210 O   0  0  0  0  0  0  0  0  0  0  0  0
    6.7134  -13.9730   21.4315 C   0  0  0  0  0  0  0  0  0  0  0  0
    7.8667  -13.3180   20.7144 C   0  0  2  0  0  0  0  0  0  0  0  0
    7.3726  -12.7335   19.4289 C   0  0  0  0  0  0  0  0  0  0  0  0
    8.9648  -14.3443   20.5072 C   0  0  2  0  0  0  0  0  0  0  0  0
    8.4168  -15.4258   19.7160 N   0  0  0  0  0  0  0  0  0  0  0  0
    9.5464  -14.8103   21.7741 C   0  0  0  0  0  0  0  0  0  0  0  0
   10.1555  -14.0036   22.5186 O   0  0  0  0  0  0  0  0  0  0  0  0
    9.4376  -16.1603   22.1836 N   0  0  0  0  0  0  0  0  0  0  0  0
    9.9643  -16.5673   23.4885 C   0  0  0  0  0  0  0  0  0  0  0  0
   11.3857  -16.9631   23.3572 C   0  0  0  0  0  0  0  0  0  0  0  0
   11.9029  -16.9405   22.2110 O   0  0  0  0  0  0  0  0  0  0  0  0
   12.1388  -17.3476   24.4403 O   0  0  0  0  0  0  0  0  0  0  0  0
  2  1  1  1
  2  3  1  0
  4  5  1  6
  4  2  1  0
  6  4  1  0
  7  6  2  0
  9  8  1  6
  9 11  1  0
 10  9  1  0
 11 12  1  1
 11 13  1  0
 12  6  1  0
 13 15  1  0
 14 13  2  0
 15 16  1  0
 16 17  1  0
 17 19  1  0
 18 17  2  0
M  END
$$$$
