TVG.pdb
     RDKit          3D

 19 18  0  0  1  0  0  0  0  0999 V2000
    6.7115  -17.1791   22.4735 C   0  0  0  0  0  0  0  0  0  0  0  0
    7.4089  -16.3212   21.4200 C   0  0  1  0  0  0  0  0  0  0  0  0
    6.7795  -16.5772   20.1922 O   0  0  0  0  0  0  0  0  0  0  0  0
    7.1047  -14.8700   21.8038 C   0  0  2  0  0  0  0  0  0  0  0  0
    7.3545  -14.0673   20.6447 N   0  0  0  0  0  0  0  0  0  0  0  0
    7.8773  -14.4564   22.9749 C   0  0  0  0  0  0  0  0  0  0  0  0
    9.0743  -14.1154   22.8385 O   0  0  0  0  0  0  0  0  0  0  0  0
    6.7188  -12.0826   25.6377 C   0  0  0  0  0  0  0  0  0  0  0  0
    7.2075  -13.2958   26.3878 C   0  0  2  0  0  0  0  0  0  0  0  0
    7.9255  -12.8490   27.6221 C   0  0  0  0  0  0  0  0  0  0  0  0
    8.0846  -14.1237   25.4675 C   0  0  2  0  0  0  0  0  0  0  0  0
    7.3174  -14.4255   24.2773 N   0  0  0  0  0  0  0  0  0  0  0  0
    8.6073  -15.3310   26.1232 C   0  0  0  0  0  0  0  0  0  0  0  0
    7.8149  -16.2097   26.5424 O   0  0  0  0  0  0  0  0  0  0  0  0
    9.9969  -15.5331   26.2976 N   0  0  0  0  0  0  0  0  0  0  0  0
   10.4837  -16.8101   26.8250 C   0  0  0  0  0  0  0  0  0  0  0  0
   10.5521  -16.7516   28.3035 C   0  0  0  0  0  0  0  0  0  0  0  0
    9.8394  -15.9013   28.8958 O   0  0  0  0  0  0  0  0  0  0  0  0
   11.3624  -17.5906   29.0298 O   0  0  0  0  0  0  0  0  0  0  0  0
  2  1  1  1
  2  3  1  0
  4  5  1  6
  4  2  1  0
  6  4  1  0
  7  6  2  0
  9  8  1  6
  9 11  1  0
 10  9  1  0
 11 12  1  6
 11 13  1  0
 12  6  1  0
 13 15  1  0
 14 13  2  0
 15 16  1  0
 16 17  1  0
 17 19  1  0
 18 17  2  0
M  END
$$$$
