TVG.pdb
     RDKit          3D

 19 18  0  0  1  0  0  0  0  0999 V2000
    6.1777  -17.2057   24.3901 C   0  0  0  0  0  0  0  0  0  0  0  0
    6.9832  -16.9152   23.1255 C   0  0  1  0  0  0  0  0  0  0  0  0
    6.3370  -17.5649   22.0627 O   0  0  0  0  0  0  0  0  0  0  0  0
    6.8556  -15.4066   22.8937 C   0  0  2  0  0  0  0  0  0  0  0  0
    7.1499  -15.1670   21.5131 N   0  0  0  0  0  0  0  0  0  0  0  0
    7.7117  -14.6535   23.8098 C   0  0  0  0  0  0  0  0  0  0  0  0
    8.9123  -14.4561   23.5147 O   0  0  0  0  0  0  0  0  0  0  0  0
    5.9868  -12.6201   27.0875 C   0  0  0  0  0  0  0  0  0  0  0  0
    7.2240  -12.1403   26.3717 C   0  0  2  0  0  0  0  0  0  0  0  0
    6.8165  -11.2767   25.2199 C   0  0  0  0  0  0  0  0  0  0  0  0
    8.0417  -13.3435   25.9409 C   0  0  2  0  0  0  0  0  0  0  0  0
    7.2298  -14.1302   25.0366 N   0  0  0  0  0  0  0  0  0  0  0  0
    8.5355  -14.1267   27.0825 C   0  0  0  0  0  0  0  0  0  0  0  0
    8.0928  -13.9019   28.2355 O   0  0  0  0  0  0  0  0  0  0  0  0
    9.5087  -15.1404   26.9162 N   0  0  0  0  0  0  0  0  0  0  0  0
    9.9847  -15.8874   28.0829 C   0  0  0  0  0  0  0  0  0  0  0  0
   10.8535  -17.0047   27.6459 C   0  0  0  0  0  0  0  0  0  0  0  0
   11.0536  -17.1515   26.4129 O   0  0  0  0  0  0  0  0  0  0  0  0
   11.4357  -17.8692   28.5413 O   0  0  0  0  0  0  0  0  0  0  0  0
  2  1  1  1
  2  3  1  0
  4  5  1  6
  4  2  1  0
  6  4  1  0
  7  6  2  0
  9  8  1  6
  9 11  1  0
 10  9  1  0
 11 12  1  6
 11 13  1  0
 12  6  1  0
 13 15  1  0
 14 13  2  0
 15 16  1  0
 16 17  1  0
 17 19  1  0
 18 17  2  0
M  END
$$$$
