PNF.pdb
     RDKit          3D

 27 28  0  0  1  0  0  0  0  0999 V2000
    8.9634  -14.2221   19.3221 N   0  0  0  0  0  0  0  0  0  0  0  0
    8.8105  -13.1293   18.3473 C   0  0  0  0  0  0  0  0  0  0  0  0
    7.3037  -12.9146   18.4351 C   0  0  0  0  0  0  0  0  0  0  0  0
    7.0714  -12.9973   19.9116 C   0  0  0  0  0  0  0  0  0  0  0  0
    8.3605  -13.6076   20.4865 C   0  0  1  0  0  0  0  0  0  0  0  0
    8.0305  -14.5694   21.5408 C   0  0  0  0  0  0  0  0  0  0  0  0
    7.2084  -14.2081   22.4302 O   0  0  0  0  0  0  0  0  0  0  0  0
   10.4796  -19.7492   22.3379 N   0  0  0  0  0  0  0  0  0  0  0  0
    9.9167  -18.5267   21.7858 C   0  0  0  0  0  0  0  0  0  0  0  0
   10.7121  -17.8276   21.1311 O   0  0  0  0  0  0  0  0  0  0  0  0
    8.5206  -18.1958   22.0134 C   0  0  0  0  0  0  0  0  0  0  0  0
    8.1453  -16.8806   22.5870 C   0  0  2  0  0  0  0  0  0  0  0  0
    8.6008  -15.8611   21.5779 N   0  0  0  0  0  0  0  0  0  0  0  0
    8.7715  -16.4808   23.8524 C   0  0  0  0  0  0  0  0  0  0  0  0
    9.9125  -15.9149   23.7655 O   0  0  0  0  0  0  0  0  0  0  0  0
    8.3231  -16.6109   25.1667 N   0  0  0  0  0  0  0  0  0  0  0  0
    9.0040  -16.1486   26.3450 C   0  0  1  0  0  0  0  0  0  0  0  0
    8.2727  -15.3233   27.2825 C   0  0  0  0  0  0  0  0  0  0  0  0
    7.6817  -14.0827   26.7333 C   0  0  0  0  0  0  0  0  0  0  0  0
    6.3342  -13.9976   26.3877 C   0  0  0  0  0  0  0  0  0  0  0  0
    5.7684  -12.8448   25.9000 C   0  0  0  0  0  0  0  0  0  0  0  0
    6.5186  -11.7034   25.7281 C   0  0  0  0  0  0  0  0  0  0  0  0
    7.8575  -11.7647   26.0646 C   0  0  0  0  0  0  0  0  0  0  0  0
    8.4170  -12.9241   26.5531 C   0  0  0  0  0  0  0  0  0  0  0  0
    9.5452  -17.3380   27.0464 C   0  0  0  0  0  0  0  0  0  0  0  0
    9.3087  -18.5330   26.7200 O   0  0  0  0  0  0  0  0  0  0  0  0
   10.3941  -17.1858   28.1698 O   0  0  0  0  0  0  0  0  0  0  0  0
  2  1  1  0
  3  4  1  0
  3  2  1  0
  4  5  1  0
  5  6  1  1
  5  1  1  0
  6 13  1  0
  7  6  2  0
  9  8  1  0
 10  9  2  0
 11  9  1  0
 12 11  1  6
 12 14  1  0
 13 12  1  0
 14 16  1  0
 14 15  2  0
 16 17  1  0
 17 18  1  1
 18 19  1  0
 19 24  1  0
 20 19  2  0
 20 21  1  0
 21 22  2  0
 22 23  1  0
 24 23  2  0
 25 27  1  0
 25 17  1  0
 26 25  2  0
M  END
$$$$
