PNF.pdb
     RDKit          3D

 27 28  0  0  1  0  0  0  0  0999 V2000
    9.3066  -14.6308   18.3741 N   0  0  0  0  0  0  0  0  0  0  0  0
    9.2070  -13.5701   17.3578 C   0  0  0  0  0  0  0  0  0  0  0  0
    7.7084  -13.2960   17.4174 C   0  0  0  0  0  0  0  0  0  0  0  0
    7.4555  -13.3148   18.8928 C   0  0  0  0  0  0  0  0  0  0  0  0
    8.7136  -13.9510   19.5069 C   0  0  1  0  0  0  0  0  0  0  0  0
    8.3349  -14.8598   20.5914 C   0  0  0  0  0  0  0  0  0  0  0  0
    7.7676  -14.3616   21.6051 O   0  0  0  0  0  0  0  0  0  0  0  0
    6.8298  -20.4971   21.7819 N   0  0  0  0  0  0  0  0  0  0  0  0
    8.0327  -19.6922   21.9290 C   0  0  0  0  0  0  0  0  0  0  0  0
    8.8210  -20.0772   22.8124 O   0  0  0  0  0  0  0  0  0  0  0  0
    8.2465  -18.5336   21.0792 C   0  0  0  0  0  0  0  0  0  0  0  0
    8.1788  -17.1647   21.6461 C   0  0  2  0  0  0  0  0  0  0  0  0
    8.5859  -16.2481   20.5239 N   0  0  0  0  0  0  0  0  0  0  0  0
    9.0775  -16.8385   22.7592 C   0  0  0  0  0  0  0  0  0  0  0  0
   10.2182  -16.3597   22.4442 O   0  0  0  0  0  0  0  0  0  0  0  0
    8.8954  -16.9594   24.1367 N   0  0  0  0  0  0  0  0  0  0  0  0
    8.6263  -15.8864   25.0542 C   0  0  1  0  0  0  0  0  0  0  0  0
    7.6387  -14.8956   24.6829 C   0  0  0  0  0  0  0  0  0  0  0  0
    7.4068  -13.8101   25.6616 C   0  0  0  0  0  0  0  0  0  0  0  0
    6.1277  -13.4754   26.1028 C   0  0  0  0  0  0  0  0  0  0  0  0
    5.9014  -12.4866   27.0291 C   0  0  0  0  0  0  0  0  0  0  0  0
    6.9442  -11.7703   27.5721 C   0  0  0  0  0  0  0  0  0  0  0  0
    8.2214  -12.0854   27.1492 C   0  0  0  0  0  0  0  0  0  0  0  0
    8.4400  -13.0782   26.2205 C   0  0  0  0  0  0  0  0  0  0  0  0
    8.2582  -16.4916   26.3572 C   0  0  0  0  0  0  0  0  0  0  0  0
    7.2730  -17.2573   26.5400 O   0  0  0  0  0  0  0  0  0  0  0  0
    9.0294  -16.2287   27.5156 O   0  0  0  0  0  0  0  0  0  0  0  0
  2  1  1  0
  3  4  1  0
  3  2  1  0
  4  5  1  0
  5  6  1  1
  5  1  1  0
  6 13  1  0
  7  6  2  0
  9  8  1  0
 10  9  2  0
 11  9  1  0
 12 11  1  6
 12 14  1  0
 13 12  1  0
 14 16  1  0
 14 15  2  0
 16 17  1  0
 17 18  1  6
 18 19  1  0
 19 24  1  0
 20 19  2  0
 20 21  1  0
 21 22  2  0
 22 23  1  0
 24 23  2  0
 25 27  1  0
 25 17  1  0
 26 25  2  0
M  END
$$$$
