PNF.pdb
     RDKit          3D

 27 28  0  0  1  0  0  0  0  0999 V2000
    8.6288  -15.2475   18.6761 N   0  0  0  0  0  0  0  0  0  0  0  0
    8.9440  -14.3749   17.5329 C   0  0  0  0  0  0  0  0  0  0  0  0
    7.8764  -13.3035   17.7244 C   0  0  0  0  0  0  0  0  0  0  0  0
    7.9221  -13.0916   19.2056 C   0  0  0  0  0  0  0  0  0  0  0  0
    8.7155  -14.2879   19.7572 C   0  0  1  0  0  0  0  0  0  0  0  0
    8.1032  -14.7625   21.0004 C   0  0  0  0  0  0  0  0  0  0  0  0
    8.0586  -13.9615   21.9771 O   0  0  0  0  0  0  0  0  0  0  0  0
    5.7602  -18.1622   24.5434 N   0  0  0  0  0  0  0  0  0  0  0  0
    5.8514  -18.6935   23.1922 C   0  0  0  0  0  0  0  0  0  0  0  0
    5.3782  -19.8349   23.0404 O   0  0  0  0  0  0  0  0  0  0  0  0
    6.4607  -17.9048   22.1353 C   0  0  0  0  0  0  0  0  0  0  0  0
    6.9723  -16.5413   22.4167 C   0  0  2  0  0  0  0  0  0  0  0  0
    7.5747  -16.0666   21.1217 N   0  0  0  0  0  0  0  0  0  0  0  0
    8.0387  -16.4018   23.4149 C   0  0  0  0  0  0  0  0  0  0  0  0
    9.1995  -16.7998   23.0628 O   0  0  0  0  0  0  0  0  0  0  0  0
    8.0045  -15.8926   24.7129 N   0  0  0  0  0  0  0  0  0  0  0  0
    9.1317  -15.7256   25.5887 C   0  0  1  0  0  0  0  0  0  0  0  0
    9.3553  -14.4241   26.1812 C   0  0  0  0  0  0  0  0  0  0  0  0
    8.1424  -13.6582   26.5448 C   0  0  0  0  0  0  0  0  0  0  0  0
    8.2137  -12.4373   27.2134 C   0  0  0  0  0  0  0  0  0  0  0  0
    7.0967  -11.7051   27.5347 C   0  0  0  0  0  0  0  0  0  0  0  0
    5.8365  -12.1511   27.2055 C   0  0  0  0  0  0  0  0  0  0  0  0
    5.7420  -13.3595   26.5419 C   0  0  0  0  0  0  0  0  0  0  0  0
    6.8665  -14.0874   26.2232 C   0  0  0  0  0  0  0  0  0  0  0  0
    9.0244  -16.7473   26.6583 C   0  0  0  0  0  0  0  0  0  0  0  0
    8.0123  -17.4724   26.8592 O   0  0  0  0  0  0  0  0  0  0  0  0
   10.1021  -16.9711   27.5496 O   0  0  0  0  0  0  0  0  0  0  0  0
  2  1  1  0
  3  4  1  0
  3  2  1  0
  4  5  1  0
  5  6  1  1
  5  1  1  0
  6 13  1  0
  7  6  2  0
  9  8  1  0
 10  9  2  0
 11  9  1  0
 12 11  1  6
 12 14  1  0
 13 12  1  0
 14 16  1  0
 14 15  2  0
 16 17  1  0
 17 18  1  1
 18 19  1  0
 19 24  1  0
 20 19  2  0
 20 21  1  0
 21 22  2  0
 22 23  1  0
 24 23  2  0
 25 27  1  0
 25 17  1  0
 26 25  2  0
M  END
$$$$
