PNF.pdb
     RDKit          3D

 27 28  0  0  1  0  0  0  0  0999 V2000
    8.9280  -14.2230   19.0965 N   0  0  0  0  0  0  0  0  0  0  0  0
    8.7999  -13.1267   18.1220 C   0  0  0  0  0  0  0  0  0  0  0  0
    7.3231  -12.7933   18.3017 C   0  0  0  0  0  0  0  0  0  0  0  0
    7.1790  -12.8495   19.7907 C   0  0  0  0  0  0  0  0  0  0  0  0
    8.4500  -13.5565   20.2899 C   0  0  1  0  0  0  0  0  0  0  0  0
    8.1130  -14.4836   21.3728 C   0  0  0  0  0  0  0  0  0  0  0  0
    7.4637  -14.0276   22.3566 O   0  0  0  0  0  0  0  0  0  0  0  0
   10.0276  -19.7501   22.3579 N   0  0  0  0  0  0  0  0  0  0  0  0
    9.5239  -18.6591   21.5380 C   0  0  0  0  0  0  0  0  0  0  0  0
   10.3290  -18.2134   20.6995 O   0  0  0  0  0  0  0  0  0  0  0  0
    8.1707  -18.1657   21.7273 C   0  0  0  0  0  0  0  0  0  0  0  0
    7.9365  -16.8300   22.3280 C   0  0  2  0  0  0  0  0  0  0  0  0
    8.4913  -15.8439   21.3355 N   0  0  0  0  0  0  0  0  0  0  0  0
    8.6061  -16.5221   23.5968 C   0  0  0  0  0  0  0  0  0  0  0  0
    9.8224  -16.1426   23.5177 O   0  0  0  0  0  0  0  0  0  0  0  0
    8.1309  -16.5688   24.9073 N   0  0  0  0  0  0  0  0  0  0  0  0
    8.8512  -16.1704   26.0855 C   0  0  1  0  0  0  0  0  0  0  0  0
    8.1408  -15.4348   27.1099 C   0  0  0  0  0  0  0  0  0  0  0  0
    7.5658  -14.1353   26.6968 C   0  0  0  0  0  0  0  0  0  0  0  0
    8.3432  -12.9827   26.5981 C   0  0  0  0  0  0  0  0  0  0  0  0
    7.8267  -11.7762   26.1925 C   0  0  0  0  0  0  0  0  0  0  0  0
    6.4969  -11.6491   25.8597 C   0  0  0  0  0  0  0  0  0  0  0  0
    5.7071  -12.7795   25.9500 C   0  0  0  0  0  0  0  0  0  0  0  0
    6.2325  -13.9853   26.3573 C   0  0  0  0  0  0  0  0  0  0  0  0
    9.4545  -17.3895   26.6765 C   0  0  0  0  0  0  0  0  0  0  0  0
    9.1801  -18.5690   26.3243 O   0  0  0  0  0  0  0  0  0  0  0  0
   10.4132  -17.2869   27.7138 O   0  0  0  0  0  0  0  0  0  0  0  0
  2  1  1  0
  3  4  1  0
  3  2  1  0
  4  5  1  0
  5  6  1  1
  5  1  1  0
  6 13  1  0
  7  6  2  0
  9  8  1  0
 10  9  2  0
 11  9  1  0
 12 11  1  6
 12 14  1  0
 13 12  1  0
 14 16  1  0
 14 15  2  0
 16 17  1  0
 17 18  1  1
 18 19  1  0
 19 24  1  0
 20 19  2  0
 20 21  1  0
 21 22  2  0
 22 23  1  0
 24 23  2  0
 25 27  1  0
 25 17  1  0
 26 25  2  0
M  END
$$$$
