PNF.pdb
     RDKit          3D

 27 28  0  0  1  0  0  0  0  0999 V2000
    9.1569  -14.2010   19.4680 N   0  0  0  0  0  0  0  0  0  0  0  0
    8.8661  -13.1171   18.5150 C   0  0  0  0  0  0  0  0  0  0  0  0
    7.3442  -13.0980   18.6029 C   0  0  0  0  0  0  0  0  0  0  0  0
    7.1241  -13.2394   20.0769 C   0  0  0  0  0  0  0  0  0  0  0  0
    8.4805  -13.6919   20.6429 C   0  0  1  0  0  0  0  0  0  0  0  0
    8.2756  -14.7091   21.6768 C   0  0  0  0  0  0  0  0  0  0  0  0
    7.3425  -14.5225   22.5087 O   0  0  0  0  0  0  0  0  0  0  0  0
    9.8322  -18.9460   19.8858 N   0  0  0  0  0  0  0  0  0  0  0  0
    8.9599  -18.7899   21.0395 C   0  0  0  0  0  0  0  0  0  0  0  0
    7.8044  -19.2291   20.8912 O   0  0  0  0  0  0  0  0  0  0  0  0
    9.4548  -18.1598   22.2513 C   0  0  0  0  0  0  0  0  0  0  0  0
    8.8057  -16.9349   22.7786 C   0  0  2  0  0  0  0  0  0  0  0  0
    9.0826  -15.8656   21.7564 N   0  0  0  0  0  0  0  0  0  0  0  0
    9.2966  -16.3924   24.0506 C   0  0  0  0  0  0  0  0  0  0  0  0
   10.4638  -15.8756   24.0329 O   0  0  0  0  0  0  0  0  0  0  0  0
    8.6922  -16.3377   25.3064 N   0  0  0  0  0  0  0  0  0  0  0  0
    9.3050  -15.8812   26.5236 C   0  0  1  0  0  0  0  0  0  0  0  0
    8.5166  -15.0728   27.4292 C   0  0  0  0  0  0  0  0  0  0  0  0
    7.8178  -13.9156   26.8271 C   0  0  0  0  0  0  0  0  0  0  0  0
    6.5071  -14.0058   26.3617 C   0  0  0  0  0  0  0  0  0  0  0  0
    5.8393  -12.9329   25.8234 C   0  0  0  0  0  0  0  0  0  0  0  0
    6.4439  -11.7006   25.7178 C   0  0  0  0  0  0  0  0  0  0  0  0
    7.7436  -11.5879   26.1733 C   0  0  0  0  0  0  0  0  0  0  0  0
    8.4061  -12.6681   26.7119 C   0  0  0  0  0  0  0  0  0  0  0  0
    9.8205  -17.0724   27.2410 C   0  0  0  0  0  0  0  0  0  0  0  0
    9.5778  -18.2666   26.9159 O   0  0  0  0  0  0  0  0  0  0  0  0
   10.6495  -16.9233   28.3795 O   0  0  0  0  0  0  0  0  0  0  0  0
  2  1  1  0
  3  4  1  0
  3  2  1  0
  4  5  1  0
  5  6  1  1
  5  1  1  0
  6 13  1  0
  7  6  2  0
  9  8  1  0
 10  9  2  0
 11  9  1  0
 12 11  1  6
 12 14  1  0
 13 12  1  0
 14 16  1  0
 14 15  2  0
 16 17  1  0
 17 18  1  1
 18 19  1  0
 19 24  1  0
 20 19  2  0
 20 21  1  0
 21 22  2  0
 22 23  1  0
 24 23  2  0
 25 27  1  0
 25 17  1  0
 26 25  2  0
M  END
$$$$
