PNF.pdb
     RDKit          3D

 27 28  0  0  1  0  0  0  0  0999 V2000
    8.5189  -15.3892   18.6901 N   0  0  0  0  0  0  0  0  0  0  0  0
    8.7751  -14.5553   17.5040 C   0  0  0  0  0  0  0  0  0  0  0  0
    7.6849  -13.5053   17.6868 C   0  0  0  0  0  0  0  0  0  0  0  0
    7.7700  -13.2330   19.1564 C   0  0  0  0  0  0  0  0  0  0  0  0
    8.6123  -14.3850   19.7292 C   0  0  1  0  0  0  0  0  0  0  0  0
    8.0515  -14.8251   21.0089 C   0  0  0  0  0  0  0  0  0  0  0  0
    7.9888  -13.9788   21.9456 O   0  0  0  0  0  0  0  0  0  0  0  0
    5.7530  -18.0806   24.7126 N   0  0  0  0  0  0  0  0  0  0  0  0
    5.9353  -18.7062   23.4120 C   0  0  0  0  0  0  0  0  0  0  0  0
    5.5531  -19.8886   23.3365 O   0  0  0  0  0  0  0  0  0  0  0  0
    6.5258  -17.9575   22.3160 C   0  0  0  0  0  0  0  0  0  0  0  0
    7.0234  -16.5772   22.5328 C   0  0  2  0  0  0  0  0  0  0  0  0
    7.5906  -16.1453   21.2073 N   0  0  0  0  0  0  0  0  0  0  0  0
    8.1089  -16.3840   23.5010 C   0  0  0  0  0  0  0  0  0  0  0  0
    9.2852  -16.6737   23.0981 O   0  0  0  0  0  0  0  0  0  0  0  0
    8.0786  -15.9227   24.8169 N   0  0  0  0  0  0  0  0  0  0  0  0
    9.2200  -15.6506   25.6469 C   0  0  1  0  0  0  0  0  0  0  0  0
    9.4675  -14.2822   26.0486 C   0  0  0  0  0  0  0  0  0  0  0  0
    8.2773  -13.4930   26.4366 C   0  0  0  0  0  0  0  0  0  0  0  0
    7.2598  -13.1987   25.5307 C   0  0  0  0  0  0  0  0  0  0  0  0
    6.1388  -12.4882   25.8846 C   0  0  0  0  0  0  0  0  0  0  0  0
    5.9668  -12.0276   27.1706 C   0  0  0  0  0  0  0  0  0  0  0  0
    6.9633  -12.3080   28.0859 C   0  0  0  0  0  0  0  0  0  0  0  0
    8.0840  -13.0211   27.7232 C   0  0  0  0  0  0  0  0  0  0  0  0
    9.1152  -16.5110   26.8503 C   0  0  0  0  0  0  0  0  0  0  0  0
    8.1078  -17.2088   27.1481 O   0  0  0  0  0  0  0  0  0  0  0  0
   10.1901  -16.5971   27.7684 O   0  0  0  0  0  0  0  0  0  0  0  0
  2  1  1  0
  3  4  1  0
  3  2  1  0
  4  5  1  0
  5  6  1  1
  5  1  1  0
  6 13  1  0
  7  6  2  0
  9  8  1  0
 10  9  2  0
 11  9  1  0
 12 11  1  6
 12 14  1  0
 13 12  1  0
 14 16  1  0
 14 15  2  0
 16 17  1  0
 17 18  1  1
 18 19  1  0
 19 24  1  0
 20 19  2  0
 20 21  1  0
 21 22  2  0
 22 23  1  0
 24 23  2  0
 25 27  1  0
 25 17  1  0
 26 25  2  0
M  END
$$$$
