PNF.pdb
     RDKit          3D

 27 28  0  0  1  0  0  0  0  0999 V2000
    9.0369  -14.5376   19.2694 N   0  0  0  0  0  0  0  0  0  0  0  0
    9.0384  -13.5163   18.2089 C   0  0  0  0  0  0  0  0  0  0  0  0
    7.5745  -13.0932   18.2565 C   0  0  0  0  0  0  0  0  0  0  0  0
    7.3269  -13.0243   19.7313 C   0  0  0  0  0  0  0  0  0  0  0  0
    8.5185  -13.7551   20.3722 C   0  0  1  0  0  0  0  0  0  0  0  0
    8.0562  -14.5753   21.4944 C   0  0  0  0  0  0  0  0  0  0  0  0
    7.3675  -14.0104   22.3911 O   0  0  0  0  0  0  0  0  0  0  0  0
    6.0454  -19.6778   23.0965 N   0  0  0  0  0  0  0  0  0  0  0  0
    7.4506  -19.3086   23.0229 C   0  0  0  0  0  0  0  0  0  0  0  0
    8.2163  -20.0039   23.7158 O   0  0  0  0  0  0  0  0  0  0  0  0
    7.8731  -18.1999   22.1847 C   0  0  0  0  0  0  0  0  0  0  0  0
    7.7630  -16.8044   22.6751 C   0  0  2  0  0  0  0  0  0  0  0  0
    8.3589  -15.9517   21.5874 N   0  0  0  0  0  0  0  0  0  0  0  0
    8.4964  -16.4466   23.8946 C   0  0  0  0  0  0  0  0  0  0  0  0
    9.7303  -16.1540   23.7479 O   0  0  0  0  0  0  0  0  0  0  0  0
    8.0674  -16.3639   25.2191 N   0  0  0  0  0  0  0  0  0  0  0  0
    8.8779  -16.0131   26.3530 C   0  0  1  0  0  0  0  0  0  0  0  0
    8.3014  -15.1649   27.3743 C   0  0  0  0  0  0  0  0  0  0  0  0
    7.6862  -13.9046   26.9018 C   0  0  0  0  0  0  0  0  0  0  0  0
    6.3205  -13.8019   26.6434 C   0  0  0  0  0  0  0  0  0  0  0  0
    5.7336  -12.6315   26.2280 C   0  0  0  0  0  0  0  0  0  0  0  0
    6.4797  -11.4889   26.0456 C   0  0  0  0  0  0  0  0  0  0  0  0
    7.8363  -11.5676   26.2963 C   0  0  0  0  0  0  0  0  0  0  0  0
    8.4170  -12.7446   26.7126 C   0  0  0  0  0  0  0  0  0  0  0  0
    9.3600  -17.2739   26.9675 C   0  0  0  0  0  0  0  0  0  0  0  0
    8.9324  -18.4239   26.6755 O   0  0  0  0  0  0  0  0  0  0  0  0
   10.3713  -17.2500   27.9587 O   0  0  0  0  0  0  0  0  0  0  0  0
  2  1  1  0
  3  4  1  0
  3  2  1  0
  4  5  1  0
  5  6  1  1
  5  1  1  0
  6 13  1  0
  7  6  2  0
  9  8  1  0
 10  9  2  0
 11  9  1  0
 12 11  1  6
 12 14  1  0
 13 12  1  0
 14 16  1  0
 14 15  2  0
 16 17  1  0
 17 18  1  1
 18 19  1  0
 19 24  1  0
 20 19  2  0
 20 21  1  0
 21 22  2  0
 22 23  1  0
 24 23  2  0
 25 27  1  0
 25 17  1  0
 26 25  2  0
M  END
$$$$
