PNF.pdb
     RDKit          3D

 27 28  0  0  1  0  0  0  0  0999 V2000
    8.8281  -14.8186   19.2124 N   0  0  0  0  0  0  0  0  0  0  0  0
    9.0085  -13.8254   18.1405 C   0  0  0  0  0  0  0  0  0  0  0  0
    7.6311  -13.1722   18.1600 C   0  0  0  0  0  0  0  0  0  0  0  0
    7.3772  -13.0442   19.6298 C   0  0  0  0  0  0  0  0  0  0  0  0
    8.4268  -13.9480   20.2978 C   0  0  1  0  0  0  0  0  0  0  0  0
    7.8231  -14.6678   21.4217 C   0  0  0  0  0  0  0  0  0  0  0  0
    7.2816  -13.9832   22.3357 O   0  0  0  0  0  0  0  0  0  0  0  0
    5.8121  -18.8278   24.2822 N   0  0  0  0  0  0  0  0  0  0  0  0
    6.3687  -19.2046   22.9920 C   0  0  0  0  0  0  0  0  0  0  0  0
    6.2671  -20.4118   22.7052 O   0  0  0  0  0  0  0  0  0  0  0  0
    6.9866  -18.2026   22.1407 C   0  0  0  0  0  0  0  0  0  0  0  0
    7.1182  -16.8006   22.6064 C   0  0  2  0  0  0  0  0  0  0  0  0
    7.8352  -16.0781   21.4977 N   0  0  0  0  0  0  0  0  0  0  0  0
    7.9162  -16.5508   23.8122 C   0  0  0  0  0  0  0  0  0  0  0  0
    9.1823  -16.5089   23.6546 O   0  0  0  0  0  0  0  0  0  0  0  0
    7.5213  -16.3413   25.1333 N   0  0  0  0  0  0  0  0  0  0  0  0
    8.3899  -16.0669   26.2450 C   0  0  1  0  0  0  0  0  0  0  0  0
    7.9394  -15.1340   27.2558 C   0  0  0  0  0  0  0  0  0  0  0  0
    7.5292  -13.7975   26.7705 C   0  0  0  0  0  0  0  0  0  0  0  0
    6.1885  -13.4418   26.6336 C   0  0  0  0  0  0  0  0  0  0  0  0
    5.7948  -12.1967   26.2077 C   0  0  0  0  0  0  0  0  0  0  0  0
    6.7212  -11.2285   25.8920 C   0  0  0  0  0  0  0  0  0  0  0  0
    8.0567  -11.5592   26.0206 C   0  0  0  0  0  0  0  0  0  0  0  0
    8.4433  -12.8095   26.4484 C   0  0  0  0  0  0  0  0  0  0  0  0
    8.7288  -17.3634   26.8805 C   0  0  0  0  0  0  0  0  0  0  0  0
    8.1558  -18.4580   26.6277 O   0  0  0  0  0  0  0  0  0  0  0  0
    9.7603  -17.4422   27.8477 O   0  0  0  0  0  0  0  0  0  0  0  0
  2  1  1  0
  3  4  1  0
  3  2  1  0
  4  5  1  0
  5  6  1  1
  5  1  1  0
  6 13  1  0
  7  6  2  0
  9  8  1  0
 10  9  2  0
 11  9  1  0
 12 11  1  6
 12 14  1  0
 13 12  1  0
 14 16  1  0
 14 15  2  0
 16 17  1  0
 17 18  1  1
 18 19  1  0
 19 24  1  0
 20 19  2  0
 20 21  1  0
 21 22  2  0
 22 23  1  0
 24 23  2  0
 25 27  1  0
 25 17  1  0
 26 25  2  0
M  END
$$$$
