PNF.pdb
     RDKit          3D

 27 28  0  0  1  0  0  0  0  0999 V2000
    8.5529  -14.7601   19.1702 N   0  0  0  0  0  0  0  0  0  0  0  0
    8.6712  -13.7482   18.1073 C   0  0  0  0  0  0  0  0  0  0  0  0
    7.4782  -12.8659   18.4575 C   0  0  0  0  0  0  0  0  0  0  0  0
    7.5859  -12.7888   19.9487 C   0  0  0  0  0  0  0  0  0  0  0  0
    8.5716  -13.9032   20.3374 C   0  0  1  0  0  0  0  0  0  0  0  0
    8.1104  -14.5756   21.5543 C   0  0  0  0  0  0  0  0  0  0  0  0
    7.9292  -13.8669   22.5850 O   0  0  0  0  0  0  0  0  0  0  0  0
    4.8910  -19.2536   23.2407 N   0  0  0  0  0  0  0  0  0  0  0  0
    6.3063  -18.9251   23.3131 C   0  0  0  0  0  0  0  0  0  0  0  0
    6.9362  -19.5000   24.2200 O   0  0  0  0  0  0  0  0  0  0  0  0
    6.8892  -17.9874   22.3690 C   0  0  0  0  0  0  0  0  0  0  0  0
    7.2381  -16.6110   22.7974 C   0  0  2  0  0  0  0  0  0  0  0  0
    7.8701  -15.9668   21.5929 N   0  0  0  0  0  0  0  0  0  0  0  0
    8.2182  -16.4573   23.8787 C   0  0  0  0  0  0  0  0  0  0  0  0
    9.4473  -16.5456   23.5455 O   0  0  0  0  0  0  0  0  0  0  0  0
    8.0354  -16.2210   25.2411 N   0  0  0  0  0  0  0  0  0  0  0  0
    9.0744  -16.0603   26.2210 C   0  0  1  0  0  0  0  0  0  0  0  0
    9.0721  -14.8640   27.0357 C   0  0  0  0  0  0  0  0  0  0  0  0
    8.0515  -13.8477   26.6959 C   0  0  0  0  0  0  0  0  0  0  0  0
    8.3652  -12.4938   26.5903 C   0  0  0  0  0  0  0  0  0  0  0  0
    7.4324  -11.5441   26.2516 C   0  0  0  0  0  0  0  0  0  0  0  0
    6.1249  -11.8922   25.9971 C   0  0  0  0  0  0  0  0  0  0  0  0
    5.7913  -13.2295   26.0957 C   0  0  0  0  0  0  0  0  0  0  0  0
    6.7324  -14.1755   26.4355 C   0  0  0  0  0  0  0  0  0  0  0  0
    9.0555  -17.2578   27.0958 C   0  0  0  0  0  0  0  0  0  0  0  0
    8.1975  -18.1799   27.0316 O   0  0  0  0  0  0  0  0  0  0  0  0
   10.0450  -17.4353   28.0933 O   0  0  0  0  0  0  0  0  0  0  0  0
  2  1  1  0
  3  4  1  0
  3  2  1  0
  4  5  1  0
  5  6  1  1
  5  1  1  0
  6 13  1  0
  7  6  2  0
  9  8  1  0
 10  9  2  0
 11  9  1  0
 12 11  1  6
 12 14  1  0
 13 12  1  0
 14 16  1  0
 14 15  2  0
 16 17  1  0
 17 18  1  1
 18 19  1  0
 19 24  1  0
 20 19  2  0
 20 21  1  0
 21 22  2  0
 22 23  1  0
 24 23  2  0
 25 27  1  0
 25 17  1  0
 26 25  2  0
M  END
$$$$
