PNF.pdb
     RDKit          3D

 27 28  0  0  1  0  0  0  0  0999 V2000
    8.7293  -14.6085   19.2455 N   0  0  0  0  0  0  0  0  0  0  0  0
    8.8677  -13.5701   18.2109 C   0  0  0  0  0  0  0  0  0  0  0  0
    7.4908  -12.9229   18.3097 C   0  0  0  0  0  0  0  0  0  0  0  0
    7.2919  -12.8584   19.7920 C   0  0  0  0  0  0  0  0  0  0  0  0
    8.3674  -13.7863   20.3812 C   0  0  1  0  0  0  0  0  0  0  0  0
    7.8075  -14.5552   21.4952 C   0  0  0  0  0  0  0  0  0  0  0  0
    7.2836  -13.9123   22.4490 O   0  0  0  0  0  0  0  0  0  0  0  0
    4.8892  -19.3984   22.7309 N   0  0  0  0  0  0  0  0  0  0  0  0
    6.3215  -19.1566   22.8105 C   0  0  0  0  0  0  0  0  0  0  0  0
    6.9407  -19.9039   23.5903 O   0  0  0  0  0  0  0  0  0  0  0  0
    6.9317  -18.1056   22.0146 C   0  0  0  0  0  0  0  0  0  0  0  0
    7.0991  -16.7422   22.5742 C   0  0  2  0  0  0  0  0  0  0  0  0
    7.8418  -15.9670   21.5194 N   0  0  0  0  0  0  0  0  0  0  0  0
    7.8970  -16.5964   23.7970 C   0  0  0  0  0  0  0  0  0  0  0  0
    9.1634  -16.5455   23.6441 O   0  0  0  0  0  0  0  0  0  0  0  0
    7.5017  -16.4964   25.1308 N   0  0  0  0  0  0  0  0  0  0  0  0
    8.3686  -16.2978   26.2599 C   0  0  1  0  0  0  0  0  0  0  0  0
    7.9541  -15.3696   27.2902 C   0  0  0  0  0  0  0  0  0  0  0  0
    7.5622  -14.0191   26.8293 C   0  0  0  0  0  0  0  0  0  0  0  0
    6.2339  -13.6837   26.5727 C   0  0  0  0  0  0  0  0  0  0  0  0
    5.8546  -12.4270   26.1681 C   0  0  0  0  0  0  0  0  0  0  0  0
    6.7840  -11.4262   25.9952 C   0  0  0  0  0  0  0  0  0  0  0  0
    8.1074  -11.7362   26.2442 C   0  0  0  0  0  0  0  0  0  0  0  0
    8.4795  -12.9983   26.6497 C   0  0  0  0  0  0  0  0  0  0  0  0
    8.6306  -17.6268   26.8639 C   0  0  0  0  0  0  0  0  0  0  0  0
    8.0297  -18.6896   26.5480 O   0  0  0  0  0  0  0  0  0  0  0  0
    9.6137  -17.7772   27.8721 O   0  0  0  0  0  0  0  0  0  0  0  0
  2  1  1  0
  3  4  1  0
  3  2  1  0
  4  5  1  0
  5  6  1  1
  5  1  1  0
  6 13  1  0
  7  6  2  0
  9  8  1  0
 10  9  2  0
 11  9  1  0
 12 11  1  6
 12 14  1  0
 13 12  1  0
 14 16  1  0
 14 15  2  0
 16 17  1  0
 17 18  1  1
 18 19  1  0
 19 24  1  0
 20 19  2  0
 20 21  1  0
 21 22  2  0
 22 23  1  0
 24 23  2  0
 25 27  1  0
 25 17  1  0
 26 25  2  0
M  END
$$$$
