PNF.pdb
     RDKit          3D

 27 28  0  0  1  0  0  0  0  0999 V2000
    8.4854  -15.0336   18.5778 N   0  0  0  0  0  0  0  0  0  0  0  0
    8.5155  -14.1025   17.4376 C   0  0  0  0  0  0  0  0  0  0  0  0
    7.3716  -13.1750   17.8320 C   0  0  0  0  0  0  0  0  0  0  0  0
    7.6200  -12.9936   19.2970 C   0  0  0  0  0  0  0  0  0  0  0  0
    8.6243  -14.0960   19.6726 C   0  0  1  0  0  0  0  0  0  0  0  0
    8.2714  -14.6709   20.9729 C   0  0  0  0  0  0  0  0  0  0  0  0
    8.2877  -13.9052   21.9783 O   0  0  0  0  0  0  0  0  0  0  0  0
    4.8061  -18.9267   23.1859 N   0  0  0  0  0  0  0  0  0  0  0  0
    6.2476  -18.7429   23.1171 C   0  0  0  0  0  0  0  0  0  0  0  0
    6.8986  -19.3404   23.9940 O   0  0  0  0  0  0  0  0  0  0  0  0
    6.8306  -17.9113   22.0784 C   0  0  0  0  0  0  0  0  0  0  0  0
    7.3092  -16.5432   22.3933 C   0  0  2  0  0  0  0  0  0  0  0  0
    7.9213  -16.0316   21.1170 N   0  0  0  0  0  0  0  0  0  0  0  0
    8.3569  -16.4008   23.4106 C   0  0  0  0  0  0  0  0  0  0  0  0
    9.5399  -16.7219   23.0540 O   0  0  0  0  0  0  0  0  0  0  0  0
    8.2838  -15.9598   24.7318 N   0  0  0  0  0  0  0  0  0  0  0  0
    9.3973  -15.6374   25.5814 C   0  0  1  0  0  0  0  0  0  0  0  0
    9.6840  -14.2423   25.8393 C   0  0  0  0  0  0  0  0  0  0  0  0
    8.5103  -13.3627   26.0360 C   0  0  0  0  0  0  0  0  0  0  0  0
    7.6813  -12.9915   24.9789 C   0  0  0  0  0  0  0  0  0  0  0  0
    6.5751  -12.1958   25.1524 C   0  0  0  0  0  0  0  0  0  0  0  0
    6.2299  -11.7217   26.3979 C   0  0  0  0  0  0  0  0  0  0  0  0
    7.0377  -12.0775   27.4610 C   0  0  0  0  0  0  0  0  0  0  0  0
    8.1448  -12.8757   27.2789 C   0  0  0  0  0  0  0  0  0  0  0  0
    9.2025  -16.3510   26.8669 C   0  0  0  0  0  0  0  0  0  0  0  0
   10.0317  -16.3569   27.8171 O   0  0  0  0  0  0  0  0  0  0  0  0
    8.0218  -17.0962   27.1039 O   0  0  0  0  0  0  0  0  0  0  0  0
  2  1  1  0
  3  4  1  0
  3  2  1  0
  4  5  1  0
  5  6  1  1
  5  1  1  0
  6 13  1  0
  7  6  2  0
  9  8  1  0
 10  9  2  0
 11  9  1  0
 12 11  1  6
 12 14  1  0
 13 12  1  0
 14 16  1  0
 14 15  2  0
 16 17  1  0
 17 18  1  1
 18 19  1  0
 19 24  1  0
 20 19  2  0
 20 21  1  0
 21 22  2  0
 22 23  1  0
 24 23  2  0
 25 27  1  0
 25 17  1  0
 26 25  2  0
M  END
$$$$
