EAQ.pdb
     RDKit          3D

 24 23  0  0  1  0  0  0  0  0999 V2000
   17.0470  -12.4816  -13.8148 N   0  0  0  0  0  0  0  0  0  0  0  0
   16.6254  -11.1818  -14.2746 C   0  0  1  0  0  0  0  0  0  0  0  0
   15.1517  -11.2061  -14.5061 C   0  0  0  0  0  0  0  0  0  0  0  0
   14.8532  -12.0882  -15.6944 C   0  0  0  0  0  0  0  0  0  0  0  0
   13.4120  -12.2118  -15.9955 C   0  0  0  0  0  0  0  0  0  0  0  0
   12.8503  -11.3941  -16.7673 O   0  0  0  0  0  0  0  0  0  0  0  0
   17.0496  -10.0939  -13.3606 C   0  0  0  0  0  0  0  0  0  0  0  0
   16.7085  -10.1800  -12.1532 O   0  0  0  0  0  0  0  0  0  0  0  0
   12.6277  -13.2183  -15.4493 O   0  0  0  0  0  0  0  0  0  0  0  0
   19.0649   -6.8696  -13.5362 C   0  0  0  0  0  0  0  0  0  0  0  0
   18.1425   -7.8750  -12.8894 C   0  0  2  0  0  0  0  0  0  0  0  0
   17.8080   -8.9701  -13.7491 N   0  0  0  0  0  0  0  0  0  0  0  0
   16.9195   -7.2033  -12.3387 C   0  0  0  0  0  0  0  0  0  0  0  0
   15.9214   -7.0572  -13.0785 O   0  0  0  0  0  0  0  0  0  0  0  0
   13.8701   -8.9677   -7.8559 N   0  0  0  0  0  0  0  0  0  0  0  0
   13.3536   -7.6543   -7.8537 C   0  0  0  0  0  0  0  0  0  0  0  0
   12.3971   -7.3828   -7.0906 O   0  0  0  0  0  0  0  0  0  0  0  0
   13.9082   -6.5983   -8.7129 C   0  0  0  0  0  0  0  0  0  0  0  0
   15.0701   -7.0099   -9.5212 C   0  0  0  0  0  0  0  0  0  0  0  0
   15.6972   -6.0320  -10.4533 C   0  0  2  0  0  0  0  0  0  0  0  0
   16.8644   -6.7316  -11.0089 N   0  0  0  0  0  0  0  0  0  0  0  0
   16.0350   -4.7365   -9.9011 C   0  0  0  0  0  0  0  0  0  0  0  0
   17.3388   -4.3550   -9.5810 O   0  0  0  0  0  0  0  0  0  0  0  0
   15.1468   -3.8443   -9.6674 O   0  0  0  0  0  0  0  0  0  0  0  0
  2  1  1  1
  3  2  1  0
  4  3  1  0
  4  5  1  0
  5  6  2  0
  5  9  1  0
  7  2  1  0
  8  7  2  0
 11 10  1  6
 11 13  1  0
 11 12  1  0
 12  7  1  0
 13 21  1  0
 14 13  2  0
 16 15  1  0
 17 16  2  0
 18 16  1  0
 19 18  1  0
 20 19  1  1
 21 20  1  0
 22 23  1  0
 22 20  1  0
 24 22  2  0
M  END
$$$$
