EAQ.pdb
     RDKit          3D

 24 23  0  0  1  0  0  0  0  0999 V2000
   28.1467  -21.9023  -15.2643 N   0  0  0  0  0  0  0  0  0  0  0  0
   26.9967  -21.0593  -15.4777 C   0  0  1  0  0  0  0  0  0  0  0  0
   26.6184  -21.1144  -16.9198 C   0  0  0  0  0  0  0  0  0  0  0  0
   27.1108  -19.8638  -17.6075 C   0  0  0  0  0  0  0  0  0  0  0  0
   26.1650  -18.7314  -17.5294 C   0  0  0  0  0  0  0  0  0  0  0  0
   26.5694  -17.5519  -17.6879 O   0  0  0  0  0  0  0  0  0  0  0  0
   25.8726  -21.3967  -14.5714 C   0  0  0  0  0  0  0  0  0  0  0  0
   24.8729  -21.9733  -15.0713 O   0  0  0  0  0  0  0  0  0  0  0  0
   24.8117  -18.9158  -17.2821 O   0  0  0  0  0  0  0  0  0  0  0  0
   25.0369  -21.1092  -10.8690 C   0  0  0  0  0  0  0  0  0  0  0  0
   24.7457  -21.4099  -12.3198 C   0  0  2  0  0  0  0  0  0  0  0  0
   25.8449  -21.1171  -13.1894 N   0  0  0  0  0  0  0  0  0  0  0  0
   23.4847  -20.7305  -12.7650 C   0  0  0  0  0  0  0  0  0  0  0  0
   23.5034  -19.4995  -12.9864 O   0  0  0  0  0  0  0  0  0  0  0  0
   20.0751  -18.7870  -15.6456 N   0  0  0  0  0  0  0  0  0  0  0  0
   20.9647  -19.7009  -16.2499 C   0  0  0  0  0  0  0  0  0  0  0  0
   21.5621  -19.3593  -17.2975 O   0  0  0  0  0  0  0  0  0  0  0  0
   21.2145  -21.0343  -15.6836 C   0  0  0  0  0  0  0  0  0  0  0  0
   20.4762  -21.3229  -14.4409 C   0  0  0  0  0  0  0  0  0  0  0  0
   20.9804  -20.7832  -13.1474 C   0  0  2  0  0  0  0  0  0  0  0  0
   22.2779  -21.4423  -12.9409 N   0  0  0  0  0  0  0  0  0  0  0  0
   20.1007  -20.9144  -12.0045 C   0  0  0  0  0  0  0  0  0  0  0  0
   19.2175  -19.9135  -11.5968 O   0  0  0  0  0  0  0  0  0  0  0  0
   20.0758  -21.9723  -11.2835 O   0  0  0  0  0  0  0  0  0  0  0  0
  2  1  1  6
  3  2  1  0
  4  3  1  0
  4  5  1  0
  5  6  2  0
  5  9  1  0
  7  2  1  0
  8  7  2  0
 11 10  1  1
 11 13  1  0
 11 12  1  0
 12  7  1  0
 13 21  1  0
 14 13  2  0
 16 15  1  0
 17 16  2  0
 18 16  1  0
 19 18  1  0
 20 19  1  6
 21 20  1  0
 22 23  1  0
 22 20  1  0
 24 22  2  0
M  END
$$$$
