EAQ.pdb
     RDKit          3D

 24 23  0  0  1  0  0  0  0  0999 V2000
   15.5906  -10.6243  -16.2173 N   0  0  0  0  0  0  0  0  0  0  0  0
   16.6284  -10.7743  -15.2279 C   0  0  1  0  0  0  0  0  0  0  0  0
   17.7722  -11.5143  -15.8362 C   0  0  0  0  0  0  0  0  0  0  0  0
   17.5390  -12.9978  -15.6805 C   0  0  0  0  0  0  0  0  0  0  0  0
   18.6263  -13.8314  -16.2336 C   0  0  0  0  0  0  0  0  0  0  0  0
   19.5037  -14.3180  -15.4764 O   0  0  0  0  0  0  0  0  0  0  0  0
   17.0304   -9.4784  -14.6296 C   0  0  0  0  0  0  0  0  0  0  0  0
   17.0905   -8.4783  -15.3897 O   0  0  0  0  0  0  0  0  0  0  0  0
   18.7261  -14.1096  -17.5898 O   0  0  0  0  0  0  0  0  0  0  0  0
   17.7800   -8.0203  -11.2088 C   0  0  0  0  0  0  0  0  0  0  0  0
   17.8678   -8.0733  -12.7153 C   0  0  2  0  0  0  0  0  0  0  0  0
   17.3502   -9.2880  -13.2693 N   0  0  0  0  0  0  0  0  0  0  0  0
   19.2673   -7.7991  -13.1804 C   0  0  0  0  0  0  0  0  0  0  0  0
   20.0631   -8.7555  -13.3096 O   0  0  0  0  0  0  0  0  0  0  0  0
   20.1873   -4.3545  -17.8406 N   0  0  0  0  0  0  0  0  0  0  0  0
   21.5318   -4.4341  -17.4188 C   0  0  0  0  0  0  0  0  0  0  0  0
   22.4231   -3.9347  -18.1448 O   0  0  0  0  0  0  0  0  0  0  0  0
   21.9140   -5.0777  -16.1536 C   0  0  0  0  0  0  0  0  0  0  0  0
   20.7845   -5.5996  -15.3633 C   0  0  0  0  0  0  0  0  0  0  0  0
   21.0427   -6.2005  -14.0251 C   0  0  2  0  0  0  0  0  0  0  0  0
   19.7106   -6.4913  -13.4759 N   0  0  0  0  0  0  0  0  0  0  0  0
   21.8634   -5.4277  -13.1160 C   0  0  0  0  0  0  0  0  0  0  0  0
   23.2531   -5.5402  -13.0525 O   0  0  0  0  0  0  0  0  0  0  0  0
   21.3603   -4.5790  -12.2999 O   0  0  0  0  0  0  0  0  0  0  0  0
  2  1  1  6
  3  2  1  0
  4  3  1  0
  4  5  1  0
  5  6  2  0
  5  9  1  0
  7  2  1  0
  8  7  2  0
 11 10  1  1
 11 13  1  0
 11 12  1  0
 12  7  1  0
 13 21  1  0
 14 13  2  0
 16 15  1  0
 17 16  2  0
 18 16  1  0
 19 18  1  0
 20 19  1  6
 21 20  1  0
 22 23  1  0
 22 20  1  0
 24 22  2  0
M  END
$$$$
