EAQ.pdb
     RDKit          3D

 24 23  0  0  1  0  0  0  0  0999 V2000
   16.6346  -10.5772  -17.9804 N   0  0  0  0  0  0  0  0  0  0  0  0
   16.3675   -9.9693  -16.7008 C   0  0  1  0  0  0  0  0  0  0  0  0
   16.6111  -10.9765  -15.6274 C   0  0  0  0  0  0  0  0  0  0  0  0
   15.5362  -12.0348  -15.6904 C   0  0  0  0  0  0  0  0  0  0  0  0
   15.6412  -13.0525  -14.6245 C   0  0  0  0  0  0  0  0  0  0  0  0
   14.9713  -12.9385  -13.5671 O   0  0  0  0  0  0  0  0  0  0  0  0
   17.1317   -8.7143  -16.5007 C   0  0  0  0  0  0  0  0  0  0  0  0
   18.2464   -8.6121  -17.0740 O   0  0  0  0  0  0  0  0  0  0  0  0
   16.4694  -14.1602  -14.7407 O   0  0  0  0  0  0  0  0  0  0  0  0
   16.6561   -5.3334  -14.8353 C   0  0  0  0  0  0  0  0  0  0  0  0
   17.4634   -6.4443  -15.4631 C   0  0  2  0  0  0  0  0  0  0  0  0
   16.6974   -7.6277  -15.7135 N   0  0  0  0  0  0  0  0  0  0  0  0
   18.6932   -6.7354  -14.6549 C   0  0  0  0  0  0  0  0  0  0  0  0
   18.7365   -7.7810  -13.9696 O   0  0  0  0  0  0  0  0  0  0  0  0
   24.2828  -10.0726  -14.5443 N   0  0  0  0  0  0  0  0  0  0  0  0
   23.0975   -9.3609  -14.8280 C   0  0  0  0  0  0  0  0  0  0  0  0
   22.3096   -9.8185  -15.6886 O   0  0  0  0  0  0  0  0  0  0  0  0
   22.7591   -8.1066  -14.1401 C   0  0  0  0  0  0  0  0  0  0  0  0
   21.5016   -7.4803  -14.5863 C   0  0  0  0  0  0  0  0  0  0  0  0
   21.0745   -6.1861  -13.9854 C   0  0  2  0  0  0  0  0  0  0  0  0
   19.8025   -5.8617  -14.6467 N   0  0  0  0  0  0  0  0  0  0  0  0
   22.0280   -5.0977  -14.0474 C   0  0  0  0  0  0  0  0  0  0  0  0
   23.0271   -4.8974  -13.0937 O   0  0  0  0  0  0  0  0  0  0  0  0
   22.0160   -4.2364  -14.9948 O   0  0  0  0  0  0  0  0  0  0  0  0
  2  1  1  6
  3  2  1  0
  4  3  1  0
  4  5  1  0
  5  6  2  0
  5  9  1  0
  7  2  1  0
  8  7  2  0
 11 10  1  1
 11 13  1  0
 11 12  1  0
 12  7  1  0
 13 21  1  0
 14 13  2  0
 16 15  1  0
 17 16  2  0
 18 16  1  0
 19 18  1  0
 20 19  1  6
 21 20  1  0
 22 23  1  0
 22 20  1  0
 24 22  2  0
M  END
$$$$
