EAQ.pdb
     RDKit          3D

 24 23  0  0  1  0  0  0  0  0999 V2000
   19.8333  -13.8945  -16.5159 N   0  0  0  0  0  0  0  0  0  0  0  0
   19.6458  -12.5471  -16.9933 C   0  0  1  0  0  0  0  0  0  0  0  0
   18.1924  -12.2140  -16.9404 C   0  0  0  0  0  0  0  0  0  0  0  0
   17.3990  -13.3784  -17.4825 C   0  0  0  0  0  0  0  0  0  0  0  0
   15.9375  -13.1627  -17.4615 C   0  0  0  0  0  0  0  0  0  0  0  0
   15.1644  -14.0768  -17.0787 O   0  0  0  0  0  0  0  0  0  0  0  0
   20.4906  -11.5678  -16.2680 C   0  0  0  0  0  0  0  0  0  0  0  0
   20.2312  -11.3587  -15.0553 O   0  0  0  0  0  0  0  0  0  0  0  0
   15.3629  -11.9625  -17.8564 O   0  0  0  0  0  0  0  0  0  0  0  0
   23.6453   -9.5497  -16.8041 C   0  0  0  0  0  0  0  0  0  0  0  0
   22.2933   -9.8119  -16.1850 C   0  0  2  0  0  0  0  0  0  0  0  0
   21.5637  -10.8545  -16.8413 N   0  0  0  0  0  0  0  0  0  0  0  0
   21.4939   -8.5463  -16.0881 C   0  0  0  0  0  0  0  0  0  0  0  0
   20.5544   -8.3580  -16.8923 O   0  0  0  0  0  0  0  0  0  0  0  0
   16.9270   -7.1527  -15.6499 N   0  0  0  0  0  0  0  0  0  0  0  0
   17.2870   -5.8346  -15.2964 C   0  0  0  0  0  0  0  0  0  0  0  0
   16.3839   -4.9745  -15.1726 O   0  0  0  0  0  0  0  0  0  0  0  0
   18.6854   -5.4454  -15.0637 C   0  0  0  0  0  0  0  0  0  0  0  0
   19.6595   -6.5439  -15.1948 C   0  0  0  0  0  0  0  0  0  0  0  0
   21.1155   -6.2479  -15.0906 C   0  0  2  0  0  0  0  0  0  0  0  0
   21.7730   -7.5623  -15.1145 N   0  0  0  0  0  0  0  0  0  0  0  0
   21.5323   -5.4369  -13.9654 C   0  0  0  0  0  0  0  0  0  0  0  0
   21.3214   -4.0592  -13.8924 O   0  0  0  0  0  0  0  0  0  0  0  0
   22.1298   -5.9385  -12.9501 O   0  0  0  0  0  0  0  0  0  0  0  0
  2  1  1  1
  3  2  1  0
  4  3  1  0
  4  5  1  0
  5  6  2  0
  5  9  1  0
  7  2  1  0
  8  7  2  0
 11 10  1  6
 11 13  1  0
 11 12  1  0
 12  7  1  0
 13 21  1  0
 14 13  2  0
 16 15  1  0
 17 16  2  0
 18 16  1  0
 19 18  1  0
 20 19  1  1
 21 20  1  0
 22 23  1  0
 22 20  1  0
 24 22  2  0
M  END
$$$$
