EAQ.pdb
     RDKit          3D

 24 23  0  0  1  0  0  0  0  0999 V2000
   16.4515  -13.8079  -14.8361 N   0  0  0  0  0  0  0  0  0  0  0  0
   16.9179  -13.0568  -15.9749 C   0  0  1  0  0  0  0  0  0  0  0  0
   15.7979  -12.9132  -16.9501 C   0  0  0  0  0  0  0  0  0  0  0  0
   15.4375  -14.2755  -17.4921 C   0  0  0  0  0  0  0  0  0  0  0  0
   16.4245  -14.8135  -18.4509 C   0  0  0  0  0  0  0  0  0  0  0  0
   16.7353  -14.1602  -19.4787 O   0  0  0  0  0  0  0  0  0  0  0  0
   17.5180  -11.7573  -15.5875 C   0  0  0  0  0  0  0  0  0  0  0  0
   16.9192  -11.0742  -14.7177 O   0  0  0  0  0  0  0  0  0  0  0  0
   17.0417  -16.0425  -18.2631 O   0  0  0  0  0  0  0  0  0  0  0  0
   20.7052   -9.8015  -16.2420 C   0  0  0  0  0  0  0  0  0  0  0  0
   19.2817   -9.9694  -15.7673 C   0  0  2  0  0  0  0  0  0  0  0  0
   18.7118  -11.2333  -16.1251 N   0  0  0  0  0  0  0  0  0  0  0  0
   18.4272   -8.8229  -16.2206 C   0  0  0  0  0  0  0  0  0  0  0  0
   17.7249   -8.9572  -17.2471 O   0  0  0  0  0  0  0  0  0  0  0  0
   13.8511   -6.9098  -13.8585 N   0  0  0  0  0  0  0  0  0  0  0  0
   14.0707   -5.7193  -14.5840 C   0  0  0  0  0  0  0  0  0  0  0  0
   13.1711   -4.8467  -14.5993 O   0  0  0  0  0  0  0  0  0  0  0  0
   15.3227   -5.4721  -15.3137 C   0  0  0  0  0  0  0  0  0  0  0  0
   16.2956   -6.5780  -15.2582 C   0  0  0  0  0  0  0  0  0  0  0  0
   17.6005   -6.4414  -15.9632 C   0  0  2  0  0  0  0  0  0  0  0  0
   18.3940   -7.5970  -15.5206 N   0  0  0  0  0  0  0  0  0  0  0  0
   18.3011   -5.1857  -15.7907 C   0  0  0  0  0  0  0  0  0  0  0  0
   17.8472   -3.9751  -16.3164 O   0  0  0  0  0  0  0  0  0  0  0  0
   19.3981   -5.1035  -15.1355 O   0  0  0  0  0  0  0  0  0  0  0  0
  2  1  1  1
  3  2  1  0
  4  3  1  0
  4  5  1  0
  5  6  2  0
  5  9  1  0
  7  2  1  0
  8  7  2  0
 11 10  1  6
 11 13  1  0
 11 12  1  0
 12  7  1  0
 13 21  1  0
 14 13  2  0
 16 15  1  0
 17 16  2  0
 18 16  1  0
 19 18  1  0
 20 19  1  1
 21 20  1  0
 22 23  1  0
 22 20  1  0
 24 22  2  0
M  END
$$$$
