EAQ.pdb
     RDKit          3D

 24 23  0  0  1  0  0  0  0  0999 V2000
   19.2838  -12.9904  -16.8451 N   0  0  0  0  0  0  0  0  0  0  0  0
   20.2642  -11.9848  -17.1708 C   0  0  1  0  0  0  0  0  0  0  0  0
   19.8879  -11.3448  -18.4649 C   0  0  0  0  0  0  0  0  0  0  0  0
   19.3807  -12.4061  -19.4114 C   0  0  0  0  0  0  0  0  0  0  0  0
   18.9035  -11.8710  -20.7033 C   0  0  0  0  0  0  0  0  0  0  0  0
   18.9109  -10.6333  -20.9216 O   0  0  0  0  0  0  0  0  0  0  0  0
   20.4543  -11.0047  -16.0743 C   0  0  0  0  0  0  0  0  0  0  0  0
   19.4334  -10.4178  -15.6328 O   0  0  0  0  0  0  0  0  0  0  0  0
   18.4340  -12.6964  -21.7157 O   0  0  0  0  0  0  0  0  0  0  0  0
   23.1220   -9.9604  -13.6249 C   0  0  0  0  0  0  0  0  0  0  0  0
   21.8884   -9.7108  -14.4592 C   0  0  2  0  0  0  0  0  0  0  0  0
   21.6980  -10.6841  -15.4919 N   0  0  0  0  0  0  0  0  0  0  0  0
   21.8826   -8.3123  -15.0017 C   0  0  0  0  0  0  0  0  0  0  0  0
   22.4855   -8.0729  -16.0713 O   0  0  0  0  0  0  0  0  0  0  0  0
   17.1429   -4.5528  -14.7134 N   0  0  0  0  0  0  0  0  0  0  0  0
   17.5452   -5.4402  -15.7345 C   0  0  0  0  0  0  0  0  0  0  0  0
   16.6948   -5.8225  -16.5721 O   0  0  0  0  0  0  0  0  0  0  0  0
   18.9297   -5.9215  -15.8466 C   0  0  0  0  0  0  0  0  0  0  0  0
   19.8436   -5.4133  -14.8077 C   0  0  0  0  0  0  0  0  0  0  0  0
   21.2632   -5.8637  -14.7972 C   0  0  2  0  0  0  0  0  0  0  0  0
   21.2156   -7.2593  -14.3382 N   0  0  0  0  0  0  0  0  0  0  0  0
   22.1924   -5.0574  -14.0331 C   0  0  0  0  0  0  0  0  0  0  0  0
   22.6122   -3.7868  -14.4297 O   0  0  0  0  0  0  0  0  0  0  0  0
   22.6964   -5.4637  -12.9284 O   0  0  0  0  0  0  0  0  0  0  0  0
  2  1  1  1
  3  2  1  0
  4  3  1  0
  4  5  1  0
  5  6  2  0
  5  9  1  0
  7  2  1  0
  8  7  2  0
 11 10  1  6
 11 13  1  0
 11 12  1  0
 12  7  1  0
 13 21  1  0
 14 13  2  0
 16 15  1  0
 17 16  2  0
 18 16  1  0
 19 18  1  0
 20 19  1  1
 21 20  1  0
 22 23  1  0
 22 20  1  0
 24 22  2  0
M  END
$$$$
