IIR.pdb
     RDKit          3D

 28 27  0  0  1  0  0  0  0  0999 V2000
   15.9708  -22.7536   -8.5719 C   0  0  0  0  0  0  0  0  0  0  0  0
   17.2450  -23.4397   -8.9405 C   0  0  0  0  0  0  0  0  0  0  0  0
   17.3669  -24.8273   -8.2941 C   0  0  2  0  0  0  0  0  0  0  0  0
   16.0594  -25.5383   -8.3366 C   0  0  0  0  0  0  0  0  0  0  0  0
   17.9473  -24.6110   -6.9328 C   0  0  2  0  0  0  0  0  0  0  0  0
   19.3092  -24.0809   -7.1566 N   0  0  0  0  0  0  0  0  0  0  0  0
   18.0930  -25.8119   -6.1068 C   0  0  0  0  0  0  0  0  0  0  0  0
   18.8136  -26.7807   -6.4877 O   0  0  0  0  0  0  0  0  0  0  0  0
   17.4676  -25.7632   -0.5901 C   0  0  0  0  0  0  0  0  0  0  0  0
   17.9454  -26.0307   -1.9785 C   0  0  0  0  0  0  0  0  0  0  0  0
   17.0204  -26.9575   -2.7522 C   0  0  2  0  0  0  0  0  0  0  0  0
   16.6966  -28.1448   -1.9081 C   0  0  0  0  0  0  0  0  0  0  0  0
   17.5585  -27.2648   -4.1196 C   0  0  2  0  0  0  0  0  0  0  0  0
   17.4626  -25.9836   -4.8548 N   0  0  0  0  0  0  0  0  0  0  0  0
   16.6565  -28.2118   -4.7986 C   0  0  0  0  0  0  0  0  0  0  0  0
   15.4186  -27.9153   -4.9733 O   0  0  0  0  0  0  0  0  0  0  0  0
   18.1165  -33.0044  -11.4407 N   0  0  0  0  0  0  0  0  0  0  0  0
   18.3812  -33.3317  -10.0832 C   0  0  0  0  0  0  0  0  0  0  0  0
   19.3886  -34.0858   -9.7808 N   0  0  0  0  0  0  0  0  0  0  0  0
   17.5727  -32.8584   -9.0095 N   0  0  0  0  0  0  0  0  0  0  0  0
   16.2690  -32.2416   -9.2774 C   0  0  0  0  0  0  0  0  0  0  0  0
   15.6391  -31.8279   -7.9586 C   0  0  0  0  0  0  0  0  0  0  0  0
   16.6258  -30.9162   -7.2643 C   0  0  0  0  0  0  0  0  0  0  0  0
   16.0504  -30.3540   -5.9714 C   0  0  2  0  0  0  0  0  0  0  0  0
   17.0224  -29.4861   -5.3149 N   0  0  0  0  0  0  0  0  0  0  0  0
   15.5923  -31.4294   -5.0791 C   0  0  0  0  0  0  0  0  0  0  0  0
   16.2845  -31.7919   -3.9439 O   0  0  0  0  0  0  0  0  0  0  0  0
   14.5342  -32.0498   -5.3481 O   0  0  0  0  0  0  0  0  0  0  0  0
  2  1  1  0
  3  2  1  0
  3  4  1  1
  5  6  1  6
  5  3  1  0
  7  5  1  0
  8  7  2  0
  9 10  1  0
 11 10  1  0
 11 13  1  0
 11 12  1  1
 13 15  1  0
 13 14  1  6
 14  7  1  0
 15 16  2  0
 17 18  1  0
 18 19  2  0
 18 20  1  0
 20 21  1  0
 21 22  1  0
 23 22  1  0
 24 23  1  6
 25 24  1  0
 25 15  1  0
 26 24  1  0
 27 26  1  0
 28 26  2  0
M  END
$$$$
