IIR.pdb
     RDKit          3D

 28 27  0  0  1  0  0  0  0  0999 V2000
   18.4444  -24.1398   -7.8814 C   0  0  0  0  0  0  0  0  0  0  0  0
   19.6344  -23.6405   -7.1299 C   0  0  0  0  0  0  0  0  0  0  0  0
   20.4087  -22.5690   -7.9114 C   0  0  2  0  0  0  0  0  0  0  0  0
   20.6595  -23.0222   -9.3074 C   0  0  0  0  0  0  0  0  0  0  0  0
   21.6246  -22.2498   -7.1013 C   0  0  2  0  0  0  0  0  0  0  0  0
   21.1227  -21.7304   -5.8113 N   0  0  0  0  0  0  0  0  0  0  0  0
   22.5046  -21.2189   -7.6567 C   0  0  0  0  0  0  0  0  0  0  0  0
   22.1021  -20.0271   -7.8000 O   0  0  0  0  0  0  0  0  0  0  0  0
   27.0826  -19.8480   -5.8537 C   0  0  0  0  0  0  0  0  0  0  0  0
   25.7941  -19.8556   -6.6067 C   0  0  0  0  0  0  0  0  0  0  0  0
   25.9403  -20.3972   -8.0204 C   0  0  2  0  0  0  0  0  0  0  0  0
   27.0482  -19.6743   -8.7111 C   0  0  0  0  0  0  0  0  0  0  0  0
   24.6272  -20.4130   -8.7480 C   0  0  2  0  0  0  0  0  0  0  0  0
   23.8348  -21.4603   -8.0650 N   0  0  0  0  0  0  0  0  0  0  0  0
   24.8398  -20.8762  -10.1306 C   0  0  0  0  0  0  0  0  0  0  0  0
   24.9500  -22.1311  -10.3836 O   0  0  0  0  0  0  0  0  0  0  0  0
   19.0785  -21.0514  -15.7153 N   0  0  0  0  0  0  0  0  0  0  0  0
   19.2518  -22.1774  -14.8656 C   0  0  0  0  0  0  0  0  0  0  0  0
   18.7884  -23.3338  -15.2161 N   0  0  0  0  0  0  0  0  0  0  0  0
   19.9289  -22.0958  -13.6144 N   0  0  0  0  0  0  0  0  0  0  0  0
   20.4943  -20.8216  -13.1576 C   0  0  0  0  0  0  0  0  0  0  0  0
   21.9678  -20.7766  -13.5238 C   0  0  0  0  0  0  0  0  0  0  0  0
   22.7274  -20.4425  -12.2596 C   0  0  0  0  0  0  0  0  0  0  0  0
   24.2261  -20.3596  -12.5157 C   0  0  2  0  0  0  0  0  0  0  0  0
   24.9383  -20.0454  -11.2815 N   0  0  0  0  0  0  0  0  0  0  0  0
   24.5328  -19.3934  -13.5809 C   0  0  0  0  0  0  0  0  0  0  0  0
   24.8449  -19.7844  -14.8650 O   0  0  0  0  0  0  0  0  0  0  0  0
   24.5146  -18.1637  -13.3267 O   0  0  0  0  0  0  0  0  0  0  0  0
  2  1  1  0
  3  2  1  0
  3  4  1  6
  5  6  1  1
  5  3  1  0
  7  5  1  0
  8  7  2  0
  9 10  1  0
 11 10  1  0
 11 13  1  0
 11 12  1  6
 13 15  1  0
 13 14  1  1
 14  7  1  0
 15 16  2  0
 17 18  1  0
 18 19  2  0
 18 20  1  0
 20 21  1  0
 21 22  1  0
 23 22  1  0
 24 23  1  1
 25 24  1  0
 25 15  1  0
 26 24  1  0
 27 26  1  0
 28 26  2  0
M  END
$$$$
