IIR.pdb
     RDKit          3D

 28 27  0  0  1  0  0  0  0  0999 V2000
   28.0938  -16.9103  -15.8482 C   0  0  0  0  0  0  0  0  0  0  0  0
   28.2837  -18.2250  -16.5305 C   0  0  0  0  0  0  0  0  0  0  0  0
   27.4153  -19.3314  -15.9142 C   0  0  2  0  0  0  0  0  0  0  0  0
   25.9707  -19.0343  -16.1188 C   0  0  0  0  0  0  0  0  0  0  0  0
   27.8566  -19.4737  -14.4923 C   0  0  2  0  0  0  0  0  0  0  0  0
   29.2452  -19.9776  -14.5514 N   0  0  0  0  0  0  0  0  0  0  0  0
   27.0956  -20.4294  -13.6842 C   0  0  0  0  0  0  0  0  0  0  0  0
   26.9262  -21.6221  -14.0738 O   0  0  0  0  0  0  0  0  0  0  0  0
   26.6391  -19.4952   -8.3764 C   0  0  0  0  0  0  0  0  0  0  0  0
   26.7541  -20.3863   -9.5682 C   0  0  0  0  0  0  0  0  0  0  0  0
   25.4591  -20.4821  -10.3600 C   0  0  2  0  0  0  0  0  0  0  0  0
   24.4159  -21.1377   -9.5179 C   0  0  0  0  0  0  0  0  0  0  0  0
   25.6785  -21.0975  -11.7116 C   0  0  2  0  0  0  0  0  0  0  0  0
   26.5065  -20.1108  -12.4409 N   0  0  0  0  0  0  0  0  0  0  0  0
   24.3921  -21.1815  -12.4254 C   0  0  0  0  0  0  0  0  0  0  0  0
   23.7787  -20.1108  -12.7833 O   0  0  0  0  0  0  0  0  0  0  0  0
   19.9481  -28.0971  -15.1586 N   0  0  0  0  0  0  0  0  0  0  0  0
   20.3389  -27.4817  -13.9386 C   0  0  0  0  0  0  0  0  0  0  0  0
   20.4880  -28.1950  -12.8692 N   0  0  0  0  0  0  0  0  0  0  0  0
   20.5823  -26.0818  -13.8306 N   0  0  0  0  0  0  0  0  0  0  0  0
   20.3932  -25.2033  -14.9900 C   0  0  0  0  0  0  0  0  0  0  0  0
   20.6737  -23.7698  -14.5734 C   0  0  0  0  0  0  0  0  0  0  0  0
   22.0371  -23.7584  -13.9195 C   0  0  0  0  0  0  0  0  0  0  0  0
   22.4269  -22.3572  -13.4684 C   0  0  2  0  0  0  0  0  0  0  0  0
   23.7168  -22.3807  -12.7867 N   0  0  0  0  0  0  0  0  0  0  0  0
   21.3797  -21.7563  -12.6290 C   0  0  0  0  0  0  0  0  0  0  0  0
   20.3205  -21.0528  -13.1605 O   0  0  0  0  0  0  0  0  0  0  0  0
   21.4391  -21.8793  -11.3807 O   0  0  0  0  0  0  0  0  0  0  0  0
  2  1  1  0
  3  2  1  0
  3  4  1  1
  5  6  1  6
  5  3  1  0
  7  5  1  0
  8  7  2  0
  9 10  1  0
 11 10  1  0
 11 13  1  0
 11 12  1  1
 13 15  1  0
 13 14  1  6
 14  7  1  0
 15 16  2  0
 17 18  1  0
 18 19  2  0
 18 20  1  0
 20 21  1  0
 21 22  1  0
 23 22  1  0
 24 23  1  1
 25 24  1  0
 25 15  1  0
 26 24  1  0
 27 26  1  0
 28 26  2  0
M  END
$$$$
