IIR.pdb
     RDKit          3D

 28 27  0  0  1  0  0  0  0  0999 V2000
   27.6596  -18.1288  -18.3459 C   0  0  0  0  0  0  0  0  0  0  0  0
   28.1997  -18.8589  -17.1604 C   0  0  0  0  0  0  0  0  0  0  0  0
   27.0940  -19.5494  -16.3487 C   0  0  2  0  0  0  0  0  0  0  0  0
   26.0710  -18.5585  -15.9142 C   0  0  0  0  0  0  0  0  0  0  0  0
   27.7797  -20.3015  -15.2530 C   0  0  2  0  0  0  0  0  0  0  0  0
   28.6181  -21.3163  -15.9261 N   0  0  0  0  0  0  0  0  0  0  0  0
   26.8995  -21.0254  -14.3327 C   0  0  0  0  0  0  0  0  0  0  0  0
   26.2767  -22.0621  -14.7073 O   0  0  0  0  0  0  0  0  0  0  0  0
   25.2172  -20.8934   -8.3563 C   0  0  0  0  0  0  0  0  0  0  0  0
   24.9876  -21.4033   -9.7401 C   0  0  0  0  0  0  0  0  0  0  0  0
   25.9683  -20.8285  -10.7506 C   0  0  2  0  0  0  0  0  0  0  0  0
   25.9553  -19.3393  -10.6553 C   0  0  0  0  0  0  0  0  0  0  0  0
   25.7430  -21.3896  -12.1247 C   0  0  2  0  0  0  0  0  0  0  0  0
   26.6797  -20.6403  -12.9919 N   0  0  0  0  0  0  0  0  0  0  0  0
   24.3823  -21.0479  -12.5754 C   0  0  0  0  0  0  0  0  0  0  0  0
   24.0967  -19.8428  -12.9172 O   0  0  0  0  0  0  0  0  0  0  0  0
   17.0434  -23.2303  -13.7752 N   0  0  0  0  0  0  0  0  0  0  0  0
   17.0058  -22.8801  -15.1521 C   0  0  0  0  0  0  0  0  0  0  0  0
   15.8874  -22.5362  -15.7052 N   0  0  0  0  0  0  0  0  0  0  0  0
   18.1682  -22.8878  -15.9763 N   0  0  0  0  0  0  0  0  0  0  0  0
   19.4691  -23.2781  -15.4222 C   0  0  0  0  0  0  0  0  0  0  0  0
   20.0077  -22.1365  -14.5773 C   0  0  0  0  0  0  0  0  0  0  0  0
   21.3867  -22.5450  -14.1101 C   0  0  0  0  0  0  0  0  0  0  0  0
   21.9791  -21.5164  -13.1563 C   0  0  2  0  0  0  0  0  0  0  0  0
   23.2894  -21.9524  -12.6849 N   0  0  0  0  0  0  0  0  0  0  0  0
   21.0653  -21.2364  -12.0388 C   0  0  0  0  0  0  0  0  0  0  0  0
   19.9514  -20.4369  -12.1783 O   0  0  0  0  0  0  0  0  0  0  0  0
   21.2950  -21.7360  -10.9098 O   0  0  0  0  0  0  0  0  0  0  0  0
  2  1  1  0
  3  2  1  0
  3  4  1  1
  5  6  1  6
  5  3  1  0
  7  5  1  0
  8  7  2  0
  9 10  1  0
 11 10  1  0
 11 13  1  0
 11 12  1  6
 13 15  1  0
 13 14  1  6
 14  7  1  0
 15 16  2  0
 17 18  1  0
 18 19  2  0
 18 20  1  0
 20 21  1  0
 21 22  1  0
 23 22  1  0
 24 23  1  6
 25 24  1  0
 25 15  1  0
 26 24  1  0
 27 26  1  0
 28 26  2  0
M  END
$$$$
