IIR.pdb
     RDKit          3D

 28 27  0  0  1  0  0  0  0  0999 V2000
   17.5486  -25.2459   -8.1450 C   0  0  0  0  0  0  0  0  0  0  0  0
   18.7496  -24.6200   -7.5158 C   0  0  0  0  0  0  0  0  0  0  0  0
   19.2855  -23.4365   -8.3344 C   0  0  2  0  0  0  0  0  0  0  0  0
   19.5034  -23.8395   -9.7512 C   0  0  0  0  0  0  0  0  0  0  0  0
   20.4907  -22.9300   -7.6080 C   0  0  2  0  0  0  0  0  0  0  0  0
   19.9969  -22.4413   -6.3030 N   0  0  0  0  0  0  0  0  0  0  0  0
   21.1887  -21.8086   -8.2412 C   0  0  0  0  0  0  0  0  0  0  0  0
   20.5964  -20.7103   -8.4556 O   0  0  0  0  0  0  0  0  0  0  0  0
   26.2413  -20.6324   -7.0356 C   0  0  0  0  0  0  0  0  0  0  0  0
   24.8205  -20.4841   -7.4680 C   0  0  0  0  0  0  0  0  0  0  0  0
   24.6194  -20.7837   -8.9455 C   0  0  2  0  0  0  0  0  0  0  0  0
   25.5471  -19.9352   -9.7494 C   0  0  0  0  0  0  0  0  0  0  0  0
   23.1718  -20.7068   -9.3360 C   0  0  2  0  0  0  0  0  0  0  0  0
   22.5391  -21.8567   -8.6515 N   0  0  0  0  0  0  0  0  0  0  0  0
   23.0421  -20.9512  -10.7833 C   0  0  0  0  0  0  0  0  0  0  0  0
   23.5914  -21.9823  -11.3179 O   0  0  0  0  0  0  0  0  0  0  0  0
   19.1744  -21.5170  -17.1934 N   0  0  0  0  0  0  0  0  0  0  0  0
   18.3626  -20.8506  -16.2359 C   0  0  0  0  0  0  0  0  0  0  0  0
   17.1855  -21.3069  -15.9512 N   0  0  0  0  0  0  0  0  0  0  0  0
   18.7909  -19.6747  -15.5543 N   0  0  0  0  0  0  0  0  0  0  0  0
   20.0699  -19.0427  -15.8955 C   0  0  0  0  0  0  0  0  0  0  0  0
   21.2011  -19.8743  -15.3156 C   0  0  0  0  0  0  0  0  0  0  0  0
   21.1980  -19.6434  -13.8211 C   0  0  0  0  0  0  0  0  0  0  0  0
   22.2978  -20.4397  -13.1321 C   0  0  2  0  0  0  0  0  0  0  0  0
   22.3349  -20.1312  -11.7064 N   0  0  0  0  0  0  0  0  0  0  0  0
   23.6023  -20.2115  -13.7713 C   0  0  0  0  0  0  0  0  0  0  0  0
   24.0805  -21.0174  -14.7818 O   0  0  0  0  0  0  0  0  0  0  0  0
   24.3187  -19.2519  -13.3933 O   0  0  0  0  0  0  0  0  0  0  0  0
  2  1  1  0
  3  2  1  0
  3  4  1  6
  5  6  1  1
  5  3  1  0
  7  5  1  0
  8  7  2  0
  9 10  1  0
 11 10  1  0
 11 13  1  0
 11 12  1  6
 13 15  1  0
 13 14  1  1
 14  7  1  0
 15 16  2  0
 17 18  1  0
 18 19  2  0
 18 20  1  0
 20 21  1  0
 21 22  1  0
 23 22  1  0
 24 23  1  6
 25 24  1  0
 25 15  1  0
 26 24  1  0
 27 26  1  0
 28 26  2  0
M  END
$$$$
