IIR.pdb
     RDKit          3D

 28 27  0  0  1  0  0  0  0  0999 V2000
   28.4913  -19.6619  -18.4402 C   0  0  0  0  0  0  0  0  0  0  0  0
   28.7122  -20.2401  -17.0812 C   0  0  0  0  0  0  0  0  0  0  0  0
   27.3977  -20.6560  -16.4049 C   0  0  2  0  0  0  0  0  0  0  0  0
   26.4106  -19.5425  -16.4564 C   0  0  0  0  0  0  0  0  0  0  0  0
   27.7601  -21.1431  -15.0382 C   0  0  2  0  0  0  0  0  0  0  0  0
   28.6145  -22.3312  -15.2488 N   0  0  0  0  0  0  0  0  0  0  0  0
   26.6388  -21.5739  -14.1999 C   0  0  0  0  0  0  0  0  0  0  0  0
   26.0348  -22.6627  -14.4293 O   0  0  0  0  0  0  0  0  0  0  0  0
   26.6172  -20.6282   -8.8967 C   0  0  0  0  0  0  0  0  0  0  0  0
   26.3826  -21.2671  -10.2250 C   0  0  0  0  0  0  0  0  0  0  0  0
   25.1811  -20.6864  -10.9547 C   0  0  2  0  0  0  0  0  0  0  0  0
   23.9900  -20.7367  -10.0571 C   0  0  0  0  0  0  0  0  0  0  0  0
   24.9972  -21.3113  -12.3073 C   0  0  2  0  0  0  0  0  0  0  0  0
   26.1536  -20.8344  -13.0989 N   0  0  0  0  0  0  0  0  0  0  0  0
   23.7898  -20.7550  -12.9429 C   0  0  0  0  0  0  0  0  0  0  0  0
   23.6927  -19.4914  -13.1541 O   0  0  0  0  0  0  0  0  0  0  0  0
   20.3240  -25.5688  -18.2002 N   0  0  0  0  0  0  0  0  0  0  0  0
   20.7319  -24.2090  -18.2673 C   0  0  0  0  0  0  0  0  0  0  0  0
   20.7242  -23.5831  -19.4000 N   0  0  0  0  0  0  0  0  0  0  0  0
   21.1594  -23.4801  -17.1199 N   0  0  0  0  0  0  0  0  0  0  0  0
   20.8838  -23.9885  -15.7718 C   0  0  0  0  0  0  0  0  0  0  0  0
   20.3173  -22.8611  -14.9259 C   0  0  0  0  0  0  0  0  0  0  0  0
   21.1034  -21.6151  -15.2668 C   0  0  0  0  0  0  0  0  0  0  0  0
   21.5144  -20.8553  -14.0129 C   0  0  2  0  0  0  0  0  0  0  0  0
   22.6584  -21.5006  -13.3770 N   0  0  0  0  0  0  0  0  0  0  0  0
   20.3853  -20.7113  -13.0819 C   0  0  0  0  0  0  0  0  0  0  0  0
   19.2623  -19.9750  -13.3916 O   0  0  0  0  0  0  0  0  0  0  0  0
   20.4313  -21.2731  -11.9598 O   0  0  0  0  0  0  0  0  0  0  0  0
  2  1  1  0
  3  2  1  0
  3  4  1  1
  5  6  1  6
  5  3  1  0
  7  5  1  0
  8  7  2  0
  9 10  1  0
 11 10  1  0
 11 13  1  0
 11 12  1  1
 13 15  1  0
 13 14  1  6
 14  7  1  0
 15 16  2  0
 17 18  1  0
 18 19  2  0
 18 20  1  0
 20 21  1  0
 21 22  1  0
 23 22  1  0
 24 23  1  6
 25 24  1  0
 25 15  1  0
 26 24  1  0
 27 26  1  0
 28 26  2  0
M  END
$$$$
