IIR.pdb
     RDKit          3D

 28 27  0  0  1  0  0  0  0  0999 V2000
   28.9941  -18.6405  -17.3049 C   0  0  0  0  0  0  0  0  0  0  0  0
   29.2619  -19.4554  -16.0825 C   0  0  0  0  0  0  0  0  0  0  0  0
   27.9684  -19.9313  -15.4053 C   0  0  2  0  0  0  0  0  0  0  0  0
   27.0360  -18.7884  -15.2021 C   0  0  0  0  0  0  0  0  0  0  0  0
   28.3823  -20.6628  -14.1683 C   0  0  2  0  0  0  0  0  0  0  0  0
   29.1531  -21.8352  -14.6340 N   0  0  0  0  0  0  0  0  0  0  0  0
   27.2895  -21.1789  -13.3405 C   0  0  0  0  0  0  0  0  0  0  0  0
   26.5237  -22.0919  -13.7682 O   0  0  0  0  0  0  0  0  0  0  0  0
   27.4333  -20.3265   -7.9099 C   0  0  0  0  0  0  0  0  0  0  0  0
   27.2021  -21.0625   -9.1876 C   0  0  0  0  0  0  0  0  0  0  0  0
   25.9609  -20.5859   -9.9263 C   0  0  2  0  0  0  0  0  0  0  0  0
   24.7718  -20.7379   -9.0375 C   0  0  0  0  0  0  0  0  0  0  0  0
   25.8410  -21.2236  -11.2801 C   0  0  2  0  0  0  0  0  0  0  0  0
   27.0083  -20.7166  -12.0361 N   0  0  0  0  0  0  0  0  0  0  0  0
   24.6394  -20.7073  -11.9591 C   0  0  0  0  0  0  0  0  0  0  0  0
   24.5264  -19.4525  -12.2109 O   0  0  0  0  0  0  0  0  0  0  0  0
   18.3106  -23.1852  -16.6525 N   0  0  0  0  0  0  0  0  0  0  0  0
   18.5425  -21.9557  -17.3264 C   0  0  0  0  0  0  0  0  0  0  0  0
   17.5916  -21.3954  -18.0023 N   0  0  0  0  0  0  0  0  0  0  0  0
   19.8021  -21.2902  -17.2940 N   0  0  0  0  0  0  0  0  0  0  0  0
   20.9098  -21.8350  -16.5016 C   0  0  0  0  0  0  0  0  0  0  0  0
   21.0353  -21.0366  -15.2154 C   0  0  0  0  0  0  0  0  0  0  0  0
   22.2319  -21.5841  -14.4704 C   0  0  0  0  0  0  0  0  0  0  0  0
   22.4187  -20.8887  -13.1287 C   0  0  2  0  0  0  0  0  0  0  0  0
   23.5303  -21.4848  -12.3951 N   0  0  0  0  0  0  0  0  0  0  0  0
   21.1769  -20.9057  -12.3414 C   0  0  0  0  0  0  0  0  0  0  0  0
   20.0732  -20.1564  -12.6870 O   0  0  0  0  0  0  0  0  0  0  0  0
   21.1042  -21.6234  -11.3135 O   0  0  0  0  0  0  0  0  0  0  0  0
  2  1  1  0
  3  2  1  0
  3  4  1  1
  5  6  1  6
  5  3  1  0
  7  5  1  0
  8  7  2  0
  9 10  1  0
 11 10  1  0
 11 13  1  0
 11 12  1  1
 13 15  1  0
 13 14  1  6
 14  7  1  0
 15 16  2  0
 17 18  1  0
 18 19  2  0
 18 20  1  0
 20 21  1  0
 21 22  1  0
 23 22  1  0
 24 23  1  6
 25 24  1  0
 25 15  1  0
 26 24  1  0
 27 26  1  0
 28 26  2  0
M  END
$$$$
