IIR.pdb
     RDKit          3D

 28 27  0  0  1  0  0  0  0  0999 V2000
   26.1072  -14.0979  -15.6831 C   0  0  0  0  0  0  0  0  0  0  0  0
   25.2757  -14.0519  -16.9227 C   0  0  0  0  0  0  0  0  0  0  0  0
   24.9558  -12.6138  -17.3559 C   0  0  2  0  0  0  0  0  0  0  0  0
   24.2735  -11.8782  -16.2557 C   0  0  0  0  0  0  0  0  0  0  0  0
   24.1962  -12.7173  -18.6400 C   0  0  2  0  0  0  0  0  0  0  0  0
   25.0249  -13.5580  -19.5301 N   0  0  0  0  0  0  0  0  0  0  0  0
   23.9679  -11.4542  -19.3459 C   0  0  0  0  0  0  0  0  0  0  0  0
   24.9387  -10.7545  -19.7593 O   0  0  0  0  0  0  0  0  0  0  0  0
   21.2553  -11.0946  -23.5558 C   0  0  0  0  0  0  0  0  0  0  0  0
   22.1932  -10.7799  -22.4382 C   0  0  0  0  0  0  0  0  0  0  0  0
   21.5841   -9.8482  -21.4019 C   0  0  2  0  0  0  0  0  0  0  0  0
   21.0698   -8.6244  -22.0837 C   0  0  0  0  0  0  0  0  0  0  0  0
   22.5220   -9.6029  -20.2556 C   0  0  2  0  0  0  0  0  0  0  0  0
   22.6856  -10.9284  -19.6172 N   0  0  0  0  0  0  0  0  0  0  0  0
   21.8655   -8.7328  -19.2641 C   0  0  0  0  0  0  0  0  0  0  0  0
   20.8508   -9.1579  -18.6003 O   0  0  0  0  0  0  0  0  0  0  0  0
   20.9652   -8.7707  -11.7374 N   0  0  0  0  0  0  0  0  0  0  0  0
   20.0974   -8.7205  -12.8617 C   0  0  0  0  0  0  0  0  0  0  0  0
   19.0194   -9.4363  -12.8833 N   0  0  0  0  0  0  0  0  0  0  0  0
   20.3604   -7.8994  -13.9962 N   0  0  0  0  0  0  0  0  0  0  0  0
   21.6793   -7.2833  -14.1775 C   0  0  0  0  0  0  0  0  0  0  0  0
   21.6562   -6.4295  -15.4336 C   0  0  0  0  0  0  0  0  0  0  0  0
   21.5001   -7.3721  -16.6058 C   0  0  0  0  0  0  0  0  0  0  0  0
   21.5380   -6.6236  -17.9313 C   0  0  2  0  0  0  0  0  0  0  0  0
   22.2518   -7.4029  -18.9374 N   0  0  0  0  0  0  0  0  0  0  0  0
   22.1188   -5.2823  -17.7703 C   0  0  0  0  0  0  0  0  0  0  0  0
   21.5447   -4.3205  -16.9675 O   0  0  0  0  0  0  0  0  0  0  0  0
   23.1758   -4.9870  -18.3807 O   0  0  0  0  0  0  0  0  0  0  0  0
  2  1  1  0
  3  2  1  0
  3  4  1  1
  5  6  1  6
  5  3  1  0
  7  5  1  0
  8  7  2  0
  9 10  1  0
 11 10  1  0
 11 13  1  0
 11 12  1  6
 13 15  1  0
 13 14  1  1
 14  7  1  0
 15 16  2  0
 17 18  1  0
 18 19  2  0
 18 20  1  0
 20 21  1  0
 21 22  1  0
 23 22  1  0
 24 23  1  1
 25 24  1  0
 25 15  1  0
 26 24  1  0
 27 26  1  0
 28 26  2  0
M  END
$$$$
