IIR.pdb
     RDKit          3D

 28 27  0  0  1  0  0  0  0  0999 V2000
   21.1093  -18.7371  -15.2958 C   0  0  0  0  0  0  0  0  0  0  0  0
   22.3057  -18.9623  -14.4309 C   0  0  0  0  0  0  0  0  0  0  0  0
   21.9806  -19.8203  -13.1995 C   0  0  2  0  0  0  0  0  0  0  0  0
   20.7501  -19.3202  -12.5265 C   0  0  0  0  0  0  0  0  0  0  0  0
   23.2185  -19.8440  -12.3608 C   0  0  2  0  0  0  0  0  0  0  0  0
   24.2957  -20.3310  -13.2485 N   0  0  0  0  0  0  0  0  0  0  0  0
   23.1854  -20.7440  -11.2056 C   0  0  0  0  0  0  0  0  0  0  0  0
   23.1094  -21.9984  -11.3593 O   0  0  0  0  0  0  0  0  0  0  0  0
   26.4522  -20.0093   -7.3723 C   0  0  0  0  0  0  0  0  0  0  0  0
   25.4971  -20.7105   -8.2797 C   0  0  0  0  0  0  0  0  0  0  0  0
   24.0859  -20.7729   -7.7160 C   0  0  2  0  0  0  0  0  0  0  0  0
   24.1028  -21.5355   -6.4333 C   0  0  0  0  0  0  0  0  0  0  0  0
   23.0991  -21.2538   -8.7401 C   0  0  2  0  0  0  0  0  0  0  0  0
   23.2354  -20.3016   -9.8653 N   0  0  0  0  0  0  0  0  0  0  0  0
   21.7318  -21.0955   -8.2140 C   0  0  0  0  0  0  0  0  0  0  0  0
   21.0027  -20.1074   -8.5919 O   0  0  0  0  0  0  0  0  0  0  0  0
   17.7974  -26.2795  -12.6795 N   0  0  0  0  0  0  0  0  0  0  0  0
   16.7471  -25.8653  -11.8162 C   0  0  0  0  0  0  0  0  0  0  0  0
   15.5260  -26.2153  -12.0636 N   0  0  0  0  0  0  0  0  0  0  0  0
   16.9766  -25.0636  -10.6607 N   0  0  0  0  0  0  0  0  0  0  0  0
   18.3278  -24.5902  -10.3415 C   0  0  0  0  0  0  0  0  0  0  0  0
   18.2872  -23.8343   -9.0246 C   0  0  0  0  0  0  0  0  0  0  0  0
   19.6647  -23.2489   -8.8085 C   0  0  0  0  0  0  0  0  0  0  0  0
   19.7357  -22.4565   -7.5101 C   0  0  2  0  0  0  0  0  0  0  0  0
   21.0907  -21.9633   -7.2865 N   0  0  0  0  0  0  0  0  0  0  0  0
   19.2525  -23.2524   -6.3720 C   0  0  0  0  0  0  0  0  0  0  0  0
   17.9317  -23.2524   -5.9787 O   0  0  0  0  0  0  0  0  0  0  0  0
   20.0607  -23.9626   -5.7244 O   0  0  0  0  0  0  0  0  0  0  0  0
  2  1  1  0
  3  2  1  0
  3  4  1  1
  5  6  1  6
  5  3  1  0
  7  5  1  0
  8  7  2  0
  9 10  1  0
 11 10  1  0
 11 13  1  0
 11 12  1  1
 13 15  1  0
 13 14  1  6
 14  7  1  0
 15 16  2  0
 17 18  1  0
 18 19  2  0
 18 20  1  0
 20 21  1  0
 21 22  1  0
 23 22  1  0
 24 23  1  6
 25 24  1  0
 25 15  1  0
 26 24  1  0
 27 26  1  0
 28 26  2  0
M  END
$$$$
