IIR.pdb
     RDKit          3D

 28 27  0  0  1  0  0  0  0  0999 V2000
   29.2471  -21.9007  -10.5272 C   0  0  0  0  0  0  0  0  0  0  0  0
   28.8643  -20.4947  -10.8538 C   0  0  0  0  0  0  0  0  0  0  0  0
   27.3743  -20.2232  -10.6001 C   0  0  2  0  0  0  0  0  0  0  0  0
   26.9867  -20.6792   -9.2367 C   0  0  0  0  0  0  0  0  0  0  0  0
   26.6299  -20.8528  -11.7342 C   0  0  2  0  0  0  0  0  0  0  0  0
   27.3490  -20.4474  -12.9607 N   0  0  0  0  0  0  0  0  0  0  0  0
   25.2399  -20.4209  -11.8986 C   0  0  0  0  0  0  0  0  0  0  0  0
   24.8704  -19.2645  -11.5392 O   0  0  0  0  0  0  0  0  0  0  0  0
   23.3674  -19.0565  -15.9765 C   0  0  0  0  0  0  0  0  0  0  0  0
   23.5392  -19.3466  -14.5226 C   0  0  0  0  0  0  0  0  0  0  0  0
   22.6479  -20.4797  -14.0380 C   0  0  2  0  0  0  0  0  0  0  0  0
   21.2434  -20.2187  -14.4695 C   0  0  0  0  0  0  0  0  0  0  0  0
   22.8344  -20.7454  -12.5723 C   0  0  2  0  0  0  0  0  0  0  0  0
   24.2274  -21.2325  -12.4557 N   0  0  0  0  0  0  0  0  0  0  0  0
   21.9602  -21.8584  -12.1619 C   0  0  0  0  0  0  0  0  0  0  0  0
   22.0114  -22.9839  -12.7795 O   0  0  0  0  0  0  0  0  0  0  0  0
   18.5909  -26.6304   -7.2262 N   0  0  0  0  0  0  0  0  0  0  0  0
   18.3236  -25.5143   -6.3879 C   0  0  0  0  0  0  0  0  0  0  0  0
   17.8514  -25.6944   -5.1965 N   0  0  0  0  0  0  0  0  0  0  0  0
   18.5564  -24.1712   -6.8033 N   0  0  0  0  0  0  0  0  0  0  0  0
   17.7746  -23.5863   -7.8980 C   0  0  0  0  0  0  0  0  0  0  0  0
   18.4594  -23.9022   -9.2166 C   0  0  0  0  0  0  0  0  0  0  0  0
   19.4474  -22.7880   -9.4796 C   0  0  0  0  0  0  0  0  0  0  0  0
   20.1207  -22.9492  -10.8358 C   0  0  2  0  0  0  0  0  0  0  0  0
   21.0165  -21.8274  -11.0975 N   0  0  0  0  0  0  0  0  0  0  0  0
   19.1281  -23.1134  -11.9082 C   0  0  0  0  0  0  0  0  0  0  0  0
   18.7979  -24.3471  -12.4261 O   0  0  0  0  0  0  0  0  0  0  0  0
   18.5523  -22.1022  -12.3804 O   0  0  0  0  0  0  0  0  0  0  0  0
  2  1  1  0
  3  2  1  0
  3  4  1  1
  5  6  1  6
  5  3  1  0
  7  5  1  0
  8  7  2  0
  9 10  1  0
 11 10  1  0
 11 13  1  0
 11 12  1  1
 13 15  1  0
 13 14  1  6
 14  7  1  0
 15 16  2  0
 17 18  1  0
 18 19  2  0
 18 20  1  0
 20 21  1  0
 21 22  1  0
 23 22  1  0
 24 23  1  1
 25 24  1  0
 25 15  1  0
 26 24  1  0
 27 26  1  0
 28 26  2  0
M  END
$$$$
