PIC.pdb
     RDKit          3D

 22 22  0  0  1  0  0  0  0  0999 V2000
   27.3998  -19.6299  -15.0917 N   0  0  0  0  0  0  0  0  0  0  0  0
   28.6848  -19.4831  -15.7798 C   0  0  0  0  0  0  0  0  0  0  0  0
   29.4654  -20.6332  -15.1306 C   0  0  0  0  0  0  0  0  0  0  0  0
   28.4186  -21.7151  -14.9173 C   0  0  0  0  0  0  0  0  0  0  0  0
   27.1337  -21.0269  -15.2707 C   0  0  1  0  0  0  0  0  0  0  0  0
   25.9998  -21.4935  -14.4108 C   0  0  0  0  0  0  0  0  0  0  0  0
   25.5765  -22.6512  -14.6048 O   0  0  0  0  0  0  0  0  0  0  0  0
   26.3347  -20.7273   -9.2809 C   0  0  0  0  0  0  0  0  0  0  0  0
   25.9157  -21.2161  -10.6651 C   0  0  0  0  0  0  0  0  0  0  0  0
   24.6708  -20.5014  -11.1317 C   0  0  2  0  0  0  0  0  0  0  0  0
   23.4978  -20.8405  -10.2134 C   0  0  0  0  0  0  0  0  0  0  0  0
   24.3662  -20.8646  -12.5572 C   0  0  2  0  0  0  0  0  0  0  0  0
   25.4611  -20.6412  -13.4399 N   0  0  0  0  0  0  0  0  0  0  0  0
   23.0592  -20.4629  -13.0521 C   0  0  0  0  0  0  0  0  0  0  0  0
   22.6708  -19.3136  -13.2815 O   0  0  0  0  0  0  0  0  0  0  0  0
   22.1038  -21.5153  -13.3065 N   0  0  0  0  0  0  0  0  0  0  0  0
   20.7996  -21.2487  -13.8485 C   0  0  1  0  0  0  0  0  0  0  0  0
   20.5563  -22.0399  -15.1213 C   0  0  0  0  0  0  0  0  0  0  0  0
   18.8735  -21.7088  -15.7036 S   0  0  0  0  0  0  0  0  0  0  0  0
   19.7475  -21.5406  -12.8438 C   0  0  0  0  0  0  0  0  0  0  0  0
   18.6015  -20.7728  -12.7306 O   0  0  0  0  0  0  0  0  0  0  0  0
   19.9011  -22.5177  -12.0690 O   0  0  0  0  0  0  0  0  0  0  0  0
  1  2  1  0
  1  5  1  0
  3  2  1  0
  3  4  1  0
  4  5  1  0
  6 13  1  0
  5  6  1  1
  7  6  2  0
  8  9  1  0
  9 10  1  0
 10 12  1  0
 10 11  1  1
 12 13  1  6
 12 14  1  0
 14 16  1  0
 15 14  2  0
 16 17  1  0
 17 18  1  6
 17 20  1  0
 19 18  1  0
 20 22  2  0
 20 21  1  0
M  END
$$$$
