PIC.pdb
     RDKit          3D

 22 22  0  0  1  0  0  0  0  0999 V2000
   22.1217  -12.6048  -19.0897 N   0  0  0  0  0  0  0  0  0  0  0  0
   21.5239  -13.7238  -19.8223 C   0  0  0  0  0  0  0  0  0  0  0  0
   21.1591  -14.6430  -18.6496 C   0  0  0  0  0  0  0  0  0  0  0  0
   20.7630  -13.6837  -17.5385 C   0  0  0  0  0  0  0  0  0  0  0  0
   21.1201  -12.3393  -18.0994 C   0  0  1  0  0  0  0  0  0  0  0  0
   21.6190  -11.4096  -17.0365 C   0  0  0  0  0  0  0  0  0  0  0  0
   20.8654  -11.1985  -16.0646 O   0  0  0  0  0  0  0  0  0  0  0  0
   26.7258  -11.7635  -15.6307 C   0  0  0  0  0  0  0  0  0  0  0  0
   25.2277  -11.4744  -15.6828 C   0  0  0  0  0  0  0  0  0  0  0  0
   24.9705  -10.0600  -16.1427 C   0  0  2  0  0  0  0  0  0  0  0  0
   25.5531   -9.0687  -15.1366 C   0  0  0  0  0  0  0  0  0  0  0  0
   23.4976   -9.8354  -16.3345 C   0  0  2  0  0  0  0  0  0  0  0  0
   22.8823  -10.8195  -17.1597 N   0  0  0  0  0  0  0  0  0  0  0  0
   23.0879   -8.4606  -16.5725 C   0  0  0  0  0  0  0  0  0  0  0  0
   23.2177   -7.8151  -17.6170 O   0  0  0  0  0  0  0  0  0  0  0  0
   22.4597   -7.7652  -15.4739 N   0  0  0  0  0  0  0  0  0  0  0  0
   22.0236   -6.4001  -15.5831 C   0  0  1  0  0  0  0  0  0  0  0  0
   20.5402   -6.3157  -15.8953 C   0  0  0  0  0  0  0  0  0  0  0  0
   20.0389   -4.5752  -15.8893 S   0  0  0  0  0  0  0  0  0  0  0  0
   22.3388   -5.6509  -14.3417 C   0  0  0  0  0  0  0  0  0  0  0  0
   22.5526   -4.2835  -14.3389 O   0  0  0  0  0  0  0  0  0  0  0  0
   22.4144   -6.2782  -13.2556 O   0  0  0  0  0  0  0  0  0  0  0  0
  1  2  1  0
  1  5  1  0
  3  2  1  0
  3  4  1  0
  4  5  1  0
  6 13  1  0
  5  6  1  1
  7  6  2  0
  8  9  1  0
  9 10  1  0
 10 12  1  0
 10 11  1  1
 12 13  1  6
 12 14  1  0
 14 16  1  0
 15 14  2  0
 16 17  1  0
 17 18  1  1
 17 20  1  0
 19 18  1  0
 20 22  2  0
 20 21  1  0
M  END
$$$$
