PIC.pdb
     RDKit          3D

 22 22  0  0  1  0  0  0  0  0999 V2000
   21.9843  -15.6838  -17.8836 N   0  0  0  0  0  0  0  0  0  0  0  0
   21.5927  -16.3290  -19.1392 C   0  0  0  0  0  0  0  0  0  0  0  0
   20.7690  -15.1997  -19.7713 C   0  0  0  0  0  0  0  0  0  0  0  0
   21.4829  -13.9315  -19.3309 C   0  0  0  0  0  0  0  0  0  0  0  0
   22.5023  -14.4317  -18.3510 C   0  0  1  0  0  0  0  0  0  0  0  0
   22.7156  -13.4625  -17.2293 C   0  0  0  0  0  0  0  0  0  0  0  0
   21.8771  -13.4669  -16.3052 O   0  0  0  0  0  0  0  0  0  0  0  0
   27.6043  -12.7733  -15.3759 C   0  0  0  0  0  0  0  0  0  0  0  0
   26.0947  -12.8038  -15.6013 C   0  0  0  0  0  0  0  0  0  0  0  0
   25.5880  -11.4453  -16.0211 C   0  0  2  0  0  0  0  0  0  0  0  0
   25.8331  -10.4286  -14.9073 C   0  0  0  0  0  0  0  0  0  0  0  0
   24.1301  -11.5209  -16.3752 C   0  0  2  0  0  0  0  0  0  0  0  0
   23.8196  -12.6022  -17.2483 N   0  0  0  0  0  0  0  0  0  0  0  0
   23.4806  -10.2551  -16.6759 C   0  0  0  0  0  0  0  0  0  0  0  0
   23.6468   -9.5522  -17.6772 O   0  0  0  0  0  0  0  0  0  0  0  0
   22.5361   -9.7568  -15.7039 N   0  0  0  0  0  0  0  0  0  0  0  0
   21.6997   -8.6176  -15.9654 C   0  0  1  0  0  0  0  0  0  0  0  0
   20.2331   -9.0069  -16.0156 C   0  0  0  0  0  0  0  0  0  0  0  0
   20.0257  -10.3544  -17.2080 S   0  0  0  0  0  0  0  0  0  0  0  0
   21.9244   -7.5610  -14.9482 C   0  0  0  0  0  0  0  0  0  0  0  0
   21.3207   -6.3182  -15.0290 O   0  0  0  0  0  0  0  0  0  0  0  0
   22.6883   -7.8017  -13.9801 O   0  0  0  0  0  0  0  0  0  0  0  0
  1  2  1  0
  1  5  1  0
  3  2  1  0
  3  4  1  0
  4  5  1  0
  6 13  1  0
  5  6  1  1
  7  6  2  0
  8  9  1  0
  9 10  1  0
 10 12  1  0
 10 11  1  1
 12 13  1  6
 12 14  1  0
 14 16  1  0
 15 14  2  0
 16 17  1  0
 17 18  1  1
 17 20  1  0
 19 18  1  0
 20 22  2  0
 20 21  1  0
M  END
$$$$
