PIC.pdb
     RDKit          3D

 22 22  0  0  1  0  0  0  0  0999 V2000
   28.4101  -21.2474  -15.8048 N   0  0  0  0  0  0  0  0  0  0  0  0
   29.2068  -20.3274  -16.6202 C   0  0  0  0  0  0  0  0  0  0  0  0
   28.1031  -19.3767  -17.1012 C   0  0  0  0  0  0  0  0  0  0  0  0
   27.1455  -19.2972  -15.9229 C   0  0  0  0  0  0  0  0  0  0  0  0
   27.6720  -20.3373  -14.9793 C   0  0  1  0  0  0  0  0  0  0  0  0
   26.5665  -21.0257  -14.2398 C   0  0  0  0  0  0  0  0  0  0  0  0
   26.1343  -22.0914  -14.7241 O   0  0  0  0  0  0  0  0  0  0  0  0
   26.4340  -20.7230   -8.8438 C   0  0  0  0  0  0  0  0  0  0  0  0
   26.1958  -21.1911  -10.2772 C   0  0  0  0  0  0  0  0  0  0  0  0
   24.9818  -20.5152  -10.8669 C   0  0  2  0  0  0  0  0  0  0  0  0
   23.7223  -20.9650  -10.1283 C   0  0  0  0  0  0  0  0  0  0  0  0
   24.8839  -20.8121  -12.3363 C   0  0  2  0  0  0  0  0  0  0  0  0
   26.0628  -20.4697  -13.0581 N   0  0  0  0  0  0  0  0  0  0  0  0
   23.6247  -20.4638  -12.9746 C   0  0  0  0  0  0  0  0  0  0  0  0
   23.1715  -19.3301  -13.1584 O   0  0  0  0  0  0  0  0  0  0  0  0
   22.8073  -21.5555  -13.4491 N   0  0  0  0  0  0  0  0  0  0  0  0
   21.5268  -21.3396  -14.0652 C   0  0  1  0  0  0  0  0  0  0  0  0
   21.0845  -22.5530  -14.8634 C   0  0  0  0  0  0  0  0  0  0  0  0
   19.3997  -22.2741  -15.4670 S   0  0  0  0  0  0  0  0  0  0  0  0
   20.5093  -20.9878  -13.0442 C   0  0  0  0  0  0  0  0  0  0  0  0
   19.5699  -19.9926  -13.2506 O   0  0  0  0  0  0  0  0  0  0  0  0
   20.4993  -21.6139  -11.9548 O   0  0  0  0  0  0  0  0  0  0  0  0
  1  2  1  0
  1  5  1  0
  3  2  1  0
  3  4  1  0
  4  5  1  0
  6 13  1  0
  5  6  1  6
  7  6  2  0
  8  9  1  0
  9 10  1  0
 10 12  1  0
 10 11  1  1
 12 13  1  6
 12 14  1  0
 14 16  1  0
 15 14  2  0
 16 17  1  0
 17 18  1  1
 17 20  1  0
 19 18  1  0
 20 22  2  0
 20 21  1  0
M  END
$$$$
