PIC.pdb
     RDKit          3D

 22 22  0  0  1  0  0  0  0  0999 V2000
   26.2513  -19.8227  -10.1855 N   0  0  0  0  0  0  0  0  0  0  0  0
   26.0607  -19.7884  -11.6376 C   0  0  0  0  0  0  0  0  0  0  0  0
   27.4959  -20.0714  -12.0996 C   0  0  0  0  0  0  0  0  0  0  0  0
   28.0354  -21.0371  -11.0565 C   0  0  0  0  0  0  0  0  0  0  0  0
   26.9561  -21.0591  -10.0153 C   0  0  1  0  0  0  0  0  0  0  0  0
   27.5201  -21.1944   -8.6345 C   0  0  0  0  0  0  0  0  0  0  0  0
   28.1770  -22.2258   -8.3859 O   0  0  0  0  0  0  0  0  0  0  0  0
   30.1879  -17.9556   -5.5066 C   0  0  0  0  0  0  0  0  0  0  0  0
   29.3981  -19.0724   -6.1844 C   0  0  0  0  0  0  0  0  0  0  0  0
   28.0265  -19.2084   -5.5692 C   0  0  2  0  0  0  0  0  0  0  0  0
   28.1502  -19.4978   -4.0741 C   0  0  0  0  0  0  0  0  0  0  0  0
   27.2480  -20.2868   -6.2676 C   0  0  2  0  0  0  0  0  0  0  0  0
   27.3006  -20.1875   -7.6872 N   0  0  0  0  0  0  0  0  0  0  0  0
   25.9467  -20.6026   -5.7008 C   0  0  0  0  0  0  0  0  0  0  0  0
   24.8709  -20.0519   -5.9534 O   0  0  0  0  0  0  0  0  0  0  0  0
   25.8959  -21.6759   -4.7362 N   0  0  0  0  0  0  0  0  0  0  0  0
   24.6577  -22.1357   -4.1691 C   0  0  1  0  0  0  0  0  0  0  0  0
   24.7026  -23.6242   -3.8736 C   0  0  0  0  0  0  0  0  0  0  0  0
   24.8291  -24.5280   -5.4382 S   0  0  0  0  0  0  0  0  0  0  0  0
   24.3302  -21.3698   -2.9412 C   0  0  0  0  0  0  0  0  0  0  0  0
   23.1095  -21.4896   -2.3000 O   0  0  0  0  0  0  0  0  0  0  0  0
   25.1895  -20.5856   -2.4664 O   0  0  0  0  0  0  0  0  0  0  0  0
  1  2  1  0
  1  5  1  0
  3  2  1  0
  3  4  1  0
  4  5  1  0
  6 13  1  0
  5  6  1  1
  7  6  2  0
  8  9  1  0
  9 10  1  0
 10 12  1  0
 10 11  1  1
 12 13  1  6
 12 14  1  0
 14 16  1  0
 15 14  2  0
 16 17  1  0
 17 18  1  1
 17 20  1  0
 19 18  1  0
 20 22  2  0
 20 21  1  0
M  END
$$$$
