PIC.pdb
     RDKit          3D

 22 22  0  0  1  0  0  0  0  0999 V2000
   28.0818  -22.0743  -16.0092 N   0  0  0  0  0  0  0  0  0  0  0  0
   29.0160  -21.3772  -16.8966 C   0  0  0  0  0  0  0  0  0  0  0  0
   28.0544  -20.3894  -17.5696 C   0  0  0  0  0  0  0  0  0  0  0  0
   27.0640  -20.0332  -16.4723 C   0  0  0  0  0  0  0  0  0  0  0  0
   27.4228  -20.9774  -15.3636 C   0  0  1  0  0  0  0  0  0  0  0  0
   26.2130  -21.4235  -14.6017 C   0  0  0  0  0  0  0  0  0  0  0  0
   25.6486  -22.4669  -14.9888 O   0  0  0  0  0  0  0  0  0  0  0  0
   26.2125  -20.8448   -9.3008 C   0  0  0  0  0  0  0  0  0  0  0  0
   25.8996  -21.2954  -10.7255 C   0  0  0  0  0  0  0  0  0  0  0  0
   24.7401  -20.5129  -11.2926 C   0  0  2  0  0  0  0  0  0  0  0  0
   23.4674  -20.8187  -10.5046 C   0  0  0  0  0  0  0  0  0  0  0  0
   24.5639  -20.8280  -12.7508 C   0  0  2  0  0  0  0  0  0  0  0  0
   25.7616  -20.6779  -13.5065 N   0  0  0  0  0  0  0  0  0  0  0  0
   23.3528  -20.3162  -13.3718 C   0  0  0  0  0  0  0  0  0  0  0  0
   23.0560  -19.1329  -13.5617 O   0  0  0  0  0  0  0  0  0  0  0  0
   22.3847  -21.2899  -13.8190 N   0  0  0  0  0  0  0  0  0  0  0  0
   21.1392  -20.9063  -14.4251 C   0  0  1  0  0  0  0  0  0  0  0  0
   20.9826  -21.5194  -15.8052 C   0  0  0  0  0  0  0  0  0  0  0  0
   19.3421  -21.1008  -16.4489 S   0  0  0  0  0  0  0  0  0  0  0  0
   19.9979  -21.2827  -13.5547 C   0  0  0  0  0  0  0  0  0  0  0  0
   18.8057  -20.5796  -13.5555 O   0  0  0  0  0  0  0  0  0  0  0  0
   20.1167  -22.2730  -12.7906 O   0  0  0  0  0  0  0  0  0  0  0  0
  1  2  1  0
  1  5  1  0
  3  2  1  0
  3  4  1  0
  4  5  1  0
  6 13  1  0
  5  6  1  6
  7  6  2  0
  8  9  1  0
  9 10  1  0
 10 12  1  0
 10 11  1  1
 12 13  1  6
 12 14  1  0
 14 16  1  0
 15 14  2  0
 16 17  1  0
 17 18  1  6
 17 20  1  0
 19 18  1  0
 20 22  2  0
 20 21  1  0
M  END
$$$$
