PIC.pdb
     RDKit          3D

 22 22  0  0  1  0  0  0  0  0999 V2000
   27.6887  -21.5880  -15.4953 N   0  0  0  0  0  0  0  0  0  0  0  0
   28.3717  -20.7439  -16.4789 C   0  0  0  0  0  0  0  0  0  0  0  0
   27.1951  -19.8780  -16.9470 C   0  0  0  0  0  0  0  0  0  0  0  0
   26.3525  -19.6929  -15.6950 C   0  0  0  0  0  0  0  0  0  0  0  0
   27.0023  -20.6108  -14.7026 C   0  0  1  0  0  0  0  0  0  0  0  0
   25.9969  -21.2404  -13.7884 C   0  0  0  0  0  0  0  0  0  0  0  0
   25.5805  -22.3760  -14.0949 O   0  0  0  0  0  0  0  0  0  0  0  0
   26.3454  -20.4390   -8.5132 C   0  0  0  0  0  0  0  0  0  0  0  0
   25.9588  -21.0439   -9.8604 C   0  0  0  0  0  0  0  0  0  0  0  0
   24.6763  -20.4348  -10.3731 C   0  0  2  0  0  0  0  0  0  0  0  0
   23.5049  -20.8621   -9.4903 C   0  0  0  0  0  0  0  0  0  0  0  0
   24.4490  -20.8300  -11.8045 C   0  0  2  0  0  0  0  0  0  0  0  0
   25.5641  -20.5558  -12.6467 N   0  0  0  0  0  0  0  0  0  0  0  0
   23.1426  -20.5070  -12.3553 C   0  0  0  0  0  0  0  0  0  0  0  0
   22.7600  -19.4087  -12.7699 O   0  0  0  0  0  0  0  0  0  0  0  0
   22.1800  -21.5807  -12.4301 N   0  0  0  0  0  0  0  0  0  0  0  0
   20.8675  -21.3930  -12.9849 C   0  0  1  0  0  0  0  0  0  0  0  0
   20.5526  -22.4465  -14.0318 C   0  0  0  0  0  0  0  0  0  0  0  0
   18.8464  -22.2195  -14.5959 S   0  0  0  0  0  0  0  0  0  0  0  0
   19.8419  -21.4004  -11.9126 C   0  0  0  0  0  0  0  0  0  0  0  0
   18.7529  -20.5464  -11.9267 O   0  0  0  0  0  0  0  0  0  0  0  0
   19.9654  -22.2091  -10.9588 O   0  0  0  0  0  0  0  0  0  0  0  0
  1  2  1  0
  1  5  1  0
  3  2  1  0
  3  4  1  0
  4  5  1  0
  6 13  1  0
  5  6  1  1
  7  6  2  0
  8  9  1  0
  9 10  1  0
 10 12  1  0
 10 11  1  1
 12 13  1  6
 12 14  1  0
 14 16  1  0
 15 14  2  0
 16 17  1  0
 17 18  1  6
 17 20  1  0
 19 18  1  0
 20 22  2  0
 20 21  1  0
M  END
$$$$
