NAA.pdb
     RDKit          3D

 19 18  0  0  1  0  0  0  0  0999 V2000
    7.4832  -13.1839   18.1121 N   0  0  0  0  0  0  0  0  0  0  0  0
    8.2381  -13.9181   19.0476 C   0  0  0  0  0  0  0  0  0  0  0  0
    8.6502  -15.0575   18.6939 O   0  0  0  0  0  0  0  0  0  0  0  0
    8.5203  -13.3437   20.3914 C   0  0  0  0  0  0  0  0  0  0  0  0
    8.0565  -14.3556   21.4142 C   0  0  2  0  0  0  0  0  0  0  0  0
    6.6151  -14.4482   21.3738 N   0  0  0  0  0  0  0  0  0  0  0  0
    8.4633  -13.9833   22.7890 C   0  0  0  0  0  0  0  0  0  0  0  0
    9.6951  -13.8634   23.1104 O   0  0  0  0  0  0  0  0  0  0  0  0
    6.7165  -12.7825   25.8767 C   0  0  0  0  0  0  0  0  0  0  0  0
    7.9189  -13.3988   25.1832 C   0  0  2  0  0  0  0  0  0  0  0  0
    7.5261  -13.7373   23.8309 N   0  0  0  0  0  0  0  0  0  0  0  0
    8.4230  -14.5830   25.9227 C   0  0  0  0  0  0  0  0  0  0  0  0
    7.7422  -15.6379   25.9186 O   0  0  0  0  0  0  0  0  0  0  0  0
   11.5770  -16.0423   27.0723 C   0  0  0  0  0  0  0  0  0  0  0  0
   10.1542  -15.7082   27.3696 C   0  0  2  0  0  0  0  0  0  0  0  0
    9.6430  -14.5883   26.6404 N   0  0  0  0  0  0  0  0  0  0  0  0
    9.9880  -15.5369   28.8421 C   0  0  0  0  0  0  0  0  0  0  0  0
    9.5979  -14.4143   29.2512 O   0  0  0  0  0  0  0  0  0  0  0  0
   10.2356  -16.5258   29.7512 O   0  0  0  0  0  0  0  0  0  0  0  0
  2  1  1  0
  3  2  2  0
  4  2  1  0
  5  4  1  0
  5  6  1  1
  7  5  1  0
  7  8  2  0
 10  9  1  1
 10 11  1  0
 10 12  1  0
 11  7  1  0
 12 13  2  0
 15 14  1  1
 15 17  1  0
 16 12  1  0
 16 15  1  0
 17 18  2  0
 17 19  1  0
M  END
$$$$
