NAA.pdb
     RDKit          3D

 19 18  0  0  1  0  0  0  0  0999 V2000
   15.4266  -14.5732   16.6020 N   0  0  0  0  0  0  0  0  0  0  0  0
   14.5354  -15.1378   17.5353 C   0  0  0  0  0  0  0  0  0  0  0  0
   14.5300  -16.3953   17.6445 O   0  0  0  0  0  0  0  0  0  0  0  0
   13.6488  -14.2577   18.3445 C   0  0  0  0  0  0  0  0  0  0  0  0
   12.5466  -15.1289   18.9026 C   0  0  2  0  0  0  0  0  0  0  0  0
   11.8105  -15.7244   17.8113 N   0  0  0  0  0  0  0  0  0  0  0  0
   11.5993  -14.3583   19.7409 C   0  0  0  0  0  0  0  0  0  0  0  0
   11.9924  -13.7207   20.7772 O   0  0  0  0  0  0  0  0  0  0  0  0
    8.0580  -13.2127   19.4193 C   0  0  0  0  0  0  0  0  0  0  0  0
    9.2777  -13.5212   20.2700 C   0  0  2  0  0  0  0  0  0  0  0  0
   10.2078  -14.2753   19.4554 N   0  0  0  0  0  0  0  0  0  0  0  0
    8.9054  -14.2567   21.5044 C   0  0  0  0  0  0  0  0  0  0  0  0
    8.0813  -13.7376   22.2967 O   0  0  0  0  0  0  0  0  0  0  0  0
    8.7176  -17.7173   22.6919 C   0  0  0  0  0  0  0  0  0  0  0  0
    9.0464  -16.2924   22.9852 C   0  0  2  0  0  0  0  0  0  0  0  0
    9.4345  -15.5256   21.8413 N   0  0  0  0  0  0  0  0  0  0  0  0
   10.0729  -16.2384   24.0663 C   0  0  0  0  0  0  0  0  0  0  0  0
   11.1796  -15.7138   23.7843 O   0  0  0  0  0  0  0  0  0  0  0  0
    9.8699  -16.7242   25.3267 O   0  0  0  0  0  0  0  0  0  0  0  0
  2  1  1  0
  3  2  2  0
  4  2  1  0
  5  4  1  0
  5  6  1  6
  7  5  1  0
  7  8  2  0
 10  9  1  6
 10 11  1  0
 10 12  1  0
 11  7  1  0
 12 13  2  0
 15 14  1  6
 15 17  1  0
 16 12  1  0
 16 15  1  0
 17 18  2  0
 17 19  1  0
M  END
$$$$
