NAA.pdb
     RDKit          3D

 19 18  0  0  1  0  0  0  0  0999 V2000
    8.4153  -19.7717   19.4946 N   0  0  0  0  0  0  0  0  0  0  0  0
    8.1064  -19.2756   18.2130 C   0  0  0  0  0  0  0  0  0  0  0  0
    8.8084  -19.6862   17.2476 O   0  0  0  0  0  0  0  0  0  0  0  0
    6.9900  -18.3067   18.0391 C   0  0  0  0  0  0  0  0  0  0  0  0
    7.5991  -17.0064   17.5663 C   0  0  2  0  0  0  0  0  0  0  0  0
    8.5296  -17.2774   16.4947 N   0  0  0  0  0  0  0  0  0  0  0  0
    8.3253  -16.3057   18.6506 C   0  0  0  0  0  0  0  0  0  0  0  0
    9.5800  -16.4744   18.8302 O   0  0  0  0  0  0  0  0  0  0  0  0
    7.4329  -13.7216   21.2376 C   0  0  0  0  0  0  0  0  0  0  0  0
    8.3932  -14.7175   20.6111 C   0  0  2  0  0  0  0  0  0  0  0  0
    7.6868  -15.4103   19.5535 N   0  0  0  0  0  0  0  0  0  0  0  0
    8.9323  -15.6606   21.6226 C   0  0  0  0  0  0  0  0  0  0  0  0
    8.2807  -16.6989   21.8944 O   0  0  0  0  0  0  0  0  0  0  0  0
   12.1674  -16.2335   23.4789 C   0  0  0  0  0  0  0  0  0  0  0  0
   10.6889  -16.3247   23.3047 C   0  0  2  0  0  0  0  0  0  0  0  0
   10.1544  -15.4514   22.3054 N   0  0  0  0  0  0  0  0  0  0  0  0
   10.0265  -16.1298   24.6270 C   0  0  0  0  0  0  0  0  0  0  0  0
    9.2127  -15.1773   24.7289 O   0  0  0  0  0  0  0  0  0  0  0  0
   10.2587  -16.9241   25.7136 O   0  0  0  0  0  0  0  0  0  0  0  0
  2  1  1  0
  3  2  2  0
  4  2  1  0
  5  4  1  0
  5  6  1  6
  7  5  1  0
  7  8  2  0
 10  9  1  1
 10 11  1  0
 10 12  1  0
 11  7  1  0
 12 13  2  0
 15 14  1  1
 15 17  1  0
 16 12  1  0
 16 15  1  0
 17 18  2  0
 17 19  1  0
M  END
$$$$
