NAA.pdb
     RDKit          3D

 19 18  0  0  1  0  0  0  0  0999 V2000
    8.9344  -16.4843   13.7071 N   0  0  0  0  0  0  0  0  0  0  0  0
    9.6234  -16.6826   14.9195 C   0  0  0  0  0  0  0  0  0  0  0  0
    9.9950  -17.8583   15.1896 O   0  0  0  0  0  0  0  0  0  0  0  0
    9.8863  -15.5298   15.8235 C   0  0  0  0  0  0  0  0  0  0  0  0
    9.5033  -15.9632   17.2202 C   0  0  2  0  0  0  0  0  0  0  0  0
    8.1689  -16.5168   17.1987 N   0  0  0  0  0  0  0  0  0  0  0  0
    9.5262  -14.8342   18.1788 C   0  0  0  0  0  0  0  0  0  0  0  0
   10.6275  -14.3313   18.5904 O   0  0  0  0  0  0  0  0  0  0  0  0
    6.9859  -12.5073   19.6524 C   0  0  0  0  0  0  0  0  0  0  0  0
    8.3598  -13.1546   19.6582 C   0  0  2  0  0  0  0  0  0  0  0  0
    8.3429  -14.2404   18.6999 N   0  0  0  0  0  0  0  0  0  0  0  0
    8.7318  -13.6246   21.0161 C   0  0  0  0  0  0  0  0  0  0  0  0
    8.8319  -12.7850   21.9442 O   0  0  0  0  0  0  0  0  0  0  0  0
    8.8012  -16.7275   23.0473 C   0  0  0  0  0  0  0  0  0  0  0  0
    9.4399  -15.4578   22.5955 C   0  0  2  0  0  0  0  0  0  0  0  0
    8.9826  -14.9828   21.3257 N   0  0  0  0  0  0  0  0  0  0  0  0
   10.9229  -15.6155   22.6300 C   0  0  0  0  0  0  0  0  0  0  0  0
   11.5404  -15.4973   21.5417 O   0  0  0  0  0  0  0  0  0  0  0  0
   11.6292  -15.8779   23.7693 O   0  0  0  0  0  0  0  0  0  0  0  0
  2  1  1  0
  3  2  2  0
  4  2  1  0
  5  4  1  0
  5  6  1  6
  7  5  1  0
  7  8  2  0
 10  9  1  1
 10 11  1  0
 10 12  1  0
 11  7  1  0
 12 13  2  0
 15 14  1  6
 15 17  1  0
 16 12  1  0
 16 15  1  0
 17 18  2  0
 17 19  1  0
M  END
$$$$
