NAA.pdb
     RDKit          3D

 19 18  0  0  1  0  0  0  0  0999 V2000
   12.0461  -19.3788   15.1212 N   0  0  0  0  0  0  0  0  0  0  0  0
   11.3848  -18.2673   14.5634 C   0  0  0  0  0  0  0  0  0  0  0  0
   11.4918  -18.0940   13.3177 O   0  0  0  0  0  0  0  0  0  0  0  0
   10.5994  -17.3530   15.4367 C   0  0  0  0  0  0  0  0  0  0  0  0
    9.2111  -17.9386   15.5592 C   0  0  2  0  0  0  0  0  0  0  0  0
    8.4930  -17.7258   14.3236 N   0  0  0  0  0  0  0  0  0  0  0  0
    8.4407  -17.3172   16.6612 C   0  0  0  0  0  0  0  0  0  0  0  0
    7.7378  -16.2657   16.4731 O   0  0  0  0  0  0  0  0  0  0  0  0
    7.1392  -18.4808   19.9019 C   0  0  0  0  0  0  0  0  0  0  0  0
    7.5795  -17.3151   19.0337 C   0  0  2  0  0  0  0  0  0  0  0  0
    8.4296  -17.8392   17.9848 N   0  0  0  0  0  0  0  0  0  0  0  0
    8.2714  -16.2741   19.8343 C   0  0  0  0  0  0  0  0  0  0  0  0
    9.5125  -16.3613   20.0030 O   0  0  0  0  0  0  0  0  0  0  0  0
    7.3647  -13.0371   21.6121 C   0  0  0  0  0  0  0  0  0  0  0  0
    8.2124  -14.2240   21.3006 C   0  0  2  0  0  0  0  0  0  0  0  0
    7.6013  -15.1760   20.4247 N   0  0  0  0  0  0  0  0  0  0  0  0
    8.6655  -14.8513   22.5760 C   0  0  0  0  0  0  0  0  0  0  0  0
    8.0016  -15.8283   23.0052 O   0  0  0  0  0  0  0  0  0  0  0  0
    9.7495  -14.4211   23.2870 O   0  0  0  0  0  0  0  0  0  0  0  0
  2  1  1  0
  3  2  2  0
  4  2  1  0
  5  4  1  0
  5  6  1  6
  7  5  1  0
  7  8  2  0
 10  9  1  1
 10 11  1  0
 10 12  1  0
 11  7  1  0
 12 13  2  0
 15 14  1  1
 15 17  1  0
 16 12  1  0
 16 15  1  0
 17 18  2  0
 17 19  1  0
M  END
$$$$
