NAA.pdb
     RDKit          3D

 19 18  0  0  1  0  0  0  0  0999 V2000
   10.2947  -18.8605   15.4210 N   0  0  0  0  0  0  0  0  0  0  0  0
    9.1785  -18.1180   15.8530 C   0  0  0  0  0  0  0  0  0  0  0  0
    8.0426  -18.6548   15.7313 O   0  0  0  0  0  0  0  0  0  0  0  0
    9.3662  -16.7570   16.4258 C   0  0  0  0  0  0  0  0  0  0  0  0
    9.0643  -16.8510   17.9040 C   0  0  2  0  0  0  0  0  0  0  0  0
    7.7089  -17.3176   18.0853 N   0  0  0  0  0  0  0  0  0  0  0  0
    9.2039  -15.5427   18.5844 C   0  0  0  0  0  0  0  0  0  0  0  0
   10.3390  -14.9634   18.6892 O   0  0  0  0  0  0  0  0  0  0  0  0
    6.9345  -12.9447   20.0296 C   0  0  0  0  0  0  0  0  0  0  0  0
    8.2555  -13.6939   20.0172 C   0  0  2  0  0  0  0  0  0  0  0  0
    8.1017  -14.8507   19.1595 N   0  0  0  0  0  0  0  0  0  0  0  0
    8.6741  -14.0773   21.3888 C   0  0  0  0  0  0  0  0  0  0  0  0
    8.9493  -13.1735   22.2157 O   0  0  0  0  0  0  0  0  0  0  0  0
    8.6832  -17.1614   23.5532 C   0  0  0  0  0  0  0  0  0  0  0  0
    9.1936  -15.8256   23.1294 C   0  0  2  0  0  0  0  0  0  0  0  0
    8.7811  -15.4210   21.8205 N   0  0  0  0  0  0  0  0  0  0  0  0
   10.6775  -15.7974   23.2794 C   0  0  0  0  0  0  0  0  0  0  0  0
   11.1444  -16.0001   24.4286 O   0  0  0  0  0  0  0  0  0  0  0  0
   11.5379  -15.5656   22.2442 O   0  0  0  0  0  0  0  0  0  0  0  0
  2  1  1  0
  3  2  2  0
  4  2  1  0
  5  4  1  0
  5  6  1  6
  7  5  1  0
  7  8  2  0
 10  9  1  1
 10 11  1  0
 10 12  1  0
 11  7  1  0
 12 13  2  0
 15 14  1  6
 15 17  1  0
 16 12  1  0
 16 15  1  0
 17 18  2  0
 17 19  1  0
M  END
$$$$
