NAA.pdb
     RDKit          3D

 19 18  0  0  1  0  0  0  0  0999 V2000
    8.4026  -12.1292   18.3915 N   0  0  0  0  0  0  0  0  0  0  0  0
    8.2777  -13.5258   18.5258 C   0  0  0  0  0  0  0  0  0  0  0  0
    8.9483  -14.2465   17.7359 O   0  0  0  0  0  0  0  0  0  0  0  0
    7.3816  -14.0961   19.5685 C   0  0  0  0  0  0  0  0  0  0  0  0
    8.1750  -14.1536   20.8539 C   0  0  2  0  0  0  0  0  0  0  0  0
    9.3449  -14.9781   20.6559 N   0  0  0  0  0  0  0  0  0  0  0  0
    7.3849  -14.7227   21.9702 C   0  0  0  0  0  0  0  0  0  0  0  0
    6.2161  -14.2861   22.2502 O   0  0  0  0  0  0  0  0  0  0  0  0
    7.6651  -17.6846   24.2367 C   0  0  0  0  0  0  0  0  0  0  0  0
    7.1170  -16.3044   23.9187 C   0  0  2  0  0  0  0  0  0  0  0  0
    7.8643  -15.7780   22.7954 N   0  0  0  0  0  0  0  0  0  0  0  0
    7.1915  -15.4067   25.0986 C   0  0  0  0  0  0  0  0  0  0  0  0
    6.5202  -15.6892   26.1212 O   0  0  0  0  0  0  0  0  0  0  0  0
    6.6391  -12.6394   26.4285 C   0  0  0  0  0  0  0  0  0  0  0  0
    7.9690  -13.2714   26.1907 C   0  0  2  0  0  0  0  0  0  0  0  0
    7.9868  -14.2363   25.1344 N   0  0  0  0  0  0  0  0  0  0  0  0
    8.4782  -13.8395   27.4726 C   0  0  0  0  0  0  0  0  0  0  0  0
    8.6382  -13.0436   28.4322 O   0  0  0  0  0  0  0  0  0  0  0  0
    8.7737  -15.1612   27.6496 O   0  0  0  0  0  0  0  0  0  0  0  0
  2  1  1  0
  3  2  2  0
  4  2  1  0
  5  4  1  0
  5  6  1  6
  7  5  1  0
  7  8  2  0
 10  9  1  1
 10 11  1  0
 10 12  1  0
 11  7  1  0
 12 13  2  0
 15 14  1  1
 15 17  1  0
 16 12  1  0
 16 15  1  0
 17 18  2  0
 17 19  1  0
M  END
$$$$
