YFP.pdb
     RDKit          3D

 31 33  0  0  1  0  0  0  0  0999 V2000
   10.6050  -22.6058   17.6009 O   0  0  0  0  0  0  0  0  0  0  0  0
   10.6709  -21.6025   18.5716 C   0  0  0  0  0  0  0  0  0  0  0  0
   10.0480  -20.3844   18.4024 C   0  0  0  0  0  0  0  0  0  0  0  0
   10.1210  -19.4027   19.3687 C   0  0  0  0  0  0  0  0  0  0  0  0
   10.8221  -19.5940   20.5520 C   0  0  0  0  0  0  0  0  0  0  0  0
   10.9030  -18.5370   21.5968 C   0  0  0  0  0  0  0  0  0  0  0  0
    9.9114  -17.4635   21.2245 C   0  0  2  0  0  0  0  0  0  0  0  0
   10.3391  -16.9144   19.9418 N   0  0  0  0  0  0  0  0  0  0  0  0
    9.8133  -16.4030   22.2485 C   0  0  0  0  0  0  0  0  0  0  0  0
   10.7175  -15.5554   22.3105 O   0  0  0  0  0  0  0  0  0  0  0  0
   11.4394  -20.8179   20.7058 C   0  0  0  0  0  0  0  0  0  0  0  0
   11.3703  -21.8036   19.7435 C   0  0  0  0  0  0  0  0  0  0  0  0
    8.7049  -16.3900   23.1134 N   0  0  0  0  0  0  0  0  0  0  0  0
    8.6127  -15.4701   24.2257 C   0  0  1  0  0  0  0  0  0  0  0  0
    7.1722  -14.9945   24.3625 C   0  0  0  0  0  0  0  0  0  0  0  0
    6.9894  -14.1006   25.5235 C   0  0  0  0  0  0  0  0  0  0  0  0
    6.9344  -12.7414   25.3595 C   0  0  0  0  0  0  0  0  0  0  0  0
    6.7699  -11.9250   26.4888 C   0  0  0  0  0  0  0  0  0  0  0  0
    6.6663  -12.5068   27.7429 C   0  0  0  0  0  0  0  0  0  0  0  0
    6.7210  -13.8676   27.9081 C   0  0  0  0  0  0  0  0  0  0  0  0
    6.8826  -14.6562   26.7936 C   0  0  0  0  0  0  0  0  0  0  0  0
    9.0674  -16.1459   25.4477 C   0  0  0  0  0  0  0  0  0  0  0  0
    8.9395  -17.4340   25.5311 O   0  0  0  0  0  0  0  0  0  0  0  0
    9.6459  -15.5624   26.5790 N   0  0  0  0  0  0  0  0  0  0  0  0
    9.4549  -14.2035   27.0329 C   0  0  0  0  0  0  0  0  0  0  0  0
   10.8929  -13.7787   27.3073 C   0  0  0  0  0  0  0  0  0  0  0  0
   11.4746  -15.0216   27.9456 C   0  0  0  0  0  0  0  0  0  0  0  0
   10.5061  -16.1571   27.5603 C   0  0  1  0  0  0  0  0  0  0  0  0
    9.7185  -16.4483   28.8172 C   0  0  0  0  0  0  0  0  0  0  0  0
   10.3559  -16.9171   29.7827 O   0  0  0  0  0  0  0  0  0  0  0  0
    8.3783  -16.2222   28.9247 O   0  0  0  0  0  0  0  0  0  0  0  0
  2  1  1  0
  3  2  2  0
  4  3  1  0
  5  4  2  0
  5 11  1  0
  6  5  1  0
  7  6  1  0
  7  8  1  6
  9 10  2  0
  9  7  1  0
 11 12  2  0
 12  2  1  0
 13  9  1  0
 14 15  1  1
 14 13  1  0
 16 15  1  0
 16 17  2  0
 18 17  1  0
 19 18  2  0
 20 21  2  0
 20 19  1  0
 21 16  1  0
 22 14  1  0
 23 22  2  0
 24 25  1  0
 24 22  1  0
 26 25  1  0
 27 28  1  0
 27 26  1  0
 28 24  1  0
 28 29  1  1
 29 31  1  0
 30 29  2  0
M  END
$$$$
