YFP.pdb
     RDKit          3D

 31 33  0  0  1  0  0  0  0  0999 V2000
    9.6655  -14.8233   14.7446 O   0  0  0  0  0  0  0  0  0  0  0  0
    9.2969  -14.4918   16.0513 C   0  0  0  0  0  0  0  0  0  0  0  0
    7.9968  -14.1747   16.3823 C   0  0  0  0  0  0  0  0  0  0  0  0
    7.6465  -13.8493   17.6762 C   0  0  0  0  0  0  0  0  0  0  0  0
    8.5824  -13.8257   18.7017 C   0  0  0  0  0  0  0  0  0  0  0  0
    8.2081  -13.4751   20.0989 C   0  0  0  0  0  0  0  0  0  0  0  0
    8.0811  -14.7676   20.8656 C   0  0  2  0  0  0  0  0  0  0  0  0
    6.9735  -15.5087   20.2709 N   0  0  0  0  0  0  0  0  0  0  0  0
    7.8583  -14.5502   22.3098 C   0  0  0  0  0  0  0  0  0  0  0  0
    6.9265  -13.8089   22.6595 O   0  0  0  0  0  0  0  0  0  0  0  0
    9.8785  -14.1453   18.3540 C   0  0  0  0  0  0  0  0  0  0  0  0
   10.2352  -14.4716   17.0623 C   0  0  0  0  0  0  0  0  0  0  0  0
    8.7048  -15.1870   23.2344 N   0  0  0  0  0  0  0  0  0  0  0  0
    8.7281  -14.8165   24.6323 C   0  0  1  0  0  0  0  0  0  0  0  0
    7.3241  -14.9494   25.2077 C   0  0  0  0  0  0  0  0  0  0  0  0
    6.8559  -13.6936   25.8275 C   0  0  0  0  0  0  0  0  0  0  0  0
    5.9331  -13.7135   26.8401 C   0  0  0  0  0  0  0  0  0  0  0  0
    5.5056  -12.4983   27.3964 C   0  0  0  0  0  0  0  0  0  0  0  0
    6.0232  -11.3065   26.9131 C   0  0  0  0  0  0  0  0  0  0  0  0
    6.9474  -11.2854   25.8994 C   0  0  0  0  0  0  0  0  0  0  0  0
    7.3577  -12.4829   25.3630 C   0  0  0  0  0  0  0  0  0  0  0  0
    9.6779  -15.6818   25.3434 C   0  0  0  0  0  0  0  0  0  0  0  0
   10.2181  -16.6719   24.7026 O   0  0  0  0  0  0  0  0  0  0  0  0
   10.0968  -15.5752   26.6731 N   0  0  0  0  0  0  0  0  0  0  0  0
    9.5108  -14.7308   27.6893 C   0  0  0  0  0  0  0  0  0  0  0  0
   10.7542  -14.0866   28.2914 C   0  0  0  0  0  0  0  0  0  0  0  0
   11.7258  -15.2465   28.3291 C   0  0  0  0  0  0  0  0  0  0  0  0
   11.1454  -16.2836   27.3477 C   0  0  1  0  0  0  0  0  0  0  0  0
   10.5490  -17.3636   28.2211 C   0  0  0  0  0  0  0  0  0  0  0  0
   11.3522  -18.0921   28.8396 O   0  0  0  0  0  0  0  0  0  0  0  0
    9.2059  -17.5597   28.3495 O   0  0  0  0  0  0  0  0  0  0  0  0
  2  1  1  0
  3  2  2  0
  4  3  1  0
  5  4  2  0
  5 11  1  0
  6  5  1  0
  7  6  1  0
  7  8  1  6
  9 10  2  0
  9  7  1  0
 11 12  2  0
 12  2  1  0
 13  9  1  0
 14 15  1  1
 14 13  1  0
 16 15  1  0
 16 17  2  0
 18 17  1  0
 19 18  2  0
 20 21  2  0
 20 19  1  0
 21 16  1  0
 22 14  1  0
 23 22  2  0
 24 25  1  0
 24 22  1  0
 26 25  1  0
 27 28  1  0
 27 26  1  0
 28 24  1  0
 28 29  1  1
 29 31  1  0
 30 29  2  0
M  END
$$$$
