YFP.pdb
     RDKit          3D

 31 33  0  0  1  0  0  0  0  0999 V2000
    9.2980  -21.5495   17.1663 O   0  0  0  0  0  0  0  0  0  0  0  0
    9.5916  -20.7035   18.2391 C   0  0  0  0  0  0  0  0  0  0  0  0
    8.6663  -20.4286   19.2234 C   0  0  0  0  0  0  0  0  0  0  0  0
    8.9692  -19.5915   20.2771 C   0  0  0  0  0  0  0  0  0  0  0  0
   10.2146  -18.9889   20.3958 C   0  0  0  0  0  0  0  0  0  0  0  0
   10.5450  -18.0852   21.5313 C   0  0  0  0  0  0  0  0  0  0  0  0
    9.8145  -16.7868   21.2966 C   0  0  2  0  0  0  0  0  0  0  0  0
   10.4921  -16.1095   20.1958 N   0  0  0  0  0  0  0  0  0  0  0  0
    9.7763  -15.9324   22.5013 C   0  0  0  0  0  0  0  0  0  0  0  0
   10.7555  -15.2102   22.7454 O   0  0  0  0  0  0  0  0  0  0  0  0
   11.1289  -19.2741   19.4031 C   0  0  0  0  0  0  0  0  0  0  0  0
   10.8323  -20.1102   18.3470 C   0  0  0  0  0  0  0  0  0  0  0  0
    8.6381  -15.9661   23.3260 N   0  0  0  0  0  0  0  0  0  0  0  0
    8.5935  -15.2780   24.5975 C   0  0  1  0  0  0  0  0  0  0  0  0
    7.1429  -15.1449   25.0426 C   0  0  0  0  0  0  0  0  0  0  0  0
    6.8195  -13.7724   25.4812 C   0  0  0  0  0  0  0  0  0  0  0  0
    7.4514  -12.6917   24.9244 C   0  0  0  0  0  0  0  0  0  0  0  0
    7.1237  -11.4040   25.3753 C   0  0  0  0  0  0  0  0  0  0  0  0
    6.1709  -11.2509   26.3707 C   0  0  0  0  0  0  0  0  0  0  0  0
    5.5374  -12.3323   26.9286 C   0  0  0  0  0  0  0  0  0  0  0  0
    5.8678  -13.5885   26.4780 C   0  0  0  0  0  0  0  0  0  0  0  0
    9.3838  -16.0310   25.5798 C   0  0  0  0  0  0  0  0  0  0  0  0
    9.8302  -17.2039   25.2522 O   0  0  0  0  0  0  0  0  0  0  0  0
    9.7359  -15.6350   26.8737 N   0  0  0  0  0  0  0  0  0  0  0  0
    9.1510  -14.5468   27.6241 C   0  0  0  0  0  0  0  0  0  0  0  0
   10.3987  -13.8415   28.1431 C   0  0  0  0  0  0  0  0  0  0  0  0
   11.2904  -15.0067   28.5148 C   0  0  0  0  0  0  0  0  0  0  0  0
   10.6987  -16.2157   27.7639 C   0  0  1  0  0  0  0  0  0  0  0  0
    9.9876  -17.0284   28.8216 C   0  0  0  0  0  0  0  0  0  0  0  0
    8.7405  -16.9735   28.8271 O   0  0  0  0  0  0  0  0  0  0  0  0
   10.6447  -17.7937   29.7389 O   0  0  0  0  0  0  0  0  0  0  0  0
  2  1  1  0
  3  2  2  0
  4  3  1  0
  5  4  2  0
  5 11  1  0
  6  5  1  0
  7  6  1  0
  7  8  1  6
  9 10  2  0
  9  7  1  0
 11 12  2  0
 12  2  1  0
 13  9  1  0
 14 15  1  1
 14 13  1  0
 16 15  1  0
 16 17  2  0
 18 17  1  0
 19 18  2  0
 20 21  2  0
 20 19  1  0
 21 16  1  0
 22 14  1  0
 23 22  2  0
 24 25  1  0
 24 22  1  0
 26 25  1  0
 27 28  1  0
 27 26  1  0
 28 24  1  0
 28 29  1  1
 29 31  1  0
 30 29  2  0
M  END
$$$$
