YFP.pdb
     RDKit          3D

 31 33  0  0  1  0  0  0  0  0999 V2000
    7.5672  -22.3584   17.1768 O   0  0  0  0  0  0  0  0  0  0  0  0
    8.0823  -21.5439   18.1890 C   0  0  0  0  0  0  0  0  0  0  0  0
    9.3271  -20.9598   18.0901 C   0  0  0  0  0  0  0  0  0  0  0  0
    9.8236  -20.1579   19.0967 C   0  0  0  0  0  0  0  0  0  0  0  0
    9.0965  -19.9021   20.2518 C   0  0  0  0  0  0  0  0  0  0  0  0
    9.6289  -19.0374   21.3399 C   0  0  0  0  0  0  0  0  0  0  0  0
    9.4862  -17.6068   20.8844 C   0  0  2  0  0  0  0  0  0  0  0  0
   10.4690  -17.3964   19.8263 N   0  0  0  0  0  0  0  0  0  0  0  0
    9.6776  -16.6400   21.9851 C   0  0  0  0  0  0  0  0  0  0  0  0
   10.8353  -16.3174   22.2943 O   0  0  0  0  0  0  0  0  0  0  0  0
    7.8532  -20.4938   20.3351 C   0  0  0  0  0  0  0  0  0  0  0  0
    7.3511  -21.2966   19.3323 C   0  0  0  0  0  0  0  0  0  0  0  0
    8.5478  -16.1208   22.6415 N   0  0  0  0  0  0  0  0  0  0  0  0
    8.6630  -15.2081   23.7575 C   0  0  1  0  0  0  0  0  0  0  0  0
    7.3888  -14.3797   23.8589 C   0  0  0  0  0  0  0  0  0  0  0  0
    7.4188  -13.4515   25.0069 C   0  0  0  0  0  0  0  0  0  0  0  0
    8.0044  -12.2177   24.8954 C   0  0  0  0  0  0  0  0  0  0  0  0
    8.0216  -11.3682   26.0120 C   0  0  0  0  0  0  0  0  0  0  0  0
    7.4480  -11.7916   27.2010 C   0  0  0  0  0  0  0  0  0  0  0  0
    6.8612  -13.0265   27.3137 C   0  0  0  0  0  0  0  0  0  0  0  0
    6.8512  -13.8492   26.2122 C   0  0  0  0  0  0  0  0  0  0  0  0
    8.8956  -15.9779   24.9864 C   0  0  0  0  0  0  0  0  0  0  0  0
    8.2561  -17.0942   25.1519 O   0  0  0  0  0  0  0  0  0  0  0  0
    9.7513  -15.6560   26.0442 N   0  0  0  0  0  0  0  0  0  0  0  0
   10.2804  -14.3457   26.3480 C   0  0  0  0  0  0  0  0  0  0  0  0
   11.7545  -14.6657   26.5671 C   0  0  0  0  0  0  0  0  0  0  0  0
   11.6858  -15.9686   27.3342 C   0  0  0  0  0  0  0  0  0  0  0  0
   10.2634  -16.5052   27.0801 C   0  0  1  0  0  0  0  0  0  0  0  0
    9.5095  -16.2506   28.3653 C   0  0  0  0  0  0  0  0  0  0  0  0
    9.6133  -15.1092   28.8598 O   0  0  0  0  0  0  0  0  0  0  0  0
    8.7454  -17.1978   28.9800 O   0  0  0  0  0  0  0  0  0  0  0  0
  2  1  1  0
  3  2  2  0
  4  3  1  0
  5  4  2  0
  5 11  1  0
  6  5  1  0
  7  6  1  0
  7  8  1  6
  9 10  2  0
  9  7  1  0
 11 12  2  0
 12  2  1  0
 13  9  1  0
 14 15  1  1
 14 13  1  0
 16 15  1  0
 16 17  2  0
 18 17  1  0
 19 18  2  0
 20 21  2  0
 20 19  1  0
 21 16  1  0
 22 14  1  0
 23 22  2  0
 24 25  1  0
 24 22  1  0
 26 25  1  0
 27 28  1  0
 27 26  1  0
 28 24  1  0
 28 29  1  1
 29 31  1  0
 30 29  2  0
M  END
$$$$
