YFP.pdb
     RDKit          3D

 31 33  0  0  1  0  0  0  0  0999 V2000
    5.7599  -20.0550   15.7418 O   0  0  0  0  0  0  0  0  0  0  0  0
    6.4743  -19.6364   16.8676 C   0  0  0  0  0  0  0  0  0  0  0  0
    7.6944  -19.0035   16.7613 C   0  0  0  0  0  0  0  0  0  0  0  0
    8.3892  -18.5954   17.8809 C   0  0  0  0  0  0  0  0  0  0  0  0
    7.8948  -18.8018   19.1621 C   0  0  0  0  0  0  0  0  0  0  0  0
    8.6417  -18.3628   20.3724 C   0  0  0  0  0  0  0  0  0  0  0  0
    9.0801  -16.9394   20.1354 C   0  0  2  0  0  0  0  0  0  0  0  0
   10.2784  -16.9953   19.3044 N   0  0  0  0  0  0  0  0  0  0  0  0
    9.3414  -16.2101   21.3935 C   0  0  0  0  0  0  0  0  0  0  0  0
   10.4903  -16.2316   21.8619 O   0  0  0  0  0  0  0  0  0  0  0  0
    6.6732  -19.4362   19.2512 C   0  0  0  0  0  0  0  0  0  0  0  0
    5.9736  -19.8466   18.1357 C   0  0  0  0  0  0  0  0  0  0  0  0
    8.2853  -15.5201   22.0142 N   0  0  0  0  0  0  0  0  0  0  0  0
    8.4574  -14.8298   23.2735 C   0  0  1  0  0  0  0  0  0  0  0  0
    7.2720  -13.9003   23.4996 C   0  0  0  0  0  0  0  0  0  0  0  0
    7.3354  -13.2275   24.8125 C   0  0  0  0  0  0  0  0  0  0  0  0
    8.0293  -12.0561   24.9668 C   0  0  0  0  0  0  0  0  0  0  0  0
    8.0744  -11.4526   26.2327 C   0  0  0  0  0  0  0  0  0  0  0  0
    7.4187  -12.0503   27.2980 C   0  0  0  0  0  0  0  0  0  0  0  0
    6.7234  -13.2230   27.1445 C   0  0  0  0  0  0  0  0  0  0  0  0
    6.6872  -13.8041   25.8990 C   0  0  0  0  0  0  0  0  0  0  0  0
    8.5703  -15.8191   24.3529 C   0  0  0  0  0  0  0  0  0  0  0  0
    7.7117  -16.7903   24.3994 O   0  0  0  0  0  0  0  0  0  0  0  0
    9.5204  -15.8569   25.3780 N   0  0  0  0  0  0  0  0  0  0  0  0
   10.3566  -14.7600   25.8099 C   0  0  0  0  0  0  0  0  0  0  0  0
   11.7208  -15.4368   25.8768 C   0  0  0  0  0  0  0  0  0  0  0  0
   11.3770  -16.7857   26.4709 C   0  0  0  0  0  0  0  0  0  0  0  0
    9.8589  -16.9405   26.2542 C   0  0  1  0  0  0  0  0  0  0  0  0
    9.2398  -16.7075   27.6134 C   0  0  0  0  0  0  0  0  0  0  0  0
    9.3139  -17.6469   28.4320 O   0  0  0  0  0  0  0  0  0  0  0  0
    8.6238  -15.5418   27.9606 O   0  0  0  0  0  0  0  0  0  0  0  0
  2  1  1  0
  3  2  2  0
  4  3  1  0
  5  4  2  0
  5 11  1  0
  6  5  1  0
  7  6  1  0
  7  8  1  6
  9 10  2  0
  9  7  1  0
 11 12  2  0
 12  2  1  0
 13  9  1  0
 14 15  1  1
 14 13  1  0
 16 15  1  0
 16 17  2  0
 18 17  1  0
 19 18  2  0
 20 21  2  0
 20 19  1  0
 21 16  1  0
 22 14  1  0
 23 22  2  0
 24 25  1  0
 24 22  1  0
 26 25  1  0
 27 28  1  0
 27 26  1  0
 28 24  1  0
 28 29  1  1
 29 31  1  0
 30 29  2  0
M  END
$$$$
