SMW.pdb
     RDKit          3D

 29 30  0  0  1  0  0  0  0  0999 V2000
   10.2558  -18.9320   21.0320 O   0  0  0  0  0  0  0  0  0  0  0  0
    8.9024  -19.1802   20.8805 C   0  0  0  0  0  0  0  0  0  0  0  0
    8.2956  -18.0824   20.0541 C   0  0  2  0  0  0  0  0  0  0  0  0
    8.9651  -18.0336   18.7463 N   0  0  0  0  0  0  0  0  0  0  0  0
    8.5084  -16.7870   20.7228 C   0  0  0  0  0  0  0  0  0  0  0  0
    9.4216  -16.0217   20.2651 O   0  0  0  0  0  0  0  0  0  0  0  0
    7.7161  -11.4246   26.2313 C   0  0  0  0  0  0  0  0  0  0  0  0
    7.2399  -13.0463   25.5999 S   0  0  0  0  0  0  0  0  0  0  0  0
    7.4479  -13.1334   23.8151 C   0  0  0  0  0  0  0  0  0  0  0  0
    7.0252  -14.4920   23.2812 C   0  0  0  0  0  0  0  0  0  0  0  0
    8.1663  -15.0622   22.4453 C   0  0  2  0  0  0  0  0  0  0  0  0
    7.7794  -16.3151   21.8387 N   0  0  0  0  0  0  0  0  0  0  0  0
    9.3570  -15.2214   23.3263 C   0  0  0  0  0  0  0  0  0  0  0  0
    9.7879  -14.1842   23.9059 O   0  0  0  0  0  0  0  0  0  0  0  0
    9.9813  -16.4825   23.5077 N   0  0  0  0  0  0  0  0  0  0  0  0
   11.1548  -16.5320   24.3787 C   0  0  1  0  0  0  0  0  0  0  0  0
   10.9054  -17.3871   25.5617 C   0  0  0  0  0  0  0  0  0  0  0  0
    9.7773  -16.9271   26.3785 C   0  0  0  0  0  0  0  0  0  0  0  0
    8.4551  -17.3927   26.3356 C   0  0  0  0  0  0  0  0  0  0  0  0
    7.7106  -16.6973   27.1990 N   0  0  0  0  0  0  0  0  0  0  0  0
    8.4540  -15.7799   27.8321 C   0  0  0  0  0  0  0  0  0  0  0  0
    8.1278  -14.8471   28.8203 C   0  0  0  0  0  0  0  0  0  0  0  0
    9.1536  -14.0555   29.2836 C   0  0  0  0  0  0  0  0  0  0  0  0
   10.4409  -14.1641   28.8088 C   0  0  0  0  0  0  0  0  0  0  0  0
   10.7296  -15.0860   27.8404 C   0  0  0  0  0  0  0  0  0  0  0  0
    9.7415  -15.9134   27.3306 C   0  0  0  0  0  0  0  0  0  0  0  0
   12.3046  -16.9427   23.5828 C   0  0  0  0  0  0  0  0  0  0  0  0
   12.1285  -17.3001   22.3632 O   0  0  0  0  0  0  0  0  0  0  0  0
   13.6258  -16.9694   24.0633 O   0  0  0  0  0  0  0  0  0  0  0  0
  1  2  1  0
  3  2  1  0
  3  5  1  0
  3  4  1  6
  5  6  2  0
  8  7  1  0
  9 10  1  0
  9  8  1  0
 11 10  1  1
 12  5  1  0
 12 11  1  0
 13 11  1  0
 13 14  2  0
 15 13  1  0
 16 15  1  0
 16 27  1  0
 16 17  1  1
 18 17  1  0
 19 18  2  0
 20 21  1  0
 20 19  1  0
 21 26  2  0
 22 23  2  0
 22 21  1  0
 23 24  1  0
 24 25  2  0
 26 18  1  0
 26 25  1  0
 27 28  2  0
 27 29  1  0
M  END
$$$$
