SMW.pdb
     RDKit          3D

 29 30  0  0  1  0  0  0  0  0999 V2000
    7.4594  -19.6640   23.5378 O   0  0  0  0  0  0  0  0  0  0  0  0
    7.5045  -20.5809   22.5016 C   0  0  0  0  0  0  0  0  0  0  0  0
    7.1098  -19.8935   21.2257 C   0  0  2  0  0  0  0  0  0  0  0  0
    7.3890  -20.7832   20.0893 N   0  0  0  0  0  0  0  0  0  0  0  0
    7.9145  -18.6712   21.0551 C   0  0  0  0  0  0  0  0  0  0  0  0
    9.0630  -18.7838   20.5096 O   0  0  0  0  0  0  0  0  0  0  0  0
    7.2180  -11.5513   21.6494 C   0  0  0  0  0  0  0  0  0  0  0  0
    7.7310  -12.3686   20.1250 S   0  0  0  0  0  0  0  0  0  0  0  0
    8.5943  -13.9079   20.4739 C   0  0  0  0  0  0  0  0  0  0  0  0
    7.6271  -14.9834   20.9402 C   0  0  0  0  0  0  0  0  0  0  0  0
    8.4128  -16.2649   21.1981 C   0  0  2  0  0  0  0  0  0  0  0  0
    7.5184  -17.3718   21.4474 N   0  0  0  0  0  0  0  0  0  0  0  0
    9.3296  -16.0279   22.3480 C   0  0  0  0  0  0  0  0  0  0  0  0
   10.2194  -15.1421   22.2027 O   0  0  0  0  0  0  0  0  0  0  0  0
    9.2101  -16.7641   23.5550 N   0  0  0  0  0  0  0  0  0  0  0  0
   10.1387  -16.4370   24.6362 C   0  0  1  0  0  0  0  0  0  0  0  0
    9.4354  -16.3545   25.9368 C   0  0  0  0  0  0  0  0  0  0  0  0
    8.1853  -15.5904   25.8692 C   0  0  0  0  0  0  0  0  0  0  0  0
    6.9001  -16.0898   25.6126 C   0  0  0  0  0  0  0  0  0  0  0  0
    6.0271  -15.0796   25.5884 N   0  0  0  0  0  0  0  0  0  0  0  0
    6.6470  -13.9138   25.8162 C   0  0  0  0  0  0  0  0  0  0  0  0
    6.1571  -12.6080   25.9051 C   0  0  0  0  0  0  0  0  0  0  0  0
    7.0764  -11.6221   26.1813 C   0  0  0  0  0  0  0  0  0  0  0  0
    8.4139  -11.8912   26.3636 C   0  0  0  0  0  0  0  0  0  0  0  0
    8.8640  -13.1794   26.2695 C   0  0  0  0  0  0  0  0  0  0  0  0
    7.9898  -14.2186   25.9928 C   0  0  0  0  0  0  0  0  0  0  0  0
   11.2321  -17.4004   24.6140 C   0  0  0  0  0  0  0  0  0  0  0  0
   11.1440  -18.4328   23.8574 O   0  0  0  0  0  0  0  0  0  0  0  0
   12.4083  -17.2741   25.3742 O   0  0  0  0  0  0  0  0  0  0  0  0
  1  2  1  0
  3  2  1  0
  3  5  1  0
  3  4  1  6
  5  6  2  0
  8  7  1  0
  9 10  1  0
  9  8  1  0
 11 10  1  1
 12  5  1  0
 12 11  1  0
 13 11  1  0
 13 14  2  0
 15 13  1  0
 16 15  1  0
 16 27  1  0
 16 17  1  1
 18 17  1  0
 19 18  2  0
 20 21  1  0
 20 19  1  0
 21 26  2  0
 22 23  2  0
 22 21  1  0
 23 24  1  0
 24 25  2  0
 26 18  1  0
 26 25  1  0
 27 28  2  0
 27 29  1  0
M  END
$$$$
