SMW.pdb
     RDKit          3D

 29 30  0  0  1  0  0  0  0  0999 V2000
    9.5476  -18.6614   21.1805 O   0  0  0  0  0  0  0  0  0  0  0  0
    8.2359  -18.8755   20.7931 C   0  0  0  0  0  0  0  0  0  0  0  0
    7.7009  -17.6178   20.1701 C   0  0  2  0  0  0  0  0  0  0  0  0
    8.2624  -17.4689   18.8197 N   0  0  0  0  0  0  0  0  0  0  0  0
    8.1226  -16.4540   20.9690 C   0  0  0  0  0  0  0  0  0  0  0  0
    9.0638  -15.7240   20.5100 O   0  0  0  0  0  0  0  0  0  0  0  0
    7.3376  -12.4864   27.4185 C   0  0  0  0  0  0  0  0  0  0  0  0
    6.4481  -12.5574   25.8505 S   0  0  0  0  0  0  0  0  0  0  0  0
    7.5267  -13.1020   24.5177 C   0  0  0  0  0  0  0  0  0  0  0  0
    6.9931  -14.3663   23.8647 C   0  0  0  0  0  0  0  0  0  0  0  0
    7.9999  -14.8356   22.8196 C   0  0  2  0  0  0  0  0  0  0  0  0
    7.5674  -16.0732   22.2125 N   0  0  0  0  0  0  0  0  0  0  0  0
    9.3268  -14.9808   23.4809 C   0  0  0  0  0  0  0  0  0  0  0  0
    9.7724  -13.9767   24.1059 O   0  0  0  0  0  0  0  0  0  0  0  0
   10.0600  -16.1937   23.4127 N   0  0  0  0  0  0  0  0  0  0  0  0
   10.5933  -16.7276   24.6651 C   0  0  1  0  0  0  0  0  0  0  0  0
    9.5129  -16.9501   25.6532 C   0  0  0  0  0  0  0  0  0  0  0  0
    9.9648  -16.8161   27.0421 C   0  0  0  0  0  0  0  0  0  0  0  0
   10.3385  -17.8484   27.9147 C   0  0  0  0  0  0  0  0  0  0  0  0
   10.6464  -17.3330   29.1075 N   0  0  0  0  0  0  0  0  0  0  0  0
   10.5041  -16.0008   29.0975 C   0  0  0  0  0  0  0  0  0  0  0  0
   10.7245  -15.0399   30.0880 C   0  0  0  0  0  0  0  0  0  0  0  0
   10.5026  -13.7285   29.7352 C   0  0  0  0  0  0  0  0  0  0  0  0
   10.0848  -13.3646   28.4752 C   0  0  0  0  0  0  0  0  0  0  0  0
    9.8764  -14.3279   27.5267 C   0  0  0  0  0  0  0  0  0  0  0  0
   10.0810  -15.6673   27.8181 C   0  0  0  0  0  0  0  0  0  0  0  0
   11.3753  -17.9201   24.3638 C   0  0  0  0  0  0  0  0  0  0  0  0
   11.0215  -18.6726   23.3868 O   0  0  0  0  0  0  0  0  0  0  0  0
   12.5213  -18.3115   25.0784 O   0  0  0  0  0  0  0  0  0  0  0  0
  1  2  1  0
  3  2  1  0
  3  5  1  0
  3  4  1  6
  5  6  2  0
  8  7  1  0
  9 10  1  0
  9  8  1  0
 11 10  1  1
 12  5  1  0
 12 11  1  0
 13 11  1  0
 13 14  2  0
 15 13  1  0
 16 15  1  0
 16 27  1  0
 16 17  1  1
 18 17  1  0
 19 18  2  0
 20 21  1  0
 20 19  1  0
 21 26  2  0
 22 23  2  0
 22 21  1  0
 23 24  1  0
 24 25  2  0
 26 18  1  0
 26 25  1  0
 27 28  2  0
 27 29  1  0
M  END
$$$$
