SMW.pdb
     RDKit          3D

 29 30  0  0  1  0  0  0  0  0999 V2000
    8.3432  -19.8095   22.8520 O   0  0  0  0  0  0  0  0  0  0  0  0
    7.2834  -20.1016   22.0108 C   0  0  0  0  0  0  0  0  0  0  0  0
    7.5564  -19.5062   20.6591 C   0  0  2  0  0  0  0  0  0  0  0  0
    8.3325  -20.4621   19.8560 N   0  0  0  0  0  0  0  0  0  0  0  0
    8.3617  -18.2821   20.8132 C   0  0  0  0  0  0  0  0  0  0  0  0
    9.5662  -18.3028   20.3914 O   0  0  0  0  0  0  0  0  0  0  0  0
    7.1689  -11.9047   19.1745 C   0  0  0  0  0  0  0  0  0  0  0  0
    7.9590  -11.9248   20.7964 S   0  0  0  0  0  0  0  0  0  0  0  0
    8.8702  -13.4543   21.0543 C   0  0  0  0  0  0  0  0  0  0  0  0
    7.9313  -14.6483   21.1031 C   0  0  0  0  0  0  0  0  0  0  0  0
    8.7594  -15.9087   21.3306 C   0  0  2  0  0  0  0  0  0  0  0  0
    7.9089  -17.0749   21.3937 N   0  0  0  0  0  0  0  0  0  0  0  0
    9.5454  -15.7319   22.5836 C   0  0  0  0  0  0  0  0  0  0  0  0
   10.3516  -14.7594   22.6260 O   0  0  0  0  0  0  0  0  0  0  0  0
    9.3963  -16.6164   23.6830 N   0  0  0  0  0  0  0  0  0  0  0  0
   10.1370  -16.3016   24.9038 C   0  0  1  0  0  0  0  0  0  0  0  0
    9.2648  -16.3969   26.0967 C   0  0  0  0  0  0  0  0  0  0  0  0
    8.0208  -15.6313   25.9644 C   0  0  0  0  0  0  0  0  0  0  0  0
    6.7387  -16.1365   25.7039 C   0  0  0  0  0  0  0  0  0  0  0  0
    5.8722  -15.1247   25.6114 N   0  0  0  0  0  0  0  0  0  0  0  0
    6.4936  -13.9521   25.7960 C   0  0  0  0  0  0  0  0  0  0  0  0
    6.0094  -12.6413   25.8105 C   0  0  0  0  0  0  0  0  0  0  0  0
    6.9280  -11.6473   26.0588 C   0  0  0  0  0  0  0  0  0  0  0  0
    8.2595  -11.9134   26.2835 C   0  0  0  0  0  0  0  0  0  0  0  0
    8.7043  -13.2068   26.2621 C   0  0  0  0  0  0  0  0  0  0  0  0
    7.8304  -14.2542   26.0168 C   0  0  0  0  0  0  0  0  0  0  0  0
   11.3164  -17.1559   24.9625 C   0  0  0  0  0  0  0  0  0  0  0  0
   11.4622  -18.0857   24.0905 O   0  0  0  0  0  0  0  0  0  0  0  0
   12.3345  -17.0277   25.9239 O   0  0  0  0  0  0  0  0  0  0  0  0
  1  2  1  0
  3  2  1  0
  3  5  1  0
  3  4  1  6
  5  6  2  0
  8  7  1  0
  9 10  1  0
  9  8  1  0
 11 10  1  1
 12  5  1  0
 12 11  1  0
 13 11  1  0
 13 14  2  0
 15 13  1  0
 16 15  1  0
 16 27  1  0
 16 17  1  1
 18 17  1  0
 19 18  2  0
 20 21  1  0
 20 19  1  0
 21 26  2  0
 22 23  2  0
 22 21  1  0
 23 24  1  0
 24 25  2  0
 26 18  1  0
 26 25  1  0
 27 28  2  0
 27 29  1  0
M  END
$$$$
