SMW.pdb
     RDKit          3D

 29 30  0  0  1  0  0  0  0  0999 V2000
    7.4792  -16.4388   20.8143 O   0  0  0  0  0  0  0  0  0  0  0  0
    8.3563  -15.4974   20.3037 C   0  0  0  0  0  0  0  0  0  0  0  0
    9.6855  -16.1528   20.0587 C   0  0  2  0  0  0  0  0  0  0  0  0
    9.4970  -17.3187   19.1834 N   0  0  0  0  0  0  0  0  0  0  0  0
   10.2434  -16.6286   21.3365 C   0  0  0  0  0  0  0  0  0  0  0  0
    9.9274  -17.8024   21.7258 O   0  0  0  0  0  0  0  0  0  0  0  0
   16.7235  -15.7754   21.7252 C   0  0  0  0  0  0  0  0  0  0  0  0
   15.5482  -15.4792   23.0615 S   0  0  0  0  0  0  0  0  0  0  0  0
   13.9409  -16.1920   22.6807 C   0  0  0  0  0  0  0  0  0  0  0  0
   12.9418  -15.9118   23.7911 C   0  0  0  0  0  0  0  0  0  0  0  0
   11.5929  -16.5006   23.3911 C   0  0  2  0  0  0  0  0  0  0  0  0
   11.1079  -15.8884   22.1757 N   0  0  0  0  0  0  0  0  0  0  0  0
   10.6438  -16.3059   24.5226 C   0  0  0  0  0  0  0  0  0  0  0  0
    9.8373  -15.3364   24.4381 O   0  0  0  0  0  0  0  0  0  0  0  0
   10.6441  -17.1708   25.6473 N   0  0  0  0  0  0  0  0  0  0  0  0
    9.7128  -16.8631   26.7318 C   0  0  1  0  0  0  0  0  0  0  0  0
    8.3226  -17.2073   26.3550 C   0  0  0  0  0  0  0  0  0  0  0  0
    7.5348  -16.0446   25.9325 C   0  0  0  0  0  0  0  0  0  0  0  0
    6.5041  -16.0199   24.9817 C   0  0  0  0  0  0  0  0  0  0  0  0
    6.0603  -14.7685   24.8393 N   0  0  0  0  0  0  0  0  0  0  0  0
    6.7326  -13.9342   25.6438 C   0  0  0  0  0  0  0  0  0  0  0  0
    6.6132  -12.5582   25.8566 C   0  0  0  0  0  0  0  0  0  0  0  0
    7.4579  -12.0031   26.7903 C   0  0  0  0  0  0  0  0  0  0  0  0
    8.3790  -12.7508   27.4880 C   0  0  0  0  0  0  0  0  0  0  0  0
    8.4733  -14.0958   27.2574 C   0  0  0  0  0  0  0  0  0  0  0  0
    7.6522  -14.7163   26.3292 C   0  0  0  0  0  0  0  0  0  0  0  0
   10.1792  -17.5248   27.9438 C   0  0  0  0  0  0  0  0  0  0  0  0
   11.1799  -18.3249   27.8769 O   0  0  0  0  0  0  0  0  0  0  0  0
    9.6031  -17.3401   29.2132 O   0  0  0  0  0  0  0  0  0  0  0  0
  1  2  1  0
  3  2  1  0
  3  5  1  0
  3  4  1  6
  5  6  2  0
  8  7  1  0
  9 10  1  0
  9  8  1  0
 11 10  1  1
 12  5  1  0
 12 11  1  0
 13 11  1  0
 13 14  2  0
 15 13  1  0
 16 15  1  0
 16 27  1  0
 16 17  1  6
 18 17  1  0
 19 18  2  0
 20 21  1  0
 20 19  1  0
 21 26  2  0
 22 23  2  0
 22 21  1  0
 23 24  1  0
 24 25  2  0
 26 18  1  0
 26 25  1  0
 27 28  2  0
 27 29  1  0
M  END
$$$$
