SMW.pdb
     RDKit          3D

 29 30  0  0  1  0  0  0  0  0999 V2000
   10.1763  -14.1335   18.9052 O   0  0  0  0  0  0  0  0  0  0  0  0
    9.0599  -13.3246   18.7805 C   0  0  0  0  0  0  0  0  0  0  0  0
    7.8476  -14.1927   18.5989 C   0  0  2  0  0  0  0  0  0  0  0  0
    6.6770  -13.3423   18.3388 N   0  0  0  0  0  0  0  0  0  0  0  0
    7.5938  -14.9501   19.8368 C   0  0  0  0  0  0  0  0  0  0  0  0
    7.1960  -14.3022   20.8622 O   0  0  0  0  0  0  0  0  0  0  0  0
    6.6383  -21.5478   24.0614 C   0  0  0  0  0  0  0  0  0  0  0  0
    6.9427  -20.8453   22.4277 S   0  0  0  0  0  0  0  0  0  0  0  0
    7.0780  -19.0533   22.5079 C   0  0  0  0  0  0  0  0  0  0  0  0
    7.2881  -18.4586   21.1251 C   0  0  0  0  0  0  0  0  0  0  0  0
    7.4594  -16.9497   21.2659 C   0  0  2  0  0  0  0  0  0  0  0  0
    7.7544  -16.3469   19.9865 N   0  0  0  0  0  0  0  0  0  0  0  0
    8.5402  -16.6924   22.2583 C   0  0  0  0  0  0  0  0  0  0  0  0
    9.7277  -16.6761   21.8259 O   0  0  0  0  0  0  0  0  0  0  0  0
    8.2503  -16.4748   23.6300 N   0  0  0  0  0  0  0  0  0  0  0  0
    9.3613  -16.0874   24.4982 C   0  0  1  0  0  0  0  0  0  0  0  0
    9.2706  -14.6581   24.8750 C   0  0  0  0  0  0  0  0  0  0  0  0
    7.9629  -14.2889   25.4271 C   0  0  0  0  0  0  0  0  0  0  0  0
    6.8600  -15.1314   25.6284 C   0  0  0  0  0  0  0  0  0  0  0  0
    5.8375  -14.4187   26.1078 N   0  0  0  0  0  0  0  0  0  0  0  0
    6.1827  -13.1315   26.2464 C   0  0  0  0  0  0  0  0  0  0  0  0
    5.4679  -12.0285   26.7213 C   0  0  0  0  0  0  0  0  0  0  0  0
    6.1391  -10.8279   26.7574 C   0  0  0  0  0  0  0  0  0  0  0  0
    7.4479  -10.7024   26.3504 C   0  0  0  0  0  0  0  0  0  0  0  0
    8.1215  -11.7999   25.8892 C   0  0  0  0  0  0  0  0  0  0  0  0
    7.5026  -13.0384   25.8266 C   0  0  0  0  0  0  0  0  0  0  0  0
    9.3993  -16.9985   25.6352 C   0  0  0  0  0  0  0  0  0  0  0  0
    8.4631  -17.8641   25.7776 O   0  0  0  0  0  0  0  0  0  0  0  0
   10.4156  -17.0031   26.6069 O   0  0  0  0  0  0  0  0  0  0  0  0
  1  2  1  0
  3  2  1  0
  3  5  1  0
  3  4  1  1
  5  6  2  0
  8  7  1  0
  9 10  1  0
  9  8  1  0
 11 10  1  6
 12  5  1  0
 12 11  1  0
 13 11  1  0
 13 14  2  0
 15 13  1  0
 16 15  1  0
 16 27  1  0
 16 17  1  1
 18 17  1  0
 19 18  2  0
 20 21  1  0
 20 19  1  0
 21 26  2  0
 22 23  2  0
 22 21  1  0
 23 24  1  0
 24 25  2  0
 26 18  1  0
 26 25  1  0
 27 28  2  0
 27 29  1  0
M  END
$$$$
