SMW.pdb
     RDKit          3D

 29 30  0  0  1  0  0  0  0  0999 V2000
    8.7635  -20.1172   22.3558 O   0  0  0  0  0  0  0  0  0  0  0  0
    8.8196  -20.3720   20.9963 C   0  0  0  0  0  0  0  0  0  0  0  0
    8.2932  -19.1765   20.2548 C   0  0  2  0  0  0  0  0  0  0  0  0
    8.4391  -19.3997   18.8092 N   0  0  0  0  0  0  0  0  0  0  0  0
    9.0842  -17.9865   20.6136 C   0  0  0  0  0  0  0  0  0  0  0  0
   10.2500  -17.8695   20.1072 O   0  0  0  0  0  0  0  0  0  0  0  0
    8.0968  -11.8775   19.6894 C   0  0  0  0  0  0  0  0  0  0  0  0
    6.9000  -13.1298   20.1936 S   0  0  0  0  0  0  0  0  0  0  0  0
    7.7113  -14.6956   20.5492 C   0  0  0  0  0  0  0  0  0  0  0  0
    8.8216  -14.5161   21.5713 C   0  0  0  0  0  0  0  0  0  0  0  0
    9.5492  -15.8463   21.7371 C   0  0  2  0  0  0  0  0  0  0  0  0
    8.6570  -16.9529   21.4788 N   0  0  0  0  0  0  0  0  0  0  0  0
   10.1120  -15.9028   23.1152 C   0  0  0  0  0  0  0  0  0  0  0  0
   11.1352  -15.1986   23.3492 O   0  0  0  0  0  0  0  0  0  0  0  0
    9.5257  -16.7118   24.1226 N   0  0  0  0  0  0  0  0  0  0  0  0
   10.1548  -16.7023   25.4425 C   0  0  1  0  0  0  0  0  0  0  0  0
    9.8213  -15.4643   26.1836 C   0  0  0  0  0  0  0  0  0  0  0  0
    8.4024  -15.1037   26.0953 C   0  0  0  0  0  0  0  0  0  0  0  0
    7.3274  -15.9578   25.8094 C   0  0  0  0  0  0  0  0  0  0  0  0
    6.1950  -15.2510   25.7738 N   0  0  0  0  0  0  0  0  0  0  0  0
    6.4378  -13.9569   26.0215 C   0  0  0  0  0  0  0  0  0  0  0  0
    5.5817  -12.8557   26.1086 C   0  0  0  0  0  0  0  0  0  0  0  0
    6.1628  -11.6453   26.4097 C   0  0  0  0  0  0  0  0  0  0  0  0
    7.5165  -11.5087   26.6176 C   0  0  0  0  0  0  0  0  0  0  0  0
    8.3295  -12.6048   26.5245 C   0  0  0  0  0  0  0  0  0  0  0  0
    7.8072  -13.8528   26.2235 C   0  0  0  0  0  0  0  0  0  0  0  0
    9.7855  -17.9278   26.1397 C   0  0  0  0  0  0  0  0  0  0  0  0
   10.2711  -18.1579   27.3048 O   0  0  0  0  0  0  0  0  0  0  0  0
    8.9090  -18.8963   25.6192 O   0  0  0  0  0  0  0  0  0  0  0  0
  1  2  1  0
  3  2  1  0
  3  5  1  0
  3  4  1  6
  5  6  2  0
  8  7  1  0
  9 10  1  0
  9  8  1  0
 11 10  1  1
 12  5  1  0
 12 11  1  0
 13 11  1  0
 13 14  2  0
 15 13  1  0
 16 15  1  0
 16 27  1  0
 16 17  1  1
 18 17  1  0
 19 18  2  0
 20 21  1  0
 20 19  1  0
 21 26  2  0
 22 23  2  0
 22 21  1  0
 23 24  1  0
 24 25  2  0
 26 18  1  0
 26 25  1  0
 27 28  2  0
 27 29  1  0
M  END
$$$$
