SYV.pdb
     RDKit          3D

 26 26  0  0  1  0  0  0  0  0999 V2000
    8.7092  -19.2327   18.4544 O   0  0  0  0  0  0  0  0  0  0  0  0
    9.0270  -18.6118   19.6556 C   0  0  0  0  0  0  0  0  0  0  0  0
    9.2824  -17.1447   19.3867 C   0  0  2  0  0  0  0  0  0  0  0  0
   10.4008  -16.9357   18.4941 N   0  0  0  0  0  0  0  0  0  0  0  0
    9.4820  -16.3927   20.6666 C   0  0  0  0  0  0  0  0  0  0  0  0
   10.6406  -16.1461   21.0973 O   0  0  0  0  0  0  0  0  0  0  0  0
    6.6820  -11.6730   27.8393 O   0  0  0  0  0  0  0  0  0  0  0  0
    6.8400  -12.3905   26.6444 C   0  0  0  0  0  0  0  0  0  0  0  0
    7.5808  -11.8274   25.6262 C   0  0  0  0  0  0  0  0  0  0  0  0
    7.7539  -12.5083   24.4398 C   0  0  0  0  0  0  0  0  0  0  0  0
    7.2022  -13.7675   24.2180 C   0  0  0  0  0  0  0  0  0  0  0  0
    7.3748  -14.4474   22.9474 C   0  0  0  0  0  0  0  0  0  0  0  0
    8.6111  -15.2332   22.7226 C   0  0  2  0  0  0  0  0  0  0  0  0
    8.4007  -15.9321   21.4382 N   0  0  0  0  0  0  0  0  0  0  0  0
    8.9103  -16.2366   23.7436 C   0  0  0  0  0  0  0  0  0  0  0  0
    8.1499  -17.2683   23.8000 O   0  0  0  0  0  0  0  0  0  0  0  0
    6.4707  -14.2982   25.2531 C   0  0  0  0  0  0  0  0  0  0  0  0
    6.2925  -13.6201   26.4476 C   0  0  0  0  0  0  0  0  0  0  0  0
   12.6848  -17.0985   25.3073 C   0  0  0  0  0  0  0  0  0  0  0  0
   11.4982  -17.9947   25.2665 C   0  0  2  0  0  0  0  0  0  0  0  0
   11.4350  -18.6515   23.9130 C   0  0  0  0  0  0  0  0  0  0  0  0
   10.1931  -17.2783   25.5575 C   0  0  2  0  0  0  0  0  0  0  0  0
    9.9865  -16.1603   24.6771 N   0  0  0  0  0  0  0  0  0  0  0  0
   10.1822  -16.8346   26.9626 C   0  0  0  0  0  0  0  0  0  0  0  0
   10.2633  -17.6540   27.8910 O   0  0  0  0  0  0  0  0  0  0  0  0
   10.0790  -15.4637   27.2905 O   0  0  0  0  0  0  0  0  0  0  0  0
  2  1  1  0
  3  2  1  0
  3  4  1  6
  5  3  1  0
  6  5  2  0
  7  8  1  0
  8  9  2  0
  9 10  1  0
 11 10  2  0
 11 12  1  0
 13 12  1  1
 13 14  1  0
 14  5  1  0
 15 13  1  0
 15 16  2  0
 17 11  1  0
 18 17  2  0
 18  8  1  0
 20 19  1  6
 20 21  1  0
 22 20  1  0
 22 23  1  6
 23 15  1  0
 24 22  1  0
 25 24  2  0
 26 24  1  0
M  END
$$$$
