SYV.pdb
     RDKit          3D

 26 26  0  0  1  0  0  0  0  0999 V2000
   12.5395  -18.8063   22.3187 O   0  0  0  0  0  0  0  0  0  0  0  0
   11.4336  -18.8367   21.4788 C   0  0  0  0  0  0  0  0  0  0  0  0
   11.2732  -17.4724   20.8440 C   0  0  2  0  0  0  0  0  0  0  0  0
   12.4493  -17.0671   20.1067 N   0  0  0  0  0  0  0  0  0  0  0  0
   10.9143  -16.4430   21.8711 C   0  0  0  0  0  0  0  0  0  0  0  0
   11.7114  -15.5091   22.1560 O   0  0  0  0  0  0  0  0  0  0  0  0
    5.3950  -11.3275   26.7087 O   0  0  0  0  0  0  0  0  0  0  0  0
    6.0051  -12.3111   25.9163 C   0  0  0  0  0  0  0  0  0  0  0  0
    6.8787  -11.9157   24.9248 C   0  0  0  0  0  0  0  0  0  0  0  0
    7.4939  -12.8592   24.1296 C   0  0  0  0  0  0  0  0  0  0  0  0
    7.2681  -14.2244   24.2856 C   0  0  0  0  0  0  0  0  0  0  0  0
    7.9057  -15.1934   23.4133 C   0  0  0  0  0  0  0  0  0  0  0  0
    9.3541  -15.4582   23.5817 C   0  0  2  0  0  0  0  0  0  0  0  0
    9.6874  -16.4690   22.5571 N   0  0  0  0  0  0  0  0  0  0  0  0
    9.7470  -15.9866   24.8876 C   0  0  0  0  0  0  0  0  0  0  0  0
   10.0224  -17.2375   24.9612 O   0  0  0  0  0  0  0  0  0  0  0  0
    6.3926  -14.5826   25.2823 C   0  0  0  0  0  0  0  0  0  0  0  0
    5.7709  -13.6404   26.0850 C   0  0  0  0  0  0  0  0  0  0  0  0
    9.2464  -14.2605   28.8501 C   0  0  0  0  0  0  0  0  0  0  0  0
   10.5134  -14.9127   28.4233 C   0  0  2  0  0  0  0  0  0  0  0  0
   11.5057  -13.8431   28.0504 C   0  0  0  0  0  0  0  0  0  0  0  0
   10.3329  -15.8790   27.2679 C   0  0  2  0  0  0  0  0  0  0  0  0
    9.8545  -15.2174   26.0843 N   0  0  0  0  0  0  0  0  0  0  0  0
    9.4043  -16.9509   27.6683 C   0  0  0  0  0  0  0  0  0  0  0  0
    8.2664  -17.0249   27.1790 O   0  0  0  0  0  0  0  0  0  0  0  0
    9.7852  -17.9235   28.6204 O   0  0  0  0  0  0  0  0  0  0  0  0
  2  1  1  0
  3  2  1  0
  3  4  1  1
  5  3  1  0
  6  5  2  0
  7  8  1  0
  8  9  2  0
  9 10  1  0
 11 10  2  0
 11 12  1  0
 13 12  1  1
 13 14  1  0
 14  5  1  0
 15 13  1  0
 15 16  2  0
 17 11  1  0
 18 17  2  0
 18  8  1  0
 20 19  1  6
 20 21  1  0
 22 20  1  0
 22 23  1  6
 23 15  1  0
 24 22  1  0
 25 24  2  0
 26 24  1  0
M  END
$$$$
