SYV.pdb
     RDKit          3D

 26 26  0  0  1  0  0  0  0  0999 V2000
    9.5994  -18.9468   20.7284 O   0  0  0  0  0  0  0  0  0  0  0  0
    8.6678  -18.4511   19.8253 C   0  0  0  0  0  0  0  0  0  0  0  0
    9.0102  -17.0084   19.5232 C   0  0  2  0  0  0  0  0  0  0  0  0
   10.1574  -16.8864   18.6512 N   0  0  0  0  0  0  0  0  0  0  0  0
    9.2237  -16.2329   20.7866 C   0  0  0  0  0  0  0  0  0  0  0  0
   10.3862  -15.9449   21.1795 O   0  0  0  0  0  0  0  0  0  0  0  0
    6.4963  -11.6781   28.0956 O   0  0  0  0  0  0  0  0  0  0  0  0
    6.6362  -12.3845   26.8918 C   0  0  0  0  0  0  0  0  0  0  0  0
    7.2731  -11.7708   25.8333 C   0  0  0  0  0  0  0  0  0  0  0  0
    7.4259  -12.4396   24.6374 C   0  0  0  0  0  0  0  0  0  0  0  0
    6.9557  -13.7361   24.4452 C   0  0  0  0  0  0  0  0  0  0  0  0
    7.1030  -14.4041   23.1652 C   0  0  0  0  0  0  0  0  0  0  0  0
    8.3778  -15.0984   22.8670 C   0  0  2  0  0  0  0  0  0  0  0  0
    8.1516  -15.7951   21.5840 N   0  0  0  0  0  0  0  0  0  0  0  0
    8.7976  -16.0905   23.8562 C   0  0  0  0  0  0  0  0  0  0  0  0
    8.1491  -17.1968   23.8966 O   0  0  0  0  0  0  0  0  0  0  0  0
    6.3266  -14.3169   25.5201 C   0  0  0  0  0  0  0  0  0  0  0  0
    6.1695  -13.6512   26.7245 C   0  0  0  0  0  0  0  0  0  0  0  0
   12.0444  -18.7396   26.0608 C   0  0  0  0  0  0  0  0  0  0  0  0
   11.5913  -17.6259   25.1849 C   0  0  2  0  0  0  0  0  0  0  0  0
   12.6373  -16.5427   25.2004 C   0  0  0  0  0  0  0  0  0  0  0  0
   10.2453  -17.0536   25.5875 C   0  0  2  0  0  0  0  0  0  0  0  0
    9.8766  -15.9260   24.7749 N   0  0  0  0  0  0  0  0  0  0  0  0
   10.2828  -16.6714   27.0101 C   0  0  0  0  0  0  0  0  0  0  0  0
   10.1605  -15.4859   27.3556 O   0  0  0  0  0  0  0  0  0  0  0  0
   10.4591  -17.6451   28.0192 O   0  0  0  0  0  0  0  0  0  0  0  0
  2  1  1  0
  3  2  1  0
  3  4  1  6
  5  3  1  0
  6  5  2  0
  7  8  1  0
  8  9  2  0
  9 10  1  0
 11 10  2  0
 11 12  1  0
 13 12  1  1
 13 14  1  0
 14  5  1  0
 15 13  1  0
 15 16  2  0
 17 11  1  0
 18 17  2  0
 18  8  1  0
 20 19  1  1
 20 21  1  0
 22 20  1  0
 22 23  1  6
 23 15  1  0
 24 22  1  0
 25 24  2  0
 26 24  1  0
M  END
$$$$
