SYV.pdb
     RDKit          3D

 26 26  0  0  1  0  0  0  0  0999 V2000
   11.3879  -19.1092   22.2124 O   0  0  0  0  0  0  0  0  0  0  0  0
   12.0304  -18.4286   21.1861 C   0  0  0  0  0  0  0  0  0  0  0  0
   11.1477  -17.2826   20.7415 C   0  0  2  0  0  0  0  0  0  0  0  0
   11.7127  -16.5531   19.6280 N   0  0  0  0  0  0  0  0  0  0  0  0
   10.8550  -16.3583   21.8831 C   0  0  0  0  0  0  0  0  0  0  0  0
   11.6252  -15.3970   22.1501 O   0  0  0  0  0  0  0  0  0  0  0  0
    5.3620  -11.5005   26.9345 O   0  0  0  0  0  0  0  0  0  0  0  0
    5.9861  -12.4660   26.1307 C   0  0  0  0  0  0  0  0  0  0  0  0
    6.8073  -12.0448   25.1056 C   0  0  0  0  0  0  0  0  0  0  0  0
    7.4347  -12.9699   24.2985 C   0  0  0  0  0  0  0  0  0  0  0  0
    7.2731  -14.3417   24.4754 C   0  0  0  0  0  0  0  0  0  0  0  0
    7.9213  -15.2923   23.5907 C   0  0  0  0  0  0  0  0  0  0  0  0
    9.3767  -15.5275   23.7418 C   0  0  2  0  0  0  0  0  0  0  0  0
    9.7220  -16.5168   22.7004 N   0  0  0  0  0  0  0  0  0  0  0  0
    9.7937  -16.0646   25.0366 C   0  0  0  0  0  0  0  0  0  0  0  0
   10.0434  -17.3213   25.1031 O   0  0  0  0  0  0  0  0  0  0  0  0
    6.4486  -14.7258   25.5054 C   0  0  0  0  0  0  0  0  0  0  0  0
    5.8151  -13.8021   26.3202 C   0  0  0  0  0  0  0  0  0  0  0  0
    9.4937  -14.2527   28.9930 C   0  0  0  0  0  0  0  0  0  0  0  0
   10.6896  -15.0170   28.5476 C   0  0  2  0  0  0  0  0  0  0  0  0
   11.7598  -14.0417   28.1339 C   0  0  0  0  0  0  0  0  0  0  0  0
   10.3990  -15.9811   27.4130 C   0  0  2  0  0  0  0  0  0  0  0  0
    9.9511  -15.2982   26.2296 N   0  0  0  0  0  0  0  0  0  0  0  0
    9.3915  -16.9627   27.8521 C   0  0  0  0  0  0  0  0  0  0  0  0
    8.2584  -16.9834   27.3468 O   0  0  0  0  0  0  0  0  0  0  0  0
    9.6890  -17.9070   28.8608 O   0  0  0  0  0  0  0  0  0  0  0  0
  2  1  1  0
  3  2  1  0
  3  4  1  6
  5  3  1  0
  6  5  2  0
  7  8  1  0
  8  9  2  0
  9 10  1  0
 11 10  2  0
 11 12  1  0
 13 12  1  1
 13 14  1  0
 14  5  1  0
 15 13  1  0
 15 16  2  0
 17 11  1  0
 18 17  2  0
 18  8  1  0
 20 19  1  6
 20 21  1  0
 22 20  1  0
 22 23  1  6
 23 15  1  0
 24 22  1  0
 25 24  2  0
 26 24  1  0
M  END
$$$$
