SYV.pdb
     RDKit          3D

 26 26  0  0  1  0  0  0  0  0999 V2000
    8.4242  -18.9395   20.4787 O   0  0  0  0  0  0  0  0  0  0  0  0
    8.9918  -18.3752   19.3434 C   0  0  0  0  0  0  0  0  0  0  0  0
    8.4785  -16.9588   19.2015 C   0  0  2  0  0  0  0  0  0  0  0  0
    8.9784  -16.3094   18.0100 N   0  0  0  0  0  0  0  0  0  0  0  0
    8.8016  -16.1479   20.4186 C   0  0  0  0  0  0  0  0  0  0  0  0
    9.9064  -15.5500   20.5223 O   0  0  0  0  0  0  0  0  0  0  0  0
    6.9221  -11.9513   28.1313 O   0  0  0  0  0  0  0  0  0  0  0  0
    6.9312  -12.5715   26.8732 C   0  0  0  0  0  0  0  0  0  0  0  0
    6.8402  -13.9464   26.8113 C   0  0  0  0  0  0  0  0  0  0  0  0
    6.8466  -14.5848   25.5892 C   0  0  0  0  0  0  0  0  0  0  0  0
    6.9429  -13.8885   24.3872 C   0  0  0  0  0  0  0  0  0  0  0  0
    6.9788  -14.5891   23.1166 C   0  0  0  0  0  0  0  0  0  0  0  0
    8.2432  -15.2383   22.6971 C   0  0  2  0  0  0  0  0  0  0  0  0
    7.8998  -16.0167   21.4893 N   0  0  0  0  0  0  0  0  0  0  0  0
    8.8335  -16.1516   23.6750 C   0  0  0  0  0  0  0  0  0  0  0  0
    8.2520  -17.2807   23.8563 O   0  0  0  0  0  0  0  0  0  0  0  0
    7.0320  -12.5208   24.4859 C   0  0  0  0  0  0  0  0  0  0  0  0
    7.0262  -11.8726   25.7100 C   0  0  0  0  0  0  0  0  0  0  0  0
   12.8780  -16.0970   25.1206 C   0  0  0  0  0  0  0  0  0  0  0  0
   11.9666  -17.2622   24.9640 C   0  0  2  0  0  0  0  0  0  0  0  0
   12.0863  -17.7836   23.5564 C   0  0  0  0  0  0  0  0  0  0  0  0
   10.5178  -16.9387   25.2764 C   0  0  2  0  0  0  0  0  0  0  0  0
   10.0097  -15.8869   24.4379 N   0  0  0  0  0  0  0  0  0  0  0  0
   10.3956  -16.5674   26.6972 C   0  0  0  0  0  0  0  0  0  0  0  0
   10.0140  -15.4346   27.0300 O   0  0  0  0  0  0  0  0  0  0  0  0
   10.7099  -17.4920   27.7189 O   0  0  0  0  0  0  0  0  0  0  0  0
  2  1  1  0
  3  2  1  0
  3  4  1  6
  5  3  1  0
  6  5  2  0
  7  8  1  0
  8  9  2  0
  9 10  1  0
 11 10  2  0
 11 12  1  0
 13 12  1  1
 13 14  1  0
 14  5  1  0
 15 13  1  0
 15 16  2  0
 17 11  1  0
 18 17  2  0
 18  8  1  0
 20 19  1  6
 20 21  1  0
 22 20  1  0
 22 23  1  6
 23 15  1  0
 24 22  1  0
 25 24  2  0
 26 24  1  0
M  END
$$$$
