SYV.pdb
     RDKit          3D

 26 26  0  0  1  0  0  0  0  0999 V2000
    7.7927  -18.6745   20.0636 O   0  0  0  0  0  0  0  0  0  0  0  0
    9.1090  -18.3939   19.7200 C   0  0  0  0  0  0  0  0  0  0  0  0
    9.2525  -16.8977   19.5442 C   0  0  2  0  0  0  0  0  0  0  0  0
   10.3106  -16.5512   18.6214 N   0  0  0  0  0  0  0  0  0  0  0  0
    9.4618  -16.2213   20.8641 C   0  0  0  0  0  0  0  0  0  0  0  0
   10.6163  -16.1110   21.3578 O   0  0  0  0  0  0  0  0  0  0  0  0
    6.7943  -11.9226   28.3156 O   0  0  0  0  0  0  0  0  0  0  0  0
    6.9478  -12.4791   27.0372 C   0  0  0  0  0  0  0  0  0  0  0  0
    6.3761  -13.7069   26.7757 C   0  0  0  0  0  0  0  0  0  0  0  0
    6.5096  -14.2795   25.5286 C   0  0  0  0  0  0  0  0  0  0  0  0
    7.2115  -13.6604   24.4975 C   0  0  0  0  0  0  0  0  0  0  0  0
    7.3623  -14.3013   23.2041 C   0  0  0  0  0  0  0  0  0  0  0  0
    8.6116  -15.0462   22.9199 C   0  0  2  0  0  0  0  0  0  0  0  0
    8.3946  -15.6844   21.6053 N   0  0  0  0  0  0  0  0  0  0  0  0
    8.9505  -16.0925   23.8839 C   0  0  0  0  0  0  0  0  0  0  0  0
    8.2501  -17.1671   23.8613 O   0  0  0  0  0  0  0  0  0  0  0  0
    7.7678  -12.4391   24.7927 C   0  0  0  0  0  0  0  0  0  0  0  0
    7.6377  -11.8577   26.0431 C   0  0  0  0  0  0  0  0  0  0  0  0
   11.8259  -18.3253   24.0830 C   0  0  0  0  0  0  0  0  0  0  0  0
   11.6441  -17.7330   25.4353 C   0  0  2  0  0  0  0  0  0  0  0  0
   11.9477  -18.7853   26.4687 C   0  0  0  0  0  0  0  0  0  0  0  0
   10.2547  -17.1678   25.6625 C   0  0  2  0  0  0  0  0  0  0  0  0
   10.0041  -16.0134   24.8427 N   0  0  0  0  0  0  0  0  0  0  0  0
   10.0915  -16.8310   27.0878 C   0  0  0  0  0  0  0  0  0  0  0  0
   10.0533  -15.6490   27.4637 O   0  0  0  0  0  0  0  0  0  0  0  0
    9.9740  -17.8455   28.0648 O   0  0  0  0  0  0  0  0  0  0  0  0
  2  1  1  0
  3  2  1  0
  3  4  1  6
  5  3  1  0
  6  5  2  0
  7  8  1  0
  8  9  2  0
  9 10  1  0
 11 10  2  0
 11 12  1  0
 13 12  1  1
 13 14  1  0
 14  5  1  0
 15 13  1  0
 15 16  2  0
 17 11  1  0
 18 17  2  0
 18  8  1  0
 20 19  1  6
 20 21  1  0
 22 20  1  0
 22 23  1  6
 23 15  1  0
 24 22  1  0
 25 24  2  0
 26 24  1  0
M  END
$$$$
