SYV.pdb
     RDKit          3D

 26 26  0  0  1  0  0  0  0  0999 V2000
    8.8156  -16.5026   20.9132 O   0  0  0  0  0  0  0  0  0  0  0  0
    9.9900  -17.1130   21.3346 C   0  0  0  0  0  0  0  0  0  0  0  0
    9.6476  -18.1343   22.3974 C   0  0  2  0  0  0  0  0  0  0  0  0
    8.8957  -19.2497   21.8664 N   0  0  0  0  0  0  0  0  0  0  0  0
    8.9116  -17.4966   23.5354 C   0  0  0  0  0  0  0  0  0  0  0  0
    7.6670  -17.6469   23.6652 O   0  0  0  0  0  0  0  0  0  0  0  0
    9.0120  -21.5984   29.2608 O   0  0  0  0  0  0  0  0  0  0  0  0
    9.1334  -20.3371   28.6591 C   0  0  0  0  0  0  0  0  0  0  0  0
   10.3796  -19.9195   28.2407 C   0  0  0  0  0  0  0  0  0  0  0  0
   10.5308  -18.6849   27.6458 C   0  0  0  0  0  0  0  0  0  0  0  0
    9.4577  -17.8207   27.4436 C   0  0  0  0  0  0  0  0  0  0  0  0
    9.6516  -16.5137   26.8430 C   0  0  0  0  0  0  0  0  0  0  0  0
    8.8407  -16.1475   25.6579 C   0  0  2  0  0  0  0  0  0  0  0  0
    9.5656  -16.7104   24.5003 N   0  0  0  0  0  0  0  0  0  0  0  0
    8.6700  -14.7122   25.4344 C   0  0  0  0  0  0  0  0  0  0  0  0
    9.6747  -14.0619   24.9722 O   0  0  0  0  0  0  0  0  0  0  0  0
    8.2314  -18.2685   27.8723 C   0  0  0  0  0  0  0  0  0  0  0  0
    8.0720  -19.5075   28.4707 C   0  0  0  0  0  0  0  0  0  0  0  0
    5.2513  -12.2699   26.6688 C   0  0  0  0  0  0  0  0  0  0  0  0
    6.1812  -11.9021   25.5675 C   0  0  2  0  0  0  0  0  0  0  0  0
    5.5517  -12.2868   24.2548 C   0  0  0  0  0  0  0  0  0  0  0  0
    7.5492  -12.5451   25.6955 C   0  0  2  0  0  0  0  0  0  0  0  0
    7.4708  -13.9808   25.6840 N   0  0  0  0  0  0  0  0  0  0  0  0
    8.1957  -12.0757   26.9337 C   0  0  0  0  0  0  0  0  0  0  0  0
    8.4941  -12.8708   27.8385 O   0  0  0  0  0  0  0  0  0  0  0  0
    8.4931  -10.7072   27.1239 O   0  0  0  0  0  0  0  0  0  0  0  0
  2  1  1  0
  3  2  1  0
  3  4  1  6
  5  3  1  0
  6  5  2  0
  7  8  1  0
  8  9  2  0
  9 10  1  0
 11 10  2  0
 11 12  1  0
 13 12  1  1
 13 14  1  0
 14  5  1  0
 15 13  1  0
 15 16  2  0
 17 11  1  0
 18 17  2  0
 18  8  1  0
 20 19  1  1
 20 21  1  0
 22 20  1  0
 22 23  1  1
 23 15  1  0
 24 22  1  0
 25 24  2  0
 26 24  1  0
M  END
$$$$
