SYV.pdb
     RDKit          3D

 26 26  0  0  1  0  0  0  0  0999 V2000
    9.3867  -19.1380   20.2366 O   0  0  0  0  0  0  0  0  0  0  0  0
    8.3437  -18.4848   19.5926 C   0  0  0  0  0  0  0  0  0  0  0  0
    8.7926  -17.0806   19.2510 C   0  0  2  0  0  0  0  0  0  0  0  0
    9.9249  -17.0687   18.3515 N   0  0  0  0  0  0  0  0  0  0  0  0
    9.0971  -16.2991   20.4919 C   0  0  0  0  0  0  0  0  0  0  0  0
   10.2873  -16.0449   20.8198 O   0  0  0  0  0  0  0  0  0  0  0  0
    6.9155  -11.8562   28.0487 O   0  0  0  0  0  0  0  0  0  0  0  0
    6.9710  -12.5191   26.8137 C   0  0  0  0  0  0  0  0  0  0  0  0
    7.6388  -11.9170   25.7677 C   0  0  0  0  0  0  0  0  0  0  0  0
    7.7106  -12.5438   24.5418 C   0  0  0  0  0  0  0  0  0  0  0  0
    7.1260  -13.7855   24.3064 C   0  0  0  0  0  0  0  0  0  0  0  0
    7.1907  -14.4075   22.9966 C   0  0  0  0  0  0  0  0  0  0  0  0
    8.3962  -15.1922   22.6399 C   0  0  2  0  0  0  0  0  0  0  0  0
    8.0831  -15.8182   21.3389 N   0  0  0  0  0  0  0  0  0  0  0  0
    8.7549  -16.2527   23.5811 C   0  0  0  0  0  0  0  0  0  0  0  0
    7.9888  -17.2804   23.6344 O   0  0  0  0  0  0  0  0  0  0  0  0
    6.4691  -14.3562   25.3699 C   0  0  0  0  0  0  0  0  0  0  0  0
    6.3929  -13.7324   26.6043 C   0  0  0  0  0  0  0  0  0  0  0  0
   12.5698  -17.2439   25.0523 C   0  0  0  0  0  0  0  0  0  0  0  0
   11.3571  -18.1052   25.0428 C   0  0  2  0  0  0  0  0  0  0  0  0
   11.2576  -18.7850   23.7028 C   0  0  0  0  0  0  0  0  0  0  0  0
   10.0773  -17.3452   25.3357 C   0  0  2  0  0  0  0  0  0  0  0  0
    9.8945  -16.2359   24.4392 N   0  0  0  0  0  0  0  0  0  0  0  0
   10.0952  -16.8787   26.7334 C   0  0  0  0  0  0  0  0  0  0  0  0
   10.1380  -17.6860   27.6748 O   0  0  0  0  0  0  0  0  0  0  0  0
   10.0640  -15.4992   27.0390 O   0  0  0  0  0  0  0  0  0  0  0  0
  2  1  1  0
  3  2  1  0
  3  4  1  6
  5  3  1  0
  6  5  2  0
  7  8  1  0
  8  9  2  0
  9 10  1  0
 11 10  2  0
 11 12  1  0
 13 12  1  1
 13 14  1  0
 14  5  1  0
 15 13  1  0
 15 16  2  0
 17 11  1  0
 18 17  2  0
 18  8  1  0
 20 19  1  6
 20 21  1  0
 22 20  1  0
 22 23  1  6
 23 15  1  0
 24 22  1  0
 25 24  2  0
 26 24  1  0
M  END
$$$$
