SYV.pdb
     RDKit          3D

 26 26  0  0  1  0  0  0  0  0999 V2000
    8.9779  -19.7090   24.1925 O   0  0  0  0  0  0  0  0  0  0  0  0
    7.8798  -20.5566   24.1195 C   0  0  0  0  0  0  0  0  0  0  0  0
    6.7390  -19.9350   24.8954 C   0  0  2  0  0  0  0  0  0  0  0  0
    5.5388  -20.7403   24.8487 N   0  0  0  0  0  0  0  0  0  0  0  0
    6.4596  -18.5443   24.4145 C   0  0  0  0  0  0  0  0  0  0  0  0
    5.5999  -18.3311   23.5178 O   0  0  0  0  0  0  0  0  0  0  0  0
   11.3127  -14.8694   29.0062 O   0  0  0  0  0  0  0  0  0  0  0  0
   10.2041  -14.9143   28.1478 C   0  0  0  0  0  0  0  0  0  0  0  0
    9.2864  -15.9323   28.3032 C   0  0  0  0  0  0  0  0  0  0  0  0
    8.1865  -16.0032   27.4748 C   0  0  0  0  0  0  0  0  0  0  0  0
    7.9549  -15.0723   26.4654 C   0  0  0  0  0  0  0  0  0  0  0  0
    6.8047  -15.1897   25.5880 C   0  0  0  0  0  0  0  0  0  0  0  0
    6.9035  -16.0678   24.3983 C   0  0  2  0  0  0  0  0  0  0  0  0
    7.1342  -17.4253   24.9336 N   0  0  0  0  0  0  0  0  0  0  0  0
    7.9921  -15.7513   23.4744 C   0  0  0  0  0  0  0  0  0  0  0  0
    9.0469  -16.4795   23.5313 O   0  0  0  0  0  0  0  0  0  0  0  0
    8.8887  -14.0722   26.3390 C   0  0  0  0  0  0  0  0  0  0  0  0
    9.9960  -13.9947   27.1674 C   0  0  0  0  0  0  0  0  0  0  0  0
    8.5346  -12.4595   20.6364 C   0  0  0  0  0  0  0  0  0  0  0  0
    8.3528  -13.8801   20.2345 C   0  0  2  0  0  0  0  0  0  0  0  0
    6.9128  -14.0928   19.8489 C   0  0  0  0  0  0  0  0  0  0  0  0
    8.7520  -14.8667   21.3155 C   0  0  2  0  0  0  0  0  0  0  0  0
    7.9692  -14.7002   22.5100 N   0  0  0  0  0  0  0  0  0  0  0  0
   10.1862  -14.7092   21.6150 C   0  0  0  0  0  0  0  0  0  0  0  0
   10.5670  -14.3412   22.7373 O   0  0  0  0  0  0  0  0  0  0  0  0
   11.1667  -14.9733   20.6319 O   0  0  0  0  0  0  0  0  0  0  0  0
  2  1  1  0
  3  2  1  0
  3  4  1  6
  5  3  1  0
  6  5  2  0
  7  8  1  0
  8  9  2  0
  9 10  1  0
 11 10  2  0
 11 12  1  0
 13 12  1  1
 13 14  1  0
 14  5  1  0
 15 13  1  0
 15 16  2  0
 17 11  1  0
 18 17  2  0
 18  8  1  0
 20 19  1  1
 20 21  1  0
 22 20  1  0
 22 23  1  1
 23 15  1  0
 24 22  1  0
 25 24  2  0
 26 24  1  0
M  END
$$$$
