SYV.pdb
     RDKit          3D

 26 26  0  0  1  0  0  0  0  0999 V2000
    8.3228  -18.9213   19.8434 O   0  0  0  0  0  0  0  0  0  0  0  0
    7.3836  -18.0472   19.3115 C   0  0  0  0  0  0  0  0  0  0  0  0
    8.0603  -16.7218   19.0369 C   0  0  2  0  0  0  0  0  0  0  0  0
    9.1535  -16.8464   18.0985 N   0  0  0  0  0  0  0  0  0  0  0  0
    8.5281  -16.0858   20.3096 C   0  0  0  0  0  0  0  0  0  0  0  0
    9.7579  -15.9687   20.5596 O   0  0  0  0  0  0  0  0  0  0  0  0
    7.3057  -12.0010   28.2444 O   0  0  0  0  0  0  0  0  0  0  0  0
    7.2206  -12.5160   26.9424 C   0  0  0  0  0  0  0  0  0  0  0  0
    6.6315  -13.7490   26.7545 C   0  0  0  0  0  0  0  0  0  0  0  0
    6.5331  -14.2815   25.4865 C   0  0  0  0  0  0  0  0  0  0  0  0
    7.0124  -13.6157   24.3613 C   0  0  0  0  0  0  0  0  0  0  0  0
    6.9233  -14.2145   23.0422 C   0  0  0  0  0  0  0  0  0  0  0  0
    8.1044  -14.9295   22.5037 C   0  0  2  0  0  0  0  0  0  0  0  0
    7.6295  -15.5955   21.2734 N   0  0  0  0  0  0  0  0  0  0  0  0
    8.6742  -15.9498   23.3830 C   0  0  0  0  0  0  0  0  0  0  0  0
    8.0729  -17.0815   23.4436 O   0  0  0  0  0  0  0  0  0  0  0  0
    7.5929  -12.3904   24.5850 C   0  0  0  0  0  0  0  0  0  0  0  0
    7.6952  -11.8492   25.8559 C   0  0  0  0  0  0  0  0  0  0  0  0
   12.0183  -17.5711   23.1230 C   0  0  0  0  0  0  0  0  0  0  0  0
   11.7989  -17.2212   24.5520 C   0  0  2  0  0  0  0  0  0  0  0  0
   12.3102  -18.3485   25.4095 C   0  0  0  0  0  0  0  0  0  0  0  0
   10.3472  -16.9331   24.8847 C   0  0  2  0  0  0  0  0  0  0  0  0
    9.8507  -15.7864   24.1732 N   0  0  0  0  0  0  0  0  0  0  0  0
   10.2091  -16.7352   26.3384 C   0  0  0  0  0  0  0  0  0  0  0  0
   10.0451  -15.6014   26.8152 O   0  0  0  0  0  0  0  0  0  0  0  0
   10.2599  -17.8319   27.2285 O   0  0  0  0  0  0  0  0  0  0  0  0
  2  1  1  0
  3  2  1  0
  3  4  1  6
  5  3  1  0
  6  5  2  0
  7  8  1  0
  8  9  2  0
  9 10  1  0
 11 10  2  0
 11 12  1  0
 13 12  1  1
 13 14  1  0
 14  5  1  0
 15 13  1  0
 15 16  2  0
 17 11  1  0
 18 17  2  0
 18  8  1  0
 20 19  1  6
 20 21  1  0
 22 20  1  0
 22 23  1  6
 23 15  1  0
 24 22  1  0
 25 24  2  0
 26 24  1  0
M  END
$$$$
