YTM.pdb
     RDKit          3D

 28 28  0  0  1  0  0  0  0  0999 V2000
    7.9441  -19.1618   29.0317 O   0  0  0  0  0  0  0  0  0  0  0  0
    7.4559  -19.1632   27.7222 C   0  0  0  0  0  0  0  0  0  0  0  0
    6.8963  -18.0362   27.1622 C   0  0  0  0  0  0  0  0  0  0  0  0
    6.4126  -18.0241   25.8765 C   0  0  0  0  0  0  0  0  0  0  0  0
    6.4789  -19.1551   25.1116 C   0  0  0  0  0  0  0  0  0  0  0  0
    5.9492  -19.1117   23.7276 C   0  0  0  0  0  0  0  0  0  0  0  0
    7.0066  -19.5348   22.7175 C   0  0  2  0  0  0  0  0  0  0  0  0
    7.7663  -20.5895   23.2880 N   0  0  0  0  0  0  0  0  0  0  0  0
    7.7783  -18.3358   22.3671 C   0  0  0  0  0  0  0  0  0  0  0  0
    8.8473  -18.4845   21.7216 O   0  0  0  0  0  0  0  0  0  0  0  0
    7.0295  -20.3030   25.6301 C   0  0  0  0  0  0  0  0  0  0  0  0
    7.5034  -20.2837   26.9157 C   0  0  0  0  0  0  0  0  0  0  0  0
    6.2741  -15.3543   20.3687 C   0  0  0  0  0  0  0  0  0  0  0  0
    6.9288  -14.9130   21.6591 C   0  0  1  0  0  0  0  0  0  0  0  0
    5.9933  -14.9276   22.7144 O   0  0  0  0  0  0  0  0  0  0  0  0
    8.0312  -15.8635   22.0699 C   0  0  2  0  0  0  0  0  0  0  0  0
    7.4070  -17.0086   22.7039 N   0  0  0  0  0  0  0  0  0  0  0  0
    8.9007  -15.1553   23.0444 C   0  0  0  0  0  0  0  0  0  0  0  0
    9.3126  -13.9818   22.8390 O   0  0  0  0  0  0  0  0  0  0  0  0
    6.0299  -12.1947   25.8510 C   0  0  0  0  0  0  0  0  0  0  0  0
    7.3357  -12.5443   27.0727 S   0  0  0  0  0  0  0  0  0  0  0  0
    7.5585  -14.3280   27.1673 C   0  0  0  0  0  0  0  0  0  0  0  0
    7.6831  -14.9672   25.7852 C   0  0  0  0  0  0  0  0  0  0  0  0
    9.1708  -15.1610   25.5518 C   0  0  2  0  0  0  0  0  0  0  0  0
    9.2894  -15.7976   24.2438 N   0  0  0  0  0  0  0  0  0  0  0  0
    9.7800  -16.0600   26.5661 C   0  0  0  0  0  0  0  0  0  0  0  0
    9.9674  -17.2608   26.2822 O   0  0  0  0  0  0  0  0  0  0  0  0
   10.1538  -15.6188   27.8285 O   0  0  0  0  0  0  0  0  0  0  0  0
  2  1  1  0
  3  2  2  0
  4  3  1  0
  5  4  2  0
  5 11  1  0
  6  5  1  0
  7  6  1  0
  7  9  1  0
  7  8  1  1
  9 10  2  0
 11 12  2  0
 12  2  1  0
 14 13  1  6
 14 16  1  0
 15 14  1  0
 16 17  1  1
 17  9  1  0
 18 16  1  0
 18 19  2  0
 20 21  1  0
 22 21  1  0
 22 23  1  0
 24 23  1  1
 24 25  1  0
 24 26  1  0
 25 18  1  0
 26 28  1  0
 27 26  2  0
M  END
$$$$
