YTM.pdb
     RDKit          3D

 28 28  0  0  1  0  0  0  0  0999 V2000
   11.2388  -14.8411   29.4866 O   0  0  0  0  0  0  0  0  0  0  0  0
   10.2666  -15.7632   29.0893 C   0  0  0  0  0  0  0  0  0  0  0  0
   10.2550  -17.0511   29.5771 C   0  0  0  0  0  0  0  0  0  0  0  0
    9.3054  -17.9671   29.1949 C   0  0  0  0  0  0  0  0  0  0  0  0
    8.3324  -17.6100   28.3036 C   0  0  0  0  0  0  0  0  0  0  0  0
    7.3208  -18.6199   27.9100 C   0  0  0  0  0  0  0  0  0  0  0  0
    7.9394  -19.7185   27.0568 C   0  0  2  0  0  0  0  0  0  0  0  0
    9.0710  -20.2289   27.7453 N   0  0  0  0  0  0  0  0  0  0  0  0
    8.2270  -19.1368   25.7397 C   0  0  0  0  0  0  0  0  0  0  0  0
    9.3922  -18.7202   25.5154 O   0  0  0  0  0  0  0  0  0  0  0  0
    8.3056  -16.3348   27.7910 C   0  0  0  0  0  0  0  0  0  0  0  0
    9.2664  -15.4437   28.1916 C   0  0  0  0  0  0  0  0  0  0  0  0
    7.6217  -20.7570   22.3939 C   0  0  0  0  0  0  0  0  0  0  0  0
    7.0448  -19.3596   22.3376 C   0  0  1  0  0  0  0  0  0  0  0  0
    5.6612  -19.3884   22.6092 O   0  0  0  0  0  0  0  0  0  0  0  0
    7.6561  -18.4689   23.3961 C   0  0  2  0  0  0  0  0  0  0  0  0
    7.2820  -19.0073   24.6895 N   0  0  0  0  0  0  0  0  0  0  0  0
    7.0848  -17.1078   23.2284 C   0  0  0  0  0  0  0  0  0  0  0  0
    5.9160  -16.8252   23.6061 O   0  0  0  0  0  0  0  0  0  0  0  0
    8.0836  -11.9689   26.4678 C   0  0  0  0  0  0  0  0  0  0  0  0
    6.4799  -12.1363   25.6193 S   0  0  0  0  0  0  0  0  0  0  0  0
    6.7770  -12.8103   23.9769 C   0  0  0  0  0  0  0  0  0  0  0  0
    7.2819  -14.2514   24.0281 C   0  0  0  0  0  0  0  0  0  0  0  0
    7.4191  -14.6931   22.5819 C   0  0  2  0  0  0  0  0  0  0  0  0
    7.8575  -16.0844   22.6300 N   0  0  0  0  0  0  0  0  0  0  0  0
    8.4471  -13.9040   21.8549 C   0  0  0  0  0  0  0  0  0  0  0  0
    9.6204  -14.3269   21.8093 O   0  0  0  0  0  0  0  0  0  0  0  0
    8.1571  -12.7050   21.2175 O   0  0  0  0  0  0  0  0  0  0  0  0
  2  1  1  0
  3  2  2  0
  4  3  1  0
  5  4  2  0
  5 11  1  0
  6  5  1  0
  7  6  1  0
  7  9  1  0
  7  8  1  1
  9 10  2  0
 11 12  2  0
 12  2  1  0
 14 13  1  1
 14 16  1  0
 15 14  1  0
 16 17  1  1
 17  9  1  0
 18 16  1  0
 18 19  2  0
 20 21  1  0
 22 21  1  0
 22 23  1  0
 24 23  1  1
 24 25  1  0
 24 26  1  0
 25 18  1  0
 26 28  1  0
 27 26  2  0
M  END
$$$$
