YTM.pdb
     RDKit          3D

 28 28  0  0  1  0  0  0  0  0999 V2000
    8.9541  -21.4031   30.8943 O   0  0  0  0  0  0  0  0  0  0  0  0
    8.5394  -20.7928   29.7074 C   0  0  0  0  0  0  0  0  0  0  0  0
    7.3223  -21.0877   29.1343 C   0  0  0  0  0  0  0  0  0  0  0  0
    6.9027  -20.4953   27.9681 C   0  0  0  0  0  0  0  0  0  0  0  0
    7.7027  -19.5816   27.3404 C   0  0  0  0  0  0  0  0  0  0  0  0
    7.2230  -18.9585   26.0835 C   0  0  0  0  0  0  0  0  0  0  0  0
    7.1413  -19.9790   24.9568 C   0  0  2  0  0  0  0  0  0  0  0  0
    8.1107  -20.9867   25.2016 N   0  0  0  0  0  0  0  0  0  0  0  0
    7.3133  -19.2486   23.6947 C   0  0  0  0  0  0  0  0  0  0  0  0
    7.7669  -19.8745   22.7027 O   0  0  0  0  0  0  0  0  0  0  0  0
    8.9259  -19.2571   27.8771 C   0  0  0  0  0  0  0  0  0  0  0  0
    9.3165  -19.8650   29.0414 C   0  0  0  0  0  0  0  0  0  0  0  0
    6.3230  -19.3764   21.2027 C   0  0  0  0  0  0  0  0  0  0  0  0
    6.1302  -17.8780   21.2814 C   0  0  1  0  0  0  0  0  0  0  0  0
    4.8635  -17.5737   21.8218 O   0  0  0  0  0  0  0  0  0  0  0  0
    7.1402  -17.2413   22.2098 C   0  0  2  0  0  0  0  0  0  0  0  0
    7.0037  -17.8770   23.5060 N   0  0  0  0  0  0  0  0  0  0  0  0
    6.8106  -15.7965   22.3159 C   0  0  0  0  0  0  0  0  0  0  0  0
    5.6222  -15.3911   22.4254 O   0  0  0  0  0  0  0  0  0  0  0  0
    6.8266  -11.1577   27.6000 C   0  0  0  0  0  0  0  0  0  0  0  0
    6.3111  -12.5948   26.6056 S   0  0  0  0  0  0  0  0  0  0  0  0
    7.5394  -12.8605   25.3169 C   0  0  0  0  0  0  0  0  0  0  0  0
    7.2262  -14.0912   24.4672 C   0  0  0  0  0  0  0  0  0  0  0  0
    8.3968  -14.2432   23.5123 C   0  0  2  0  0  0  0  0  0  0  0  0
    7.8449  -14.8311   22.2958 N   0  0  0  0  0  0  0  0  0  0  0  0
    9.4343  -15.1630   24.0469 C   0  0  0  0  0  0  0  0  0  0  0  0
    9.1773  -16.3803   24.1454 O   0  0  0  0  0  0  0  0  0  0  0  0
   10.6896  -14.7236   24.4456 O   0  0  0  0  0  0  0  0  0  0  0  0
  2  1  1  0
  3  2  2  0
  4  3  1  0
  5  4  2  0
  5 11  1  0
  6  5  1  0
  7  6  1  0
  7  9  1  0
  7  8  1  1
  9 10  2  0
 11 12  2  0
 12  2  1  0
 14 13  1  1
 14 16  1  0
 15 14  1  0
 16 17  1  1
 17  9  1  0
 18 16  1  0
 18 19  2  0
 20 21  1  0
 22 21  1  0
 22 23  1  0
 24 23  1  1
 24 25  1  0
 24 26  1  0
 25 18  1  0
 26 28  1  0
 27 26  2  0
M  END
$$$$
