YTM.pdb
     RDKit          3D

 28 28  0  0  1  0  0  0  0  0999 V2000
   15.0517  -22.7248   20.1967 O   0  0  0  0  0  0  0  0  0  0  0  0
   14.5442  -21.4466   20.4452 C   0  0  0  0  0  0  0  0  0  0  0  0
   13.4475  -21.2533   21.2555 C   0  0  0  0  0  0  0  0  0  0  0  0
   12.9387  -20.0025   21.5078 C   0  0  0  0  0  0  0  0  0  0  0  0
   13.5240  -18.9017   20.9472 C   0  0  0  0  0  0  0  0  0  0  0  0
   12.9529  -17.5648   21.2380 C   0  0  0  0  0  0  0  0  0  0  0  0
   11.7475  -17.2746   20.3546 C   0  0  2  0  0  0  0  0  0  0  0  0
   12.2211  -16.8549   19.0840 N   0  0  0  0  0  0  0  0  0  0  0  0
   10.9168  -16.2912   21.0610 C   0  0  0  0  0  0  0  0  0  0  0  0
   11.2907  -15.0905   21.0648 O   0  0  0  0  0  0  0  0  0  0  0  0
   14.6209  -19.0479   20.1318 C   0  0  0  0  0  0  0  0  0  0  0  0
   15.1053  -20.3084   19.8991 C   0  0  0  0  0  0  0  0  0  0  0  0
    7.5575  -14.8205   20.5036 C   0  0  0  0  0  0  0  0  0  0  0  0
    7.5673  -15.5437   21.8323 C   0  0  1  0  0  0  0  0  0  0  0  0
    7.1979  -16.8938   21.6592 O   0  0  0  0  0  0  0  0  0  0  0  0
    8.9541  -15.5679   22.4354 C   0  0  2  0  0  0  0  0  0  0  0  0
    9.7122  -16.5943   21.7465 N   0  0  0  0  0  0  0  0  0  0  0  0
    8.8171  -15.9169   23.8730 C   0  0  0  0  0  0  0  0  0  0  0  0
    9.4579  -16.8710   24.3905 O   0  0  0  0  0  0  0  0  0  0  0  0
    7.4710  -10.2696   26.9941 C   0  0  0  0  0  0  0  0  0  0  0  0
    6.4250  -11.7598   26.9250 S   0  0  0  0  0  0  0  0  0  0  0  0
    7.4968  -13.1951   26.7476 C   0  0  0  0  0  0  0  0  0  0  0  0
    6.7031  -14.4935   26.6105 C   0  0  0  0  0  0  0  0  0  0  0  0
    7.6878  -15.5274   26.0940 C   0  0  2  0  0  0  0  0  0  0  0  0
    7.9482  -15.1698   24.7031 N   0  0  0  0  0  0  0  0  0  0  0  0
    7.1197  -16.9001   26.1252 C   0  0  0  0  0  0  0  0  0  0  0  0
    6.5012  -17.3265   25.1286 O   0  0  0  0  0  0  0  0  0  0  0  0
    7.2479  -17.7379   27.2250 O   0  0  0  0  0  0  0  0  0  0  0  0
  2  1  1  0
  3  2  2  0
  4  3  1  0
  5  4  2  0
  5 11  1  0
  6  5  1  0
  7  6  1  0
  7  9  1  0
  7  8  1  6
  9 10  2  0
 11 12  2  0
 12  2  1  0
 14 13  1  6
 14 16  1  0
 15 14  1  0
 16 17  1  6
 17  9  1  0
 18 16  1  0
 18 19  2  0
 20 21  1  0
 22 21  1  0
 22 23  1  0
 24 23  1  6
 24 25  1  0
 24 26  1  0
 25 18  1  0
 26 28  1  0
 27 26  2  0
M  END
$$$$
