YTM.pdb
     RDKit          3D

 28 28  0  0  1  0  0  0  0  0999 V2000
   10.9430  -15.7175   31.2461 O   0  0  0  0  0  0  0  0  0  0  0  0
   11.2366  -15.7799   29.8811 C   0  0  0  0  0  0  0  0  0  0  0  0
   11.6379  -16.9548   29.2849 C   0  0  0  0  0  0  0  0  0  0  0  0
   11.9295  -17.0297   27.9446 C   0  0  0  0  0  0  0  0  0  0  0  0
   11.8245  -15.9154   27.1599 C   0  0  0  0  0  0  0  0  0  0  0  0
   12.1455  -16.0270   25.7167 C   0  0  0  0  0  0  0  0  0  0  0  0
   11.8263  -17.4174   25.1855 C   0  0  2  0  0  0  0  0  0  0  0  0
   12.9992  -17.9396   24.5800 N   0  0  0  0  0  0  0  0  0  0  0  0
   10.6724  -17.2858   24.2870 C   0  0  0  0  0  0  0  0  0  0  0  0
   10.8890  -17.1800   23.0528 O   0  0  0  0  0  0  0  0  0  0  0  0
   11.4274  -14.7213   27.7131 C   0  0  0  0  0  0  0  0  0  0  0  0
   11.1435  -14.6782   29.0529 C   0  0  0  0  0  0  0  0  0  0  0  0
    7.2759  -18.8662   23.3674 C   0  0  0  0  0  0  0  0  0  0  0  0
    7.0477  -17.5120   24.0018 C   0  0  1  0  0  0  0  0  0  0  0  0
    6.7803  -17.6538   25.3793 O   0  0  0  0  0  0  0  0  0  0  0  0
    8.2831  -16.6446   23.9069 C   0  0  2  0  0  0  0  0  0  0  0  0
    9.3177  -17.2689   24.7084 N   0  0  0  0  0  0  0  0  0  0  0  0
    7.9442  -15.3104   24.4654 C   0  0  0  0  0  0  0  0  0  0  0  0
    8.3531  -14.9395   25.5985 O   0  0  0  0  0  0  0  0  0  0  0  0
    9.0421  -11.4780   19.9857 C   0  0  0  0  0  0  0  0  0  0  0  0
    7.5742  -12.2893   20.6979 S   0  0  0  0  0  0  0  0  0  0  0  0
    7.4265  -11.7813   22.4184 C   0  0  0  0  0  0  0  0  0  0  0  0
    6.1688  -12.3434   23.0793 C   0  0  0  0  0  0  0  0  0  0  0  0
    6.6534  -13.1527   24.2691 C   0  0  2  0  0  0  0  0  0  0  0  0
    7.1408  -14.4145   23.7209 N   0  0  0  0  0  0  0  0  0  0  0  0
    5.5539  -13.4512   25.2230 C   0  0  0  0  0  0  0  0  0  0  0  0
    4.9438  -14.5359   25.1298 O   0  0  0  0  0  0  0  0  0  0  0  0
    5.1714  -12.5678   26.2237 O   0  0  0  0  0  0  0  0  0  0  0  0
  2  1  1  0
  3  2  2  0
  4  3  1  0
  5  4  2  0
  5 11  1  0
  6  5  1  0
  7  6  1  0
  7  9  1  0
  7  8  1  6
  9 10  2  0
 11 12  2  0
 12  2  1  0
 14 13  1  1
 14 16  1  0
 15 14  1  0
 16 17  1  1
 17  9  1  0
 18 16  1  0
 18 19  2  0
 20 21  1  0
 22 21  1  0
 22 23  1  0
 24 23  1  6
 24 25  1  0
 24 26  1  0
 25 18  1  0
 26 28  1  0
 27 26  2  0
M  END
$$$$
