YTM.pdb
     RDKit          3D

 28 28  0  0  1  0  0  0  0  0999 V2000
    9.3130  -11.3269   20.8165 O   0  0  0  0  0  0  0  0  0  0  0  0
    8.5797  -12.5124   20.7158 C   0  0  0  0  0  0  0  0  0  0  0  0
    8.4912  -13.2045   19.5285 C   0  0  0  0  0  0  0  0  0  0  0  0
    7.7737  -14.3706   19.4159 C   0  0  0  0  0  0  0  0  0  0  0  0
    7.1197  -14.8773   20.5041 C   0  0  0  0  0  0  0  0  0  0  0  0
    6.3537  -16.1376   20.3523 C   0  0  0  0  0  0  0  0  0  0  0  0
    7.2658  -17.3530   20.4426 C   0  0  2  0  0  0  0  0  0  0  0  0
    6.5777  -18.4645   19.8894 N   0  0  0  0  0  0  0  0  0  0  0  0
    7.6525  -17.5034   21.8511 C   0  0  0  0  0  0  0  0  0  0  0  0
    6.7472  -17.7236   22.6958 O   0  0  0  0  0  0  0  0  0  0  0  0
    7.1808  -14.2193   21.7095 C   0  0  0  0  0  0  0  0  0  0  0  0
    7.9045  -13.0585   21.7902 C   0  0  0  0  0  0  0  0  0  0  0  0
   10.2774  -19.8480   23.2389 C   0  0  0  0  0  0  0  0  0  0  0  0
   10.5259  -18.4757   23.8251 C   0  0  1  0  0  0  0  0  0  0  0  0
   11.5205  -17.7998   23.0882 O   0  0  0  0  0  0  0  0  0  0  0  0
    9.2887  -17.6096   23.7421 C   0  0  2  0  0  0  0  0  0  0  0  0
    8.9825  -17.4187   22.3376 N   0  0  0  0  0  0  0  0  0  0  0  0
    9.6066  -16.3034   24.3744 C   0  0  0  0  0  0  0  0  0  0  0  0
   10.1809  -15.3785   23.7393 O   0  0  0  0  0  0  0  0  0  0  0  0
    5.9424  -11.7988   25.9069 C   0  0  0  0  0  0  0  0  0  0  0  0
    7.0402  -11.8421   27.3605 S   0  0  0  0  0  0  0  0  0  0  0  0
    8.5377  -12.7344   26.9115 C   0  0  0  0  0  0  0  0  0  0  0  0
    8.3363  -14.2488   26.9399 C   0  0  0  0  0  0  0  0  0  0  0  0
    9.6363  -14.8483   26.4340 C   0  0  2  0  0  0  0  0  0  0  0  0
    9.2635  -16.0696   25.7272 N   0  0  0  0  0  0  0  0  0  0  0  0
   10.5504  -15.2131   27.5473 C   0  0  0  0  0  0  0  0  0  0  0  0
   10.5727  -16.3920   27.9562 O   0  0  0  0  0  0  0  0  0  0  0  0
   11.3894  -14.2911   28.1589 O   0  0  0  0  0  0  0  0  0  0  0  0
  2  1  1  0
  3  2  2  0
  4  3  1  0
  5  4  2  0
  5 11  1  0
  6  5  1  0
  7  6  1  0
  7  9  1  0
  7  8  1  1
  9 10  2  0
 11 12  2  0
 12  2  1  0
 14 13  1  6
 14 16  1  0
 15 14  1  0
 16 17  1  6
 17  9  1  0
 18 16  1  0
 18 19  2  0
 20 21  1  0
 22 21  1  0
 22 23  1  0
 24 23  1  1
 24 25  1  0
 24 26  1  0
 25 18  1  0
 26 28  1  0
 27 26  2  0
M  END
$$$$
