MLP.pdb
     RDKit          3D

 24 24  0  0  1  0  0  0  0  0999 V2000
    9.5672  -14.2806   28.9806 C   0  0  0  0  0  0  0  0  0  0  0  0
   10.8088  -15.5695   28.7725 S   0  0  0  0  0  0  0  0  0  0  0  0
   10.0351  -17.2107   28.6237 C   0  0  0  0  0  0  0  0  0  0  0  0
    9.4070  -17.3677   27.2658 C   0  0  0  0  0  0  0  0  0  0  0  0
    7.9231  -17.4948   27.3890 C   0  0  2  0  0  0  0  0  0  0  0  0
    7.4473  -18.8149   27.6632 N   0  0  0  0  0  0  0  0  0  0  0  0
    7.2484  -16.9267   26.1802 C   0  0  0  0  0  0  0  0  0  0  0  0
    6.7263  -17.7375   25.3401 O   0  0  0  0  0  0  0  0  0  0  0  0
    5.7149  -12.9402   27.0433 C   0  0  0  0  0  0  0  0  0  0  0  0
    7.0117  -12.9053   26.1942 C   0  0  2  0  0  0  0  0  0  0  0  0
    7.4940  -11.4986   26.1925 C   0  0  0  0  0  0  0  0  0  0  0  0
    6.7461  -13.4824   24.8419 C   0  0  0  0  0  0  0  0  0  0  0  0
    7.0610  -14.9429   24.6764 C   0  0  2  0  0  0  0  0  0  0  0  0
    7.2038  -15.5266   25.9960 N   0  0  0  0  0  0  0  0  0  0  0  0
    8.0761  -15.2981   23.7081 C   0  0  0  0  0  0  0  0  0  0  0  0
    9.0310  -16.0433   24.1388 O   0  0  0  0  0  0  0  0  0  0  0  0
    8.1832  -14.9440   22.3350 N   0  0  0  0  0  0  0  0  0  0  0  0
    7.7698  -13.7791   21.5960 C   0  0  0  0  0  0  0  0  0  0  0  0
    7.1722  -14.4072   20.3542 C   0  0  0  0  0  0  0  0  0  0  0  0
    7.8663  -15.7290   20.1780 C   0  0  0  0  0  0  0  0  0  0  0  0
    8.8256  -15.7944   21.3196 C   0  0  1  0  0  0  0  0  0  0  0  0
   10.1239  -15.2353   20.9629 C   0  0  0  0  0  0  0  0  0  0  0  0
   11.0786  -15.8479   20.1677 O   0  0  0  0  0  0  0  0  0  0  0  0
   10.4680  -14.0765   21.3914 O   0  0  0  0  0  0  0  0  0  0  0  0
  1  2  1  0
  2  3  1  0
  4  5  1  0
  4  3  1  0
  5  6  1  6
  7  8  2  0
  7  5  1  0
 10  9  1  1
 10 12  1  0
 11 10  1  0
 13 12  1  1
 13 14  1  0
 14  7  1  0
 15 13  1  0
 16 15  2  0
 17 21  1  0
 17 15  1  0
 18 17  1  0
 19 20  1  0
 19 18  1  0
 20 21  1  0
 21 22  1  6
 22 24  2  0
 22 23  1  0
M  END
$$$$
