MLP.pdb
     RDKit          3D

 24 24  0  0  1  0  0  0  0  0999 V2000
   11.3059  -18.7413   25.4190 C   0  0  0  0  0  0  0  0  0  0  0  0
   10.4302  -19.9986   26.3668 S   0  0  0  0  0  0  0  0  0  0  0  0
    8.6654  -19.5845   26.5363 C   0  0  0  0  0  0  0  0  0  0  0  0
    8.1980  -18.8025   25.3392 C   0  0  0  0  0  0  0  0  0  0  0  0
    6.7607  -18.4234   25.4925 C   0  0  2  0  0  0  0  0  0  0  0  0
    5.8224  -19.4354   25.1186 N   0  0  0  0  0  0  0  0  0  0  0  0
    6.4785  -17.1435   24.7703 C   0  0  0  0  0  0  0  0  0  0  0  0
    5.6616  -17.1699   23.7867 O   0  0  0  0  0  0  0  0  0  0  0  0
    5.6415  -12.7859   25.8339 C   0  0  0  0  0  0  0  0  0  0  0  0
    7.0391  -13.3022   26.2627 C   0  0  2  0  0  0  0  0  0  0  0  0
    7.6506  -12.2484   27.1154 C   0  0  0  0  0  0  0  0  0  0  0  0
    7.8336  -13.6743   25.0533 C   0  0  0  0  0  0  0  0  0  0  0  0
    7.3230  -14.8490   24.2665 C   0  0  2  0  0  0  0  0  0  0  0  0
    7.1122  -15.9508   25.1852 N   0  0  0  0  0  0  0  0  0  0  0  0
    8.0066  -15.1693   23.0319 C   0  0  0  0  0  0  0  0  0  0  0  0
    8.5105  -16.3495   22.9552 O   0  0  0  0  0  0  0  0  0  0  0  0
    8.2116  -14.3686   21.8746 N   0  0  0  0  0  0  0  0  0  0  0  0
    8.0035  -12.9680   21.6117 C   0  0  0  0  0  0  0  0  0  0  0  0
    7.3598  -13.0118   20.2415 C   0  0  0  0  0  0  0  0  0  0  0  0
    7.8522  -14.2727   19.5875 C   0  0  0  0  0  0  0  0  0  0  0  0
    8.7520  -14.8873   20.6074 C   0  0  1  0  0  0  0  0  0  0  0  0
   10.1310  -14.4428   20.4447 C   0  0  0  0  0  0  0  0  0  0  0  0
   11.0000  -14.8486   19.4452 O   0  0  0  0  0  0  0  0  0  0  0  0
   10.6395  -13.6007   21.2675 O   0  0  0  0  0  0  0  0  0  0  0  0
  1  2  1  0
  2  3  1  0
  4  5  1  0
  4  3  1  0
  5  6  1  6
  7  8  2  0
  7  5  1  0
 10  9  1  6
 10 12  1  0
 11 10  1  0
 13 12  1  1
 13 14  1  0
 14  7  1  0
 15 13  1  0
 16 15  2  0
 17 21  1  0
 17 15  1  0
 18 17  1  0
 19 20  1  0
 19 18  1  0
 20 21  1  0
 21 22  1  6
 22 24  2  0
 22 23  1  0
M  END
$$$$
