MLP.pdb
     RDKit          3D

 24 24  0  0  1  0  0  0  0  0999 V2000
    7.7043  -11.7180   19.2700 C   0  0  0  0  0  0  0  0  0  0  0  0
    8.6063  -13.1092   18.5649 S   0  0  0  0  0  0  0  0  0  0  0  0
    9.1424  -14.2705   19.8605 C   0  0  0  0  0  0  0  0  0  0  0  0
    7.9629  -15.0413   20.3876 C   0  0  0  0  0  0  0  0  0  0  0  0
    8.3932  -15.9778   21.4698 C   0  0  2  0  0  0  0  0  0  0  0  0
    7.4750  -17.0351   21.7584 N   0  0  0  0  0  0  0  0  0  0  0  0
    8.7364  -15.2175   22.7121 C   0  0  0  0  0  0  0  0  0  0  0  0
    9.7856  -14.4863   22.7049 O   0  0  0  0  0  0  0  0  0  0  0  0
    7.4578  -11.9557   25.6891 C   0  0  0  0  0  0  0  0  0  0  0  0
    6.4512  -13.1195   25.4991 C   0  0  2  0  0  0  0  0  0  0  0  0
    5.2226  -12.7614   26.2565 C   0  0  0  0  0  0  0  0  0  0  0  0
    7.0876  -14.4095   25.9035 C   0  0  0  0  0  0  0  0  0  0  0  0
    8.3202  -14.8033   25.1384 C   0  0  2  0  0  0  0  0  0  0  0  0
    7.9053  -15.3228   23.8499 N   0  0  0  0  0  0  0  0  0  0  0  0
    9.3225  -15.5725   25.8440 C   0  0  0  0  0  0  0  0  0  0  0  0
    9.9129  -16.4896   25.1635 O   0  0  0  0  0  0  0  0  0  0  0  0
    9.7605  -15.4705   27.1932 N   0  0  0  0  0  0  0  0  0  0  0  0
    9.2050  -14.8152   28.3490 C   0  0  0  0  0  0  0  0  0  0  0  0
   10.4373  -14.1737   28.9520 C   0  0  0  0  0  0  0  0  0  0  0  0
   11.6026  -15.0222   28.5254 C   0  0  0  0  0  0  0  0  0  0  0  0
   10.9860  -16.1056   27.7045 C   0  0  1  0  0  0  0  0  0  0  0  0
   10.6347  -17.2627   28.5189 C   0  0  0  0  0  0  0  0  0  0  0  0
   11.5301  -18.1393   29.1095 O   0  0  0  0  0  0  0  0  0  0  0  0
    9.4040  -17.5434   28.7454 O   0  0  0  0  0  0  0  0  0  0  0  0
  1  2  1  0
  2  3  1  0
  4  5  1  0
  4  3  1  0
  5  6  1  1
  7  8  2  0
  7  5  1  0
 10  9  1  1
 10 12  1  0
 11 10  1  0
 13 12  1  1
 13 14  1  0
 14  7  1  0
 15 13  1  0
 16 15  2  0
 17 21  1  0
 17 15  1  0
 18 17  1  0
 19 20  1  0
 19 18  1  0
 20 21  1  0
 21 22  1  1
 22 24  2  0
 22 23  1  0
M  END
$$$$
