MLP.pdb
     RDKit          3D

 24 24  0  0  1  0  0  0  0  0999 V2000
   10.5902  -18.0851   27.9769 C   0  0  0  0  0  0  0  0  0  0  0  0
    9.7633  -19.6841   28.0537 S   0  0  0  0  0  0  0  0  0  0  0  0
    8.0485  -19.5675   27.4535 C   0  0  0  0  0  0  0  0  0  0  0  0
    7.9404  -18.5061   26.3929 C   0  0  0  0  0  0  0  0  0  0  0  0
    6.5248  -18.3698   25.9337 C   0  0  2  0  0  0  0  0  0  0  0  0
    5.9820  -19.5241   25.2879 N   0  0  0  0  0  0  0  0  0  0  0  0
    6.3701  -17.1562   25.0721 C   0  0  0  0  0  0  0  0  0  0  0  0
    5.7376  -17.2741   23.9668 O   0  0  0  0  0  0  0  0  0  0  0  0
    5.4566  -12.7689   25.8899 C   0  0  0  0  0  0  0  0  0  0  0  0
    6.8319  -13.2257   26.4410 C   0  0  2  0  0  0  0  0  0  0  0  0
    7.3743  -12.1000   27.2472 C   0  0  0  0  0  0  0  0  0  0  0  0
    7.7051  -13.6723   25.3139 C   0  0  0  0  0  0  0  0  0  0  0  0
    7.2245  -14.8707   24.5442 C   0  0  2  0  0  0  0  0  0  0  0  0
    6.9187  -15.9239   25.4927 N   0  0  0  0  0  0  0  0  0  0  0  0
    7.9890  -15.2626   23.3797 C   0  0  0  0  0  0  0  0  0  0  0  0
    8.5121  -16.4364   23.4166 O   0  0  0  0  0  0  0  0  0  0  0  0
    8.2564  -14.5394   22.1848 N   0  0  0  0  0  0  0  0  0  0  0  0
    8.1255  -13.1471   21.8408 C   0  0  0  0  0  0  0  0  0  0  0  0
    7.5060  -13.2352   20.4615 C   0  0  0  0  0  0  0  0  0  0  0  0
    7.9450  -14.5539   19.8887 C   0  0  0  0  0  0  0  0  0  0  0  0
    8.7929  -15.1549   20.9600 C   0  0  1  0  0  0  0  0  0  0  0  0
   10.1957  -14.7902   20.8026 C   0  0  0  0  0  0  0  0  0  0  0  0
   11.0476  -15.2560   19.8146 O   0  0  0  0  0  0  0  0  0  0  0  0
   10.7448  -13.9680   21.6194 O   0  0  0  0  0  0  0  0  0  0  0  0
  1  2  1  0
  2  3  1  0
  4  5  1  0
  4  3  1  0
  5  6  1  6
  7  8  2  0
  7  5  1  0
 10  9  1  6
 10 12  1  0
 11 10  1  0
 13 12  1  1
 13 14  1  0
 14  7  1  0
 15 13  1  0
 16 15  2  0
 17 21  1  0
 17 15  1  0
 18 17  1  0
 19 20  1  0
 19 18  1  0
 20 21  1  0
 21 22  1  6
 22 24  2  0
 22 23  1  0
M  END
$$$$
