MLP.pdb
     RDKit          3D

 24 24  0  0  1  0  0  0  0  0999 V2000
    6.4850  -20.6757   24.0310 C   0  0  0  0  0  0  0  0  0  0  0  0
    7.8231  -20.7090   22.8249 S   0  0  0  0  0  0  0  0  0  0  0  0
    8.2114  -19.0341   22.2264 C   0  0  0  0  0  0  0  0  0  0  0  0
    7.2106  -18.0464   22.7612 C   0  0  0  0  0  0  0  0  0  0  0  0
    7.4897  -16.6792   22.2261 C   0  0  2  0  0  0  0  0  0  0  0  0
    8.1966  -16.6460   20.9838 N   0  0  0  0  0  0  0  0  0  0  0  0
    8.1861  -15.8474   23.2568 C   0  0  0  0  0  0  0  0  0  0  0  0
    9.4495  -15.6806   23.1486 O   0  0  0  0  0  0  0  0  0  0  0  0
    7.5053  -11.6890   25.2206 C   0  0  0  0  0  0  0  0  0  0  0  0
    6.4290  -12.7545   25.5521 C   0  0  2  0  0  0  0  0  0  0  0  0
    5.3608  -12.0690   26.3270 C   0  0  0  0  0  0  0  0  0  0  0  0
    7.0640  -13.9160   26.2449 C   0  0  0  0  0  0  0  0  0  0  0  0
    8.0987  -14.6678   25.4552 C   0  0  2  0  0  0  0  0  0  0  0  0
    7.4430  -15.2728   24.3122 N   0  0  0  0  0  0  0  0  0  0  0  0
    9.0091  -15.5175   26.1923 C   0  0  0  0  0  0  0  0  0  0  0  0
    9.2205  -16.6840   25.6950 O   0  0  0  0  0  0  0  0  0  0  0  0
    9.7146  -15.2588   27.3996 N   0  0  0  0  0  0  0  0  0  0  0  0
    9.5345  -14.2801   28.4406 C   0  0  0  0  0  0  0  0  0  0  0  0
   10.9617  -13.8370   28.6867 C   0  0  0  0  0  0  0  0  0  0  0  0
   11.8336  -14.9991   28.3005 C   0  0  0  0  0  0  0  0  0  0  0  0
   10.8699  -16.0486   27.8561 C   0  0  1  0  0  0  0  0  0  0  0  0
   10.4678  -16.9110   28.9607 C   0  0  0  0  0  0  0  0  0  0  0  0
    9.1991  -16.9820   29.5123 O   0  0  0  0  0  0  0  0  0  0  0  0
   11.3196  -17.6970   29.5097 O   0  0  0  0  0  0  0  0  0  0  0  0
  1  2  1  0
  2  3  1  0
  4  5  1  0
  4  3  1  0
  5  6  1  6
  7  8  2  0
  7  5  1  0
 10  9  1  1
 10 12  1  0
 11 10  1  0
 13 12  1  1
 13 14  1  0
 14  7  1  0
 15 13  1  0
 16 15  2  0
 17 21  1  0
 17 15  1  0
 18 17  1  0
 19 20  1  0
 19 18  1  0
 20 21  1  0
 21 22  1  1
 22 24  2  0
 22 23  1  0
M  END
$$$$
