MLP.pdb
     RDKit          3D

 24 24  0  0  1  0  0  0  0  0999 V2000
    9.3350  -20.6874   22.9240 C   0  0  0  0  0  0  0  0  0  0  0  0
    9.4288  -20.3234   21.1619 S   0  0  0  0  0  0  0  0  0  0  0  0
    8.9319  -18.6063   20.8173 C   0  0  0  0  0  0  0  0  0  0  0  0
    9.2974  -17.7175   21.9747 C   0  0  0  0  0  0  0  0  0  0  0  0
    8.8214  -16.3219   21.7315 C   0  0  2  0  0  0  0  0  0  0  0  0
    9.3090  -15.7143   20.5327 N   0  0  0  0  0  0  0  0  0  0  0  0
    9.1070  -15.4585   22.9198 C   0  0  0  0  0  0  0  0  0  0  0  0
   10.2272  -14.8432   22.9668 O   0  0  0  0  0  0  0  0  0  0  0  0
    7.5640  -11.9220   25.1403 C   0  0  0  0  0  0  0  0  0  0  0  0
    6.5748  -13.1141   25.2062 C   0  0  2  0  0  0  0  0  0  0  0  0
    5.3376  -12.6182   25.8657 C   0  0  0  0  0  0  0  0  0  0  0  0
    7.2274  -14.2758   25.8821 C   0  0  0  0  0  0  0  0  0  0  0  0
    8.4889  -14.7853   25.2429 C   0  0  2  0  0  0  0  0  0  0  0  0
    8.1462  -15.3436   23.9493 N   0  0  0  0  0  0  0  0  0  0  0  0
    9.3770  -15.5783   26.0653 C   0  0  0  0  0  0  0  0  0  0  0  0
    9.8760  -16.6251   25.5105 O   0  0  0  0  0  0  0  0  0  0  0  0
    9.7876  -15.3769   27.4119 N   0  0  0  0  0  0  0  0  0  0  0  0
    9.2537  -14.5739   28.4816 C   0  0  0  0  0  0  0  0  0  0  0  0
   10.5149  -13.9666   29.0598 C   0  0  0  0  0  0  0  0  0  0  0  0
   11.6241  -14.9340   28.7536 C   0  0  0  0  0  0  0  0  0  0  0  0
   10.9494  -16.0453   28.0205 C   0  0  1  0  0  0  0  0  0  0  0  0
   10.4927  -17.0893   28.9299 C   0  0  0  0  0  0  0  0  0  0  0  0
   11.3047  -17.9776   29.6161 O   0  0  0  0  0  0  0  0  0  0  0  0
    9.2402  -17.2463   29.1562 O   0  0  0  0  0  0  0  0  0  0  0  0
  1  2  1  0
  2  3  1  0
  4  5  1  0
  4  3  1  0
  5  6  1  6
  7  8  2  0
  7  5  1  0
 10  9  1  1
 10 12  1  0
 11 10  1  0
 13 12  1  1
 13 14  1  0
 14  7  1  0
 15 13  1  0
 16 15  2  0
 17 21  1  0
 17 15  1  0
 18 17  1  0
 19 20  1  0
 19 18  1  0
 20 21  1  0
 21 22  1  1
 22 24  2  0
 22 23  1  0
M  END
$$$$
