KMN.pdb
     RDKit          3D

 26 25  0  0  1  0  0  0  0  0999 V2000
    7.1941  -15.6172   20.2013 N   0  0  0  0  0  0  0  0  0  0  0  0
    8.2451  -14.6506   20.2700 C   0  0  1  0  0  0  0  0  0  0  0  0
    7.8115  -13.3229   19.7467 C   0  0  0  0  0  0  0  0  0  0  0  0
    8.3445  -12.9725   18.4034 C   0  0  0  0  0  0  0  0  0  0  0  0
    7.5222  -13.5044   17.2933 C   0  0  0  0  0  0  0  0  0  0  0  0
    8.1697  -13.2629   15.9292 C   0  0  0  0  0  0  0  0  0  0  0  0
    7.5153  -13.9761   14.8830 N   0  0  0  0  0  0  0  0  0  0  0  0
    8.7588  -14.5558   21.6716 C   0  0  0  0  0  0  0  0  0  0  0  0
    9.8634  -14.0579   21.9785 O   0  0  0  0  0  0  0  0  0  0  0  0
    6.3880  -10.7832   26.5868 C   0  0  0  0  0  0  0  0  0  0  0  0
    6.2455  -12.5643   26.3526 S   0  0  0  0  0  0  0  0  0  0  0  0
    7.4816  -13.1720   25.1557 C   0  0  0  0  0  0  0  0  0  0  0  0
    7.4105  -14.6544   25.0198 C   0  0  0  0  0  0  0  0  0  0  0  0
    8.4440  -15.1498   24.0471 C   0  0  2  0  0  0  0  0  0  0  0  0
    7.9480  -15.0603   22.7172 N   0  0  0  0  0  0  0  0  0  0  0  0
    8.8279  -16.5222   24.4482 C   0  0  0  0  0  0  0  0  0  0  0  0
    8.1533  -17.5544   24.2017 O   0  0  0  0  0  0  0  0  0  0  0  0
   12.9446  -18.9223   26.6418 N   0  0  0  0  0  0  0  0  0  0  0  0
   12.9698  -18.7625   25.2324 C   0  0  0  0  0  0  0  0  0  0  0  0
   14.0343  -19.0049   24.6222 O   0  0  0  0  0  0  0  0  0  0  0  0
   11.7802  -18.3236   24.4968 C   0  0  0  0  0  0  0  0  0  0  0  0
   10.6086  -18.0387   25.3843 C   0  0  2  0  0  0  0  0  0  0  0  0
   10.0419  -16.7132   25.1642 N   0  0  0  0  0  0  0  0  0  0  0  0
   10.9912  -18.1847   26.8073 C   0  0  0  0  0  0  0  0  0  0  0  0
   11.4876  -19.3837   27.2649 O   0  0  0  0  0  0  0  0  0  0  0  0
   10.8705  -17.2280   27.6115 O   0  0  0  0  0  0  0  0  0  0  0  0
  2  1  1  1
  3  4  1  0
  3  2  1  0
  4  5  1  0
  6  5  1  0
  7  6  1  0
  8  2  1  0
  8  9  2  0
 10 11  1  0
 11 12  1  0
 12 13  1  0
 14 13  1  1
 14 15  1  0
 15  8  1  0
 16 14  1  0
 17 16  2  0
 18 19  1  0
 19 21  1  0
 20 19  2  0
 22 21  1  6
 22 24  1  0
 22 23  1  0
 23 16  1  0
 24 25  1  0
 26 24  2  0
M  END
$$$$
