KMN.pdb
     RDKit          3D

 26 25  0  0  1  0  0  0  0  0999 V2000
    6.9310  -15.6465   20.1169 N   0  0  0  0  0  0  0  0  0  0  0  0
    8.0523  -14.7644   20.0260 C   0  0  1  0  0  0  0  0  0  0  0  0
    7.7427  -13.5581   19.2050 C   0  0  0  0  0  0  0  0  0  0  0  0
    7.4817  -13.8276   17.7661 C   0  0  0  0  0  0  0  0  0  0  0  0
    8.7040  -14.1769   17.0075 C   0  0  0  0  0  0  0  0  0  0  0  0
    8.4174  -14.3959   15.5215 C   0  0  0  0  0  0  0  0  0  0  0  0
    8.5939  -13.2087   14.7530 N   0  0  0  0  0  0  0  0  0  0  0  0
    8.5246  -14.3983   21.3971 C   0  0  0  0  0  0  0  0  0  0  0  0
    9.5544  -13.7275   21.6253 O   0  0  0  0  0  0  0  0  0  0  0  0
    7.0302  -11.9112   28.4168 C   0  0  0  0  0  0  0  0  0  0  0  0
    6.3864  -12.4927   26.8372 S   0  0  0  0  0  0  0  0  0  0  0  0
    7.5898  -13.5745   25.9937 C   0  0  0  0  0  0  0  0  0  0  0  0
    7.0988  -13.9693   24.6431 C   0  0  0  0  0  0  0  0  0  0  0  0
    8.2033  -14.5940   23.8371 C   0  0  2  0  0  0  0  0  0  0  0  0
    7.7622  -14.8369   22.5070 N   0  0  0  0  0  0  0  0  0  0  0  0
    8.6534  -15.8128   24.5469 C   0  0  0  0  0  0  0  0  0  0  0  0
    7.9013  -16.7618   24.8859 O   0  0  0  0  0  0  0  0  0  0  0  0
   12.1462  -17.6976   22.8565 N   0  0  0  0  0  0  0  0  0  0  0  0
   12.5392  -16.9340   23.9857 C   0  0  0  0  0  0  0  0  0  0  0  0
   13.3106  -15.9648   23.8128 O   0  0  0  0  0  0  0  0  0  0  0  0
   12.0578  -17.2644   25.3303 C   0  0  0  0  0  0  0  0  0  0  0  0
   10.5703  -17.1645   25.4663 C   0  0  2  0  0  0  0  0  0  0  0  0
   10.0298  -15.9434   24.8801 N   0  0  0  0  0  0  0  0  0  0  0  0
   10.1753  -17.2481   26.8908 C   0  0  0  0  0  0  0  0  0  0  0  0
   10.1072  -16.1040   27.6524 O   0  0  0  0  0  0  0  0  0  0  0  0
    9.8987  -18.3517   27.4223 O   0  0  0  0  0  0  0  0  0  0  0  0
  2  1  1  1
  3  4  1  0
  3  2  1  0
  4  5  1  0
  6  5  1  0
  7  6  1  0
  8  2  1  0
  8  9  2  0
 10 11  1  0
 11 12  1  0
 12 13  1  0
 14 13  1  1
 14 15  1  0
 15  8  1  0
 16 14  1  0
 17 16  2  0
 18 19  1  0
 19 21  1  0
 20 19  2  0
 22 21  1  1
 22 24  1  0
 22 23  1  0
 23 16  1  0
 24 25  1  0
 26 24  2  0
M  END
$$$$
