KMN.pdb
     RDKit          3D

 26 25  0  0  1  0  0  0  0  0999 V2000
    7.2599  -15.5597   20.6030 N   0  0  0  0  0  0  0  0  0  0  0  0
    8.3264  -14.6106   20.5292 C   0  0  1  0  0  0  0  0  0  0  0  0
    7.9705  -13.4431   19.6718 C   0  0  0  0  0  0  0  0  0  0  0  0
    7.5130  -13.7878   18.2995 C   0  0  0  0  0  0  0  0  0  0  0  0
    8.6177  -13.8547   17.3165 C   0  0  0  0  0  0  0  0  0  0  0  0
    8.1084  -14.0656   15.8902 C   0  0  0  0  0  0  0  0  0  0  0  0
    9.1612  -14.0535   14.9296 N   0  0  0  0  0  0  0  0  0  0  0  0
    8.7279  -14.1877   21.9067 C   0  0  0  0  0  0  0  0  0  0  0  0
    9.7384  -13.4965   22.1585 O   0  0  0  0  0  0  0  0  0  0  0  0
    5.8866  -10.6910   26.6631 C   0  0  0  0  0  0  0  0  0  0  0  0
    5.9702  -12.4053   27.2126 S   0  0  0  0  0  0  0  0  0  0  0  0
    7.3638  -13.2817   26.4255 C   0  0  0  0  0  0  0  0  0  0  0  0
    7.0469  -13.6287   25.0112 C   0  0  0  0  0  0  0  0  0  0  0  0
    8.2462  -14.2240   24.3277 C   0  0  2  0  0  0  0  0  0  0  0  0
    7.9171  -14.5936   22.9944 N   0  0  0  0  0  0  0  0  0  0  0  0
    8.7306  -15.3516   25.1557 C   0  0  0  0  0  0  0  0  0  0  0  0
    8.8960  -15.3048   26.4014 O   0  0  0  0  0  0  0  0  0  0  0  0
    6.1613  -18.8283   24.9804 N   0  0  0  0  0  0  0  0  0  0  0  0
    7.3536  -18.7972   25.7485 C   0  0  0  0  0  0  0  0  0  0  0  0
    7.2636  -18.6391   26.9859 O   0  0  0  0  0  0  0  0  0  0  0  0
    8.6678  -18.9463   25.1165 C   0  0  0  0  0  0  0  0  0  0  0  0
    9.5362  -17.7361   25.2665 C   0  0  2  0  0  0  0  0  0  0  0  0
    9.0375  -16.5865   24.5205 N   0  0  0  0  0  0  0  0  0  0  0  0
   10.9222  -18.0393   24.8427 C   0  0  0  0  0  0  0  0  0  0  0  0
   11.3823  -17.5882   23.6268 O   0  0  0  0  0  0  0  0  0  0  0  0
   11.6926  -18.7056   25.5771 O   0  0  0  0  0  0  0  0  0  0  0  0
  2  1  1  1
  3  4  1  0
  3  2  1  0
  4  5  1  0
  6  5  1  0
  7  6  1  0
  8  2  1  0
  8  9  2  0
 10 11  1  0
 11 12  1  0
 12 13  1  0
 14 13  1  1
 14 15  1  0
 15  8  1  0
 16 14  1  0
 17 16  2  0
 18 19  1  0
 19 21  1  0
 20 19  2  0
 22 21  1  6
 22 24  1  0
 22 23  1  0
 23 16  1  0
 24 25  1  0
 26 24  2  0
M  END
$$$$
