KMN.pdb
     RDKit          3D

 26 25  0  0  1  0  0  0  0  0999 V2000
    7.3543  -17.3012   21.1357 N   0  0  0  0  0  0  0  0  0  0  0  0
    8.6109  -16.6866   20.8406 C   0  0  1  0  0  0  0  0  0  0  0  0
    8.5741  -15.9442   19.5475 C   0  0  0  0  0  0  0  0  0  0  0  0
    8.5686  -16.8002   18.3315 C   0  0  0  0  0  0  0  0  0  0  0  0
    7.2197  -16.9736   17.7470 C   0  0  0  0  0  0  0  0  0  0  0  0
    7.2237  -17.9447   16.5658 C   0  0  0  0  0  0  0  0  0  0  0  0
    5.9553  -18.0205   15.9201 N   0  0  0  0  0  0  0  0  0  0  0  0
    9.0263  -15.8063   21.9763 C   0  0  0  0  0  0  0  0  0  0  0  0
   10.1314  -15.2260   22.0423 O   0  0  0  0  0  0  0  0  0  0  0  0
    6.7951  -10.9420   27.5074 C   0  0  0  0  0  0  0  0  0  0  0  0
    6.3451  -12.0274   26.1411 S   0  0  0  0  0  0  0  0  0  0  0  0
    7.5402  -13.3951   25.9656 C   0  0  0  0  0  0  0  0  0  0  0  0
    7.2033  -14.2525   24.7940 C   0  0  0  0  0  0  0  0  0  0  0  0
    8.4515  -14.7903   24.1517 C   0  0  2  0  0  0  0  0  0  0  0  0
    8.1156  -15.6168   23.0441 N   0  0  0  0  0  0  0  0  0  0  0  0
    9.2391  -15.4848   25.1954 C   0  0  0  0  0  0  0  0  0  0  0  0
    9.6250  -14.9574   26.2697 O   0  0  0  0  0  0  0  0  0  0  0  0
   10.2662  -20.4798   28.1028 N   0  0  0  0  0  0  0  0  0  0  0  0
   10.7917  -19.8314   26.9557 C   0  0  0  0  0  0  0  0  0  0  0  0
   12.0105  -19.9565   26.7040 O   0  0  0  0  0  0  0  0  0  0  0  0
    9.9345  -19.0299   26.0773 C   0  0  0  0  0  0  0  0  0  0  0  0
   10.3635  -17.5991   25.9782 C   0  0  2  0  0  0  0  0  0  0  0  0
    9.5972  -16.8461   24.9920 N   0  0  0  0  0  0  0  0  0  0  0  0
   11.8062  -17.5137   25.6561 C   0  0  0  0  0  0  0  0  0  0  0  0
   12.7323  -17.4331   26.6707 O   0  0  0  0  0  0  0  0  0  0  0  0
   12.2048  -17.5134   24.4653 O   0  0  0  0  0  0  0  0  0  0  0  0
  2  1  1  1
  3  4  1  0
  3  2  1  0
  4  5  1  0
  6  5  1  0
  7  6  1  0
  8  2  1  0
  8  9  2  0
 10 11  1  0
 11 12  1  0
 12 13  1  0
 14 13  1  1
 14 15  1  0
 15  8  1  0
 16 14  1  0
 17 16  2  0
 18 19  1  0
 19 21  1  0
 20 19  2  0
 22 21  1  6
 22 24  1  0
 22 23  1  0
 23 16  1  0
 24 25  1  0
 26 24  2  0
M  END
$$$$
