KMN.pdb
     RDKit          3D

 26 25  0  0  1  0  0  0  0  0999 V2000
    7.4757  -16.1041   20.3224 N   0  0  0  0  0  0  0  0  0  0  0  0
    8.8342  -15.6590   20.3193 C   0  0  1  0  0  0  0  0  0  0  0  0
    9.0851  -14.6534   19.2466 C   0  0  0  0  0  0  0  0  0  0  0  0
    8.0777  -14.6369   18.1529 C   0  0  0  0  0  0  0  0  0  0  0  0
    8.5022  -13.8374   16.9816 C   0  0  0  0  0  0  0  0  0  0  0  0
    7.4810  -13.8932   15.8448 C   0  0  0  0  0  0  0  0  0  0  0  0
    7.8349  -13.0466   14.7542 N   0  0  0  0  0  0  0  0  0  0  0  0
    9.2011  -15.1343   21.6711 C   0  0  0  0  0  0  0  0  0  0  0  0
   10.3030  -14.6097   21.9413 O   0  0  0  0  0  0  0  0  0  0  0  0
    5.8463  -11.2823   27.0604 C   0  0  0  0  0  0  0  0  0  0  0  0
    5.8171  -13.0402   26.6647 S   0  0  0  0  0  0  0  0  0  0  0  0
    7.3961  -13.5743   25.9222 C   0  0  0  0  0  0  0  0  0  0  0  0
    7.1680  -14.2728   24.6256 C   0  0  0  0  0  0  0  0  0  0  0  0
    8.4760  -14.6304   23.9766 C   0  0  2  0  0  0  0  0  0  0  0  0
    8.2453  -15.2368   22.7109 N   0  0  0  0  0  0  0  0  0  0  0  0
    9.2336  -15.4863   24.9175 C   0  0  0  0  0  0  0  0  0  0  0  0
    9.4234  -15.2206   26.1318 O   0  0  0  0  0  0  0  0  0  0  0  0
    9.9217  -19.6850   27.7892 N   0  0  0  0  0  0  0  0  0  0  0  0
    9.3130  -19.1792   26.6119 C   0  0  0  0  0  0  0  0  0  0  0  0
    8.0878  -18.9285   26.6328 O   0  0  0  0  0  0  0  0  0  0  0  0
   10.0930  -18.9511   25.3919 C   0  0  0  0  0  0  0  0  0  0  0  0
   10.6237  -17.5556   25.2823 C   0  0  2  0  0  0  0  0  0  0  0  0
    9.7967  -16.7011   24.4379 N   0  0  0  0  0  0  0  0  0  0  0  0
   12.0113  -17.5699   24.7657 C   0  0  0  0  0  0  0  0  0  0  0  0
   13.0115  -18.1625   25.5019 O   0  0  0  0  0  0  0  0  0  0  0  0
   12.2958  -17.0475   23.6599 O   0  0  0  0  0  0  0  0  0  0  0  0
  2  1  1  1
  3  4  1  0
  3  2  1  0
  4  5  1  0
  6  5  1  0
  7  6  1  0
  8  2  1  0
  8  9  2  0
 10 11  1  0
 11 12  1  0
 12 13  1  0
 14 13  1  1
 14 15  1  0
 15  8  1  0
 16 14  1  0
 17 16  2  0
 18 19  1  0
 19 21  1  0
 20 19  2  0
 22 21  1  6
 22 24  1  0
 22 23  1  0
 23 16  1  0
 24 25  1  0
 26 24  2  0
M  END
$$$$
