FLA.pdb
     RDKit          3D

 25 25  0  0  1  0  0  0  0  0999 V2000
   11.3440  -17.0565   21.8536 N   0  0  0  0  0  0  0  0  0  0  0  0
   10.2951  -16.0641   21.8781 C   0  0  1  0  0  0  0  0  0  0  0  0
    9.1650  -16.4192   20.9392 C   0  0  0  0  0  0  0  0  0  0  0  0
    8.3835  -15.1977   20.6555 C   0  0  0  0  0  0  0  0  0  0  0  0
    8.9347  -14.1572   19.9546 C   0  0  0  0  0  0  0  0  0  0  0  0
    8.2067  -13.0001   19.6816 C   0  0  0  0  0  0  0  0  0  0  0  0
    6.8981  -12.9342   20.1445 C   0  0  0  0  0  0  0  0  0  0  0  0
    6.3268  -13.9575   20.8447 C   0  0  0  0  0  0  0  0  0  0  0  0
    7.0887  -15.0930   21.0947 C   0  0  0  0  0  0  0  0  0  0  0  0
    9.8277  -15.9068   23.2742 C   0  0  0  0  0  0  0  0  0  0  0  0
   10.4144  -16.5141   24.2107 O   0  0  0  0  0  0  0  0  0  0  0  0
    7.9947  -11.6815   26.7107 C   0  0  0  0  0  0  0  0  0  0  0  0
    7.1215  -12.9306   26.3255 C   0  0  1  0  0  0  0  0  0  0  0  0
    5.7061  -12.3975   26.2916 C   0  0  0  0  0  0  0  0  0  0  0  0
    7.6339  -13.4717   25.0408 C   0  0  0  0  0  0  0  0  0  0  0  0
    8.4988  -14.6494   25.0442 C   0  0  2  0  0  0  0  0  0  0  0  0
    8.7272  -15.0894   23.6289 N   0  0  0  0  0  0  0  0  0  0  0  0
    8.2076  -15.8493   25.7793 C   0  0  0  0  0  0  0  0  0  0  0  0
    8.3016  -15.8941   27.0313 O   0  0  0  0  0  0  0  0  0  0  0  0
    6.4371  -19.0495   25.1728 C   0  0  0  0  0  0  0  0  0  0  0  0
    7.4626  -18.2463   25.9758 C   0  0  2  0  0  0  0  0  0  0  0  0
    7.7908  -17.0867   25.1768 N   0  0  0  0  0  0  0  0  0  0  0  0
    8.6687  -19.0636   26.2774 C   0  0  0  0  0  0  0  0  0  0  0  0
    9.5729  -18.6477   27.2444 O   0  0  0  0  0  0  0  0  0  0  0  0
    8.9235  -20.1448   25.6867 O   0  0  0  0  0  0  0  0  0  0  0  0
  2 10  1  0
  2  1  1  1
  3  2  1  0
  4  3  1  0
  5  4  2  0
  6  5  1  0
  7  6  2  0
  7  8  1  0
  8  9  2  0
  9  4  1  0
 10 11  2  0
 13 12  1  6
 14 13  1  0
 15 13  1  0
 16 15  1  6
 17 16  1  0
 17 10  1  0
 18 22  1  0
 18 16  1  0
 19 18  2  0
 21 20  1  6
 21 22  1  0
 23 21  1  0
 23 24  1  0
 25 23  2  0
M  END
$$$$
