FLA.pdb
     RDKit          3D

 25 25  0  0  1  0  0  0  0  0999 V2000
    8.0915  -16.9519   21.9486 N   0  0  0  0  0  0  0  0  0  0  0  0
    9.4147  -16.3929   22.0977 C   0  0  1  0  0  0  0  0  0  0  0  0
    9.7459  -15.4298   20.9808 C   0  0  0  0  0  0  0  0  0  0  0  0
    8.6192  -14.4878   20.8180 C   0  0  0  0  0  0  0  0  0  0  0  0
    7.3468  -14.9453   20.5956 C   0  0  0  0  0  0  0  0  0  0  0  0
    6.2765  -14.0657   20.4402 C   0  0  0  0  0  0  0  0  0  0  0  0
    6.5412  -12.7037   20.5182 C   0  0  0  0  0  0  0  0  0  0  0  0
    7.8000  -12.2237   20.7388 C   0  0  0  0  0  0  0  0  0  0  0  0
    8.8382  -13.1360   20.8881 C   0  0  0  0  0  0  0  0  0  0  0  0
    9.5081  -15.7517   23.4291 C   0  0  0  0  0  0  0  0  0  0  0  0
   10.5687  -15.1647   23.7763 O   0  0  0  0  0  0  0  0  0  0  0  0
    5.9602  -12.4075   26.1327 C   0  0  0  0  0  0  0  0  0  0  0  0
    7.3192  -12.9981   25.6079 C   0  0  1  0  0  0  0  0  0  0  0  0
    8.3687  -12.0547   26.1529 C   0  0  0  0  0  0  0  0  0  0  0  0
    7.4189  -14.4054   26.0719 C   0  0  0  0  0  0  0  0  0  0  0  0
    8.6036  -15.1948   25.7424 C   0  0  2  0  0  0  0  0  0  0  0  0
    8.4434  -15.7599   24.3627 N   0  0  0  0  0  0  0  0  0  0  0  0
    9.0874  -16.2801   26.5504 C   0  0  0  0  0  0  0  0  0  0  0  0
    9.3652  -16.1239   27.7656 O   0  0  0  0  0  0  0  0  0  0  0  0
    9.6047  -19.9798   26.1799 C   0  0  0  0  0  0  0  0  0  0  0  0
    9.8224  -18.6594   26.9220 C   0  0  2  0  0  0  0  0  0  0  0  0
    9.2979  -17.6179   26.0669 N   0  0  0  0  0  0  0  0  0  0  0  0
   11.2628  -18.4451   27.2268 C   0  0  0  0  0  0  0  0  0  0  0  0
   11.8095  -18.9322   28.4055 O   0  0  0  0  0  0  0  0  0  0  0  0
   12.0381  -17.8276   26.4517 O   0  0  0  0  0  0  0  0  0  0  0  0
  2 10  1  0
  2  1  1  6
  3  2  1  0
  4  3  1  0
  5  4  2  0
  6  5  1  0
  7  6  2  0
  7  8  1  0
  8  9  2  0
  9  4  1  0
 10 11  2  0
 13 12  1  1
 14 13  1  0
 15 13  1  0
 16 15  1  1
 17 16  1  0
 17 10  1  0
 18 22  1  0
 18 16  1  0
 19 18  2  0
 21 20  1  6
 21 22  1  0
 23 21  1  0
 23 24  1  0
 25 23  2  0
M  END
$$$$
