FLA.pdb
     RDKit          3D

 25 25  0  0  1  0  0  0  0  0999 V2000
    5.6752  -17.8221   24.4528 N   0  0  0  0  0  0  0  0  0  0  0  0
    6.2907  -16.5369   24.6868 C   0  0  1  0  0  0  0  0  0  0  0  0
    6.6691  -16.3521   26.1385 C   0  0  0  0  0  0  0  0  0  0  0  0
    7.0069  -14.9313   26.3628 C   0  0  0  0  0  0  0  0  0  0  0  0
    6.0637  -13.9504   26.2016 C   0  0  0  0  0  0  0  0  0  0  0  0
    6.3714  -12.6068   26.4102 C   0  0  0  0  0  0  0  0  0  0  0  0
    7.6708  -12.2915   26.7888 C   0  0  0  0  0  0  0  0  0  0  0  0
    8.6278  -13.2506   26.9558 C   0  0  0  0  0  0  0  0  0  0  0  0
    8.2778  -14.5781   26.7373 C   0  0  0  0  0  0  0  0  0  0  0  0
    7.4595  -16.4034   23.7876 C   0  0  0  0  0  0  0  0  0  0  0  0
    8.0822  -17.4297   23.4019 O   0  0  0  0  0  0  0  0  0  0  0  0
    7.5556  -12.1763   20.2033 C   0  0  0  0  0  0  0  0  0  0  0  0
    7.5110  -13.5984   20.8715 C   0  0  1  0  0  0  0  0  0  0  0  0
    7.1409  -14.5294   19.7380 C   0  0  0  0  0  0  0  0  0  0  0  0
    8.8307  -13.8511   21.5042 C   0  0  0  0  0  0  0  0  0  0  0  0
    9.0310  -15.0560   22.3060 C   0  0  2  0  0  0  0  0  0  0  0  0
    7.9324  -15.1524   23.3222 N   0  0  0  0  0  0  0  0  0  0  0  0
   10.2440  -15.3449   23.0203 C   0  0  0  0  0  0  0  0  0  0  0  0
   11.3413  -15.4861   22.4251 O   0  0  0  0  0  0  0  0  0  0  0  0
   11.4992  -15.2991   26.5140 C   0  0  0  0  0  0  0  0  0  0  0  0
   11.5586  -15.8805   25.0998 C   0  0  2  0  0  0  0  0  0  0  0  0
   10.3259  -15.4979   24.4478 N   0  0  0  0  0  0  0  0  0  0  0  0
   11.7256  -17.3586   25.1327 C   0  0  0  0  0  0  0  0  0  0  0  0
   12.8958  -17.9206   25.6230 O   0  0  0  0  0  0  0  0  0  0  0  0
   10.8378  -18.1531   24.7284 O   0  0  0  0  0  0  0  0  0  0  0  0
  2 10  1  0
  2  1  1  1
  3  2  1  0
  4  3  1  0
  5  4  2  0
  6  5  1  0
  7  6  2  0
  7  8  1  0
  8  9  2  0
  9  4  1  0
 10 11  2  0
 13 12  1  6
 14 13  1  0
 15 13  1  0
 16 15  1  1
 17 16  1  0
 17 10  1  0
 18 22  1  0
 18 16  1  0
 19 18  2  0
 21 20  1  1
 21 22  1  0
 23 21  1  0
 23 24  1  0
 25 23  2  0
M  END
$$$$
