FLA.pdb
     RDKit          3D

 25 25  0  0  1  0  0  0  0  0999 V2000
    8.5069  -16.4923   26.2222 N   0  0  0  0  0  0  0  0  0  0  0  0
    7.3428  -16.7296   25.4012 C   0  0  1  0  0  0  0  0  0  0  0  0
    6.1756  -15.8650   25.8195 C   0  0  0  0  0  0  0  0  0  0  0  0
    6.6891  -14.5405   26.2262 C   0  0  0  0  0  0  0  0  0  0  0  0
    5.9306  -13.4113   26.0611 C   0  0  0  0  0  0  0  0  0  0  0  0
    6.4051  -12.1567   26.4409 C   0  0  0  0  0  0  0  0  0  0  0  0
    7.6777  -12.0863   26.9948 C   0  0  0  0  0  0  0  0  0  0  0  0
    8.4522  -13.1968   27.1694 C   0  0  0  0  0  0  0  0  0  0  0  0
    7.9399  -14.4280   26.7767 C   0  0  0  0  0  0  0  0  0  0  0  0
    7.7135  -16.5134   23.9841 C   0  0  0  0  0  0  0  0  0  0  0  0
    7.0565  -17.0735   23.0651 O   0  0  0  0  0  0  0  0  0  0  0  0
    7.3849  -12.4696   20.9902 C   0  0  0  0  0  0  0  0  0  0  0  0
    7.4638  -13.9748   21.4364 C   0  0  1  0  0  0  0  0  0  0  0  0
    6.7261  -14.7234   20.3482 C   0  0  0  0  0  0  0  0  0  0  0  0
    8.8961  -14.3311   21.6021 C   0  0  0  0  0  0  0  0  0  0  0  0
    9.2593  -15.6297   22.1649 C   0  0  2  0  0  0  0  0  0  0  0  0
    8.7954  -15.6893   23.5897 N   0  0  0  0  0  0  0  0  0  0  0  0
   10.5998  -16.1472   22.1733 C   0  0  0  0  0  0  0  0  0  0  0  0
   11.2454  -16.3216   21.1097 O   0  0  0  0  0  0  0  0  0  0  0  0
   13.5800  -15.7537   23.4625 C   0  0  0  0  0  0  0  0  0  0  0  0
   12.6847  -16.9851   23.3093 C   0  0  2  0  0  0  0  0  0  0  0  0
   11.3205  -16.5087   23.3640 N   0  0  0  0  0  0  0  0  0  0  0  0
   12.9593  -17.9855   24.3759 C   0  0  0  0  0  0  0  0  0  0  0  0
   11.9363  -18.4251   25.2041 O   0  0  0  0  0  0  0  0  0  0  0  0
   14.1026  -18.4709   24.5759 O   0  0  0  0  0  0  0  0  0  0  0  0
  2 10  1  0
  2  1  1  1
  3  2  1  0
  4  3  1  0
  5  4  2  0
  6  5  1  0
  7  6  2  0
  7  8  1  0
  8  9  2  0
  9  4  1  0
 10 11  2  0
 13 12  1  6
 14 13  1  0
 15 13  1  0
 16 15  1  1
 17 16  1  0
 17 10  1  0
 18 22  1  0
 18 16  1  0
 19 18  2  0
 21 20  1  1
 21 22  1  0
 23 21  1  0
 23 24  1  0
 25 23  2  0
M  END
$$$$
