FLA.pdb
     RDKit          3D

 25 25  0  0  1  0  0  0  0  0999 V2000
    5.5368  -17.7971   24.5078 N   0  0  0  0  0  0  0  0  0  0  0  0
    6.2088  -16.5390   24.7336 C   0  0  1  0  0  0  0  0  0  0  0  0
    6.5747  -16.3516   26.1881 C   0  0  0  0  0  0  0  0  0  0  0  0
    6.9578  -14.9406   26.4022 C   0  0  0  0  0  0  0  0  0  0  0  0
    6.0101  -13.9513   26.4307 C   0  0  0  0  0  0  0  0  0  0  0  0
    6.3602  -12.6169   26.6316 C   0  0  0  0  0  0  0  0  0  0  0  0
    7.7069  -12.3197   26.8029 C   0  0  0  0  0  0  0  0  0  0  0  0
    8.6693  -13.2875   26.7786 C   0  0  0  0  0  0  0  0  0  0  0  0
    8.2761  -14.6053   26.5754 C   0  0  0  0  0  0  0  0  0  0  0  0
    7.3954  -16.4734   23.8502 C   0  0  0  0  0  0  0  0  0  0  0  0
    8.0264  -17.5252   23.5582 O   0  0  0  0  0  0  0  0  0  0  0  0
    7.6674  -12.1477   20.4597 C   0  0  0  0  0  0  0  0  0  0  0  0
    7.5062  -13.5576   21.1356 C   0  0  1  0  0  0  0  0  0  0  0  0
    6.7127  -14.3625   20.1300 C   0  0  0  0  0  0  0  0  0  0  0  0
    8.8625  -14.0770   21.4459 C   0  0  0  0  0  0  0  0  0  0  0  0
    9.0111  -15.2401   22.3177 C   0  0  2  0  0  0  0  0  0  0  0  0
    7.8766  -15.2614   23.2981 N   0  0  0  0  0  0  0  0  0  0  0  0
   10.1929  -15.5117   23.0889 C   0  0  0  0  0  0  0  0  0  0  0  0
   11.3219  -15.6192   22.5485 O   0  0  0  0  0  0  0  0  0  0  0  0
   11.3759  -15.1331   26.5200 C   0  0  0  0  0  0  0  0  0  0  0  0
   11.4293  -15.9627   25.2353 C   0  0  2  0  0  0  0  0  0  0  0  0
   10.2061  -15.6835   24.5165 N   0  0  0  0  0  0  0  0  0  0  0  0
   11.5692  -17.4128   25.5372 C   0  0  0  0  0  0  0  0  0  0  0  0
   12.6783  -17.8809   26.2274 O   0  0  0  0  0  0  0  0  0  0  0  0
   10.7117  -18.2660   25.1911 O   0  0  0  0  0  0  0  0  0  0  0  0
  2 10  1  0
  2  1  1  1
  3  2  1  0
  4  3  1  0
  5  4  2  0
  6  5  1  0
  7  6  2  0
  7  8  1  0
  8  9  2  0
  9  4  1  0
 10 11  2  0
 13 12  1  6
 14 13  1  0
 15 13  1  0
 16 15  1  1
 17 16  1  0
 17 10  1  0
 18 22  1  0
 18 16  1  0
 19 18  2  0
 21 20  1  1
 21 22  1  0
 23 21  1  0
 23 24  1  0
 25 23  2  0
M  END
$$$$
