FLA.pdb
     RDKit          3D

 25 25  0  0  1  0  0  0  0  0999 V2000
    6.0490  -17.4312   25.4942 N   0  0  0  0  0  0  0  0  0  0  0  0
    6.7375  -16.1906   25.2251 C   0  0  1  0  0  0  0  0  0  0  0  0
    7.4408  -15.6615   26.4541 C   0  0  0  0  0  0  0  0  0  0  0  0
    7.1094  -14.2300   26.6099 C   0  0  0  0  0  0  0  0  0  0  0  0
    7.6490  -13.4903   27.6294 C   0  0  0  0  0  0  0  0  0  0  0  0
    7.3431  -12.1392   27.7860 C   0  0  0  0  0  0  0  0  0  0  0  0
    6.4697  -11.5629   26.8716 C   0  0  0  0  0  0  0  0  0  0  0  0
    5.9194  -12.2789   25.8478 C   0  0  0  0  0  0  0  0  0  0  0  0
    6.2516  -13.6235   25.7287 C   0  0  0  0  0  0  0  0  0  0  0  0
    7.6748  -16.4064   24.0994 C   0  0  0  0  0  0  0  0  0  0  0  0
    8.1522  -17.5533   23.8837 O   0  0  0  0  0  0  0  0  0  0  0  0
    8.0487  -12.4596   20.1864 C   0  0  0  0  0  0  0  0  0  0  0  0
    7.7452  -13.7715   20.9973 C   0  0  1  0  0  0  0  0  0  0  0  0
    6.6997  -14.4857   20.1694 C   0  0  0  0  0  0  0  0  0  0  0  0
    9.0241  -14.5028   21.1850 C   0  0  0  0  0  0  0  0  0  0  0  0
    9.0981  -15.5974   22.1501 C   0  0  2  0  0  0  0  0  0  0  0  0
    8.0779  -15.3680   23.2250 N   0  0  0  0  0  0  0  0  0  0  0  0
   10.3032  -15.9747   22.8358 C   0  0  0  0  0  0  0  0  0  0  0  0
   10.7865  -15.2684   23.7556 O   0  0  0  0  0  0  0  0  0  0  0  0
   12.4114  -18.9402   23.3869 C   0  0  0  0  0  0  0  0  0  0  0  0
   12.3311  -17.4254   23.1854 C   0  0  2  0  0  0  0  0  0  0  0  0
   11.0591  -17.1639   22.5494 N   0  0  0  0  0  0  0  0  0  0  0  0
   13.4676  -16.9315   22.3620 C   0  0  0  0  0  0  0  0  0  0  0  0
   13.2521  -16.4875   21.0651 O   0  0  0  0  0  0  0  0  0  0  0  0
   14.6506  -16.8923   22.7884 O   0  0  0  0  0  0  0  0  0  0  0  0
  2 10  1  0
  2  1  1  1
  3  2  1  0
  4  3  1  0
  5  4  2  0
  6  5  1  0
  7  6  2  0
  7  8  1  0
  8  9  2  0
  9  4  1  0
 10 11  2  0
 13 12  1  6
 14 13  1  0
 15 13  1  0
 16 15  1  1
 17 16  1  0
 17 10  1  0
 18 22  1  0
 18 16  1  0
 19 18  2  0
 21 20  1  6
 21 22  1  0
 23 21  1  0
 23 24  1  0
 25 23  2  0
M  END
$$$$
