FLA.pdb
     RDKit          3D

 25 25  0  0  1  0  0  0  0  0999 V2000
    5.5724  -17.6600   24.5308 N   0  0  0  0  0  0  0  0  0  0  0  0
    6.2565  -16.4145   24.7880 C   0  0  1  0  0  0  0  0  0  0  0  0
    6.5983  -16.2540   26.2516 C   0  0  0  0  0  0  0  0  0  0  0  0
    7.0210  -14.8583   26.4890 C   0  0  0  0  0  0  0  0  0  0  0  0
    8.3329  -14.5544   26.7429 C   0  0  0  0  0  0  0  0  0  0  0  0
    8.7428  -13.2412   26.9686 C   0  0  0  0  0  0  0  0  0  0  0  0
    7.7749  -12.2448   26.9278 C   0  0  0  0  0  0  0  0  0  0  0  0
    6.4621  -12.5225   26.6769 C   0  0  0  0  0  0  0  0  0  0  0  0
    6.0969  -13.8457   26.4575 C   0  0  0  0  0  0  0  0  0  0  0  0
    7.4597  -16.3513   23.9273 C   0  0  0  0  0  0  0  0  0  0  0  0
    8.0713  -17.4090   23.6151 O   0  0  0  0  0  0  0  0  0  0  0  0
    7.7209  -12.2097   20.3573 C   0  0  0  0  0  0  0  0  0  0  0  0
    7.6171  -13.6062   21.0714 C   0  0  1  0  0  0  0  0  0  0  0  0
    7.0257  -14.5179   20.0189 C   0  0  0  0  0  0  0  0  0  0  0  0
    8.9716  -13.9779   21.5542 C   0  0  0  0  0  0  0  0  0  0  0  0
    9.1315  -15.1126   22.4608 C   0  0  2  0  0  0  0  0  0  0  0  0
    7.9787  -15.1356   23.4196 N   0  0  0  0  0  0  0  0  0  0  0  0
   10.3041  -15.3332   23.2616 C   0  0  0  0  0  0  0  0  0  0  0  0
   11.4445  -15.4382   22.7449 O   0  0  0  0  0  0  0  0  0  0  0  0
   11.3526  -15.0551   26.7941 C   0  0  0  0  0  0  0  0  0  0  0  0
   11.4992  -15.7491   25.4383 C   0  0  2  0  0  0  0  0  0  0  0  0
   10.2950  -15.4530   24.6945 N   0  0  0  0  0  0  0  0  0  0  0  0
   11.6956  -17.2147   25.6029 C   0  0  0  0  0  0  0  0  0  0  0  0
   10.8041  -18.1098   25.0287 O   0  0  0  0  0  0  0  0  0  0  0  0
   12.6545  -17.7041   26.2539 O   0  0  0  0  0  0  0  0  0  0  0  0
  2 10  1  0
  2  1  1  1
  3  2  1  0
  4  3  1  0
  5  4  2  0
  6  5  1  0
  7  6  2  0
  7  8  1  0
  8  9  2  0
  9  4  1  0
 10 11  2  0
 13 12  1  6
 14 13  1  0
 15 13  1  0
 16 15  1  1
 17 16  1  0
 17 10  1  0
 18 22  1  0
 18 16  1  0
 19 18  2  0
 21 20  1  1
 21 22  1  0
 23 21  1  0
 23 24  1  0
 25 23  2  0
M  END
$$$$
