HPE.pdb
     RDKit          3D

 27 28  0  0  1  0  0  0  0  0999 V2000
   28.6175  -22.0848  -19.5428 N   0  0  0  0  0  0  0  0  0  0  0  0
   28.8688  -22.6661  -18.2721 C   0  0  1  0  0  0  0  0  0  0  0  0
   27.7990  -22.3126  -17.2458 C   0  0  0  0  0  0  0  0  0  0  0  0
   27.6457  -20.8454  -17.1081 C   0  0  0  0  0  0  0  0  0  0  0  0
   28.6241  -19.8843  -17.0429 C   0  0  0  0  0  0  0  0  0  0  0  0
   28.0088  -18.6915  -16.9184 N   0  0  0  0  0  0  0  0  0  0  0  0
   26.6806  -18.8971  -16.9056 C   0  0  0  0  0  0  0  0  0  0  0  0
   26.4706  -20.2140  -17.0218 N   0  0  0  0  0  0  0  0  0  0  0  0
   29.0815  -24.1503  -18.2984 C   0  0  0  0  0  0  0  0  0  0  0  0
   28.4360  -24.7939  -19.1995 O   0  0  0  0  0  0  0  0  0  0  0  0
   29.9447  -24.8203  -17.3887 N   0  0  0  0  0  0  0  0  0  0  0  0
   30.7776  -24.2947  -16.3486 C   0  0  0  0  0  0  0  0  0  0  0  0
   31.2800  -25.4789  -15.5779 C   0  0  0  0  0  0  0  0  0  0  0  0
   31.4033  -26.5194  -16.6660 C   0  0  0  0  0  0  0  0  0  0  0  0
   30.1171  -26.2582  -17.4149 C   0  0  1  0  0  0  0  0  0  0  0  0
   28.9718  -26.9710  -16.8141 C   0  0  0  0  0  0  0  0  0  0  0  0
   28.6320  -26.6514  -15.6287 O   0  0  0  0  0  0  0  0  0  0  0  0
   28.2343  -27.9734  -17.4553 N   0  0  0  0  0  0  0  0  0  0  0  0
   27.0326  -28.6243  -16.8976 C   0  0  1  0  0  0  0  0  0  0  0  0
   25.8151  -27.8848  -17.2827 C   0  0  0  0  0  0  0  0  0  0  0  0
   24.5499  -28.5091  -16.8099 C   0  0  0  0  0  0  0  0  0  0  0  0
   23.3107  -27.8304  -17.2496 C   0  0  0  0  0  0  0  0  0  0  0  0
   23.2913  -26.7193  -17.8589 O   0  0  0  0  0  0  0  0  0  0  0  0
   27.0914  -30.0552  -16.9582 C   0  0  0  0  0  0  0  0  0  0  0  0
   26.5256  -30.9014  -16.2172 O   0  0  0  0  0  0  0  0  0  0  0  0
   22.0539  -28.4135  -17.0005 O   0  0  0  0  0  0  0  0  0  0  0  0
   27.8902  -30.6240  -17.9855 O   0  0  0  0  0  0  0  0  0  0  0  0
  2  1  1  6
  2  9  1  0
  3  4  1  0
  3  2  1  0
  4  8  1  0
  4  5  2  0
  5  6  1  0
  7  6  1  0
  8  7  2  0
  9 11  1  0
  9 10  2  0
 11 12  1  0
 13 12  1  0
 14 15  1  0
 14 13  1  0
 15 11  1  0
 15 16  1  1
 16 17  2  0
 18 16  1  0
 19 18  1  0
 19 20  1  6
 21 20  1  0
 22 21  1  0
 23 22  2  0
 24 19  1  0
 25 24  2  0
 26 22  1  0
 27 24  1  0
M  END
$$$$
