HPE.pdb
     RDKit          3D

 27 28  0  0  1  0  0  0  0  0999 V2000
   19.7758  -10.5534  -15.9523 N   0  0  0  0  0  0  0  0  0  0  0  0
   19.5591   -9.1753  -15.6887 C   0  0  1  0  0  0  0  0  0  0  0  0
   18.3087   -8.6384  -16.3749 C   0  0  0  0  0  0  0  0  0  0  0  0
   18.3970   -8.7795  -17.8470 C   0  0  0  0  0  0  0  0  0  0  0  0
   17.7680   -9.6902  -18.6596 C   0  0  0  0  0  0  0  0  0  0  0  0
   18.1531   -9.4335  -19.9255 N   0  0  0  0  0  0  0  0  0  0  0  0
   19.0007   -8.3904  -19.9092 C   0  0  0  0  0  0  0  0  0  0  0  0
   19.1421   -7.9997  -18.6368 N   0  0  0  0  0  0  0  0  0  0  0  0
   19.5374   -8.8166  -14.2328 C   0  0  0  0  0  0  0  0  0  0  0  0
   18.8430   -9.5835  -13.4761 O   0  0  0  0  0  0  0  0  0  0  0  0
   20.2401   -7.6989  -13.7049 N   0  0  0  0  0  0  0  0  0  0  0  0
   21.0633   -6.7300  -14.3649 C   0  0  0  0  0  0  0  0  0  0  0  0
   21.3501   -5.6650  -13.3489 C   0  0  0  0  0  0  0  0  0  0  0  0
   21.4070   -6.4703  -12.0722 C   0  0  0  0  0  0  0  0  0  0  0  0
   20.2207   -7.3801  -12.2922 C   0  0  1  0  0  0  0  0  0  0  0  0
   18.9526   -6.7469  -11.8779 C   0  0  0  0  0  0  0  0  0  0  0  0
   18.4906   -5.8130  -12.6109 O   0  0  0  0  0  0  0  0  0  0  0  0
   18.2234   -7.1000  -10.7362 N   0  0  0  0  0  0  0  0  0  0  0  0
   16.8971   -6.5582  -10.3812 C   0  0  1  0  0  0  0  0  0  0  0  0
   15.8395   -7.5487  -10.6608 C   0  0  0  0  0  0  0  0  0  0  0  0
   15.7536   -8.6450   -9.6583 C   0  0  0  0  0  0  0  0  0  0  0  0
   14.6267   -9.5849   -9.8488 C   0  0  0  0  0  0  0  0  0  0  0  0
   13.4076   -9.2387   -9.8355 O   0  0  0  0  0  0  0  0  0  0  0  0
   16.9096   -5.7973   -9.1665 C   0  0  0  0  0  0  0  0  0  0  0  0
   17.7520   -5.8159   -8.2311 O   0  0  0  0  0  0  0  0  0  0  0  0
   14.8714  -10.9548  -10.0617 O   0  0  0  0  0  0  0  0  0  0  0  0
   15.8362   -4.8894   -8.9642 O   0  0  0  0  0  0  0  0  0  0  0  0
  2  1  1  1
  2  9  1  0
  3  4  1  0
  3  2  1  0
  4  8  1  0
  4  5  2  0
  5  6  1  0
  7  6  1  0
  8  7  2  0
  9 11  1  0
  9 10  2  0
 11 12  1  0
 13 12  1  0
 14 15  1  0
 14 13  1  0
 15 11  1  0
 15 16  1  6
 16 17  2  0
 18 16  1  0
 19 18  1  0
 19 20  1  1
 21 20  1  0
 22 21  1  0
 23 22  2  0
 24 19  1  0
 25 24  2  0
 26 22  1  0
 27 24  1  0
M  END
$$$$
