HPE.pdb
     RDKit          3D

 27 28  0  0  1  0  0  0  0  0999 V2000
   28.0842  -35.8335   -7.2052 N   0  0  0  0  0  0  0  0  0  0  0  0
   28.9774  -34.9268   -6.5758 C   0  0  1  0  0  0  0  0  0  0  0  0
   28.2524  -33.7862   -5.8715 C   0  0  0  0  0  0  0  0  0  0  0  0
   27.3616  -33.0551   -6.8026 C   0  0  0  0  0  0  0  0  0  0  0  0
   27.6998  -32.3174   -7.9101 C   0  0  0  0  0  0  0  0  0  0  0  0
   26.5563  -31.8397   -8.4401 N   0  0  0  0  0  0  0  0  0  0  0  0
   25.5278  -32.2652   -7.6866 C   0  0  0  0  0  0  0  0  0  0  0  0
   26.0304  -33.0054   -6.6910 N   0  0  0  0  0  0  0  0  0  0  0  0
   29.9553  -35.5681   -5.6372 C   0  0  0  0  0  0  0  0  0  0  0  0
   29.4991  -36.5284   -4.9213 O   0  0  0  0  0  0  0  0  0  0  0  0
   31.3109  -35.1515   -5.5353 N   0  0  0  0  0  0  0  0  0  0  0  0
   32.0267  -34.1501   -6.2680 C   0  0  0  0  0  0  0  0  0  0  0  0
   33.3499  -33.9955   -5.5794 C   0  0  0  0  0  0  0  0  0  0  0  0
   33.6096  -35.4042   -5.1001 C   0  0  0  0  0  0  0  0  0  0  0  0
   32.2302  -35.7597   -4.5957 C   0  0  1  0  0  0  0  0  0  0  0  0
   32.0087  -35.2922   -3.2126 C   0  0  0  0  0  0  0  0  0  0  0  0
   31.5467  -34.1159   -3.0526 O   0  0  0  0  0  0  0  0  0  0  0  0
   32.2717  -36.0503   -2.0654 N   0  0  0  0  0  0  0  0  0  0  0  0
   32.0177  -35.6029   -0.6819 C   0  0  1  0  0  0  0  0  0  0  0  0
   30.7468  -36.1607   -0.1806 C   0  0  0  0  0  0  0  0  0  0  0  0
   30.4195  -35.7666    1.2164 C   0  0  0  0  0  0  0  0  0  0  0  0
   29.1650  -36.3383    1.7539 C   0  0  0  0  0  0  0  0  0  0  0  0
   28.1010  -36.4689    1.0777 O   0  0  0  0  0  0  0  0  0  0  0  0
   33.2005  -35.5865    0.1277 C   0  0  0  0  0  0  0  0  0  0  0  0
   34.2913  -36.1881   -0.0548 O   0  0  0  0  0  0  0  0  0  0  0  0
   29.0990  -36.7784    3.0894 O   0  0  0  0  0  0  0  0  0  0  0  0
   33.1653  -34.7902    1.3032 O   0  0  0  0  0  0  0  0  0  0  0  0
  2  1  1  1
  2  9  1  0
  3  4  1  0
  3  2  1  0
  4  8  1  0
  4  5  2  0
  5  6  1  0
  7  6  1  0
  8  7  2  0
  9 11  1  0
  9 10  2  0
 11 12  1  0
 13 12  1  0
 14 15  1  0
 14 13  1  0
 15 11  1  0
 15 16  1  1
 16 17  2  0
 18 16  1  0
 19 18  1  0
 19 20  1  1
 21 20  1  0
 22 21  1  0
 23 22  2  0
 24 19  1  0
 25 24  2  0
 26 22  1  0
 27 24  1  0
M  END
$$$$
