HPE.pdb
     RDKit          3D

 27 28  0  0  1  0  0  0  0  0999 V2000
   27.6578  -20.9642  -16.9384 N   0  0  0  0  0  0  0  0  0  0  0  0
   27.3328  -20.3115  -15.7202 C   0  0  1  0  0  0  0  0  0  0  0  0
   27.0823  -18.8196  -15.9051 C   0  0  0  0  0  0  0  0  0  0  0  0
   28.2637  -18.1412  -16.4875 C   0  0  0  0  0  0  0  0  0  0  0  0
   28.5072  -17.8213  -17.8003 C   0  0  0  0  0  0  0  0  0  0  0  0
   29.7095  -17.2140  -17.8503 N   0  0  0  0  0  0  0  0  0  0  0  0
   30.2080  -17.1539  -16.6034 C   0  0  0  0  0  0  0  0  0  0  0  0
   29.3181  -17.7221  -15.7807 N   0  0  0  0  0  0  0  0  0  0  0  0
   26.1940  -20.9317  -14.9671 C   0  0  0  0  0  0  0  0  0  0  0  0
   25.2346  -21.3935  -15.6805 O   0  0  0  0  0  0  0  0  0  0  0  0
   26.1637  -21.0136  -13.5479 N   0  0  0  0  0  0  0  0  0  0  0  0
   27.1883  -20.7398  -12.5851 C   0  0  0  0  0  0  0  0  0  0  0  0
   26.5206  -20.7792  -11.2428 C   0  0  0  0  0  0  0  0  0  0  0  0
   25.4684  -21.8415  -11.4578 C   0  0  0  0  0  0  0  0  0  0  0  0
   24.9802  -21.4418  -12.8309 C   0  0  1  0  0  0  0  0  0  0  0  0
   23.9508  -20.3850  -12.7669 C   0  0  0  0  0  0  0  0  0  0  0  0
   24.3425  -19.1739  -12.8163 O   0  0  0  0  0  0  0  0  0  0  0  0
   22.5753  -20.6207  -12.6548 N   0  0  0  0  0  0  0  0  0  0  0  0
   21.5380  -19.9714  -13.4801 C   0  0  1  0  0  0  0  0  0  0  0  0
   22.0196  -19.7769  -14.8613 C   0  0  0  0  0  0  0  0  0  0  0  0
   21.0345  -19.1179  -15.7610 C   0  0  0  0  0  0  0  0  0  0  0  0
   21.4710  -18.9631  -17.1664 C   0  0  0  0  0  0  0  0  0  0  0  0
   20.9010  -19.5240  -18.1496 O   0  0  0  0  0  0  0  0  0  0  0  0
   20.2184  -20.4601  -13.2079 C   0  0  0  0  0  0  0  0  0  0  0  0
   19.7715  -21.6320  -13.3174 O   0  0  0  0  0  0  0  0  0  0  0  0
   22.5796  -18.1548  -17.4817 O   0  0  0  0  0  0  0  0  0  0  0  0
   19.2630  -19.5141  -12.7500 O   0  0  0  0  0  0  0  0  0  0  0  0
  2  1  1  6
  2  9  1  0
  3  4  1  0
  3  2  1  0
  4  8  1  0
  4  5  2  0
  5  6  1  0
  7  6  1  0
  8  7  2  0
  9 11  1  0
  9 10  2  0
 11 12  1  0
 13 12  1  0
 14 15  1  0
 14 13  1  0
 15 11  1  0
 15 16  1  1
 16 17  2  0
 18 16  1  0
 19 18  1  0
 19 20  1  6
 21 20  1  0
 22 21  1  0
 23 22  2  0
 24 19  1  0
 25 24  2  0
 26 22  1  0
 27 24  1  0
M  END
$$$$
