HPE.pdb
     RDKit          3D

 27 28  0  0  1  0  0  0  0  0999 V2000
   33.4994  -36.2225   -5.9007 N   0  0  0  0  0  0  0  0  0  0  0  0
   34.0144  -35.4128   -4.8543 C   0  0  1  0  0  0  0  0  0  0  0  0
   33.1761  -34.1624   -4.6162 C   0  0  0  0  0  0  0  0  0  0  0  0
   33.1673  -33.2824   -5.8080 C   0  0  0  0  0  0  0  0  0  0  0  0
   34.2326  -32.7097   -6.4579 C   0  0  0  0  0  0  0  0  0  0  0  0
   33.7382  -31.9915   -7.4857 N   0  0  0  0  0  0  0  0  0  0  0  0
   32.3992  -32.1093   -7.4820 C   0  0  0  0  0  0  0  0  0  0  0  0
   32.0622  -32.8985   -6.4548 N   0  0  0  0  0  0  0  0  0  0  0  0
   34.2336  -36.1358   -3.5590 C   0  0  0  0  0  0  0  0  0  0  0  0
   33.3234  -36.9730   -3.2225 O   0  0  0  0  0  0  0  0  0  0  0  0
   35.3767  -35.9206   -2.7413 N   0  0  0  0  0  0  0  0  0  0  0  0
   36.4848  -35.0302   -2.9189 C   0  0  0  0  0  0  0  0  0  0  0  0
   37.2632  -35.0723   -1.6379 C   0  0  0  0  0  0  0  0  0  0  0  0
   37.0620  -36.5060   -1.2070 C   0  0  0  0  0  0  0  0  0  0  0  0
   35.5905  -36.6600   -1.5144 C   0  0  1  0  0  0  0  0  0  0  0  0
   34.7399  -36.1718   -0.4104 C   0  0  0  0  0  0  0  0  0  0  0  0
   33.9236  -35.2278   -0.6656 O   0  0  0  0  0  0  0  0  0  0  0  0
   34.7686  -36.6727    0.8966 N   0  0  0  0  0  0  0  0  0  0  0  0
   33.6275  -36.6531    1.8328 C   0  0  1  0  0  0  0  0  0  0  0  0
   32.3683  -36.9506    1.1233 C   0  0  0  0  0  0  0  0  0  0  0  0
   31.1882  -37.1004    2.0172 C   0  0  0  0  0  0  0  0  0  0  0  0
   29.8998  -36.6608    1.4372 C   0  0  0  0  0  0  0  0  0  0  0  0
   29.6514  -36.6487    0.1945 O   0  0  0  0  0  0  0  0  0  0  0  0
   33.9327  -37.2485    3.1005 C   0  0  0  0  0  0  0  0  0  0  0  0
   34.6445  -38.2568    3.3490 O   0  0  0  0  0  0  0  0  0  0  0  0
   28.8563  -36.2217    2.2740 O   0  0  0  0  0  0  0  0  0  0  0  0
   33.3681  -36.6374    4.2516 O   0  0  0  0  0  0  0  0  0  0  0  0
  2  1  1  6
  2  9  1  0
  3  4  1  0
  3  2  1  0
  4  8  1  0
  4  5  2  0
  5  6  1  0
  7  6  1  0
  8  7  2  0
  9 11  1  0
  9 10  2  0
 11 12  1  0
 13 12  1  0
 14 15  1  0
 14 13  1  0
 15 11  1  0
 15 16  1  1
 16 17  2  0
 18 16  1  0
 19 18  1  0
 19 20  1  6
 21 20  1  0
 22 21  1  0
 23 22  2  0
 24 19  1  0
 25 24  2  0
 26 22  1  0
 27 24  1  0
M  END
$$$$
