RPT.pdb
     RDKit          3D

 26 26  0  0  1  0  0  0  0  0999 V2000
   19.4281  -22.5935  -15.1260 N   0  0  0  0  0  0  0  0  0  0  0  0
   19.1688  -22.6153  -13.7113 C   0  0  0  0  0  0  0  0  0  0  0  0
   18.0171  -22.9930  -13.3245 N   0  0  0  0  0  0  0  0  0  0  0  0
   20.1327  -22.2379  -12.7479 N   0  0  0  0  0  0  0  0  0  0  0  0
   21.4462  -21.8734  -13.1554 C   0  0  0  0  0  0  0  0  0  0  0  0
   21.6343  -20.3810  -13.3132 C   0  0  0  0  0  0  0  0  0  0  0  0
   23.0065  -20.0459  -13.8348 C   0  0  0  0  0  0  0  0  0  0  0  0
   22.9487  -19.3869  -15.2011 C   0  0  2  0  0  0  0  0  0  0  0  0
   21.8337  -19.7838  -15.9713 N   0  0  0  0  0  0  0  0  0  0  0  0
   24.2311  -19.4451  -15.8974 C   0  0  0  0  0  0  0  0  0  0  0  0
   24.4021  -20.4718  -16.6509 O   0  0  0  0  0  0  0  0  0  0  0  0
   17.7270  -23.1506  -12.3402 N   0  0  0  0  0  0  0  0  0  0  0  0
   25.3123  -18.5065  -15.8463 C   0  0  0  0  0  0  0  0  0  0  0  0
   25.2173  -17.2225  -15.2297 C   0  0  0  0  0  0  0  0  0  0  0  0
   26.6517  -16.9420  -14.7551 C   0  0  0  0  0  0  0  0  0  0  0  0
   27.4506  -17.5528  -15.8776 C   0  0  2  0  0  0  0  0  0  0  0  0
   26.6270  -18.6941  -16.3892 C   0  0  0  0  0  0  0  0  0  0  0  0
   27.2821  -19.9391  -15.9588 O   0  0  0  0  0  0  0  0  0  0  0  0
   27.4967  -20.1771  -14.7573 C   0  0  0  0  0  0  0  0  0  0  0  0
   26.3213  -23.5661  -15.9828 C   0  0  2  0  0  0  0  0  0  0  0  0
   27.3401  -23.2452  -17.0273 O   0  0  0  0  0  0  0  0  0  0  0  0
   26.7203  -22.9033  -18.2293 C   0  0  2  0  0  0  0  0  0  0  0  0
   28.3084  -22.1551  -16.6253 N   0  0  0  0  0  0  0  0  0  0  0  0
   27.6727  -20.8805  -16.9409 C   0  0  0  0  0  0  0  0  0  0  0  0
   29.5234  -22.2822  -17.4358 O   0  0  0  0  0  0  0  0  0  0  0  0
   30.3809  -23.3734  -17.2628 O   0  0  0  0  0  0  0  0  0  0  0  0
  2  4  1  0
  2  1  1  0
  3  2  2  0
  4  5  1  0
  6  5  1  0
  6  7  1  0
  7  8  1  0
  8  9  1  6
  8 10  1  0
 10 12  1  0
 11 10  2  0
 12 16  1  0
 12 13  1  0
 13 14  1  0
 14 15  1  0
 16 15  1  0
 17 23  1  0
 16 17  1  1
 18 17  2  0
 20 19  1  6
 20 22  1  0
 21 20  1  0
 22 24  1  0
 22 23  1  1
 24 25  1  0
 26 24  2  0
M  END
$$$$
