RPT.pdb
     RDKit          3D

 26 26  0  0  1  0  0  0  0  0999 V2000
   29.1041  -26.5974  -17.8515 N   0  0  0  0  0  0  0  0  0  0  0  0
   28.0275  -27.4806  -17.4908 C   0  0  0  0  0  0  0  0  0  0  0  0
   28.2299  -28.7331  -17.5856 N   0  0  0  0  0  0  0  0  0  0  0  0
   26.7702  -27.0152  -17.0411 N   0  0  0  0  0  0  0  0  0  0  0  0
   26.6452  -25.7069  -16.4963 C   0  0  0  0  0  0  0  0  0  0  0  0
   25.6075  -24.8598  -17.1985 C   0  0  0  0  0  0  0  0  0  0  0  0
   24.3724  -24.6820  -16.3558 C   0  0  0  0  0  0  0  0  0  0  0  0
   24.6445  -23.8424  -15.1207 C   0  0  2  0  0  0  0  0  0  0  0  0
   25.3668  -24.5292  -14.1206 N   0  0  0  0  0  0  0  0  0  0  0  0
   23.4491  -23.1475  -14.6505 C   0  0  0  0  0  0  0  0  0  0  0  0
   22.6366  -23.8594  -13.9547 O   0  0  0  0  0  0  0  0  0  0  0  0
   27.5174  -29.4765  -17.4536 N   0  0  0  0  0  0  0  0  0  0  0  0
   23.0740  -21.7816  -14.8657 C   0  0  0  0  0  0  0  0  0  0  0  0
   23.8565  -20.8552  -15.6189 C   0  0  0  0  0  0  0  0  0  0  0  0
   22.8130  -19.8870  -16.1979 C   0  0  0  0  0  0  0  0  0  0  0  0
   21.8317  -19.8061  -15.0570 C   0  0  2  0  0  0  0  0  0  0  0  0
   21.8891  -21.1384  -14.3756 C   0  0  0  0  0  0  0  0  0  0  0  0
   20.6428  -21.8518  -14.6952 O   0  0  0  0  0  0  0  0  0  0  0  0
   20.4189  -22.2856  -15.8389 C   0  0  0  0  0  0  0  0  0  0  0  0
   19.0796  -24.6554  -12.2727 C   0  0  2  0  0  0  0  0  0  0  0  0
   18.1634  -23.5092  -12.5532 O   0  0  0  0  0  0  0  0  0  0  0  0
   18.1900  -22.5908  -11.5036 C   0  0  2  0  0  0  0  0  0  0  0  0
   18.4499  -22.8001  -13.8581 N   0  0  0  0  0  0  0  0  0  0  0  0
   19.6838  -22.0442  -13.6722 C   0  0  0  0  0  0  0  0  0  0  0  0
   17.3621  -21.8555  -14.1294 O   0  0  0  0  0  0  0  0  0  0  0  0
   17.5520  -20.4823  -13.9442 O   0  0  0  0  0  0  0  0  0  0  0  0
  2  4  1  0
  2  1  1  0
  3  2  2  0
  4  5  1  0
  6  5  1  0
  6  7  1  0
  7  8  1  0
  8  9  1  1
  8 10  1  0
 10 12  1  0
 11 10  2  0
 12 16  1  0
 12 13  1  0
 13 14  1  0
 14 15  1  0
 16 15  1  0
 17 23  1  0
 16 17  1  6
 18 17  2  0
 20 19  1  1
 20 22  1  0
 21 20  1  0
 22 24  1  0
 22 23  1  6
 24 25  1  0
 26 24  2  0
M  END
$$$$
