RPT.pdb
     RDKit          3D

 26 26  0  0  1  0  0  0  0  0999 V2000
   28.3575  -25.8777  -17.0180 N   0  0  0  0  0  0  0  0  0  0  0  0
   26.9287  -25.8320  -17.1783 C   0  0  0  0  0  0  0  0  0  0  0  0
   26.4134  -26.5269  -18.1112 N   0  0  0  0  0  0  0  0  0  0  0  0
   26.0873  -25.0543  -16.3495 N   0  0  0  0  0  0  0  0  0  0  0  0
   26.6242  -24.3794  -15.2179 C   0  0  0  0  0  0  0  0  0  0  0  0
   26.9398  -22.9237  -15.4800 C   0  0  0  0  0  0  0  0  0  0  0  0
   25.6990  -22.0714  -15.4468 C   0  0  0  0  0  0  0  0  0  0  0  0
   25.5220  -21.3789  -14.1076 C   0  0  2  0  0  0  0  0  0  0  0  0
   24.8396  -22.1644  -13.1531 N   0  0  0  0  0  0  0  0  0  0  0  0
   25.0234  -20.0139  -14.2528 C   0  0  0  0  0  0  0  0  0  0  0  0
   23.7551  -19.8725  -14.1031 O   0  0  0  0  0  0  0  0  0  0  0  0
   25.4003  -26.6031  -18.3249 N   0  0  0  0  0  0  0  0  0  0  0  0
   25.7670  -18.8228  -14.5374 C   0  0  0  0  0  0  0  0  0  0  0  0
   27.1911  -18.7812  -14.6268 C   0  0  0  0  0  0  0  0  0  0  0  0
   27.4580  -17.6426  -15.6236 C   0  0  0  0  0  0  0  0  0  0  0  0
   26.3630  -16.6751  -15.2549 C   0  0  2  0  0  0  0  0  0  0  0  0
   25.2223  -17.5164  -14.7715 C   0  0  0  0  0  0  0  0  0  0  0  0
   24.1765  -17.4785  -15.8055 O   0  0  0  0  0  0  0  0  0  0  0  0
   24.3606  -17.9710  -16.9324 C   0  0  0  0  0  0  0  0  0  0  0  0
   20.9796  -19.1527  -15.7957 C   0  0  2  0  0  0  0  0  0  0  0  0
   20.7089  -17.6835  -15.7813 O   0  0  0  0  0  0  0  0  0  0  0  0
   20.4779  -17.2393  -14.4793 C   0  0  2  0  0  0  0  0  0  0  0  0
   21.8011  -16.8524  -16.4170 N   0  0  0  0  0  0  0  0  0  0  0  0
   22.9370  -16.8664  -15.5016 C   0  0  0  0  0  0  0  0  0  0  0  0
   21.3262  -15.4716  -16.5479 O   0  0  0  0  0  0  0  0  0  0  0  0
   20.3170  -15.1519  -17.4619 O   0  0  0  0  0  0  0  0  0  0  0  0
  2  4  1  0
  2  1  1  0
  3  2  2  0
  4  5  1  0
  6  5  1  0
  6  7  1  0
  7  8  1  0
  8  9  1  1
  8 10  1  0
 10 12  1  0
 11 10  2  0
 12 16  1  0
 12 13  1  0
 13 14  1  0
 14 15  1  0
 16 15  1  0
 17 23  1  0
 16 17  1  6
 18 17  2  0
 20 19  1  6
 20 22  1  0
 21 20  1  0
 22 24  1  0
 22 23  1  6
 24 25  1  0
 26 24  2  0
M  END
$$$$
