RPT.pdb
     RDKit          3D

 26 26  0  0  1  0  0  0  0  0999 V2000
   23.8849  -22.2622  -17.1490 N   0  0  0  0  0  0  0  0  0  0  0  0
   22.5129  -22.4902  -17.5159 C   0  0  0  0  0  0  0  0  0  0  0  0
   22.1583  -23.6842  -17.7757 N   0  0  0  0  0  0  0  0  0  0  0  0
   21.5569  -21.4515  -17.5976 N   0  0  0  0  0  0  0  0  0  0  0  0
   21.9527  -20.0987  -17.4042 C   0  0  0  0  0  0  0  0  0  0  0  0
   20.8169  -19.1120  -17.5583 C   0  0  0  0  0  0  0  0  0  0  0  0
   21.2898  -17.6912  -17.4009 C   0  0  0  0  0  0  0  0  0  0  0  0
   21.6837  -17.3798  -15.9683 C   0  0  2  0  0  0  0  0  0  0  0  0
   20.6291  -17.5487  -15.0447 N   0  0  0  0  0  0  0  0  0  0  0  0
   22.4049  -16.1148  -15.8559 C   0  0  0  0  0  0  0  0  0  0  0  0
   21.6708  -15.0602  -15.8638 O   0  0  0  0  0  0  0  0  0  0  0  0
   21.2090  -23.9876  -18.0666 N   0  0  0  0  0  0  0  0  0  0  0  0
   23.8173  -15.9057  -15.7375 C   0  0  0  0  0  0  0  0  0  0  0  0
   24.7556  -16.9552  -15.5009 C   0  0  0  0  0  0  0  0  0  0  0  0
   26.0397  -16.4521  -16.1788 C   0  0  0  0  0  0  0  0  0  0  0  0
   25.9615  -14.9764  -15.8834 C   0  0  2  0  0  0  0  0  0  0  0  0
   24.5012  -14.6482  -15.8327 C   0  0  0  0  0  0  0  0  0  0  0  0
   24.1790  -13.8801  -17.0454 O   0  0  0  0  0  0  0  0  0  0  0  0
   24.0927  -14.4297  -18.1574 C   0  0  0  0  0  0  0  0  0  0  0  0
   21.2284  -11.1954  -17.1912 C   0  0  2  0  0  0  0  0  0  0  0  0
   22.5738  -10.6284  -17.5074 O   0  0  0  0  0  0  0  0  0  0  0  0
   23.1192  -10.0029  -16.3861 C   0  0  2  0  0  0  0  0  0  0  0  0
   23.5544  -11.6429  -18.0522 N   0  0  0  0  0  0  0  0  0  0  0  0
   23.9638  -12.4856  -16.9338 C   0  0  0  0  0  0  0  0  0  0  0  0
   24.7343  -10.9338  -18.5565 O   0  0  0  0  0  0  0  0  0  0  0  0
   24.6581  -10.1729  -19.7276 O   0  0  0  0  0  0  0  0  0  0  0  0
  2  4  1  0
  2  1  1  0
  3  2  2  0
  4  5  1  0
  6  5  1  0
  6  7  1  0
  7  8  1  0
  8  9  1  1
  8 10  1  0
 10 12  1  0
 11 10  2  0
 12 16  1  0
 12 13  1  0
 13 14  1  0
 14 15  1  0
 16 15  1  0
 17 23  1  0
 16 17  1  6
 18 17  2  0
 20 19  1  6
 20 22  1  0
 21 20  1  0
 22 24  1  0
 22 23  1  6
 24 25  1  0
 26 24  2  0
M  END
$$$$
