RPT.pdb
     RDKit          3D

 26 26  0  0  1  0  0  0  0  0999 V2000
   28.1669  -22.1811  -15.5301 N   0  0  0  0  0  0  0  0  0  0  0  0
   28.2568  -21.1059  -16.4815 C   0  0  0  0  0  0  0  0  0  0  0  0
   28.8485  -21.3366  -17.5839 N   0  0  0  0  0  0  0  0  0  0  0  0
   27.7195  -19.8202  -16.2407 N   0  0  0  0  0  0  0  0  0  0  0  0
   26.3114  -19.6179  -16.2640 C   0  0  0  0  0  0  0  0  0  0  0  0
   25.5661  -20.6688  -17.0562 C   0  0  0  0  0  0  0  0  0  0  0  0
   24.2246  -20.9771  -16.4460 C   0  0  0  0  0  0  0  0  0  0  0  0
   24.3583  -21.6230  -15.0787 C   0  0  2  0  0  0  0  0  0  0  0  0
   25.1953  -22.7601  -15.0723 N   0  0  0  0  0  0  0  0  0  0  0  0
   23.0652  -21.8057  -14.4250 C   0  0  0  0  0  0  0  0  0  0  0  0
   22.3227  -22.7290  -14.9223 O   0  0  0  0  0  0  0  0  0  0  0  0
   29.0808  -20.6311  -18.3093 N   0  0  0  0  0  0  0  0  0  0  0  0
   22.5271  -21.0902  -13.3064 C   0  0  0  0  0  0  0  0  0  0  0  0
   23.2064  -20.0196  -12.6506 C   0  0  0  0  0  0  0  0  0  0  0  0
   22.0651  -19.1379  -12.1201 C   0  0  0  0  0  0  0  0  0  0  0  0
   21.0517  -20.1831  -11.7307 C   0  0  1  0  0  0  0  0  0  0  0  0
   21.2581  -21.3234  -12.6792 C   0  0  0  0  0  0  0  0  0  0  0  0
   20.1203  -21.3336  -13.6118 O   0  0  0  0  0  0  0  0  0  0  0  0
   20.1041  -20.6099  -14.6228 C   0  0  0  0  0  0  0  0  0  0  0  0
   17.2461  -24.4092  -12.9434 C   0  0  2  0  0  0  0  0  0  0  0  0
   17.5606  -23.8275  -14.2830 O   0  0  0  0  0  0  0  0  0  0  0  0
   16.5120  -24.0529  -15.1749 C   0  0  1  0  0  0  0  0  0  0  0  0
   17.8921  -22.3522  -14.2487 N   0  0  0  0  0  0  0  0  0  0  0  0
   19.0251  -22.1892  -13.3442 C   0  0  0  0  0  0  0  0  0  0  0  0
   16.7461  -21.6249  -13.6946 O   0  0  0  0  0  0  0  0  0  0  0  0
   15.6101  -21.3894  -14.4756 O   0  0  0  0  0  0  0  0  0  0  0  0
  2  4  1  0
  2  1  1  0
  3  2  2  0
  4  5  1  0
  6  5  1  0
  6  7  1  0
  7  8  1  0
  8  9  1  6
  8 10  1  0
 10 12  1  0
 11 10  2  0
 12 16  1  0
 12 13  1  0
 13 14  1  0
 14 15  1  0
 16 15  1  0
 17 23  1  0
 16 17  1  6
 18 17  2  0
 20 19  1  6
 20 22  1  0
 21 20  1  0
 22 24  1  0
 22 23  1  6
 24 25  1  0
 26 24  2  0
M  END
$$$$
