RPT.pdb
     RDKit          3D

 26 26  0  0  1  0  0  0  0  0999 V2000
   40.2345   -8.5580   -6.6869 N   0  0  0  0  0  0  0  0  0  0  0  0
   39.8337   -9.9380   -6.7516 C   0  0  0  0  0  0  0  0  0  0  0  0
   39.5005  -10.5109   -5.6656 N   0  0  0  0  0  0  0  0  0  0  0  0
   39.7968  -10.6713   -7.9601 N   0  0  0  0  0  0  0  0  0  0  0  0
   40.9978  -11.1928   -8.5169 C   0  0  0  0  0  0  0  0  0  0  0  0
   41.6554  -12.2436   -7.6505 C   0  0  0  0  0  0  0  0  0  0  0  0
   42.8608  -12.8442   -8.3240 C   0  0  0  0  0  0  0  0  0  0  0  0
   43.5246  -13.9020   -7.4609 C   0  0  2  0  0  0  0  0  0  0  0  0
   44.1400  -13.3792   -6.3026 N   0  0  0  0  0  0  0  0  0  0  0  0
   44.3566  -14.8119   -8.2438 C   0  0  0  0  0  0  0  0  0  0  0  0
   45.5951  -14.4826   -8.3367 O   0  0  0  0  0  0  0  0  0  0  0  0
   39.2062  -11.5015   -5.5654 N   0  0  0  0  0  0  0  0  0  0  0  0
   43.9666  -16.0166   -8.9140 C   0  0  0  0  0  0  0  0  0  0  0  0
   42.7045  -16.6556   -8.7229 C   0  0  0  0  0  0  0  0  0  0  0  0
   42.4415  -17.3472  -10.0697 C   0  0  0  0  0  0  0  0  0  0  0  0
   43.8344  -17.7819  -10.4465 C   0  0  1  0  0  0  0  0  0  0  0  0
   44.7539  -16.7574   -9.8571 C   0  0  0  0  0  0  0  0  0  0  0  0
   45.2815  -15.9474  -10.9661 O   0  0  0  0  0  0  0  0  0  0  0  0
   44.5341  -15.2439  -11.6681 C   0  0  0  0  0  0  0  0  0  0  0  0
   49.4114  -16.5190  -11.9159 C   0  0  2  0  0  0  0  0  0  0  0  0
   48.7896  -15.1622  -11.9812 O   0  0  0  0  0  0  0  0  0  0  0  0
   49.4463  -14.3656  -12.9194 C   0  0  1  0  0  0  0  0  0  0  0  0
   47.3066  -15.1806  -12.2775 N   0  0  0  0  0  0  0  0  0  0  0  0
   46.6713  -15.9757  -11.2321 C   0  0  0  0  0  0  0  0  0  0  0  0
   47.0918  -15.8482  -13.5649 O   0  0  0  0  0  0  0  0  0  0  0  0
   46.7603  -17.2060  -13.6135 O   0  0  0  0  0  0  0  0  0  0  0  0
  2  4  1  0
  2  1  1  0
  3  2  2  0
  4  5  1  0
  6  5  1  0
  6  7  1  0
  7  8  1  0
  8  9  1  1
  8 10  1  0
 10 12  1  0
 11 10  2  0
 12 16  1  0
 12 13  1  0
 13 14  1  0
 14 15  1  0
 16 15  1  0
 17 23  1  0
 16 17  1  6
 18 17  2  0
 20 19  1  1
 20 22  1  0
 21 20  1  0
 22 24  1  0
 22 23  1  1
 24 25  1  0
 26 24  2  0
M  END
$$$$
