RPT.pdb
     RDKit          3D

 26 26  0  0  1  0  0  0  0  0999 V2000
   19.5192  -23.8372   -7.2287 N   0  0  0  0  0  0  0  0  0  0  0  0
   18.6505  -24.3052   -8.2754 C   0  0  0  0  0  0  0  0  0  0  0  0
   17.5005  -24.7368   -7.9439 N   0  0  0  0  0  0  0  0  0  0  0  0
   19.0219  -24.3037   -9.6399 N   0  0  0  0  0  0  0  0  0  0  0  0
   19.9012  -23.3034  -10.1404 C   0  0  0  0  0  0  0  0  0  0  0  0
   19.5159  -22.7960  -11.5121 C   0  0  0  0  0  0  0  0  0  0  0  0
   20.7048  -22.2482  -12.2560 C   0  0  0  0  0  0  0  0  0  0  0  0
   21.1378  -20.8967  -11.7170 C   0  0  2  0  0  0  0  0  0  0  0  0
   20.0997  -19.9398  -11.6958 N   0  0  0  0  0  0  0  0  0  0  0  0
   22.3876  -20.4371  -12.3168 C   0  0  0  0  0  0  0  0  0  0  0  0
   22.2579  -19.6576  -13.3299 O   0  0  0  0  0  0  0  0  0  0  0  0
   16.7652  -25.0723   -8.5955 N   0  0  0  0  0  0  0  0  0  0  0  0
   23.7291  -20.7439  -11.9179 C   0  0  0  0  0  0  0  0  0  0  0  0
   24.0571  -21.4506  -10.7218 C   0  0  0  0  0  0  0  0  0  0  0  0
   25.3680  -22.1707  -11.0749 C   0  0  0  0  0  0  0  0  0  0  0  0
   26.0368  -21.1391  -11.9465 C   0  0  1  0  0  0  0  0  0  0  0  0
   24.9266  -20.4024  -12.6301 C   0  0  0  0  0  0  0  0  0  0  0  0
   24.9247  -20.8176  -14.0415 O   0  0  0  0  0  0  0  0  0  0  0  0
   24.6502  -21.9839  -14.3740 C   0  0  0  0  0  0  0  0  0  0  0  0
   23.1426  -18.7878  -17.0008 C   0  0  2  0  0  0  0  0  0  0  0  0
   24.6240  -18.9186  -17.1421 O   0  0  0  0  0  0  0  0  0  0  0  0
   25.2657  -17.7749  -16.6665 C   0  0  2  0  0  0  0  0  0  0  0  0
   25.1989  -20.1435  -16.4662 N   0  0  0  0  0  0  0  0  0  0  0  0
   25.2432  -19.8616  -15.0355 C   0  0  0  0  0  0  0  0  0  0  0  0
   26.5705  -20.3445  -16.9433 O   0  0  0  0  0  0  0  0  0  0  0  0
   26.8093  -20.8237  -18.2353 O   0  0  0  0  0  0  0  0  0  0  0  0
  2  4  1  0
  2  1  1  0
  3  2  2  0
  4  5  1  0
  6  5  1  0
  6  7  1  0
  7  8  1  0
  8  9  1  6
  8 10  1  0
 10 12  1  0
 11 10  2  0
 12 16  1  0
 12 13  1  0
 13 14  1  0
 14 15  1  0
 16 15  1  0
 17 23  1  0
 16 17  1  6
 18 17  2  0
 20 19  1  6
 20 22  1  0
 21 20  1  0
 22 24  1  0
 22 23  1  6
 24 25  1  0
 26 24  2  0
M  END
$$$$
