FKP.pdb
     RDKit          3D

 28 29  0  0  1  0  0  0  0  0999 V2000
   21.9760  -18.1683  -15.1180 N   0  0  0  0  0  0  0  0  0  0  0  0
   21.7506  -17.1534  -16.0946 C   0  0  1  0  0  0  0  0  0  0  0  0
   20.2715  -16.9111  -16.3005 C   0  0  0  0  0  0  0  0  0  0  0  0
   19.6287  -17.9915  -17.0630 C   0  0  0  0  0  0  0  0  0  0  0  0
   19.7912  -18.0070  -18.4288 C   0  0  0  0  0  0  0  0  0  0  0  0
   19.2308  -18.9757  -19.2385 C   0  0  0  0  0  0  0  0  0  0  0  0
   18.4852  -19.9527  -18.6307 C   0  0  0  0  0  0  0  0  0  0  0  0
   18.3070  -19.9600  -17.2640 C   0  0  0  0  0  0  0  0  0  0  0  0
   18.8736  -18.9879  -16.4857 C   0  0  0  0  0  0  0  0  0  0  0  0
   22.4746  -15.8896  -15.8037 C   0  0  0  0  0  0  0  0  0  0  0  0
   22.5269  -15.5678  -14.5669 O   0  0  0  0  0  0  0  0  0  0  0  0
   23.0687  -15.0866  -16.7989 N   0  0  0  0  0  0  0  0  0  0  0  0
   23.7953  -13.8836  -16.4168 C   0  0  1  0  0  0  0  0  0  0  0  0
   24.8479  -13.6890  -17.4620 C   0  0  0  0  0  0  0  0  0  0  0  0
   25.9065  -14.7220  -17.5572 C   0  0  0  0  0  0  0  0  0  0  0  0
   26.8650  -14.5017  -18.7036 C   0  0  0  0  0  0  0  0  0  0  0  0
   27.8721  -15.6286  -18.8176 C   0  0  0  0  0  0  0  0  0  0  0  0
   28.6795  -15.3428  -20.0066 N   0  0  0  0  0  0  0  0  0  0  0  0
   22.9535  -12.7260  -16.1492 C   0  0  0  0  0  0  0  0  0  0  0  0
   21.8534  -12.6755  -16.8137 O   0  0  0  0  0  0  0  0  0  0  0  0
   23.1702  -11.6474  -15.2631 N   0  0  0  0  0  0  0  0  0  0  0  0
   24.4162  -11.4959  -14.4709 C   0  0  0  0  0  0  0  0  0  0  0  0
   24.0719  -10.6379  -13.2902 C   0  0  0  0  0  0  0  0  0  0  0  0
   22.5696  -10.4845  -13.3667 C   0  0  0  0  0  0  0  0  0  0  0  0
   22.3920  -10.4953  -14.8970 C   0  0  1  0  0  0  0  0  0  0  0  0
   22.9737   -9.2357  -15.3996 C   0  0  0  0  0  0  0  0  0  0  0  0
   24.0480   -9.2416  -16.0441 O   0  0  0  0  0  0  0  0  0  0  0  0
   22.3626   -8.0308  -15.1788 O   0  0  0  0  0  0  0  0  0  0  0  0
  2  1  1  1
  3  2  1  0
  4  3  1  0
  4  9  1  0
  5  4  2  0
  6  5  1  0
  6  7  2  0
  7  8  1  0
  8  9  2  0
 10  2  1  0
 10 11  2  0
 12 10  1  0
 13 12  1  0
 13 14  1  6
 15 14  1  0
 16 15  1  0
 17 16  1  0
 18 17  1  0
 19 13  1  0
 20 19  2  0
 21 25  1  0
 21 19  1  0
 22 21  1  0
 23 22  1  0
 23 24  1  0
 24 25  1  0
 25 26  1  6
 26 27  2  0
 26 28  1  0
M  END
$$$$
