FKP.pdb
     RDKit          3D

 28 29  0  0  1  0  0  0  0  0999 V2000
   25.0625  -21.0539   -7.2940 N   0  0  0  0  0  0  0  0  0  0  0  0
   25.7609  -20.3776   -8.3378 C   0  0  1  0  0  0  0  0  0  0  0  0
   27.2560  -20.5691   -8.2091 C   0  0  0  0  0  0  0  0  0  0  0  0
   27.8015  -19.9206   -7.0076 C   0  0  0  0  0  0  0  0  0  0  0  0
   28.5242  -20.6907   -6.1263 C   0  0  0  0  0  0  0  0  0  0  0  0
   29.0800  -20.1817   -4.9686 C   0  0  0  0  0  0  0  0  0  0  0  0
   28.8888  -18.8490   -4.7095 C   0  0  0  0  0  0  0  0  0  0  0  0
   28.1685  -18.0554   -5.5763 C   0  0  0  0  0  0  0  0  0  0  0  0
   27.6290  -18.5858   -6.7161 C   0  0  0  0  0  0  0  0  0  0  0  0
   25.2796  -20.7406   -9.6952 C   0  0  0  0  0  0  0  0  0  0  0  0
   25.0691  -21.9888   -9.8793 O   0  0  0  0  0  0  0  0  0  0  0  0
   25.0631  -19.7985  -10.7216 N   0  0  0  0  0  0  0  0  0  0  0  0
   24.6170  -20.2494  -12.0327 C   0  0  1  0  0  0  0  0  0  0  0  0
   24.0363  -19.0463  -12.7061 C   0  0  0  0  0  0  0  0  0  0  0  0
   23.5828  -19.2080  -14.1079 C   0  0  0  0  0  0  0  0  0  0  0  0
   22.9769  -17.9555  -14.6958 C   0  0  0  0  0  0  0  0  0  0  0  0
   22.4867  -18.1807  -16.1123 C   0  0  0  0  0  0  0  0  0  0  0  0
   21.9639  -16.8936  -16.5783 N   0  0  0  0  0  0  0  0  0  0  0  0
   25.6206  -20.9752  -12.7983 C   0  0  0  0  0  0  0  0  0  0  0  0
   26.8375  -20.6050  -12.6076 O   0  0  0  0  0  0  0  0  0  0  0  0
   25.4513  -22.0300  -13.7225 N   0  0  0  0  0  0  0  0  0  0  0  0
   24.1163  -22.5073  -14.1617 C   0  0  0  0  0  0  0  0  0  0  0  0
   24.3008  -23.9167  -14.6396 C   0  0  0  0  0  0  0  0  0  0  0  0
   25.7298  -24.2496  -14.2749 C   0  0  0  0  0  0  0  0  0  0  0  0
   26.3677  -22.8591  -14.4571 C   0  0  1  0  0  0  0  0  0  0  0  0
   26.3543  -22.5737  -15.9048 C   0  0  0  0  0  0  0  0  0  0  0  0
   25.4391  -21.8837  -16.4106 O   0  0  0  0  0  0  0  0  0  0  0  0
   27.3337  -23.0505  -16.7341 O   0  0  0  0  0  0  0  0  0  0  0  0
  2  1  1  1
  3  2  1  0
  4  3  1  0
  4  9  1  0
  5  4  2  0
  6  5  1  0
  6  7  2  0
  7  8  1  0
  8  9  2  0
 10  2  1  0
 10 11  2  0
 12 10  1  0
 13 12  1  0
 13 14  1  6
 15 14  1  0
 16 15  1  0
 17 16  1  0
 18 17  1  0
 19 13  1  0
 20 19  2  0
 21 25  1  0
 21 19  1  0
 22 21  1  0
 23 22  1  0
 23 24  1  0
 24 25  1  0
 25 26  1  6
 26 27  2  0
 26 28  1  0
M  END
$$$$
