FKP.pdb
     RDKit          3D

 28 29  0  0  1  0  0  0  0  0999 V2000
   27.3543  -19.8330  -10.7656 N   0  0  0  0  0  0  0  0  0  0  0  0
   26.7136  -20.5461  -11.8218 C   0  0  1  0  0  0  0  0  0  0  0  0
   25.2159  -20.3342  -11.7953 C   0  0  0  0  0  0  0  0  0  0  0  0
   24.6146  -20.7512  -10.5200 C   0  0  0  0  0  0  0  0  0  0  0  0
   25.4558  -21.1197   -9.4960 C   0  0  0  0  0  0  0  0  0  0  0  0
   24.9956  -21.5273   -8.2590 C   0  0  0  0  0  0  0  0  0  0  0  0
   23.6381  -21.5572   -8.0688 C   0  0  0  0  0  0  0  0  0  0  0  0
   22.7735  -21.1930   -9.0786 C   0  0  0  0  0  0  0  0  0  0  0  0
   23.2567  -20.7932  -10.2944 C   0  0  0  0  0  0  0  0  0  0  0  0
   27.2829  -20.2463  -13.1605 C   0  0  0  0  0  0  0  0  0  0  0  0
   27.6915  -19.0446  -13.3184 O   0  0  0  0  0  0  0  0  0  0  0  0
   27.3772  -21.1979  -14.1966 N   0  0  0  0  0  0  0  0  0  0  0  0
   27.9409  -20.8110  -15.4826 C   0  0  1  0  0  0  0  0  0  0  0  0
   28.4418  -22.0738  -16.1092 C   0  0  0  0  0  0  0  0  0  0  0  0
   29.0481  -21.9664  -17.4574 C   0  0  0  0  0  0  0  0  0  0  0  0
   29.4409  -23.2983  -18.0517 C   0  0  0  0  0  0  0  0  0  0  0  0
   30.0987  -23.1358  -19.4075 C   0  0  0  0  0  0  0  0  0  0  0  0
   30.4455  -24.4847  -19.8630 N   0  0  0  0  0  0  0  0  0  0  0  0
   27.0586  -20.0039  -16.3135 C   0  0  0  0  0  0  0  0  0  0  0  0
   25.8191  -20.3472  -16.3013 O   0  0  0  0  0  0  0  0  0  0  0  0
   27.3671  -18.8956  -17.1331 N   0  0  0  0  0  0  0  0  0  0  0  0
   28.7589  -18.4499  -17.3918 C   0  0  0  0  0  0  0  0  0  0  0  0
   28.6809  -17.0034  -17.7797 C   0  0  0  0  0  0  0  0  0  0  0  0
   27.2343  -16.6322  -17.5442 C   0  0  0  0  0  0  0  0  0  0  0  0
   26.5679  -17.9759  -17.8963 C   0  0  1  0  0  0  0  0  0  0  0  0
   26.7279  -18.1591  -19.3518 C   0  0  0  0  0  0  0  0  0  0  0  0
   25.9628  -17.5780  -20.1558 O   0  0  0  0  0  0  0  0  0  0  0  0
   27.7095  -18.9635  -19.8650 O   0  0  0  0  0  0  0  0  0  0  0  0
  2  1  1  1
  3  2  1  0
  4  3  1  0
  4  9  1  0
  5  4  2  0
  6  5  1  0
  6  7  2  0
  7  8  1  0
  8  9  2  0
 10  2  1  0
 10 11  2  0
 12 10  1  0
 13 12  1  0
 13 14  1  6
 15 14  1  0
 16 15  1  0
 17 16  1  0
 18 17  1  0
 19 13  1  0
 20 19  2  0
 21 25  1  0
 21 19  1  0
 22 21  1  0
 23 22  1  0
 23 24  1  0
 24 25  1  0
 25 26  1  6
 26 27  2  0
 26 28  1  0
M  END
$$$$
