FKP.pdb
     RDKit          3D

 28 29  0  0  1  0  0  0  0  0999 V2000
   27.1374  -23.1711  -17.5422 N   0  0  0  0  0  0  0  0  0  0  0  0
   26.3261  -24.3442  -17.5604 C   0  0  1  0  0  0  0  0  0  0  0  0
   25.1669  -24.1929  -18.5205 C   0  0  0  0  0  0  0  0  0  0  0  0
   24.2349  -23.1327  -18.1093 C   0  0  0  0  0  0  0  0  0  0  0  0
   23.9051  -22.1658  -19.0304 C   0  0  0  0  0  0  0  0  0  0  0  0
   23.0399  -21.1266  -18.7479 C   0  0  0  0  0  0  0  0  0  0  0  0
   22.5000  -21.0793  -17.4885 C   0  0  0  0  0  0  0  0  0  0  0  0
   22.8141  -22.0357  -16.5471 C   0  0  0  0  0  0  0  0  0  0  0  0
   23.6743  -23.0544  -16.8539 C   0  0  0  0  0  0  0  0  0  0  0  0
   27.0971  -25.5852  -17.8279 C   0  0  0  0  0  0  0  0  0  0  0  0
   27.9556  -25.4964  -18.7719 O   0  0  0  0  0  0  0  0  0  0  0  0
   26.9150  -26.7844  -17.1091 N   0  0  0  0  0  0  0  0  0  0  0  0
   27.6599  -27.9757  -17.4924 C   0  0  1  0  0  0  0  0  0  0  0  0
   27.6007  -28.8952  -16.3137 C   0  0  0  0  0  0  0  0  0  0  0  0
   27.9871  -30.3085  -16.5375 C   0  0  0  0  0  0  0  0  0  0  0  0
   27.7360  -31.2003  -15.3445 C   0  0  0  0  0  0  0  0  0  0  0  0
   28.1912  -32.6230  -15.6017 C   0  0  0  0  0  0  0  0  0  0  0  0
   27.8497  -33.3897  -14.4005 N   0  0  0  0  0  0  0  0  0  0  0  0
   27.2587  -28.5585  -18.7650 C   0  0  0  0  0  0  0  0  0  0  0  0
   26.0119  -28.4426  -19.0589 O   0  0  0  0  0  0  0  0  0  0  0  0
   28.0423  -29.2345  -19.7266 N   0  0  0  0  0  0  0  0  0  0  0  0
   29.4926  -29.4922  -19.5444 C   0  0  0  0  0  0  0  0  0  0  0  0
   30.0706  -29.6782  -20.9155 C   0  0  0  0  0  0  0  0  0  0  0  0
   28.9332  -29.3312  -21.8494 C   0  0  0  0  0  0  0  0  0  0  0  0
   27.7482  -29.8311  -21.0011 C   0  0  1  0  0  0  0  0  0  0  0  0
   27.8399  -31.3036  -20.9721 C   0  0  0  0  0  0  0  0  0  0  0  0
   27.4737  -31.9852  -21.9574 O   0  0  0  0  0  0  0  0  0  0  0  0
   28.3239  -31.9658  -19.8761 O   0  0  0  0  0  0  0  0  0  0  0  0
  2  1  1  6
  3  2  1  0
  4  3  1  0
  4  9  1  0
  5  4  2  0
  6  5  1  0
  6  7  2  0
  7  8  1  0
  8  9  2  0
 10  2  1  0
 10 11  2  0
 12 10  1  0
 13 12  1  0
 13 14  1  1
 15 14  1  0
 16 15  1  0
 17 16  1  0
 18 17  1  0
 19 13  1  0
 20 19  2  0
 21 25  1  0
 21 19  1  0
 22 21  1  0
 23 22  1  0
 23 24  1  0
 24 25  1  0
 25 26  1  1
 26 27  2  0
 26 28  1  0
M  END
$$$$
