FKP.pdb
     RDKit          3D

 28 29  0  0  1  0  0  0  0  0999 V2000
   28.7204  -19.9973  -14.3225 N   0  0  0  0  0  0  0  0  0  0  0  0
   27.5279  -20.3913  -13.6463 C   0  0  1  0  0  0  0  0  0  0  0  0
   27.5064  -19.8701  -12.2263 C   0  0  0  0  0  0  0  0  0  0  0  0
   28.5143  -20.5210  -11.3764 C   0  0  0  0  0  0  0  0  0  0  0  0
   29.7968  -20.0243  -11.3947 C   0  0  0  0  0  0  0  0  0  0  0  0
   30.8184  -20.5608  -10.6354 C   0  0  0  0  0  0  0  0  0  0  0  0
   30.5155  -21.6339   -9.8375 C   0  0  0  0  0  0  0  0  0  0  0  0
   29.2383  -22.1507   -9.8009 C   0  0  0  0  0  0  0  0  0  0  0  0
   28.2452  -21.5996  -10.5635 C   0  0  0  0  0  0  0  0  0  0  0  0
   26.2899  -20.0244  -14.3804 C   0  0  0  0  0  0  0  0  0  0  0  0
   26.1717  -18.7807  -14.6549 O   0  0  0  0  0  0  0  0  0  0  0  0
   25.3036  -20.9584  -14.7580 N   0  0  0  0  0  0  0  0  0  0  0  0
   24.1138  -20.5054  -15.4653 C   0  0  1  0  0  0  0  0  0  0  0  0
   24.1443  -21.1834  -16.7986 C   0  0  0  0  0  0  0  0  0  0  0  0
   24.9159  -20.5216  -17.8772 C   0  0  0  0  0  0  0  0  0  0  0  0
   24.9411  -21.3030  -19.1696 C   0  0  0  0  0  0  0  0  0  0  0  0
   25.8055  -20.6288  -20.2163 C   0  0  0  0  0  0  0  0  0  0  0  0
   25.8543  -21.5409  -21.3621 N   0  0  0  0  0  0  0  0  0  0  0  0
   22.8728  -20.6461  -14.7167 C   0  0  0  0  0  0  0  0  0  0  0  0
   22.8248  -21.6438  -13.9064 O   0  0  0  0  0  0  0  0  0  0  0  0
   21.7108  -19.8436  -14.7512 N   0  0  0  0  0  0  0  0  0  0  0  0
   21.5580  -18.6895  -15.6720 C   0  0  0  0  0  0  0  0  0  0  0  0
   20.5327  -17.7838  -15.0578 C   0  0  0  0  0  0  0  0  0  0  0  0
   20.2730  -18.3852  -13.6951 C   0  0  0  0  0  0  0  0  0  0  0  0
   20.4642  -19.8755  -14.0359 C   0  0  1  0  0  0  0  0  0  0  0  0
   19.3280  -20.2624  -14.8944 C   0  0  0  0  0  0  0  0  0  0  0  0
   19.4608  -20.3246  -16.1387 O   0  0  0  0  0  0  0  0  0  0  0  0
   18.1030  -20.5629  -14.3625 O   0  0  0  0  0  0  0  0  0  0  0  0
  2  1  1  6
  3  2  1  0
  4  3  1  0
  4  9  1  0
  5  4  2  0
  6  5  1  0
  6  7  2  0
  7  8  1  0
  8  9  2  0
 10  2  1  0
 10 11  2  0
 12 10  1  0
 13 12  1  0
 13 14  1  6
 15 14  1  0
 16 15  1  0
 17 16  1  0
 18 17  1  0
 19 13  1  0
 20 19  2  0
 21 25  1  0
 21 19  1  0
 22 21  1  0
 23 22  1  0
 23 24  1  0
 24 25  1  0
 25 26  1  6
 26 27  2  0
 26 28  1  0
M  END
$$$$
