FKP.pdb
     RDKit          3D

 28 29  0  0  1  0  0  0  0  0999 V2000
   23.1468  -21.8368  -13.0941 N   0  0  0  0  0  0  0  0  0  0  0  0
   23.9990  -20.7568  -12.7172 C   0  0  1  0  0  0  0  0  0  0  0  0
   23.2029  -19.4974  -12.4554 C   0  0  0  0  0  0  0  0  0  0  0  0
   22.6121  -18.9440  -13.6828 C   0  0  0  0  0  0  0  0  0  0  0  0
   23.4347  -18.2601  -14.5474 C   0  0  0  0  0  0  0  0  0  0  0  0
   22.9823  -17.7010  -15.7268 C   0  0  0  0  0  0  0  0  0  0  0  0
   21.6523  -17.8479  -16.0257 C   0  0  0  0  0  0  0  0  0  0  0  0
   20.8067  -18.5286  -15.1763 C   0  0  0  0  0  0  0  0  0  0  0  0
   21.2817  -19.0725  -14.0143 C   0  0  0  0  0  0  0  0  0  0  0  0
   24.8906  -21.0853  -11.5755 C   0  0  0  0  0  0  0  0  0  0  0  0
   24.3115  -21.6378  -10.5778 O   0  0  0  0  0  0  0  0  0  0  0  0
   26.2750  -20.8183  -11.5677 N   0  0  0  0  0  0  0  0  0  0  0  0
   27.0704  -21.1660  -10.3983 C   0  0  1  0  0  0  0  0  0  0  0  0
   28.4403  -21.4802  -10.9107 C   0  0  0  0  0  0  0  0  0  0  0  0
   29.4929  -21.7557   -9.9043 C   0  0  0  0  0  0  0  0  0  0  0  0
   30.8675  -21.9417  -10.5022 C   0  0  0  0  0  0  0  0  0  0  0  0
   31.9082  -22.2287   -9.4383 C   0  0  0  0  0  0  0  0  0  0  0  0
   33.1672  -22.4733  -10.1470 N   0  0  0  0  0  0  0  0  0  0  0  0
   27.0119  -20.1952   -9.3146 C   0  0  0  0  0  0  0  0  0  0  0  0
   26.7743  -18.9820   -9.6699 O   0  0  0  0  0  0  0  0  0  0  0  0
   27.1785  -20.3928   -7.9258 N   0  0  0  0  0  0  0  0  0  0  0  0
   27.5114  -21.7136   -7.3362 C   0  0  0  0  0  0  0  0  0  0  0  0
   27.0515  -21.6744   -5.9094 C   0  0  0  0  0  0  0  0  0  0  0  0
   26.2968  -20.3691   -5.7971 C   0  0  0  0  0  0  0  0  0  0  0  0
   27.1151  -19.5179   -6.7868 C   0  0  1  0  0  0  0  0  0  0  0  0
   28.4359  -19.2997   -6.1658 C   0  0  0  0  0  0  0  0  0  0  0  0
   29.4440  -19.9201   -6.5760 O   0  0  0  0  0  0  0  0  0  0  0  0
   28.5995  -18.4196   -5.1302 O   0  0  0  0  0  0  0  0  0  0  0  0
  2  1  1  1
  3  2  1  0
  4  3  1  0
  4  9  1  0
  5  4  2  0
  6  5  1  0
  6  7  2  0
  7  8  1  0
  8  9  2  0
 10  2  1  0
 10 11  2  0
 12 10  1  0
 13 12  1  0
 13 14  1  6
 15 14  1  0
 16 15  1  0
 17 16  1  0
 18 17  1  0
 19 13  1  0
 20 19  2  0
 21 25  1  0
 21 19  1  0
 22 21  1  0
 23 22  1  0
 23 24  1  0
 24 25  1  0
 25 26  1  1
 26 27  2  0
 26 28  1  0
M  END
$$$$
