FKP.pdb
     RDKit          3D

 28 29  0  0  1  0  0  0  0  0999 V2000
   25.0087  -21.1185   -9.2318 N   0  0  0  0  0  0  0  0  0  0  0  0
   24.3350  -21.0439  -10.4869 C   0  0  1  0  0  0  0  0  0  0  0  0
   23.1192  -20.1476  -10.4028 C   0  0  0  0  0  0  0  0  0  0  0  0
   21.9692  -20.6947  -11.1377 C   0  0  0  0  0  0  0  0  0  0  0  0
   21.9662  -20.5893  -12.5091 C   0  0  0  0  0  0  0  0  0  0  0  0
   20.9363  -21.0694  -13.2947 C   0  0  0  0  0  0  0  0  0  0  0  0
   19.8837  -21.6727  -12.6561 C   0  0  0  0  0  0  0  0  0  0  0  0
   19.8623  -21.7911  -11.2830 C   0  0  0  0  0  0  0  0  0  0  0  0
   20.8959  -21.3065  -10.5292 C   0  0  0  0  0  0  0  0  0  0  0  0
   25.2265  -20.6494  -11.6075 C   0  0  0  0  0  0  0  0  0  0  0  0
   25.9772  -19.6407  -11.3729 O   0  0  0  0  0  0  0  0  0  0  0  0
   25.2615  -21.3205  -12.8470 N   0  0  0  0  0  0  0  0  0  0  0  0
   26.1336  -20.8335  -13.9069 C   0  0  1  0  0  0  0  0  0  0  0  0
   26.5746  -22.0447  -14.6662 C   0  0  0  0  0  0  0  0  0  0  0  0
   27.4616  -21.8262  -15.8334 C   0  0  0  0  0  0  0  0  0  0  0  0
   27.8568  -23.1014  -16.5398 C   0  0  0  0  0  0  0  0  0  0  0  0
   28.7069  -22.8248  -17.7638 C   0  0  0  0  0  0  0  0  0  0  0  0
   29.1369  -24.1301  -18.2720 N   0  0  0  0  0  0  0  0  0  0  0  0
   25.5692  -19.7585  -14.7107 C   0  0  0  0  0  0  0  0  0  0  0  0
   24.2930  -19.7950  -14.8669 O   0  0  0  0  0  0  0  0  0  0  0  0
   26.2215  -18.6783  -15.3455 N   0  0  0  0  0  0  0  0  0  0  0  0
   27.6982  -18.5297  -15.3639 C   0  0  0  0  0  0  0  0  0  0  0  0
   27.9799  -17.0735  -15.5847 C   0  0  0  0  0  0  0  0  0  0  0  0
   26.6218  -16.4143  -15.4998 C   0  0  0  0  0  0  0  0  0  0  0  0
   25.7559  -17.5420  -16.0932 C   0  0  1  0  0  0  0  0  0  0  0  0
   26.0973  -17.6282  -17.5262 C   0  0  0  0  0  0  0  0  0  0  0  0
   26.8093  -18.5646  -17.9572 O   0  0  0  0  0  0  0  0  0  0  0  0
   25.6502  -16.6950  -18.4225 O   0  0  0  0  0  0  0  0  0  0  0  0
  2  1  1  1
  3  2  1  0
  4  3  1  0
  4  9  1  0
  5  4  2  0
  6  5  1  0
  6  7  2  0
  7  8  1  0
  8  9  2  0
 10  2  1  0
 10 11  2  0
 12 10  1  0
 13 12  1  0
 13 14  1  6
 15 14  1  0
 16 15  1  0
 17 16  1  0
 18 17  1  0
 19 13  1  0
 20 19  2  0
 21 25  1  0
 21 19  1  0
 22 21  1  0
 23 22  1  0
 23 24  1  0
 24 25  1  0
 25 26  1  6
 26 27  2  0
 26 28  1  0
M  END
$$$$
