FKP.pdb
     RDKit          3D

 28 29  0  0  1  0  0  0  0  0999 V2000
   19.9698  -16.4994  -17.3609 N   0  0  0  0  0  0  0  0  0  0  0  0
   20.9416  -17.4863  -17.7016 C   0  0  1  0  0  0  0  0  0  0  0  0
   21.5432  -17.2148  -19.0628 C   0  0  0  0  0  0  0  0  0  0  0  0
   20.6070  -17.5112  -20.1571 C   0  0  0  0  0  0  0  0  0  0  0  0
   19.9951  -16.4550  -20.7912 C   0  0  0  0  0  0  0  0  0  0  0  0
   19.1000  -16.6221  -21.8300 C   0  0  0  0  0  0  0  0  0  0  0  0
   18.8266  -17.9055  -22.2275 C   0  0  0  0  0  0  0  0  0  0  0  0
   19.4263  -18.9813  -21.6087 C   0  0  0  0  0  0  0  0  0  0  0  0
   20.3092  -18.7868  -20.5820 C   0  0  0  0  0  0  0  0  0  0  0  0
   21.9922  -17.6558  -16.6654 C   0  0  0  0  0  0  0  0  0  0  0  0
   22.6458  -16.5945  -16.3783 O   0  0  0  0  0  0  0  0  0  0  0  0
   22.2678  -18.8843  -16.0306 N   0  0  0  0  0  0  0  0  0  0  0  0
   23.3572  -18.9707  -15.0679 C   0  0  1  0  0  0  0  0  0  0  0  0
   22.7730  -19.5940  -13.8398 C   0  0  0  0  0  0  0  0  0  0  0  0
   23.7011  -19.8857  -12.7217 C   0  0  0  0  0  0  0  0  0  0  0  0
   23.0539  -20.6281  -11.5765 C   0  0  0  0  0  0  0  0  0  0  0  0
   23.9333  -20.6326  -10.3421 C   0  0  0  0  0  0  0  0  0  0  0  0
   23.1251  -21.2025   -9.2608 N   0  0  0  0  0  0  0  0  0  0  0  0
   24.5679  -19.5996  -15.5770 C   0  0  0  0  0  0  0  0  0  0  0  0
   24.3886  -20.4909  -16.4868 O   0  0  0  0  0  0  0  0  0  0  0  0
   25.9145  -19.3722  -15.2157 N   0  0  0  0  0  0  0  0  0  0  0  0
   26.3045  -18.5378  -14.0519 C   0  0  0  0  0  0  0  0  0  0  0  0
   27.7035  -18.0650  -14.3129 C   0  0  0  0  0  0  0  0  0  0  0  0
   27.9895  -18.5118  -15.7287 C   0  0  0  0  0  0  0  0  0  0  0  0
   27.1719  -19.8174  -15.7519 C   0  0  1  0  0  0  0  0  0  0  0  0
   27.8644  -20.7664  -14.8590 C   0  0  0  0  0  0  0  0  0  0  0  0
   27.4042  -21.0252  -13.7228 O   0  0  0  0  0  0  0  0  0  0  0  0
   29.0224  -21.3886  -15.2410 O   0  0  0  0  0  0  0  0  0  0  0  0
  2  1  1  1
  3  2  1  0
  4  3  1  0
  4  9  1  0
  5  4  2  0
  6  5  1  0
  6  7  2  0
  7  8  1  0
  8  9  2  0
 10  2  1  0
 10 11  2  0
 12 10  1  0
 13 12  1  0
 13 14  1  1
 15 14  1  0
 16 15  1  0
 17 16  1  0
 18 17  1  0
 19 13  1  0
 20 19  2  0
 21 25  1  0
 21 19  1  0
 22 21  1  0
 23 22  1  0
 23 24  1  0
 24 25  1  0
 25 26  1  1
 26 27  2  0
 26 28  1  0
M  END
$$$$
