SIW.pdb
     RDKit          3D

 29 30  0  0  1  0  0  0  0  0999 V2000
    7.3736  -19.6924   23.0850 O   0  0  0  0  0  0  0  0  0  0  0  0
    6.2505  -19.4454   22.3039 C   0  0  0  0  0  0  0  0  0  0  0  0
    6.7299  -19.0908   20.9215 C   0  0  2  0  0  0  0  0  0  0  0  0
    7.3164  -20.2675   20.3300 N   0  0  0  0  0  0  0  0  0  0  0  0
    7.7096  -17.9485   20.9744 C   0  0  0  0  0  0  0  0  0  0  0  0
    8.9108  -18.2596   20.9347 O   0  0  0  0  0  0  0  0  0  0  0  0
    8.2947  -11.9017   19.8917 C   0  0  0  0  0  0  0  0  0  0  0  0
    8.6988  -13.1961   20.5037 C   0  0  0  0  0  0  0  0  0  0  0  0
    7.6154  -14.2637   20.4769 C   0  0  2  0  0  0  0  0  0  0  0  0
    6.5821  -13.7295   21.4796 C   0  0  0  0  0  0  0  0  0  0  0  0
    8.2199  -15.5000   21.0683 C   0  0  2  0  0  0  0  0  0  0  0  0
    7.3242  -16.6238   21.0620 N   0  0  0  0  0  0  0  0  0  0  0  0
    8.6915  -15.3128   22.4284 C   0  0  0  0  0  0  0  0  0  0  0  0
    8.0953  -14.4057   23.1453 O   0  0  0  0  0  0  0  0  0  0  0  0
    9.7267  -15.9861   23.1197 N   0  0  0  0  0  0  0  0  0  0  0  0
   10.2042  -15.4981   24.4282 C   0  0  1  0  0  0  0  0  0  0  0  0
    9.3582  -16.1985   25.4761 C   0  0  0  0  0  0  0  0  0  0  0  0
    8.0436  -15.5387   25.6295 C   0  0  0  0  0  0  0  0  0  0  0  0
    6.8159  -16.1142   25.3762 C   0  0  0  0  0  0  0  0  0  0  0  0
    5.8643  -15.1908   25.6357 N   0  0  0  0  0  0  0  0  0  0  0  0
    6.4431  -14.0445   26.0464 C   0  0  0  0  0  0  0  0  0  0  0  0
    5.8706  -12.8435   26.4175 C   0  0  0  0  0  0  0  0  0  0  0  0
    6.7243  -11.8294   26.7980 C   0  0  0  0  0  0  0  0  0  0  0  0
    8.1050  -12.0267   26.8017 C   0  0  0  0  0  0  0  0  0  0  0  0
    8.6604  -13.2236   26.4312 C   0  0  0  0  0  0  0  0  0  0  0  0
    7.8191  -14.2449   26.0489 C   0  0  0  0  0  0  0  0  0  0  0  0
   11.6188  -15.8895   24.6013 C   0  0  0  0  0  0  0  0  0  0  0  0
   12.2576  -16.5306   23.7299 O   0  0  0  0  0  0  0  0  0  0  0  0
   12.2936  -15.5433   25.7737 O   0  0  0  0  0  0  0  0  0  0  0  0
  2  1  1  0
  2  3  1  0
  3  4  1  1
  5  6  2  0
  5  3  1  0
  8  7  1  0
  8  9  1  0
  9 11  1  0
  9 10  1  1
 11 12  1  1
 12  5  1  0
 13 11  1  0
 14 13  2  0
 15 13  1  0
 16 27  1  0
 16 15  1  0
 16 17  1  1
 18 17  1  0
 18 19  2  0
 20 19  1  0
 21 20  1  0
 22 21  2  0
 23 22  1  0
 24 23  2  0
 24 25  1  0
 25 26  2  0
 26 21  1  0
 26 18  1  0
 27 29  1  0
 28 27  2  0
M  END
$$$$
