SIW.pdb
     RDKit          3D

 29 30  0  0  1  0  0  0  0  0999 V2000
    4.9733  -20.0804   22.5483 O   0  0  0  0  0  0  0  0  0  0  0  0
    5.4976  -18.7935   22.5846 C   0  0  0  0  0  0  0  0  0  0  0  0
    5.7614  -18.3722   21.1635 C   0  0  2  0  0  0  0  0  0  0  0  0
    5.8929  -19.5594   20.3562 N   0  0  0  0  0  0  0  0  0  0  0  0
    6.9916  -17.5074   21.0841 C   0  0  0  0  0  0  0  0  0  0  0  0
    8.0772  -18.1082   21.0418 O   0  0  0  0  0  0  0  0  0  0  0  0
    7.0692  -12.5220   18.9557 C   0  0  0  0  0  0  0  0  0  0  0  0
    7.4860  -13.8421   19.5009 C   0  0  0  0  0  0  0  0  0  0  0  0
    7.7982  -13.8313   20.9898 C   0  0  2  0  0  0  0  0  0  0  0  0
    9.1459  -13.0976   21.0527 C   0  0  0  0  0  0  0  0  0  0  0  0
    8.0415  -15.2554   21.3851 C   0  0  2  0  0  0  0  0  0  0  0  0
    6.9458  -16.1260   21.0584 N   0  0  0  0  0  0  0  0  0  0  0  0
    8.3331  -15.4160   22.7980 C   0  0  0  0  0  0  0  0  0  0  0  0
    7.5761  -14.7736   23.6386 O   0  0  0  0  0  0  0  0  0  0  0  0
    9.3397  -16.1891   23.4242 N   0  0  0  0  0  0  0  0  0  0  0  0
   10.0037  -15.7132   24.6535 C   0  0  1  0  0  0  0  0  0  0  0  0
    9.1739  -16.2349   25.8125 C   0  0  0  0  0  0  0  0  0  0  0  0
    7.8591  -15.5608   25.8741 C   0  0  0  0  0  0  0  0  0  0  0  0
    6.6393  -16.1409   25.5944 C   0  0  0  0  0  0  0  0  0  0  0  0
    5.6845  -15.2004   25.7653 N   0  0  0  0  0  0  0  0  0  0  0  0
    6.2536  -14.0386   26.1450 C   0  0  0  0  0  0  0  0  0  0  0  0
    5.6747  -12.8175   26.4306 C   0  0  0  0  0  0  0  0  0  0  0  0
    6.5187  -11.7908   26.7990 C   0  0  0  0  0  0  0  0  0  0  0  0
    7.8963  -11.9957   26.8745 C   0  0  0  0  0  0  0  0  0  0  0  0
    8.4580  -13.2126   26.5884 C   0  0  0  0  0  0  0  0  0  0  0  0
    7.6265  -14.2466   26.2191 C   0  0  0  0  0  0  0  0  0  0  0  0
   11.3607  -16.2946   24.7238 C   0  0  0  0  0  0  0  0  0  0  0  0
   12.1294  -16.1088   25.7000 O   0  0  0  0  0  0  0  0  0  0  0  0
   11.8291  -17.0864   23.6734 O   0  0  0  0  0  0  0  0  0  0  0  0
  2  1  1  0
  2  3  1  0
  3  4  1  6
  5  6  2  0
  5  3  1  0
  8  7  1  0
  8  9  1  0
  9 11  1  0
  9 10  1  6
 11 12  1  1
 12  5  1  0
 13 11  1  0
 14 13  2  0
 15 13  1  0
 16 27  1  0
 16 15  1  0
 16 17  1  1
 18 17  1  0
 18 19  2  0
 20 19  1  0
 21 20  1  0
 22 21  2  0
 23 22  1  0
 24 23  2  0
 24 25  1  0
 25 26  2  0
 26 21  1  0
 26 18  1  0
 27 29  1  0
 28 27  2  0
M  END
$$$$
