SIW.pdb
     RDKit          3D

 29 30  0  0  1  0  0  0  0  0999 V2000
    8.3342  -19.3722   21.9586 O   0  0  0  0  0  0  0  0  0  0  0  0
    8.6970  -19.7386   20.6677 C   0  0  0  0  0  0  0  0  0  0  0  0
    8.3113  -18.6081   19.7512 C   0  0  2  0  0  0  0  0  0  0  0  0
    8.7194  -18.9516   18.4118 N   0  0  0  0  0  0  0  0  0  0  0  0
    8.9352  -17.3160   20.2079 C   0  0  0  0  0  0  0  0  0  0  0  0
   10.0896  -17.0975   19.8067 O   0  0  0  0  0  0  0  0  0  0  0  0
    6.6933  -12.5846   19.6995 C   0  0  0  0  0  0  0  0  0  0  0  0
    7.6794  -13.6700   19.9510 C   0  0  0  0  0  0  0  0  0  0  0  0
    7.8473  -14.0320   21.4190 C   0  0  2  0  0  0  0  0  0  0  0  0
    8.5335  -12.7883   22.0029 C   0  0  0  0  0  0  0  0  0  0  0  0
    8.8343  -15.1574   21.4708 C   0  0  2  0  0  0  0  0  0  0  0  0
    8.2862  -16.4086   21.0244 N   0  0  0  0  0  0  0  0  0  0  0  0
    9.3992  -15.3636   22.7920 C   0  0  0  0  0  0  0  0  0  0  0  0
   10.2784  -14.4983   23.2049 O   0  0  0  0  0  0  0  0  0  0  0  0
    9.1320  -16.3871   23.7323 N   0  0  0  0  0  0  0  0  0  0  0  0
    9.7988  -16.3973   25.0490 C   0  0  1  0  0  0  0  0  0  0  0  0
    8.7135  -16.6822   26.0714 C   0  0  0  0  0  0  0  0  0  0  0  0
    7.5634  -15.7688   25.8981 C   0  0  0  0  0  0  0  0  0  0  0  0
    6.3230  -16.1156   25.4046 C   0  0  0  0  0  0  0  0  0  0  0  0
    5.5526  -15.0057   25.4034 N   0  0  0  0  0  0  0  0  0  0  0  0
    6.2596  -13.9611   25.8797 C   0  0  0  0  0  0  0  0  0  0  0  0
    5.8863  -12.6434   26.0587 C   0  0  0  0  0  0  0  0  0  0  0  0
    6.8346  -11.7840   26.5728 C   0  0  0  0  0  0  0  0  0  0  0  0
    8.1118  -12.2443   26.8926 C   0  0  0  0  0  0  0  0  0  0  0  0
    8.4695  -13.5546   26.7101 C   0  0  0  0  0  0  0  0  0  0  0  0
    7.5319  -14.4235   26.1974 C   0  0  0  0  0  0  0  0  0  0  0  0
   10.7943  -17.4893   25.0763 C   0  0  0  0  0  0  0  0  0  0  0  0
   10.9388  -18.3005   24.1279 O   0  0  0  0  0  0  0  0  0  0  0  0
   11.6192  -17.6453   26.1920 O   0  0  0  0  0  0  0  0  0  0  0  0
  2  1  1  0
  2  3  1  0
  3  4  1  6
  5  6  2  0
  5  3  1  0
  8  7  1  0
  8  9  1  0
  9 11  1  0
  9 10  1  1
 11 12  1  1
 12  5  1  0
 13 11  1  0
 14 13  2  0
 15 13  1  0
 16 27  1  0
 16 15  1  0
 16 17  1  1
 18 17  1  0
 18 19  2  0
 20 19  1  0
 21 20  1  0
 22 21  2  0
 23 22  1  0
 24 23  2  0
 24 25  1  0
 25 26  2  0
 26 21  1  0
 26 18  1  0
 27 29  1  0
 28 27  2  0
M  END
$$$$
