SIW.pdb
     RDKit          3D

 29 30  0  0  1  0  0  0  0  0999 V2000
   10.0521  -20.4699   19.1387 O   0  0  0  0  0  0  0  0  0  0  0  0
    9.8326  -19.3710   19.9614 C   0  0  0  0  0  0  0  0  0  0  0  0
    9.7264  -18.1575   19.0767 C   0  0  2  0  0  0  0  0  0  0  0  0
   10.7833  -18.2167   18.0979 N   0  0  0  0  0  0  0  0  0  0  0  0
    9.7965  -16.8949   19.8942 C   0  0  0  0  0  0  0  0  0  0  0  0
   10.9216  -16.3829   20.0093 O   0  0  0  0  0  0  0  0  0  0  0  0
    6.6879  -12.6068   19.3945 C   0  0  0  0  0  0  0  0  0  0  0  0
    7.7932  -13.5139   19.8056 C   0  0  0  0  0  0  0  0  0  0  0  0
    7.5444  -14.2460   21.1157 C   0  0  2  0  0  0  0  0  0  0  0  0
    7.6304  -13.1220   22.1587 C   0  0  0  0  0  0  0  0  0  0  0  0
    8.7195  -15.1498   21.3293 C   0  0  2  0  0  0  0  0  0  0  0  0
    8.6918  -16.3176   20.4922 N   0  0  0  0  0  0  0  0  0  0  0  0
    8.8609  -15.5902   22.7053 C   0  0  0  0  0  0  0  0  0  0  0  0
    8.2214  -16.6682   23.0536 O   0  0  0  0  0  0  0  0  0  0  0  0
    9.6120  -15.0161   23.7585 N   0  0  0  0  0  0  0  0  0  0  0  0
    9.8186  -15.7454   25.0249 C   0  0  1  0  0  0  0  0  0  0  0  0
    8.4828  -16.3770   25.3730 C   0  0  0  0  0  0  0  0  0  0  0  0
    7.4667  -15.3457   25.6744 C   0  0  0  0  0  0  0  0  0  0  0  0
    6.1077  -15.4661   25.4712 C   0  0  0  0  0  0  0  0  0  0  0  0
    5.5256  -14.3143   25.8709 N   0  0  0  0  0  0  0  0  0  0  0  0
    6.4673  -13.4618   26.3227 C   0  0  0  0  0  0  0  0  0  0  0  0
    6.3391  -12.1819   26.8258 C   0  0  0  0  0  0  0  0  0  0  0  0
    7.4954  -11.5398   27.2170 C   0  0  0  0  0  0  0  0  0  0  0  0
    8.7332  -12.1723   27.1019 C   0  0  0  0  0  0  0  0  0  0  0  0
    8.8465  -13.4429   26.6009 C   0  0  0  0  0  0  0  0  0  0  0  0
    7.6996  -14.0955   26.2065 C   0  0  0  0  0  0  0  0  0  0  0  0
   10.8208  -16.8100   24.8097 C   0  0  0  0  0  0  0  0  0  0  0  0
   11.3238  -17.0517   23.6841 O   0  0  0  0  0  0  0  0  0  0  0  0
   11.2412  -17.5922   25.8872 O   0  0  0  0  0  0  0  0  0  0  0  0
  2  1  1  0
  2  3  1  0
  3  4  1  6
  5  6  2  0
  5  3  1  0
  8  7  1  0
  8  9  1  0
  9 11  1  0
  9 10  1  1
 11 12  1  6
 12  5  1  0
 13 11  1  0
 14 13  2  0
 15 13  1  0
 16 27  1  0
 16 15  1  0
 16 17  1  6
 18 17  1  0
 18 19  2  0
 20 19  1  0
 21 20  1  0
 22 21  2  0
 23 22  1  0
 24 23  2  0
 24 25  1  0
 25 26  2  0
 26 21  1  0
 26 18  1  0
 27 29  1  0
 28 27  2  0
M  END
$$$$
