SIW.pdb
     RDKit          3D

 29 30  0  0  1  0  0  0  0  0999 V2000
    9.2610  -20.0840   21.6962 O   0  0  0  0  0  0  0  0  0  0  0  0
    8.0412  -19.7434   21.1231 C   0  0  0  0  0  0  0  0  0  0  0  0
    8.3265  -18.8264   19.9636 C   0  0  2  0  0  0  0  0  0  0  0  0
    9.1003  -19.5552   18.9896 N   0  0  0  0  0  0  0  0  0  0  0  0
    9.0444  -17.5872   20.4289 C   0  0  0  0  0  0  0  0  0  0  0  0
   10.2633  -17.5451   20.1969 O   0  0  0  0  0  0  0  0  0  0  0  0
    6.6533  -12.8386   19.9657 C   0  0  0  0  0  0  0  0  0  0  0  0
    7.7012  -13.8847   20.1107 C   0  0  0  0  0  0  0  0  0  0  0  0
    8.1136  -14.1591   21.5491 C   0  0  2  0  0  0  0  0  0  0  0  0
    8.9431  -12.9184   21.9110 C   0  0  0  0  0  0  0  0  0  0  0  0
    9.0473  -15.3296   21.5094 C   0  0  2  0  0  0  0  0  0  0  0  0
    8.4110  -16.5436   21.0777 N   0  0  0  0  0  0  0  0  0  0  0  0
    9.6914  -15.5920   22.7836 C   0  0  0  0  0  0  0  0  0  0  0  0
   10.8734  -15.0815   22.9691 O   0  0  0  0  0  0  0  0  0  0  0  0
    9.2189  -16.3350   23.8916 N   0  0  0  0  0  0  0  0  0  0  0  0
   10.0848  -16.5822   25.0611 C   0  0  1  0  0  0  0  0  0  0  0  0
    9.7284  -15.5192   26.0845 C   0  0  0  0  0  0  0  0  0  0  0  0
    8.2881  -15.1881   26.0313 C   0  0  0  0  0  0  0  0  0  0  0  0
    7.2624  -16.0784   25.7910 C   0  0  0  0  0  0  0  0  0  0  0  0
    6.1003  -15.3900   25.8240 N   0  0  0  0  0  0  0  0  0  0  0  0
    6.3493  -14.0895   26.0773 C   0  0  0  0  0  0  0  0  0  0  0  0
    5.4771  -13.0255   26.2006 C   0  0  0  0  0  0  0  0  0  0  0  0
    6.0259  -11.7884   26.4660 C   0  0  0  0  0  0  0  0  0  0  0  0
    7.4058  -11.6372   26.6011 C   0  0  0  0  0  0  0  0  0  0  0  0
    8.2604  -12.7013   26.4764 C   0  0  0  0  0  0  0  0  0  0  0  0
    7.7255  -13.9425   26.2113 C   0  0  0  0  0  0  0  0  0  0  0  0
    9.7760  -17.9169   25.6155 C   0  0  0  0  0  0  0  0  0  0  0  0
   10.3500  -18.3791   26.6330 O   0  0  0  0  0  0  0  0  0  0  0  0
    8.8099  -18.7149   24.9996 O   0  0  0  0  0  0  0  0  0  0  0  0
  2  1  1  0
  2  3  1  0
  3  4  1  6
  5  6  2  0
  5  3  1  0
  8  7  1  0
  8  9  1  0
  9 11  1  0
  9 10  1  6
 11 12  1  1
 12  5  1  0
 13 11  1  0
 14 13  2  0
 15 13  1  0
 16 27  1  0
 16 15  1  0
 16 17  1  1
 18 17  1  0
 18 19  2  0
 20 19  1  0
 21 20  1  0
 22 21  2  0
 23 22  1  0
 24 23  2  0
 24 25  1  0
 25 26  2  0
 26 21  1  0
 26 18  1  0
 27 29  1  0
 28 27  2  0
M  END
$$$$
