SIW.pdb
     RDKit          3D

 29 30  0  0  1  0  0  0  0  0999 V2000
    7.7553  -19.7444   22.4974 O   0  0  0  0  0  0  0  0  0  0  0  0
    6.5103  -19.3865   21.9931 C   0  0  0  0  0  0  0  0  0  0  0  0
    6.7364  -18.7127   20.6659 C   0  0  2  0  0  0  0  0  0  0  0  0
    7.0599  -19.7261   19.6928 N   0  0  0  0  0  0  0  0  0  0  0  0
    7.8248  -17.6777   20.7728 C   0  0  0  0  0  0  0  0  0  0  0  0
    8.9496  -18.0284   20.3814 O   0  0  0  0  0  0  0  0  0  0  0  0
    6.8857  -12.4669   19.7345 C   0  0  0  0  0  0  0  0  0  0  0  0
    7.6167  -13.7479   19.9298 C   0  0  0  0  0  0  0  0  0  0  0  0
    8.0614  -14.0000   21.3627 C   0  0  2  0  0  0  0  0  0  0  0  0
    9.2346  -13.0240   21.5348 C   0  0  0  0  0  0  0  0  0  0  0  0
    8.6215  -15.3886   21.3976 C   0  0  2  0  0  0  0  0  0  0  0  0
    7.6142  -16.4059   21.2723 N   0  0  0  0  0  0  0  0  0  0  0  0
    9.3895  -15.6666   22.5977 C   0  0  0  0  0  0  0  0  0  0  0  0
   10.5802  -15.1484   22.6754 O   0  0  0  0  0  0  0  0  0  0  0  0
    9.0336  -16.4324   23.7334 N   0  0  0  0  0  0  0  0  0  0  0  0
    9.9544  -16.5572   24.8802 C   0  0  1  0  0  0  0  0  0  0  0  0
    9.7630  -15.3042   25.7155 C   0  0  0  0  0  0  0  0  0  0  0  0
    8.3278  -15.0166   25.9259 C   0  0  0  0  0  0  0  0  0  0  0  0
    7.2997  -15.9329   25.8475 C   0  0  0  0  0  0  0  0  0  0  0  0
    6.1439  -15.2814   26.1028 N   0  0  0  0  0  0  0  0  0  0  0  0
    6.3992  -13.9793   26.3418 C   0  0  0  0  0  0  0  0  0  0  0  0
    5.5346  -12.9455   26.6445 C   0  0  0  0  0  0  0  0  0  0  0  0
    6.0885  -11.6978   26.8408 C   0  0  0  0  0  0  0  0  0  0  0  0
    7.4660  -11.5071   26.7340 C   0  0  0  0  0  0  0  0  0  0  0  0
    8.3131  -12.5416   26.4331 C   0  0  0  0  0  0  0  0  0  0  0  0
    7.7730  -13.7929   26.2346 C   0  0  0  0  0  0  0  0  0  0  0  0
    9.5711  -17.7400   25.6791 C   0  0  0  0  0  0  0  0  0  0  0  0
    8.5930  -18.4710   25.3840 O   0  0  0  0  0  0  0  0  0  0  0  0
   10.3123  -18.0783   26.8131 O   0  0  0  0  0  0  0  0  0  0  0  0
  2  1  1  0
  2  3  1  0
  3  4  1  6
  5  6  2  0
  5  3  1  0
  8  7  1  0
  8  9  1  0
  9 11  1  0
  9 10  1  6
 11 12  1  1
 12  5  1  0
 13 11  1  0
 14 13  2  0
 15 13  1  0
 16 27  1  0
 16 15  1  0
 16 17  1  1
 18 17  1  0
 18 19  2  0
 20 19  1  0
 21 20  1  0
 22 21  2  0
 23 22  1  0
 24 23  2  0
 24 25  1  0
 25 26  2  0
 26 21  1  0
 26 18  1  0
 27 29  1  0
 28 27  2  0
M  END
$$$$
