SIW.pdb
     RDKit          3D

 29 30  0  0  1  0  0  0  0  0999 V2000
   10.8405  -13.2463   17.8864 O   0  0  0  0  0  0  0  0  0  0  0  0
   10.2639  -13.6611   19.0813 C   0  0  0  0  0  0  0  0  0  0  0  0
    8.8299  -14.0171   18.7922 C   0  0  2  0  0  0  0  0  0  0  0  0
    8.1227  -12.8076   18.4523 N   0  0  0  0  0  0  0  0  0  0  0  0
    8.2055  -14.7126   19.9728 C   0  0  0  0  0  0  0  0  0  0  0  0
    7.6255  -13.9808   20.7911 O   0  0  0  0  0  0  0  0  0  0  0  0
    5.8351  -19.4907   19.4617 C   0  0  0  0  0  0  0  0  0  0  0  0
    6.2317  -18.1590   19.9933 C   0  0  0  0  0  0  0  0  0  0  0  0
    7.3715  -18.2037   20.9999 C   0  0  2  0  0  0  0  0  0  0  0  0
    6.7001  -18.7844   22.2531 C   0  0  0  0  0  0  0  0  0  0  0  0
    7.7319  -16.7812   21.2998 C   0  0  2  0  0  0  0  0  0  0  0  0
    8.2588  -16.0811   20.1608 N   0  0  0  0  0  0  0  0  0  0  0  0
    8.6862  -16.6487   22.3857 C   0  0  0  0  0  0  0  0  0  0  0  0
    9.8860  -16.2509   22.0782 O   0  0  0  0  0  0  0  0  0  0  0  0
    8.5096  -16.8873   23.7695 N   0  0  0  0  0  0  0  0  0  0  0  0
    9.5612  -16.5249   24.7396 C   0  0  1  0  0  0  0  0  0  0  0  0
    9.4182  -15.0332   24.9822 C   0  0  0  0  0  0  0  0  0  0  0  0
    8.0488  -14.6930   25.4248 C   0  0  0  0  0  0  0  0  0  0  0  0
    6.9697  -15.5517   25.4470 C   0  0  0  0  0  0  0  0  0  0  0  0
    5.9037  -14.8652   25.9139 N   0  0  0  0  0  0  0  0  0  0  0  0
    6.2658  -13.5964   26.1907 C   0  0  0  0  0  0  0  0  0  0  0  0
    5.5164  -12.5461   26.6836 C   0  0  0  0  0  0  0  0  0  0  0  0
    6.1640  -11.3427   26.8699 C   0  0  0  0  0  0  0  0  0  0  0  0
    7.5191  -11.2108   26.5676 C   0  0  0  0  0  0  0  0  0  0  0  0
    8.2515  -12.2611   26.0790 C   0  0  0  0  0  0  0  0  0  0  0  0
    7.6170  -13.4686   25.8883 C   0  0  0  0  0  0  0  0  0  0  0  0
    9.3206  -17.2506   26.0044 C   0  0  0  0  0  0  0  0  0  0  0  0
   10.0516  -17.1121   27.0166 O   0  0  0  0  0  0  0  0  0  0  0  0
    8.2419  -18.1319   26.1015 O   0  0  0  0  0  0  0  0  0  0  0  0
  2  1  1  0
  2  3  1  0
  3  4  1  1
  5  6  2  0
  5  3  1  0
  8  7  1  0
  8  9  1  0
  9 11  1  0
  9 10  1  1
 11 12  1  6
 12  5  1  0
 13 11  1  0
 14 13  2  0
 15 13  1  0
 16 27  1  0
 16 15  1  0
 16 17  1  1
 18 17  1  0
 18 19  2  0
 20 19  1  0
 21 20  1  0
 22 21  2  0
 23 22  1  0
 24 23  2  0
 24 25  1  0
 25 26  2  0
 26 21  1  0
 26 18  1  0
 27 29  1  0
 28 27  2  0
M  END
$$$$
