SIW.pdb
     RDKit          3D

 29 30  0  0  1  0  0  0  0  0999 V2000
    6.8340  -20.2074   20.7630 O   0  0  0  0  0  0  0  0  0  0  0  0
    8.0274  -19.5061   20.8906 C   0  0  0  0  0  0  0  0  0  0  0  0
    8.0868  -18.5058   19.7671 C   0  0  2  0  0  0  0  0  0  0  0  0
    8.8518  -19.0808   18.6888 N   0  0  0  0  0  0  0  0  0  0  0  0
    8.6842  -17.2074   20.2413 C   0  0  0  0  0  0  0  0  0  0  0  0
    9.9224  -17.1293   20.1955 O   0  0  0  0  0  0  0  0  0  0  0  0
    6.8361  -12.3593   19.0044 C   0  0  0  0  0  0  0  0  0  0  0  0
    7.7208  -13.4513   19.4928 C   0  0  0  0  0  0  0  0  0  0  0  0
    7.5929  -13.7387   20.9812 C   0  0  2  0  0  0  0  0  0  0  0  0
    8.2711  -12.5207   21.6255 C   0  0  0  0  0  0  0  0  0  0  0  0
    8.4523  -14.9332   21.2604 C   0  0  2  0  0  0  0  0  0  0  0  0
    7.9250  -16.1491   20.7048 N   0  0  0  0  0  0  0  0  0  0  0  0
    8.6845  -15.1535   22.6764 C   0  0  0  0  0  0  0  0  0  0  0  0
    7.7897  -14.6986   23.5039 O   0  0  0  0  0  0  0  0  0  0  0  0
    9.7622  -15.8097   23.3174 N   0  0  0  0  0  0  0  0  0  0  0  0
    9.8671  -15.8302   24.7895 C   0  0  1  0  0  0  0  0  0  0  0  0
    8.6099  -16.5148   25.2945 C   0  0  0  0  0  0  0  0  0  0  0  0
    7.5929  -15.5250   25.7101 C   0  0  0  0  0  0  0  0  0  0  0  0
    6.2427  -15.7660   25.8564 C   0  0  0  0  0  0  0  0  0  0  0  0
    5.6563  -14.6135   26.2479 N   0  0  0  0  0  0  0  0  0  0  0  0
    6.5869  -13.6440   26.3567 C   0  0  0  0  0  0  0  0  0  0  0  0
    6.4510  -12.3192   26.7234 C   0  0  0  0  0  0  0  0  0  0  0  0
    7.5963  -11.5511   26.7464 C   0  0  0  0  0  0  0  0  0  0  0  0
    8.8310  -12.1060   26.4104 C   0  0  0  0  0  0  0  0  0  0  0  0
    8.9521  -13.4222   26.0482 C   0  0  0  0  0  0  0  0  0  0  0  0
    7.8162  -14.2006   26.0210 C   0  0  0  0  0  0  0  0  0  0  0  0
   11.0480  -16.6299   25.1771 C   0  0  0  0  0  0  0  0  0  0  0  0
   11.7376  -17.2702   24.3447 O   0  0  0  0  0  0  0  0  0  0  0  0
   11.4319  -16.6912   26.5182 O   0  0  0  0  0  0  0  0  0  0  0  0
  2  1  1  0
  2  3  1  0
  3  4  1  6
  5  6  2  0
  5  3  1  0
  8  7  1  0
  8  9  1  0
  9 11  1  0
  9 10  1  1
 11 12  1  1
 12  5  1  0
 13 11  1  0
 14 13  2  0
 15 13  1  0
 16 27  1  0
 16 15  1  0
 16 17  1  1
 18 17  1  0
 18 19  2  0
 20 19  1  0
 21 20  1  0
 22 21  2  0
 23 22  1  0
 24 23  2  0
 24 25  1  0
 25 26  2  0
 26 21  1  0
 26 18  1  0
 27 29  1  0
 28 27  2  0
M  END
$$$$
