SIW.pdb
     RDKit          3D

 29 30  0  0  1  0  0  0  0  0999 V2000
    4.5866  -19.4166   23.1770 O   0  0  0  0  0  0  0  0  0  0  0  0
    5.8741  -18.9380   22.9632 C   0  0  0  0  0  0  0  0  0  0  0  0
    5.9304  -18.4033   21.5570 C   0  0  2  0  0  0  0  0  0  0  0  0
    6.0258  -19.5209   20.6512 N   0  0  0  0  0  0  0  0  0  0  0  0
    7.0890  -17.4555   21.3938 C   0  0  0  0  0  0  0  0  0  0  0  0
    8.1718  -17.9701   21.0710 O   0  0  0  0  0  0  0  0  0  0  0  0
    6.9371  -12.6815   19.0026 C   0  0  0  0  0  0  0  0  0  0  0  0
    7.4671  -13.9207   19.6327 C   0  0  0  0  0  0  0  0  0  0  0  0
    7.7210  -13.8005   21.1278 C   0  0  2  0  0  0  0  0  0  0  0  0
    8.9873  -12.9340   21.1925 C   0  0  0  0  0  0  0  0  0  0  0  0
    8.0872  -15.1704   21.6100 C   0  0  2  0  0  0  0  0  0  0  0  0
    6.9835  -16.0904   21.5850 N   0  0  0  0  0  0  0  0  0  0  0  0
    8.6428  -15.1763   22.9511 C   0  0  0  0  0  0  0  0  0  0  0  0
    8.5668  -14.0701   23.6314 O   0  0  0  0  0  0  0  0  0  0  0  0
    9.2694  -16.2301   23.6581 N   0  0  0  0  0  0  0  0  0  0  0  0
   10.0520  -15.9605   24.8801 C   0  0  1  0  0  0  0  0  0  0  0  0
    9.1682  -16.3632   26.0468 C   0  0  0  0  0  0  0  0  0  0  0  0
    7.9530  -15.5229   26.1112 C   0  0  0  0  0  0  0  0  0  0  0  0
    6.6607  -15.9523   25.8919 C   0  0  0  0  0  0  0  0  0  0  0  0
    5.8400  -14.8899   26.0433 N   0  0  0  0  0  0  0  0  0  0  0  0
    6.5648  -13.7958   26.3519 C   0  0  0  0  0  0  0  0  0  0  0  0
    6.1562  -12.4988   26.5944 C   0  0  0  0  0  0  0  0  0  0  0  0
    7.1360  -11.5745   26.8909 C   0  0  0  0  0  0  0  0  0  0  0  0
    8.4778  -11.9520   26.9394 C   0  0  0  0  0  0  0  0  0  0  0  0
    8.8699  -13.2426   26.6966 C   0  0  0  0  0  0  0  0  0  0  0  0
    7.9015  -14.1758   26.3993 C   0  0  0  0  0  0  0  0  0  0  0  0
   11.2646  -16.8055   24.8716 C   0  0  0  0  0  0  0  0  0  0  0  0
   12.1662  -16.7083   25.7411 O   0  0  0  0  0  0  0  0  0  0  0  0
   11.4367  -17.7579   23.8652 O   0  0  0  0  0  0  0  0  0  0  0  0
  2  1  1  0
  2  3  1  0
  3  4  1  6
  5  6  2  0
  5  3  1  0
  8  7  1  0
  8  9  1  0
  9 11  1  0
  9 10  1  6
 11 12  1  1
 12  5  1  0
 13 11  1  0
 14 13  2  0
 15 13  1  0
 16 27  1  0
 16 15  1  0
 16 17  1  1
 18 17  1  0
 18 19  2  0
 20 19  1  0
 21 20  1  0
 22 21  2  0
 23 22  1  0
 24 23  2  0
 24 25  1  0
 25 26  2  0
 26 21  1  0
 26 18  1  0
 27 29  1  0
 28 27  2  0
M  END
$$$$
