RTN.pdb
     RDKit          3D

 27 26  0  0  1  0  0  0  0  0999 V2000
   13.0627  -15.3457   12.0186 N   0  0  0  0  0  0  0  0  0  0  0  0
   13.4716  -14.3394   12.9649 C   0  0  0  0  0  0  0  0  0  0  0  0
   13.7532  -13.1701   12.5104 N   0  0  0  0  0  0  0  0  0  0  0  0
   13.5523  -14.6459   14.3323 N   0  0  0  0  0  0  0  0  0  0  0  0
   13.1888  -15.9772   14.8182 C   0  0  0  0  0  0  0  0  0  0  0  0
   11.8684  -16.4107   14.2473 C   0  0  0  0  0  0  0  0  0  0  0  0
   10.8797  -16.8533   15.2644 C   0  0  0  0  0  0  0  0  0  0  0  0
    9.6228  -16.0523   15.3550 C   0  0  2  0  0  0  0  0  0  0  0  0
    9.1988  -15.4232   14.1424 N   0  0  0  0  0  0  0  0  0  0  0  0
    9.7554  -15.0832   16.4799 C   0  0  0  0  0  0  0  0  0  0  0  0
   10.4238  -14.0318   16.3913 O   0  0  0  0  0  0  0  0  0  0  0  0
   14.0674  -12.3953   13.1232 C   0  0  0  0  0  0  0  0  0  0  0  0
    7.8446  -12.8515   20.1918 C   0  0  2  0  0  0  0  0  0  0  0  0
    7.8548  -13.8400   19.0457 O   0  0  0  0  0  0  0  0  0  0  0  0
    7.3947  -13.2467   17.8617 C   0  0  1  0  0  0  0  0  0  0  0  0
    9.1598  -14.5283   18.8661 N   0  0  0  0  0  0  0  0  0  0  0  0
    9.0991  -15.3691   17.6908 C   0  0  0  0  0  0  0  0  0  0  0  0
    9.6534  -15.2636   20.0527 O   0  0  0  0  0  0  0  0  0  0  0  0
    9.3684  -16.4773   20.2183 N   0  0  0  0  0  0  0  0  0  0  0  0
   10.2309  -17.9664   24.4313 C   0  0  0  0  0  0  0  0  0  0  0  0
    9.8358  -16.7055   23.8812 O   0  0  0  0  0  0  0  0  0  0  0  0
    9.2694  -15.9141   24.6554 C   0  0  0  0  0  0  0  0  0  0  0  0
   10.1100  -16.4273   22.4886 C   0  0  2  0  0  0  0  0  0  0  0  0
   11.0520  -15.3137   22.1722 N   0  0  0  0  0  0  0  0  0  0  0  0
   10.4582  -14.6051   21.0231 C   0  0  0  0  0  0  0  0  0  0  0  0
   12.3632  -15.8146   21.7739 O   0  0  0  0  0  0  0  0  0  0  0  0
   13.3955  -15.4909   22.4658 O   0  0  0  0  0  0  0  0  0  0  0  0
  2  1  1  0
  3  2  2  0
  4  2  1  0
  5  4  1  0
  6  5  1  0
  7  6  1  0
  8  9  1  6
  8 10  1  0
  8  7  1  0
 10 16  1  0
 10 11  2  0
 13 12  1  1
 14 13  1  0
 15 13  1  0
 15 16  1  1
 17 24  1  0
 17 15  1  0
 18 17  2  0
 19 20  1  0
 20 21  2  0
 20 22  1  0
 23 22  1  1
 23 25  1  0
 23 24  1  0
 25 27  1  0
 26 25  2  0
M  END
$$$$
