RTN.pdb
     RDKit          3D

 27 26  0  0  1  0  0  0  0  0999 V2000
    8.2502  -13.1609   18.1254 N   0  0  0  0  0  0  0  0  0  0  0  0
    8.6357  -12.5946   19.3926 C   0  0  0  0  0  0  0  0  0  0  0  0
    8.9898  -11.3587   19.4126 N   0  0  0  0  0  0  0  0  0  0  0  0
    8.6172  -13.3825   20.5541 N   0  0  0  0  0  0  0  0  0  0  0  0
    8.5730  -14.8420   20.4614 C   0  0  0  0  0  0  0  0  0  0  0  0
    7.1697  -15.3178   20.2126 C   0  0  0  0  0  0  0  0  0  0  0  0
    6.4910  -15.8706   21.4133 C   0  0  0  0  0  0  0  0  0  0  0  0
    6.9478  -17.2176   21.8677 C   0  0  2  0  0  0  0  0  0  0  0  0
    6.4100  -18.3309   21.1485 N   0  0  0  0  0  0  0  0  0  0  0  0
    6.7189  -17.3279   23.3366 C   0  0  0  0  0  0  0  0  0  0  0  0
    5.5820  -17.4661   23.8352 O   0  0  0  0  0  0  0  0  0  0  0  0
    9.2423  -10.8659   20.2889 C   0  0  0  0  0  0  0  0  0  0  0  0
    5.8655  -19.1278   25.1164 C   0  0  2  0  0  0  0  0  0  0  0  0
    7.2127  -18.9499   25.7829 O   0  0  0  0  0  0  0  0  0  0  0  0
    8.1029  -19.9642   25.4033 C   0  0  2  0  0  0  0  0  0  0  0  0
    7.7895  -17.5918   25.6040 N   0  0  0  0  0  0  0  0  0  0  0  0
    7.8328  -17.2727   24.1939 C   0  0  0  0  0  0  0  0  0  0  0  0
    9.0948  -17.3687   26.2663 O   0  0  0  0  0  0  0  0  0  0  0  0
   10.1687  -17.6595   25.6798 N   0  0  0  0  0  0  0  0  0  0  0  0
    8.7226  -13.2828   28.8614 C   0  0  0  0  0  0  0  0  0  0  0  0
    9.7539  -14.1050   28.3056 O   0  0  0  0  0  0  0  0  0  0  0  0
   10.2169  -13.7498   27.2074 C   0  0  0  0  0  0  0  0  0  0  0  0
   10.1908  -15.2758   29.0337 C   0  0  2  0  0  0  0  0  0  0  0  0
   10.4259  -16.5305   28.2605 N   0  0  0  0  0  0  0  0  0  0  0  0
    9.1512  -16.8215   27.5780 C   0  0  0  0  0  0  0  0  0  0  0  0
   10.7422  -17.6524   29.1381 O   0  0  0  0  0  0  0  0  0  0  0  0
    9.8726  -18.5822   29.3066 O   0  0  0  0  0  0  0  0  0  0  0  0
  2  1  1  0
  3  2  2  0
  4  2  1  0
  5  4  1  0
  6  5  1  0
  7  6  1  0
  8  9  1  6
  8 10  1  0
  8  7  1  0
 10 16  1  0
 10 11  2  0
 13 12  1  1
 14 13  1  0
 15 13  1  0
 15 16  1  1
 17 24  1  0
 17 15  1  0
 18 17  2  0
 19 20  1  0
 20 21  2  0
 20 22  1  0
 23 22  1  6
 23 25  1  0
 23 24  1  0
 25 27  1  0
 26 25  2  0
M  END
$$$$
