RTN.pdb
     RDKit          3D

 27 26  0  0  1  0  0  0  0  0999 V2000
    6.7916  -12.9141   18.8678 N   0  0  0  0  0  0  0  0  0  0  0  0
    8.1848  -13.2382   19.0384 C   0  0  0  0  0  0  0  0  0  0  0  0
    8.8181  -12.6677   20.0010 N   0  0  0  0  0  0  0  0  0  0  0  0
    8.8100  -14.1493   18.1727 N   0  0  0  0  0  0  0  0  0  0  0  0
    8.1294  -15.3810   17.7726 C   0  0  0  0  0  0  0  0  0  0  0  0
    8.5868  -16.5396   18.6128 C   0  0  0  0  0  0  0  0  0  0  0  0
    7.6017  -16.9782   19.6352 C   0  0  0  0  0  0  0  0  0  0  0  0
    8.0528  -16.9118   21.0571 C   0  0  2  0  0  0  0  0  0  0  0  0
    8.6245  -15.6673   21.4696 N   0  0  0  0  0  0  0  0  0  0  0  0
    8.9564  -18.0669   21.3247 C   0  0  0  0  0  0  0  0  0  0  0  0
    8.6038  -19.2537   21.1588 O   0  0  0  0  0  0  0  0  0  0  0  0
    9.8412  -12.7704   20.1325 C   0  0  0  0  0  0  0  0  0  0  0  0
   12.0992  -18.9671   19.8437 C   0  0  2  0  0  0  0  0  0  0  0  0
   12.4031  -18.7564   21.3115 O   0  0  0  0  0  0  0  0  0  0  0  0
   13.1415  -17.5816   21.5117 C   0  0  2  0  0  0  0  0  0  0  0  0
   11.2015  -18.8277   22.1833 N   0  0  0  0  0  0  0  0  0  0  0  0
   10.2599  -17.8050   21.7841 C   0  0  0  0  0  0  0  0  0  0  0  0
   11.4752  -18.7961   23.6381 O   0  0  0  0  0  0  0  0  0  0  0  0
   11.0983  -17.8228   24.3398 N   0  0  0  0  0  0  0  0  0  0  0  0
    9.9618  -20.5348   28.4838 C   0  0  0  0  0  0  0  0  0  0  0  0
   11.1283  -20.0202   27.8335 O   0  0  0  0  0  0  0  0  0  0  0  0
   12.0749  -19.6896   28.5691 C   0  0  0  0  0  0  0  0  0  0  0  0
   11.1422  -19.9150   26.3910 C   0  0  2  0  0  0  0  0  0  0  0  0
   12.4682  -19.8851   25.7067 N   0  0  0  0  0  0  0  0  0  0  0  0
   12.1700  -19.8687   24.2624 C   0  0  0  0  0  0  0  0  0  0  0  0
   13.2519  -21.0805   25.9992 O   0  0  0  0  0  0  0  0  0  0  0  0
   12.9684  -22.1795   25.3983 O   0  0  0  0  0  0  0  0  0  0  0  0
  2  1  1  0
  3  2  2  0
  4  2  1  0
  5  4  1  0
  6  5  1  0
  7  6  1  0
  8  9  1  6
  8 10  1  0
  8  7  1  0
 10 16  1  0
 10 11  2  0
 13 12  1  6
 14 13  1  0
 15 13  1  0
 15 16  1  1
 17 24  1  0
 17 15  1  0
 18 17  2  0
 19 20  1  0
 20 21  2  0
 20 22  1  0
 23 22  1  1
 23 25  1  0
 23 24  1  0
 25 27  1  0
 26 25  2  0
M  END
$$$$
