RTN.pdb
     RDKit          3D

 27 26  0  0  1  0  0  0  0  0999 V2000
    7.8346  -18.9271   12.3607 N   0  0  0  0  0  0  0  0  0  0  0  0
    6.7003  -18.0948   12.6704 C   0  0  0  0  0  0  0  0  0  0  0  0
    6.3731  -17.1886   11.8190 N   0  0  0  0  0  0  0  0  0  0  0  0
    5.9898  -18.2843   13.8661 N   0  0  0  0  0  0  0  0  0  0  0  0
    6.4619  -19.2407   14.8675 C   0  0  0  0  0  0  0  0  0  0  0  0
    7.8824  -18.9456   15.2582 C   0  0  0  0  0  0  0  0  0  0  0  0
    8.0189  -17.9732   16.3735 C   0  0  0  0  0  0  0  0  0  0  0  0
    8.7804  -16.7249   16.0709 C   0  0  2  0  0  0  0  0  0  0  0  0
    9.8477  -16.8618   15.1285 N   0  0  0  0  0  0  0  0  0  0  0  0
    9.2332  -16.1197   17.3558 C   0  0  0  0  0  0  0  0  0  0  0  0
   10.3748  -16.3077   17.8265 O   0  0  0  0  0  0  0  0  0  0  0  0
    5.5382  -16.5862   11.9401 C   0  0  0  0  0  0  0  0  0  0  0  0
    7.8253  -12.9477   20.9574 C   0  0  1  0  0  0  0  0  0  0  0  0
    7.5798  -13.6883   19.6605 O   0  0  0  0  0  0  0  0  0  0  0  0
    7.3674  -12.7957   18.6005 C   0  0  1  0  0  0  0  0  0  0  0  0
    8.6208  -14.7025   19.3491 N   0  0  0  0  0  0  0  0  0  0  0  0
    8.3334  -15.3039   18.0654 C   0  0  0  0  0  0  0  0  0  0  0  0
    8.8467  -15.7182   20.4024 O   0  0  0  0  0  0  0  0  0  0  0  0
    8.3506  -16.8693   20.2993 N   0  0  0  0  0  0  0  0  0  0  0  0
   13.1781  -17.8488   23.5986 C   0  0  0  0  0  0  0  0  0  0  0  0
   11.7785  -17.8878   23.3018 O   0  0  0  0  0  0  0  0  0  0  0  0
   11.1079  -18.7503   23.8959 C   0  0  0  0  0  0  0  0  0  0  0  0
   11.2334  -16.9448   22.3502 C   0  0  2  0  0  0  0  0  0  0  0  0
    9.8807  -16.3781   22.6265 N   0  0  0  0  0  0  0  0  0  0  0  0
    9.6296  -15.4043   21.5477 C   0  0  0  0  0  0  0  0  0  0  0  0
    9.8443  -15.6691   23.9013 O   0  0  0  0  0  0  0  0  0  0  0  0
   10.2163  -14.4409   23.9473 O   0  0  0  0  0  0  0  0  0  0  0  0
  2  1  1  0
  3  2  2  0
  4  2  1  0
  5  4  1  0
  6  5  1  0
  7  6  1  0
  8  9  1  6
  8 10  1  0
  8  7  1  0
 10 16  1  0
 10 11  2  0
 13 12  1  1
 14 13  1  0
 15 13  1  0
 15 16  1  1
 17 24  1  0
 17 15  1  0
 18 17  2  0
 19 20  1  0
 20 21  2  0
 20 22  1  0
 23 22  1  6
 23 25  1  0
 23 24  1  0
 25 27  1  0
 26 25  2  0
M  END
$$$$
