RTN.pdb
     RDKit          3D

 27 26  0  0  1  0  0  0  0  0999 V2000
    8.3563  -11.7262   19.2128 N   0  0  0  0  0  0  0  0  0  0  0  0
    8.6232  -12.8827   18.3963 C   0  0  0  0  0  0  0  0  0  0  0  0
    8.3047  -12.8228   17.1520 N   0  0  0  0  0  0  0  0  0  0  0  0
    9.2124  -14.0253   18.9598 N   0  0  0  0  0  0  0  0  0  0  0  0
    8.4140  -15.2246   19.2141 C   0  0  0  0  0  0  0  0  0  0  0  0
    7.0970  -14.8647   19.8416 C   0  0  0  0  0  0  0  0  0  0  0  0
    7.0109  -15.1658   21.2942 C   0  0  0  0  0  0  0  0  0  0  0  0
    7.8347  -16.3125   21.7802 C   0  0  2  0  0  0  0  0  0  0  0  0
    7.8415  -17.4714   20.9419 N   0  0  0  0  0  0  0  0  0  0  0  0
    7.4326  -16.6283   23.1805 C   0  0  0  0  0  0  0  0  0  0  0  0
    6.2440  -16.8123   23.5174 O   0  0  0  0  0  0  0  0  0  0  0  0
    8.4999  -13.5957   16.4895 C   0  0  0  0  0  0  0  0  0  0  0  0
    6.3293  -18.6280   24.6093 C   0  0  2  0  0  0  0  0  0  0  0  0
    7.6191  -18.5962   25.4007 O   0  0  0  0  0  0  0  0  0  0  0  0
    8.5243  -19.5587   24.9318 C   0  0  2  0  0  0  0  0  0  0  0  0
    8.2263  -17.2428   25.4933 N   0  0  0  0  0  0  0  0  0  0  0  0
    8.4372  -16.7213   24.1608 C   0  0  0  0  0  0  0  0  0  0  0  0
    9.4476  -17.1552   26.3258 O   0  0  0  0  0  0  0  0  0  0  0  0
   10.5729  -17.4451   25.8448 N   0  0  0  0  0  0  0  0  0  0  0  0
    8.8213  -13.3733   29.0185 C   0  0  0  0  0  0  0  0  0  0  0  0
   10.0074  -14.1050   28.6925 O   0  0  0  0  0  0  0  0  0  0  0  0
   10.7489  -13.6055   27.8281 C   0  0  0  0  0  0  0  0  0  0  0  0
   10.2726  -15.3551   29.3698 C   0  0  2  0  0  0  0  0  0  0  0  0
   10.5569  -16.5562   28.5308 N   0  0  0  0  0  0  0  0  0  0  0  0
    9.3636  -16.7412   27.6840 C   0  0  0  0  0  0  0  0  0  0  0  0
   10.7301  -17.7537   29.3462 O   0  0  0  0  0  0  0  0  0  0  0  0
    9.7920  -18.6299   29.3820 O   0  0  0  0  0  0  0  0  0  0  0  0
  2  1  1  0
  3  2  2  0
  4  2  1  0
  5  4  1  0
  6  5  1  0
  7  6  1  0
  8  9  1  6
  8 10  1  0
  8  7  1  0
 10 16  1  0
 10 11  2  0
 13 12  1  1
 14 13  1  0
 15 13  1  0
 15 16  1  1
 17 24  1  0
 17 15  1  0
 18 17  2  0
 19 20  1  0
 20 21  2  0
 20 22  1  0
 23 22  1  6
 23 25  1  0
 23 24  1  0
 25 27  1  0
 26 25  2  0
M  END
$$$$
