RTN.pdb
     RDKit          3D

 27 26  0  0  1  0  0  0  0  0999 V2000
    9.2586  -11.4723   19.0517 N   0  0  0  0  0  0  0  0  0  0  0  0
    8.2056  -12.4511   19.1426 C   0  0  0  0  0  0  0  0  0  0  0  0
    7.2971  -12.2712   20.0345 N   0  0  0  0  0  0  0  0  0  0  0  0
    8.1902  -13.5557   18.2766 N   0  0  0  0  0  0  0  0  0  0  0  0
    7.2390  -14.6481   18.4824 C   0  0  0  0  0  0  0  0  0  0  0  0
    6.9843  -14.8640   19.9474 C   0  0  0  0  0  0  0  0  0  0  0  0
    7.8863  -15.8591   20.5832 C   0  0  0  0  0  0  0  0  0  0  0  0
    8.4142  -16.9349   19.6923 C   0  0  2  0  0  0  0  0  0  0  0  0
    7.4657  -17.9254   19.2858 N   0  0  0  0  0  0  0  0  0  0  0  0
    9.6203  -17.5339   20.3317 C   0  0  0  0  0  0  0  0  0  0  0  0
    9.5570  -18.2645   21.3429 O   0  0  0  0  0  0  0  0  0  0  0  0
    7.2794  -11.4382   20.6513 C   0  0  0  0  0  0  0  0  0  0  0  0
   12.3309  -19.4116   18.3901 C   0  0  2  0  0  0  0  0  0  0  0  0
   12.9619  -18.2690   19.1563 O   0  0  0  0  0  0  0  0  0  0  0  0
   13.3544  -17.2365   18.2929 C   0  0  2  0  0  0  0  0  0  0  0  0
   12.1291  -17.7792   20.2857 N   0  0  0  0  0  0  0  0  0  0  0  0
   10.8808  -17.2617   19.7699 C   0  0  0  0  0  0  0  0  0  0  0  0
   12.7983  -16.8190   21.1926 O   0  0  0  0  0  0  0  0  0  0  0  0
   12.6696  -15.5797   21.0213 N   0  0  0  0  0  0  0  0  0  0  0  0
   11.9178  -16.4988   24.7933 C   0  0  0  0  0  0  0  0  0  0  0  0
   13.0905  -17.1513   25.2908 O   0  0  0  0  0  0  0  0  0  0  0  0
   12.9794  -17.7396   26.3808 C   0  0  0  0  0  0  0  0  0  0  0  0
   14.3114  -17.0923   24.5175 C   0  0  2  0  0  0  0  0  0  0  0  0
   14.2749  -16.3727   23.2105 N   0  0  0  0  0  0  0  0  0  0  0  0
   13.5976  -17.2870   22.2720 C   0  0  0  0  0  0  0  0  0  0  0  0
   15.6175  -16.1083   22.7040 O   0  0  0  0  0  0  0  0  0  0  0  0
   16.1767  -16.9670   21.9299 O   0  0  0  0  0  0  0  0  0  0  0  0
  2  1  1  0
  3  2  2  0
  4  2  1  0
  5  4  1  0
  6  5  1  0
  7  6  1  0
  8  9  1  1
  8 10  1  0
  8  7  1  0
 10 16  1  0
 10 11  2  0
 13 12  1  6
 14 13  1  0
 15 13  1  0
 15 16  1  1
 17 24  1  0
 17 15  1  0
 18 17  2  0
 19 20  1  0
 20 21  2  0
 20 22  1  0
 23 22  1  1
 23 25  1  0
 23 24  1  0
 25 27  1  0
 26 25  2  0
M  END
$$$$
