WEP.pdb
     RDKit          3D

 31 33  0  0  1  0  0  0  0  0999 V2000
   24.3836  -19.8065   -9.1302 N   0  0  0  0  0  0  0  0  0  0  0  0
   25.7118  -19.9393   -9.6383 C   0  0  1  0  0  0  0  0  0  0  0  0
   26.4934  -21.0166   -8.8751 C   0  0  0  0  0  0  0  0  0  0  0  0
   26.6180  -20.7064   -7.4445 C   0  0  0  0  0  0  0  0  0  0  0  0
   25.5787  -20.6550   -6.5132 C   0  0  0  0  0  0  0  0  0  0  0  0
   26.0969  -20.3773   -5.3107 N   0  0  0  0  0  0  0  0  0  0  0  0
   27.4378  -20.2422   -5.4116 C   0  0  0  0  0  0  0  0  0  0  0  0
   28.4362  -19.9588   -4.5060 C   0  0  0  0  0  0  0  0  0  0  0  0
   29.7486  -19.8664   -4.8602 C   0  0  0  0  0  0  0  0  0  0  0  0
   30.0596  -20.0689   -6.1804 C   0  0  0  0  0  0  0  0  0  0  0  0
   29.1050  -20.3573   -7.1386 C   0  0  0  0  0  0  0  0  0  0  0  0
   27.7688  -20.4483   -6.7538 C   0  0  0  0  0  0  0  0  0  0  0  0
   25.7555  -20.2375  -11.0924 C   0  0  0  0  0  0  0  0  0  0  0  0
   24.8782  -21.0175  -11.5791 O   0  0  0  0  0  0  0  0  0  0  0  0
   26.7010  -19.7189  -12.0009 N   0  0  0  0  0  0  0  0  0  0  0  0
   26.5176  -19.8134  -13.4275 C   0  0  1  0  0  0  0  0  0  0  0  0
   27.5901  -18.9581  -14.0513 C   0  0  0  0  0  0  0  0  0  0  0  0
   27.6349  -18.9706  -15.5356 C   0  0  0  0  0  0  0  0  0  0  0  0
   28.4986  -17.9595  -16.1556 C   0  0  0  0  0  0  0  0  0  0  0  0
   29.0327  -17.1179  -15.3865 O   0  0  0  0  0  0  0  0  0  0  0  0
   26.4283  -21.1726  -13.9659 C   0  0  0  0  0  0  0  0  0  0  0  0
   27.3888  -21.9472  -13.6346 O   0  0  0  0  0  0  0  0  0  0  0  0
   28.7868  -17.8357  -17.4996 O   0  0  0  0  0  0  0  0  0  0  0  0
   25.3948  -21.6875  -14.7994 N   0  0  0  0  0  0  0  0  0  0  0  0
   24.1898  -21.0587  -15.2548 C   0  0  0  0  0  0  0  0  0  0  0  0
   23.7445  -21.9346  -16.4034 C   0  0  0  0  0  0  0  0  0  0  0  0
   24.0286  -23.3122  -15.8331 C   0  0  0  0  0  0  0  0  0  0  0  0
   25.4493  -23.0607  -15.3214 C   0  0  1  0  0  0  0  0  0  0  0  0
   26.4190  -23.1122  -16.4435 C   0  0  0  0  0  0  0  0  0  0  0  0
   26.9311  -22.0936  -16.9681 O   0  0  0  0  0  0  0  0  0  0  0  0
   26.8024  -24.3380  -16.9623 O   0  0  0  0  0  0  0  0  0  0  0  0
  2  1  1  1
  2  3  1  0
  2 13  1  0
  3  4  1  0
  4  5  2  0
  5  6  1  0
  7  6  1  0
  8  7  2  0
  9  8  1  0
 10 11  1  0
 10  9  2  0
 11 12  2  0
 12  4  1  0
 12  7  1  0
 13 15  1  0
 13 14  2  0
 15 16  1  0
 16 17  1  6
 17 18  1  0
 18 19  1  0
 19 23  1  0
 20 19  2  0
 21 16  1  0
 21 22  2  0
 24 21  1  0
 25 24  1  0
 26 27  1  0
 26 25  1  0
 27 28  1  0
 28 24  1  0
 28 29  1  6
 29 31  1  0
 30 29  2  0
M  END
$$$$
