WEP.pdb
     RDKit          3D

 31 33  0  0  1  0  0  0  0  0999 V2000
   24.8056  -18.8216  -11.2897 N   0  0  0  0  0  0  0  0  0  0  0  0
   25.6038  -19.9411  -11.6762 C   0  0  1  0  0  0  0  0  0  0  0  0
   25.5794  -21.0376  -10.6032 C   0  0  0  0  0  0  0  0  0  0  0  0
   26.2662  -20.6269   -9.3711 C   0  0  0  0  0  0  0  0  0  0  0  0
   25.6658  -20.1245   -8.2147 C   0  0  0  0  0  0  0  0  0  0  0  0
   26.6188  -19.9023   -7.3015 N   0  0  0  0  0  0  0  0  0  0  0  0
   27.8252  -20.2374   -7.8099 C   0  0  0  0  0  0  0  0  0  0  0  0
   29.1095  -20.2047   -7.3127 C   0  0  0  0  0  0  0  0  0  0  0  0
   30.1921  -20.5988   -8.0402 C   0  0  0  0  0  0  0  0  0  0  0  0
   29.9640  -21.0423   -9.3176 C   0  0  0  0  0  0  0  0  0  0  0  0
   28.6998  -21.1004   -9.8753 C   0  0  0  0  0  0  0  0  0  0  0  0
   27.6066  -20.6934   -9.1129 C   0  0  0  0  0  0  0  0  0  0  0  0
   25.2036  -20.5225  -12.9827 C   0  0  0  0  0  0  0  0  0  0  0  0
   23.9653  -20.6612  -13.2320 O   0  0  0  0  0  0  0  0  0  0  0  0
   26.0934  -20.9401  -13.9938 N   0  0  0  0  0  0  0  0  0  0  0  0
   25.6733  -21.0861  -15.3649 C   0  0  1  0  0  0  0  0  0  0  0  0
   26.9154  -20.9470  -16.2069 C   0  0  0  0  0  0  0  0  0  0  0  0
   26.7111  -21.0692  -17.6726 C   0  0  0  0  0  0  0  0  0  0  0  0
   27.8189  -21.6719  -18.4224 C   0  0  0  0  0  0  0  0  0  0  0  0
   28.9191  -21.7842  -17.8208 O   0  0  0  0  0  0  0  0  0  0  0  0
   24.8657  -22.2725  -15.6570 C   0  0  0  0  0  0  0  0  0  0  0  0
   25.3732  -23.3786  -15.2681 O   0  0  0  0  0  0  0  0  0  0  0  0
   27.7789  -22.1299  -19.7238 O   0  0  0  0  0  0  0  0  0  0  0  0
   23.6030  -22.2968  -16.3152 N   0  0  0  0  0  0  0  0  0  0  0  0
   22.8276  -21.2136  -16.8446 C   0  0  0  0  0  0  0  0  0  0  0  0
   21.8365  -21.8992  -17.7571 C   0  0  0  0  0  0  0  0  0  0  0  0
   21.4680  -23.1071  -16.9150 C   0  0  0  0  0  0  0  0  0  0  0  0
   22.8794  -23.5583  -16.5301 C   0  0  1  0  0  0  0  0  0  0  0  0
   23.5117  -24.2919  -17.6543 C   0  0  0  0  0  0  0  0  0  0  0  0
   24.3730  -23.7894  -18.4164 O   0  0  0  0  0  0  0  0  0  0  0  0
   23.1544  -25.6071  -17.9017 O   0  0  0  0  0  0  0  0  0  0  0  0
  2  1  1  1
  2  3  1  0
  2 13  1  0
  3  4  1  0
  4  5  2  0
  5  6  1  0
  7  6  1  0
  8  7  2  0
  9  8  1  0
 10 11  1  0
 10  9  2  0
 11 12  2  0
 12  4  1  0
 12  7  1  0
 13 15  1  0
 13 14  2  0
 15 16  1  0
 16 17  1  6
 17 18  1  0
 18 19  1  0
 19 23  1  0
 20 19  2  0
 21 16  1  0
 21 22  2  0
 24 21  1  0
 25 24  1  0
 26 27  1  0
 26 25  1  0
 27 28  1  0
 28 24  1  0
 28 29  1  6
 29 31  1  0
 30 29  2  0
M  END
$$$$
