WEP.pdb
     RDKit          3D

 31 33  0  0  1  0  0  0  0  0999 V2000
   12.4258  -21.3075    2.5811 N   0  0  0  0  0  0  0  0  0  0  0  0
   13.8167  -21.6116    2.4673 C   0  0  1  0  0  0  0  0  0  0  0  0
   14.6453  -20.8092    3.4790 C   0  0  0  0  0  0  0  0  0  0  0  0
   14.7668  -19.3943    3.1024 C   0  0  0  0  0  0  0  0  0  0  0  0
   13.9072  -18.3594    3.4769 C   0  0  0  0  0  0  0  0  0  0  0  0
   14.3724  -17.2128    2.9664 N   0  0  0  0  0  0  0  0  0  0  0  0
   15.5052  -17.4502    2.2687 C   0  0  0  0  0  0  0  0  0  0  0  0
   16.3684  -16.6485    1.5548 C   0  0  0  0  0  0  0  0  0  0  0  0
   17.4686  -17.1356    0.9154 C   0  0  0  0  0  0  0  0  0  0  0  0
   17.7019  -18.4840    1.0034 C   0  0  0  0  0  0  0  0  0  0  0  0
   16.8749  -19.3426    1.7045 C   0  0  0  0  0  0  0  0  0  0  0  0
   15.7558  -18.8227    2.3519 C   0  0  0  0  0  0  0  0  0  0  0  0
   14.1147  -23.0579    2.6245 C   0  0  0  0  0  0  0  0  0  0  0  0
   13.4374  -23.7298    3.4640 O   0  0  0  0  0  0  0  0  0  0  0  0
   15.1003  -23.7677    1.9082 N   0  0  0  0  0  0  0  0  0  0  0  0
   15.3186  -25.1785    2.1078 C   0  0  1  0  0  0  0  0  0  0  0  0
   15.5006  -25.7783    0.7374 C   0  0  0  0  0  0  0  0  0  0  0  0
   15.6783  -27.2522    0.7032 C   0  0  0  0  0  0  0  0  0  0  0  0
   15.8409  -27.8436   -0.6296 C   0  0  0  0  0  0  0  0  0  0  0  0
   15.9110  -27.0466   -1.6016 O   0  0  0  0  0  0  0  0  0  0  0  0
   16.3641  -25.5273    3.0724 C   0  0  0  0  0  0  0  0  0  0  0  0
   17.4433  -24.8520    2.9647 O   0  0  0  0  0  0  0  0  0  0  0  0
   15.9250  -29.1884   -0.9285 O   0  0  0  0  0  0  0  0  0  0  0  0
   16.2820  -26.5223    4.0880 N   0  0  0  0  0  0  0  0  0  0  0  0
   15.2195  -27.4368    4.3874 C   0  0  0  0  0  0  0  0  0  0  0  0
   15.8818  -28.4761    5.2627 C   0  0  0  0  0  0  0  0  0  0  0  0
   16.7509  -27.5930    6.1395 C   0  0  0  0  0  0  0  0  0  0  0  0
   17.3800  -26.7289    5.0435 C   0  0  1  0  0  0  0  0  0  0  0  0
   18.4750  -27.4681    4.3678 C   0  0  0  0  0  0  0  0  0  0  0  0
   18.3704  -27.9753    3.2247 O   0  0  0  0  0  0  0  0  0  0  0  0
   19.6940  -27.6226    5.0073 O   0  0  0  0  0  0  0  0  0  0  0  0
  2  1  1  1
  2  3  1  0
  2 13  1  0
  3  4  1  0
  4  5  2  0
  5  6  1  0
  7  6  1  0
  8  7  2  0
  9  8  1  0
 10 11  1  0
 10  9  2  0
 11 12  2  0
 12  4  1  0
 12  7  1  0
 13 15  1  0
 13 14  2  0
 15 16  1  0
 16 17  1  6
 17 18  1  0
 18 19  1  0
 19 23  1  0
 20 19  2  0
 21 16  1  0
 21 22  2  0
 24 21  1  0
 25 24  1  0
 26 27  1  0
 26 25  1  0
 27 28  1  0
 28 24  1  0
 28 29  1  6
 29 31  1  0
 30 29  2  0
M  END
$$$$
