WEP.pdb
     RDKit          3D

 31 33  0  0  1  0  0  0  0  0999 V2000
   25.5351  -21.7767   -7.3228 N   0  0  0  0  0  0  0  0  0  0  0  0
   25.7538  -20.7518   -8.2932 C   0  0  1  0  0  0  0  0  0  0  0  0
   27.2357  -20.3607   -8.3638 C   0  0  0  0  0  0  0  0  0  0  0  0
   27.9135  -20.5091   -7.0688 C   0  0  0  0  0  0  0  0  0  0  0  0
   28.5731  -21.6486   -6.6034 C   0  0  0  0  0  0  0  0  0  0  0  0
   29.0915  -21.3793   -5.3991 N   0  0  0  0  0  0  0  0  0  0  0  0
   28.7992  -20.1067   -5.0505 C   0  0  0  0  0  0  0  0  0  0  0  0
   29.0769  -19.3360   -3.9431 C   0  0  0  0  0  0  0  0  0  0  0  0
   28.6559  -18.0462   -3.8180 C   0  0  0  0  0  0  0  0  0  0  0  0
   27.9273  -17.5191   -4.8532 C   0  0  0  0  0  0  0  0  0  0  0  0
   27.6154  -18.2392   -5.9920 C   0  0  0  0  0  0  0  0  0  0  0  0
   28.0572  -19.5565   -6.0994 C   0  0  0  0  0  0  0  0  0  0  0  0
   25.2769  -21.1193   -9.6508 C   0  0  0  0  0  0  0  0  0  0  0  0
   25.7377  -22.1727  -10.1918 O   0  0  0  0  0  0  0  0  0  0  0  0
   24.3365  -20.3902  -10.4074 N   0  0  0  0  0  0  0  0  0  0  0  0
   23.8968  -20.8334  -11.7066 C   0  0  1  0  0  0  0  0  0  0  0  0
   22.4014  -20.6494  -11.7346 C   0  0  0  0  0  0  0  0  0  0  0  0
   21.7436  -20.9570  -13.0299 C   0  0  0  0  0  0  0  0  0  0  0  0
   20.7196  -20.0016  -13.4674 C   0  0  0  0  0  0  0  0  0  0  0  0
   20.1381  -19.3389  -12.5687 O   0  0  0  0  0  0  0  0  0  0  0  0
   24.6065  -20.2513  -12.8480 C   0  0  0  0  0  0  0  0  0  0  0  0
   24.6273  -18.9741  -12.8749 O   0  0  0  0  0  0  0  0  0  0  0  0
   20.3270  -19.7537  -14.7671 O   0  0  0  0  0  0  0  0  0  0  0  0
   25.2553  -20.9650  -13.8957 N   0  0  0  0  0  0  0  0  0  0  0  0
   25.4199  -22.3779  -14.0733 C   0  0  0  0  0  0  0  0  0  0  0  0
   25.8023  -22.5105  -15.5297 C   0  0  0  0  0  0  0  0  0  0  0  0
   26.7590  -21.3413  -15.6768 C   0  0  0  0  0  0  0  0  0  0  0  0
   25.9046  -20.2599  -15.0103 C   0  0  1  0  0  0  0  0  0  0  0  0
   24.8613  -19.7753  -15.9478 C   0  0  0  0  0  0  0  0  0  0  0  0
   23.6566  -20.1217  -15.8880 O   0  0  0  0  0  0  0  0  0  0  0  0
   25.2038  -18.8885  -16.9553 O   0  0  0  0  0  0  0  0  0  0  0  0
  2  1  1  1
  2  3  1  0
  2 13  1  0
  3  4  1  0
  4  5  2  0
  5  6  1  0
  7  6  1  0
  8  7  2  0
  9  8  1  0
 10 11  1  0
 10  9  2  0
 11 12  2  0
 12  4  1  0
 12  7  1  0
 13 15  1  0
 13 14  2  0
 15 16  1  0
 16 17  1  6
 17 18  1  0
 18 19  1  0
 19 23  1  0
 20 19  2  0
 21 16  1  0
 21 22  2  0
 24 21  1  0
 25 24  1  0
 26 27  1  0
 26 25  1  0
 27 28  1  0
 28 24  1  0
 28 29  1  6
 29 31  1  0
 30 29  2  0
M  END
$$$$
