WEP.pdb
     RDKit          3D

 31 33  0  0  1  0  0  0  0  0999 V2000
   25.8509  -18.4409   -8.6745 N   0  0  0  0  0  0  0  0  0  0  0  0
   26.5112  -19.6277   -9.1164 C   0  0  1  0  0  0  0  0  0  0  0  0
   26.3528  -20.7638   -8.0974 C   0  0  0  0  0  0  0  0  0  0  0  0
   26.8055  -20.3752   -6.7548 C   0  0  0  0  0  0  0  0  0  0  0  0
   25.9943  -19.9962   -5.6832 C   0  0  0  0  0  0  0  0  0  0  0  0
   26.7743  -19.7535   -4.6228 N   0  0  0  0  0  0  0  0  0  0  0  0
   28.0691  -19.9565   -4.9526 C   0  0  0  0  0  0  0  0  0  0  0  0
   29.2552  -19.8494   -4.2603 C   0  0  0  0  0  0  0  0  0  0  0  0
   30.4664  -20.1077   -4.8284 C   0  0  0  0  0  0  0  0  0  0  0  0
   30.4750  -20.4885   -6.1457 C   0  0  0  0  0  0  0  0  0  0  0  0
   29.3201  -20.6155   -6.8958 C   0  0  0  0  0  0  0  0  0  0  0  0
   28.0920  -20.3474   -6.2943 C   0  0  0  0  0  0  0  0  0  0  0  0
   26.0486  -20.0938  -10.4484 C   0  0  0  0  0  0  0  0  0  0  0  0
   24.8356  -19.8982  -10.7727 O   0  0  0  0  0  0  0  0  0  0  0  0
   26.8527  -20.7446  -11.4066 N   0  0  0  0  0  0  0  0  0  0  0  0
   26.5489  -20.6960  -12.8148 C   0  0  1  0  0  0  0  0  0  0  0  0
   27.8261  -21.0396  -13.5371 C   0  0  0  0  0  0  0  0  0  0  0  0
   27.7311  -21.0830  -15.0184 C   0  0  0  0  0  0  0  0  0  0  0  0
   27.6538  -19.7810  -15.6903 C   0  0  0  0  0  0  0  0  0  0  0  0
   28.4876  -18.9069  -15.3359 O   0  0  0  0  0  0  0  0  0  0  0  0
   25.3795  -21.4700  -13.2376 C   0  0  0  0  0  0  0  0  0  0  0  0
   25.4781  -22.7321  -13.0655 O   0  0  0  0  0  0  0  0  0  0  0  0
   26.7580  -19.4146  -16.6743 O   0  0  0  0  0  0  0  0  0  0  0  0
   24.1804  -20.9517  -13.8046 N   0  0  0  0  0  0  0  0  0  0  0  0
   23.8623  -19.6116  -14.2020 C   0  0  0  0  0  0  0  0  0  0  0  0
   22.6487  -19.7823  -15.0868 C   0  0  0  0  0  0  0  0  0  0  0  0
   21.8763  -20.8297  -14.3056 C   0  0  0  0  0  0  0  0  0  0  0  0
   23.0186  -21.8173  -14.0537 C   0  0  1  0  0  0  0  0  0  0  0  0
   23.2747  -22.6313  -15.2677 C   0  0  0  0  0  0  0  0  0  0  0  0
   22.5340  -23.5718  -15.6442 O   0  0  0  0  0  0  0  0  0  0  0  0
   24.3842  -22.3617  -16.0520 O   0  0  0  0  0  0  0  0  0  0  0  0
  2  1  1  1
  2  3  1  0
  2 13  1  0
  3  4  1  0
  4  5  2  0
  5  6  1  0
  7  6  1  0
  8  7  2  0
  9  8  1  0
 10 11  1  0
 10  9  2  0
 11 12  2  0
 12  4  1  0
 12  7  1  0
 13 15  1  0
 13 14  2  0
 15 16  1  0
 16 17  1  6
 17 18  1  0
 18 19  1  0
 19 23  1  0
 20 19  2  0
 21 16  1  0
 21 22  2  0
 24 21  1  0
 25 24  1  0
 26 27  1  0
 26 25  1  0
 27 28  1  0
 28 24  1  0
 28 29  1  6
 29 31  1  0
 30 29  2  0
M  END
$$$$
