WEP.pdb
     RDKit          3D

 31 33  0  0  1  0  0  0  0  0999 V2000
   25.5310  -10.6088  -18.5324 N   0  0  0  0  0  0  0  0  0  0  0  0
   25.0584  -10.6038  -17.1846 C   0  0  1  0  0  0  0  0  0  0  0  0
   26.2118  -10.4064  -16.1922 C   0  0  0  0  0  0  0  0  0  0  0  0
   27.1770  -11.5133  -16.2322 C   0  0  0  0  0  0  0  0  0  0  0  0
   28.5123  -11.4355  -16.6336 C   0  0  0  0  0  0  0  0  0  0  0  0
   29.0705  -12.6442  -16.4946 N   0  0  0  0  0  0  0  0  0  0  0  0
   28.1557  -13.5173  -16.0179 C   0  0  0  0  0  0  0  0  0  0  0  0
   28.1939  -14.8577  -15.7027 C   0  0  0  0  0  0  0  0  0  0  0  0
   27.1096  -15.5359  -15.2328 C   0  0  0  0  0  0  0  0  0  0  0  0
   25.9448  -14.8292  -15.0766 C   0  0  0  0  0  0  0  0  0  0  0  0
   25.8406  -13.4826  -15.3739 C   0  0  0  0  0  0  0  0  0  0  0  0
   26.9625  -12.8085  -15.8523 C   0  0  0  0  0  0  0  0  0  0  0  0
   24.0134   -9.5788  -16.9342 C   0  0  0  0  0  0  0  0  0  0  0  0
   24.1605   -8.4243  -17.4444 O   0  0  0  0  0  0  0  0  0  0  0  0
   22.8466   -9.7774  -16.1678 N   0  0  0  0  0  0  0  0  0  0  0  0
   21.8254   -8.7659  -16.0597 C   0  0  1  0  0  0  0  0  0  0  0  0
   20.5798   -9.4687  -15.5848 C   0  0  0  0  0  0  0  0  0  0  0  0
   19.3820   -8.6063  -15.4217 C   0  0  0  0  0  0  0  0  0  0  0  0
   18.2005   -9.0038  -16.1954 C   0  0  0  0  0  0  0  0  0  0  0  0
   17.9730  -10.2381  -16.2937 O   0  0  0  0  0  0  0  0  0  0  0  0
   22.1906   -7.5775  -15.2854 C   0  0  0  0  0  0  0  0  0  0  0  0
   22.7076   -7.8176  -14.1420 O   0  0  0  0  0  0  0  0  0  0  0  0
   17.3098   -8.1609  -16.8288 O   0  0  0  0  0  0  0  0  0  0  0  0
   22.0247   -6.2211  -15.6863 N   0  0  0  0  0  0  0  0  0  0  0  0
   21.5264   -5.6874  -16.9199 C   0  0  0  0  0  0  0  0  0  0  0  0
   21.2094   -4.2486  -16.5818 C   0  0  0  0  0  0  0  0  0  0  0  0
   22.4074   -3.8915  -15.7208 C   0  0  0  0  0  0  0  0  0  0  0  0
   22.3983   -5.1120  -14.7967 C   0  0  1  0  0  0  0  0  0  0  0  0
   21.3564   -4.9602  -13.7510 C   0  0  0  0  0  0  0  0  0  0  0  0
   21.4862   -4.2279  -12.7402 O   0  0  0  0  0  0  0  0  0  0  0  0
   20.1613   -5.6507  -13.8690 O   0  0  0  0  0  0  0  0  0  0  0  0
  2  1  1  6
  2  3  1  0
  2 13  1  0
  3  4  1  0
  4  5  2  0
  5  6  1  0
  7  6  1  0
  8  7  2  0
  9  8  1  0
 10 11  1  0
 10  9  2  0
 11 12  2  0
 12  4  1  0
 12  7  1  0
 13 15  1  0
 13 14  2  0
 15 16  1  0
 16 17  1  1
 17 18  1  0
 18 19  1  0
 19 23  1  0
 20 19  2  0
 21 16  1  0
 21 22  2  0
 24 21  1  0
 25 24  1  0
 26 27  1  0
 26 25  1  0
 27 28  1  0
 28 24  1  0
 28 29  1  1
 29 31  1  0
 30 29  2  0
M  END
$$$$
