WEP.pdb
     RDKit          3D

 31 33  0  0  1  0  0  0  0  0999 V2000
   14.4391  -23.1424    0.2381 N   0  0  0  0  0  0  0  0  0  0  0  0
   14.5411  -21.8169    0.7601 C   0  0  1  0  0  0  0  0  0  0  0  0
   13.2608  -21.0146    0.4930 C   0  0  0  0  0  0  0  0  0  0  0  0
   13.0818  -20.7092   -0.9329 C   0  0  0  0  0  0  0  0  0  0  0  0
   13.6514  -21.3971   -2.0065 C   0  0  0  0  0  0  0  0  0  0  0  0
   13.2215  -20.8409   -3.1456 N   0  0  0  0  0  0  0  0  0  0  0  0
   12.3910  -19.8121   -2.8662 C   0  0  0  0  0  0  0  0  0  0  0  0
   11.6896  -18.9174   -3.6441 C   0  0  0  0  0  0  0  0  0  0  0  0
   10.9037  -17.9382   -3.1151 C   0  0  0  0  0  0  0  0  0  0  0  0
   10.8260  -17.8638   -1.7480 C   0  0  0  0  0  0  0  0  0  0  0  0
   11.5042  -18.7315   -0.9114 C   0  0  0  0  0  0  0  0  0  0  0  0
   12.3015  -19.7263   -1.4741 C   0  0  0  0  0  0  0  0  0  0  0  0
   14.8497  -21.7815    2.2122 C   0  0  0  0  0  0  0  0  0  0  0  0
   14.2382  -22.5859    2.9829 O   0  0  0  0  0  0  0  0  0  0  0  0
   15.7825  -20.9194    2.8247 N   0  0  0  0  0  0  0  0  0  0  0  0
   15.9826  -20.9047    4.2521 C   0  0  1  0  0  0  0  0  0  0  0  0
   17.1739  -21.7867    4.5232 C   0  0  0  0  0  0  0  0  0  0  0  0
   16.8900  -23.2429    4.5866 C   0  0  0  0  0  0  0  0  0  0  0  0
   18.0034  -24.0907    5.0271 C   0  0  0  0  0  0  0  0  0  0  0  0
   17.7781  -25.3261    5.1154 O   0  0  0  0  0  0  0  0  0  0  0  0
   16.0506  -19.5777    4.8684 C   0  0  0  0  0  0  0  0  0  0  0  0
   16.7316  -18.7154    4.2165 O   0  0  0  0  0  0  0  0  0  0  0  0
   19.2768  -23.6718    5.3557 O   0  0  0  0  0  0  0  0  0  0  0  0
   15.4410  -19.1798    6.0923 N   0  0  0  0  0  0  0  0  0  0  0  0
   14.6506  -19.9457    7.0108 C   0  0  0  0  0  0  0  0  0  0  0  0
   14.6591  -19.1091    8.2698 C   0  0  0  0  0  0  0  0  0  0  0  0
   14.4898  -17.7188    7.6846 C   0  0  0  0  0  0  0  0  0  0  0  0
   15.5540  -17.8000    6.5871 C   0  0  1  0  0  0  0  0  0  0  0  0
   16.9070  -17.6037    7.1641 C   0  0  0  0  0  0  0  0  0  0  0  0
   17.7270  -18.5356    7.3483 O   0  0  0  0  0  0  0  0  0  0  0  0
   17.3188  -16.3322    7.5282 O   0  0  0  0  0  0  0  0  0  0  0  0
  2  1  1  1
  2  3  1  0
  2 13  1  0
  3  4  1  0
  4  5  2  0
  5  6  1  0
  7  6  1  0
  8  7  2  0
  9  8  1  0
 10 11  1  0
 10  9  2  0
 11 12  2  0
 12  4  1  0
 12  7  1  0
 13 15  1  0
 13 14  2  0
 15 16  1  0
 16 17  1  6
 17 18  1  0
 18 19  1  0
 19 23  1  0
 20 19  2  0
 21 16  1  0
 21 22  2  0
 24 21  1  0
 25 24  1  0
 26 27  1  0
 26 25  1  0
 27 28  1  0
 28 24  1  0
 28 29  1  1
 29 31  1  0
 30 29  2  0
M  END
$$$$
