WEP.pdb
     RDKit          3D

 31 33  0  0  1  0  0  0  0  0999 V2000
   24.9815  -21.2466   -7.7933 N   0  0  0  0  0  0  0  0  0  0  0  0
   25.7303  -20.4535   -8.7153 C   0  0  1  0  0  0  0  0  0  0  0  0
   27.2347  -20.5364   -8.4253 C   0  0  0  0  0  0  0  0  0  0  0  0
   27.6457  -19.6257   -7.3483 C   0  0  0  0  0  0  0  0  0  0  0  0
   27.1822  -18.3250   -7.1398 C   0  0  0  0  0  0  0  0  0  0  0  0
   27.7651  -17.8360   -6.0385 N   0  0  0  0  0  0  0  0  0  0  0  0
   28.5960  -18.7627   -5.5121 C   0  0  0  0  0  0  0  0  0  0  0  0
   29.4255  -18.7816   -4.4124 C   0  0  0  0  0  0  0  0  0  0  0  0
   30.1906  -19.8602   -4.0844 C   0  0  0  0  0  0  0  0  0  0  0  0
   30.1115  -20.9592   -4.9008 C   0  0  0  0  0  0  0  0  0  0  0  0
   29.2985  -21.0044   -6.0186 C   0  0  0  0  0  0  0  0  0  0  0  0
   28.5235  -19.8902   -6.3347 C   0  0  0  0  0  0  0  0  0  0  0  0
   25.4824  -20.8143  -10.1343 C   0  0  0  0  0  0  0  0  0  0  0  0
   25.7641  -21.9920  -10.5197 O   0  0  0  0  0  0  0  0  0  0  0  0
   24.9481  -19.9498  -11.1119 N   0  0  0  0  0  0  0  0  0  0  0  0
   24.7626  -20.3682  -12.4787 C   0  0  1  0  0  0  0  0  0  0  0  0
   23.4006  -19.8741  -12.8931 C   0  0  0  0  0  0  0  0  0  0  0  0
   23.0579  -20.0698  -14.3247 C   0  0  0  0  0  0  0  0  0  0  0  0
   22.6343  -21.4236  -14.6992 C   0  0  0  0  0  0  0  0  0  0  0  0
   22.2684  -22.1846  -13.7654 O   0  0  0  0  0  0  0  0  0  0  0  0
   25.8464  -20.0200  -13.4002 C   0  0  0  0  0  0  0  0  0  0  0  0
   26.1661  -18.7831  -13.4130 O   0  0  0  0  0  0  0  0  0  0  0  0
   22.5955  -21.9506  -15.9743 O   0  0  0  0  0  0  0  0  0  0  0  0
   26.5521  -20.9144  -14.2547 N   0  0  0  0  0  0  0  0  0  0  0  0
   26.4541  -22.3402  -14.3661 C   0  0  0  0  0  0  0  0  0  0  0  0
   27.1201  -22.6395  -15.6896 C   0  0  0  0  0  0  0  0  0  0  0  0
   28.3076  -21.6962  -15.6265 C   0  0  0  0  0  0  0  0  0  0  0  0
   27.5695  -20.4258  -15.1967 C   0  0  1  0  0  0  0  0  0  0  0  0
   26.8904  -19.8043  -16.3606 C   0  0  0  0  0  0  0  0  0  0  0  0
   27.4933  -19.1753  -17.2639 O   0  0  0  0  0  0  0  0  0  0  0  0
   25.5149  -19.9081  -16.4873 O   0  0  0  0  0  0  0  0  0  0  0  0
  2  1  1  1
  2  3  1  0
  2 13  1  0
  3  4  1  0
  4  5  2  0
  5  6  1  0
  7  6  1  0
  8  7  2  0
  9  8  1  0
 10 11  1  0
 10  9  2  0
 11 12  2  0
 12  4  1  0
 12  7  1  0
 13 15  1  0
 13 14  2  0
 15 16  1  0
 16 17  1  6
 17 18  1  0
 18 19  1  0
 19 23  1  0
 20 19  2  0
 21 16  1  0
 21 22  2  0
 24 21  1  0
 25 24  1  0
 26 27  1  0
 26 25  1  0
 27 28  1  0
 28 24  1  0
 28 29  1  6
 29 31  1  0
 30 29  2  0
M  END
$$$$
