WEP.pdb
     RDKit          3D

 31 33  0  0  1  0  0  0  0  0999 V2000
   26.2966  -18.5579   -9.2440 N   0  0  0  0  0  0  0  0  0  0  0  0
   26.7990  -19.8067   -9.7215 C   0  0  1  0  0  0  0  0  0  0  0  0
   26.2394  -20.9792   -8.9053 C   0  0  0  0  0  0  0  0  0  0  0  0
   26.3950  -20.7757   -7.4586 C   0  0  0  0  0  0  0  0  0  0  0  0
   25.3731  -20.7716   -6.5069 C   0  0  0  0  0  0  0  0  0  0  0  0
   25.9176  -20.5917   -5.2974 N   0  0  0  0  0  0  0  0  0  0  0  0
   27.2591  -20.4760   -5.4133 C   0  0  0  0  0  0  0  0  0  0  0  0
   28.2787  -20.2784   -4.5084 C   0  0  0  0  0  0  0  0  0  0  0  0
   29.5864  -20.1862   -4.8795 C   0  0  0  0  0  0  0  0  0  0  0  0
   29.8704  -20.2987   -6.2164 C   0  0  0  0  0  0  0  0  0  0  0  0
   28.8936  -20.4984   -7.1749 C   0  0  0  0  0  0  0  0  0  0  0  0
   27.5626  -20.5908   -6.7728 C   0  0  0  0  0  0  0  0  0  0  0  0
   26.5249  -20.0357  -11.1629 C   0  0  0  0  0  0  0  0  0  0  0  0
   25.4388  -19.5933  -11.6523 O   0  0  0  0  0  0  0  0  0  0  0  0
   27.3815  -20.7113  -12.0563 N   0  0  0  0  0  0  0  0  0  0  0  0
   27.2128  -20.6244  -13.4852 C   0  0  1  0  0  0  0  0  0  0  0  0
   28.4901  -21.1405  -14.0959 C   0  0  0  0  0  0  0  0  0  0  0  0
   28.5427  -21.1212  -15.5798 C   0  0  0  0  0  0  0  0  0  0  0  0
   28.4527  -19.7963  -16.2035 C   0  0  0  0  0  0  0  0  0  0  0  0
   29.1186  -18.8700  -15.6711 O   0  0  0  0  0  0  0  0  0  0  0  0
   25.9909  -21.2324  -14.0168 C   0  0  0  0  0  0  0  0  0  0  0  0
   25.8640  -22.4815  -13.7803 O   0  0  0  0  0  0  0  0  0  0  0  0
   27.7105  -19.4597  -17.3174 O   0  0  0  0  0  0  0  0  0  0  0  0
   24.9651  -20.5706  -14.7502 N   0  0  0  0  0  0  0  0  0  0  0  0
   24.8843  -19.2052  -15.1792 C   0  0  0  0  0  0  0  0  0  0  0  0
   23.8023  -19.2282  -16.2345 C   0  0  0  0  0  0  0  0  0  0  0  0
   22.7949  -20.1590  -15.5842 C   0  0  0  0  0  0  0  0  0  0  0  0
   23.7509  -21.2824  -15.1747 C   0  0  1  0  0  0  0  0  0  0  0  0
   24.0759  -22.1359  -16.3442 C   0  0  0  0  0  0  0  0  0  0  0  0
   25.1429  -22.0433  -16.9984 O   0  0  0  0  0  0  0  0  0  0  0  0
   23.1726  -23.0997  -16.7614 O   0  0  0  0  0  0  0  0  0  0  0  0
  2  1  1  1
  2  3  1  0
  2 13  1  0
  3  4  1  0
  4  5  2  0
  5  6  1  0
  7  6  1  0
  8  7  2  0
  9  8  1  0
 10 11  1  0
 10  9  2  0
 11 12  2  0
 12  4  1  0
 12  7  1  0
 13 15  1  0
 13 14  2  0
 15 16  1  0
 16 17  1  6
 17 18  1  0
 18 19  1  0
 19 23  1  0
 20 19  2  0
 21 16  1  0
 21 22  2  0
 24 21  1  0
 25 24  1  0
 26 27  1  0
 26 25  1  0
 27 28  1  0
 28 24  1  0
 28 29  1  6
 29 31  1  0
 30 29  2  0
M  END
$$$$
