VNA.pdb
     RDKit          3D

 21 20  0  0  1  0  0  0  0  0999 V2000
   26.0437  -19.2615  -17.0857 C   0  0  0  0  0  0  0  0  0  0  0  0
   26.9326  -18.9453  -15.9274 C   0  0  2  0  0  0  0  0  0  0  0  0
   28.2029  -18.3302  -16.4566 C   0  0  0  0  0  0  0  0  0  0  0  0
   27.2591  -20.1423  -15.0705 C   0  0  2  0  0  0  0  0  0  0  0  0
   27.9098  -21.1577  -15.8764 N   0  0  0  0  0  0  0  0  0  0  0  0
   26.0562  -20.7197  -14.4268 C   0  0  0  0  0  0  0  0  0  0  0  0
   25.4954  -21.7270  -14.9274 O   0  0  0  0  0  0  0  0  0  0  0  0
   26.0081  -22.2346  -11.1628 N   0  0  0  0  0  0  0  0  0  0  0  0
   25.2263  -21.2837  -10.4398 C   0  0  0  0  0  0  0  0  0  0  0  0
   25.4043  -21.2028   -9.2004 O   0  0  0  0  0  0  0  0  0  0  0  0
   24.2576  -20.4490  -11.1656 C   0  0  0  0  0  0  0  0  0  0  0  0
   24.2599  -20.7472  -12.6443 C   0  0  2  0  0  0  0  0  0  0  0  0
   25.4704  -20.1979  -13.2422 N   0  0  0  0  0  0  0  0  0  0  0  0
   23.0452  -20.1182  -13.2666 C   0  0  0  0  0  0  0  0  0  0  0  0
   23.0204  -18.8724  -13.2761 O   0  0  0  0  0  0  0  0  0  0  0  0
   20.3526  -21.1609  -15.5890 C   0  0  0  0  0  0  0  0  0  0  0  0
   20.8639  -20.3372  -14.4455 C   0  0  2  0  0  0  0  0  0  0  0  0
   22.0054  -20.8931  -13.8027 N   0  0  0  0  0  0  0  0  0  0  0  0
   19.7399  -19.9876  -13.5346 C   0  0  0  0  0  0  0  0  0  0  0  0
   19.7539  -20.3893  -12.3594 O   0  0  0  0  0  0  0  0  0  0  0  0
   18.6802  -19.2206  -13.9814 O   0  0  0  0  0  0  0  0  0  0  0  0
  2  1  1  6
  2  4  1  0
  3  2  1  0
  4  6  1  0
  4  5  1  6
  6  7  2  0
  8  9  1  0
  9 10  2  0
  9 11  1  0
 12 11  1  1
 12 14  1  0
 13 12  1  0
 13  6  1  0
 14 15  2  0
 14 18  1  0
 17 16  1  6
 17 19  1  0
 18 17  1  0
 19 20  2  0
 19 21  1  0
M  END
$$$$
