VNA.pdb
     RDKit          3D

 21 20  0  0  1  0  0  0  0  0999 V2000
   23.7009  -15.6755  -21.0191 C   0  0  0  0  0  0  0  0  0  0  0  0
   23.8358  -14.6599  -19.9319 C   0  0  2  0  0  0  0  0  0  0  0  0
   24.1364  -13.3244  -20.5630 C   0  0  0  0  0  0  0  0  0  0  0  0
   24.8968  -14.9986  -18.9154 C   0  0  2  0  0  0  0  0  0  0  0  0
   26.2013  -14.9929  -19.5496 N   0  0  0  0  0  0  0  0  0  0  0  0
   24.6651  -16.3147  -18.2758 C   0  0  0  0  0  0  0  0  0  0  0  0
   24.8731  -17.3738  -18.9198 O   0  0  0  0  0  0  0  0  0  0  0  0
   26.9128  -16.9629  -14.6389 N   0  0  0  0  0  0  0  0  0  0  0  0
   26.0599  -18.0003  -15.1232 C   0  0  0  0  0  0  0  0  0  0  0  0
   26.6009  -19.0057  -15.6440 O   0  0  0  0  0  0  0  0  0  0  0  0
   24.6028  -17.8519  -14.9944 C   0  0  0  0  0  0  0  0  0  0  0  0
   23.9280  -17.7699  -16.3410 C   0  0  2  0  0  0  0  0  0  0  0  0
   24.2086  -16.4708  -16.9395 N   0  0  0  0  0  0  0  0  0  0  0  0
   22.4472  -17.9421  -16.1514 C   0  0  0  0  0  0  0  0  0  0  0  0
   21.8468  -16.9772  -15.6405 O   0  0  0  0  0  0  0  0  0  0  0  0
   19.8503  -20.5026  -17.1085 C   0  0  0  0  0  0  0  0  0  0  0  0
   20.3922  -19.3339  -16.3420 C   0  0  2  0  0  0  0  0  0  0  0  0
   21.7869  -19.1213  -16.5292 N   0  0  0  0  0  0  0  0  0  0  0  0
   19.9563  -19.4176  -14.9213 C   0  0  0  0  0  0  0  0  0  0  0  0
   20.7393  -19.8574  -14.0633 O   0  0  0  0  0  0  0  0  0  0  0  0
   18.6895  -19.0114  -14.5454 O   0  0  0  0  0  0  0  0  0  0  0  0
  2  1  1  6
  2  4  1  0
  3  2  1  0
  4  6  1  0
  4  5  1  6
  6  7  2  0
  8  9  1  0
  9 10  2  0
  9 11  1  0
 12 11  1  1
 12 14  1  0
 13 12  1  0
 13  6  1  0
 14 15  2  0
 14 18  1  0
 17 16  1  6
 17 19  1  0
 18 17  1  0
 19 20  2  0
 19 21  1  0
M  END
$$$$
