VNA.pdb
     RDKit          3D

 21 20  0  0  1  0  0  0  0  0999 V2000
   13.4921  -13.3402  -10.7092 C   0  0  0  0  0  0  0  0  0  0  0  0
   12.3426  -12.4823  -10.2917 C   0  0  2  0  0  0  0  0  0  0  0  0
   11.0672  -13.1342  -10.7613 C   0  0  0  0  0  0  0  0  0  0  0  0
   12.4204  -11.0698  -10.8136 C   0  0  2  0  0  0  0  0  0  0  0  0
   12.4161  -11.0834  -12.2640 N   0  0  0  0  0  0  0  0  0  0  0  0
   13.6255  -10.3560  -10.3308 C   0  0  0  0  0  0  0  0  0  0  0  0
   13.7645  -10.1110   -9.1059 O   0  0  0  0  0  0  0  0  0  0  0  0
   18.1519   -7.9353   -9.9692 N   0  0  0  0  0  0  0  0  0  0  0  0
   18.1435   -8.5509  -11.2573 C   0  0  0  0  0  0  0  0  0  0  0  0
   19.2050   -8.5211  -11.9257 O   0  0  0  0  0  0  0  0  0  0  0  0
   16.9094   -9.1861  -11.7425 C   0  0  0  0  0  0  0  0  0  0  0  0
   15.8127   -9.1400  -10.7077 C   0  0  2  0  0  0  0  0  0  0  0  0
   14.6721   -9.9129  -11.1834 N   0  0  0  0  0  0  0  0  0  0  0  0
   15.4120   -7.7080  -10.4909 C   0  0  0  0  0  0  0  0  0  0  0  0
   14.9131   -7.1264  -11.4735 O   0  0  0  0  0  0  0  0  0  0  0  0
   15.1045   -5.3743   -7.5568 C   0  0  0  0  0  0  0  0  0  0  0  0
   15.2347   -5.7144   -9.0110 C   0  0  2  0  0  0  0  0  0  0  0  0
   15.5917   -7.0704   -9.2538 N   0  0  0  0  0  0  0  0  0  0  0  0
   16.0977   -4.7083   -9.6881 C   0  0  0  0  0  0  0  0  0  0  0  0
   15.7793   -3.5080   -9.6609 O   0  0  0  0  0  0  0  0  0  0  0  0
   17.2498   -5.0943  -10.3473 O   0  0  0  0  0  0  0  0  0  0  0  0
  2  1  1  6
  2  4  1  0
  3  2  1  0
  4  6  1  0
  4  5  1  6
  6  7  2  0
  8  9  1  0
  9 10  2  0
  9 11  1  0
 12 11  1  6
 12 14  1  0
 13 12  1  0
 13  6  1  0
 14 15  2  0
 14 18  1  0
 17 16  1  1
 17 19  1  0
 18 17  1  0
 19 20  2  0
 19 21  1  0
M  END
$$$$
