VNA.pdb
     RDKit          3D

 21 20  0  0  1  0  0  0  0  0999 V2000
   19.8500  -12.3105  -16.7531 C   0  0  0  0  0  0  0  0  0  0  0  0
   18.4558  -12.6002  -16.3015 C   0  0  2  0  0  0  0  0  0  0  0  0
   17.9093  -13.7284  -17.1386 C   0  0  0  0  0  0  0  0  0  0  0  0
   17.5343  -11.4092  -16.3795 C   0  0  2  0  0  0  0  0  0  0  0  0
   17.2952  -11.0660  -17.7684 N   0  0  0  0  0  0  0  0  0  0  0  0
   18.0766  -10.2293  -15.6663 C   0  0  0  0  0  0  0  0  0  0  0  0
   18.2118  -10.2552  -14.4170 O   0  0  0  0  0  0  0  0  0  0  0  0
   20.8170   -8.5795  -13.7939 N   0  0  0  0  0  0  0  0  0  0  0  0
   21.2873   -7.9907  -15.0064 C   0  0  0  0  0  0  0  0  0  0  0  0
   22.5283   -7.9186  -15.1776 O   0  0  0  0  0  0  0  0  0  0  0  0
   20.3133   -7.4993  -15.9921 C   0  0  0  0  0  0  0  0  0  0  0  0
   18.8976   -7.8365  -15.5952 C   0  0  2  0  0  0  0  0  0  0  0  0
   18.4685   -9.0283  -16.3164 N   0  0  0  0  0  0  0  0  0  0  0  0
   18.0085   -6.6754  -15.9412 C   0  0  0  0  0  0  0  0  0  0  0  0
   17.8678   -6.4393  -17.1566 O   0  0  0  0  0  0  0  0  0  0  0  0
   15.6264   -4.4176  -14.1100 C   0  0  0  0  0  0  0  0  0  0  0  0
   16.5431   -4.7909  -15.2358 C   0  0  2  0  0  0  0  0  0  0  0  0
   17.3781   -5.9075  -14.9503 N   0  0  0  0  0  0  0  0  0  0  0  0
   17.2597   -3.5812  -15.7240 C   0  0  0  0  0  0  0  0  0  0  0  0
   16.6243   -2.6790  -16.2941 O   0  0  0  0  0  0  0  0  0  0  0  0
   18.6248   -3.4499  -15.5504 O   0  0  0  0  0  0  0  0  0  0  0  0
  2  1  1  6
  2  4  1  0
  3  2  1  0
  4  6  1  0
  4  5  1  6
  6  7  2  0
  8  9  1  0
  9 10  2  0
  9 11  1  0
 12 11  1  6
 12 14  1  0
 13 12  1  0
 13  6  1  0
 14 15  2  0
 14 18  1  0
 17 16  1  1
 17 19  1  0
 18 17  1  0
 19 20  2  0
 19 21  1  0
M  END
$$$$
