VNA.pdb
     RDKit          3D

 21 20  0  0  1  0  0  0  0  0999 V2000
   11.8718  -13.7321  -11.0517 C   0  0  0  0  0  0  0  0  0  0  0  0
   12.9778  -12.7782  -10.7377 C   0  0  2  0  0  0  0  0  0  0  0  0
   12.3740  -11.4268  -10.4527 C   0  0  0  0  0  0  0  0  0  0  0  0
   14.0058  -12.6610  -11.8346 C   0  0  2  0  0  0  0  0  0  0  0  0
   14.5589  -13.9693  -12.1284 N   0  0  0  0  0  0  0  0  0  0  0  0
   15.1027  -11.7297  -11.4820 C   0  0  0  0  0  0  0  0  0  0  0  0
   16.0452  -12.1159  -10.7457 O   0  0  0  0  0  0  0  0  0  0  0  0
   18.5328   -7.1946  -13.3808 N   0  0  0  0  0  0  0  0  0  0  0  0
   18.1795   -8.2511  -12.4880 C   0  0  0  0  0  0  0  0  0  0  0  0
   18.8808   -8.4052  -11.4590 O   0  0  0  0  0  0  0  0  0  0  0  0
   17.0247   -9.1043  -12.8049 C   0  0  0  0  0  0  0  0  0  0  0  0
   16.2458   -9.4734  -11.5670 C   0  0  2  0  0  0  0  0  0  0  0  0
   15.1678  -10.3839  -11.9326 N   0  0  0  0  0  0  0  0  0  0  0  0
   15.6801   -8.2206  -10.9599 C   0  0  0  0  0  0  0  0  0  0  0  0
   14.8685   -7.5909  -11.6652 O   0  0  0  0  0  0  0  0  0  0  0  0
   15.6626   -6.6150   -7.5633 C   0  0  0  0  0  0  0  0  0  0  0  0
   15.5159   -6.6264   -9.0551 C   0  0  2  0  0  0  0  0  0  0  0  0
   16.0481   -7.7915   -9.6755 N   0  0  0  0  0  0  0  0  0  0  0  0
   16.0033   -5.3381   -9.6190 C   0  0  0  0  0  0  0  0  0  0  0  0
   16.9300   -5.3408  -10.4459 O   0  0  0  0  0  0  0  0  0  0  0  0
   15.4362   -4.1379   -9.2329 O   0  0  0  0  0  0  0  0  0  0  0  0
  2  1  1  6
  2  4  1  0
  3  2  1  0
  4  6  1  0
  4  5  1  1
  6  7  2  0
  8  9  1  0
  9 10  2  0
  9 11  1  0
 12 11  1  6
 12 14  1  0
 13 12  1  0
 13  6  1  0
 14 15  2  0
 14 18  1  0
 17 16  1  1
 17 19  1  0
 18 17  1  0
 19 20  2  0
 19 21  1  0
M  END
$$$$
