VNA.pdb
     RDKit          3D

 21 20  0  0  1  0  0  0  0  0999 V2000
   20.4779  -12.0019  -19.6932 C   0  0  0  0  0  0  0  0  0  0  0  0
   21.7354  -11.3598  -20.1812 C   0  0  2  0  0  0  0  0  0  0  0  0
   22.6131  -12.4282  -20.7816 C   0  0  0  0  0  0  0  0  0  0  0  0
   22.4911  -10.6162  -19.1090 C   0  0  2  0  0  0  0  0  0  0  0  0
   23.0890  -11.5624  -18.1864 N   0  0  0  0  0  0  0  0  0  0  0  0
   21.6263   -9.6756  -18.3591 C   0  0  0  0  0  0  0  0  0  0  0  0
   21.0348   -8.7453  -18.9627 O   0  0  0  0  0  0  0  0  0  0  0  0
   18.2068   -9.8581  -17.1328 N   0  0  0  0  0  0  0  0  0  0  0  0
   18.4935  -10.0626  -15.7493 C   0  0  0  0  0  0  0  0  0  0  0  0
   17.6369  -10.6653  -15.0582 O   0  0  0  0  0  0  0  0  0  0  0  0
   19.7626   -9.5663  -15.1971 C   0  0  0  0  0  0  0  0  0  0  0  0
   20.5653   -8.8140  -16.2292 C   0  0  2  0  0  0  0  0  0  0  0  0
   21.4101   -9.7527  -16.9570 N   0  0  0  0  0  0  0  0  0  0  0  0
   21.4143   -7.7903  -15.5297 C   0  0  0  0  0  0  0  0  0  0  0  0
   22.2978   -8.2386  -14.7740 O   0  0  0  0  0  0  0  0  0  0  0  0
   21.8403   -4.0460  -15.6975 C   0  0  0  0  0  0  0  0  0  0  0  0
   22.0317   -5.4145  -15.1164 C   0  0  2  0  0  0  0  0  0  0  0  0
   21.2185   -6.4139  -15.7207 N   0  0  0  0  0  0  0  0  0  0  0  0
   21.9438   -5.3481  -13.6320 C   0  0  0  0  0  0  0  0  0  0  0  0
   20.9975   -5.9007  -13.0473 O   0  0  0  0  0  0  0  0  0  0  0  0
   22.9035   -4.6783  -12.8963 O   0  0  0  0  0  0  0  0  0  0  0  0
  2  1  1  1
  2  4  1  0
  3  2  1  0
  4  6  1  0
  4  5  1  1
  6  7  2  0
  8  9  1  0
  9 10  2  0
  9 11  1  0
 12 11  1  1
 12 14  1  0
 13 12  1  0
 13  6  1  0
 14 15  2  0
 14 18  1  0
 17 16  1  6
 17 19  1  0
 18 17  1  0
 19 20  2  0
 19 21  1  0
M  END
$$$$
