VNA.pdb
     RDKit          3D

 21 20  0  0  1  0  0  0  0  0999 V2000
   20.6602  -13.6424  -18.9879 C   0  0  0  0  0  0  0  0  0  0  0  0
   20.3995  -12.2100  -18.6532 C   0  0  2  0  0  0  0  0  0  0  0  0
   20.7855  -11.3661  -19.8411 C   0  0  0  0  0  0  0  0  0  0  0  0
   21.1311  -11.7327  -17.4241 C   0  0  2  0  0  0  0  0  0  0  0  0
   20.9939  -12.7114  -16.3624 N   0  0  0  0  0  0  0  0  0  0  0  0
   20.6386  -10.4184  -16.9498 C   0  0  0  0  0  0  0  0  0  0  0  0
   20.6319   -9.4302  -17.7264 O   0  0  0  0  0  0  0  0  0  0  0  0
   16.2507   -8.6348  -14.8937 N   0  0  0  0  0  0  0  0  0  0  0  0
   17.3253   -9.5624  -14.7427 C   0  0  0  0  0  0  0  0  0  0  0  0
   17.1399  -10.7398  -15.1349 O   0  0  0  0  0  0  0  0  0  0  0  0
   18.5883   -9.1081  -14.1425 C   0  0  0  0  0  0  0  0  0  0  0  0
   19.6573   -8.8931  -15.1848 C   0  0  2  0  0  0  0  0  0  0  0  0
   20.1563  -10.1870  -15.6336 N   0  0  0  0  0  0  0  0  0  0  0  0
   20.7732   -8.0923  -14.5753 C   0  0  0  0  0  0  0  0  0  0  0  0
   21.5811   -8.7294  -13.8725 O   0  0  0  0  0  0  0  0  0  0  0  0
   23.0940   -5.7349  -15.2306 C   0  0  0  0  0  0  0  0  0  0  0  0
   21.9595   -5.9254  -14.2694 C   0  0  2  0  0  0  0  0  0  0  0  0
   20.8923   -6.7105  -14.7890 N   0  0  0  0  0  0  0  0  0  0  0  0
   21.5523   -4.6101  -13.7040 C   0  0  0  0  0  0  0  0  0  0  0  0
   20.4149   -4.1677  -13.9349 O   0  0  0  0  0  0  0  0  0  0  0  0
   22.4256   -3.8749  -12.9244 O   0  0  0  0  0  0  0  0  0  0  0  0
  2  1  1  6
  2  4  1  0
  3  2  1  0
  4  6  1  0
  4  5  1  1
  6  7  2  0
  8  9  1  0
  9 10  2  0
  9 11  1  0
 12 11  1  1
 12 14  1  0
 13 12  1  0
 13  6  1  0
 14 15  2  0
 14 18  1  0
 17 16  1  6
 17 19  1  0
 18 17  1  0
 19 20  2  0
 19 21  1  0
M  END
$$$$
