VNA.pdb
     RDKit          3D

 21 20  0  0  1  0  0  0  0  0999 V2000
   19.3110  -11.4999    4.9833 C   0  0  0  0  0  0  0  0  0  0  0  0
   18.7772  -12.6160    5.8206 C   0  0  2  0  0  0  0  0  0  0  0  0
   19.9430  -13.3680    6.4102 C   0  0  0  0  0  0  0  0  0  0  0  0
   17.8824  -13.5655    5.0646 C   0  0  2  0  0  0  0  0  0  0  0  0
   16.6668  -12.8807    4.6679 N   0  0  0  0  0  0  0  0  0  0  0  0
   17.5349  -14.7663    5.8596 C   0  0  0  0  0  0  0  0  0  0  0  0
   16.7266  -14.6756    6.8178 O   0  0  0  0  0  0  0  0  0  0  0  0
   15.4312  -17.5284    4.9099 N   0  0  0  0  0  0  0  0  0  0  0  0
   16.4430  -18.5145    4.7048 C   0  0  0  0  0  0  0  0  0  0  0  0
   16.2220  -19.4099    3.8540 O   0  0  0  0  0  0  0  0  0  0  0  0
   17.6858  -18.4430    5.4874 C   0  0  0  0  0  0  0  0  0  0  0  0
   17.7092  -17.2347    6.3901 C   0  0  2  0  0  0  0  0  0  0  0  0
   18.0687  -16.0586    5.6076 N   0  0  0  0  0  0  0  0  0  0  0  0
   18.7226  -17.4618    7.4762 C   0  0  0  0  0  0  0  0  0  0  0  0
   19.9166  -17.4461    7.1202 O   0  0  0  0  0  0  0  0  0  0  0  0
   18.9331  -17.0984   11.1126 C   0  0  0  0  0  0  0  0  0  0  0  0
   19.2689  -17.8678    9.8706 C   0  0  2  0  0  0  0  0  0  0  0  0
   18.3403  -17.6780    8.8090 N   0  0  0  0  0  0  0  0  0  0  0  0
   19.5426  -19.2892   10.2172 C   0  0  0  0  0  0  0  0  0  0  0  0
   18.6917  -20.1580    9.9646 O   0  0  0  0  0  0  0  0  0  0  0  0
   20.7333  -19.6538   10.8174 O   0  0  0  0  0  0  0  0  0  0  0  0
  2  1  1  6
  2  4  1  0
  3  2  1  0
  4  6  1  0
  4  5  1  1
  6  7  2  0
  8  9  1  0
  9 10  2  0
  9 11  1  0
 12 11  1  6
 12 14  1  0
 13 12  1  0
 13  6  1  0
 14 15  2  0
 14 18  1  0
 17 16  1  1
 17 19  1  0
 18 17  1  0
 19 20  2  0
 19 21  1  0
M  END
$$$$
