VNA.pdb
     RDKit          3D

 21 20  0  0  1  0  0  0  0  0999 V2000
   24.6361  -12.9443  -18.5443 C   0  0  0  0  0  0  0  0  0  0  0  0
   25.6926  -12.0419  -17.9955 C   0  0  2  0  0  0  0  0  0  0  0  0
   26.7379  -12.8905  -17.3176 C   0  0  0  0  0  0  0  0  0  0  0  0
   25.1656  -11.0084  -17.0322 C   0  0  2  0  0  0  0  0  0  0  0  0
   24.6767  -11.6619  -15.8331 N   0  0  0  0  0  0  0  0  0  0  0  0
   24.0829  -10.1876  -17.6228 C   0  0  0  0  0  0  0  0  0  0  0  0
   24.2954   -9.5208  -18.6668 O   0  0  0  0  0  0  0  0  0  0  0  0
   19.5015  -12.2851  -17.6796 N   0  0  0  0  0  0  0  0  0  0  0  0
   20.2144  -11.1751  -18.2252 C   0  0  0  0  0  0  0  0  0  0  0  0
   20.6689  -11.2880  -19.3893 O   0  0  0  0  0  0  0  0  0  0  0  0
   20.3853   -9.9612  -17.4133 C   0  0  0  0  0  0  0  0  0  0  0  0
   21.7145   -9.2972  -17.6736 C   0  0  2  0  0  0  0  0  0  0  0  0
   22.7755  -10.0969  -17.0742 N   0  0  0  0  0  0  0  0  0  0  0  0
   21.6965   -7.9234  -17.0646 C   0  0  0  0  0  0  0  0  0  0  0  0
   21.9557   -7.8629  -15.8473 O   0  0  0  0  0  0  0  0  0  0  0  0
   21.5148   -4.3919  -18.3461 C   0  0  0  0  0  0  0  0  0  0  0  0
   21.4223   -5.4605  -17.2988 C   0  0  2  0  0  0  0  0  0  0  0  0
   21.4046   -6.7819  -17.8268 N   0  0  0  0  0  0  0  0  0  0  0  0
   20.3137   -5.1473  -16.3563 C   0  0  0  0  0  0  0  0  0  0  0  0
   19.3249   -5.8968  -16.3001 O   0  0  0  0  0  0  0  0  0  0  0  0
   20.3717   -4.0314  -15.5424 O   0  0  0  0  0  0  0  0  0  0  0  0
  2  1  1  1
  2  4  1  0
  3  2  1  0
  4  6  1  0
  4  5  1  1
  6  7  2  0
  8  9  1  0
  9 10  2  0
  9 11  1  0
 12 11  1  1
 12 14  1  0
 13 12  1  0
 13  6  1  0
 14 15  2  0
 14 18  1  0
 17 16  1  6
 17 19  1  0
 18 17  1  0
 19 20  2  0
 19 21  1  0
M  END
$$$$
