VNA.pdb
     RDKit          3D

 21 20  0  0  1  0  0  0  0  0999 V2000
   25.8759  -21.9448  -11.0584 C   0  0  0  0  0  0  0  0  0  0  0  0
   25.5066  -20.5425  -10.6996 C   0  0  2  0  0  0  0  0  0  0  0  0
   25.9672  -20.2751   -9.2895 C   0  0  0  0  0  0  0  0  0  0  0  0
   24.0314  -20.2549  -10.8218 C   0  0  2  0  0  0  0  0  0  0  0  0
   23.2830  -21.1752   -9.9870 N   0  0  0  0  0  0  0  0  0  0  0  0
   23.5514  -20.3553  -12.2198 C   0  0  0  0  0  0  0  0  0  0  0  0
   22.7919  -21.2974  -12.5592 O   0  0  0  0  0  0  0  0  0  0  0  0
   22.2054  -19.4147  -17.0649 N   0  0  0  0  0  0  0  0  0  0  0  0
   22.3220  -18.1698  -16.3758 C   0  0  0  0  0  0  0  0  0  0  0  0
   21.8454  -17.1493  -16.9287 O   0  0  0  0  0  0  0  0  0  0  0  0
   22.9863  -18.1334  -15.0645 C   0  0  0  0  0  0  0  0  0  0  0  0
   23.3828  -19.5128  -14.6002 C   0  0  2  0  0  0  0  0  0  0  0  0
   23.9005  -19.4303  -13.2401 N   0  0  0  0  0  0  0  0  0  0  0  0
   24.4402  -20.0488  -15.5237 C   0  0  0  0  0  0  0  0  0  0  0  0
   24.0932  -20.2223  -16.7078 O   0  0  0  0  0  0  0  0  0  0  0  0
   27.0648  -22.3118  -15.6428 C   0  0  0  0  0  0  0  0  0  0  0  0
   26.7588  -20.8685  -15.9085 C   0  0  2  0  0  0  0  0  0  0  0  0
   25.7380  -20.3347  -15.0729 N   0  0  0  0  0  0  0  0  0  0  0  0
   26.5485  -20.6585  -17.3669 C   0  0  0  0  0  0  0  0  0  0  0  0
   25.4216  -20.3479  -17.7867 O   0  0  0  0  0  0  0  0  0  0  0  0
   27.5933  -20.8053  -18.2602 O   0  0  0  0  0  0  0  0  0  0  0  0
  2  1  1  1
  2  4  1  0
  3  2  1  0
  4  6  1  0
  4  5  1  1
  6  7  2  0
  8  9  1  0
  9 10  2  0
  9 11  1  0
 12 11  1  6
 12 14  1  0
 13 12  1  0
 13  6  1  0
 14 15  2  0
 14 18  1  0
 17 16  1  6
 17 19  1  0
 18 17  1  0
 19 20  2  0
 19 21  1  0
M  END
$$$$
