VNA.pdb
     RDKit          3D

 21 20  0  0  1  0  0  0  0  0999 V2000
   25.8861  -18.8936  -10.5433 C   0  0  0  0  0  0  0  0  0  0  0  0
   25.2522  -20.2219  -10.2874 C   0  0  2  0  0  0  0  0  0  0  0  0
   25.4270  -20.5593   -8.8287 C   0  0  0  0  0  0  0  0  0  0  0  0
   25.8081  -21.3327  -11.1422 C   0  0  2  0  0  0  0  0  0  0  0  0
   27.2397  -21.4394  -10.9352 N   0  0  0  0  0  0  0  0  0  0  0  0
   25.5322  -21.1270  -12.5832 C   0  0  0  0  0  0  0  0  0  0  0  0
   26.4207  -20.6500  -13.3333 O   0  0  0  0  0  0  0  0  0  0  0  0
   23.6561  -24.8499  -14.4242 N   0  0  0  0  0  0  0  0  0  0  0  0
   24.1043  -23.6994  -15.1409 C   0  0  0  0  0  0  0  0  0  0  0  0
   25.1967  -23.7814  -15.7527 O   0  0  0  0  0  0  0  0  0  0  0  0
   23.2801  -22.4818  -15.1338 C   0  0  0  0  0  0  0  0  0  0  0  0
   24.0512  -21.2877  -14.6290 C   0  0  2  0  0  0  0  0  0  0  0  0
   24.2913  -21.4414  -13.1996 N   0  0  0  0  0  0  0  0  0  0  0  0
   23.2441  -20.0465  -14.8866 C   0  0  0  0  0  0  0  0  0  0  0  0
   22.2314  -19.8971  -14.1761 O   0  0  0  0  0  0  0  0  0  0  0  0
   23.7074  -16.8411  -16.7698 C   0  0  0  0  0  0  0  0  0  0  0  0
   22.8863  -17.9219  -16.1334 C   0  0  2  0  0  0  0  0  0  0  0  0
   23.6143  -19.1160  -15.8697 N   0  0  0  0  0  0  0  0  0  0  0  0
   21.6248  -18.1133  -16.8997 C   0  0  0  0  0  0  0  0  0  0  0  0
   21.5245  -19.0665  -17.6898 O   0  0  0  0  0  0  0  0  0  0  0  0
   20.5630  -17.2422  -16.7424 O   0  0  0  0  0  0  0  0  0  0  0  0
  2  1  1  6
  2  4  1  0
  3  2  1  0
  4  6  1  0
  4  5  1  6
  6  7  2  0
  8  9  1  0
  9 10  2  0
  9 11  1  0
 12 11  1  1
 12 14  1  0
 13 12  1  0
 13  6  1  0
 14 15  2  0
 14 18  1  0
 17 16  1  6
 17 19  1  0
 18 17  1  0
 19 20  2  0
 19 21  1  0
M  END
$$$$
