QEH.pdb
     RDKit          3D

 29 29  0  0  1  0  0  0  0  0999 V2000
   16.8033  -11.5291  -13.9807 N   0  0  0  0  0  0  0  0  0  0  0  0
   16.0816  -12.0018  -15.1479 C   0  0  0  0  0  0  0  0  0  0  0  0
   15.3715  -12.9954  -14.9352 O   0  0  0  0  0  0  0  0  0  0  0  0
   16.2653  -11.2812  -16.4134 C   0  0  0  0  0  0  0  0  0  0  0  0
   17.2466  -10.1881  -16.3454 C   0  0  0  0  0  0  0  0  0  0  0  0
   17.3990   -9.2881  -17.5174 C   0  0  2  0  0  0  0  0  0  0  0  0
   18.0369  -10.0720  -18.6196 N   0  0  0  0  0  0  0  0  0  0  0  0
   18.1656   -8.0682  -17.3659 C   0  0  0  0  0  0  0  0  0  0  0  0
   19.3863   -8.0428  -17.6364 O   0  0  0  0  0  0  0  0  0  0  0  0
   17.5408   -6.8518  -16.9055 N   0  0  0  0  0  0  0  0  0  0  0  0
   18.2848   -5.6364  -16.7574 C   0  0  1  0  0  0  0  0  0  0  0  0
   17.4534   -4.4122  -16.7263 C   0  0  0  0  0  0  0  0  0  0  0  0
   18.0753   -3.0886  -16.6805 C   0  0  0  0  0  0  0  0  0  0  0  0
   17.1722   -1.9206  -16.6535 C   0  0  0  0  0  0  0  0  0  0  0  0
   17.4926   -0.7641  -16.9614 O   0  0  0  0  0  0  0  0  0  0  0  0
   19.2681   -5.7170  -15.6567 C   0  0  0  0  0  0  0  0  0  0  0  0
   18.9546   -6.2491  -14.5813 O   0  0  0  0  0  0  0  0  0  0  0  0
   15.8254   -2.0719  -16.2538 O   0  0  0  0  0  0  0  0  0  0  0  0
   20.5588   -5.1874  -15.8364 N   0  0  0  0  0  0  0  0  0  0  0  0
   21.5084   -5.2237  -14.7017 C   0  0  1  0  0  0  0  0  0  0  0  0
   22.7189   -5.9725  -15.1664 C   0  0  0  0  0  0  0  0  0  0  0  0
   22.6341   -7.4343  -15.0566 C   0  0  0  0  0  0  0  0  0  0  0  0
   21.6230   -8.2533  -14.6407 C   0  0  0  0  0  0  0  0  0  0  0  0
   21.9627   -9.5651  -14.7801 N   0  0  0  0  0  0  0  0  0  0  0  0
   23.1943   -9.5482  -15.2884 C   0  0  0  0  0  0  0  0  0  0  0  0
   23.6240   -8.3071  -15.4657 N   0  0  0  0  0  0  0  0  0  0  0  0
   21.8368   -3.7895  -14.4374 C   0  0  0  0  0  0  0  0  0  0  0  0
   21.6460   -2.9320  -15.3042 O   0  0  0  0  0  0  0  0  0  0  0  0
   22.3672   -3.4481  -13.1770 O   0  0  0  0  0  0  0  0  0  0  0  0
  2  3  2  0
  2  1  1  0
  4  2  1  0
  5  4  1  0
  5  6  1  0
  6  8  1  0
  6  7  1  6
  8  9  2  0
 10 11  1  0
 10  8  1  0
 11 12  1  1
 12 13  1  0
 13 14  1  0
 14 18  1  0
 14 15  2  0
 16 19  1  0
 16 11  1  0
 17 16  2  0
 20 21  1  6
 20 19  1  0
 21 22  1  0
 22 23  2  0
 22 26  1  0
 23 24  1  0
 24 25  1  0
 26 25  2  0
 27 29  1  0
 27 20  1  0
 28 27  2  0
M  END
$$$$
