QEH.pdb
     RDKit          3D

 29 29  0  0  1  0  0  0  0  0999 V2000
   29.0089  -26.9760  -15.9502 N   0  0  0  0  0  0  0  0  0  0  0  0
   29.9536  -26.8097  -17.0394 C   0  0  0  0  0  0  0  0  0  0  0  0
   30.6333  -27.8186  -17.2777 O   0  0  0  0  0  0  0  0  0  0  0  0
   30.0056  -25.5089  -17.7174 C   0  0  0  0  0  0  0  0  0  0  0  0
   29.0428  -24.5239  -17.2021 C   0  0  0  0  0  0  0  0  0  0  0  0
   27.5914  -24.7660  -17.4064 C   0  0  2  0  0  0  0  0  0  0  0  0
   27.3427  -24.8565  -18.8782 N   0  0  0  0  0  0  0  0  0  0  0  0
   26.6424  -23.8096  -16.8739 C   0  0  0  0  0  0  0  0  0  0  0  0
   26.8504  -23.2459  -15.7771 O   0  0  0  0  0  0  0  0  0  0  0  0
   25.4378  -23.4791  -17.5962 N   0  0  0  0  0  0  0  0  0  0  0  0
   24.5195  -22.4922  -17.1107 C   0  0  1  0  0  0  0  0  0  0  0  0
   24.3727  -21.3106  -17.9900 C   0  0  0  0  0  0  0  0  0  0  0  0
   23.4775  -20.2134  -17.6224 C   0  0  0  0  0  0  0  0  0  0  0  0
   23.3263  -19.1127  -18.5952 C   0  0  0  0  0  0  0  0  0  0  0  0
   24.1252  -18.1774  -18.7436 O   0  0  0  0  0  0  0  0  0  0  0  0
   23.2327  -23.0878  -16.6932 C   0  0  0  0  0  0  0  0  0  0  0  0
   22.7421  -24.0242  -17.3416 O   0  0  0  0  0  0  0  0  0  0  0  0
   22.2030  -19.0690  -19.4510 O   0  0  0  0  0  0  0  0  0  0  0  0
   22.5697  -22.5867  -15.5584 N   0  0  0  0  0  0  0  0  0  0  0  0
   21.2600  -23.1660  -15.1843 C   0  0  1  0  0  0  0  0  0  0  0  0
   21.5103  -24.1323  -14.0682 C   0  0  0  0  0  0  0  0  0  0  0  0
   21.2998  -25.5466  -14.4024 C   0  0  0  0  0  0  0  0  0  0  0  0
   20.8642  -26.1506  -15.5476 C   0  0  0  0  0  0  0  0  0  0  0  0
   20.8971  -27.5074  -15.4320 N   0  0  0  0  0  0  0  0  0  0  0  0
   21.3595  -27.7358  -14.2034 C   0  0  0  0  0  0  0  0  0  0  0  0
   21.6089  -26.6014  -13.5652 N   0  0  0  0  0  0  0  0  0  0  0  0
   20.4525  -22.0007  -14.7104 C   0  0  0  0  0  0  0  0  0  0  0  0
   20.9482  -20.8715  -14.6631 O   0  0  0  0  0  0  0  0  0  0  0  0
   19.1170  -22.2285  -14.3219 O   0  0  0  0  0  0  0  0  0  0  0  0
  2  3  2  0
  2  1  1  0
  4  2  1  0
  5  4  1  0
  5  6  1  0
  6  8  1  0
  6  7  1  6
  8  9  2  0
 10 11  1  0
 10  8  1  0
 11 12  1  6
 12 13  1  0
 13 14  1  0
 14 18  1  0
 14 15  2  0
 16 19  1  0
 16 11  1  0
 17 16  2  0
 20 21  1  1
 20 19  1  0
 21 22  1  0
 22 23  2  0
 22 26  1  0
 23 24  1  0
 24 25  1  0
 26 25  2  0
 27 29  1  0
 27 20  1  0
 28 27  2  0
M  END
$$$$
