QEH.pdb
     RDKit          3D

 29 29  0  0  1  0  0  0  0  0999 V2000
   17.5901  -13.2939  -16.0656 N   0  0  0  0  0  0  0  0  0  0  0  0
   16.3029  -13.3629  -15.3985 C   0  0  0  0  0  0  0  0  0  0  0  0
   15.9183  -14.5169  -15.1598 O   0  0  0  0  0  0  0  0  0  0  0  0
   15.6147  -12.1033  -15.0913 C   0  0  0  0  0  0  0  0  0  0  0  0
   16.3208  -10.9025  -15.5624 C   0  0  0  0  0  0  0  0  0  0  0  0
   15.6948   -9.5726  -15.3472 C   0  0  2  0  0  0  0  0  0  0  0  0
   14.3531   -9.5831  -16.0076 N   0  0  0  0  0  0  0  0  0  0  0  0
   16.3888   -8.3902  -15.8155 C   0  0  0  0  0  0  0  0  0  0  0  0
   16.1742   -7.9348  -16.9603 O   0  0  0  0  0  0  0  0  0  0  0  0
   17.3393   -7.7055  -14.9732 N   0  0  0  0  0  0  0  0  0  0  0  0
   18.0012   -6.5110  -15.4067 C   0  0  1  0  0  0  0  0  0  0  0  0
   17.0894   -5.3883  -15.7211 C   0  0  0  0  0  0  0  0  0  0  0  0
   17.6192   -4.0571  -16.0176 C   0  0  0  0  0  0  0  0  0  0  0  0
   16.6395   -2.9670  -16.1978 C   0  0  0  0  0  0  0  0  0  0  0  0
   15.4088   -3.0975  -16.1399 O   0  0  0  0  0  0  0  0  0  0  0  0
   19.1186   -6.1390  -14.5135 C   0  0  0  0  0  0  0  0  0  0  0  0
   18.9499   -6.1136  -13.2851 O   0  0  0  0  0  0  0  0  0  0  0  0
   17.0804   -1.6504  -16.4593 O   0  0  0  0  0  0  0  0  0  0  0  0
   20.3715   -5.8147  -15.0644 N   0  0  0  0  0  0  0  0  0  0  0  0
   21.4963   -5.5159  -14.1500 C   0  0  1  0  0  0  0  0  0  0  0  0
   22.7188   -6.1522  -14.7354 C   0  0  0  0  0  0  0  0  0  0  0  0
   22.7426   -7.6200  -14.6974 C   0  0  0  0  0  0  0  0  0  0  0  0
   21.8341   -8.5279  -14.2321 C   0  0  0  0  0  0  0  0  0  0  0  0
   22.2450   -9.8039  -14.4740 N   0  0  0  0  0  0  0  0  0  0  0  0
   23.4166   -9.6750  -15.0953 C   0  0  0  0  0  0  0  0  0  0  0  0
   23.7432   -8.3994  -15.2453 N   0  0  0  0  0  0  0  0  0  0  0  0
   21.6109   -4.0254  -14.1659 C   0  0  0  0  0  0  0  0  0  0  0  0
   20.9765   -3.3561  -14.9860 O   0  0  0  0  0  0  0  0  0  0  0  0
   22.4592   -3.4116  -13.2225 O   0  0  0  0  0  0  0  0  0  0  0  0
  2  3  2  0
  2  1  1  0
  4  2  1  0
  5  4  1  0
  5  6  1  0
  6  8  1  0
  6  7  1  6
  8  9  2  0
 10 11  1  0
 10  8  1  0
 11 12  1  1
 12 13  1  0
 13 14  1  0
 14 18  1  0
 14 15  2  0
 16 19  1  0
 16 11  1  0
 17 16  2  0
 20 21  1  6
 20 19  1  0
 21 22  1  0
 22 23  2  0
 22 26  1  0
 23 24  1  0
 24 25  1  0
 26 25  2  0
 27 29  1  0
 27 20  1  0
 28 27  2  0
M  END
$$$$
