QEH.pdb
     RDKit          3D

 29 29  0  0  1  0  0  0  0  0999 V2000
   28.3795  -22.2843  -15.7471 N   0  0  0  0  0  0  0  0  0  0  0  0
   27.6151  -21.3150  -16.5104 C   0  0  0  0  0  0  0  0  0  0  0  0
   28.0693  -21.0905  -17.6417 O   0  0  0  0  0  0  0  0  0  0  0  0
   26.4288  -20.7206  -15.8826 C   0  0  0  0  0  0  0  0  0  0  0  0
   26.0817  -21.3061  -14.5791 C   0  0  0  0  0  0  0  0  0  0  0  0
   24.9176  -22.2250  -14.4936 C   0  0  2  0  0  0  0  0  0  0  0  0
   25.2075  -23.4160  -15.3501 N   0  0  0  0  0  0  0  0  0  0  0  0
   23.6104  -21.7335  -14.8789 C   0  0  0  0  0  0  0  0  0  0  0  0
   23.3435  -21.5002  -16.0782 O   0  0  0  0  0  0  0  0  0  0  0  0
   22.5827  -21.5063  -13.8918 N   0  0  0  0  0  0  0  0  0  0  0  0
   21.2935  -20.9979  -14.2553 C   0  0  1  0  0  0  0  0  0  0  0  0
   20.2647  -21.1331  -13.1997 C   0  0  0  0  0  0  0  0  0  0  0  0
   20.4258  -20.4614  -11.9100 C   0  0  0  0  0  0  0  0  0  0  0  0
   19.3925  -20.7133  -10.8856 C   0  0  0  0  0  0  0  0  0  0  0  0
   18.7677  -19.8366  -10.2723 O   0  0  0  0  0  0  0  0  0  0  0  0
   21.3746  -19.6419  -14.8380 C   0  0  0  0  0  0  0  0  0  0  0  0
   22.4335  -18.9997  -14.7721 O   0  0  0  0  0  0  0  0  0  0  0  0
   19.0463  -22.0375  -10.5351 O   0  0  0  0  0  0  0  0  0  0  0  0
   20.2456  -19.0858  -15.4663 N   0  0  0  0  0  0  0  0  0  0  0  0
   20.3671  -17.7548  -16.1022 C   0  0  1  0  0  0  0  0  0  0  0  0
   21.1121  -17.9484  -17.3865 C   0  0  0  0  0  0  0  0  0  0  0  0
   21.1699  -16.7717  -18.2630 C   0  0  0  0  0  0  0  0  0  0  0  0
   20.7886  -15.4752  -18.0634 C   0  0  0  0  0  0  0  0  0  0  0  0
   21.1032  -14.6984  -19.1372 N   0  0  0  0  0  0  0  0  0  0  0  0
   21.6848  -15.5284  -20.0022 C   0  0  0  0  0  0  0  0  0  0  0  0
   21.7423  -16.7616  -19.5205 N   0  0  0  0  0  0  0  0  0  0  0  0
   18.9576  -17.3296  -16.3616 C   0  0  0  0  0  0  0  0  0  0  0  0
   18.0426  -18.1577  -16.3633 O   0  0  0  0  0  0  0  0  0  0  0  0
   18.7066  -15.9638  -16.6023 O   0  0  0  0  0  0  0  0  0  0  0  0
  2  3  2  0
  2  1  1  0
  4  2  1  0
  5  4  1  0
  5  6  1  0
  6  8  1  0
  6  7  1  6
  8  9  2  0
 10 11  1  0
 10  8  1  0
 11 12  1  1
 12 13  1  0
 13 14  1  0
 14 18  1  0
 14 15  2  0
 16 19  1  0
 16 11  1  0
 17 16  2  0
 20 21  1  6
 20 19  1  0
 21 22  1  0
 22 23  2  0
 22 26  1  0
 23 24  1  0
 24 25  1  0
 26 25  2  0
 27 29  1  0
 27 20  1  0
 28 27  2  0
M  END
$$$$
