QEH.pdb
     RDKit          3D

 29 29  0  0  1  0  0  0  0  0999 V2000
   15.8544  -14.9872  -16.1159 N   0  0  0  0  0  0  0  0  0  0  0  0
   16.8564  -14.6130  -15.1348 C   0  0  0  0  0  0  0  0  0  0  0  0
   17.4537  -15.5748  -14.6300 O   0  0  0  0  0  0  0  0  0  0  0  0
   17.0472  -13.1856  -14.8509 C   0  0  0  0  0  0  0  0  0  0  0  0
   16.0452  -12.3095  -15.4762 C   0  0  0  0  0  0  0  0  0  0  0  0
   16.3285  -11.7416  -16.8194 C   0  0  2  0  0  0  0  0  0  0  0  0
   16.7452  -12.8642  -17.7151 N   0  0  0  0  0  0  0  0  0  0  0  0
   17.3340  -10.7058  -16.9416 C   0  0  0  0  0  0  0  0  0  0  0  0
   18.3424  -10.8759  -17.6616 O   0  0  0  0  0  0  0  0  0  0  0  0
   17.1958   -9.4515  -16.2419 N   0  0  0  0  0  0  0  0  0  0  0  0
   18.1998   -8.4326  -16.3241 C   0  0  1  0  0  0  0  0  0  0  0  0
   17.7332   -7.0835  -15.9328 C   0  0  0  0  0  0  0  0  0  0  0  0
   18.6351   -5.9334  -15.9997 C   0  0  0  0  0  0  0  0  0  0  0  0
   18.0997   -4.6309  -15.5551 C   0  0  0  0  0  0  0  0  0  0  0  0
   16.9680   -4.4479  -15.0853 O   0  0  0  0  0  0  0  0  0  0  0  0
   19.4606   -8.8403  -15.6692 C   0  0  0  0  0  0  0  0  0  0  0  0
   19.4306   -9.4730  -14.6030 O   0  0  0  0  0  0  0  0  0  0  0  0
   18.8940   -3.4662  -15.6485 O   0  0  0  0  0  0  0  0  0  0  0  0
   20.6920   -8.5068  -16.2617 N   0  0  0  0  0  0  0  0  0  0  0  0
   21.9422   -8.9503  -15.6052 C   0  0  1  0  0  0  0  0  0  0  0  0
   22.7516   -9.6670  -16.6411 C   0  0  0  0  0  0  0  0  0  0  0  0
   24.0431  -10.1904  -16.1783 C   0  0  0  0  0  0  0  0  0  0  0  0
   24.5099  -10.4684  -14.9249 C   0  0  0  0  0  0  0  0  0  0  0  0
   25.7553  -11.0180  -14.9739 N   0  0  0  0  0  0  0  0  0  0  0  0
   26.0527  -11.0784  -16.2714 C   0  0  0  0  0  0  0  0  0  0  0  0
   25.0651  -10.5987  -17.0136 N   0  0  0  0  0  0  0  0  0  0  0  0
   22.6166   -7.6850  -15.1822 C   0  0  0  0  0  0  0  0  0  0  0  0
   22.5896   -6.6868  -15.9074 O   0  0  0  0  0  0  0  0  0  0  0  0
   23.2795   -7.6661  -13.9386 O   0  0  0  0  0  0  0  0  0  0  0  0
  2  3  2  0
  2  1  1  0
  4  2  1  0
  5  4  1  0
  5  6  1  0
  6  8  1  0
  6  7  1  6
  8  9  2  0
 10 11  1  0
 10  8  1  0
 11 12  1  1
 12 13  1  0
 13 14  1  0
 14 18  1  0
 14 15  2  0
 16 19  1  0
 16 11  1  0
 17 16  2  0
 20 21  1  6
 20 19  1  0
 21 22  1  0
 22 23  2  0
 22 26  1  0
 23 24  1  0
 24 25  1  0
 26 25  2  0
 27 29  1  0
 27 20  1  0
 28 27  2  0
M  END
$$$$
