QEH.pdb
     RDKit          3D

 29 29  0  0  1  0  0  0  0  0999 V2000
   24.4117  -32.0052   -2.9791 N   0  0  0  0  0  0  0  0  0  0  0  0
   25.2460  -32.1528   -4.1575 C   0  0  0  0  0  0  0  0  0  0  0  0
   24.9705  -31.3650   -5.0740 O   0  0  0  0  0  0  0  0  0  0  0  0
   26.2887  -33.1859   -4.1417 C   0  0  0  0  0  0  0  0  0  0  0  0
   26.3487  -33.9600   -2.8929 C   0  0  0  0  0  0  0  0  0  0  0  0
   27.3710  -35.0298   -2.7615 C   0  0  2  0  0  0  0  0  0  0  0  0
   26.9203  -36.1997   -3.5766 N   0  0  0  0  0  0  0  0  0  0  0  0
   27.6910  -35.5313   -1.4405 C   0  0  0  0  0  0  0  0  0  0  0  0
   26.8209  -36.0995   -0.7447 O   0  0  0  0  0  0  0  0  0  0  0  0
   29.0203  -35.3936   -0.8966 N   0  0  0  0  0  0  0  0  0  0  0  0
   29.3079  -35.7123    0.4703 C   0  0  1  0  0  0  0  0  0  0  0  0
   30.7455  -35.9119    0.7607 C   0  0  0  0  0  0  0  0  0  0  0  0
   31.1920  -36.2721    2.1067 C   0  0  0  0  0  0  0  0  0  0  0  0
   32.6376  -36.5065    2.2965 C   0  0  0  0  0  0  0  0  0  0  0  0
   33.2371  -37.5473    1.9931 O   0  0  0  0  0  0  0  0  0  0  0  0
   28.6322  -34.7926    1.4097 C   0  0  0  0  0  0  0  0  0  0  0  0
   28.4691  -33.6019    1.1040 O   0  0  0  0  0  0  0  0  0  0  0  0
   33.4526  -35.5016    2.8642 O   0  0  0  0  0  0  0  0  0  0  0  0
   28.1767  -35.2755    2.6498 N   0  0  0  0  0  0  0  0  0  0  0  0
   27.4639  -34.3486    3.5573 C   0  0  1  0  0  0  0  0  0  0  0  0
   26.1904  -33.9579    2.8736 C   0  0  0  0  0  0  0  0  0  0  0  0
   25.6763  -32.6258    3.2164 C   0  0  0  0  0  0  0  0  0  0  0  0
   26.2510  -31.5760    3.8750 C   0  0  0  0  0  0  0  0  0  0  0  0
   25.4218  -30.4956    3.8980 N   0  0  0  0  0  0  0  0  0  0  0  0
   24.3288  -30.8882    3.2449 C   0  0  0  0  0  0  0  0  0  0  0  0
   24.4425  -32.1408    2.8272 N   0  0  0  0  0  0  0  0  0  0  0  0
   27.1852  -35.1586    4.7824 C   0  0  0  0  0  0  0  0  0  0  0  0
   26.5312  -34.6822    5.7143 O   0  0  0  0  0  0  0  0  0  0  0  0
   27.6881  -36.4740    4.8410 O   0  0  0  0  0  0  0  0  0  0  0  0
  2  3  2  0
  2  1  1  0
  4  2  1  0
  5  4  1  0
  5  6  1  0
  6  8  1  0
  6  7  1  6
  8  9  2  0
 10 11  1  0
 10  8  1  0
 11 12  1  6
 12 13  1  0
 13 14  1  0
 14 18  1  0
 14 15  2  0
 16 19  1  0
 16 11  1  0
 17 16  2  0
 20 21  1  6
 20 19  1  0
 21 22  1  0
 22 23  2  0
 22 26  1  0
 23 24  1  0
 24 25  1  0
 26 25  2  0
 27 29  1  0
 27 20  1  0
 28 27  2  0
M  END
$$$$
