QEH.pdb
     RDKit          3D

 29 29  0  0  1  0  0  0  0  0999 V2000
   21.0878  -31.2088  -10.3409 N   0  0  0  0  0  0  0  0  0  0  0  0
   20.9563  -31.1793  -11.7860 C   0  0  0  0  0  0  0  0  0  0  0  0
   21.4983  -32.1334  -12.3626 O   0  0  0  0  0  0  0  0  0  0  0  0
   20.2247  -30.0599  -12.3912 C   0  0  0  0  0  0  0  0  0  0  0  0
   19.6131  -29.1446  -11.4162 C   0  0  0  0  0  0  0  0  0  0  0  0
   19.8040  -27.6815  -11.5893 C   0  0  2  0  0  0  0  0  0  0  0  0
   21.1348  -27.4644  -12.2360 N   0  0  0  0  0  0  0  0  0  0  0  0
   19.7567  -26.8281  -10.4196 C   0  0  0  0  0  0  0  0  0  0  0  0
   20.7221  -26.7770   -9.6263 O   0  0  0  0  0  0  0  0  0  0  0  0
   18.5992  -26.0122  -10.1430 N   0  0  0  0  0  0  0  0  0  0  0  0
   18.5714  -25.1002   -9.0383 C   0  0  1  0  0  0  0  0  0  0  0  0
   18.1441  -23.7277   -9.3911 C   0  0  0  0  0  0  0  0  0  0  0  0
   16.7266  -23.4083   -9.5628 C   0  0  0  0  0  0  0  0  0  0  0  0
   16.3915  -22.0290   -9.9702 C   0  0  0  0  0  0  0  0  0  0  0  0
   17.2164  -21.1436  -10.2359 O   0  0  0  0  0  0  0  0  0  0  0  0
   17.8624  -25.6633   -7.8700 C   0  0  0  0  0  0  0  0  0  0  0  0
   16.8154  -26.3084   -8.0304 O   0  0  0  0  0  0  0  0  0  0  0  0
   15.0412  -21.6290  -10.0834 O   0  0  0  0  0  0  0  0  0  0  0  0
   18.3815  -25.4632   -6.5781 N   0  0  0  0  0  0  0  0  0  0  0  0
   17.6364  -26.0037   -5.4190 C   0  0  1  0  0  0  0  0  0  0  0  0
   18.5896  -26.0447   -4.2650 C   0  0  0  0  0  0  0  0  0  0  0  0
   18.0308  -26.5540   -3.0062 C   0  0  0  0  0  0  0  0  0  0  0  0
   16.7696  -26.9616   -2.6755 C   0  0  0  0  0  0  0  0  0  0  0  0
   16.7240  -27.4354   -1.3992 N   0  0  0  0  0  0  0  0  0  0  0  0
   17.9710  -27.3178   -0.9450 C   0  0  0  0  0  0  0  0  0  0  0  0
   18.7714  -26.8013   -1.8663 N   0  0  0  0  0  0  0  0  0  0  0  0
   16.5452  -25.0115   -5.1749 C   0  0  0  0  0  0  0  0  0  0  0  0
   16.6181  -23.8712   -5.6414 O   0  0  0  0  0  0  0  0  0  0  0  0
   15.4380  -25.4145   -4.4016 O   0  0  0  0  0  0  0  0  0  0  0  0
  2  3  2  0
  2  1  1  0
  4  2  1  0
  5  4  1  0
  5  6  1  0
  6  8  1  0
  6  7  1  1
  8  9  2  0
 10 11  1  0
 10  8  1  0
 11 12  1  6
 12 13  1  0
 13 14  1  0
 14 18  1  0
 14 15  2  0
 16 19  1  0
 16 11  1  0
 17 16  2  0
 20 21  1  1
 20 19  1  0
 21 22  1  0
 22 23  2  0
 22 26  1  0
 23 24  1  0
 24 25  1  0
 26 25  2  0
 27 29  1  0
 27 20  1  0
 28 27  2  0
M  END
$$$$
