YTW.pdb
     RDKit          3D

 34 36  0  0  1  0  0  0  0  0999 V2000
    6.9297  -12.5769   15.8664 O   0  0  0  0  0  0  0  0  0  0  0  0
    7.2792  -13.3175   17.0081 C   0  0  0  0  0  0  0  0  0  0  0  0
    7.6604  -14.6421   16.9588 C   0  0  0  0  0  0  0  0  0  0  0  0
    7.9921  -15.3238   18.1108 C   0  0  0  0  0  0  0  0  0  0  0  0
    7.9609  -14.7249   19.3548 C   0  0  0  0  0  0  0  0  0  0  0  0
    8.2968  -15.4512   20.5998 C   0  0  0  0  0  0  0  0  0  0  0  0
    8.6597  -16.8818   20.1748 C   0  0  2  0  0  0  0  0  0  0  0  0
    7.4532  -17.5823   19.7601 N   0  0  0  0  0  0  0  0  0  0  0  0
    9.2617  -17.5043   21.3755 C   0  0  0  0  0  0  0  0  0  0  0  0
    8.5588  -18.1870   22.1388 O   0  0  0  0  0  0  0  0  0  0  0  0
    7.5767  -13.3882   19.3987 C   0  0  0  0  0  0  0  0  0  0  0  0
    7.2444  -12.7098   18.2347 C   0  0  0  0  0  0  0  0  0  0  0  0
   12.4726  -19.4764   21.2812 C   0  0  0  0  0  0  0  0  0  0  0  0
   12.6594  -18.4287   22.3869 C   0  0  1  0  0  0  0  0  0  0  0  0
   13.5064  -17.4646   21.8931 O   0  0  0  0  0  0  0  0  0  0  0  0
   11.2958  -17.8421   22.7470 C   0  0  2  0  0  0  0  0  0  0  0  0
   10.6479  -17.2802   21.5953 N   0  0  0  0  0  0  0  0  0  0  0  0
   11.4669  -16.8585   23.8420 C   0  0  0  0  0  0  0  0  0  0  0  0
   11.7173  -15.6372   23.6217 O   0  0  0  0  0  0  0  0  0  0  0  0
   11.3569  -17.2471   25.2040 N   0  0  0  0  0  0  0  0  0  0  0  0
   10.7757  -16.3464   26.2053 C   0  0  1  0  0  0  0  0  0  0  0  0
    9.4498  -15.9340   25.6474 C   0  0  0  0  0  0  0  0  0  0  0  0
    8.6671  -15.0689   26.5522 C   0  0  0  0  0  0  0  0  0  0  0  0
    8.1586  -15.4231   27.8100 C   0  0  0  0  0  0  0  0  0  0  0  0
    7.4721  -14.3902   28.3036 N   0  0  0  0  0  0  0  0  0  0  0  0
    7.4788  -13.3374   27.4567 C   0  0  0  0  0  0  0  0  0  0  0  0
    6.9355  -12.0739   27.5252 C   0  0  0  0  0  0  0  0  0  0  0  0
    7.1265  -11.1889   26.4977 C   0  0  0  0  0  0  0  0  0  0  0  0
    7.8781  -11.6086   25.3964 C   0  0  0  0  0  0  0  0  0  0  0  0
    8.4129  -12.8693   25.3377 C   0  0  0  0  0  0  0  0  0  0  0  0
    8.2353  -13.7785   26.3575 C   0  0  0  0  0  0  0  0  0  0  0  0
   10.6840  -16.9559   27.5145 C   0  0  0  0  0  0  0  0  0  0  0  0
   10.2144  -18.1446   27.6079 O   0  0  0  0  0  0  0  0  0  0  0  0
   11.0617  -16.3862   28.7126 O   0  0  0  0  0  0  0  0  0  0  0  0
  2  1  1  0
  3  2  2  0
  4  3  1  0
  5  4  2  0
  5 11  1  0
  6  5  1  0
  7  9  1  0
  7  6  1  0
  7  8  1  1
  9 17  1  0
 10  9  2  0
 11 12  2  0
 12  2  1  0
 14 13  1  6
 14 16  1  0
 15 14  1  0
 16 18  1  0
 16 17  1  6
 18 19  2  0
 18 20  1  0
 20 21  1  0
 21 32  1  0
 21 22  1  6
 23 22  1  0
 23 31  1  0
 24 23  2  0
 25 24  1  0
 25 26  1  0
 26 27  1  0
 26 31  2  0
 27 28  2  0
 28 29  1  0
 30 29  2  0
 31 30  1  0
 32 34  1  0
 33 32  2  0
M  END
$$$$
