YTW.pdb
     RDKit          3D

 34 36  0  0  1  0  0  0  0  0999 V2000
    7.5596  -11.6270   16.7999 O   0  0  0  0  0  0  0  0  0  0  0  0
    7.5632  -12.5296   17.8766 C   0  0  0  0  0  0  0  0  0  0  0  0
    6.7369  -13.6323   17.9375 C   0  0  0  0  0  0  0  0  0  0  0  0
    6.7795  -14.4865   19.0193 C   0  0  0  0  0  0  0  0  0  0  0  0
    7.6387  -14.2858   20.0817 C   0  0  0  0  0  0  0  0  0  0  0  0
    7.6804  -15.1851   21.2564 C   0  0  0  0  0  0  0  0  0  0  0  0
    8.7383  -16.2525   20.9397 C   0  0  2  0  0  0  0  0  0  0  0  0
    8.2726  -17.0805   19.8369 N   0  0  0  0  0  0  0  0  0  0  0  0
    8.8824  -17.0401   22.1848 C   0  0  0  0  0  0  0  0  0  0  0  0
    7.9594  -17.7820   22.5600 O   0  0  0  0  0  0  0  0  0  0  0  0
    8.4707  -13.1725   20.0148 C   0  0  0  0  0  0  0  0  0  0  0  0
    8.4213  -12.3181   18.9225 C   0  0  0  0  0  0  0  0  0  0  0  0
   11.1052  -19.6900   22.9805 C   0  0  0  0  0  0  0  0  0  0  0  0
   11.4736  -18.6040   24.0003 C   0  0  1  0  0  0  0  0  0  0  0  0
   12.6061  -17.9782   23.5348 O   0  0  0  0  0  0  0  0  0  0  0  0
   10.3067  -17.6263   24.1241 C   0  0  2  0  0  0  0  0  0  0  0  0
   10.1012  -16.9003   22.9024 N   0  0  0  0  0  0  0  0  0  0  0  0
   10.5437  -16.7354   25.2842 C   0  0  0  0  0  0  0  0  0  0  0  0
   11.2146  -15.6659   25.1903 O   0  0  0  0  0  0  0  0  0  0  0  0
   10.0229  -17.0461   26.5689 N   0  0  0  0  0  0  0  0  0  0  0  0
   10.2981  -16.1884   27.7266 C   0  0  1  0  0  0  0  0  0  0  0  0
    8.9663  -15.9376   28.3614 C   0  0  0  0  0  0  0  0  0  0  0  0
    7.9828  -15.3146   27.4535 C   0  0  0  0  0  0  0  0  0  0  0  0
    6.9507  -15.9701   26.7674 C   0  0  0  0  0  0  0  0  0  0  0  0
    6.3005  -15.0799   26.0144 N   0  0  0  0  0  0  0  0  0  0  0  0
    6.8251  -13.8414   26.1431 C   0  0  0  0  0  0  0  0  0  0  0  0
    6.4982  -12.6217   25.5935 C   0  0  0  0  0  0  0  0  0  0  0  0
    7.2137  -11.5039   25.9310 C   0  0  0  0  0  0  0  0  0  0  0  0
    8.2696  -11.6445   26.8361 C   0  0  0  0  0  0  0  0  0  0  0  0
    8.5875  -12.8638   27.3758 C   0  0  0  0  0  0  0  0  0  0  0  0
    7.8840  -14.0034   27.0526 C   0  0  0  0  0  0  0  0  0  0  0  0
   11.2657  -16.7701   28.6318 C   0  0  0  0  0  0  0  0  0  0  0  0
   11.5914  -17.9998   28.4765 O   0  0  0  0  0  0  0  0  0  0  0  0
   11.9024  -16.1292   29.6741 O   0  0  0  0  0  0  0  0  0  0  0  0
  2  1  1  0
  3  2  2  0
  4  3  1  0
  5  4  2  0
  5 11  1  0
  6  5  1  0
  7  9  1  0
  7  6  1  0
  7  8  1  6
  9 17  1  0
 10  9  2  0
 11 12  2  0
 12  2  1  0
 14 13  1  6
 14 16  1  0
 15 14  1  0
 16 18  1  0
 16 17  1  6
 18 19  2  0
 18 20  1  0
 20 21  1  0
 21 32  1  0
 21 22  1  1
 23 22  1  0
 23 31  1  0
 24 23  2  0
 25 24  1  0
 25 26  1  0
 26 27  1  0
 26 31  2  0
 27 28  2  0
 28 29  1  0
 30 29  2  0
 31 30  1  0
 32 34  1  0
 33 32  2  0
M  END
$$$$
