YTW.pdb
     RDKit          3D

 34 36  0  0  1  0  0  0  0  0999 V2000
    8.0019  -12.3090   15.4960 O   0  0  0  0  0  0  0  0  0  0  0  0
    7.9062  -12.9865   16.7232 C   0  0  0  0  0  0  0  0  0  0  0  0
    7.4080  -12.4024   17.8690 C   0  0  0  0  0  0  0  0  0  0  0  0
    7.3375  -13.1124   19.0491 C   0  0  0  0  0  0  0  0  0  0  0  0
    7.7553  -14.4253   19.1438 C   0  0  0  0  0  0  0  0  0  0  0  0
    7.7018  -15.1914   20.4089 C   0  0  0  0  0  0  0  0  0  0  0  0
    8.1473  -16.6198   20.0623 C   0  0  2  0  0  0  0  0  0  0  0  0
    7.1558  -17.2365   19.1934 N   0  0  0  0  0  0  0  0  0  0  0  0
    8.2425  -17.3244   21.3607 C   0  0  0  0  0  0  0  0  0  0  0  0
    7.2601  -17.9405   21.8058 O   0  0  0  0  0  0  0  0  0  0  0  0
    8.2562  -15.0100   17.9848 C   0  0  0  0  0  0  0  0  0  0  0  0
    8.3236  -14.2883   16.8015 C   0  0  0  0  0  0  0  0  0  0  0  0
    9.7654  -20.1540   22.1114 C   0  0  0  0  0  0  0  0  0  0  0  0
   10.4993  -19.2246   23.0875 C   0  0  1  0  0  0  0  0  0  0  0  0
   11.7246  -18.9395   22.5322 O   0  0  0  0  0  0  0  0  0  0  0  0
    9.6677  -17.9586   23.2842 C   0  0  2  0  0  0  0  0  0  0  0  0
    9.4860  -17.2550   22.0457 N   0  0  0  0  0  0  0  0  0  0  0  0
   10.3027  -17.1208   24.3285 C   0  0  0  0  0  0  0  0  0  0  0  0
   11.2585  -16.3307   24.0738 O   0  0  0  0  0  0  0  0  0  0  0  0
    9.8621  -17.1681   25.6783 N   0  0  0  0  0  0  0  0  0  0  0  0
   10.6151  -16.5009   26.7457 C   0  0  1  0  0  0  0  0  0  0  0  0
   10.2317  -15.0570   26.6604 C   0  0  0  0  0  0  0  0  0  0  0  0
    8.7779  -14.8345   26.5312 C   0  0  0  0  0  0  0  0  0  0  0  0
    7.7888  -15.8240   26.4395 C   0  0  0  0  0  0  0  0  0  0  0  0
    6.6007  -15.2333   26.2922 N   0  0  0  0  0  0  0  0  0  0  0  0
    6.7124  -13.8868   26.2789 C   0  0  0  0  0  0  0  0  0  0  0  0
    5.7910  -12.8695   26.1674 C   0  0  0  0  0  0  0  0  0  0  0  0
    6.2030  -11.5641   26.2062 C   0  0  0  0  0  0  0  0  0  0  0  0
    7.5686  -11.3074   26.3586 C   0  0  0  0  0  0  0  0  0  0  0  0
    8.4775  -12.3277   26.4668 C   0  0  0  0  0  0  0  0  0  0  0  0
    8.0891  -13.6491   26.4304 C   0  0  0  0  0  0  0  0  0  0  0  0
   10.3702  -17.0846   28.0470 C   0  0  0  0  0  0  0  0  0  0  0  0
   10.9831  -16.6009   29.0631 O   0  0  0  0  0  0  0  0  0  0  0  0
    9.5201  -18.1338   28.3284 O   0  0  0  0  0  0  0  0  0  0  0  0
  2  1  1  0
  3  2  2  0
  4  3  1  0
  5  4  2  0
  5 11  1  0
  6  5  1  0
  7  9  1  0
  7  6  1  0
  7  8  1  6
  9 17  1  0
 10  9  2  0
 11 12  2  0
 12  2  1  0
 14 13  1  6
 14 16  1  0
 15 14  1  0
 16 18  1  0
 16 17  1  6
 18 19  2  0
 18 20  1  0
 20 21  1  0
 21 32  1  0
 21 22  1  1
 23 22  1  0
 23 31  1  0
 24 23  2  0
 25 24  1  0
 25 26  1  0
 26 27  1  0
 26 31  2  0
 27 28  2  0
 28 29  1  0
 30 29  2  0
 31 30  1  0
 32 34  1  0
 33 32  2  0
M  END
$$$$
