YTW.pdb
     RDKit          3D

 34 36  0  0  1  0  0  0  0  0999 V2000
    8.1444  -11.5191   17.3063 O   0  0  0  0  0  0  0  0  0  0  0  0
    8.0153  -12.3514   18.4308 C   0  0  0  0  0  0  0  0  0  0  0  0
    9.0510  -12.5985   19.3075 C   0  0  0  0  0  0  0  0  0  0  0  0
    8.8712  -13.4258   20.3961 C   0  0  0  0  0  0  0  0  0  0  0  0
    7.6632  -14.0404   20.6614 C   0  0  0  0  0  0  0  0  0  0  0  0
    7.4635  -14.9447   21.8158 C   0  0  0  0  0  0  0  0  0  0  0  0
    7.9162  -16.3368   21.3510 C   0  0  2  0  0  0  0  0  0  0  0  0
    6.8827  -16.9245   20.5114 N   0  0  0  0  0  0  0  0  0  0  0  0
    8.1137  -17.1175   22.5932 C   0  0  0  0  0  0  0  0  0  0  0  0
    7.1316  -17.5732   23.2021 O   0  0  0  0  0  0  0  0  0  0  0  0
    6.6215  -13.7869   19.7744 C   0  0  0  0  0  0  0  0  0  0  0  0
    6.8111  -12.9531   18.6814 C   0  0  0  0  0  0  0  0  0  0  0  0
   10.2455  -20.1768   23.2622 C   0  0  0  0  0  0  0  0  0  0  0  0
   10.7946  -19.0357   24.1292 C   0  0  1  0  0  0  0  0  0  0  0  0
   11.9058  -18.5390   23.4893 O   0  0  0  0  0  0  0  0  0  0  0  0
    9.7141  -17.9669   24.2814 C   0  0  2  0  0  0  0  0  0  0  0  0
    9.4517  -17.3074   23.0331 N   0  0  0  0  0  0  0  0  0  0  0  0
   10.1147  -17.0238   25.3518 C   0  0  0  0  0  0  0  0  0  0  0  0
   10.8521  -16.0194   25.1278 O   0  0  0  0  0  0  0  0  0  0  0  0
    9.6845  -17.2075   26.6932 N   0  0  0  0  0  0  0  0  0  0  0  0
   10.2915  -16.4525   27.7946 C   0  0  1  0  0  0  0  0  0  0  0  0
    9.1718  -15.6695   28.4048 C   0  0  0  0  0  0  0  0  0  0  0  0
    8.1772  -15.1912   27.4241 C   0  0  0  0  0  0  0  0  0  0  0  0
    7.2622  -15.9806   26.7132 C   0  0  0  0  0  0  0  0  0  0  0  0
    6.5608  -15.1946   25.8933 N   0  0  0  0  0  0  0  0  0  0  0  0
    6.9387  -13.9016   25.9989 C   0  0  0  0  0  0  0  0  0  0  0  0
    6.5109  -12.7454   25.3852 C   0  0  0  0  0  0  0  0  0  0  0  0
    7.0801  -11.5440   25.7137 C   0  0  0  0  0  0  0  0  0  0  0  0
    8.0938  -11.5352   26.6761 C   0  0  0  0  0  0  0  0  0  0  0  0
    8.5133  -12.6923   27.2794 C   0  0  0  0  0  0  0  0  0  0  0  0
    7.9575  -13.9136   26.9667 C   0  0  0  0  0  0  0  0  0  0  0  0
   10.9787  -17.3052   28.7405 C   0  0  0  0  0  0  0  0  0  0  0  0
   10.8387  -18.5749   28.6384 O   0  0  0  0  0  0  0  0  0  0  0  0
   11.7986  -16.8936   29.7705 O   0  0  0  0  0  0  0  0  0  0  0  0
  2  1  1  0
  3  2  2  0
  4  3  1  0
  5  4  2  0
  5 11  1  0
  6  5  1  0
  7  9  1  0
  7  6  1  0
  7  8  1  6
  9 17  1  0
 10  9  2  0
 11 12  2  0
 12  2  1  0
 14 13  1  6
 14 16  1  0
 15 14  1  0
 16 18  1  0
 16 17  1  6
 18 19  2  0
 18 20  1  0
 20 21  1  0
 21 32  1  0
 21 22  1  1
 23 22  1  0
 23 31  1  0
 24 23  2  0
 25 24  1  0
 25 26  1  0
 26 27  1  0
 26 31  2  0
 27 28  2  0
 28 29  1  0
 30 29  2  0
 31 30  1  0
 32 34  1  0
 33 32  2  0
M  END
$$$$
