YTW.pdb
     RDKit          3D

 34 36  0  0  1  0  0  0  0  0999 V2000
   17.6766  -14.8029   18.2462 O   0  0  0  0  0  0  0  0  0  0  0  0
   16.3284  -14.6607   18.6152 C   0  0  0  0  0  0  0  0  0  0  0  0
   15.5241  -13.6410   18.1509 C   0  0  0  0  0  0  0  0  0  0  0  0
   14.2064  -13.5466   18.5463 C   0  0  0  0  0  0  0  0  0  0  0  0
   13.6319  -14.4543   19.4142 C   0  0  0  0  0  0  0  0  0  0  0  0
   12.2243  -14.3526   19.8601 C   0  0  0  0  0  0  0  0  0  0  0  0
   11.4618  -15.4639   19.1237 C   0  0  2  0  0  0  0  0  0  0  0  0
   10.9341  -14.9393   17.8728 N   0  0  0  0  0  0  0  0  0  0  0  0
   10.3741  -15.8662   20.0438 C   0  0  0  0  0  0  0  0  0  0  0  0
    9.3113  -15.2236   20.0665 O   0  0  0  0  0  0  0  0  0  0  0  0
   14.4474  -15.4815   19.8788 C   0  0  0  0  0  0  0  0  0  0  0  0
   15.7724  -15.5691   19.4758 C   0  0  0  0  0  0  0  0  0  0  0  0
    8.6348  -19.0987   20.7212 C   0  0  0  0  0  0  0  0  0  0  0  0
    9.3439  -18.7383   22.0336 C   0  0  1  0  0  0  0  0  0  0  0  0
   10.4427  -19.5582   22.1391 O   0  0  0  0  0  0  0  0  0  0  0  0
    9.7486  -17.2662   21.9884 C   0  0  2  0  0  0  0  0  0  0  0  0
   10.6119  -16.9954   20.8735 N   0  0  0  0  0  0  0  0  0  0  0  0
   10.3584  -16.8926   23.2862 C   0  0  0  0  0  0  0  0  0  0  0  0
   11.6059  -16.7276   23.4253 O   0  0  0  0  0  0  0  0  0  0  0  0
    9.5607  -16.7014   24.4461 N   0  0  0  0  0  0  0  0  0  0  0  0
   10.1737  -16.4898   25.7618 C   0  0  1  0  0  0  0  0  0  0  0  0
    9.8388  -15.0797   26.1345 C   0  0  0  0  0  0  0  0  0  0  0  0
    8.3891  -14.8206   26.2388 C   0  0  0  0  0  0  0  0  0  0  0  0
    7.3663  -15.7785   26.1922 C   0  0  0  0  0  0  0  0  0  0  0  0
    6.1886  -15.1559   26.2771 N   0  0  0  0  0  0  0  0  0  0  0  0
    6.3395  -13.8173   26.3823 C   0  0  0  0  0  0  0  0  0  0  0  0
    5.4440  -12.7785   26.5067 C   0  0  0  0  0  0  0  0  0  0  0  0
    5.8983  -11.4912   26.6158 C   0  0  0  0  0  0  0  0  0  0  0  0
    7.2791  -11.2747   26.5949 C   0  0  0  0  0  0  0  0  0  0  0  0
    8.1616  -12.3159   26.4687 C   0  0  0  0  0  0  0  0  0  0  0  0
    7.7306  -13.6197   26.3570 C   0  0  0  0  0  0  0  0  0  0  0  0
    9.7377  -17.4620   26.7409 C   0  0  0  0  0  0  0  0  0  0  0  0
    8.8048  -18.2805   26.4216 O   0  0  0  0  0  0  0  0  0  0  0  0
   10.2319  -17.6167   28.0194 O   0  0  0  0  0  0  0  0  0  0  0  0
  2  1  1  0
  3  2  2  0
  4  3  1  0
  5  4  2  0
  5 11  1  0
  6  5  1  0
  7  9  1  0
  7  6  1  0
  7  8  1  6
  9 17  1  0
 10  9  2  0
 11 12  2  0
 12  2  1  0
 14 13  1  6
 14 16  1  0
 15 14  1  0
 16 18  1  0
 16 17  1  6
 18 19  2  0
 18 20  1  0
 20 21  1  0
 21 32  1  0
 21 22  1  1
 23 22  1  0
 23 31  1  0
 24 23  2  0
 25 24  1  0
 25 26  1  0
 26 27  1  0
 26 31  2  0
 27 28  2  0
 28 29  1  0
 30 29  2  0
 31 30  1  0
 32 34  1  0
 33 32  2  0
M  END
$$$$
