YTW.pdb
     RDKit          3D

 34 36  0  0  1  0  0  0  0  0999 V2000
    7.7047  -11.6977   16.5273 O   0  0  0  0  0  0  0  0  0  0  0  0
    7.6794  -12.5048   17.6770 C   0  0  0  0  0  0  0  0  0  0  0  0
    8.2674  -12.1361   18.8689 C   0  0  0  0  0  0  0  0  0  0  0  0
    8.2148  -12.9674   19.9680 C   0  0  0  0  0  0  0  0  0  0  0  0
    7.5801  -14.1934   19.9333 C   0  0  0  0  0  0  0  0  0  0  0  0
    7.5331  -15.1020   21.1006 C   0  0  0  0  0  0  0  0  0  0  0  0
    8.6385  -16.1442   20.8754 C   0  0  2  0  0  0  0  0  0  0  0  0
    8.3069  -16.9552   19.7132 N   0  0  0  0  0  0  0  0  0  0  0  0
    8.6664  -16.9566   22.1125 C   0  0  0  0  0  0  0  0  0  0  0  0
    8.0636  -18.0419   22.1557 O   0  0  0  0  0  0  0  0  0  0  0  0
    6.9878  -14.5600   18.7288 C   0  0  0  0  0  0  0  0  0  0  0  0
    7.0455  -13.7175   17.6276 C   0  0  0  0  0  0  0  0  0  0  0  0
   10.2598  -19.1735   22.6412 C   0  0  0  0  0  0  0  0  0  0  0  0
   10.9065  -18.2974   23.7226 C   0  0  1  0  0  0  0  0  0  0  0  0
   11.9631  -17.6421   23.1352 O   0  0  0  0  0  0  0  0  0  0  0  0
    9.8639  -17.3139   24.2506 C   0  0  2  0  0  0  0  0  0  0  0  0
    9.4004  -16.4364   23.2128 N   0  0  0  0  0  0  0  0  0  0  0  0
   10.4326  -16.5808   25.4060 C   0  0  0  0  0  0  0  0  0  0  0  0
   11.4267  -15.8052   25.2925 O   0  0  0  0  0  0  0  0  0  0  0  0
    9.8812  -16.7180   26.7080 N   0  0  0  0  0  0  0  0  0  0  0  0
   10.5095  -16.0786   27.8690 C   0  0  1  0  0  0  0  0  0  0  0  0
    9.4165  -15.3049   28.5370 C   0  0  0  0  0  0  0  0  0  0  0  0
    8.3299  -14.9008   27.6229 C   0  0  0  0  0  0  0  0  0  0  0  0
    7.3570  -15.7409   27.0628 C   0  0  0  0  0  0  0  0  0  0  0  0
    6.5752  -15.0180   26.2576 N   0  0  0  0  0  0  0  0  0  0  0  0
    6.9523  -13.7208   26.2308 C   0  0  0  0  0  0  0  0  0  0  0  0
    6.4600  -12.6134   25.5768 C   0  0  0  0  0  0  0  0  0  0  0  0
    7.0492  -11.3908   25.7598 C   0  0  0  0  0  0  0  0  0  0  0  0
    8.1498  -11.3106   26.6178 C   0  0  0  0  0  0  0  0  0  0  0  0
    8.6329  -12.4197   27.2623 C   0  0  0  0  0  0  0  0  0  0  0  0
    8.0586  -13.6608   27.0953 C   0  0  0  0  0  0  0  0  0  0  0  0
   11.1575  -17.0309   28.7449 C   0  0  0  0  0  0  0  0  0  0  0  0
   11.8501  -16.5892   29.7285 O   0  0  0  0  0  0  0  0  0  0  0  0
   11.1089  -18.4055   28.6414 O   0  0  0  0  0  0  0  0  0  0  0  0
  2  1  1  0
  3  2  2  0
  4  3  1  0
  5  4  2  0
  5 11  1  0
  6  5  1  0
  7  9  1  0
  7  6  1  0
  7  8  1  6
  9 17  1  0
 10  9  2  0
 11 12  2  0
 12  2  1  0
 14 13  1  6
 14 16  1  0
 15 14  1  0
 16 18  1  0
 16 17  1  6
 18 19  2  0
 18 20  1  0
 20 21  1  0
 21 32  1  0
 21 22  1  1
 23 22  1  0
 23 31  1  0
 24 23  2  0
 25 24  1  0
 25 26  1  0
 26 27  1  0
 26 31  2  0
 27 28  2  0
 28 29  1  0
 30 29  2  0
 31 30  1  0
 32 34  1  0
 33 32  2  0
M  END
$$$$
