YTW.pdb
     RDKit          3D

 34 36  0  0  1  0  0  0  0  0999 V2000
    7.6283  -11.3018   16.9640 O   0  0  0  0  0  0  0  0  0  0  0  0
    7.6347  -12.2473   18.0033 C   0  0  0  0  0  0  0  0  0  0  0  0
    8.4753  -12.1623   19.0934 C   0  0  0  0  0  0  0  0  0  0  0  0
    8.4420  -13.1191   20.0859 C   0  0  0  0  0  0  0  0  0  0  0  0
    7.5783  -14.1959   20.0410 C   0  0  0  0  0  0  0  0  0  0  0  0
    7.5464  -15.2388   21.0906 C   0  0  0  0  0  0  0  0  0  0  0  0
    8.4938  -16.3508   20.6165 C   0  0  2  0  0  0  0  0  0  0  0  0
    7.8757  -17.0734   19.5146 N   0  0  0  0  0  0  0  0  0  0  0  0
    8.6897  -17.2249   21.7950 C   0  0  0  0  0  0  0  0  0  0  0  0
    7.7299  -17.8591   22.2634 O   0  0  0  0  0  0  0  0  0  0  0  0
    6.7318  -14.2763   18.9396 C   0  0  0  0  0  0  0  0  0  0  0  0
    6.7719  -13.3090   17.9453 C   0  0  0  0  0  0  0  0  0  0  0  0
   10.8223  -20.0855   22.3659 C   0  0  0  0  0  0  0  0  0  0  0  0
   11.3011  -19.0683   23.4105 C   0  0  1  0  0  0  0  0  0  0  0  0
   12.4833  -18.5391   22.9489 O   0  0  0  0  0  0  0  0  0  0  0  0
   10.2330  -17.9888   23.5748 C   0  0  2  0  0  0  0  0  0  0  0  0
   10.0002  -17.2919   22.3411 N   0  0  0  0  0  0  0  0  0  0  0  0
   10.6290  -17.0810   24.6770 C   0  0  0  0  0  0  0  0  0  0  0  0
   11.4040  -16.0962   24.4974 O   0  0  0  0  0  0  0  0  0  0  0  0
   10.1513  -17.2784   26.0003 N   0  0  0  0  0  0  0  0  0  0  0  0
   10.5825  -16.4087   27.0999 C   0  0  1  0  0  0  0  0  0  0  0  0
   10.2974  -15.0138   26.6392 C   0  0  0  0  0  0  0  0  0  0  0  0
    8.8770  -14.7726   26.3169 C   0  0  0  0  0  0  0  0  0  0  0  0
    7.8760  -15.7456   26.1853 C   0  0  0  0  0  0  0  0  0  0  0  0
    6.7327  -15.1447   25.8479 N   0  0  0  0  0  0  0  0  0  0  0  0
    6.8863  -13.8066   25.7404 C   0  0  0  0  0  0  0  0  0  0  0  0
    6.0165  -12.7831   25.4368 C   0  0  0  0  0  0  0  0  0  0  0  0
    6.4608  -11.4878   25.4207 C   0  0  0  0  0  0  0  0  0  0  0  0
    7.8056  -11.2478   25.7168 C   0  0  0  0  0  0  0  0  0  0  0  0
    8.6634  -12.2743   26.0159 C   0  0  0  0  0  0  0  0  0  0  0  0
    8.2418  -13.5857   26.0386 C   0  0  0  0  0  0  0  0  0  0  0  0
    9.9434  -16.7412   28.3549 C   0  0  0  0  0  0  0  0  0  0  0  0
   10.2518  -16.0665   29.3998 O   0  0  0  0  0  0  0  0  0  0  0  0
    9.0051  -17.7312   28.5604 O   0  0  0  0  0  0  0  0  0  0  0  0
  2  1  1  0
  3  2  2  0
  4  3  1  0
  5  4  2  0
  5 11  1  0
  6  5  1  0
  7  9  1  0
  7  6  1  0
  7  8  1  6
  9 17  1  0
 10  9  2  0
 11 12  2  0
 12  2  1  0
 14 13  1  6
 14 16  1  0
 15 14  1  0
 16 18  1  0
 16 17  1  6
 18 19  2  0
 18 20  1  0
 20 21  1  0
 21 32  1  0
 21 22  1  6
 23 22  1  0
 23 31  1  0
 24 23  2  0
 25 24  1  0
 25 26  1  0
 26 27  1  0
 26 31  2  0
 27 28  2  0
 28 29  1  0
 30 29  2  0
 31 30  1  0
 32 34  1  0
 33 32  2  0
M  END
$$$$
