YTW.pdb
     RDKit          3D

 34 36  0  0  1  0  0  0  0  0999 V2000
    7.6986  -11.8991   16.4409 O   0  0  0  0  0  0  0  0  0  0  0  0
    7.8092  -12.6228   17.6401 C   0  0  0  0  0  0  0  0  0  0  0  0
    8.8988  -12.5262   18.4801 C   0  0  0  0  0  0  0  0  0  0  0  0
    8.9579  -13.2607   19.6457 C   0  0  0  0  0  0  0  0  0  0  0  0
    7.9445  -14.1180   20.0271 C   0  0  0  0  0  0  0  0  0  0  0  0
    8.0051  -14.9253   21.2661 C   0  0  0  0  0  0  0  0  0  0  0  0
    8.5111  -16.3135   20.8469 C   0  0  2  0  0  0  0  0  0  0  0  0
    7.4668  -17.0032   20.1038 N   0  0  0  0  0  0  0  0  0  0  0  0
    8.8262  -17.0124   22.1133 C   0  0  0  0  0  0  0  0  0  0  0  0
    7.9070  -17.4369   22.8329 O   0  0  0  0  0  0  0  0  0  0  0  0
    6.8473  -14.2110   19.1765 C   0  0  0  0  0  0  0  0  0  0  0  0
    6.7959  -13.4682   18.0055 C   0  0  0  0  0  0  0  0  0  0  0  0
   11.3890  -19.7957   22.3085 C   0  0  0  0  0  0  0  0  0  0  0  0
   11.7682  -18.7832   23.3976 C   0  0  1  0  0  0  0  0  0  0  0  0
   12.8628  -18.0874   22.9409 O   0  0  0  0  0  0  0  0  0  0  0  0
   10.5804  -17.8552   23.6447 C   0  0  2  0  0  0  0  0  0  0  0  0
   10.1998  -17.1628   22.4457 N   0  0  0  0  0  0  0  0  0  0  0  0
   10.9111  -16.9325   24.7560 C   0  0  0  0  0  0  0  0  0  0  0  0
   11.6113  -15.8916   24.5857 O   0  0  0  0  0  0  0  0  0  0  0  0
   10.4522  -17.1784   26.0778 N   0  0  0  0  0  0  0  0  0  0  0  0
   10.8941  -16.3454   27.2013 C   0  0  1  0  0  0  0  0  0  0  0  0
   10.3555  -14.9781   26.9189 C   0  0  0  0  0  0  0  0  0  0  0  0
    8.8813  -14.9190   26.8658 C   0  0  0  0  0  0  0  0  0  0  0  0
    8.0100  -16.0037   26.6926 C   0  0  0  0  0  0  0  0  0  0  0  0
    6.7560  -15.5475   26.6556 N   0  0  0  0  0  0  0  0  0  0  0  0
    6.7105  -14.2044   26.7960 C   0  0  0  0  0  0  0  0  0  0  0  0
    5.6734  -13.2992   26.8355 C   0  0  0  0  0  0  0  0  0  0  0  0
    5.9332  -11.9664   27.0127 C   0  0  0  0  0  0  0  0  0  0  0  0
    7.2656  -11.5660   27.1478 C   0  0  0  0  0  0  0  0  0  0  0  0
    8.2904  -12.4753   27.1051 C   0  0  0  0  0  0  0  0  0  0  0  0
    8.0562  -13.8213   26.9277 C   0  0  0  0  0  0  0  0  0  0  0  0
   10.4775  -16.8738   28.4825 C   0  0  0  0  0  0  0  0  0  0  0  0
   10.7346  -16.1969   29.5398 O   0  0  0  0  0  0  0  0  0  0  0  0
    9.8085  -18.0599   28.7021 O   0  0  0  0  0  0  0  0  0  0  0  0
  2  1  1  0
  3  2  2  0
  4  3  1  0
  5  4  2  0
  5 11  1  0
  6  5  1  0
  7  9  1  0
  7  6  1  0
  7  8  1  1
  9 17  1  0
 10  9  2  0
 11 12  2  0
 12  2  1  0
 14 13  1  6
 14 16  1  0
 15 14  1  0
 16 18  1  0
 16 17  1  6
 18 19  2  0
 18 20  1  0
 20 21  1  0
 21 32  1  0
 21 22  1  6
 23 22  1  0
 23 31  1  0
 24 23  2  0
 25 24  1  0
 25 26  1  0
 26 27  1  0
 26 31  2  0
 27 28  2  0
 28 29  1  0
 30 29  2  0
 31 30  1  0
 32 34  1  0
 33 32  2  0
M  END
$$$$
