SWG.pdb
     RDKit          3D

 25 26  0  0  1  0  0  0  0  0999 V2000
   26.3060  -20.5190  -17.0285 O   0  0  0  0  0  0  0  0  0  0  0  0
   27.4980  -20.1338  -16.4558 C   0  0  0  0  0  0  0  0  0  0  0  0
   28.1091  -21.3022  -15.6748 C   0  0  2  0  0  0  0  0  0  0  0  0
   28.3424  -22.3542  -16.6177 N   0  0  0  0  0  0  0  0  0  0  0  0
   27.1600  -21.7201  -14.5844 C   0  0  0  0  0  0  0  0  0  0  0  0
   26.8602  -22.9013  -14.4689 O   0  0  0  0  0  0  0  0  0  0  0  0
   26.6334  -20.7326  -13.7106 N   0  0  0  0  0  0  0  0  0  0  0  0
   25.7043  -20.8800  -12.6648 C   0  0  1  0  0  0  0  0  0  0  0  0
   25.9760  -20.1267  -11.3753 C   0  0  0  0  0  0  0  0  0  0  0  0
   27.2018  -20.6321  -10.6755 C   0  0  0  0  0  0  0  0  0  0  0  0
   28.2927  -21.3013  -11.1561 C   0  0  0  0  0  0  0  0  0  0  0  0
   29.0940  -21.5603  -10.1130 N   0  0  0  0  0  0  0  0  0  0  0  0
   28.5479  -21.0795   -8.9972 C   0  0  0  0  0  0  0  0  0  0  0  0
   28.9964  -21.1076   -7.6752 C   0  0  0  0  0  0  0  0  0  0  0  0
   28.2443  -20.5413   -6.6770 C   0  0  0  0  0  0  0  0  0  0  0  0
   27.0510  -19.9496   -6.9961 C   0  0  0  0  0  0  0  0  0  0  0  0
   26.5822  -19.9084   -8.3036 C   0  0  0  0  0  0  0  0  0  0  0  0
   27.3435  -20.4792   -9.2987 C   0  0  0  0  0  0  0  0  0  0  0  0
   24.2848  -20.9418  -12.9645 C   0  0  0  0  0  0  0  0  0  0  0  0
   23.8015  -19.9770  -13.6724 O   0  0  0  0  0  0  0  0  0  0  0  0
   23.3638  -21.9434  -12.5689 N   0  0  0  0  0  0  0  0  0  0  0  0
   22.0507  -21.9434  -13.2037 C   0  0  0  0  0  0  0  0  0  0  0  0
   21.1120  -21.2434  -12.2946 C   0  0  0  0  0  0  0  0  0  0  0  0
   20.0302  -21.7650  -11.8707 O   0  0  0  0  0  0  0  0  0  0  0  0
   21.4118  -19.9602  -11.8789 O   0  0  0  0  0  0  0  0  0  0  0  0
  2  1  1  0
  2  3  1  0
  3  4  1  6
  5  7  1  0
  5  3  1  0
  6  5  2  0
  8  7  1  0
  8  9  1  1
  9 10  1  0
 10 11  2  0
 10 18  1  0
 11 12  1  0
 12 13  1  0
 13 14  2  0
 15 14  1  0
 16 15  2  0
 17 18  2  0
 17 16  1  0
 18 13  1  0
 19  8  1  0
 20 19  2  0
 21 19  1  0
 22 23  1  0
 22 21  1  0
 23 25  1  0
 24 23  2  0
M  END
$$$$
