SWG.pdb
     RDKit          3D

 25 26  0  0  1  0  0  0  0  0999 V2000
   26.8656  -18.6196  -15.5423 O   0  0  0  0  0  0  0  0  0  0  0  0
   27.8811  -18.5849  -14.6122 C   0  0  0  0  0  0  0  0  0  0  0  0
   28.2934  -20.0103  -14.2291 C   0  0  2  0  0  0  0  0  0  0  0  0
   28.6993  -20.6633  -15.4369 N   0  0  0  0  0  0  0  0  0  0  0  0
   27.1294  -20.7042  -13.5746 C   0  0  0  0  0  0  0  0  0  0  0  0
   26.5718  -21.6235  -14.1595 O   0  0  0  0  0  0  0  0  0  0  0  0
   26.7040  -20.2768  -12.2891 N   0  0  0  0  0  0  0  0  0  0  0  0
   25.6326  -20.7477  -11.5089 C   0  0  1  0  0  0  0  0  0  0  0  0
   25.7144  -20.5384  -10.0077 C   0  0  0  0  0  0  0  0  0  0  0  0
   27.0998  -20.7667   -9.4820 C   0  0  0  0  0  0  0  0  0  0  0  0
   28.1362  -21.5022   -9.9855 C   0  0  0  0  0  0  0  0  0  0  0  0
   29.1507  -21.4120   -9.1139 N   0  0  0  0  0  0  0  0  0  0  0  0
   28.7905  -20.6483   -8.0834 C   0  0  0  0  0  0  0  0  0  0  0  0
   29.4929  -20.2702   -6.9375 C   0  0  0  0  0  0  0  0  0  0  0  0
   28.8999  -19.4678   -5.9955 C   0  0  0  0  0  0  0  0  0  0  0  0
   27.6129  -19.0444   -6.1961 C   0  0  0  0  0  0  0  0  0  0  0  0
   26.8923  -19.4066   -7.3278 C   0  0  0  0  0  0  0  0  0  0  0  0
   27.4954  -20.2121   -8.2676 C   0  0  0  0  0  0  0  0  0  0  0  0
   24.2717  -20.6167  -11.9984 C   0  0  0  0  0  0  0  0  0  0  0  0
   23.8657  -19.4206  -12.2628 O   0  0  0  0  0  0  0  0  0  0  0  0
   23.3330  -21.6545  -12.2213 N   0  0  0  0  0  0  0  0  0  0  0  0
   22.1195  -21.3218  -12.9588 C   0  0  0  0  0  0  0  0  0  0  0  0
   21.0410  -21.0898  -11.9685 C   0  0  0  0  0  0  0  0  0  0  0  0
   21.2583  -20.6844  -10.7809 O   0  0  0  0  0  0  0  0  0  0  0  0
   19.7297  -21.3216  -12.3377 O   0  0  0  0  0  0  0  0  0  0  0  0
  2  1  1  0
  2  3  1  0
  3  4  1  6
  5  7  1  0
  5  3  1  0
  6  5  2  0
  8  7  1  0
  8  9  1  1
  9 10  1  0
 10 11  2  0
 10 18  1  0
 11 12  1  0
 12 13  1  0
 13 14  2  0
 15 14  1  0
 16 15  2  0
 17 18  2  0
 17 16  1  0
 18 13  1  0
 19  8  1  0
 20 19  2  0
 21 19  1  0
 22 23  1  0
 22 21  1  0
 23 25  1  0
 24 23  2  0
M  END
$$$$
