SWG.pdb
     RDKit          3D

 25 26  0  0  1  0  0  0  0  0999 V2000
   26.4877  -19.0179  -14.9449 O   0  0  0  0  0  0  0  0  0  0  0  0
   27.7145  -19.1844  -14.3410 C   0  0  0  0  0  0  0  0  0  0  0  0
   27.9896  -20.6740  -14.1089 C   0  0  2  0  0  0  0  0  0  0  0  0
   27.5958  -21.3593  -15.3027 N   0  0  0  0  0  0  0  0  0  0  0  0
   27.2134  -21.1401  -12.9069 C   0  0  0  0  0  0  0  0  0  0  0  0
   26.1609  -21.7439  -13.0685 O   0  0  0  0  0  0  0  0  0  0  0  0
   27.7213  -20.8697  -11.6089 N   0  0  0  0  0  0  0  0  0  0  0  0
   27.0476  -20.8811  -10.3741 C   0  0  1  0  0  0  0  0  0  0  0  0
   27.8308  -20.4565   -9.1451 C   0  0  0  0  0  0  0  0  0  0  0  0
   26.9988  -20.5149   -7.8993 C   0  0  0  0  0  0  0  0  0  0  0  0
   25.6818  -20.8336   -7.7189 C   0  0  0  0  0  0  0  0  0  0  0  0
   25.4131  -20.6974   -6.4127 N   0  0  0  0  0  0  0  0  0  0  0  0
   26.5105  -20.3057   -5.7670 C   0  0  0  0  0  0  0  0  0  0  0  0
   26.7253  -20.0293   -4.4154 C   0  0  0  0  0  0  0  0  0  0  0  0
   27.9629  -19.6283   -3.9791 C   0  0  0  0  0  0  0  0  0  0  0  0
   28.9811  -19.5039   -4.8867 C   0  0  0  0  0  0  0  0  0  0  0  0
   28.7933  -19.7728   -6.2371 C   0  0  0  0  0  0  0  0  0  0  0  0
   27.5481  -20.1747   -6.6658 C   0  0  0  0  0  0  0  0  0  0  0  0
   25.6616  -20.4535  -10.3048 C   0  0  0  0  0  0  0  0  0  0  0  0
   25.4358  -19.1955  -10.4828 O   0  0  0  0  0  0  0  0  0  0  0  0
   24.5223  -21.2609  -10.0638 N   0  0  0  0  0  0  0  0  0  0  0  0
   23.2192  -20.6059  -10.0539 C   0  0  0  0  0  0  0  0  0  0  0  0
   22.6330  -20.7506  -11.4078 C   0  0  0  0  0  0  0  0  0  0  0  0
   23.0591  -21.5879  -12.2678 O   0  0  0  0  0  0  0  0  0  0  0  0
   21.5716  -19.9431  -11.7693 O   0  0  0  0  0  0  0  0  0  0  0  0
  2  1  1  0
  2  3  1  0
  3  4  1  6
  5  7  1  0
  5  3  1  0
  6  5  2  0
  8  7  1  0
  8  9  1  1
  9 10  1  0
 10 11  2  0
 10 18  1  0
 11 12  1  0
 12 13  1  0
 13 14  2  0
 15 14  1  0
 16 15  2  0
 17 18  2  0
 17 16  1  0
 18 13  1  0
 19  8  1  0
 20 19  2  0
 21 19  1  0
 22 23  1  0
 22 21  1  0
 23 25  1  0
 24 23  2  0
M  END
$$$$
