SWG.pdb
     RDKit          3D

 25 26  0  0  1  0  0  0  0  0999 V2000
   25.5919  -21.3464  -16.5973 O   0  0  0  0  0  0  0  0  0  0  0  0
   25.0806  -21.4482  -15.3224 C   0  0  0  0  0  0  0  0  0  0  0  0
   26.0691  -22.1896  -14.4159 C   0  0  2  0  0  0  0  0  0  0  0  0
   26.2685  -23.4851  -14.9920 N   0  0  0  0  0  0  0  0  0  0  0  0
   25.5014  -22.2705  -13.0246 C   0  0  0  0  0  0  0  0  0  0  0  0
   25.0414  -23.3318  -12.6242 O   0  0  0  0  0  0  0  0  0  0  0  0
   25.5135  -21.1113  -12.2048 N   0  0  0  0  0  0  0  0  0  0  0  0
   24.8373  -20.8757  -10.9941 C   0  0  1  0  0  0  0  0  0  0  0  0
   25.5136  -19.9727   -9.9786 C   0  0  0  0  0  0  0  0  0  0  0  0
   26.9152  -20.4125   -9.6791 C   0  0  0  0  0  0  0  0  0  0  0  0
   27.7847  -21.1794  -10.4034 C   0  0  0  0  0  0  0  0  0  0  0  0
   28.9023  -21.3123   -9.6751 N   0  0  0  0  0  0  0  0  0  0  0  0
   28.7673  -20.6584   -8.5224 C   0  0  0  0  0  0  0  0  0  0  0  0
   29.6463  -20.5112   -7.4476 C   0  0  0  0  0  0  0  0  0  0  0  0
   29.2758  -19.7829   -6.3452 C   0  0  0  0  0  0  0  0  0  0  0  0
   28.0348  -19.2042   -6.3156 C   0  0  0  0  0  0  0  0  0  0  0  0
   27.1415  -19.3356   -7.3720 C   0  0  0  0  0  0  0  0  0  0  0  0
   27.5219  -20.0683   -8.4740 C   0  0  0  0  0  0  0  0  0  0  0  0
   23.3956  -20.7016  -10.9952 C   0  0  0  0  0  0  0  0  0  0  0  0
   22.8414  -20.4673   -9.8535 O   0  0  0  0  0  0  0  0  0  0  0  0
   22.5221  -20.7588  -12.1094 N   0  0  0  0  0  0  0  0  0  0  0  0
   21.1046  -20.5118  -11.8707 C   0  0  0  0  0  0  0  0  0  0  0  0
   20.4090  -20.5868  -13.1777 C   0  0  0  0  0  0  0  0  0  0  0  0
   21.0114  -20.8061  -14.2782 O   0  0  0  0  0  0  0  0  0  0  0  0
   19.0390  -20.4112  -13.2198 O   0  0  0  0  0  0  0  0  0  0  0  0
  2  1  1  0
  2  3  1  0
  3  4  1  6
  5  7  1  0
  5  3  1  0
  6  5  2  0
  8  7  1  0
  8  9  1  6
  9 10  1  0
 10 11  2  0
 10 18  1  0
 11 12  1  0
 12 13  1  0
 13 14  2  0
 15 14  1  0
 16 15  2  0
 17 18  2  0
 17 16  1  0
 18 13  1  0
 19  8  1  0
 20 19  2  0
 21 19  1  0
 22 23  1  0
 22 21  1  0
 23 25  1  0
 24 23  2  0
M  END
$$$$
