SWG.pdb
     RDKit          3D

 25 26  0  0  1  0  0  0  0  0999 V2000
   35.1311  -25.7490  -21.3169 O   0  0  0  0  0  0  0  0  0  0  0  0
   34.9872  -27.0480  -20.8817 C   0  0  0  0  0  0  0  0  0  0  0  0
   33.7746  -27.1606  -19.9513 C   0  0  2  0  0  0  0  0  0  0  0  0
   33.6690  -25.9138  -19.2552 N   0  0  0  0  0  0  0  0  0  0  0  0
   33.9768  -28.3180  -19.0111 C   0  0  0  0  0  0  0  0  0  0  0  0
   34.5055  -28.1240  -17.9243 O   0  0  0  0  0  0  0  0  0  0  0  0
   33.5473  -29.6124  -19.4062 N   0  0  0  0  0  0  0  0  0  0  0  0
   33.6928  -30.8381  -18.7315 C   0  0  1  0  0  0  0  0  0  0  0  0
   32.5533  -31.8352  -18.8372 C   0  0  0  0  0  0  0  0  0  0  0  0
   31.2558  -31.2609  -18.3531 C   0  0  0  0  0  0  0  0  0  0  0  0
   30.4410  -30.3091  -18.8999 C   0  0  0  0  0  0  0  0  0  0  0  0
   29.4183  -30.1243  -18.0531 N   0  0  0  0  0  0  0  0  0  0  0  0
   29.5602  -30.9233  -16.9966 C   0  0  0  0  0  0  0  0  0  0  0  0
   28.7643  -31.0859  -15.8611 C   0  0  0  0  0  0  0  0  0  0  0  0
   29.1242  -31.9818  -14.8861 C   0  0  0  0  0  0  0  0  0  0  0  0
   30.2722  -32.7120  -15.0435 C   0  0  0  0  0  0  0  0  0  0  0  0
   31.0816  -32.5689  -16.1639 C   0  0  0  0  0  0  0  0  0  0  0  0
   30.7126  -31.6675  -17.1371 C   0  0  0  0  0  0  0  0  0  0  0  0
   34.9862  -31.4979  -18.7054 C   0  0  0  0  0  0  0  0  0  0  0  0
   35.1009  -32.5127  -17.9165 O   0  0  0  0  0  0  0  0  0  0  0  0
   36.1426  -31.1559  -19.4494 N   0  0  0  0  0  0  0  0  0  0  0  0
   37.3575  -31.9240  -19.2020 C   0  0  0  0  0  0  0  0  0  0  0  0
   37.2156  -33.2258  -19.8968 C   0  0  0  0  0  0  0  0  0  0  0  0
   36.1406  -33.5988  -20.4691 O   0  0  0  0  0  0  0  0  0  0  0  0
   38.2944  -34.0885  -19.9328 O   0  0  0  0  0  0  0  0  0  0  0  0
  2  1  1  0
  2  3  1  0
  3  4  1  1
  5  7  1  0
  5  3  1  0
  6  5  2  0
  8  7  1  0
  8  9  1  6
  9 10  1  0
 10 11  2  0
 10 18  1  0
 11 12  1  0
 12 13  1  0
 13 14  2  0
 15 14  1  0
 16 15  2  0
 17 18  2  0
 17 16  1  0
 18 13  1  0
 19  8  1  0
 20 19  2  0
 21 19  1  0
 22 23  1  0
 22 21  1  0
 23 25  1  0
 24 23  2  0
M  END
$$$$
