SWG.pdb
     RDKit          3D

 25 26  0  0  1  0  0  0  0  0999 V2000
   26.1194  -23.2869  -18.9109 O   0  0  0  0  0  0  0  0  0  0  0  0
   26.5169  -22.1043  -18.3271 C   0  0  0  0  0  0  0  0  0  0  0  0
   27.5114  -22.3839  -17.1951 C   0  0  2  0  0  0  0  0  0  0  0  0
   28.1222  -23.6466  -17.4823 N   0  0  0  0  0  0  0  0  0  0  0  0
   26.7771  -22.3965  -15.8817 C   0  0  0  0  0  0  0  0  0  0  0  0
   26.6317  -23.4552  -15.2847 O   0  0  0  0  0  0  0  0  0  0  0  0
   26.2691  -21.1766  -15.3622 N   0  0  0  0  0  0  0  0  0  0  0  0
   25.5243  -20.9552  -14.1897 C   0  0  1  0  0  0  0  0  0  0  0  0
   25.9831  -19.8390  -13.2689 C   0  0  0  0  0  0  0  0  0  0  0  0
   26.9640  -20.3226  -12.2433 C   0  0  0  0  0  0  0  0  0  0  0  0
   28.2773  -20.6823  -12.3632 C   0  0  0  0  0  0  0  0  0  0  0  0
   28.6951  -21.0790  -11.1528 N   0  0  0  0  0  0  0  0  0  0  0  0
   27.6947  -20.9818  -10.2785 C   0  0  0  0  0  0  0  0  0  0  0  0
   27.6408  -21.2797   -8.9155 C   0  0  0  0  0  0  0  0  0  0  0  0
   26.4754  -21.1008   -8.2135 C   0  0  0  0  0  0  0  0  0  0  0  0
   25.3696  -20.6269   -8.8680 C   0  0  0  0  0  0  0  0  0  0  0  0
   25.3970  -20.3231  -10.2238 C   0  0  0  0  0  0  0  0  0  0  0  0
   26.5707  -20.5057  -10.9201 C   0  0  0  0  0  0  0  0  0  0  0  0
   24.0768  -21.0663  -14.2230 C   0  0  0  0  0  0  0  0  0  0  0  0
   23.4743  -20.4723  -15.1974 O   0  0  0  0  0  0  0  0  0  0  0  0
   23.2446  -21.7549  -13.3059 N   0  0  0  0  0  0  0  0  0  0  0  0
   21.8166  -21.8088  -13.5974 C   0  0  0  0  0  0  0  0  0  0  0  0
   21.1538  -20.7533  -12.7945 C   0  0  0  0  0  0  0  0  0  0  0  0
   20.9812  -20.8380  -11.5355 O   0  0  0  0  0  0  0  0  0  0  0  0
   20.6944  -19.6157  -13.4303 O   0  0  0  0  0  0  0  0  0  0  0  0
  2  1  1  0
  2  3  1  0
  3  4  1  6
  5  7  1  0
  5  3  1  0
  6  5  2  0
  8  7  1  0
  8  9  1  6
  9 10  1  0
 10 11  2  0
 10 18  1  0
 11 12  1  0
 12 13  1  0
 13 14  2  0
 15 14  1  0
 16 15  2  0
 17 18  2  0
 17 16  1  0
 18 13  1  0
 19  8  1  0
 20 19  2  0
 21 19  1  0
 22 23  1  0
 22 21  1  0
 23 25  1  0
 24 23  2  0
M  END
$$$$
