YPW.pdb
     RDKit          3D

 34 37  0  0  1  0  0  0  0  0999 V2000
   30.8629  -26.9611  -20.1486 O   0  0  0  0  0  0  0  0  0  0  0  0
   30.2514  -26.1236  -19.2583 C   0  0  0  0  0  0  0  0  0  0  0  0
   30.7400  -25.9476  -17.9849 C   0  0  0  0  0  0  0  0  0  0  0  0
   30.0980  -25.0917  -17.1066 C   0  0  0  0  0  0  0  0  0  0  0  0
   28.9667  -24.3940  -17.4657 C   0  0  0  0  0  0  0  0  0  0  0  0
   28.2956  -23.4854  -16.5159 C   0  0  0  0  0  0  0  0  0  0  0  0
   28.3012  -22.0659  -17.1037 C   0  0  2  0  0  0  0  0  0  0  0  0
   29.6825  -21.5914  -17.1498 N   0  0  0  0  0  0  0  0  0  0  0  0
   27.4817  -21.1340  -16.2824 C   0  0  0  0  0  0  0  0  0  0  0  0
   28.0759  -20.4083  -15.4452 O   0  0  0  0  0  0  0  0  0  0  0  0
   28.4903  -24.5772  -18.7342 C   0  0  0  0  0  0  0  0  0  0  0  0
   29.0968  -25.4197  -19.6423 C   0  0  0  0  0  0  0  0  0  0  0  0
   26.0954  -21.0478  -16.4203 N   0  0  0  0  0  0  0  0  0  0  0  0
   25.2591  -21.7060  -17.3942 C   0  0  0  0  0  0  0  0  0  0  0  0
   24.1451  -20.7092  -17.6620 C   0  0  0  0  0  0  0  0  0  0  0  0
   24.2236  -19.6900  -16.5591 C   0  0  0  0  0  0  0  0  0  0  0  0
   25.1942  -20.2700  -15.5949 C   0  0  1  0  0  0  0  0  0  0  0  0
   24.5757  -21.0741  -14.5345 C   0  0  0  0  0  0  0  0  0  0  0  0
   24.1483  -22.2209  -14.8392 O   0  0  0  0  0  0  0  0  0  0  0  0
   24.4123  -20.6787  -13.1917 N   0  0  0  0  0  0  0  0  0  0  0  0
   24.0353  -21.6469  -12.1585 C   0  0  1  0  0  0  0  0  0  0  0  0
   25.2045  -21.9597  -11.2980 C   0  0  0  0  0  0  0  0  0  0  0  0
   25.5220  -20.8902  -10.3504 C   0  0  0  0  0  0  0  0  0  0  0  0
   24.6784  -19.8061  -10.1402 C   0  0  0  0  0  0  0  0  0  0  0  0
   25.2312  -18.9704   -9.2540 N   0  0  0  0  0  0  0  0  0  0  0  0
   26.4324  -19.5067   -8.8820 C   0  0  0  0  0  0  0  0  0  0  0  0
   27.3707  -19.0342   -7.9681 C   0  0  0  0  0  0  0  0  0  0  0  0
   28.4816  -19.7955   -7.7679 C   0  0  0  0  0  0  0  0  0  0  0  0
   28.6792  -21.0008   -8.4444 C   0  0  0  0  0  0  0  0  0  0  0  0
   27.7518  -21.4548   -9.3394 C   0  0  0  0  0  0  0  0  0  0  0  0
   26.6191  -20.6890   -9.5541 C   0  0  0  0  0  0  0  0  0  0  0  0
   22.8634  -21.1919  -11.4073 C   0  0  0  0  0  0  0  0  0  0  0  0
   22.3679  -19.8990  -11.4271 O   0  0  0  0  0  0  0  0  0  0  0  0
   22.2048  -21.9922  -10.6533 O   0  0  0  0  0  0  0  0  0  0  0  0
  2  1  1  0
  3  2  2  0
  4  3  1  0
  5 11  1  0
  5  4  2  0
  6  5  1  0
  7  9  1  0
  7  6  1  0
  7  8  1  1
  9 13  1  0
 10  9  2  0
 11 12  2  0
 12  2  1  0
 13 17  1  0
 13 14  1  0
 14 15  1  0
 16 15  1  0
 17 16  1  0
 17 18  1  1
 18 19  2  0
 18 20  1  0
 20 21  1  0
 21 32  1  0
 21 22  1  1
 23 22  1  0
 23 31  1  0
 24 25  1  0
 24 23  2  0
 25 26  1  0
 26 27  2  0
 26 31  1  0
 27 28  1  0
 28 29  2  0
 30 29  1  0
 31 30  2  0
 32 34  2  0
 32 33  1  0
M  END
$$$$
