YPW.pdb
     RDKit          3D

 34 37  0  0  1  0  0  0  0  0999 V2000
   19.2958  -16.1871  -17.5619 O   0  0  0  0  0  0  0  0  0  0  0  0
   20.1587  -16.9287  -16.8048 C   0  0  0  0  0  0  0  0  0  0  0  0
   21.3558  -16.4129  -16.3663 C   0  0  0  0  0  0  0  0  0  0  0  0
   22.2081  -17.1895  -15.6004 C   0  0  0  0  0  0  0  0  0  0  0  0
   21.8974  -18.4847  -15.2518 C   0  0  0  0  0  0  0  0  0  0  0  0
   22.8183  -19.2979  -14.4343 C   0  0  0  0  0  0  0  0  0  0  0  0
   23.8959  -19.8952  -15.3522 C   0  0  2  0  0  0  0  0  0  0  0  0
   23.2454  -20.7950  -16.3022 N   0  0  0  0  0  0  0  0  0  0  0  0
   24.9176  -20.6469  -14.5739 C   0  0  0  0  0  0  0  0  0  0  0  0
   24.7564  -21.8857  -14.4320 O   0  0  0  0  0  0  0  0  0  0  0  0
   20.7047  -18.9867  -15.6937 C   0  0  0  0  0  0  0  0  0  0  0  0
   19.8251  -18.2498  -16.4590 C   0  0  0  0  0  0  0  0  0  0  0  0
   26.0303  -20.0196  -14.0112 N   0  0  0  0  0  0  0  0  0  0  0  0
   26.4246  -18.6374  -14.1338 C   0  0  0  0  0  0  0  0  0  0  0  0
   27.9425  -18.6813  -14.1237 C   0  0  0  0  0  0  0  0  0  0  0  0
   28.3166  -20.0550  -13.6393 C   0  0  0  0  0  0  0  0  0  0  0  0
   27.0332  -20.6376  -13.1684 C   0  0  1  0  0  0  0  0  0  0  0  0
   26.7686  -20.4256  -11.7406 C   0  0  0  0  0  0  0  0  0  0  0  0
   26.6031  -19.2403  -11.3425 O   0  0  0  0  0  0  0  0  0  0  0  0
   26.6822  -21.4354  -10.7613 N   0  0  0  0  0  0  0  0  0  0  0  0
   26.2399  -21.1312   -9.3979 C   0  0  1  0  0  0  0  0  0  0  0  0
   27.2412  -20.2744   -8.7132 C   0  0  0  0  0  0  0  0  0  0  0  0
   27.2141  -20.4125   -7.2563 C   0  0  0  0  0  0  0  0  0  0  0  0
   26.3260  -21.2595   -6.6044 C   0  0  0  0  0  0  0  0  0  0  0  0
   26.4973  -21.1600   -5.2815 N   0  0  0  0  0  0  0  0  0  0  0  0
   27.4971  -20.2527   -5.0669 C   0  0  0  0  0  0  0  0  0  0  0  0
   28.0624  -19.8212   -3.8697 C   0  0  0  0  0  0  0  0  0  0  0  0
   29.0781  -18.9182   -3.9518 C   0  0  0  0  0  0  0  0  0  0  0  0
   29.5406  -18.4407   -5.1796 C   0  0  0  0  0  0  0  0  0  0  0  0
   28.9781  -18.8707   -6.3483 C   0  0  0  0  0  0  0  0  0  0  0  0
   27.9429  -19.7868   -6.2787 C   0  0  0  0  0  0  0  0  0  0  0  0
   24.8884  -20.5673   -9.3919 C   0  0  0  0  0  0  0  0  0  0  0  0
   24.5677  -19.2851   -9.8053 O   0  0  0  0  0  0  0  0  0  0  0  0
   23.8844  -21.2506   -8.9825 O   0  0  0  0  0  0  0  0  0  0  0  0
  2  1  1  0
  3  2  2  0
  4  3  1  0
  5 11  1  0
  5  4  2  0
  6  5  1  0
  7  9  1  0
  7  6  1  0
  7  8  1  6
  9 13  1  0
 10  9  2  0
 11 12  2  0
 12  2  1  0
 13 17  1  0
 13 14  1  0
 14 15  1  0
 16 15  1  0
 17 16  1  0
 17 18  1  1
 18 19  2  0
 18 20  1  0
 20 21  1  0
 21 32  1  0
 21 22  1  6
 23 22  1  0
 23 31  1  0
 24 25  1  0
 24 23  2  0
 25 26  1  0
 26 27  2  0
 26 31  1  0
 27 28  1  0
 28 29  2  0
 30 29  1  0
 31 30  2  0
 32 34  2  0
 32 33  1  0
M  END
$$$$
