YPW.pdb
     RDKit          3D

 34 37  0  0  1  0  0  0  0  0999 V2000
   23.6788  -15.3221  -20.4143 O   0  0  0  0  0  0  0  0  0  0  0  0
   23.8376  -16.1846  -19.3662 C   0  0  0  0  0  0  0  0  0  0  0  0
   22.8979  -17.1465  -19.0779 C   0  0  0  0  0  0  0  0  0  0  0  0
   23.0882  -18.0056  -18.0094 C   0  0  0  0  0  0  0  0  0  0  0  0
   24.2053  -17.9346  -17.2079 C   0  0  0  0  0  0  0  0  0  0  0  0
   24.3915  -18.8593  -16.0729 C   0  0  0  0  0  0  0  0  0  0  0  0
   25.3608  -19.9729  -16.4981 C   0  0  2  0  0  0  0  0  0  0  0  0
   24.6675  -20.8552  -17.4341 N   0  0  0  0  0  0  0  0  0  0  0  0
   25.8315  -20.7609  -15.3266 C   0  0  0  0  0  0  0  0  0  0  0  0
   25.3110  -21.8878  -15.1270 O   0  0  0  0  0  0  0  0  0  0  0  0
   25.1326  -16.9743  -17.5040 C   0  0  0  0  0  0  0  0  0  0  0  0
   24.9845  -16.0970  -18.5580 C   0  0  0  0  0  0  0  0  0  0  0  0
   26.8203  -20.2866  -14.4631 N   0  0  0  0  0  0  0  0  0  0  0  0
   27.4238  -18.9765  -14.4414 C   0  0  0  0  0  0  0  0  0  0  0  0
   28.8568  -19.2343  -14.0102 C   0  0  0  0  0  0  0  0  0  0  0  0
   28.8837  -20.6377  -13.4705 C   0  0  0  0  0  0  0  0  0  0  0  0
   27.4513  -21.0241  -13.3879 C   0  0  1  0  0  0  0  0  0  0  0  0
   26.8321  -20.7501  -12.0860 C   0  0  0  0  0  0  0  0  0  0  0  0
   26.4393  -19.5736  -11.8572 O   0  0  0  0  0  0  0  0  0  0  0  0
   26.6342  -21.6905  -11.0551 N   0  0  0  0  0  0  0  0  0  0  0  0
   26.5476  -21.2702   -9.6540 C   0  0  1  0  0  0  0  0  0  0  0  0
   27.7661  -20.5134   -9.2696 C   0  0  0  0  0  0  0  0  0  0  0  0
   27.6755  -19.9199   -7.9346 C   0  0  0  0  0  0  0  0  0  0  0  0
   26.6483  -19.0577   -7.5705 C   0  0  0  0  0  0  0  0  0  0  0  0
   26.8343  -18.6413   -6.3130 N   0  0  0  0  0  0  0  0  0  0  0  0
   27.9785  -19.2313   -5.8530 C   0  0  0  0  0  0  0  0  0  0  0  0
   28.5834  -19.1399   -4.6021 C   0  0  0  0  0  0  0  0  0  0  0  0
   29.7175  -19.8672   -4.4055 C   0  0  0  0  0  0  0  0  0  0  0  0
   30.2572  -20.6742   -5.4089 C   0  0  0  0  0  0  0  0  0  0  0  0
   29.6553  -20.7561   -6.6329 C   0  0  0  0  0  0  0  0  0  0  0  0
   28.5031  -20.0196   -6.8468 C   0  0  0  0  0  0  0  0  0  0  0  0
   25.3032  -20.5431   -9.3942 C   0  0  0  0  0  0  0  0  0  0  0  0
   24.3052  -20.9710   -8.5348 O   0  0  0  0  0  0  0  0  0  0  0  0
   25.0511  -19.4279   -9.9733 O   0  0  0  0  0  0  0  0  0  0  0  0
  2  1  1  0
  3  2  2  0
  4  3  1  0
  5 11  1  0
  5  4  2  0
  6  5  1  0
  7  9  1  0
  7  6  1  0
  7  8  1  6
  9 13  1  0
 10  9  2  0
 11 12  2  0
 12  2  1  0
 13 17  1  0
 13 14  1  0
 14 15  1  0
 16 15  1  0
 17 16  1  0
 17 18  1  1
 18 19  2  0
 18 20  1  0
 20 21  1  0
 21 32  1  0
 21 22  1  6
 23 22  1  0
 23 31  1  0
 24 25  1  0
 24 23  2  0
 25 26  1  0
 26 27  2  0
 26 31  1  0
 27 28  1  0
 28 29  2  0
 30 29  1  0
 31 30  2  0
 32 34  2  0
 32 33  1  0
M  END
$$$$
