YPW.pdb
     RDKit          3D

 34 37  0  0  1  0  0  0  0  0999 V2000
   21.3997  -19.3521  -14.1451 O   0  0  0  0  0  0  0  0  0  0  0  0
   22.3821  -20.0261  -14.8146 C   0  0  0  0  0  0  0  0  0  0  0  0
   22.7472  -19.6801  -16.0946 C   0  0  0  0  0  0  0  0  0  0  0  0
   23.7467  -20.3823  -16.7459 C   0  0  0  0  0  0  0  0  0  0  0  0
   24.4044  -21.4347  -16.1497 C   0  0  0  0  0  0  0  0  0  0  0  0
   25.4678  -22.1718  -16.8595 C   0  0  0  0  0  0  0  0  0  0  0  0
   26.7872  -21.3989  -16.7105 C   0  0  2  0  0  0  0  0  0  0  0  0
   27.7822  -22.0116  -17.5878 N   0  0  0  0  0  0  0  0  0  0  0  0
   27.2778  -21.4259  -15.3058 C   0  0  0  0  0  0  0  0  0  0  0  0
   27.7982  -22.4898  -14.8838 O   0  0  0  0  0  0  0  0  0  0  0  0
   24.0328  -21.7696  -14.8772 C   0  0  0  0  0  0  0  0  0  0  0  0
   23.0426  -21.0986  -14.1903 C   0  0  0  0  0  0  0  0  0  0  0  0
   27.1769  -20.3172  -14.4639 N   0  0  0  0  0  0  0  0  0  0  0  0
   26.4615  -19.0871  -14.7004 C   0  0  0  0  0  0  0  0  0  0  0  0
   27.3060  -18.0278  -14.0140 C   0  0  0  0  0  0  0  0  0  0  0  0
   28.2659  -18.7707  -13.1262 C   0  0  0  0  0  0  0  0  0  0  0  0
   27.7763  -20.1735  -13.1530 C   0  0  1  0  0  0  0  0  0  0  0  0
   26.8384  -20.5001  -12.0726 C   0  0  0  0  0  0  0  0  0  0  0  0
   25.6140  -20.2671  -12.2659 O   0  0  0  0  0  0  0  0  0  0  0  0
   27.1831  -21.0557  -10.8241 N   0  0  0  0  0  0  0  0  0  0  0  0
   26.1554  -21.3846   -9.8328 C   0  0  1  0  0  0  0  0  0  0  0  0
   26.7857  -21.6956   -8.5246 C   0  0  0  0  0  0  0  0  0  0  0  0
   27.2340  -20.5020   -7.8056 C   0  0  0  0  0  0  0  0  0  0  0  0
   26.7610  -19.2301   -8.1049 C   0  0  0  0  0  0  0  0  0  0  0  0
   27.3638  -18.3293   -7.3211 N   0  0  0  0  0  0  0  0  0  0  0  0
   28.2274  -19.0091   -6.5080 C   0  0  0  0  0  0  0  0  0  0  0  0
   29.0643  -18.5300   -5.5035 C   0  0  0  0  0  0  0  0  0  0  0  0
   29.8062  -19.4465   -4.8229 C   0  0  0  0  0  0  0  0  0  0  0  0
   29.7362  -20.8107   -5.1118 C   0  0  0  0  0  0  0  0  0  0  0  0
   28.9117  -21.2697   -6.1000 C   0  0  0  0  0  0  0  0  0  0  0  0
   28.1539  -20.3481   -6.8014 C   0  0  0  0  0  0  0  0  0  0  0  0
   25.1379  -20.3342   -9.7549 C   0  0  0  0  0  0  0  0  0  0  0  0
   23.8440  -20.5227   -9.2988 O   0  0  0  0  0  0  0  0  0  0  0  0
   25.3919  -19.1334  -10.1239 O   0  0  0  0  0  0  0  0  0  0  0  0
  2  1  1  0
  3  2  2  0
  4  3  1  0
  5 11  1  0
  5  4  2  0
  6  5  1  0
  7  9  1  0
  7  6  1  0
  7  8  1  6
  9 13  1  0
 10  9  2  0
 11 12  2  0
 12  2  1  0
 13 17  1  0
 13 14  1  0
 14 15  1  0
 16 15  1  0
 17 16  1  0
 17 18  1  1
 18 19  2  0
 18 20  1  0
 20 21  1  0
 21 32  1  0
 21 22  1  1
 23 22  1  0
 23 31  1  0
 24 25  1  0
 24 23  2  0
 25 26  1  0
 26 27  2  0
 26 31  1  0
 27 28  1  0
 28 29  2  0
 30 29  1  0
 31 30  2  0
 32 34  2  0
 32 33  1  0
M  END
$$$$
