YPW.pdb
     RDKit          3D

 34 37  0  0  1  0  0  0  0  0999 V2000
   28.3057  -19.8622   -6.5835 O   0  0  0  0  0  0  0  0  0  0  0  0
   27.7184  -19.8507   -7.8174 C   0  0  0  0  0  0  0  0  0  0  0  0
   26.4845  -19.2785   -8.0209 C   0  0  0  0  0  0  0  0  0  0  0  0
   25.9165  -19.2826   -9.2833 C   0  0  0  0  0  0  0  0  0  0  0  0
   26.5522  -19.8473  -10.3661 C   0  0  0  0  0  0  0  0  0  0  0  0
   25.9313  -19.8421  -11.7049 C   0  0  0  0  0  0  0  0  0  0  0  0
   26.3929  -18.5847  -12.4575 C   0  0  2  0  0  0  0  0  0  0  0  0
   25.6917  -17.4302  -11.9004 N   0  0  0  0  0  0  0  0  0  0  0  0
   26.1056  -18.6866  -13.9142 C   0  0  0  0  0  0  0  0  0  0  0  0
   25.0738  -18.1173  -14.3524 O   0  0  0  0  0  0  0  0  0  0  0  0
   27.7783  -20.4131  -10.1515 C   0  0  0  0  0  0  0  0  0  0  0  0
   28.3821  -20.4326   -8.9116 C   0  0  0  0  0  0  0  0  0  0  0  0
   26.9412  -19.3844  -14.7876 N   0  0  0  0  0  0  0  0  0  0  0  0
   28.0984  -20.1810  -14.4601 C   0  0  0  0  0  0  0  0  0  0  0  0
   29.0371  -19.9742  -15.6358 C   0  0  0  0  0  0  0  0  0  0  0  0
   28.2088  -19.3532  -16.7264 C   0  0  0  0  0  0  0  0  0  0  0  0
   26.8126  -19.4581  -16.2286 C   0  0  1  0  0  0  0  0  0  0  0  0
   26.1121  -20.6718  -16.6641 C   0  0  0  0  0  0  0  0  0  0  0  0
   26.7656  -21.7502  -16.6923 O   0  0  0  0  0  0  0  0  0  0  0  0
   24.7613  -20.7449  -17.0592 N   0  0  0  0  0  0  0  0  0  0  0  0
   24.1302  -22.0322  -17.3619 C   0  0  1  0  0  0  0  0  0  0  0  0
   24.2492  -22.9476  -16.1986 C   0  0  0  0  0  0  0  0  0  0  0  0
   23.6820  -22.3903  -14.9696 C   0  0  0  0  0  0  0  0  0  0  0  0
   22.5042  -21.6529  -14.9599 C   0  0  0  0  0  0  0  0  0  0  0  0
   22.2417  -21.2398  -13.7151 N   0  0  0  0  0  0  0  0  0  0  0  0
   23.2429  -21.7077  -12.9104 C   0  0  0  0  0  0  0  0  0  0  0  0
   23.4136  -21.5711  -11.5353 C   0  0  0  0  0  0  0  0  0  0  0  0
   24.5025  -22.1721  -10.9814 C   0  0  0  0  0  0  0  0  0  0  0  0
   25.4136  -22.8977  -11.7513 C   0  0  0  0  0  0  0  0  0  0  0  0
   25.2364  -23.0249  -13.1003 C   0  0  0  0  0  0  0  0  0  0  0  0
   24.1347  -22.4165  -13.6763 C   0  0  0  0  0  0  0  0  0  0  0  0
   22.7522  -21.8521  -17.8237 C   0  0  0  0  0  0  0  0  0  0  0  0
   21.9337  -22.8724  -18.2783 O   0  0  0  0  0  0  0  0  0  0  0  0
   22.2025  -20.6945  -17.8411 O   0  0  0  0  0  0  0  0  0  0  0  0
  2  1  1  0
  3  2  2  0
  4  3  1  0
  5 11  1  0
  5  4  2  0
  6  5  1  0
  7  9  1  0
  7  6  1  0
  7  8  1  1
  9 13  1  0
 10  9  2  0
 11 12  2  0
 12  2  1  0
 13 17  1  0
 13 14  1  0
 14 15  1  0
 16 15  1  0
 17 16  1  0
 17 18  1  1
 18 19  2  0
 18 20  1  0
 20 21  1  0
 21 32  1  0
 21 22  1  1
 23 22  1  0
 23 31  1  0
 24 25  1  0
 24 23  2  0
 25 26  1  0
 26 27  2  0
 26 31  1  0
 27 28  1  0
 28 29  2  0
 30 29  1  0
 31 30  2  0
 32 34  2  0
 32 33  1  0
M  END
$$$$
