YPW.pdb
     RDKit          3D

 34 37  0  0  1  0  0  0  0  0999 V2000
   18.3576  -17.0375  -18.6156 O   0  0  0  0  0  0  0  0  0  0  0  0
   19.0208  -17.6595  -17.5952 C   0  0  0  0  0  0  0  0  0  0  0  0
   20.3157  -18.0988  -17.7418 C   0  0  0  0  0  0  0  0  0  0  0  0
   20.9603  -18.7250  -16.6889 C   0  0  0  0  0  0  0  0  0  0  0  0
   20.3436  -18.9282  -15.4748 C   0  0  0  0  0  0  0  0  0  0  0  0
   21.0466  -19.5975  -14.3632 C   0  0  0  0  0  0  0  0  0  0  0  0
   21.2847  -21.0668  -14.7439 C   0  0  2  0  0  0  0  0  0  0  0  0
   19.9989  -21.7607  -14.7312 N   0  0  0  0  0  0  0  0  0  0  0  0
   22.2182  -21.7305  -13.7937 C   0  0  0  0  0  0  0  0  0  0  0  0
   21.7247  -22.4508  -12.8892 O   0  0  0  0  0  0  0  0  0  0  0  0
   19.0563  -18.4872  -15.3410 C   0  0  0  0  0  0  0  0  0  0  0  0
   18.3750  -17.8589  -16.3626 C   0  0  0  0  0  0  0  0  0  0  0  0
   23.6024  -21.5757  -13.8845 N   0  0  0  0  0  0  0  0  0  0  0  0
   24.3478  -20.8259  -14.8658 C   0  0  0  0  0  0  0  0  0  0  0  0
   25.6292  -21.6206  -15.0465 C   0  0  0  0  0  0  0  0  0  0  0  0
   25.6875  -22.5851  -13.8942 C   0  0  0  0  0  0  0  0  0  0  0  0
   24.5930  -22.1422  -12.9921 C   0  0  1  0  0  0  0  0  0  0  0  0
   25.0185  -21.1927  -11.9573 C   0  0  0  0  0  0  0  0  0  0  0  0
   24.8918  -19.9615  -12.2004 O   0  0  0  0  0  0  0  0  0  0  0  0
   25.5627  -21.5329  -10.7025 N   0  0  0  0  0  0  0  0  0  0  0  0
   25.8591  -20.5038   -9.7024 C   0  0  1  0  0  0  0  0  0  0  0  0
   26.1712  -21.1347   -8.3947 C   0  0  0  0  0  0  0  0  0  0  0  0
   27.5452  -20.8904   -7.9532 C   0  0  0  0  0  0  0  0  0  0  0  0
   28.6448  -21.1431   -8.7644 C   0  0  0  0  0  0  0  0  0  0  0  0
   29.7702  -20.8646   -8.0974 N   0  0  0  0  0  0  0  0  0  0  0  0
   29.4094  -20.4276   -6.8533 C   0  0  0  0  0  0  0  0  0  0  0  0
   30.2081  -19.9929   -5.7988 C   0  0  0  0  0  0  0  0  0  0  0  0
   29.5734  -19.5807   -4.6671 C   0  0  0  0  0  0  0  0  0  0  0  0
   28.1813  -19.5885   -4.5600 C   0  0  0  0  0  0  0  0  0  0  0  0
   27.4072  -20.0176   -5.6011 C   0  0  0  0  0  0  0  0  0  0  0  0
   28.0402  -20.4418   -6.7565 C   0  0  0  0  0  0  0  0  0  0  0  0
   26.9030  -19.5911  -10.1735 C   0  0  0  0  0  0  0  0  0  0  0  0
   27.7597  -19.8518  -11.2298 O   0  0  0  0  0  0  0  0  0  0  0  0
   27.0974  -18.4560   -9.6111 O   0  0  0  0  0  0  0  0  0  0  0  0
  2  1  1  0
  3  2  2  0
  4  3  1  0
  5 11  1  0
  5  4  2  0
  6  5  1  0
  7  9  1  0
  7  6  1  0
  7  8  1  1
  9 13  1  0
 10  9  2  0
 11 12  2  0
 12  2  1  0
 13 17  1  0
 13 14  1  0
 14 15  1  0
 16 15  1  0
 17 16  1  0
 17 18  1  1
 18 19  2  0
 18 20  1  0
 20 21  1  0
 21 32  1  0
 21 22  1  1
 23 22  1  0
 23 31  1  0
 24 25  1  0
 24 23  2  0
 25 26  1  0
 26 27  2  0
 26 31  1  0
 27 28  1  0
 28 29  2  0
 30 29  1  0
 31 30  2  0
 32 34  2  0
 32 33  1  0
M  END
$$$$
