YPW.pdb
     RDKit          3D

 34 37  0  0  1  0  0  0  0  0999 V2000
   27.7022  -15.9960  -20.7292 O   0  0  0  0  0  0  0  0  0  0  0  0
   27.4144  -16.7373  -19.6177 C   0  0  0  0  0  0  0  0  0  0  0  0
   26.2368  -17.4389  -19.5067 C   0  0  0  0  0  0  0  0  0  0  0  0
   25.9749  -18.1810  -18.3678 C   0  0  0  0  0  0  0  0  0  0  0  0
   26.8662  -18.2468  -17.3206 C   0  0  0  0  0  0  0  0  0  0  0  0
   26.5702  -19.0435  -16.1141 C   0  0  0  0  0  0  0  0  0  0  0  0
   27.5098  -20.2586  -16.0828 C   0  0  2  0  0  0  0  0  0  0  0  0
   27.1907  -21.1178  -17.2208 N   0  0  0  0  0  0  0  0  0  0  0  0
   27.3595  -21.0299  -14.8190 C   0  0  0  0  0  0  0  0  0  0  0  0
   26.6229  -22.0487  -14.8345 O   0  0  0  0  0  0  0  0  0  0  0  0
   28.0334  -17.5451  -17.4423 C   0  0  0  0  0  0  0  0  0  0  0  0
   28.3362  -16.7924  -18.5578 C   0  0  0  0  0  0  0  0  0  0  0  0
   28.0074  -20.6558  -13.6407 N   0  0  0  0  0  0  0  0  0  0  0  0
   28.9626  -19.5910  -13.4543 C   0  0  0  0  0  0  0  0  0  0  0  0
   29.9083  -20.1215  -12.3911 C   0  0  0  0  0  0  0  0  0  0  0  0
   29.2247  -21.3150  -11.7831 C   0  0  0  0  0  0  0  0  0  0  0  0
   27.8468  -21.2677  -12.3376 C   0  0  1  0  0  0  0  0  0  0  0  0
   26.8882  -20.5424  -11.4958 C   0  0  0  0  0  0  0  0  0  0  0  0
   26.9434  -19.2823  -11.4929 O   0  0  0  0  0  0  0  0  0  0  0  0
   25.9006  -21.1302  -10.6801 N   0  0  0  0  0  0  0  0  0  0  0  0
   24.9648  -20.3052   -9.9115 C   0  0  1  0  0  0  0  0  0  0  0  0
   24.2328  -19.3825  -10.8160 C   0  0  0  0  0  0  0  0  0  0  0  0
   23.5148  -20.0773  -11.8857 C   0  0  0  0  0  0  0  0  0  0  0  0
   22.9765  -21.3475  -11.7191 C   0  0  0  0  0  0  0  0  0  0  0  0
   22.4117  -21.7509  -12.8626 N   0  0  0  0  0  0  0  0  0  0  0  0
   22.5765  -20.7466  -13.7754 C   0  0  0  0  0  0  0  0  0  0  0  0
   22.1464  -20.6692  -15.0974 C   0  0  0  0  0  0  0  0  0  0  0  0
   22.4273  -19.5230  -15.7764 C   0  0  0  0  0  0  0  0  0  0  0  0
   23.1155  -18.4645  -15.1801 C   0  0  0  0  0  0  0  0  0  0  0  0
   23.5333  -18.5516  -13.8820 C   0  0  0  0  0  0  0  0  0  0  0  0
   23.2563  -19.7126  -13.1813 C   0  0  0  0  0  0  0  0  0  0  0  0
   24.0836  -21.1325   -9.0847 C   0  0  0  0  0  0  0  0  0  0  0  0
   24.0819  -22.5173   -9.0765 O   0  0  0  0  0  0  0  0  0  0  0  0
   23.2245  -20.6044   -8.2938 O   0  0  0  0  0  0  0  0  0  0  0  0
  2  1  1  0
  3  2  2  0
  4  3  1  0
  5 11  1  0
  5  4  2  0
  6  5  1  0
  7  9  1  0
  7  6  1  0
  7  8  1  6
  9 13  1  0
 10  9  2  0
 11 12  2  0
 12  2  1  0
 13 17  1  0
 13 14  1  0
 14 15  1  0
 16 15  1  0
 17 16  1  0
 17 18  1  1
 18 19  2  0
 18 20  1  0
 20 21  1  0
 21 32  1  0
 21 22  1  6
 23 22  1  0
 23 31  1  0
 24 25  1  0
 24 23  2  0
 25 26  1  0
 26 27  2  0
 26 31  1  0
 27 28  1  0
 28 29  2  0
 30 29  1  0
 31 30  2  0
 32 34  2  0
 32 33  1  0
M  END
$$$$
