DHF.pdb
     RDKit          3D

 30 31  0  0  1  0  0  0  0  0999 V2000
   20.2982  -15.0671  -16.6926 N   0  0  0  0  0  0  0  0  0  0  0  0
   19.4710  -13.8852  -16.6086 C   0  0  1  0  0  0  0  0  0  0  0  0
   18.7768  -13.7634  -15.2740 C   0  0  0  0  0  0  0  0  0  0  0  0
   17.7434  -14.7806  -15.0684 C   0  0  0  0  0  0  0  0  0  0  0  0
   16.9325  -15.1610  -15.9511 O   0  0  0  0  0  0  0  0  0  0  0  0
   20.2380  -12.6570  -16.9449 C   0  0  0  0  0  0  0  0  0  0  0  0
   21.3886  -12.5314  -16.4509 O   0  0  0  0  0  0  0  0  0  0  0  0
   17.6447  -15.3708  -13.8169 O   0  0  0  0  0  0  0  0  0  0  0  0
   19.7593  -11.6356  -17.7748 N   0  0  0  0  0  0  0  0  0  0  0  0
   20.5406  -10.4436  -18.0398 C   0  0  1  0  0  0  0  0  0  0  0  0
   19.9899   -9.6935  -19.2523 C   0  0  0  0  0  0  0  0  0  0  0  0
   20.8137   -8.5414  -19.6219 C   0  0  0  0  0  0  0  0  0  0  0  0
   22.0604   -8.2296  -19.1286 C   0  0  0  0  0  0  0  0  0  0  0  0
   22.4831   -7.0864  -19.7241 N   0  0  0  0  0  0  0  0  0  0  0  0
   21.5263   -6.6818  -20.5760 C   0  0  0  0  0  0  0  0  0  0  0  0
   20.5202   -7.5643  -20.5102 N   0  0  0  0  0  0  0  0  0  0  0  0
   20.4975   -9.4942  -16.9047 C   0  0  0  0  0  0  0  0  0  0  0  0
   19.4095   -9.3261  -16.3119 O   0  0  0  0  0  0  0  0  0  0  0  0
   21.6291   -8.7737  -16.4654 N   0  0  0  0  0  0  0  0  0  0  0  0
   21.4776   -7.8039  -15.3714 C   0  0  1  0  0  0  0  0  0  0  0  0
   22.2779   -8.2051  -14.1782 C   0  0  0  0  0  0  0  0  0  0  0  0
   23.4923   -8.9810  -14.5087 C   0  0  0  0  0  0  0  0  0  0  0  0
   24.4671   -8.4435  -15.3300 C   0  0  0  0  0  0  0  0  0  0  0  0
   25.6252   -9.1250  -15.6681 C   0  0  0  0  0  0  0  0  0  0  0  0
   25.8118  -10.3900  -15.1648 C   0  0  0  0  0  0  0  0  0  0  0  0
   24.8545  -10.9459  -14.3449 C   0  0  0  0  0  0  0  0  0  0  0  0
   23.7077  -10.2592  -14.0157 C   0  0  0  0  0  0  0  0  0  0  0  0
   21.7958   -6.4753  -15.9095 C   0  0  0  0  0  0  0  0  0  0  0  0
   22.3287   -6.2640  -17.1733 O   0  0  0  0  0  0  0  0  0  0  0  0
   21.5826   -5.4600  -15.2060 O   0  0  0  0  0  0  0  0  0  0  0  0
  2  1  1  1
  2  3  1  0
  4  3  1  0
  4  5  2  0
  6  2  1  0
  6  7  2  0
  8  4  1  0
  9  6  1  0
 10  9  1  0
 11 12  1  0
 10 11  1  6
 12 16  1  0
 13 12  2  0
 13 14  1  0
 14 15  1  0
 16 15  2  0
 17 10  1  0
 18 17  2  0
 19 17  1  0
 20 19  1  0
 20 28  1  0
 20 21  1  1
 22 21  1  0
 23 22  2  0
 24 23  1  0
 25 26  1  0
 25 24  2  0
 26 27  2  0
 27 22  1  0
 28 29  1  0
 30 28  2  0
M  END
$$$$
