DHF.pdb
     RDKit          3D

 30 31  0  0  1  0  0  0  0  0999 V2000
   26.1769  -18.4777  -15.2280 N   0  0  0  0  0  0  0  0  0  0  0  0
   24.9342  -18.4724  -14.4907 C   0  0  1  0  0  0  0  0  0  0  0  0
   23.7288  -18.4066  -15.3966 C   0  0  0  0  0  0  0  0  0  0  0  0
   22.5553  -17.8153  -14.7503 C   0  0  0  0  0  0  0  0  0  0  0  0
   22.4217  -16.5904  -14.4990 O   0  0  0  0  0  0  0  0  0  0  0  0
   24.8534  -19.6194  -13.5485 C   0  0  0  0  0  0  0  0  0  0  0  0
   23.7094  -20.0259  -13.2173 O   0  0  0  0  0  0  0  0  0  0  0  0
   21.5140  -18.6567  -14.3864 O   0  0  0  0  0  0  0  0  0  0  0  0
   25.9691  -20.2721  -13.0095 N   0  0  0  0  0  0  0  0  0  0  0  0
   25.8292  -21.4342  -12.1542 C   0  0  1  0  0  0  0  0  0  0  0  0
   26.5567  -22.6378  -12.7526 C   0  0  0  0  0  0  0  0  0  0  0  0
   25.8737  -23.1792  -13.9286 C   0  0  0  0  0  0  0  0  0  0  0  0
   24.9860  -24.2309  -13.9526 C   0  0  0  0  0  0  0  0  0  0  0  0
   24.5793  -24.4191  -15.2330 N   0  0  0  0  0  0  0  0  0  0  0  0
   25.1951  -23.5075  -16.0042 C   0  0  0  0  0  0  0  0  0  0  0  0
   25.9757  -22.7612  -15.2111 N   0  0  0  0  0  0  0  0  0  0  0  0
   26.4231  -21.2077  -10.8173 C   0  0  0  0  0  0  0  0  0  0  0  0
   27.6514  -20.9860  -10.7428 O   0  0  0  0  0  0  0  0  0  0  0  0
   25.6636  -21.2314   -9.6277 N   0  0  0  0  0  0  0  0  0  0  0  0
   26.3512  -21.0741   -8.3382 C   0  0  1  0  0  0  0  0  0  0  0  0
   27.1551  -19.8180   -8.3036 C   0  0  0  0  0  0  0  0  0  0  0  0
   27.7539  -19.5300   -6.9828 C   0  0  0  0  0  0  0  0  0  0  0  0
   27.3049  -18.4627   -6.2259 C   0  0  0  0  0  0  0  0  0  0  0  0
   27.8277  -18.1508   -4.9812 C   0  0  0  0  0  0  0  0  0  0  0  0
   28.8363  -18.9369   -4.4783 C   0  0  0  0  0  0  0  0  0  0  0  0
   29.2998  -20.0053   -5.2142 C   0  0  0  0  0  0  0  0  0  0  0  0
   28.7726  -20.3057   -6.4500 C   0  0  0  0  0  0  0  0  0  0  0  0
   25.3401  -21.1890   -7.2797 C   0  0  0  0  0  0  0  0  0  0  0  0
   25.6002  -21.7095   -6.0199 O   0  0  0  0  0  0  0  0  0  0  0  0
   24.1691  -20.8015   -7.5035 O   0  0  0  0  0  0  0  0  0  0  0  0
  2  1  1  6
  2  3  1  0
  4  3  1  0
  4  5  2  0
  6  2  1  0
  6  7  2  0
  8  4  1  0
  9  6  1  0
 10  9  1  0
 11 12  1  0
 10 11  1  6
 12 16  1  0
 13 12  2  0
 13 14  1  0
 14 15  1  0
 16 15  2  0
 17 10  1  0
 18 17  2  0
 19 17  1  0
 20 19  1  0
 20 28  1  0
 20 21  1  6
 22 21  1  0
 23 22  2  0
 24 23  1  0
 25 26  1  0
 25 24  2  0
 26 27  2  0
 27 22  1  0
 28 29  1  0
 30 28  2  0
M  END
$$$$
