DHF.pdb
     RDKit          3D

 30 31  0  0  1  0  0  0  0  0999 V2000
   23.7965  -21.3143  -18.8296 N   0  0  0  0  0  0  0  0  0  0  0  0
   23.4180  -20.4933  -17.7023 C   0  0  1  0  0  0  0  0  0  0  0  0
   22.1181  -20.9387  -17.0778 C   0  0  0  0  0  0  0  0  0  0  0  0
   20.9401  -20.5141  -17.8372 C   0  0  0  0  0  0  0  0  0  0  0  0
   20.6506  -19.3173  -18.0930 O   0  0  0  0  0  0  0  0  0  0  0  0
   24.5107  -20.4072  -16.6982 C   0  0  0  0  0  0  0  0  0  0  0  0
   25.2795  -21.3969  -16.5830 O   0  0  0  0  0  0  0  0  0  0  0  0
   20.0784  -21.4924  -18.3113 O   0  0  0  0  0  0  0  0  0  0  0  0
   24.7353  -19.2959  -15.8762 N   0  0  0  0  0  0  0  0  0  0  0  0
   25.8443  -19.2529  -14.9435 C   0  0  1  0  0  0  0  0  0  0  0  0
   26.6825  -17.9927  -15.1564 C   0  0  0  0  0  0  0  0  0  0  0  0
   27.4558  -18.0356  -16.3985 C   0  0  0  0  0  0  0  0  0  0  0  0
   28.6616  -18.6698  -16.5951 C   0  0  0  0  0  0  0  0  0  0  0  0
   29.0447  -18.4724  -17.8814 N   0  0  0  0  0  0  0  0  0  0  0  0
   28.1033  -17.7296  -18.4873 C   0  0  0  0  0  0  0  0  0  0  0  0
   27.1460  -17.4687  -17.5870 N   0  0  0  0  0  0  0  0  0  0  0  0
   25.3799  -19.2150  -13.5384 C   0  0  0  0  0  0  0  0  0  0  0  0
   24.2801  -18.6740  -13.2906 O   0  0  0  0  0  0  0  0  0  0  0  0
   26.1239  -19.7618  -12.4707 N   0  0  0  0  0  0  0  0  0  0  0  0
   25.4957  -19.8750  -11.1468 C   0  0  1  0  0  0  0  0  0  0  0  0
   24.3001  -20.7660  -11.1899 C   0  0  0  0  0  0  0  0  0  0  0  0
   23.5823  -20.8628   -9.9009 C   0  0  0  0  0  0  0  0  0  0  0  0
   22.3687  -20.2232   -9.7232 C   0  0  0  0  0  0  0  0  0  0  0  0
   21.6529  -20.2842   -8.5385 C   0  0  0  0  0  0  0  0  0  0  0  0
   22.1727  -21.0121   -7.4953 C   0  0  0  0  0  0  0  0  0  0  0  0
   23.3801  -21.6576   -7.6491 C   0  0  0  0  0  0  0  0  0  0  0  0
   24.0825  -21.5899   -8.8311 C   0  0  0  0  0  0  0  0  0  0  0  0
   26.5366  -20.2847  -10.1957 C   0  0  0  0  0  0  0  0  0  0  0  0
   26.5724  -19.8754   -8.8702 O   0  0  0  0  0  0  0  0  0  0  0  0
   27.4548  -21.0467  -10.5799 O   0  0  0  0  0  0  0  0  0  0  0  0
  2  1  1  6
  2  3  1  0
  4  3  1  0
  4  5  2  0
  6  2  1  0
  6  7  2  0
  8  4  1  0
  9  6  1  0
 10  9  1  0
 11 12  1  0
 10 11  1  6
 12 16  1  0
 13 12  2  0
 13 14  1  0
 14 15  1  0
 16 15  2  0
 17 10  1  0
 18 17  2  0
 19 17  1  0
 20 19  1  0
 20 28  1  0
 20 21  1  6
 22 21  1  0
 23 22  2  0
 24 23  1  0
 25 26  1  0
 25 24  2  0
 26 27  2  0
 27 22  1  0
 28 29  1  0
 30 28  2  0
M  END
$$$$
