DHF.pdb
     RDKit          3D

 30 31  0  0  1  0  0  0  0  0999 V2000
   21.0974  -10.5302  -19.9072 N   0  0  0  0  0  0  0  0  0  0  0  0
   20.2736   -9.3496  -19.7828 C   0  0  1  0  0  0  0  0  0  0  0  0
   18.9691   -9.4776  -20.5311 C   0  0  0  0  0  0  0  0  0  0  0  0
   19.1465   -9.5945  -21.9801 C   0  0  0  0  0  0  0  0  0  0  0  0
   20.1566  -10.0966  -22.5361 O   0  0  0  0  0  0  0  0  0  0  0  0
   20.0581   -8.9818  -18.3587 C   0  0  0  0  0  0  0  0  0  0  0  0
   19.3476   -7.9720  -18.1156 O   0  0  0  0  0  0  0  0  0  0  0  0
   18.1359   -9.1213  -22.8043 O   0  0  0  0  0  0  0  0  0  0  0  0
   20.5958   -9.6885  -17.2758 N   0  0  0  0  0  0  0  0  0  0  0  0
   20.3202   -9.3034  -15.9056 C   0  0  1  0  0  0  0  0  0  0  0  0
   20.2782  -10.5311  -14.9961 C   0  0  0  0  0  0  0  0  0  0  0  0
   19.0249  -11.2774  -15.1174 C   0  0  0  0  0  0  0  0  0  0  0  0
   17.9349  -10.9354  -15.8852 C   0  0  0  0  0  0  0  0  0  0  0  0
   16.9808  -11.8858  -15.7221 N   0  0  0  0  0  0  0  0  0  0  0  0
   17.4547  -12.8101  -14.8701 C   0  0  0  0  0  0  0  0  0  0  0  0
   18.6897  -12.4377  -14.5080 N   0  0  0  0  0  0  0  0  0  0  0  0
   21.3720   -8.4148  -15.3620 C   0  0  0  0  0  0  0  0  0  0  0  0
   22.5683   -8.7227  -15.5557 O   0  0  0  0  0  0  0  0  0  0  0  0
   21.0819   -7.2390  -14.6369 N   0  0  0  0  0  0  0  0  0  0  0  0
   22.1880   -6.3638  -14.2234 C   0  0  1  0  0  0  0  0  0  0  0  0
   22.7292   -5.5929  -15.3802 C   0  0  0  0  0  0  0  0  0  0  0  0
   21.7660   -4.6321  -15.9590 C   0  0  0  0  0  0  0  0  0  0  0  0
   21.6464   -3.3568  -15.4367 C   0  0  0  0  0  0  0  0  0  0  0  0
   20.7635   -2.4166  -15.9429 C   0  0  0  0  0  0  0  0  0  0  0  0
   19.9727   -2.7680  -17.0104 C   0  0  0  0  0  0  0  0  0  0  0  0
   20.0743   -4.0327  -17.5472 C   0  0  0  0  0  0  0  0  0  0  0  0
   20.9554   -4.9587  -17.0358 C   0  0  0  0  0  0  0  0  0  0  0  0
   21.7090   -5.5426  -13.1045 C   0  0  0  0  0  0  0  0  0  0  0  0
   22.5170   -4.6710  -12.3881 O   0  0  0  0  0  0  0  0  0  0  0  0
   20.5063   -5.6160  -12.7588 O   0  0  0  0  0  0  0  0  0  0  0  0
  2  1  1  1
  2  3  1  0
  4  3  1  0
  4  5  2  0
  6  2  1  0
  6  7  2  0
  8  4  1  0
  9  6  1  0
 10  9  1  0
 11 12  1  0
 10 11  1  1
 12 16  1  0
 13 12  2  0
 13 14  1  0
 14 15  1  0
 16 15  2  0
 17 10  1  0
 18 17  2  0
 19 17  1  0
 20 19  1  0
 20 28  1  0
 20 21  1  6
 22 21  1  0
 23 22  2  0
 24 23  1  0
 25 26  1  0
 25 24  2  0
 26 27  2  0
 27 22  1  0
 28 29  1  0
 30 28  2  0
M  END
$$$$
