DHF.pdb
     RDKit          3D

 30 31  0  0  1  0  0  0  0  0999 V2000
   27.0836  -18.8849  -21.9055 N   0  0  0  0  0  0  0  0  0  0  0  0
   26.4563  -18.3833  -20.7043 C   0  0  1  0  0  0  0  0  0  0  0  0
   26.8133  -16.9431  -20.4280 C   0  0  0  0  0  0  0  0  0  0  0  0
   28.2395  -16.7455  -20.1600 C   0  0  0  0  0  0  0  0  0  0  0  0
   28.7733  -15.6304  -19.9296 O   0  0  0  0  0  0  0  0  0  0  0  0
   24.9846  -18.5912  -20.7293 C   0  0  0  0  0  0  0  0  0  0  0  0
   24.2679  -17.6533  -21.1657 O   0  0  0  0  0  0  0  0  0  0  0  0
   29.0664  -17.8593  -20.1581 O   0  0  0  0  0  0  0  0  0  0  0  0
   24.3502  -19.7629  -20.2982 N   0  0  0  0  0  0  0  0  0  0  0  0
   22.9153  -19.9353  -20.4116 C   0  0  1  0  0  0  0  0  0  0  0  0
   22.5439  -21.4177  -20.3824 C   0  0  0  0  0  0  0  0  0  0  0  0
   21.1030  -21.6385  -20.5150 C   0  0  0  0  0  0  0  0  0  0  0  0
   20.1292  -20.6716  -20.6229 C   0  0  0  0  0  0  0  0  0  0  0  0
   18.9246  -21.2866  -20.7267 N   0  0  0  0  0  0  0  0  0  0  0  0
   19.1293  -22.6138  -20.6857 C   0  0  0  0  0  0  0  0  0  0  0  0
   20.4469  -22.8207  -20.5578 N   0  0  0  0  0  0  0  0  0  0  0  0
   22.1946  -19.3005  -19.2851 C   0  0  0  0  0  0  0  0  0  0  0  0
   22.6349  -19.4700  -18.1271 O   0  0  0  0  0  0  0  0  0  0  0  0
   21.0354  -18.5148  -19.4629 N   0  0  0  0  0  0  0  0  0  0  0  0
   20.4042  -17.8972  -18.2880 C   0  0  1  0  0  0  0  0  0  0  0  0
   20.6025  -16.4187  -18.2820 C   0  0  0  0  0  0  0  0  0  0  0  0
   20.0087  -15.7332  -19.4497 C   0  0  0  0  0  0  0  0  0  0  0  0
   20.8060  -15.3211  -20.5024 C   0  0  0  0  0  0  0  0  0  0  0  0
   20.3013  -14.6786  -21.6213 C   0  0  0  0  0  0  0  0  0  0  0  0
   18.9495  -14.4408  -21.6866 C   0  0  0  0  0  0  0  0  0  0  0  0
   18.1356  -14.8420  -20.6500 C   0  0  0  0  0  0  0  0  0  0  0  0
   18.6484  -15.4798  -19.5430 C   0  0  0  0  0  0  0  0  0  0  0  0
   19.0020  -18.3319  -18.2582 C   0  0  0  0  0  0  0  0  0  0  0  0
   18.1480  -18.1042  -17.1883 O   0  0  0  0  0  0  0  0  0  0  0  0
   18.5274  -18.9449  -19.2433 O   0  0  0  0  0  0  0  0  0  0  0  0
  2  1  1  6
  2  3  1  0
  4  3  1  0
  4  5  2  0
  6  2  1  0
  6  7  2  0
  8  4  1  0
  9  6  1  0
 10  9  1  0
 11 12  1  0
 10 11  1  1
 12 16  1  0
 13 12  2  0
 13 14  1  0
 14 15  1  0
 16 15  2  0
 17 10  1  0
 18 17  2  0
 19 17  1  0
 20 19  1  0
 20 28  1  0
 20 21  1  6
 22 21  1  0
 23 22  2  0
 24 23  1  0
 25 26  1  0
 25 24  2  0
 26 27  2  0
 27 22  1  0
 28 29  1  0
 30 28  2  0
M  END
$$$$
