DHF.pdb
     RDKit          3D

 30 31  0  0  1  0  0  0  0  0999 V2000
   19.2155  -12.5104  -17.8140 N   0  0  0  0  0  0  0  0  0  0  0  0
   19.0884  -11.0884  -18.0375 C   0  0  1  0  0  0  0  0  0  0  0  0
   17.6524  -10.6259  -17.9931 C   0  0  0  0  0  0  0  0  0  0  0  0
   16.9228  -10.8956  -19.2340 C   0  0  0  0  0  0  0  0  0  0  0  0
   15.6700  -10.9546  -19.3255 O   0  0  0  0  0  0  0  0  0  0  0  0
   19.9469  -10.3105  -17.1060 C   0  0  0  0  0  0  0  0  0  0  0  0
   19.5927  -10.2442  -15.9002 O   0  0  0  0  0  0  0  0  0  0  0  0
   17.6559  -11.1014  -20.3936 O   0  0  0  0  0  0  0  0  0  0  0  0
   21.1212   -9.6498  -17.4879 N   0  0  0  0  0  0  0  0  0  0  0  0
   22.0216   -9.0745  -16.5082 C   0  0  1  0  0  0  0  0  0  0  0  0
   23.4577   -9.5356  -16.7559 C   0  0  0  0  0  0  0  0  0  0  0  0
   23.6475  -10.9588  -16.4714 C   0  0  0  0  0  0  0  0  0  0  0  0
   24.1637  -11.5055  -15.3184 C   0  0  0  0  0  0  0  0  0  0  0  0
   24.1729  -12.8555  -15.4512 N   0  0  0  0  0  0  0  0  0  0  0  0
   23.6738  -13.1587  -16.6611 C   0  0  0  0  0  0  0  0  0  0  0  0
   23.3581  -12.0094  -17.2731 N   0  0  0  0  0  0  0  0  0  0  0  0
   22.0383   -7.5959  -16.5782 C   0  0  0  0  0  0  0  0  0  0  0  0
   22.1968   -7.0558  -17.6948 O   0  0  0  0  0  0  0  0  0  0  0  0
   21.8833   -6.7734  -15.4416 N   0  0  0  0  0  0  0  0  0  0  0  0
   21.8529   -5.3142  -15.6148 C   0  0  1  0  0  0  0  0  0  0  0  0
   20.7135   -4.8961  -16.4822 C   0  0  0  0  0  0  0  0  0  0  0  0
   20.5491   -3.4303  -16.5844 C   0  0  0  0  0  0  0  0  0  0  0  0
   19.5020   -2.7946  -15.9417 C   0  0  0  0  0  0  0  0  0  0  0  0
   19.3038   -1.4246  -16.0011 C   0  0  0  0  0  0  0  0  0  0  0  0
   20.1868   -0.6657  -16.7309 C   0  0  0  0  0  0  0  0  0  0  0  0
   21.2372   -1.2769  -17.3797 C   0  0  0  0  0  0  0  0  0  0  0  0
   21.4242   -2.6392  -17.3135 C   0  0  0  0  0  0  0  0  0  0  0  0
   21.8647   -4.7086  -14.2772 C   0  0  0  0  0  0  0  0  0  0  0  0
   22.4219   -3.4686  -13.9985 O   0  0  0  0  0  0  0  0  0  0  0  0
   21.3483   -5.3279  -13.3175 O   0  0  0  0  0  0  0  0  0  0  0  0
  2  1  1  1
  2  3  1  0
  4  3  1  0
  4  5  2  0
  6  2  1  0
  6  7  2  0
  8  4  1  0
  9  6  1  0
 10  9  1  0
 11 12  1  0
 10 11  1  6
 12 16  1  0
 13 12  2  0
 13 14  1  0
 14 15  1  0
 16 15  2  0
 17 10  1  0
 18 17  2  0
 19 17  1  0
 20 19  1  0
 20 28  1  0
 20 21  1  1
 22 21  1  0
 23 22  2  0
 24 23  1  0
 25 26  1  0
 25 24  2  0
 26 27  2  0
 27 22  1  0
 28 29  1  0
 30 28  2  0
M  END
$$$$
