DHF.pdb
     RDKit          3D

 30 31  0  0  1  0  0  0  0  0999 V2000
   27.3437  -20.2624  -17.4174 N   0  0  0  0  0  0  0  0  0  0  0  0
   27.4224  -21.1842  -16.3073 C   0  0  1  0  0  0  0  0  0  0  0  0
   28.8452  -21.4445  -15.8763 C   0  0  0  0  0  0  0  0  0  0  0  0
   29.6265  -22.1703  -16.8801 C   0  0  0  0  0  0  0  0  0  0  0  0
   30.5539  -21.6654  -17.5629 O   0  0  0  0  0  0  0  0  0  0  0  0
   26.5741  -20.7421  -15.1694 C   0  0  0  0  0  0  0  0  0  0  0  0
   26.7907  -19.6005  -14.6862 O   0  0  0  0  0  0  0  0  0  0  0  0
   29.3301  -23.5076  -17.0997 O   0  0  0  0  0  0  0  0  0  0  0  0
   25.5525  -21.5163  -14.6052 N   0  0  0  0  0  0  0  0  0  0  0  0
   24.7560  -21.0303  -13.4957 C   0  0  1  0  0  0  0  0  0  0  0  0
   23.3891  -21.7138  -13.4700 C   0  0  0  0  0  0  0  0  0  0  0  0
   22.5091  -21.1708  -12.4340 C   0  0  0  0  0  0  0  0  0  0  0  0
   22.7503  -20.0698  -11.6440 C   0  0  0  0  0  0  0  0  0  0  0  0
   21.6922  -19.8989  -10.8125 N   0  0  0  0  0  0  0  0  0  0  0  0
   20.7996  -20.8697  -11.0691 C   0  0  0  0  0  0  0  0  0  0  0  0
   21.2981  -21.6351  -12.0493 N   0  0  0  0  0  0  0  0  0  0  0  0
   25.3943  -21.3205  -12.1919 C   0  0  0  0  0  0  0  0  0  0  0  0
   25.9417  -22.4335  -12.0331 O   0  0  0  0  0  0  0  0  0  0  0  0
   25.4108  -20.3968  -11.1247 N   0  0  0  0  0  0  0  0  0  0  0  0
   26.1122  -20.7526   -9.8831 C   0  0  1  0  0  0  0  0  0  0  0  0
   27.1972  -19.7760   -9.5758 C   0  0  0  0  0  0  0  0  0  0  0  0
   27.7872  -19.9446   -8.2306 C   0  0  0  0  0  0  0  0  0  0  0  0
   28.7700  -20.8924   -8.0086 C   0  0  0  0  0  0  0  0  0  0  0  0
   29.3589  -21.0892   -6.7700 C   0  0  0  0  0  0  0  0  0  0  0  0
   28.9475  -20.3080   -5.7171 C   0  0  0  0  0  0  0  0  0  0  0  0
   27.9699  -19.3575   -5.9143 C   0  0  0  0  0  0  0  0  0  0  0  0
   27.3918  -19.1709   -7.1497 C   0  0  0  0  0  0  0  0  0  0  0  0
   25.1004  -20.9026   -8.8296 C   0  0  0  0  0  0  0  0  0  0  0  0
   23.8974  -20.2109   -8.8136 O   0  0  0  0  0  0  0  0  0  0  0  0
   25.3131  -21.6941   -7.8812 O   0  0  0  0  0  0  0  0  0  0  0  0
  2  1  1  6
  2  3  1  0
  4  3  1  0
  4  5  2  0
  6  2  1  0
  6  7  2  0
  8  4  1  0
  9  6  1  0
 10  9  1  0
 11 12  1  0
 10 11  1  1
 12 16  1  0
 13 12  2  0
 13 14  1  0
 14 15  1  0
 16 15  2  0
 17 10  1  0
 18 17  2  0
 19 17  1  0
 20 19  1  0
 20 28  1  0
 20 21  1  1
 22 21  1  0
 23 22  2  0
 24 23  1  0
 25 26  1  0
 25 24  2  0
 26 27  2  0
 27 22  1  0
 28 29  1  0
 30 28  2  0
M  END
$$$$
