DHF.pdb
     RDKit          3D

 30 31  0  0  1  0  0  0  0  0999 V2000
   18.7408  -19.6630  -26.1574 N   0  0  0  0  0  0  0  0  0  0  0  0
   18.7773  -19.3586  -24.7452 C   0  0  1  0  0  0  0  0  0  0  0  0
   18.0584  -18.0731  -24.4158 C   0  0  0  0  0  0  0  0  0  0  0  0
   18.7449  -16.8837  -24.9244 C   0  0  0  0  0  0  0  0  0  0  0  0
   19.8080  -16.9070  -25.5957 O   0  0  0  0  0  0  0  0  0  0  0  0
   18.2762  -20.4951  -23.9286 C   0  0  0  0  0  0  0  0  0  0  0  0
   17.2837  -21.1356  -24.3628 O   0  0  0  0  0  0  0  0  0  0  0  0
   18.1916  -15.6410  -24.6520 O   0  0  0  0  0  0  0  0  0  0  0  0
   18.8396  -20.8944  -22.7103 N   0  0  0  0  0  0  0  0  0  0  0  0
   18.2874  -21.9927  -21.9420 C   0  0  1  0  0  0  0  0  0  0  0  0
   19.2937  -22.4868  -20.9031 C   0  0  0  0  0  0  0  0  0  0  0  0
   18.8249  -23.6746  -20.1875 C   0  0  0  0  0  0  0  0  0  0  0  0
   18.9495  -24.9833  -20.5955 C   0  0  0  0  0  0  0  0  0  0  0  0
   18.3872  -25.7811  -19.6534 N   0  0  0  0  0  0  0  0  0  0  0  0
   17.9165  -24.9964  -18.6697 C   0  0  0  0  0  0  0  0  0  0  0  0
   18.1835  -23.7250  -18.9975 N   0  0  0  0  0  0  0  0  0  0  0  0
   17.0772  -21.5859  -21.1928 C   0  0  0  0  0  0  0  0  0  0  0  0
   17.0429  -20.4382  -20.6977 O   0  0  0  0  0  0  0  0  0  0  0  0
   15.9647  -22.4362  -21.0146 N   0  0  0  0  0  0  0  0  0  0  0  0
   14.8008  -21.9419  -20.2654 C   0  0  1  0  0  0  0  0  0  0  0  0
   13.5371  -22.1497  -21.0303 C   0  0  0  0  0  0  0  0  0  0  0  0
   12.3267  -21.6873  -20.3183 C   0  0  0  0  0  0  0  0  0  0  0  0
   11.9939  -20.3448  -20.2976 C   0  0  0  0  0  0  0  0  0  0  0  0
   10.8700  -19.8584  -19.6494 C   0  0  0  0  0  0  0  0  0  0  0  0
   10.0513  -20.7500  -18.9990 C   0  0  0  0  0  0  0  0  0  0  0  0
   10.3627  -22.0920  -19.0059 C   0  0  0  0  0  0  0  0  0  0  0  0
   11.4822  -22.5638  -19.6535 C   0  0  0  0  0  0  0  0  0  0  0  0
   14.8289  -22.5692  -18.9381 C   0  0  0  0  0  0  0  0  0  0  0  0
   15.7726  -23.5102  -18.5511 O   0  0  0  0  0  0  0  0  0  0  0  0
   13.9616  -22.2527  -18.0902 O   0  0  0  0  0  0  0  0  0  0  0  0
  2  1  1  6
  2  3  1  0
  4  3  1  0
  4  5  2  0
  6  2  1  0
  6  7  2  0
  8  4  1  0
  9  6  1  0
 10  9  1  0
 11 12  1  0
 10 11  1  1
 12 16  1  0
 13 12  2  0
 13 14  1  0
 14 15  1  0
 16 15  2  0
 17 10  1  0
 18 17  2  0
 19 17  1  0
 20 19  1  0
 20 28  1  0
 20 21  1  6
 22 21  1  0
 23 22  2  0
 24 23  1  0
 25 26  1  0
 25 24  2  0
 26 27  2  0
 27 22  1  0
 28 29  1  0
 30 28  2  0
M  END
$$$$
