DHF.pdb
     RDKit          3D

 30 31  0  0  1  0  0  0  0  0999 V2000
   22.6633  -12.3798  -21.8981 N   0  0  0  0  0  0  0  0  0  0  0  0
   21.5161  -12.2086  -21.0363 C   0  0  1  0  0  0  0  0  0  0  0  0
   21.3845  -13.3225  -20.0265 C   0  0  0  0  0  0  0  0  0  0  0  0
   21.1529  -14.6314  -20.6411 C   0  0  0  0  0  0  0  0  0  0  0  0
   21.7407  -15.6908  -20.3042 O   0  0  0  0  0  0  0  0  0  0  0  0
   21.5168  -10.8720  -20.3856 C   0  0  0  0  0  0  0  0  0  0  0  0
   22.6019  -10.4567  -19.9020 O   0  0  0  0  0  0  0  0  0  0  0  0
   20.2227  -14.7184  -21.6667 O   0  0  0  0  0  0  0  0  0  0  0  0
   20.3875  -10.0507  -20.2786 N   0  0  0  0  0  0  0  0  0  0  0  0
   20.4573   -8.7402  -19.6629 C   0  0  1  0  0  0  0  0  0  0  0  0
   19.3293   -7.8424  -20.1707 C   0  0  0  0  0  0  0  0  0  0  0  0
   19.6610   -7.1851  -21.4358 C   0  0  0  0  0  0  0  0  0  0  0  0
   20.8788   -7.2023  -22.0772 C   0  0  0  0  0  0  0  0  0  0  0  0
   20.7729   -6.4747  -23.2172 N   0  0  0  0  0  0  0  0  0  0  0  0
   19.5162   -6.0065  -23.2975 C   0  0  0  0  0  0  0  0  0  0  0  0
   18.8490   -6.4386  -22.2190 N   0  0  0  0  0  0  0  0  0  0  0  0
   20.3038   -8.8147  -18.1924 C   0  0  0  0  0  0  0  0  0  0  0  0
   19.7700   -9.8335  -17.7017 O   0  0  0  0  0  0  0  0  0  0  0  0
   20.7331   -7.7877  -17.3244 N   0  0  0  0  0  0  0  0  0  0  0  0
   20.7068   -8.0215  -15.8735 C   0  0  1  0  0  0  0  0  0  0  0  0
   21.5166   -9.2185  -15.5038 C   0  0  0  0  0  0  0  0  0  0  0  0
   21.7271   -9.3690  -14.0481 C   0  0  0  0  0  0  0  0  0  0  0  0
   22.9756   -9.6944  -13.5490 C   0  0  0  0  0  0  0  0  0  0  0  0
   23.2287   -9.8436  -12.1950 C   0  0  0  0  0  0  0  0  0  0  0  0
   22.1931   -9.6602  -11.3106 C   0  0  0  0  0  0  0  0  0  0  0  0
   20.9409   -9.3358  -11.7845 C   0  0  0  0  0  0  0  0  0  0  0  0
   20.7013   -9.1900  -13.1323 C   0  0  0  0  0  0  0  0  0  0  0  0
   21.1146   -6.7735  -15.2160 C   0  0  0  0  0  0  0  0  0  0  0  0
   22.2580   -6.0634  -15.5536 O   0  0  0  0  0  0  0  0  0  0  0  0
   20.4056   -6.3040  -14.2949 O   0  0  0  0  0  0  0  0  0  0  0  0
  2  1  1  1
  2  3  1  0
  4  3  1  0
  4  5  2  0
  6  2  1  0
  6  7  2  0
  8  4  1  0
  9  6  1  0
 10  9  1  0
 11 12  1  0
 10 11  1  6
 12 16  1  0
 13 12  2  0
 13 14  1  0
 14 15  1  0
 16 15  2  0
 17 10  1  0
 18 17  2  0
 19 17  1  0
 20 19  1  0
 20 28  1  0
 20 21  1  6
 22 21  1  0
 23 22  2  0
 24 23  1  0
 25 26  1  0
 25 24  2  0
 26 27  2  0
 27 22  1  0
 28 29  1  0
 30 28  2  0
M  END
$$$$
