DHF.pdb
     RDKit          3D

 30 31  0  0  1  0  0  0  0  0999 V2000
   30.8681  -22.1849  -21.1790 N   0  0  0  0  0  0  0  0  0  0  0  0
   29.6940  -22.4420  -20.3768 C   0  0  1  0  0  0  0  0  0  0  0  0
   28.4185  -22.3473  -21.1783 C   0  0  0  0  0  0  0  0  0  0  0  0
   28.1644  -21.0018  -21.6977 C   0  0  0  0  0  0  0  0  0  0  0  0
   27.7407  -20.7532  -22.8553 O   0  0  0  0  0  0  0  0  0  0  0  0
   29.7976  -23.7385  -19.6571 C   0  0  0  0  0  0  0  0  0  0  0  0
   30.5025  -24.6422  -20.1769 O   0  0  0  0  0  0  0  0  0  0  0  0
   28.4046  -19.9207  -20.8622 O   0  0  0  0  0  0  0  0  0  0  0  0
   29.1607  -24.0138  -18.4407 N   0  0  0  0  0  0  0  0  0  0  0  0
   29.3758  -25.2625  -17.7364 C   0  0  1  0  0  0  0  0  0  0  0  0
   29.8187  -25.0030  -16.2967 C   0  0  0  0  0  0  0  0  0  0  0  0
   31.2735  -25.0426  -16.1407 C   0  0  0  0  0  0  0  0  0  0  0  0
   32.1978  -25.3371  -17.1173 C   0  0  0  0  0  0  0  0  0  0  0  0
   33.4369  -25.2670  -16.5697 N   0  0  0  0  0  0  0  0  0  0  0  0
   33.3020  -24.9355  -15.2747 C   0  0  0  0  0  0  0  0  0  0  0  0
   31.9933  -24.8012  -15.0210 N   0  0  0  0  0  0  0  0  0  0  0  0
   28.1367  -26.0684  -17.6549 C   0  0  0  0  0  0  0  0  0  0  0  0
   27.0424  -25.4688  -17.5738 O   0  0  0  0  0  0  0  0  0  0  0  0
   28.1390  -27.4799  -17.6649 N   0  0  0  0  0  0  0  0  0  0  0  0
   26.8656  -28.1972  -17.5089 C   0  0  1  0  0  0  0  0  0  0  0  0
   27.0335  -29.6581  -17.7596 C   0  0  0  0  0  0  0  0  0  0  0  0
   25.7878  -30.4376  -17.5969 C   0  0  0  0  0  0  0  0  0  0  0  0
   25.5735  -31.1890  -16.4554 C   0  0  0  0  0  0  0  0  0  0  0  0
   24.4234  -31.9340  -16.2503 C   0  0  0  0  0  0  0  0  0  0  0  0
   23.4544  -31.9251  -17.2245 C   0  0  0  0  0  0  0  0  0  0  0  0
   23.6458  -31.1842  -18.3701 C   0  0  0  0  0  0  0  0  0  0  0  0
   24.7927  -30.4476  -18.5629 C   0  0  0  0  0  0  0  0  0  0  0  0
   26.3235  -27.8561  -16.1877 C   0  0  0  0  0  0  0  0  0  0  0  0
   27.1069  -27.6841  -15.0552 O   0  0  0  0  0  0  0  0  0  0  0  0
   25.0865  -27.7068  -16.0507 O   0  0  0  0  0  0  0  0  0  0  0  0
  2  1  1  6
  2  3  1  0
  4  3  1  0
  4  5  2  0
  6  2  1  0
  6  7  2  0
  8  4  1  0
  9  6  1  0
 10  9  1  0
 11 12  1  0
 10 11  1  1
 12 16  1  0
 13 12  2  0
 13 14  1  0
 14 15  1  0
 16 15  2  0
 17 10  1  0
 18 17  2  0
 19 17  1  0
 20 19  1  0
 20 28  1  0
 20 21  1  1
 22 21  1  0
 23 22  2  0
 24 23  1  0
 25 26  1  0
 25 24  2  0
 26 27  2  0
 27 22  1  0
 28 29  1  0
 30 28  2  0
M  END
$$$$
