VQH.pdb
     RDKit          3D

 27 27  0  0  1  0  0  0  0  0999 V2000
   28.5450  -20.5675   -9.7627 C   0  0  0  0  0  0  0  0  0  0  0  0
   27.7995  -20.1371  -11.0036 C   0  0  1  0  0  0  0  0  0  0  0  0
   28.7106  -20.0859  -12.1950 C   0  0  0  0  0  0  0  0  0  0  0  0
   26.5105  -20.8425  -11.2160 C   0  0  2  0  0  0  0  0  0  0  0  0
   26.8160  -22.2667  -11.3669 N   0  0  0  0  0  0  0  0  0  0  0  0
   25.7310  -20.4447  -12.3959 C   0  0  0  0  0  0  0  0  0  0  0  0
   25.0333  -19.3689  -12.3816 O   0  0  0  0  0  0  0  0  0  0  0  0
   27.8265  -18.6603  -15.0279 N   0  0  0  0  0  0  0  0  0  0  0  0
   27.4956  -19.9324  -15.5780 C   0  0  0  0  0  0  0  0  0  0  0  0
   28.1902  -20.9131  -15.2464 O   0  0  0  0  0  0  0  0  0  0  0  0
   26.3329  -20.0426  -16.5279 C   0  0  0  0  0  0  0  0  0  0  0  0
   25.4399  -21.1062  -15.9830 C   0  0  0  0  0  0  0  0  0  0  0  0
   24.7444  -20.7615  -14.6963 C   0  0  2  0  0  0  0  0  0  0  0  0
   25.6543  -21.1515  -13.6257 N   0  0  0  0  0  0  0  0  0  0  0  0
   23.4448  -21.4283  -14.6369 C   0  0  0  0  0  0  0  0  0  0  0  0
   23.2771  -22.6416  -14.3776 O   0  0  0  0  0  0  0  0  0  0  0  0
   22.2613  -20.6769  -14.8862 N   0  0  0  0  0  0  0  0  0  0  0  0
   20.9465  -21.1470  -14.4979 C   0  0  1  0  0  0  0  0  0  0  0  0
   20.9000  -21.1017  -12.9834 C   0  0  0  0  0  0  0  0  0  0  0  0
   19.5553  -21.4990  -12.4625 C   0  0  0  0  0  0  0  0  0  0  0  0
   19.0446  -22.7691  -12.3519 C   0  0  0  0  0  0  0  0  0  0  0  0
   17.8121  -22.6638  -11.8378 N   0  0  0  0  0  0  0  0  0  0  0  0
   17.5489  -21.3643  -11.6285 C   0  0  0  0  0  0  0  0  0  0  0  0
   18.6146  -20.6598  -12.0109 N   0  0  0  0  0  0  0  0  0  0  0  0
   19.9197  -20.3033  -15.1178 C   0  0  0  0  0  0  0  0  0  0  0  0
   20.2093  -19.1529  -15.5227 O   0  0  0  0  0  0  0  0  0  0  0  0
   18.6137  -20.7359  -15.2773 O   0  0  0  0  0  0  0  0  0  0  0  0
  2  4  1  0
  2  1  1  1
  3  2  1  0
  4  5  1  6
  6  4  1  0
  6  7  2  0
  9  8  1  0
  9 10  2  0
 11 12  1  0
 11  9  1  0
 13 12  1  6
 13 15  1  0
 13 14  1  0
 14  6  1  0
 15 17  1  0
 16 15  2  0
 17 18  1  0
 18 25  1  0
 18 19  1  1
 20 19  1  0
 21 20  2  0
 22 23  1  0
 22 21  1  0
 23 24  2  0
 24 20  1  0
 25 26  2  0
 25 27  1  0
M  END
$$$$
