VQH.pdb
     RDKit          3D

 27 27  0  0  1  0  0  0  0  0999 V2000
   33.1031  -35.4267  -17.6991 C   0  0  0  0  0  0  0  0  0  0  0  0
   32.4310  -34.0931  -17.4734 C   0  0  1  0  0  0  0  0  0  0  0  0
   31.1932  -34.2423  -16.6383 C   0  0  0  0  0  0  0  0  0  0  0  0
   33.3545  -33.0076  -17.0572 C   0  0  2  0  0  0  0  0  0  0  0  0
   33.9135  -33.3890  -15.7585 N   0  0  0  0  0  0  0  0  0  0  0  0
   32.7661  -31.6715  -16.8941 C   0  0  0  0  0  0  0  0  0  0  0  0
   32.3625  -31.2749  -15.7433 O   0  0  0  0  0  0  0  0  0  0  0  0
   32.5718  -26.1036  -17.8222 N   0  0  0  0  0  0  0  0  0  0  0  0
   33.7911  -26.7639  -18.1506 C   0  0  0  0  0  0  0  0  0  0  0  0
   34.8620  -26.1852  -17.8816 O   0  0  0  0  0  0  0  0  0  0  0  0
   33.7402  -28.1199  -18.8025 C   0  0  0  0  0  0  0  0  0  0  0  0
   32.3063  -28.5317  -18.8125 C   0  0  0  0  0  0  0  0  0  0  0  0
   31.8935  -29.4423  -17.6906 C   0  0  2  0  0  0  0  0  0  0  0  0
   32.5807  -30.7075  -17.9209 N   0  0  0  0  0  0  0  0  0  0  0  0
   30.4369  -29.5612  -17.6542 C   0  0  0  0  0  0  0  0  0  0  0  0
   29.8021  -30.6180  -17.8726 O   0  0  0  0  0  0  0  0  0  0  0  0
   29.6490  -28.4143  -17.3521 N   0  0  0  0  0  0  0  0  0  0  0  0
   28.2399  -28.5040  -17.0253 C   0  0  1  0  0  0  0  0  0  0  0  0
   28.1347  -29.3911  -15.8007 C   0  0  0  0  0  0  0  0  0  0  0  0
   26.9373  -30.2848  -15.8702 C   0  0  0  0  0  0  0  0  0  0  0  0
   26.0261  -30.3818  -16.8932 C   0  0  0  0  0  0  0  0  0  0  0  0
   25.1199  -31.3026  -16.5390 N   0  0  0  0  0  0  0  0  0  0  0  0
   25.4472  -31.7758  -15.3261 C   0  0  0  0  0  0  0  0  0  0  0  0
   26.5551  -31.1519  -14.9241 N   0  0  0  0  0  0  0  0  0  0  0  0
   27.7022  -27.1595  -16.7939 C   0  0  0  0  0  0  0  0  0  0  0  0
   26.4632  -26.9757  -16.7464 O   0  0  0  0  0  0  0  0  0  0  0  0
   28.5265  -26.0599  -16.6218 O   0  0  0  0  0  0  0  0  0  0  0  0
  2  4  1  0
  2  1  1  1
  3  2  1  0
  4  5  1  1
  6  4  1  0
  6  7  2  0
  9  8  1  0
  9 10  2  0
 11 12  1  0
 11  9  1  0
 13 12  1  6
 13 15  1  0
 13 14  1  0
 14  6  1  0
 15 17  1  0
 16 15  2  0
 17 18  1  0
 18 25  1  0
 18 19  1  1
 20 19  1  0
 21 20  2  0
 22 23  1  0
 22 21  1  0
 23 24  2  0
 24 20  1  0
 25 26  2  0
 25 27  1  0
M  END
$$$$
