VQH.pdb
     RDKit          3D

 27 27  0  0  1  0  0  0  0  0999 V2000
   28.1811  -13.4154  -15.4114 C   0  0  0  0  0  0  0  0  0  0  0  0
   27.0062  -12.5341  -15.7633 C   0  0  1  0  0  0  0  0  0  0  0  0
   27.4618  -11.2153  -16.3157 C   0  0  0  0  0  0  0  0  0  0  0  0
   25.9421  -13.2181  -16.5406 C   0  0  2  0  0  0  0  0  0  0  0  0
   26.5526  -13.6959  -17.7829 N   0  0  0  0  0  0  0  0  0  0  0  0
   24.7800  -12.4037  -16.9204 C   0  0  0  0  0  0  0  0  0  0  0  0
   24.8285  -11.6425  -17.9512 O   0  0  0  0  0  0  0  0  0  0  0  0
   19.0369  -13.6782  -16.2431 N   0  0  0  0  0  0  0  0  0  0  0  0
   18.8041  -12.3680  -16.7528 C   0  0  0  0  0  0  0  0  0  0  0  0
   17.6287  -12.0370  -17.0038 O   0  0  0  0  0  0  0  0  0  0  0  0
   19.9731  -11.4439  -16.9663 C   0  0  0  0  0  0  0  0  0  0  0  0
   21.1902  -12.1953  -16.5423 C   0  0  0  0  0  0  0  0  0  0  0  0
   22.4767  -11.4217  -16.6106 C   0  0  2  0  0  0  0  0  0  0  0  0
   23.5329  -12.3568  -16.2418 N   0  0  0  0  0  0  0  0  0  0  0  0
   22.4001  -10.2476  -15.7429 C   0  0  0  0  0  0  0  0  0  0  0  0
   22.6154  -10.2571  -14.5096 O   0  0  0  0  0  0  0  0  0  0  0  0
   22.0589   -8.9843  -16.3043 N   0  0  0  0  0  0  0  0  0  0  0  0
   22.0065   -7.7713  -15.5129 C   0  0  1  0  0  0  0  0  0  0  0  0
   22.0825   -6.6138  -16.4887 C   0  0  0  0  0  0  0  0  0  0  0  0
   22.0282   -5.2957  -15.7837 C   0  0  0  0  0  0  0  0  0  0  0  0
   22.0481   -5.0721  -14.4287 C   0  0  0  0  0  0  0  0  0  0  0  0
   21.9812   -3.7478  -14.2385 N   0  0  0  0  0  0  0  0  0  0  0  0
   21.9206   -3.1489  -15.4383 C   0  0  0  0  0  0  0  0  0  0  0  0
   21.9496   -4.0971  -16.3756 N   0  0  0  0  0  0  0  0  0  0  0  0
   20.7750   -7.7561  -14.7170 C   0  0  0  0  0  0  0  0  0  0  0  0
   19.6790   -8.0566  -15.2458 O   0  0  0  0  0  0  0  0  0  0  0  0
   20.7740   -7.4156  -13.3745 O   0  0  0  0  0  0  0  0  0  0  0  0
  2  4  1  0
  2  1  1  6
  3  2  1  0
  4  5  1  6
  6  4  1  0
  6  7  2  0
  9  8  1  0
  9 10  2  0
 11 12  1  0
 11  9  1  0
 13 12  1  1
 13 15  1  0
 13 14  1  0
 14  6  1  0
 15 17  1  0
 16 15  2  0
 17 18  1  0
 18 25  1  0
 18 19  1  6
 20 19  1  0
 21 20  2  0
 22 23  1  0
 22 21  1  0
 23 24  2  0
 24 20  1  0
 25 26  2  0
 25 27  1  0
M  END
$$$$
