VQH.pdb
     RDKit          3D

 27 27  0  0  1  0  0  0  0  0999 V2000
   27.1725  -15.9682  -15.3178 C   0  0  0  0  0  0  0  0  0  0  0  0
   26.5183  -14.7273  -15.8773 C   0  0  1  0  0  0  0  0  0  0  0  0
   27.5183  -13.8533  -16.5758 C   0  0  0  0  0  0  0  0  0  0  0  0
   25.2627  -14.9849  -16.6265 C   0  0  2  0  0  0  0  0  0  0  0  0
   25.6161  -15.7833  -17.8022 N   0  0  0  0  0  0  0  0  0  0  0  0
   24.5348  -13.8054  -17.1133 C   0  0  0  0  0  0  0  0  0  0  0  0
   24.7927  -13.3136  -18.2691 O   0  0  0  0  0  0  0  0  0  0  0  0
   18.8335  -11.8181  -17.2203 N   0  0  0  0  0  0  0  0  0  0  0  0
   19.3004  -12.3533  -15.9850 C   0  0  0  0  0  0  0  0  0  0  0  0
   18.4648  -12.5629  -15.0838 O   0  0  0  0  0  0  0  0  0  0  0  0
   20.7683  -12.6421  -15.8169 C   0  0  0  0  0  0  0  0  0  0  0  0
   21.4370  -12.1794  -17.0676 C   0  0  0  0  0  0  0  0  0  0  0  0
   22.9053  -11.8872  -16.9384 C   0  0  2  0  0  0  0  0  0  0  0  0
   23.5168  -13.1028  -16.4147 N   0  0  0  0  0  0  0  0  0  0  0  0
   23.1082  -10.7134  -16.0908 C   0  0  0  0  0  0  0  0  0  0  0  0
   23.2336  -10.7463  -14.8455 O   0  0  0  0  0  0  0  0  0  0  0  0
   23.1733   -9.4225  -16.6879 N   0  0  0  0  0  0  0  0  0  0  0  0
   23.3961   -8.2184  -15.9127 C   0  0  1  0  0  0  0  0  0  0  0  0
   24.3596   -7.3619  -16.7101 C   0  0  0  0  0  0  0  0  0  0  0  0
   25.7268   -7.9670  -16.7534 C   0  0  0  0  0  0  0  0  0  0  0  0
   26.1569   -9.1049  -16.1158 C   0  0  0  0  0  0  0  0  0  0  0  0
   27.4475   -9.2787  -16.4298 N   0  0  0  0  0  0  0  0  0  0  0  0
   27.8249   -8.2797  -17.2432 C   0  0  0  0  0  0  0  0  0  0  0  0
   26.7723   -7.4840  -17.4366 N   0  0  0  0  0  0  0  0  0  0  0  0
   22.1156   -7.5465  -15.6688 C   0  0  0  0  0  0  0  0  0  0  0  0
   21.3292   -7.3246  -16.6193 O   0  0  0  0  0  0  0  0  0  0  0  0
   21.7317   -7.1381  -14.4023 O   0  0  0  0  0  0  0  0  0  0  0  0
  2  4  1  0
  2  1  1  6
  3  2  1  0
  4  5  1  6
  6  4  1  0
  6  7  2  0
  9  8  1  0
  9 10  2  0
 11 12  1  0
 11  9  1  0
 13 12  1  1
 13 15  1  0
 13 14  1  0
 14  6  1  0
 15 17  1  0
 16 15  2  0
 17 18  1  0
 18 25  1  0
 18 19  1  6
 20 19  1  0
 21 20  2  0
 22 23  1  0
 22 21  1  0
 23 24  2  0
 24 20  1  0
 25 26  2  0
 25 27  1  0
M  END
$$$$
