VQH.pdb
     RDKit          3D

 27 27  0  0  1  0  0  0  0  0999 V2000
   30.8917  -32.2942  -19.5928 C   0  0  0  0  0  0  0  0  0  0  0  0
   32.2945  -32.5657  -19.1035 C   0  0  1  0  0  0  0  0  0  0  0  0
   33.0567  -33.4126  -20.0802 C   0  0  0  0  0  0  0  0  0  0  0  0
   33.0105  -31.3636  -18.6069 C   0  0  2  0  0  0  0  0  0  0  0  0
   34.1488  -31.8341  -17.8148 N   0  0  0  0  0  0  0  0  0  0  0  0
   32.2428  -30.4489  -17.7514 C   0  0  0  0  0  0  0  0  0  0  0  0
   32.2288  -30.6067  -16.4789 O   0  0  0  0  0  0  0  0  0  0  0  0
   30.9708  -24.7973  -16.2632 N   0  0  0  0  0  0  0  0  0  0  0  0
   32.2534  -25.4126  -16.1817 C   0  0  0  0  0  0  0  0  0  0  0  0
   33.1231  -24.8638  -15.4769 O   0  0  0  0  0  0  0  0  0  0  0  0
   32.5067  -26.6875  -16.9413 C   0  0  0  0  0  0  0  0  0  0  0  0
   31.2075  -27.0751  -17.5637 C   0  0  0  0  0  0  0  0  0  0  0  0
   30.7479  -28.4749  -17.2678 C   0  0  2  0  0  0  0  0  0  0  0  0
   31.4682  -29.3427  -18.1920 N   0  0  0  0  0  0  0  0  0  0  0  0
   29.2938  -28.5598  -17.3921 C   0  0  0  0  0  0  0  0  0  0  0  0
   28.6816  -28.7909  -18.4595 O   0  0  0  0  0  0  0  0  0  0  0  0
   28.4812  -28.3718  -16.2381 N   0  0  0  0  0  0  0  0  0  0  0  0
   27.0365  -28.4794  -16.2794 C   0  0  1  0  0  0  0  0  0  0  0  0
   26.5264  -27.2135  -16.9389 C   0  0  0  0  0  0  0  0  0  0  0  0
   25.0362  -27.2230  -17.0685 C   0  0  0  0  0  0  0  0  0  0  0  0
   24.1137  -27.4644  -16.0801 C   0  0  0  0  0  0  0  0  0  0  0  0
   22.8974  -27.3734  -16.6341 N   0  0  0  0  0  0  0  0  0  0  0  0
   23.0446  -27.0827  -17.9363 C   0  0  0  0  0  0  0  0  0  0  0  0
   24.3497  -26.9923  -18.1948 N   0  0  0  0  0  0  0  0  0  0  0  0
   26.6543  -29.6897  -17.0139 C   0  0  0  0  0  0  0  0  0  0  0  0
   25.5726  -29.7281  -17.6461 O   0  0  0  0  0  0  0  0  0  0  0  0
   27.4582  -30.8172  -17.0378 O   0  0  0  0  0  0  0  0  0  0  0  0
  2  4  1  0
  2  1  1  6
  3  2  1  0
  4  5  1  1
  6  4  1  0
  6  7  2  0
  9  8  1  0
  9 10  2  0
 11 12  1  0
 11  9  1  0
 13 12  1  6
 13 15  1  0
 13 14  1  0
 14  6  1  0
 15 17  1  0
 16 15  2  0
 17 18  1  0
 18 25  1  0
 18 19  1  6
 20 19  1  0
 21 20  2  0
 22 23  1  0
 22 21  1  0
 23 24  2  0
 24 20  1  0
 25 26  2  0
 25 27  1  0
M  END
$$$$
