VQH.pdb
     RDKit          3D

 27 27  0  0  1  0  0  0  0  0999 V2000
   20.2531  -11.4682    5.1856 C   0  0  0  0  0  0  0  0  0  0  0  0
   19.6780  -12.7739    5.6808 C   0  0  1  0  0  0  0  0  0  0  0  0
   19.7862  -12.8844    7.1735 C   0  0  0  0  0  0  0  0  0  0  0  0
   18.3489  -13.1099    5.1109 C   0  0  2  0  0  0  0  0  0  0  0  0
   17.3843  -12.1627    5.6739 N   0  0  0  0  0  0  0  0  0  0  0  0
   17.8370  -14.4583    5.3894 C   0  0  0  0  0  0  0  0  0  0  0  0
   16.6047  -14.6353    5.6966 O   0  0  0  0  0  0  0  0  0  0  0  0
   16.7739  -18.4353    2.0307 N   0  0  0  0  0  0  0  0  0  0  0  0
   16.3213  -19.2064    3.1402 C   0  0  0  0  0  0  0  0  0  0  0  0
   15.5707  -20.1755    2.9133 O   0  0  0  0  0  0  0  0  0  0  0  0
   16.7618  -18.8257    4.5285 C   0  0  0  0  0  0  0  0  0  0  0  0
   17.4894  -17.5295    4.4016 C   0  0  0  0  0  0  0  0  0  0  0  0
   18.0082  -16.9574    5.6907 C   0  0  2  0  0  0  0  0  0  0  0  0
   18.5894  -15.6628    5.3556 N   0  0  0  0  0  0  0  0  0  0  0  0
   18.9550  -17.8871    6.3044 C   0  0  0  0  0  0  0  0  0  0  0  0
   20.1585  -17.9983    5.9777 O   0  0  0  0  0  0  0  0  0  0  0  0
   18.5139  -18.7442    7.3523 N   0  0  0  0  0  0  0  0  0  0  0  0
   19.2944  -18.9688    8.5526 C   0  0  1  0  0  0  0  0  0  0  0  0
   19.5377  -17.6070    9.1723 C   0  0  0  0  0  0  0  0  0  0  0  0
   20.9930  -17.2613    9.1865 C   0  0  0  0  0  0  0  0  0  0  0  0
   22.0389  -18.0336    8.7441 C   0  0  0  0  0  0  0  0  0  0  0  0
   23.1659  -17.3378    8.9449 N   0  0  0  0  0  0  0  0  0  0  0  0
   22.8437  -16.1581    9.4987 C   0  0  0  0  0  0  0  0  0  0  0  0
   21.5186  -16.1176    9.6433 N   0  0  0  0  0  0  0  0  0  0  0  0
   18.5680  -19.8734    9.4495 C   0  0  0  0  0  0  0  0  0  0  0  0
   17.3414  -19.7113    9.6500 O   0  0  0  0  0  0  0  0  0  0  0  0
   19.1967  -20.9231   10.0984 O   0  0  0  0  0  0  0  0  0  0  0  0
  2  4  1  0
  2  1  1  1
  3  2  1  0
  4  5  1  1
  6  4  1  0
  6  7  2  0
  9  8  1  0
  9 10  2  0
 11 12  1  0
 11  9  1  0
 13 12  1  6
 13 15  1  0
 13 14  1  0
 14  6  1  0
 15 17  1  0
 16 15  2  0
 17 18  1  0
 18 25  1  0
 18 19  1  1
 20 19  1  0
 21 20  2  0
 22 23  1  0
 22 21  1  0
 23 24  2  0
 24 20  1  0
 25 26  2  0
 25 27  1  0
M  END
$$$$
