VQH.pdb
     RDKit          3D

 27 27  0  0  1  0  0  0  0  0999 V2000
   17.4514  -23.8488   -9.5555 C   0  0  0  0  0  0  0  0  0  0  0  0
   17.0615  -24.8124   -8.4599 C   0  0  1  0  0  0  0  0  0  0  0  0
   16.8844  -26.2027   -8.9961 C   0  0  0  0  0  0  0  0  0  0  0  0
   17.8857  -24.7031   -7.2299 C   0  0  2  0  0  0  0  0  0  0  0  0
   19.2822  -24.8971   -7.6258 N   0  0  0  0  0  0  0  0  0  0  0  0
   17.6047  -25.6728   -6.1629 C   0  0  0  0  0  0  0  0  0  0  0  0
   16.4890  -25.6398   -5.5317 O   0  0  0  0  0  0  0  0  0  0  0  0
   19.5100  -31.3761   -4.3242 N   0  0  0  0  0  0  0  0  0  0  0  0
   18.6084  -31.2106   -5.4150 C   0  0  0  0  0  0  0  0  0  0  0  0
   18.1774  -32.2349   -5.9800 O   0  0  0  0  0  0  0  0  0  0  0  0
   18.2149  -29.8207   -5.8390 C   0  0  0  0  0  0  0  0  0  0  0  0
   18.8714  -28.8838   -4.8815 C   0  0  0  0  0  0  0  0  0  0  0  0
   18.1268  -27.6039   -4.6254 C   0  0  2  0  0  0  0  0  0  0  0  0
   18.4734  -26.7063   -5.7209 N   0  0  0  0  0  0  0  0  0  0  0  0
   18.4715  -27.0814   -3.3043 C   0  0  0  0  0  0  0  0  0  0  0  0
   19.4109  -26.2862   -3.0748 O   0  0  0  0  0  0  0  0  0  0  0  0
   17.7068  -27.4828   -2.1722 N   0  0  0  0  0  0  0  0  0  0  0  0
   17.9864  -26.9994   -0.8349 C   0  0  1  0  0  0  0  0  0  0  0  0
   17.8607  -25.4896   -0.8848 C   0  0  0  0  0  0  0  0  0  0  0  0
   16.4795  -25.0654   -1.2719 C   0  0  0  0  0  0  0  0  0  0  0  0
   15.4229  -25.8734   -1.6138 C   0  0  0  0  0  0  0  0  0  0  0  0
   14.3801  -25.0781   -1.8869 N   0  0  0  0  0  0  0  0  0  0  0  0
   14.7645  -23.8024   -1.7227 C   0  0  0  0  0  0  0  0  0  0  0  0
   16.0444  -23.8013   -1.3481 N   0  0  0  0  0  0  0  0  0  0  0  0
   17.0510  -27.6108    0.1147 C   0  0  0  0  0  0  0  0  0  0  0  0
   16.1509  -28.3812   -0.2947 O   0  0  0  0  0  0  0  0  0  0  0  0
   17.1235  -27.3659    1.4759 O   0  0  0  0  0  0  0  0  0  0  0  0
  2  4  1  0
  2  1  1  6
  3  2  1  0
  4  5  1  6
  6  4  1  0
  6  7  2  0
  9  8  1  0
  9 10  2  0
 11 12  1  0
 11  9  1  0
 13 12  1  6
 13 15  1  0
 13 14  1  0
 14  6  1  0
 15 17  1  0
 16 15  2  0
 17 18  1  0
 18 25  1  0
 18 19  1  6
 20 19  1  0
 21 20  2  0
 22 23  1  0
 22 21  1  0
 23 24  2  0
 24 20  1  0
 25 26  2  0
 25 27  1  0
M  END
$$$$
