VQH.pdb
     RDKit          3D

 27 27  0  0  1  0  0  0  0  0999 V2000
   19.5135  -29.4011  -14.8981 C   0  0  0  0  0  0  0  0  0  0  0  0
   20.9332  -29.3309  -15.4085 C   0  0  1  0  0  0  0  0  0  0  0  0
   21.2159  -30.4362  -16.3833 C   0  0  0  0  0  0  0  0  0  0  0  0
   21.3600  -27.9757  -15.8392 C   0  0  2  0  0  0  0  0  0  0  0  0
   22.8041  -28.0314  -16.0760 N   0  0  0  0  0  0  0  0  0  0  0  0
   21.1240  -26.8802  -14.8895 C   0  0  0  0  0  0  0  0  0  0  0  0
   21.8429  -26.7692  -13.8334 O   0  0  0  0  0  0  0  0  0  0  0  0
   18.6327  -21.6277  -16.3193 N   0  0  0  0  0  0  0  0  0  0  0  0
   18.9264  -21.2676  -14.9723 C   0  0  0  0  0  0  0  0  0  0  0  0
   18.7442  -20.0830  -14.6291 O   0  0  0  0  0  0  0  0  0  0  0  0
   19.4398  -22.3194  -14.0254 C   0  0  0  0  0  0  0  0  0  0  0  0
   19.5988  -23.5685  -14.8256 C   0  0  0  0  0  0  0  0  0  0  0  0
   20.0045  -24.7843  -14.0412 C   0  0  2  0  0  0  0  0  0  0  0  0
   20.1356  -25.8669  -15.0091 N   0  0  0  0  0  0  0  0  0  0  0  0
   19.0245  -25.0500  -12.9894 C   0  0  0  0  0  0  0  0  0  0  0  0
   17.8663  -25.4827  -13.1867 O   0  0  0  0  0  0  0  0  0  0  0  0
   19.3755  -24.8118  -11.6302 N   0  0  0  0  0  0  0  0  0  0  0  0
   18.4725  -25.0975  -10.5332 C   0  0  1  0  0  0  0  0  0  0  0  0
   19.2934  -25.0085   -9.2620 C   0  0  0  0  0  0  0  0  0  0  0  0
   18.4331  -25.1175   -8.0431 C   0  0  0  0  0  0  0  0  0  0  0  0
   17.0653  -25.2318   -7.9941 C   0  0  0  0  0  0  0  0  0  0  0  0
   16.7135  -25.3009   -6.7034 N   0  0  0  0  0  0  0  0  0  0  0  0
   17.8262  -25.2325   -5.9556 C   0  0  0  0  0  0  0  0  0  0  0  0
   18.8704  -25.1208   -6.7775 N   0  0  0  0  0  0  0  0  0  0  0  0
   17.3589  -24.1436  -10.5517 C   0  0  0  0  0  0  0  0  0  0  0  0
   17.5378  -22.9738  -10.9651 O   0  0  0  0  0  0  0  0  0  0  0  0
   16.0891  -24.4908  -10.1213 O   0  0  0  0  0  0  0  0  0  0  0  0
  2  4  1  0
  2  1  1  6
  3  2  1  0
  4  5  1  1
  6  4  1  0
  6  7  2  0
  9  8  1  0
  9 10  2  0
 11 12  1  0
 11  9  1  0
 13 12  1  6
 13 15  1  0
 13 14  1  0
 14  6  1  0
 15 17  1  0
 16 15  2  0
 17 18  1  0
 18 25  1  0
 18 19  1  1
 20 19  1  0
 21 20  2  0
 22 23  1  0
 22 21  1  0
 23 24  2  0
 24 20  1  0
 25 26  2  0
 25 27  1  0
M  END
$$$$
