VQH.pdb
     RDKit          3D

 27 27  0  0  1  0  0  0  0  0999 V2000
   24.2356  -13.5546  -19.7245 C   0  0  0  0  0  0  0  0  0  0  0  0
   23.2963  -12.4295  -19.3598 C   0  0  1  0  0  0  0  0  0  0  0  0
   23.4660  -11.2587  -20.2830 C   0  0  0  0  0  0  0  0  0  0  0  0
   21.8946  -12.8578  -19.1234 C   0  0  2  0  0  0  0  0  0  0  0  0
   21.3906  -13.4056  -20.3846 N   0  0  0  0  0  0  0  0  0  0  0  0
   20.9510  -11.8134  -18.7030 C   0  0  0  0  0  0  0  0  0  0  0  0
   20.4290  -11.0228  -19.5673 O   0  0  0  0  0  0  0  0  0  0  0  0
   16.5909  -12.2146  -14.8918 N   0  0  0  0  0  0  0  0  0  0  0  0
   16.3764  -10.8312  -15.1573 C   0  0  0  0  0  0  0  0  0  0  0  0
   15.2934  -10.3269  -14.8007 O   0  0  0  0  0  0  0  0  0  0  0  0
   17.4535  -10.0400  -15.8503 C   0  0  0  0  0  0  0  0  0  0  0  0
   18.4922  -11.0220  -16.2773 C   0  0  0  0  0  0  0  0  0  0  0  0
   19.6533  -10.4387  -17.0322 C   0  0  2  0  0  0  0  0  0  0  0  0
   20.5206  -11.5602  -17.3732 N   0  0  0  0  0  0  0  0  0  0  0  0
   20.3087   -9.4115  -16.2245 C   0  0  0  0  0  0  0  0  0  0  0  0
   21.1264   -9.6417  -15.3046 O   0  0  0  0  0  0  0  0  0  0  0  0
   20.0221   -8.0389  -16.4718 N   0  0  0  0  0  0  0  0  0  0  0  0
   20.6406   -6.9678  -15.7163 C   0  0  1  0  0  0  0  0  0  0  0  0
   20.8444   -5.8177  -16.6825 C   0  0  0  0  0  0  0  0  0  0  0  0
   21.3980   -4.6115  -15.9927 C   0  0  0  0  0  0  0  0  0  0  0  0
   20.6952   -3.5617  -15.4540 C   0  0  0  0  0  0  0  0  0  0  0  0
   21.5856   -2.7042  -14.9377 N   0  0  0  0  0  0  0  0  0  0  0  0
   22.8176   -3.1963  -15.1432 C   0  0  0  0  0  0  0  0  0  0  0  0
   22.6966   -4.3583  -15.7863 N   0  0  0  0  0  0  0  0  0  0  0  0
   19.7824   -6.6057  -14.5837 C   0  0  0  0  0  0  0  0  0  0  0  0
   18.5405   -6.7573  -14.6602 O   0  0  0  0  0  0  0  0  0  0  0  0
   20.3003   -6.0915  -13.4066 O   0  0  0  0  0  0  0  0  0  0  0  0
  2  4  1  0
  2  1  1  6
  3  2  1  0
  4  5  1  6
  6  4  1  0
  6  7  2  0
  9  8  1  0
  9 10  2  0
 11 12  1  0
 11  9  1  0
 13 12  1  1
 13 15  1  0
 13 14  1  0
 14  6  1  0
 15 17  1  0
 16 15  2  0
 17 18  1  0
 18 25  1  0
 18 19  1  6
 20 19  1  0
 21 20  2  0
 22 23  1  0
 22 21  1  0
 23 24  2  0
 24 20  1  0
 25 26  2  0
 25 27  1  0
M  END
$$$$
