VQH.pdb
     RDKit          3D

 27 27  0  0  1  0  0  0  0  0999 V2000
   28.3265  -13.7565  -17.3078 C   0  0  0  0  0  0  0  0  0  0  0  0
   27.0363  -13.0270  -17.5982 C   0  0  1  0  0  0  0  0  0  0  0  0
   26.0253  -13.9399  -18.2278 C   0  0  0  0  0  0  0  0  0  0  0  0
   26.5355  -12.2013  -16.4704 C   0  0  2  0  0  0  0  0  0  0  0  0
   26.2972  -13.1061  -15.3438 N   0  0  0  0  0  0  0  0  0  0  0  0
   25.2851  -11.4654  -16.7002 C   0  0  0  0  0  0  0  0  0  0  0  0
   25.2647  -10.4447  -17.4762 O   0  0  0  0  0  0  0  0  0  0  0  0
   19.7257  -13.5260  -15.4739 N   0  0  0  0  0  0  0  0  0  0  0  0
   19.2939  -12.2794  -16.0123 C   0  0  0  0  0  0  0  0  0  0  0  0
   18.0715  -12.1086  -16.1879 O   0  0  0  0  0  0  0  0  0  0  0  0
   20.3186  -11.2278  -16.3449 C   0  0  0  0  0  0  0  0  0  0  0  0
   21.6533  -11.8345  -16.0689 C   0  0  0  0  0  0  0  0  0  0  0  0
   22.8328  -10.9604  -16.3893 C   0  0  2  0  0  0  0  0  0  0  0  0
   24.0189  -11.7685  -16.1320 N   0  0  0  0  0  0  0  0  0  0  0  0
   22.7738   -9.7324  -15.5982 C   0  0  0  0  0  0  0  0  0  0  0  0
   23.1103   -9.6420  -14.3956 O   0  0  0  0  0  0  0  0  0  0  0  0
   22.3053   -8.5321  -16.2040 N   0  0  0  0  0  0  0  0  0  0  0  0
   22.1978   -7.2844  -15.4746 C   0  0  1  0  0  0  0  0  0  0  0  0
   22.1652   -6.1782  -16.5105 C   0  0  0  0  0  0  0  0  0  0  0  0
   22.0191   -4.8326  -15.8738 C   0  0  0  0  0  0  0  0  0  0  0  0
   22.6927   -4.3495  -14.7788 C   0  0  0  0  0  0  0  0  0  0  0  0
   22.2530   -3.1044  -14.5530 N   0  0  0  0  0  0  0  0  0  0  0  0
   21.3272   -2.8067  -15.4784 C   0  0  0  0  0  0  0  0  0  0  0  0
   21.1892   -3.8634  -16.2800 N   0  0  0  0  0  0  0  0  0  0  0  0
   20.9941   -7.3065  -14.6372 C   0  0  0  0  0  0  0  0  0  0  0  0
   19.9265   -7.7908  -15.0807 O   0  0  0  0  0  0  0  0  0  0  0  0
   20.9894   -6.8026  -13.3471 O   0  0  0  0  0  0  0  0  0  0  0  0
  2  4  1  0
  2  1  1  1
  3  2  1  0
  4  5  1  1
  6  4  1  0
  6  7  2  0
  9  8  1  0
  9 10  2  0
 11 12  1  0
 11  9  1  0
 13 12  1  1
 13 15  1  0
 13 14  1  0
 14  6  1  0
 15 17  1  0
 16 15  2  0
 17 18  1  0
 18 25  1  0
 18 19  1  6
 20 19  1  0
 21 20  2  0
 22 23  1  0
 22 21  1  0
 23 24  2  0
 24 20  1  0
 25 26  2  0
 25 27  1  0
M  END
$$$$
