VQH.pdb
     RDKit          3D

 27 27  0  0  1  0  0  0  0  0999 V2000
   27.0794  -11.4632  -15.1839 C   0  0  0  0  0  0  0  0  0  0  0  0
   27.3601  -12.5573  -16.1865 C   0  0  1  0  0  0  0  0  0  0  0  0
   28.6778  -13.2210  -15.9124 C   0  0  0  0  0  0  0  0  0  0  0  0
   26.2187  -13.4775  -16.4204 C   0  0  2  0  0  0  0  0  0  0  0  0
   26.6432  -14.4446  -17.4349 N   0  0  0  0  0  0  0  0  0  0  0  0
   24.9728  -12.8684  -16.9046 C   0  0  0  0  0  0  0  0  0  0  0  0
   24.9369  -12.2786  -18.0428 O   0  0  0  0  0  0  0  0  0  0  0  0
   19.3651  -14.5095  -15.7673 N   0  0  0  0  0  0  0  0  0  0  0  0
   18.9992  -13.3144  -16.4515 C   0  0  0  0  0  0  0  0  0  0  0  0
   17.7976  -13.1483  -16.7395 O   0  0  0  0  0  0  0  0  0  0  0  0
   20.0653  -12.3091  -16.7967 C   0  0  0  0  0  0  0  0  0  0  0  0
   21.3664  -12.9147  -16.3894 C   0  0  0  0  0  0  0  0  0  0  0  0
   22.5825  -12.0878  -16.6987 C   0  0  2  0  0  0  0  0  0  0  0  0
   23.7272  -12.8549  -16.2219 N   0  0  0  0  0  0  0  0  0  0  0  0
   22.4593  -10.7683  -16.0815 C   0  0  0  0  0  0  0  0  0  0  0  0
   23.2410  -10.3093  -15.2178 O   0  0  0  0  0  0  0  0  0  0  0  0
   21.3861   -9.9146  -16.4643 N   0  0  0  0  0  0  0  0  0  0  0  0
   21.2566   -8.5591  -15.9680 C   0  0  1  0  0  0  0  0  0  0  0  0
   22.5021   -7.8157  -16.4082 C   0  0  0  0  0  0  0  0  0  0  0  0
   22.4378   -6.3677  -16.0385 C   0  0  0  0  0  0  0  0  0  0  0  0
   21.4701   -5.7381  -15.2945 C   0  0  0  0  0  0  0  0  0  0  0  0
   21.8067   -4.4443  -15.2089 N   0  0  0  0  0  0  0  0  0  0  0  0
   22.9548   -4.2590  -15.8794 C   0  0  0  0  0  0  0  0  0  0  0  0
   23.3341   -5.4343  -16.3825 N   0  0  0  0  0  0  0  0  0  0  0  0
   20.0270   -7.9579  -16.4945 C   0  0  0  0  0  0  0  0  0  0  0  0
   19.4174   -7.0865  -15.8311 O   0  0  0  0  0  0  0  0  0  0  0  0
   19.5005   -8.3223  -17.7226 O   0  0  0  0  0  0  0  0  0  0  0  0
  2  4  1  0
  2  1  1  1
  3  2  1  0
  4  5  1  6
  6  4  1  0
  6  7  2  0
  9  8  1  0
  9 10  2  0
 11 12  1  0
 11  9  1  0
 13 12  1  1
 13 15  1  0
 13 14  1  0
 14  6  1  0
 15 17  1  0
 16 15  2  0
 17 18  1  0
 18 25  1  0
 18 19  1  6
 20 19  1  0
 21 20  2  0
 22 23  1  0
 22 21  1  0
 23 24  2  0
 24 20  1  0
 25 26  2  0
 25 27  1  0
M  END
$$$$
