AAC.pdb
     RDKit          3D

 17 16  0  0  1  0  0  0  0  0999 V2000
   17.8602   -8.5152  -18.8964 C   0  0  0  0  0  0  0  0  0  0  0  0
   18.5395   -9.6858  -18.2672 C   0  0  2  0  0  0  0  0  0  0  0  0
   17.6824  -10.7818  -17.9526 N   0  0  0  0  0  0  0  0  0  0  0  0
   19.3319   -9.2322  -17.0695 C   0  0  0  0  0  0  0  0  0  0  0  0
   18.7134   -8.8894  -16.0291 O   0  0  0  0  0  0  0  0  0  0  0  0
   22.9182   -9.0834  -15.9538 C   0  0  0  0  0  0  0  0  0  0  0  0
   21.4677   -8.6713  -15.9205 C   0  0  2  0  0  0  0  0  0  0  0  0
   20.7312   -9.1734  -17.0586 N   0  0  0  0  0  0  0  0  0  0  0  0
   21.2975   -7.2065  -15.8356 C   0  0  0  0  0  0  0  0  0  0  0  0
   21.2915   -6.5574  -16.9169 O   0  0  0  0  0  0  0  0  0  0  0  0
   21.1424   -6.4848  -14.6459 N   0  0  0  0  0  0  0  0  0  0  0  0
   21.1367   -5.0422  -14.6952 C   0  0  1  0  0  0  0  0  0  0  0  0
   19.7453   -4.5976  -14.2521 C   0  0  0  0  0  0  0  0  0  0  0  0
   19.6793   -2.8126  -14.0420 S   0  0  0  0  0  0  0  0  0  0  0  0
   22.1859   -4.4436  -13.8367 C   0  0  0  0  0  0  0  0  0  0  0  0
   22.5081   -4.8897  -12.7063 O   0  0  0  0  0  0  0  0  0  0  0  0
   22.8621   -3.3224  -14.2954 O   0  0  0  0  0  0  0  0  0  0  0  0
  2  1  1  1
  2  3  1  0
  4  5  2  0
  4  2  1  0
  7  6  1  6
  7  8  1  0
  8  4  1  0
  9  7  1  0
 10  9  2  0
 11  9  1  0
 12 15  1  0
 12 11  1  0
 12 13  1  1
 14 13  1  0
 15 17  1  0
 16 15  2  0
M  END
$$$$
