AAC.pdb
     RDKit          3D

 17 16  0  0  1  0  0  0  0  0999 V2000
   23.9562  -14.8443  -14.5608 C   0  0  0  0  0  0  0  0  0  0  0  0
   22.8693  -15.0267  -15.5672 C   0  0  2  0  0  0  0  0  0  0  0  0
   23.1523  -15.9758  -16.5938 N   0  0  0  0  0  0  0  0  0  0  0  0
   22.4701  -13.6898  -16.1344 C   0  0  0  0  0  0  0  0  0  0  0  0
   23.2965  -13.0635  -16.8466 O   0  0  0  0  0  0  0  0  0  0  0  0
   19.3549  -11.6776  -16.6121 C   0  0  0  0  0  0  0  0  0  0  0  0
   20.8492  -11.8321  -16.4776 C   0  0  2  0  0  0  0  0  0  0  0  0
   21.2170  -13.1078  -15.9056 N   0  0  0  0  0  0  0  0  0  0  0  0
   21.4612  -10.7462  -15.6850 C   0  0  0  0  0  0  0  0  0  0  0  0
   21.4540  -10.8666  -14.4296 O   0  0  0  0  0  0  0  0  0  0  0  0
   22.0483   -9.5942  -16.2221 N   0  0  0  0  0  0  0  0  0  0  0  0
   22.5943   -8.6018  -15.3273 C   0  0  1  0  0  0  0  0  0  0  0  0
   23.7316   -7.9164  -16.0803 C   0  0  0  0  0  0  0  0  0  0  0  0
   24.9775   -9.1110  -16.5856 S   0  0  0  0  0  0  0  0  0  0  0  0
   21.5775   -7.6178  -14.8870 C   0  0  0  0  0  0  0  0  0  0  0  0
   20.4940   -7.4094  -15.4897 O   0  0  0  0  0  0  0  0  0  0  0  0
   21.8226   -6.8742  -13.7417 O   0  0  0  0  0  0  0  0  0  0  0  0
  2  1  1  6
  2  3  1  0
  4  5  2  0
  4  2  1  0
  7  6  1  1
  7  8  1  0
  8  4  1  0
  9  7  1  0
 10  9  2  0
 11  9  1  0
 12 15  1  0
 12 11  1  0
 12 13  1  6
 14 13  1  0
 15 17  1  0
 16 15  2  0
M  END
$$$$
