AAC.pdb
     RDKit          3D

 17 16  0  0  1  0  0  0  0  0999 V2000
   14.6273  -13.6219  -14.8487 C   0  0  0  0  0  0  0  0  0  0  0  0
   15.9115  -12.8614  -14.8470 C   0  0  2  0  0  0  0  0  0  0  0  0
   16.9909  -13.5039  -14.1710 N   0  0  0  0  0  0  0  0  0  0  0  0
   15.6771  -11.4664  -14.3299 C   0  0  0  0  0  0  0  0  0  0  0  0
   14.8339  -10.7383  -14.9140 O   0  0  0  0  0  0  0  0  0  0  0  0
   16.4725   -9.4878  -11.2515 C   0  0  0  0  0  0  0  0  0  0  0  0
   16.0529   -9.6289  -12.6933 C   0  0  2  0  0  0  0  0  0  0  0  0
   16.3563  -10.9387  -13.2246 N   0  0  0  0  0  0  0  0  0  0  0  0
   16.6561   -8.5973  -13.5616 C   0  0  0  0  0  0  0  0  0  0  0  0
   17.7807   -8.8515  -14.0726 O   0  0  0  0  0  0  0  0  0  0  0  0
   16.0737   -7.3595  -13.8599 N   0  0  0  0  0  0  0  0  0  0  0  0
   16.7755   -6.4440  -14.7275 C   0  0  1  0  0  0  0  0  0  0  0  0
   15.7413   -5.8925  -15.7054 C   0  0  0  0  0  0  0  0  0  0  0  0
   15.0621   -7.2063  -16.7287 S   0  0  0  0  0  0  0  0  0  0  0  0
   17.4366   -5.3499  -13.9778 C   0  0  0  0  0  0  0  0  0  0  0  0
   17.1739   -5.0576  -12.7835 O   0  0  0  0  0  0  0  0  0  0  0  0
   18.4065   -4.5939  -14.6200 O   0  0  0  0  0  0  0  0  0  0  0  0
  2  1  1  1
  2  3  1  0
  4  5  2  0
  4  2  1  0
  7  6  1  1
  7  8  1  0
  8  4  1  0
  9  7  1  0
 10  9  2  0
 11  9  1  0
 12 15  1  0
 12 11  1  0
 12 13  1  6
 14 13  1  0
 15 17  1  0
 16 15  2  0
M  END
$$$$
