AAC.pdb
     RDKit          3D

 17 16  0  0  1  0  0  0  0  0999 V2000
   18.3658  -14.5684  -18.8053 C   0  0  0  0  0  0  0  0  0  0  0  0
   17.9465  -13.1429  -18.6657 C   0  0  2  0  0  0  0  0  0  0  0  0
   17.6275  -12.4863  -19.8913 N   0  0  0  0  0  0  0  0  0  0  0  0
   18.9786  -12.3830  -17.8748 C   0  0  0  0  0  0  0  0  0  0  0  0
   19.2798  -12.7910  -16.7237 O   0  0  0  0  0  0  0  0  0  0  0  0
   21.5331   -9.7046  -18.4468 C   0  0  0  0  0  0  0  0  0  0  0  0
   20.6073  -10.5234  -17.5823 C   0  0  2  0  0  0  0  0  0  0  0  0
   19.6220  -11.2384  -18.3620 N   0  0  0  0  0  0  0  0  0  0  0  0
   19.9228   -9.7095  -16.5571 C   0  0  0  0  0  0  0  0  0  0  0  0
   18.7954   -9.2281  -16.8533 O   0  0  0  0  0  0  0  0  0  0  0  0
   20.4311   -9.4324  -15.2823 N   0  0  0  0  0  0  0  0  0  0  0  0
   19.7311   -8.4963  -14.4355 C   0  0  1  0  0  0  0  0  0  0  0  0
   19.2717   -9.2795  -13.2084 C   0  0  0  0  0  0  0  0  0  0  0  0
   18.5735   -8.1784  -11.9695 S   0  0  0  0  0  0  0  0  0  0  0  0
   20.5783   -7.3444  -14.0460 C   0  0  0  0  0  0  0  0  0  0  0  0
   21.8155   -7.4211  -13.8362 O   0  0  0  0  0  0  0  0  0  0  0  0
   19.9835   -6.0995  -13.9003 O   0  0  0  0  0  0  0  0  0  0  0  0
  2  1  1  6
  2  3  1  0
  4  5  2  0
  4  2  1  0
  7  6  1  6
  7  8  1  0
  8  4  1  0
  9  7  1  0
 10  9  2  0
 11  9  1  0
 12 15  1  0
 12 11  1  0
 12 13  1  1
 14 13  1  0
 15 17  1  0
 16 15  2  0
M  END
$$$$
