AAC.pdb
     RDKit          3D

 17 16  0  0  1  0  0  0  0  0999 V2000
   17.5974  -13.2155  -15.8198 C   0  0  0  0  0  0  0  0  0  0  0  0
   17.6903  -12.0793  -14.8565 C   0  0  2  0  0  0  0  0  0  0  0  0
   16.5065  -11.8334  -14.0996 N   0  0  0  0  0  0  0  0  0  0  0  0
   18.1653  -10.8420  -15.5719 C   0  0  0  0  0  0  0  0  0  0  0  0
   19.3069  -10.8493  -16.1004 O   0  0  0  0  0  0  0  0  0  0  0  0
   16.8203   -7.6926  -16.9966 C   0  0  0  0  0  0  0  0  0  0  0  0
   17.9026   -8.4748  -16.2957 C   0  0  2  0  0  0  0  0  0  0  0  0
   17.3933   -9.6783  -15.6774 N   0  0  0  0  0  0  0  0  0  0  0  0
   18.6174   -7.6702  -15.2840 C   0  0  0  0  0  0  0  0  0  0  0  0
   18.1929   -7.7164  -14.0973 O   0  0  0  0  0  0  0  0  0  0  0  0
   19.7301   -6.8608  -15.5430 N   0  0  0  0  0  0  0  0  0  0  0  0
   20.2866   -6.0685  -14.4725 C   0  0  1  0  0  0  0  0  0  0  0  0
   21.8012   -6.2440  -14.5439 C   0  0  0  0  0  0  0  0  0  0  0  0
   22.6240   -5.2182  -13.3169 S   0  0  0  0  0  0  0  0  0  0  0  0
   19.9105   -4.6386  -14.5737 C   0  0  0  0  0  0  0  0  0  0  0  0
   19.8412   -4.0052  -15.6575 O   0  0  0  0  0  0  0  0  0  0  0  0
   19.6142   -3.9440  -13.4099 O   0  0  0  0  0  0  0  0  0  0  0  0
  2  1  1  6
  2  3  1  0
  4  5  2  0
  4  2  1  0
  7  6  1  1
  7  8  1  0
  8  4  1  0
  9  7  1  0
 10  9  2  0
 11  9  1  0
 12 15  1  0
 12 11  1  0
 12 13  1  6
 14 13  1  0
 15 17  1  0
 16 15  2  0
M  END
$$$$
