AAC.pdb
     RDKit          3D

 17 16  0  0  1  0  0  0  0  0999 V2000
   24.0961  -12.7616  -19.3238 C   0  0  0  0  0  0  0  0  0  0  0  0
   25.2042  -12.1391  -18.5413 C   0  0  2  0  0  0  0  0  0  0  0  0
   25.9238  -13.0365  -17.6979 N   0  0  0  0  0  0  0  0  0  0  0  0
   24.6839  -10.9489  -17.7791 C   0  0  0  0  0  0  0  0  0  0  0  0
   24.6299  -11.0107  -16.5238 O   0  0  0  0  0  0  0  0  0  0  0  0
   23.8620   -7.3524  -18.4900 C   0  0  0  0  0  0  0  0  0  0  0  0
   23.8584   -8.6041  -17.6485 C   0  0  2  0  0  0  0  0  0  0  0  0
   24.2553   -9.7711  -18.4040 N   0  0  0  0  0  0  0  0  0  0  0  0
   22.5487   -8.8551  -17.0133 C   0  0  0  0  0  0  0  0  0  0  0  0
   21.7455   -9.6174  -17.6168 O   0  0  0  0  0  0  0  0  0  0  0  0
   22.1322   -8.3109  -15.7924 N   0  0  0  0  0  0  0  0  0  0  0  0
   20.8190   -8.6369  -15.2898 C   0  0  1  0  0  0  0  0  0  0  0  0
   20.9724   -8.8648  -13.7882 C   0  0  0  0  0  0  0  0  0  0  0  0
   21.8224  -10.4152  -13.4588 S   0  0  0  0  0  0  0  0  0  0  0  0
   19.8271   -7.5716  -15.5684 C   0  0  0  0  0  0  0  0  0  0  0  0
   20.1152   -6.4590  -16.0782 O   0  0  0  0  0  0  0  0  0  0  0  0
   18.4960   -7.8020  -15.2526 O   0  0  0  0  0  0  0  0  0  0  0  0
  2  1  1  1
  2  3  1  0
  4  5  2  0
  4  2  1  0
  7  6  1  6
  7  8  1  0
  8  4  1  0
  9  7  1  0
 10  9  2  0
 11  9  1  0
 12 15  1  0
 12 11  1  0
 12 13  1  1
 14 13  1  0
 15 17  1  0
 16 15  2  0
M  END
$$$$
