YDP.pdb
     RDKit          3D

 28 29  0  0  1  0  0  0  0  0999 V2000
   10.0967  -13.6732  -11.3829 O   0  0  0  0  0  0  0  0  0  0  0  0
   11.4075  -13.3806  -11.6929 C   0  0  0  0  0  0  0  0  0  0  0  0
   11.6930  -12.4479  -12.6860 C   0  0  0  0  0  0  0  0  0  0  0  0
   12.9976  -12.1580  -12.9930 C   0  0  0  0  0  0  0  0  0  0  0  0
   14.0031  -12.8134  -12.2935 C   0  0  0  0  0  0  0  0  0  0  0  0
   15.4123  -12.5024  -12.6228 C   0  0  0  0  0  0  0  0  0  0  0  0
   15.9221  -13.3906  -13.7344 C   0  0  2  0  0  0  0  0  0  0  0  0
   15.9951  -14.7371  -13.2447 N   0  0  0  0  0  0  0  0  0  0  0  0
   17.2599  -12.8698  -14.1364 C   0  0  0  0  0  0  0  0  0  0  0  0
   18.2925  -13.2502  -13.5335 O   0  0  0  0  0  0  0  0  0  0  0  0
   13.7273  -13.7321  -11.3153 C   0  0  0  0  0  0  0  0  0  0  0  0
   12.4221  -14.0123  -11.0185 C   0  0  0  0  0  0  0  0  0  0  0  0
   17.3758  -11.9505  -15.1913 N   0  0  0  0  0  0  0  0  0  0  0  0
   18.6533  -11.3890  -15.6312 C   0  0  1  0  0  0  0  0  0  0  0  0
   18.7634  -11.5164  -17.1319 C   0  0  0  0  0  0  0  0  0  0  0  0
   20.0495  -11.0751  -17.6803 C   0  0  0  0  0  0  0  0  0  0  0  0
   20.1013   -9.8567  -18.0493 O   0  0  0  0  0  0  0  0  0  0  0  0
   18.7422  -10.0098  -15.1351 C   0  0  0  0  0  0  0  0  0  0  0  0
   17.6047   -9.3997  -15.0407 O   0  0  0  0  0  0  0  0  0  0  0  0
   21.1888  -11.8088  -17.8415 O   0  0  0  0  0  0  0  0  0  0  0  0
   19.8791   -9.2918  -14.7588 N   0  0  0  0  0  0  0  0  0  0  0  0
   21.2309   -9.7873  -14.8048 C   0  0  0  0  0  0  0  0  0  0  0  0
   21.8426   -9.1454  -13.5606 C   0  0  0  0  0  0  0  0  0  0  0  0
   20.8287   -8.1391  -13.0571 C   0  0  0  0  0  0  0  0  0  0  0  0
   19.9735   -7.9485  -14.2990 C   0  0  1  0  0  0  0  0  0  0  0  0
   20.6250   -7.0400  -15.2721 C   0  0  0  0  0  0  0  0  0  0  0  0
   21.1177   -7.5072  -16.4499 O   0  0  0  0  0  0  0  0  0  0  0  0
   20.7160   -5.8267  -14.9929 O   0  0  0  0  0  0  0  0  0  0  0  0
  1  2  1  0
  2  3  2  0
  3  4  1  0
  5  4  2  0
  5  6  1  0
  7  6  1  0
  7  8  1  1
  9  7  1  0
  9 13  1  0
 10  9  2  0
 11  5  1  0
 12  2  1  0
 12 11  2  0
 14 13  1  0
 14 18  1  0
 14 15  1  6
 15 16  1  0
 16 17  2  0
 16 20  1  0
 18 19  2  0
 21 18  1  0
 21 22  1  0
 22 23  1  0
 24 23  1  0
 25 24  1  0
 25 21  1  0
 25 26  1  6
 27 26  1  0
 28 26  2  0
M  END
$$$$
