YDP.pdb
     RDKit          3D

 28 29  0  0  1  0  0  0  0  0999 V2000
   30.7782  -18.5452  -18.7257 O   0  0  0  0  0  0  0  0  0  0  0  0
   29.6063  -18.3340  -18.0315 C   0  0  0  0  0  0  0  0  0  0  0  0
   28.8744  -17.1694  -18.2457 C   0  0  0  0  0  0  0  0  0  0  0  0
   27.7087  -16.9610  -17.5543 C   0  0  0  0  0  0  0  0  0  0  0  0
   27.2923  -17.9316  -16.6518 C   0  0  0  0  0  0  0  0  0  0  0  0
   26.0344  -17.7092  -15.9041 C   0  0  0  0  0  0  0  0  0  0  0  0
   24.9358  -18.6210  -16.4003 C   0  0  2  0  0  0  0  0  0  0  0  0
   24.7285  -18.3664  -17.7970 N   0  0  0  0  0  0  0  0  0  0  0  0
   23.7184  -18.3245  -15.5924 C   0  0  0  0  0  0  0  0  0  0  0  0
   23.1841  -17.1906  -15.6489 O   0  0  0  0  0  0  0  0  0  0  0  0
   28.0090  -19.0794  -16.4374 C   0  0  0  0  0  0  0  0  0  0  0  0
   29.1699  -19.2753  -17.1333 C   0  0  0  0  0  0  0  0  0  0  0  0
   23.1601  -19.3101  -14.7627 N   0  0  0  0  0  0  0  0  0  0  0  0
   21.9100  -19.1257  -14.0251 C   0  0  1  0  0  0  0  0  0  0  0  0
   20.8296  -18.6767  -14.9799 C   0  0  0  0  0  0  0  0  0  0  0  0
   19.5160  -18.4889  -14.3565 C   0  0  0  0  0  0  0  0  0  0  0  0
   18.7601  -19.5146  -14.3461 O   0  0  0  0  0  0  0  0  0  0  0  0
   21.6075  -20.3762  -13.3173 C   0  0  0  0  0  0  0  0  0  0  0  0
   21.8276  -21.4493  -14.0067 O   0  0  0  0  0  0  0  0  0  0  0  0
   19.0104  -17.3546  -13.7906 O   0  0  0  0  0  0  0  0  0  0  0  0
   21.1236  -20.5461  -12.0186 N   0  0  0  0  0  0  0  0  0  0  0  0
   20.7043  -19.4844  -11.1398 C   0  0  0  0  0  0  0  0  0  0  0  0
   21.1759  -19.9981   -9.7804 C   0  0  0  0  0  0  0  0  0  0  0  0
   21.6073  -21.4344   -9.9929 C   0  0  0  0  0  0  0  0  0  0  0  0
   20.9019  -21.7546  -11.3007 C   0  0  1  0  0  0  0  0  0  0  0  0
   19.4665  -22.0531  -11.0838 C   0  0  0  0  0  0  0  0  0  0  0  0
   18.4966  -21.2283  -11.5608 O   0  0  0  0  0  0  0  0  0  0  0  0
   19.1565  -23.0834  -10.4510 O   0  0  0  0  0  0  0  0  0  0  0  0
  1  2  1  0
  2  3  2  0
  3  4  1  0
  5  4  2  0
  5  6  1  0
  7  6  1  0
  7  8  1  6
  9  7  1  0
  9 13  1  0
 10  9  2  0
 11  5  1  0
 12  2  1  0
 12 11  2  0
 14 13  1  0
 14 18  1  0
 14 15  1  6
 15 16  1  0
 16 17  2  0
 16 20  1  0
 18 19  2  0
 21 18  1  0
 21 22  1  0
 22 23  1  0
 24 23  1  0
 25 24  1  0
 25 21  1  0
 25 26  1  1
 27 26  1  0
 28 26  2  0
M  END
$$$$
