YDP.pdb
     RDKit          3D

 28 29  0  0  1  0  0  0  0  0999 V2000
   27.8453  -26.1583  -18.7859 O   0  0  0  0  0  0  0  0  0  0  0  0
   26.9974  -25.3918  -18.0155 C   0  0  0  0  0  0  0  0  0  0  0  0
   26.2255  -24.3993  -18.6129 C   0  0  0  0  0  0  0  0  0  0  0  0
   25.3825  -23.6377  -17.8450 C   0  0  0  0  0  0  0  0  0  0  0  0
   25.3267  -23.8857  -16.4792 C   0  0  0  0  0  0  0  0  0  0  0  0
   24.4175  -23.0652  -15.6478 C   0  0  0  0  0  0  0  0  0  0  0  0
   24.9055  -21.6380  -15.5505 C   0  0  2  0  0  0  0  0  0  0  0  0
   26.2086  -21.6420  -14.9502 N   0  0  0  0  0  0  0  0  0  0  0  0
   23.9142  -20.8884  -14.7272 C   0  0  0  0  0  0  0  0  0  0  0  0
   24.0394  -20.8376  -13.4797 O   0  0  0  0  0  0  0  0  0  0  0  0
   26.0843  -24.8613  -15.8865 C   0  0  0  0  0  0  0  0  0  0  0  0
   26.9211  -25.6139  -16.6634 C   0  0  0  0  0  0  0  0  0  0  0  0
   22.8336  -20.2337  -15.3397 N   0  0  0  0  0  0  0  0  0  0  0  0
   21.8317  -19.4689  -14.5966 C   0  0  1  0  0  0  0  0  0  0  0  0
   21.5906  -18.1521  -15.2955 C   0  0  0  0  0  0  0  0  0  0  0  0
   20.5065  -17.3532  -14.7160 C   0  0  0  0  0  0  0  0  0  0  0  0
   20.5696  -17.1714  -13.4565 O   0  0  0  0  0  0  0  0  0  0  0  0
   20.6323  -20.3038  -14.4531 C   0  0  0  0  0  0  0  0  0  0  0  0
   20.3377  -21.0036  -15.5013 O   0  0  0  0  0  0  0  0  0  0  0  0
   19.4458  -16.7857  -15.3604 O   0  0  0  0  0  0  0  0  0  0  0  0
   19.7896  -20.4341  -13.3474 N   0  0  0  0  0  0  0  0  0  0  0  0
   19.9729  -19.7783  -12.0779 C   0  0  0  0  0  0  0  0  0  0  0  0
   19.4944  -20.8499  -11.0997 C   0  0  0  0  0  0  0  0  0  0  0  0
   18.8492  -21.9348  -11.9369 C   0  0  0  0  0  0  0  0  0  0  0  0
   18.5833  -21.1794  -13.2287 C   0  0  1  0  0  0  0  0  0  0  0  0
   17.3756  -20.3272  -13.1200 C   0  0  0  0  0  0  0  0  0  0  0  0
   17.4605  -18.9728  -13.2034 O   0  0  0  0  0  0  0  0  0  0  0  0
   16.2673  -20.8755  -12.9495 O   0  0  0  0  0  0  0  0  0  0  0  0
  1  2  1  0
  2  3  2  0
  3  4  1  0
  5  4  2  0
  5  6  1  0
  7  6  1  0
  7  8  1  1
  9  7  1  0
  9 13  1  0
 10  9  2  0
 11  5  1  0
 12  2  1  0
 12 11  2  0
 14 13  1  0
 14 18  1  0
 14 15  1  6
 15 16  1  0
 16 17  2  0
 16 20  1  0
 18 19  2  0
 21 18  1  0
 21 22  1  0
 22 23  1  0
 24 23  1  0
 25 24  1  0
 25 21  1  0
 25 26  1  1
 27 26  1  0
 28 26  2  0
M  END
$$$$
