YDP.pdb
     RDKit          3D

 28 29  0  0  1  0  0  0  0  0999 V2000
   29.5110  -13.8280  -16.7396 O   0  0  0  0  0  0  0  0  0  0  0  0
   28.3685  -13.0578  -16.7805 C   0  0  0  0  0  0  0  0  0  0  0  0
   27.6453  -12.9536  -17.9653 C   0  0  0  0  0  0  0  0  0  0  0  0
   26.5090  -12.1870  -18.0041 C   0  0  0  0  0  0  0  0  0  0  0  0
   26.1130  -11.5319  -16.8447 C   0  0  0  0  0  0  0  0  0  0  0  0
   24.8867  -10.7038  -16.8837 C   0  0  0  0  0  0  0  0  0  0  0  0
   23.7216  -11.4231  -16.2438 C   0  0  2  0  0  0  0  0  0  0  0  0
   23.5352  -12.6768  -16.9159 N   0  0  0  0  0  0  0  0  0  0  0  0
   22.5302  -10.5367  -16.3758 C   0  0  0  0  0  0  0  0  0  0  0  0
   21.8281  -10.5736  -17.4151 O   0  0  0  0  0  0  0  0  0  0  0  0
   26.8213  -11.6314  -15.6762 C   0  0  0  0  0  0  0  0  0  0  0  0
   27.9528  -12.3990  -15.6507 C   0  0  0  0  0  0  0  0  0  0  0  0
   22.1839   -9.6544  -15.3399 N   0  0  0  0  0  0  0  0  0  0  0  0
   21.0249   -8.7633  -15.3972 C   0  0  1  0  0  0  0  0  0  0  0  0
   20.4229   -8.6392  -14.0178 C   0  0  0  0  0  0  0  0  0  0  0  0
   19.2382   -7.7777  -13.9538 C   0  0  0  0  0  0  0  0  0  0  0  0
   18.1593   -8.2923  -14.3949 O   0  0  0  0  0  0  0  0  0  0  0  0
   21.4565   -7.4881  -15.9836 C   0  0  0  0  0  0  0  0  0  0  0  0
   22.6823   -7.1653  -15.7221 O   0  0  0  0  0  0  0  0  0  0  0  0
   19.1546   -6.5000  -13.4818 O   0  0  0  0  0  0  0  0  0  0  0  0
   20.7229   -6.6008  -16.7737 N   0  0  0  0  0  0  0  0  0  0  0  0
   19.3458   -6.7721  -17.1604 C   0  0  0  0  0  0  0  0  0  0  0  0
   19.3456   -6.2044  -18.5788 C   0  0  0  0  0  0  0  0  0  0  0  0
   20.6905   -5.5347  -18.7709 C   0  0  0  0  0  0  0  0  0  0  0  0
   21.1292   -5.3543  -17.3268 C   0  0  1  0  0  0  0  0  0  0  0  0
   20.4627   -4.1889  -16.6990 C   0  0  0  0  0  0  0  0  0  0  0  0
   19.5447   -4.3523  -15.7095 O   0  0  0  0  0  0  0  0  0  0  0  0
   20.7590   -3.0427  -17.0947 O   0  0  0  0  0  0  0  0  0  0  0  0
  1  2  1  0
  2  3  2  0
  3  4  1  0
  5  4  2  0
  5  6  1  0
  7  6  1  0
  7  8  1  6
  9  7  1  0
  9 13  1  0
 10  9  2  0
 11  5  1  0
 12  2  1  0
 12 11  2  0
 14 13  1  0
 14 18  1  0
 14 15  1  1
 15 16  1  0
 16 17  2  0
 16 20  1  0
 18 19  2  0
 21 18  1  0
 21 22  1  0
 22 23  1  0
 24 23  1  0
 25 24  1  0
 25 21  1  0
 25 26  1  1
 27 26  1  0
 28 26  2  0
M  END
$$$$
