YDP.pdb
     RDKit          3D

 28 29  0  0  1  0  0  0  0  0999 V2000
   20.8526  -30.2157  -16.9931 O   0  0  0  0  0  0  0  0  0  0  0  0
   21.9317  -29.4298  -16.6498 C   0  0  0  0  0  0  0  0  0  0  0  0
   21.7273  -28.2259  -15.9815 C   0  0  0  0  0  0  0  0  0  0  0  0
   22.8020  -27.4454  -15.6408 C   0  0  0  0  0  0  0  0  0  0  0  0
   24.0748  -27.8883  -15.9784 C   0  0  0  0  0  0  0  0  0  0  0  0
   25.2367  -27.0478  -15.6117 C   0  0  0  0  0  0  0  0  0  0  0  0
   25.6992  -26.2141  -16.7845 C   0  0  2  0  0  0  0  0  0  0  0  0
   26.7021  -26.9500  -17.4994 N   0  0  0  0  0  0  0  0  0  0  0  0
   26.2321  -24.9355  -16.2334 C   0  0  0  0  0  0  0  0  0  0  0  0
   27.3739  -24.5332  -16.5634 O   0  0  0  0  0  0  0  0  0  0  0  0
   24.2811  -29.0724  -16.6360 C   0  0  0  0  0  0  0  0  0  0  0  0
   23.2010  -29.8416  -16.9702 C   0  0  0  0  0  0  0  0  0  0  0  0
   25.4622  -24.1716  -15.3417 N   0  0  0  0  0  0  0  0  0  0  0  0
   25.7902  -22.7941  -14.9732 C   0  0  1  0  0  0  0  0  0  0  0  0
   25.8790  -21.9514  -16.2232 C   0  0  0  0  0  0  0  0  0  0  0  0
   26.2645  -20.5575  -15.9828 C   0  0  0  0  0  0  0  0  0  0  0  0
   27.4893  -20.2803  -16.1985 O   0  0  0  0  0  0  0  0  0  0  0  0
   24.7911  -22.3296  -14.0026 C   0  0  0  0  0  0  0  0  0  0  0  0
   23.5831  -22.7257  -14.2455 O   0  0  0  0  0  0  0  0  0  0  0  0
   25.4735  -19.5295  -15.5583 O   0  0  0  0  0  0  0  0  0  0  0  0
   24.9806  -21.5315  -12.8725 N   0  0  0  0  0  0  0  0  0  0  0  0
   26.1960  -20.8338  -12.5393 C   0  0  0  0  0  0  0  0  0  0  0  0
   26.2225  -20.9601  -11.0169 C   0  0  0  0  0  0  0  0  0  0  0  0
   24.8733  -21.5159  -10.6111 C   0  0  0  0  0  0  0  0  0  0  0  0
   24.0495  -21.2002  -11.8488 C   0  0  1  0  0  0  0  0  0  0  0  0
   23.6315  -19.7785  -11.8739 C   0  0  0  0  0  0  0  0  0  0  0  0
   24.1497  -18.9088  -12.7815 O   0  0  0  0  0  0  0  0  0  0  0  0
   22.7877  -19.3860  -11.0420 O   0  0  0  0  0  0  0  0  0  0  0  0
  1  2  1  0
  2  3  2  0
  3  4  1  0
  5  4  2  0
  5  6  1  0
  7  6  1  0
  7  8  1  1
  9  7  1  0
  9 13  1  0
 10  9  2  0
 11  5  1  0
 12  2  1  0
 12 11  2  0
 14 13  1  0
 14 18  1  0
 14 15  1  6
 15 16  1  0
 16 17  2  0
 16 20  1  0
 18 19  2  0
 21 18  1  0
 21 22  1  0
 22 23  1  0
 24 23  1  0
 25 24  1  0
 25 21  1  0
 25 26  1  1
 27 26  1  0
 28 26  2  0
M  END
$$$$
