YDP.pdb
     RDKit          3D

 28 29  0  0  1  0  0  0  0  0999 V2000
   15.6590  -18.1291  -12.5800 O   0  0  0  0  0  0  0  0  0  0  0  0
   16.9495  -18.6117  -12.6196 C   0  0  0  0  0  0  0  0  0  0  0  0
   17.4787  -19.0768  -13.8202 C   0  0  0  0  0  0  0  0  0  0  0  0
   18.7628  -19.5566  -13.8578 C   0  0  0  0  0  0  0  0  0  0  0  0
   19.5015  -19.5623  -12.6812 C   0  0  0  0  0  0  0  0  0  0  0  0
   20.8878  -20.0796  -12.7189 C   0  0  0  0  0  0  0  0  0  0  0  0
   21.0844  -21.0308  -13.8769 C   0  0  2  0  0  0  0  0  0  0  0  0
   20.2210  -22.1612  -13.6898 N   0  0  0  0  0  0  0  0  0  0  0  0
   22.5228  -21.4227  -13.8861 C   0  0  0  0  0  0  0  0  0  0  0  0
   23.0804  -21.8020  -12.8280 O   0  0  0  0  0  0  0  0  0  0  0  0
   18.9852  -19.1057  -11.4972 C   0  0  0  0  0  0  0  0  0  0  0  0
   17.7034  -18.6297  -11.4730 C   0  0  0  0  0  0  0  0  0  0  0  0
   23.2647  -21.3709  -15.0771 N   0  0  0  0  0  0  0  0  0  0  0  0
   24.7082  -21.6030  -15.1352 C   0  0  1  0  0  0  0  0  0  0  0  0
   24.9843  -22.8118  -15.9971 C   0  0  0  0  0  0  0  0  0  0  0  0
   26.4059  -23.1461  -16.1268 C   0  0  0  0  0  0  0  0  0  0  0  0
   27.2169  -22.3110  -15.6090 O   0  0  0  0  0  0  0  0  0  0  0  0
   25.3517  -20.3690  -15.6035 C   0  0  0  0  0  0  0  0  0  0  0  0
   24.5672  -19.5666  -16.2484 O   0  0  0  0  0  0  0  0  0  0  0  0
   26.9594  -24.2369  -16.7320 O   0  0  0  0  0  0  0  0  0  0  0  0
   26.6776  -19.9627  -15.4402 N   0  0  0  0  0  0  0  0  0  0  0  0
   27.6958  -20.7028  -14.7397 C   0  0  0  0  0  0  0  0  0  0  0  0
   28.4963  -19.5834  -14.0761 C   0  0  0  0  0  0  0  0  0  0  0  0
   27.9906  -18.2859  -14.6718 C   0  0  0  0  0  0  0  0  0  0  0  0
   27.3197  -18.7943  -15.9374 C   0  0  1  0  0  0  0  0  0  0  0  0
   28.3122  -19.0780  -17.0009 C   0  0  0  0  0  0  0  0  0  0  0  0
   28.5618  -20.3507  -17.4089 O   0  0  0  0  0  0  0  0  0  0  0  0
   28.9222  -18.1224  -17.5233 O   0  0  0  0  0  0  0  0  0  0  0  0
  1  2  1  0
  2  3  2  0
  3  4  1  0
  5  4  2  0
  5  6  1  0
  7  6  1  0
  7  8  1  1
  9  7  1  0
  9 13  1  0
 10  9  2  0
 11  5  1  0
 12  2  1  0
 12 11  2  0
 14 13  1  0
 14 18  1  0
 14 15  1  6
 15 16  1  0
 16 17  2  0
 16 20  1  0
 18 19  2  0
 21 18  1  0
 21 22  1  0
 22 23  1  0
 24 23  1  0
 25 24  1  0
 25 21  1  0
 25 26  1  6
 27 26  1  0
 28 26  2  0
M  END
$$$$
