YDP.pdb
     RDKit          3D

 28 29  0  0  1  0  0  0  0  0999 V2000
   29.0275  -19.9010   -4.2545 O   0  0  0  0  0  0  0  0  0  0  0  0
   28.3495  -19.9683   -5.4527 C   0  0  0  0  0  0  0  0  0  0  0  0
   28.1226  -18.8073   -6.1865 C   0  0  0  0  0  0  0  0  0  0  0  0
   27.4480  -18.8762   -7.3784 C   0  0  0  0  0  0  0  0  0  0  0  0
   27.0082  -20.1182   -7.8188 C   0  0  0  0  0  0  0  0  0  0  0  0
   26.2798  -20.1955   -9.1050 C   0  0  0  0  0  0  0  0  0  0  0  0
   26.8935  -21.2314  -10.0187 C   0  0  2  0  0  0  0  0  0  0  0  0
   28.2993  -20.9664  -10.1287 N   0  0  0  0  0  0  0  0  0  0  0  0
   26.2010  -21.1243  -11.3345 C   0  0  0  0  0  0  0  0  0  0  0  0
   26.4930  -20.1971  -12.1279 O   0  0  0  0  0  0  0  0  0  0  0  0
   27.2291  -21.2637   -7.1003 C   0  0  0  0  0  0  0  0  0  0  0  0
   27.9031  -21.1815   -5.9132 C   0  0  0  0  0  0  0  0  0  0  0  0
   25.2174  -22.0585  -11.6968 N   0  0  0  0  0  0  0  0  0  0  0  0
   24.4611  -21.9851  -12.9472 C   0  0  1  0  0  0  0  0  0  0  0  0
   24.0376  -23.3758  -13.3560 C   0  0  0  0  0  0  0  0  0  0  0  0
   25.0518  -24.1151  -14.1139 C   0  0  0  0  0  0  0  0  0  0  0  0
   25.7898  -23.4109  -14.8774 O   0  0  0  0  0  0  0  0  0  0  0  0
   23.3472  -21.0480  -12.7540 C   0  0  0  0  0  0  0  0  0  0  0  0
   23.0493  -20.8173  -11.5158 O   0  0  0  0  0  0  0  0  0  0  0  0
   25.2971  -25.4574  -14.0990 O   0  0  0  0  0  0  0  0  0  0  0  0
   22.5874  -20.3877  -13.7217 N   0  0  0  0  0  0  0  0  0  0  0  0
   22.7840  -20.4856  -15.1454 C   0  0  0  0  0  0  0  0  0  0  0  0
   22.4662  -19.0633  -15.6042 C   0  0  0  0  0  0  0  0  0  0  0  0
   21.8762  -18.3499  -14.4055 C   0  0  0  0  0  0  0  0  0  0  0  0
   21.4649  -19.5317  -13.5428 C   0  0  1  0  0  0  0  0  0  0  0  0
   20.1917  -20.1284  -14.0115 C   0  0  0  0  0  0  0  0  0  0  0  0
   18.9923  -19.5977  -13.6535 O   0  0  0  0  0  0  0  0  0  0  0  0
   20.2358  -21.1353  -14.7479 O   0  0  0  0  0  0  0  0  0  0  0  0
  1  2  1  0
  2  3  2  0
  3  4  1  0
  5  4  2  0
  5  6  1  0
  7  6  1  0
  7  8  1  6
  9  7  1  0
  9 13  1  0
 10  9  2  0
 11  5  1  0
 12  2  1  0
 12 11  2  0
 14 13  1  0
 14 18  1  0
 14 15  1  1
 15 16  1  0
 16 17  2  0
 16 20  1  0
 18 19  2  0
 21 18  1  0
 21 22  1  0
 22 23  1  0
 24 23  1  0
 25 24  1  0
 25 21  1  0
 25 26  1  6
 27 26  1  0
 28 26  2  0
M  END
$$$$
