YDP.pdb
     RDKit          3D

 28 29  0  0  1  0  0  0  0  0999 V2000
   26.3817  -21.0307   -8.3757 O   0  0  0  0  0  0  0  0  0  0  0  0
   25.8975  -20.8631   -9.6553 C   0  0  0  0  0  0  0  0  0  0  0  0
   25.6596  -21.9757  -10.4574 C   0  0  0  0  0  0  0  0  0  0  0  0
   25.1779  -21.8071  -11.7301 C   0  0  0  0  0  0  0  0  0  0  0  0
   24.9405  -20.5150  -12.1818 C   0  0  0  0  0  0  0  0  0  0  0  0
   24.4204  -20.3300  -13.5552 C   0  0  0  0  0  0  0  0  0  0  0  0
   22.9562  -19.9553  -13.5387 C   0  0  2  0  0  0  0  0  0  0  0  0
   22.2055  -21.0723  -13.0416 N   0  0  0  0  0  0  0  0  0  0  0  0
   22.5752  -19.6048  -14.9368 C   0  0  0  0  0  0  0  0  0  0  0  0
   22.2885  -20.5087  -15.7584 O   0  0  0  0  0  0  0  0  0  0  0  0
   25.1730  -19.4167  -11.3963 C   0  0  0  0  0  0  0  0  0  0  0  0
   25.6534  -19.5984  -10.1289 C   0  0  0  0  0  0  0  0  0  0  0  0
   22.5340  -18.2621  -15.3455 N   0  0  0  0  0  0  0  0  0  0  0  0
   22.0834  -17.8394  -16.6718 C   0  0  1  0  0  0  0  0  0  0  0  0
   21.3696  -16.5136  -16.5566 C   0  0  0  0  0  0  0  0  0  0  0  0
   20.2383  -16.5185  -15.6241 C   0  0  0  0  0  0  0  0  0  0  0  0
   20.1114  -15.4727  -14.9075 O   0  0  0  0  0  0  0  0  0  0  0  0
   23.2475  -17.8217  -17.5667 C   0  0  0  0  0  0  0  0  0  0  0  0
   24.3794  -17.6274  -16.9700 O   0  0  0  0  0  0  0  0  0  0  0  0
   19.3123  -17.5028  -15.4336 O   0  0  0  0  0  0  0  0  0  0  0  0
   23.2825  -17.9870  -18.9527 N   0  0  0  0  0  0  0  0  0  0  0  0
   22.1310  -18.1601  -19.8008 C   0  0  0  0  0  0  0  0  0  0  0  0
   22.6540  -19.1486  -20.8417 C   0  0  0  0  0  0  0  0  0  0  0  0
   24.1483  -19.2536  -20.6177 C   0  0  0  0  0  0  0  0  0  0  0  0
   24.4085  -17.9846  -19.8227 C   0  0  1  0  0  0  0  0  0  0  0  0
   24.4660  -16.7945  -20.7042 C   0  0  0  0  0  0  0  0  0  0  0  0
   25.5225  -16.5836  -21.5335 O   0  0  0  0  0  0  0  0  0  0  0  0
   23.5208  -15.9797  -20.6752 O   0  0  0  0  0  0  0  0  0  0  0  0
  1  2  1  0
  2  3  2  0
  3  4  1  0
  5  4  2  0
  5  6  1  0
  7  6  1  0
  7  8  1  6
  9  7  1  0
  9 13  1  0
 10  9  2  0
 11  5  1  0
 12  2  1  0
 12 11  2  0
 14 13  1  0
 14 18  1  0
 14 15  1  1
 15 16  1  0
 16 17  2  0
 16 20  1  0
 18 19  2  0
 21 18  1  0
 21 22  1  0
 22 23  1  0
 24 23  1  0
 25 24  1  0
 25 21  1  0
 25 26  1  6
 27 26  1  0
 28 26  2  0
M  END
$$$$
