YDP.pdb
     RDKit          3D

 28 29  0  0  1  0  0  0  0  0999 V2000
   16.8214  -26.1005  -10.2806 O   0  0  0  0  0  0  0  0  0  0  0  0
   17.6114  -25.2124  -10.9784 C   0  0  0  0  0  0  0  0  0  0  0  0
   18.9083  -25.5710  -11.3351 C   0  0  0  0  0  0  0  0  0  0  0  0
   19.6929  -24.6862  -12.0293 C   0  0  0  0  0  0  0  0  0  0  0  0
   19.1599  -23.4458  -12.3573 C   0  0  0  0  0  0  0  0  0  0  0  0
   20.0045  -22.4887  -13.1067 C   0  0  0  0  0  0  0  0  0  0  0  0
   21.0476  -21.8625  -12.2098 C   0  0  2  0  0  0  0  0  0  0  0  0
   20.4004  -20.9100  -11.3543 N   0  0  0  0  0  0  0  0  0  0  0  0
   22.0611  -21.2199  -13.0944 C   0  0  0  0  0  0  0  0  0  0  0  0
   21.8886  -20.0462  -13.5030 O   0  0  0  0  0  0  0  0  0  0  0  0
   17.8842  -23.0881  -12.0086 C   0  0  0  0  0  0  0  0  0  0  0  0
   17.1120  -23.9796  -11.3163 C   0  0  0  0  0  0  0  0  0  0  0  0
   23.2156  -21.9214  -13.4772 N   0  0  0  0  0  0  0  0  0  0  0  0
   24.2522  -21.3532  -14.3394 C   0  0  1  0  0  0  0  0  0  0  0  0
   25.5117  -22.1768  -14.2137 C   0  0  0  0  0  0  0  0  0  0  0  0
   26.6089  -21.7338  -15.0794 C   0  0  0  0  0  0  0  0  0  0  0  0
   26.6435  -22.2627  -16.2381 O   0  0  0  0  0  0  0  0  0  0  0  0
   23.7183  -21.2725  -15.7049 C   0  0  0  0  0  0  0  0  0  0  0  0
   22.8534  -22.1899  -15.9975 O   0  0  0  0  0  0  0  0  0  0  0  0
   27.5903  -20.8296  -14.7936 O   0  0  0  0  0  0  0  0  0  0  0  0
   24.0213  -20.3460  -16.7047 N   0  0  0  0  0  0  0  0  0  0  0  0
   24.9733  -19.2717  -16.5845 C   0  0  0  0  0  0  0  0  0  0  0  0
   24.2957  -18.1613  -17.3859 C   0  0  0  0  0  0  0  0  0  0  0  0
   23.1212  -18.8027  -18.0954 C   0  0  0  0  0  0  0  0  0  0  0  0
   23.5149  -20.2694  -18.0323 C   0  0  1  0  0  0  0  0  0  0  0  0
   24.5235  -20.6052  -19.0650 C   0  0  0  0  0  0  0  0  0  0  0  0
   24.1884  -20.6693  -20.3811 O   0  0  0  0  0  0  0  0  0  0  0  0
   25.6978  -20.8303  -18.7065 O   0  0  0  0  0  0  0  0  0  0  0  0
  1  2  1  0
  2  3  2  0
  3  4  1  0
  5  4  2  0
  5  6  1  0
  7  6  1  0
  7  8  1  1
  9  7  1  0
  9 13  1  0
 10  9  2  0
 11  5  1  0
 12  2  1  0
 12 11  2  0
 14 13  1  0
 14 18  1  0
 14 15  1  6
 15 16  1  0
 16 17  2  0
 16 20  1  0
 18 19  2  0
 21 18  1  0
 21 22  1  0
 22 23  1  0
 24 23  1  0
 25 24  1  0
 25 21  1  0
 25 26  1  6
 27 26  1  0
 28 26  2  0
M  END
$$$$
