NMA.pdb
     RDKit          3D

 22 21  0  0  1  0  0  0  0  0999 V2000
    6.5885  -14.0486   18.1340 N   0  0  0  0  0  0  0  0  0  0  0  0
    7.7861  -13.4744   18.5917 C   0  0  0  0  0  0  0  0  0  0  0  0
    8.6728  -13.1427   17.7752 O   0  0  0  0  0  0  0  0  0  0  0  0
    7.9899  -13.2657   20.0412 C   0  0  0  0  0  0  0  0  0  0  0  0
    8.4972  -14.5434   20.6683 C   0  0  2  0  0  0  0  0  0  0  0  0
    7.4735  -15.5539   20.5369 N   0  0  0  0  0  0  0  0  0  0  0  0
    8.7929  -14.3768   22.1107 C   0  0  0  0  0  0  0  0  0  0  0  0
    9.8692  -13.8500   22.5247 O   0  0  0  0  0  0  0  0  0  0  0  0
    5.7148  -11.7198   27.7460 C   0  0  0  0  0  0  0  0  0  0  0  0
    6.9821  -11.6315   26.4229 S   0  0  0  0  0  0  0  0  0  0  0  0
    6.4629  -12.7488   25.1240 C   0  0  0  0  0  0  0  0  0  0  0  0
    6.9070  -14.1514   25.2563 C   0  0  0  0  0  0  0  0  0  0  0  0
    8.1215  -14.5941   24.5513 C   0  0  2  0  0  0  0  0  0  0  0  0
    7.8858  -14.7981   23.1373 N   0  0  0  0  0  0  0  0  0  0  0  0
    8.8663  -15.7015   25.1642 C   0  0  0  0  0  0  0  0  0  0  0  0
    9.0231  -15.8743   26.3879 O   0  0  0  0  0  0  0  0  0  0  0  0
   10.2388  -18.9192   23.8203 C   0  0  0  0  0  0  0  0  0  0  0  0
   10.1676  -17.8473   24.8655 C   0  0  2  0  0  0  0  0  0  0  0  0
    9.4699  -16.6733   24.3151 N   0  0  0  0  0  0  0  0  0  0  0  0
   11.5539  -17.4610   25.2193 C   0  0  0  0  0  0  0  0  0  0  0  0
   12.0712  -16.2121   24.9469 O   0  0  0  0  0  0  0  0  0  0  0  0
   12.2882  -18.3021   25.7894 O   0  0  0  0  0  0  0  0  0  0  0  0
  1  2  1  0
  2  4  1  0
  3  2  2  0
  4  5  1  0
  5  6  1  1
  7  5  1  0
  8  7  2  0
 10 11  1  0
 10  9  1  0
 11 12  1  0
 13 12  1  1
 13 15  1  0
 13 14  1  0
 14  7  1  0
 15 19  1  0
 16 15  2  0
 18 17  1  6
 18 20  1  0
 19 18  1  0
 20 22  2  0
 20 21  1  0
M  END
$$$$
