NMA.pdb
     RDKit          3D

 22 21  0  0  1  0  0  0  0  0999 V2000
    7.4506  -12.8190   17.2961 N   0  0  0  0  0  0  0  0  0  0  0  0
    8.2980  -13.7810   17.8704 C   0  0  0  0  0  0  0  0  0  0  0  0
    8.6231  -14.7972   17.2186 O   0  0  0  0  0  0  0  0  0  0  0  0
    8.8012  -13.5841   19.2467 C   0  0  0  0  0  0  0  0  0  0  0  0
    8.5409  -14.8294   20.0619 C   0  0  2  0  0  0  0  0  0  0  0  0
    7.1350  -15.1482   19.9715 N   0  0  0  0  0  0  0  0  0  0  0  0
    8.8754  -14.6385   21.4927 C   0  0  0  0  0  0  0  0  0  0  0  0
   10.0554  -14.3918   21.8850 O   0  0  0  0  0  0  0  0  0  0  0  0
    6.9655  -10.7666   26.6464 C   0  0  0  0  0  0  0  0  0  0  0  0
    6.2560  -12.4398   26.8941 S   0  0  0  0  0  0  0  0  0  0  0  0
    7.3780  -13.6042   26.1256 C   0  0  0  0  0  0  0  0  0  0  0  0
    7.2483  -13.7641   24.6628 C   0  0  0  0  0  0  0  0  0  0  0  0
    8.2029  -14.6231   23.9427 C   0  0  2  0  0  0  0  0  0  0  0  0
    7.8915  -14.7189   22.5319 N   0  0  0  0  0  0  0  0  0  0  0  0
    8.4904  -15.9305   24.5466 C   0  0  0  0  0  0  0  0  0  0  0  0
    7.6760  -16.8662   24.6608 O   0  0  0  0  0  0  0  0  0  0  0  0
   11.5616  -17.8380   25.1891 C   0  0  0  0  0  0  0  0  0  0  0  0
   10.1694  -17.4860   25.6184 C   0  0  2  0  0  0  0  0  0  0  0  0
    9.7992  -16.1782   25.0521 N   0  0  0  0  0  0  0  0  0  0  0  0
   10.1574  -17.3906   27.0973 C   0  0  0  0  0  0  0  0  0  0  0  0
   10.4176  -18.4700   27.9150 O   0  0  0  0  0  0  0  0  0  0  0  0
    9.9004  -16.2846   27.6288 O   0  0  0  0  0  0  0  0  0  0  0  0
  1  2  1  0
  2  4  1  0
  3  2  2  0
  4  5  1  0
  5  6  1  1
  7  5  1  0
  8  7  2  0
 10 11  1  0
 10  9  1  0
 11 12  1  0
 13 12  1  1
 13 15  1  0
 13 14  1  0
 14  7  1  0
 15 19  1  0
 16 15  2  0
 18 17  1  6
 18 20  1  0
 19 18  1  0
 20 22  2  0
 20 21  1  0
M  END
$$$$
