NMA.pdb
     RDKit          3D

 22 21  0  0  1  0  0  0  0  0999 V2000
   11.8694  -19.1044   19.5795 N   0  0  0  0  0  0  0  0  0  0  0  0
   10.8799  -18.9106   20.5577 C   0  0  0  0  0  0  0  0  0  0  0  0
    9.8602  -19.6340   20.5678 O   0  0  0  0  0  0  0  0  0  0  0  0
   11.0522  -17.8486   21.5719 C   0  0  0  0  0  0  0  0  0  0  0  0
    9.8227  -16.9706   21.5966 C   0  0  2  0  0  0  0  0  0  0  0  0
    9.7990  -16.1848   20.3849 N   0  0  0  0  0  0  0  0  0  0  0  0
    9.8282  -16.0369   22.7472 C   0  0  0  0  0  0  0  0  0  0  0  0
   10.8013  -15.2595   22.9836 O   0  0  0  0  0  0  0  0  0  0  0  0
    5.7163  -11.2920   25.1270 C   0  0  0  0  0  0  0  0  0  0  0  0
    5.5927  -12.7345   26.2532 S   0  0  0  0  0  0  0  0  0  0  0  0
    7.1690  -13.5812   26.1959 C   0  0  0  0  0  0  0  0  0  0  0  0
    7.3797  -14.4869   25.0481 C   0  0  0  0  0  0  0  0  0  0  0  0
    8.7188  -15.0503   24.8089 C   0  0  2  0  0  0  0  0  0  0  0  0
    8.7368  -15.9467   23.6719 N   0  0  0  0  0  0  0  0  0  0  0  0
    9.4117  -15.6081   25.9775 C   0  0  0  0  0  0  0  0  0  0  0  0
    9.4986  -16.8198   26.2532 O   0  0  0  0  0  0  0  0  0  0  0  0
   10.9857  -14.1364   29.0474 C   0  0  0  0  0  0  0  0  0  0  0  0
   10.8602  -15.2109   28.0101 C   0  0  2  0  0  0  0  0  0  0  0  0
   10.0459  -14.7146   26.8881 N   0  0  0  0  0  0  0  0  0  0  0  0
   10.1708  -16.3669   28.6304 C   0  0  0  0  0  0  0  0  0  0  0  0
    8.8673  -16.7039   28.3323 O   0  0  0  0  0  0  0  0  0  0  0  0
   10.7962  -17.0685   29.4601 O   0  0  0  0  0  0  0  0  0  0  0  0
  1  2  1  0
  2  4  1  0
  3  2  2  0
  4  5  1  0
  5  6  1  6
  7  5  1  0
  8  7  2  0
 10 11  1  0
 10  9  1  0
 11 12  1  0
 13 12  1  1
 13 15  1  0
 13 14  1  0
 14  7  1  0
 15 19  1  0
 16 15  2  0
 18 17  1  1
 18 20  1  0
 19 18  1  0
 20 22  2  0
 20 21  1  0
M  END
$$$$
