NMA.pdb
     RDKit          3D

 22 21  0  0  1  0  0  0  0  0999 V2000
   11.2622  -16.1190   18.0226 N   0  0  0  0  0  0  0  0  0  0  0  0
   10.0438  -16.0244   18.7155 C   0  0  0  0  0  0  0  0  0  0  0  0
    8.9798  -16.3750   18.1604 O   0  0  0  0  0  0  0  0  0  0  0  0
   10.0285  -15.5089   20.1012 C   0  0  0  0  0  0  0  0  0  0  0  0
    9.6045  -16.6105   21.0445 C   0  0  2  0  0  0  0  0  0  0  0  0
    8.2529  -16.9985   20.7145 N   0  0  0  0  0  0  0  0  0  0  0  0
    9.6214  -16.1697   22.4590 C   0  0  0  0  0  0  0  0  0  0  0  0
   10.6938  -15.8545   23.0572 O   0  0  0  0  0  0  0  0  0  0  0  0
    6.8901  -10.7382   25.6899 C   0  0  0  0  0  0  0  0  0  0  0  0
    6.7389  -12.4886   26.2168 S   0  0  0  0  0  0  0  0  0  0  0  0
    7.3136  -13.4979   24.8544 C   0  0  0  0  0  0  0  0  0  0  0  0
    7.2719  -14.9595   25.0646 C   0  0  0  0  0  0  0  0  0  0  0  0
    8.4286  -15.7796   24.6680 C   0  0  2  0  0  0  0  0  0  0  0  0
    8.4299  -16.0685   23.2492 N   0  0  0  0  0  0  0  0  0  0  0  0
    8.6976  -16.9694   25.4859 C   0  0  0  0  0  0  0  0  0  0  0  0
    7.8683  -17.8573   25.7608 O   0  0  0  0  0  0  0  0  0  0  0  0
   11.6394  -18.9328   26.1980 C   0  0  0  0  0  0  0  0  0  0  0  0
   10.3703  -18.3695   26.7624 C   0  0  2  0  0  0  0  0  0  0  0  0
   10.0050  -17.1500   26.0224 N   0  0  0  0  0  0  0  0  0  0  0  0
   10.6178  -18.0158   28.1801 C   0  0  0  0  0  0  0  0  0  0  0  0
   10.8944  -18.9606   29.1457 O   0  0  0  0  0  0  0  0  0  0  0  0
   10.5744  -16.8092   28.5177 O   0  0  0  0  0  0  0  0  0  0  0  0
  1  2  1  0
  2  4  1  0
  3  2  2  0
  4  5  1  0
  5  6  1  6
  7  5  1  0
  8  7  2  0
 10 11  1  0
 10  9  1  0
 11 12  1  0
 13 12  1  1
 13 15  1  0
 13 14  1  0
 14  7  1  0
 15 19  1  0
 16 15  2  0
 18 17  1  6
 18 20  1  0
 19 18  1  0
 20 22  2  0
 20 21  1  0
M  END
$$$$
