NMA.pdb
     RDKit          3D

 22 21  0  0  1  0  0  0  0  0999 V2000
    8.9006  -17.4318   17.3748 N   0  0  0  0  0  0  0  0  0  0  0  0
    8.0797  -17.2421   18.4989 C   0  0  0  0  0  0  0  0  0  0  0  0
    6.8365  -17.3083   18.3839 O   0  0  0  0  0  0  0  0  0  0  0  0
    8.6941  -16.9645   19.8148 C   0  0  0  0  0  0  0  0  0  0  0  0
    8.1772  -15.6473   20.3450 C   0  0  2  0  0  0  0  0  0  0  0  0
    8.6451  -14.5913   19.4777 N   0  0  0  0  0  0  0  0  0  0  0  0
    8.6693  -15.3664   21.7142 C   0  0  0  0  0  0  0  0  0  0  0  0
    9.8997  -15.2009   21.9707 O   0  0  0  0  0  0  0  0  0  0  0  0
    6.2744  -12.0703   27.4346 C   0  0  0  0  0  0  0  0  0  0  0  0
    7.5802  -11.8011   26.1749 S   0  0  0  0  0  0  0  0  0  0  0  0
    7.1920  -12.8580   24.7831 C   0  0  0  0  0  0  0  0  0  0  0  0
    7.3093  -14.3118   25.0175 C   0  0  0  0  0  0  0  0  0  0  0  0
    8.2513  -15.1006   24.2060 C   0  0  2  0  0  0  0  0  0  0  0  0
    7.7916  -15.2622   22.8425 N   0  0  0  0  0  0  0  0  0  0  0  0
    8.7253  -16.3600   24.7942 C   0  0  0  0  0  0  0  0  0  0  0  0
    7.9965  -17.2882   25.1930 O   0  0  0  0  0  0  0  0  0  0  0  0
   12.1041  -17.9668   25.0443 C   0  0  0  0  0  0  0  0  0  0  0  0
   10.6715  -17.8274   25.4622 C   0  0  2  0  0  0  0  0  0  0  0  0
   10.1283  -16.5654   24.9329 N   0  0  0  0  0  0  0  0  0  0  0  0
   10.6292  -17.7857   26.9430 C   0  0  0  0  0  0  0  0  0  0  0  0
   11.0057  -18.8544   27.7289 O   0  0  0  0  0  0  0  0  0  0  0  0
   10.2355  -16.7372   27.5064 O   0  0  0  0  0  0  0  0  0  0  0  0
  1  2  1  0
  2  4  1  0
  3  2  2  0
  4  5  1  0
  5  6  1  6
  7  5  1  0
  8  7  2  0
 10 11  1  0
 10  9  1  0
 11 12  1  0
 13 12  1  1
 13 15  1  0
 13 14  1  0
 14  7  1  0
 15 19  1  0
 16 15  2  0
 18 17  1  1
 18 20  1  0
 19 18  1  0
 20 22  2  0
 20 21  1  0
M  END
$$$$
