NMA.pdb
     RDKit          3D

 22 21  0  0  1  0  0  0  0  0999 V2000
    6.1839  -19.1908   20.3483 N   0  0  0  0  0  0  0  0  0  0  0  0
    6.9825  -18.4287   19.4795 C   0  0  0  0  0  0  0  0  0  0  0  0
    6.5968  -18.2026   18.3120 O   0  0  0  0  0  0  0  0  0  0  0  0
    8.2783  -17.8976   19.9540 C   0  0  0  0  0  0  0  0  0  0  0  0
    8.1841  -16.3969   20.1032 C   0  0  2  0  0  0  0  0  0  0  0  0
    9.0001  -15.7847   19.0807 N   0  0  0  0  0  0  0  0  0  0  0  0
    8.6803  -15.9361   21.4212 C   0  0  0  0  0  0  0  0  0  0  0  0
    9.8953  -16.0501   21.7647 O   0  0  0  0  0  0  0  0  0  0  0  0
    7.0903  -11.6946   27.9611 C   0  0  0  0  0  0  0  0  0  0  0  0
    6.4242  -12.2891   26.3588 S   0  0  0  0  0  0  0  0  0  0  0  0
    7.6362  -13.4134   25.6717 C   0  0  0  0  0  0  0  0  0  0  0  0
    7.3373  -13.9509   24.3286 C   0  0  0  0  0  0  0  0  0  0  0  0
    8.2755  -14.8987   23.7047 C   0  0  2  0  0  0  0  0  0  0  0  0
    7.8244  -15.3305   22.3983 N   0  0  0  0  0  0  0  0  0  0  0  0
    8.7294  -16.0164   24.5423 C   0  0  0  0  0  0  0  0  0  0  0  0
    8.0235  -16.9750   24.9088 O   0  0  0  0  0  0  0  0  0  0  0  0
   12.1053  -17.2966   25.4257 C   0  0  0  0  0  0  0  0  0  0  0  0
   10.6387  -17.1863   25.7142 C   0  0  2  0  0  0  0  0  0  0  0  0
   10.0828  -16.0328   24.9872 N   0  0  0  0  0  0  0  0  0  0  0  0
   10.4747  -16.9618   27.1699 C   0  0  0  0  0  0  0  0  0  0  0  0
   10.8808  -17.8800   28.1151 O   0  0  0  0  0  0  0  0  0  0  0  0
    9.9455  -15.8944   27.5602 O   0  0  0  0  0  0  0  0  0  0  0  0
  1  2  1  0
  2  4  1  0
  3  2  2  0
  4  5  1  0
  5  6  1  6
  7  5  1  0
  8  7  2  0
 10 11  1  0
 10  9  1  0
 11 12  1  0
 13 12  1  1
 13 15  1  0
 13 14  1  0
 14  7  1  0
 15 19  1  0
 16 15  2  0
 18 17  1  1
 18 20  1  0
 19 18  1  0
 20 22  2  0
 20 21  1  0
M  END
$$$$
