NMA.pdb
     RDKit          3D

 22 21  0  0  1  0  0  0  0  0999 V2000
    7.3359  -12.7464   18.0448 N   0  0  0  0  0  0  0  0  0  0  0  0
    8.3179  -13.4308   18.7801 C   0  0  0  0  0  0  0  0  0  0  0  0
    9.2564  -14.0055   18.1867 O   0  0  0  0  0  0  0  0  0  0  0  0
    8.2341  -13.4667   20.2558 C   0  0  0  0  0  0  0  0  0  0  0  0
    8.6829  -14.8210   20.7536 C   0  0  2  0  0  0  0  0  0  0  0  0
    7.6264  -15.7730   20.5010 N   0  0  0  0  0  0  0  0  0  0  0  0
    8.9559  -14.8165   22.2100 C   0  0  0  0  0  0  0  0  0  0  0  0
   10.1088  -14.5814   22.6820 O   0  0  0  0  0  0  0  0  0  0  0  0
    6.1105  -11.8719   27.7128 C   0  0  0  0  0  0  0  0  0  0  0  0
    7.4350  -11.8004   26.4459 S   0  0  0  0  0  0  0  0  0  0  0  0
    6.9356  -12.8748   25.1038 C   0  0  0  0  0  0  0  0  0  0  0  0
    7.1071  -14.3241   25.3324 C   0  0  0  0  0  0  0  0  0  0  0  0
    8.1699  -15.0477   24.6149 C   0  0  2  0  0  0  0  0  0  0  0  0
    7.9389  -15.0770   23.1858 N   0  0  0  0  0  0  0  0  0  0  0  0
    8.5436  -16.3622   25.1527 C   0  0  0  0  0  0  0  0  0  0  0  0
    7.7730  -17.3318   25.2859 O   0  0  0  0  0  0  0  0  0  0  0  0
   11.7289  -18.1554   25.4830 C   0  0  0  0  0  0  0  0  0  0  0  0
   10.3545  -17.8962   26.0217 C   0  0  2  0  0  0  0  0  0  0  0  0
    9.8909  -16.5757   25.5639 N   0  0  0  0  0  0  0  0  0  0  0  0
   10.4370  -17.8906   27.5014 C   0  0  0  0  0  0  0  0  0  0  0  0
   10.8162  -18.9982   28.2300 O   0  0  0  0  0  0  0  0  0  0  0  0
   10.1508  -16.8371   28.1180 O   0  0  0  0  0  0  0  0  0  0  0  0
  1  2  1  0
  2  4  1  0
  3  2  2  0
  4  5  1  0
  5  6  1  1
  7  5  1  0
  8  7  2  0
 10 11  1  0
 10  9  1  0
 11 12  1  0
 13 12  1  1
 13 15  1  0
 13 14  1  0
 14  7  1  0
 15 19  1  0
 16 15  2  0
 18 17  1  6
 18 20  1  0
 19 18  1  0
 20 22  2  0
 20 21  1  0
M  END
$$$$
