NMA.pdb
     RDKit          3D

 22 21  0  0  1  0  0  0  0  0999 V2000
    8.2047  -12.5266   17.2949 N   0  0  0  0  0  0  0  0  0  0  0  0
    7.7086  -13.6368   17.9982 C   0  0  0  0  0  0  0  0  0  0  0  0
    7.3585  -14.6645   17.3783 O   0  0  0  0  0  0  0  0  0  0  0  0
    7.6038  -13.5818   19.4721 C   0  0  0  0  0  0  0  0  0  0  0  0
    8.4726  -14.6582   20.0800 C   0  0  2  0  0  0  0  0  0  0  0  0
    7.7769  -15.9197   19.9745 N   0  0  0  0  0  0  0  0  0  0  0  0
    8.7492  -14.4070   21.5139 C   0  0  0  0  0  0  0  0  0  0  0  0
    9.7871  -13.7935   21.9059 O   0  0  0  0  0  0  0  0  0  0  0  0
    6.4083  -11.3186   27.0696 C   0  0  0  0  0  0  0  0  0  0  0  0
    7.8437  -12.4441   26.8758 S   0  0  0  0  0  0  0  0  0  0  0  0
    7.2192  -13.9783   26.1966 C   0  0  0  0  0  0  0  0  0  0  0  0
    7.1274  -14.0481   24.7239 C   0  0  0  0  0  0  0  0  0  0  0  0
    8.1804  -14.7452   23.9668 C   0  0  2  0  0  0  0  0  0  0  0  0
    7.8655  -14.8384   22.5566 N   0  0  0  0  0  0  0  0  0  0  0  0
    8.6520  -16.0193   24.5245 C   0  0  0  0  0  0  0  0  0  0  0  0
    7.9461  -17.0281   24.7142 O   0  0  0  0  0  0  0  0  0  0  0  0
   12.0325  -17.4890   25.0630 C   0  0  0  0  0  0  0  0  0  0  0  0
   10.5740  -17.4083   25.3986 C   0  0  2  0  0  0  0  0  0  0  0  0
   10.0241  -16.1414   24.8878 N   0  0  0  0  0  0  0  0  0  0  0  0
   10.4427  -17.4293   26.8746 C   0  0  0  0  0  0  0  0  0  0  0  0
   10.8295  -18.5082   27.6411 O   0  0  0  0  0  0  0  0  0  0  0  0
    9.9604  -16.4263   27.4520 O   0  0  0  0  0  0  0  0  0  0  0  0
  1  2  1  0
  2  4  1  0
  3  2  2  0
  4  5  1  0
  5  6  1  1
  7  5  1  0
  8  7  2  0
 10 11  1  0
 10  9  1  0
 11 12  1  0
 13 12  1  1
 13 15  1  0
 13 14  1  0
 14  7  1  0
 15 19  1  0
 16 15  2  0
 18 17  1  1
 18 20  1  0
 19 18  1  0
 20 22  2  0
 20 21  1  0
M  END
$$$$
