NMA.pdb
     RDKit          3D

 22 21  0  0  1  0  0  0  0  0999 V2000
    7.1635  -13.2337   16.9685 N   0  0  0  0  0  0  0  0  0  0  0  0
    8.1960  -14.0496   17.4603 C   0  0  0  0  0  0  0  0  0  0  0  0
    8.6802  -14.9486   16.7389 O   0  0  0  0  0  0  0  0  0  0  0  0
    8.7044  -13.8384   18.8325 C   0  0  0  0  0  0  0  0  0  0  0  0
    8.3856  -15.0479   19.6802 C   0  0  2  0  0  0  0  0  0  0  0  0
    6.9678  -15.3081   19.5890 N   0  0  0  0  0  0  0  0  0  0  0  0
    8.7200  -14.8315   21.1075 C   0  0  0  0  0  0  0  0  0  0  0  0
    9.9046  -14.6060   21.4986 O   0  0  0  0  0  0  0  0  0  0  0  0
    7.1216  -12.0905   28.1189 C   0  0  0  0  0  0  0  0  0  0  0  0
    6.8464  -12.0711   26.3055 S   0  0  0  0  0  0  0  0  0  0  0  0
    7.1025  -13.7428   25.7183 C   0  0  0  0  0  0  0  0  0  0  0  0
    6.9882  -13.9446   24.2593 C   0  0  0  0  0  0  0  0  0  0  0  0
    8.0350  -14.6993   23.5504 C   0  0  2  0  0  0  0  0  0  0  0  0
    7.7307  -14.8618   22.1442 N   0  0  0  0  0  0  0  0  0  0  0  0
    8.4788  -15.9500   24.1794 C   0  0  0  0  0  0  0  0  0  0  0  0
    7.7849  -16.9762   24.3107 O   0  0  0  0  0  0  0  0  0  0  0  0
   11.7903  -17.3465   25.1376 C   0  0  0  0  0  0  0  0  0  0  0  0
   10.3095  -17.2447   25.3454 C   0  0  2  0  0  0  0  0  0  0  0  0
    9.8065  -16.0256   24.6905 N   0  0  0  0  0  0  0  0  0  0  0  0
   10.0579  -17.1466   26.8026 C   0  0  0  0  0  0  0  0  0  0  0  0
   10.3883  -18.1539   27.6846 O   0  0  0  0  0  0  0  0  0  0  0  0
    9.5231  -16.1065   27.2542 O   0  0  0  0  0  0  0  0  0  0  0  0
  1  2  1  0
  2  4  1  0
  3  2  2  0
  4  5  1  0
  5  6  1  1
  7  5  1  0
  8  7  2  0
 10 11  1  0
 10  9  1  0
 11 12  1  0
 13 12  1  1
 13 15  1  0
 13 14  1  0
 14  7  1  0
 15 19  1  0
 16 15  2  0
 18 17  1  1
 18 20  1  0
 19 18  1  0
 20 22  2  0
 20 21  1  0
M  END
$$$$
