NMA.pdb
     RDKit          3D

 22 21  0  0  1  0  0  0  0  0999 V2000
    8.0470  -16.9069   18.3600 N   0  0  0  0  0  0  0  0  0  0  0  0
    8.3004  -15.5366   18.5378 C   0  0  0  0  0  0  0  0  0  0  0  0
    8.3466  -14.7754   17.5471 O   0  0  0  0  0  0  0  0  0  0  0  0
    8.5115  -15.0026   19.9003 C   0  0  0  0  0  0  0  0  0  0  0  0
    8.4206  -16.1291   20.9032 C   0  0  2  0  0  0  0  0  0  0  0  0
    7.0498  -16.5808   20.9589 N   0  0  0  0  0  0  0  0  0  0  0  0
    8.8152  -15.6963   22.2643 C   0  0  0  0  0  0  0  0  0  0  0  0
   10.0168  -15.4297   22.5682 O   0  0  0  0  0  0  0  0  0  0  0  0
    7.5694  -11.8038   27.3860 C   0  0  0  0  0  0  0  0  0  0  0  0
    6.3594  -11.9128   26.0117 S   0  0  0  0  0  0  0  0  0  0  0  0
    6.9860  -13.1285   24.8566 C   0  0  0  0  0  0  0  0  0  0  0  0
    7.2929  -14.4606   25.4167 C   0  0  0  0  0  0  0  0  0  0  0  0
    8.2435  -15.3381   24.7137 C   0  0  2  0  0  0  0  0  0  0  0  0
    7.8692  -15.5487   23.3309 N   0  0  0  0  0  0  0  0  0  0  0  0
    8.6075  -16.5869   25.3956 C   0  0  0  0  0  0  0  0  0  0  0  0
    7.8205  -17.5111   25.6751 O   0  0  0  0  0  0  0  0  0  0  0  0
   11.6819  -18.4971   25.7320 C   0  0  0  0  0  0  0  0  0  0  0  0
   10.4128  -18.0486   26.3914 C   0  0  2  0  0  0  0  0  0  0  0  0
    9.9646  -16.7858   25.7811 N   0  0  0  0  0  0  0  0  0  0  0  0
   10.7011  -17.8138   27.8260 C   0  0  0  0  0  0  0  0  0  0  0  0
   10.5393  -16.5829   28.4261 O   0  0  0  0  0  0  0  0  0  0  0  0
   11.1089  -18.7718   28.5244 O   0  0  0  0  0  0  0  0  0  0  0  0
  1  2  1  0
  2  4  1  0
  3  2  2  0
  4  5  1  0
  5  6  1  1
  7  5  1  0
  8  7  2  0
 10 11  1  0
 10  9  1  0
 11 12  1  0
 13 12  1  1
 13 15  1  0
 13 14  1  0
 14  7  1  0
 15 19  1  0
 16 15  2  0
 18 17  1  6
 18 20  1  0
 19 18  1  0
 20 22  2  0
 20 21  1  0
M  END
$$$$
