YQT.pdb
     RDKit          3D

 29 29  0  0  1  0  0  0  0  0999 V2000
   30.1624  -26.1219  -17.1414 O   0  0  0  0  0  0  0  0  0  0  0  0
   29.3378  -25.1164  -16.6702 C   0  0  0  0  0  0  0  0  0  0  0  0
   29.8396  -23.8673  -16.3305 C   0  0  0  0  0  0  0  0  0  0  0  0
   29.0169  -22.8858  -15.8684 C   0  0  0  0  0  0  0  0  0  0  0  0
   27.6508  -23.0995  -15.7205 C   0  0  0  0  0  0  0  0  0  0  0  0
   26.8212  -21.9742  -15.2071 C   0  0  0  0  0  0  0  0  0  0  0  0
   26.4047  -21.0395  -16.3067 C   0  0  2  0  0  0  0  0  0  0  0  0
   27.5714  -20.2596  -16.7279 N   0  0  0  0  0  0  0  0  0  0  0  0
   25.3548  -20.1068  -15.8095 C   0  0  0  0  0  0  0  0  0  0  0  0
   25.6074  -19.2200  -14.9462 O   0  0  0  0  0  0  0  0  0  0  0  0
   27.1575  -24.3185  -16.0514 C   0  0  0  0  0  0  0  0  0  0  0  0
   27.9959  -25.3281  -16.5263 C   0  0  0  0  0  0  0  0  0  0  0  0
   22.2510  -16.6337  -18.8196 N   0  0  0  0  0  0  0  0  0  0  0  0
   21.3422  -16.4857  -17.7439 C   0  0  0  0  0  0  0  0  0  0  0  0
   20.4498  -15.6291  -17.7191 O   0  0  0  0  0  0  0  0  0  0  0  0
   21.4881  -17.4265  -16.5867 C   0  0  0  0  0  0  0  0  0  0  0  0
   22.6421  -18.3424  -16.8418 C   0  0  0  0  0  0  0  0  0  0  0  0
   22.9743  -19.2806  -15.7378 C   0  0  2  0  0  0  0  0  0  0  0  0
   24.0259  -20.1706  -16.2809 N   0  0  0  0  0  0  0  0  0  0  0  0
   21.9156  -20.1371  -15.2273 C   0  0  0  0  0  0  0  0  0  0  0  0
   21.5130  -21.1720  -15.8667 O   0  0  0  0  0  0  0  0  0  0  0  0
   20.4365  -19.6022  -11.1868 C   0  0  0  0  0  0  0  0  0  0  0  0
   20.4104  -20.8925  -11.9603 C   0  0  1  0  0  0  0  0  0  0  0  0
   19.4025  -21.6752  -11.3887 O   0  0  0  0  0  0  0  0  0  0  0  0
   20.2521  -20.7462  -13.4299 C   0  0  2  0  0  0  0  0  0  0  0  0
   21.2836  -19.8682  -13.9897 N   0  0  0  0  0  0  0  0  0  0  0  0
   18.8923  -20.1995  -13.7872 C   0  0  0  0  0  0  0  0  0  0  0  0
   18.7230  -19.0546  -14.2269 O   0  0  0  0  0  0  0  0  0  0  0  0
   17.8177  -21.0514  -13.6015 O   0  0  0  0  0  0  0  0  0  0  0  0
  2  3  2  0
  2  1  1  0
  4  3  1  0
  5  4  2  0
  6  5  1  0
  7  6  1  0
  7  8  1  1
  9  7  1  0
  9 10  2  0
 11  5  1  0
 11 12  2  0
 12  2  1  0
 14 13  1  0
 15 14  2  0
 16 14  1  0
 18 17  1  6
 17 16  1  0
 18 19  1  0
 19  9  1  0
 20 18  1  0
 21 20  2  0
 23 22  1  1
 23 25  1  0
 24 23  1  0
 25 27  1  0
 25 26  1  1
 26 20  1  0
 27 29  1  0
 28 27  2  0
M  END
$$$$
