YQT.pdb
     RDKit          3D

 29 29  0  0  1  0  0  0  0  0999 V2000
   27.5295  -16.3922  -17.5497 O   0  0  0  0  0  0  0  0  0  0  0  0
   26.7120  -15.2775  -17.5936 C   0  0  0  0  0  0  0  0  0  0  0  0
   25.9532  -14.9792  -18.7173 C   0  0  0  0  0  0  0  0  0  0  0  0
   25.1518  -13.8790  -18.7475 C   0  0  0  0  0  0  0  0  0  0  0  0
   25.0662  -13.0184  -17.6585 C   0  0  0  0  0  0  0  0  0  0  0  0
   24.1675  -11.8365  -17.7735 C   0  0  0  0  0  0  0  0  0  0  0  0
   22.7770  -12.1427  -17.2952 C   0  0  2  0  0  0  0  0  0  0  0  0
   22.2148  -13.2052  -18.1330 N   0  0  0  0  0  0  0  0  0  0  0  0
   21.9204  -10.9297  -17.4150 C   0  0  0  0  0  0  0  0  0  0  0  0
   21.1057  -10.7822  -18.3689 O   0  0  0  0  0  0  0  0  0  0  0  0
   25.8061  -13.3070  -16.5593 C   0  0  0  0  0  0  0  0  0  0  0  0
   26.6287  -14.4338  -16.5224 C   0  0  0  0  0  0  0  0  0  0  0  0
   17.3807   -8.7729  -15.2975 N   0  0  0  0  0  0  0  0  0  0  0  0
   18.1229   -9.8184  -14.6966 C   0  0  0  0  0  0  0  0  0  0  0  0
   17.7239  -10.4616  -13.7179 O   0  0  0  0  0  0  0  0  0  0  0  0
   19.4578  -10.1448  -15.2942 C   0  0  0  0  0  0  0  0  0  0  0  0
   19.7096   -9.2384  -16.4564 C   0  0  0  0  0  0  0  0  0  0  0  0
   21.0925   -8.7047  -16.5673 C   0  0  2  0  0  0  0  0  0  0  0  0
   21.9794   -9.8862  -16.4663 N   0  0  0  0  0  0  0  0  0  0  0  0
   21.5394   -7.7517  -15.5637 C   0  0  0  0  0  0  0  0  0  0  0  0
   21.9373   -8.1245  -14.4042 O   0  0  0  0  0  0  0  0  0  0  0  0
   23.8888   -4.6281  -16.5438 C   0  0  0  0  0  0  0  0  0  0  0  0
   22.7691   -4.2574  -15.6098 C   0  0  1  0  0  0  0  0  0  0  0  0
   21.8462   -3.5307  -16.3684 O   0  0  0  0  0  0  0  0  0  0  0  0
   22.1425   -5.3956  -14.8899 C   0  0  2  0  0  0  0  0  0  0  0  0
   21.5622   -6.3612  -15.8274 N   0  0  0  0  0  0  0  0  0  0  0  0
   21.0695   -4.9248  -13.9399 C   0  0  0  0  0  0  0  0  0  0  0  0
   19.8741   -5.2150  -14.0796 O   0  0  0  0  0  0  0  0  0  0  0  0
   21.4869   -4.1394  -12.8797 O   0  0  0  0  0  0  0  0  0  0  0  0
  2  3  2  0
  2  1  1  0
  4  3  1  0
  5  4  2  0
  6  5  1  0
  7  6  1  0
  7  8  1  6
  9  7  1  0
  9 10  2  0
 11  5  1  0
 11 12  2  0
 12  2  1  0
 14 13  1  0
 15 14  2  0
 16 14  1  0
 18 17  1  1
 17 16  1  0
 18 19  1  0
 19  9  1  0
 20 18  1  0
 21 20  2  0
 23 22  1  6
 23 25  1  0
 24 23  1  0
 25 27  1  0
 25 26  1  6
 26 20  1  0
 27 29  1  0
 28 27  2  0
M  END
$$$$
