YQT.pdb
     RDKit          3D

 29 29  0  0  1  0  0  0  0  0999 V2000
   32.2551  -10.5686  -18.1719 O   0  0  0  0  0  0  0  0  0  0  0  0
   30.9095  -10.2779  -18.0388 C   0  0  0  0  0  0  0  0  0  0  0  0
   29.9464  -10.9491  -18.7801 C   0  0  0  0  0  0  0  0  0  0  0  0
   28.6248  -10.6538  -18.6393 C   0  0  0  0  0  0  0  0  0  0  0  0
   28.1951   -9.6731  -17.7519 C   0  0  0  0  0  0  0  0  0  0  0  0
   26.7321   -9.4101  -17.6592 C   0  0  0  0  0  0  0  0  0  0  0  0
   26.0885  -10.2105  -16.5632 C   0  0  2  0  0  0  0  0  0  0  0  0
   26.2272  -11.6349  -16.8775 N   0  0  0  0  0  0  0  0  0  0  0  0
   24.6398   -9.8751  -16.4734 C   0  0  0  0  0  0  0  0  0  0  0  0
   23.7475  -10.7690  -16.4926 O   0  0  0  0  0  0  0  0  0  0  0  0
   29.1333   -9.0157  -17.0263 C   0  0  0  0  0  0  0  0  0  0  0  0
   30.4893   -9.3147  -17.1660 C   0  0  0  0  0  0  0  0  0  0  0  0
   20.9422  -10.9193  -14.2727 N   0  0  0  0  0  0  0  0  0  0  0  0
   20.3104   -9.6835  -13.9921 C   0  0  0  0  0  0  0  0  0  0  0  0
   19.1629   -9.5927  -13.5386 O   0  0  0  0  0  0  0  0  0  0  0  0
   21.0915   -8.4345  -14.2666 C   0  0  0  0  0  0  0  0  0  0  0  0
   22.4317   -8.8052  -14.8166 C   0  0  0  0  0  0  0  0  0  0  0  0
   22.7663   -8.2213  -16.1419 C   0  0  2  0  0  0  0  0  0  0  0  0
   24.1955   -8.5399  -16.3627 N   0  0  0  0  0  0  0  0  0  0  0  0
   22.6208   -6.7843  -16.3117 C   0  0  0  0  0  0  0  0  0  0  0  0
   23.3341   -5.9480  -15.6532 O   0  0  0  0  0  0  0  0  0  0  0  0
   22.9048   -4.7767  -19.5851 C   0  0  0  0  0  0  0  0  0  0  0  0
   21.5990   -4.4777  -18.9000 C   0  0  1  0  0  0  0  0  0  0  0  0
   20.6096   -5.1477  -19.6262 O   0  0  0  0  0  0  0  0  0  0  0  0
   21.5566   -4.7996  -17.4506 C   0  0  2  0  0  0  0  0  0  0  0  0
   21.6839   -6.2419  -17.2236 N   0  0  0  0  0  0  0  0  0  0  0  0
   20.2794   -4.3111  -16.8135 C   0  0  0  0  0  0  0  0  0  0  0  0
   19.4118   -5.0775  -16.3748 O   0  0  0  0  0  0  0  0  0  0  0  0
   20.1155   -2.9392  -16.7356 O   0  0  0  0  0  0  0  0  0  0  0  0
  2  3  2  0
  2  1  1  0
  4  3  1  0
  5  4  2  0
  6  5  1  0
  7  6  1  0
  7  8  1  6
  9  7  1  0
  9 10  2  0
 11  5  1  0
 11 12  2  0
 12  2  1  0
 14 13  1  0
 15 14  2  0
 16 14  1  0
 18 17  1  1
 17 16  1  0
 18 19  1  0
 19  9  1  0
 20 18  1  0
 21 20  2  0
 23 22  1  6
 23 25  1  0
 24 23  1  0
 25 27  1  0
 25 26  1  6
 26 20  1  0
 27 29  1  0
 28 27  2  0
M  END
$$$$
