YQT.pdb
     RDKit          3D

 29 29  0  0  1  0  0  0  0  0999 V2000
   28.6040  -19.5263   -5.1022 O   0  0  0  0  0  0  0  0  0  0  0  0
   28.0008  -19.5521   -6.3466 C   0  0  0  0  0  0  0  0  0  0  0  0
   26.8217  -20.2513   -6.5660 C   0  0  0  0  0  0  0  0  0  0  0  0
   26.2377  -20.2681   -7.7958 C   0  0  0  0  0  0  0  0  0  0  0  0
   26.8000  -19.5887   -8.8710 C   0  0  0  0  0  0  0  0  0  0  0  0
   26.0991  -19.6592  -10.1831 C   0  0  0  0  0  0  0  0  0  0  0  0
   25.6913  -21.0639  -10.5245 C   0  0  2  0  0  0  0  0  0  0  0  0
   26.8972  -21.8511  -10.7947 N   0  0  0  0  0  0  0  0  0  0  0  0
   24.8337  -21.0616  -11.7427 C   0  0  0  0  0  0  0  0  0  0  0  0
   25.2878  -21.3836  -12.8766 O   0  0  0  0  0  0  0  0  0  0  0  0
   27.9517  -18.9047   -8.6600 C   0  0  0  0  0  0  0  0  0  0  0  0
   28.5544  -18.8834   -7.4014 C   0  0  0  0  0  0  0  0  0  0  0  0
   18.8996  -22.1272  -11.6092 N   0  0  0  0  0  0  0  0  0  0  0  0
   19.8416  -23.1752  -11.7483 C   0  0  0  0  0  0  0  0  0  0  0  0
   19.5650  -24.3677  -11.5692 O   0  0  0  0  0  0  0  0  0  0  0  0
   21.2393  -22.7961  -12.1330 C   0  0  0  0  0  0  0  0  0  0  0  0
   21.2994  -21.3212  -12.3716 C   0  0  0  0  0  0  0  0  0  0  0  0
   22.5978  -20.8045  -12.8782 C   0  0  2  0  0  0  0  0  0  0  0  0
   23.4708  -20.6987  -11.6867 N   0  0  0  0  0  0  0  0  0  0  0  0
   22.6085  -19.5039  -13.5288 C   0  0  0  0  0  0  0  0  0  0  0  0
   22.3276  -18.4263  -12.8950 O   0  0  0  0  0  0  0  0  0  0  0  0
   25.5221  -17.9811  -15.8145 C   0  0  0  0  0  0  0  0  0  0  0  0
   24.1742  -17.9925  -16.4830 C   0  0  1  0  0  0  0  0  0  0  0  0
   24.1966  -19.0489  -17.3989 O   0  0  0  0  0  0  0  0  0  0  0  0
   23.0114  -18.0635  -15.5615 C   0  0  2  0  0  0  0  0  0  0  0  0
   22.9391  -19.3687  -14.8984 N   0  0  0  0  0  0  0  0  0  0  0  0
   21.7145  -17.8071  -16.2880 C   0  0  0  0  0  0  0  0  0  0  0  0
   20.8104  -18.6492  -16.3658 O   0  0  0  0  0  0  0  0  0  0  0  0
   21.5731  -16.5618  -16.8749 O   0  0  0  0  0  0  0  0  0  0  0  0
  2  3  2  0
  2  1  1  0
  4  3  1  0
  5  4  2  0
  6  5  1  0
  7  6  1  0
  7  8  1  6
  9  7  1  0
  9 10  2  0
 11  5  1  0
 11 12  2  0
 12  2  1  0
 14 13  1  0
 15 14  2  0
 16 14  1  0
 18 17  1  1
 17 16  1  0
 18 19  1  0
 19  9  1  0
 20 18  1  0
 21 20  2  0
 23 22  1  1
 23 25  1  0
 24 23  1  0
 25 27  1  0
 25 26  1  6
 26 20  1  0
 27 29  1  0
 28 27  2  0
M  END
$$$$
