YQT.pdb
     RDKit          3D

 29 29  0  0  1  0  0  0  0  0999 V2000
   17.4500  -15.9337  -16.6025 O   0  0  0  0  0  0  0  0  0  0  0  0
   17.5179  -14.6216  -16.1705 C   0  0  0  0  0  0  0  0  0  0  0  0
   17.2028  -13.5640  -17.0129 C   0  0  0  0  0  0  0  0  0  0  0  0
   17.2731  -12.2769  -16.5749 C   0  0  0  0  0  0  0  0  0  0  0  0
   17.6621  -11.9775  -15.2738 C   0  0  0  0  0  0  0  0  0  0  0  0
   17.7147  -10.5436  -14.8748 C   0  0  0  0  0  0  0  0  0  0  0  0
   16.4607  -10.1134  -14.1687 C   0  0  2  0  0  0  0  0  0  0  0  0
   15.3477  -10.1530  -15.1208 N   0  0  0  0  0  0  0  0  0  0  0  0
   16.6148   -8.7201  -13.6644 C   0  0  0  0  0  0  0  0  0  0  0  0
   16.2204   -7.7233  -14.3325 O   0  0  0  0  0  0  0  0  0  0  0  0
   17.9706  -13.0082  -14.4484 C   0  0  0  0  0  0  0  0  0  0  0  0
   17.8996  -14.3297  -14.8917 C   0  0  0  0  0  0  0  0  0  0  0  0
   15.6119   -6.7849   -8.2445 N   0  0  0  0  0  0  0  0  0  0  0  0
   14.6873   -6.9941   -9.2963 C   0  0  0  0  0  0  0  0  0  0  0  0
   13.4720   -7.1402   -9.1158 O   0  0  0  0  0  0  0  0  0  0  0  0
   15.2320   -7.0371  -10.6916 C   0  0  0  0  0  0  0  0  0  0  0  0
   16.7248   -6.9712  -10.6375 C   0  0  0  0  0  0  0  0  0  0  0  0
   17.4198   -7.0579  -11.9486 C   0  0  2  0  0  0  0  0  0  0  0  0
   17.2101   -8.4481  -12.4138 N   0  0  0  0  0  0  0  0  0  0  0  0
   18.8528   -6.8118  -11.9798 C   0  0  0  0  0  0  0  0  0  0  0  0
   19.6504   -7.3410  -11.1280 O   0  0  0  0  0  0  0  0  0  0  0  0
   21.3477   -8.1102  -14.0910 C   0  0  0  0  0  0  0  0  0  0  0  0
   21.3937   -6.6160  -14.2619 C   0  0  1  0  0  0  0  0  0  0  0  0
   20.7055   -6.3326  -15.4457 O   0  0  0  0  0  0  0  0  0  0  0  0
   20.8863   -5.8311  -13.1075 C   0  0  2  0  0  0  0  0  0  0  0  0
   19.4351   -5.9771  -12.9636 N   0  0  0  0  0  0  0  0  0  0  0  0
   21.2234   -4.3671  -13.2443 C   0  0  0  0  0  0  0  0  0  0  0  0
   20.3716   -3.5014  -13.4848 O   0  0  0  0  0  0  0  0  0  0  0  0
   22.5542   -4.0237  -13.0832 O   0  0  0  0  0  0  0  0  0  0  0  0
  2  3  2  0
  2  1  1  0
  4  3  1  0
  5  4  2  0
  6  5  1  0
  7  6  1  0
  7  8  1  6
  9  7  1  0
  9 10  2  0
 11  5  1  0
 11 12  2  0
 12  2  1  0
 14 13  1  0
 15 14  2  0
 16 14  1  0
 18 17  1  1
 17 16  1  0
 18 19  1  0
 19  9  1  0
 20 18  1  0
 21 20  2  0
 23 22  1  1
 23 25  1  0
 24 23  1  0
 25 27  1  0
 25 26  1  6
 26 20  1  0
 27 29  1  0
 28 27  2  0
M  END
$$$$
