YQT.pdb
     RDKit          3D

 29 29  0  0  1  0  0  0  0  0999 V2000
   27.8020  -15.9971  -18.7764 O   0  0  0  0  0  0  0  0  0  0  0  0
   26.8618  -14.9906  -18.6500 C   0  0  0  0  0  0  0  0  0  0  0  0
   27.1903  -13.6601  -18.8718 C   0  0  0  0  0  0  0  0  0  0  0  0
   26.2551  -12.6789  -18.7447 C   0  0  0  0  0  0  0  0  0  0  0  0
   24.9434  -12.9738  -18.3890 C   0  0  0  0  0  0  0  0  0  0  0  0
   23.9827  -11.8421  -18.2697 C   0  0  0  0  0  0  0  0  0  0  0  0
   24.1680  -11.0842  -16.9862 C   0  0  2  0  0  0  0  0  0  0  0  0
   23.9169  -11.9919  -15.8637 N   0  0  0  0  0  0  0  0  0  0  0  0
   23.1988   -9.9547  -16.9193 C   0  0  0  0  0  0  0  0  0  0  0  0
   23.1605   -9.0575  -17.8075 O   0  0  0  0  0  0  0  0  0  0  0  0
   24.6193  -14.2725  -18.1717 C   0  0  0  0  0  0  0  0  0  0  0  0
   25.5736  -15.2825  -18.3013 C   0  0  0  0  0  0  0  0  0  0  0  0
   17.7548  -10.6641  -14.8603 N   0  0  0  0  0  0  0  0  0  0  0  0
   17.6580   -9.2552  -14.7578 C   0  0  0  0  0  0  0  0  0  0  0  0
   16.6309   -8.6675  -14.3964 O   0  0  0  0  0  0  0  0  0  0  0  0
   18.8751   -8.4554  -15.1103 C   0  0  0  0  0  0  0  0  0  0  0  0
   19.9962   -9.3881  -15.4405 C   0  0  0  0  0  0  0  0  0  0  0  0
   21.2770   -8.7415  -15.8285 C   0  0  2  0  0  0  0  0  0  0  0  0
   22.2763   -9.8341  -15.8578 N   0  0  0  0  0  0  0  0  0  0  0  0
   21.8089   -7.7034  -14.9599 C   0  0  0  0  0  0  0  0  0  0  0  0
   22.2628   -7.9645  -13.7905 O   0  0  0  0  0  0  0  0  0  0  0  0
   22.1841   -3.5775  -16.3675 C   0  0  0  0  0  0  0  0  0  0  0  0
   23.0755   -4.2427  -15.3542 C   0  0  1  0  0  0  0  0  0  0  0  0
   23.6236   -3.2176  -14.5771 O   0  0  0  0  0  0  0  0  0  0  0  0
   22.4240   -5.2936  -14.5313 C   0  0  2  0  0  0  0  0  0  0  0  0
   21.8562   -6.3505  -15.3733 N   0  0  0  0  0  0  0  0  0  0  0  0
   21.3344   -4.7176  -13.6614 C   0  0  0  0  0  0  0  0  0  0  0  0
   20.1442   -5.0388  -13.7747 O   0  0  0  0  0  0  0  0  0  0  0  0
   21.7303   -3.7963  -12.7077 O   0  0  0  0  0  0  0  0  0  0  0  0
  2  3  2  0
  2  1  1  0
  4  3  1  0
  5  4  2  0
  6  5  1  0
  7  6  1  0
  7  8  1  1
  9  7  1  0
  9 10  2  0
 11  5  1  0
 11 12  2  0
 12  2  1  0
 14 13  1  0
 15 14  2  0
 16 14  1  0
 18 17  1  1
 17 16  1  0
 18 19  1  0
 19  9  1  0
 20 18  1  0
 21 20  2  0
 23 22  1  6
 23 25  1  0
 24 23  1  0
 25 27  1  0
 25 26  1  6
 26 20  1  0
 27 29  1  0
 28 27  2  0
M  END
$$$$
