YQT.pdb
     RDKit          3D

 29 29  0  0  1  0  0  0  0  0999 V2000
   16.5996  -19.3730  -19.7756 O   0  0  0  0  0  0  0  0  0  0  0  0
   17.8595  -19.1622  -19.2454 C   0  0  0  0  0  0  0  0  0  0  0  0
   18.6935  -20.2221  -18.9157 C   0  0  0  0  0  0  0  0  0  0  0  0
   19.9318  -20.0009  -18.3949 C   0  0  0  0  0  0  0  0  0  0  0  0
   20.4026  -18.7109  -18.1753 C   0  0  0  0  0  0  0  0  0  0  0  0
   21.7678  -18.5559  -17.6009 C   0  0  0  0  0  0  0  0  0  0  0  0
   21.7684  -18.7210  -16.1080 C   0  0  2  0  0  0  0  0  0  0  0  0
   21.1650  -17.5307  -15.5030 N   0  0  0  0  0  0  0  0  0  0  0  0
   23.1669  -18.8575  -15.6130 C   0  0  0  0  0  0  0  0  0  0  0  0
   23.9416  -17.8637  -15.5254 O   0  0  0  0  0  0  0  0  0  0  0  0
   19.5904  -17.6736  -18.4964 C   0  0  0  0  0  0  0  0  0  0  0  0
   18.3203  -17.8942  -19.0311 C   0  0  0  0  0  0  0  0  0  0  0  0
   24.2974  -20.9188  -10.6346 N   0  0  0  0  0  0  0  0  0  0  0  0
   25.6676  -21.0492  -10.9672 C   0  0  0  0  0  0  0  0  0  0  0  0
   26.5404  -21.3623  -10.1481 O   0  0  0  0  0  0  0  0  0  0  0  0
   26.0568  -20.7896  -12.3907 C   0  0  0  0  0  0  0  0  0  0  0  0
   24.8326  -20.4514  -13.1800 C   0  0  0  0  0  0  0  0  0  0  0  0
   25.0482  -20.2190  -14.6322 C   0  0  2  0  0  0  0  0  0  0  0  0
   23.6927  -20.1064  -15.2180 N   0  0  0  0  0  0  0  0  0  0  0  0
   25.7543  -21.2399  -15.3900 C   0  0  0  0  0  0  0  0  0  0  0  0
   25.3289  -22.4463  -15.4626 O   0  0  0  0  0  0  0  0  0  0  0  0
   27.6168  -20.5124  -19.0111 C   0  0  0  0  0  0  0  0  0  0  0  0
   28.4235  -21.2794  -17.9989 C   0  0  1  0  0  0  0  0  0  0  0  0
   29.3758  -20.3880  -17.4953 O   0  0  0  0  0  0  0  0  0  0  0  0
   27.6335  -21.9340  -16.9247 C   0  0  2  0  0  0  0  0  0  0  0  0
   26.9469  -20.9424  -16.0920 N   0  0  0  0  0  0  0  0  0  0  0  0
   28.5047  -22.7972  -16.0464 C   0  0  0  0  0  0  0  0  0  0  0  0
   28.7306  -22.5337  -14.8580 O   0  0  0  0  0  0  0  0  0  0  0  0
   29.0511  -23.9231  -16.6369 O   0  0  0  0  0  0  0  0  0  0  0  0
  2  3  2  0
  2  1  1  0
  4  3  1  0
  5  4  2  0
  6  5  1  0
  7  6  1  0
  7  8  1  1
  9  7  1  0
  9 10  2  0
 11  5  1  0
 11 12  2  0
 12  2  1  0
 14 13  1  0
 15 14  2  0
 16 14  1  0
 18 17  1  1
 17 16  1  0
 18 19  1  0
 19  9  1  0
 20 18  1  0
 21 20  2  0
 23 22  1  6
 23 25  1  0
 24 23  1  0
 25 27  1  0
 25 26  1  1
 26 20  1  0
 27 29  1  0
 28 27  2  0
M  END
$$$$
