YQT.pdb
     RDKit          3D

 29 29  0  0  1  0  0  0  0  0999 V2000
   29.1003  -19.6053   -4.6701 O   0  0  0  0  0  0  0  0  0  0  0  0
   28.6482  -19.6962   -5.9741 C   0  0  0  0  0  0  0  0  0  0  0  0
   27.4504  -19.1150   -6.3679 C   0  0  0  0  0  0  0  0  0  0  0  0
   27.0169  -19.2113   -7.6549 C   0  0  0  0  0  0  0  0  0  0  0  0
   27.7554  -19.8930   -8.6161 C   0  0  0  0  0  0  0  0  0  0  0  0
   27.2099  -19.9532  -10.0005 C   0  0  0  0  0  0  0  0  0  0  0  0
   25.9066  -20.6978  -10.0561 C   0  0  2  0  0  0  0  0  0  0  0  0
   26.1801  -22.1332   -9.9477 N   0  0  0  0  0  0  0  0  0  0  0  0
   25.2258  -20.4332  -11.3546 C   0  0  0  0  0  0  0  0  0  0  0  0
   25.1971  -19.2793  -11.8677 O   0  0  0  0  0  0  0  0  0  0  0  0
   28.9258  -20.4618   -8.2346 C   0  0  0  0  0  0  0  0  0  0  0  0
   29.3754  -20.3657   -6.9170 C   0  0  0  0  0  0  0  0  0  0  0  0
   25.6084  -23.5096  -16.3074 N   0  0  0  0  0  0  0  0  0  0  0  0
   25.1121  -24.2762  -15.2252 C   0  0  0  0  0  0  0  0  0  0  0  0
   25.1886  -25.5100  -15.1730 O   0  0  0  0  0  0  0  0  0  0  0  0
   24.4650  -23.5330  -14.0964 C   0  0  0  0  0  0  0  0  0  0  0  0
   24.5641  -22.0637  -14.3560 C   0  0  0  0  0  0  0  0  0  0  0  0
   23.8953  -21.1883  -13.3582 C   0  0  2  0  0  0  0  0  0  0  0  0
   24.5796  -21.4616  -12.0736 N   0  0  0  0  0  0  0  0  0  0  0  0
   22.4716  -21.3773  -13.1290 C   0  0  0  0  0  0  0  0  0  0  0  0
   22.0268  -22.2714  -12.3261 O   0  0  0  0  0  0  0  0  0  0  0  0
   20.0659  -18.7869  -11.7750 C   0  0  0  0  0  0  0  0  0  0  0  0
   19.5347  -19.3327  -13.0726 C   0  0  1  0  0  0  0  0  0  0  0  0
   19.7626  -18.3474  -14.0382 O   0  0  0  0  0  0  0  0  0  0  0  0
   20.0776  -20.6564  -13.4718 C   0  0  2  0  0  0  0  0  0  0  0  0
   21.5077  -20.5717  -13.7812 N   0  0  0  0  0  0  0  0  0  0  0  0
   19.3468  -21.2152  -14.6674 C   0  0  0  0  0  0  0  0  0  0  0  0
   18.1596  -21.5640  -14.6262 O   0  0  0  0  0  0  0  0  0  0  0  0
   20.0744  -21.3214  -15.8397 O   0  0  0  0  0  0  0  0  0  0  0  0
  2  3  2  0
  2  1  1  0
  4  3  1  0
  5  4  2  0
  6  5  1  0
  7  6  1  0
  7  8  1  6
  9  7  1  0
  9 10  2  0
 11  5  1  0
 11 12  2  0
 12  2  1  0
 14 13  1  0
 15 14  2  0
 16 14  1  0
 18 17  1  6
 17 16  1  0
 18 19  1  0
 19  9  1  0
 20 18  1  0
 21 20  2  0
 23 22  1  1
 23 25  1  0
 24 23  1  0
 25 27  1  0
 25 26  1  6
 26 20  1  0
 27 29  1  0
 28 27  2  0
M  END
$$$$
