VGS.pdb
     RDKit          3D

 18 17  0  0  1  0  0  0  0  0999 V2000
    9.0032  -12.4561   18.3892 C   0  0  0  0  0  0  0  0  0  0  0  0
    8.8421  -13.1319   19.7271 C   0  0  1  0  0  0  0  0  0  0  0  0
    7.8762  -12.4487   20.6358 C   0  0  0  0  0  0  0  0  0  0  0  0
    8.5797  -14.6117   19.5923 C   0  0  2  0  0  0  0  0  0  0  0  0
    7.4633  -14.8594   18.7160 N   0  0  0  0  0  0  0  0  0  0  0  0
    8.4098  -15.3109   20.8580 C   0  0  0  0  0  0  0  0  0  0  0  0
    7.2556  -15.5414   21.2993 O   0  0  0  0  0  0  0  0  0  0  0  0
    9.5426  -15.7339   21.5967 N   0  0  0  0  0  0  0  0  0  0  0  0
    9.4902  -16.5307   22.7786 C   0  0  0  0  0  0  0  0  0  0  0  0
   10.7791  -16.8380   23.4005 C   0  0  0  0  0  0  0  0  0  0  0  0
   11.8146  -16.4216   22.8004 O   0  0  0  0  0  0  0  0  0  0  0  0
   11.1936  -19.1012   26.7324 O   0  0  0  0  0  0  0  0  0  0  0  0
   12.2721  -18.2335   26.5808 C   0  0  0  0  0  0  0  0  0  0  0  0
   12.3135  -17.8009   25.1489 C   0  0  2  0  0  0  0  0  0  0  0  0
   10.9929  -17.5495   24.6025 N   0  0  0  0  0  0  0  0  0  0  0  0
   13.0543  -18.7979   24.3171 C   0  0  0  0  0  0  0  0  0  0  0  0
   12.3591  -19.4465   23.3063 O   0  0  0  0  0  0  0  0  0  0  0  0
   14.2551  -19.0590   24.5012 O   0  0  0  0  0  0  0  0  0  0  0  0
  2  1  1  6
  2  3  1  0
  4  2  1  0
  4  5  1  6
  6  8  1  0
  6  4  1  0
  7  6  2  0
  9  8  1  0
 10 15  1  0
 10  9  1  0
 11 10  2  0
 13 12  1  0
 14 13  1  1
 14 15  1  0
 16 17  1  0
 16 14  1  0
 18 16  2  0
M  END
$$$$
