VGS.pdb
     RDKit          3D

 18 17  0  0  1  0  0  0  0  0999 V2000
    7.4660  -12.5994   18.7395 C   0  0  0  0  0  0  0  0  0  0  0  0
    8.8561  -12.8488   19.2666 C   0  0  1  0  0  0  0  0  0  0  0  0
    8.9435  -12.8620   20.7558 C   0  0  0  0  0  0  0  0  0  0  0  0
    9.5026  -14.0529   18.6271 C   0  0  2  0  0  0  0  0  0  0  0  0
    8.6881  -15.2284   18.8010 N   0  0  0  0  0  0  0  0  0  0  0  0
   10.8707  -14.3021   19.0585 C   0  0  0  0  0  0  0  0  0  0  0  0
   11.7610  -13.4378   18.8576 O   0  0  0  0  0  0  0  0  0  0  0  0
   11.2040  -15.5179   19.7057 N   0  0  0  0  0  0  0  0  0  0  0  0
   12.5039  -15.8502   20.1900 C   0  0  0  0  0  0  0  0  0  0  0  0
   12.6539  -15.8878   21.6455 C   0  0  0  0  0  0  0  0  0  0  0  0
   13.7604  -15.4860   22.1144 O   0  0  0  0  0  0  0  0  0  0  0  0
    9.6259  -16.4859   24.2915 O   0  0  0  0  0  0  0  0  0  0  0  0
   10.7634  -15.8734   24.8110 C   0  0  0  0  0  0  0  0  0  0  0  0
   11.9404  -16.3449   24.0162 C   0  0  2  0  0  0  0  0  0  0  0  0
   11.6939  -16.3236   22.5863 N   0  0  0  0  0  0  0  0  0  0  0  0
   12.3691  -17.7052   24.4636 C   0  0  0  0  0  0  0  0  0  0  0  0
   12.7902  -17.8554   25.7774 O   0  0  0  0  0  0  0  0  0  0  0  0
   12.3598  -18.6901   23.7059 O   0  0  0  0  0  0  0  0  0  0  0  0
  2  1  1  1
  2  3  1  0
  4  2  1  0
  4  5  1  1
  6  8  1  0
  6  4  1  0
  7  6  2  0
  9  8  1  0
 10 15  1  0
 10  9  1  0
 11 10  2  0
 13 12  1  0
 14 13  1  1
 14 15  1  0
 16 17  1  0
 16 14  1  0
 18 16  2  0
M  END
$$$$
