VGS.pdb
     RDKit          3D

 18 17  0  0  1  0  0  0  0  0999 V2000
    7.9595  -12.7333   21.0086 C   0  0  0  0  0  0  0  0  0  0  0  0
    7.8059  -13.2594   19.6042 C   0  0  1  0  0  0  0  0  0  0  0  0
    7.8777  -12.2033   18.5529 C   0  0  0  0  0  0  0  0  0  0  0  0
    8.7186  -14.4290   19.3287 C   0  0  2  0  0  0  0  0  0  0  0  0
    8.6254  -14.8423   17.9517 N   0  0  0  0  0  0  0  0  0  0  0  0
    8.5319  -15.5623   20.2235 C   0  0  0  0  0  0  0  0  0  0  0  0
    8.1205  -16.6603   19.7705 O   0  0  0  0  0  0  0  0  0  0  0  0
    8.8126  -15.4328   21.6064 N   0  0  0  0  0  0  0  0  0  0  0  0
    8.6747  -16.4805   22.5645 C   0  0  0  0  0  0  0  0  0  0  0  0
    9.8499  -16.7458   23.3958 C   0  0  0  0  0  0  0  0  0  0  0  0
   10.9587  -16.3019   22.9725 O   0  0  0  0  0  0  0  0  0  0  0  0
    9.7825  -16.5755   27.2287 O   0  0  0  0  0  0  0  0  0  0  0  0
   10.9986  -16.4417   26.5636 C   0  0  0  0  0  0  0  0  0  0  0  0
   11.0472  -17.4786   25.4858 C   0  0  2  0  0  0  0  0  0  0  0  0
    9.8802  -17.4440   24.6239 N   0  0  0  0  0  0  0  0  0  0  0  0
   11.2378  -18.8406   26.0714 C   0  0  0  0  0  0  0  0  0  0  0  0
   10.2593  -19.7949   25.8313 O   0  0  0  0  0  0  0  0  0  0  0  0
   12.2309  -19.1390   26.7562 O   0  0  0  0  0  0  0  0  0  0  0  0
  2  1  1  1
  2  3  1  0
  4  2  1  0
  4  5  1  6
  6  8  1  0
  6  4  1  0
  7  6  2  0
  9  8  1  0
 10 15  1  0
 10  9  1  0
 11 10  2  0
 13 12  1  0
 14 13  1  1
 14 15  1  0
 16 17  1  0
 16 14  1  0
 18 16  2  0
M  END
$$$$
