VGS.pdb
     RDKit          3D

 18 17  0  0  1  0  0  0  0  0999 V2000
    9.1301  -13.4140   19.0973 C   0  0  0  0  0  0  0  0  0  0  0  0
    8.3522  -13.4735   20.3872 C   0  0  1  0  0  0  0  0  0  0  0  0
    6.8889  -13.2353   20.2211 C   0  0  0  0  0  0  0  0  0  0  0  0
    8.6607  -14.7171   21.1841 C   0  0  2  0  0  0  0  0  0  0  0  0
    8.3315  -15.9035   20.4359 N   0  0  0  0  0  0  0  0  0  0  0  0
    8.0506  -14.7522   22.5057 C   0  0  0  0  0  0  0  0  0  0  0  0
    8.4345  -13.9534   23.3971 O   0  0  0  0  0  0  0  0  0  0  0  0
    7.0234  -15.6852   22.7924 N   0  0  0  0  0  0  0  0  0  0  0  0
    6.4184  -15.8591   24.0723 C   0  0  0  0  0  0  0  0  0  0  0  0
    7.3175  -16.2593   25.1558 C   0  0  0  0  0  0  0  0  0  0  0  0
    7.7455  -15.3361   25.9109 O   0  0  0  0  0  0  0  0  0  0  0  0
    7.3731  -19.8701   26.8725 O   0  0  0  0  0  0  0  0  0  0  0  0
    7.8733  -18.7810   27.5814 C   0  0  0  0  0  0  0  0  0  0  0  0
    8.5750  -17.8855   26.6092 C   0  0  2  0  0  0  0  0  0  0  0  0
    7.7589  -17.5685   25.4519 N   0  0  0  0  0  0  0  0  0  0  0  0
    9.8827  -18.4786   26.1938 C   0  0  0  0  0  0  0  0  0  0  0  0
   10.8244  -18.7334   27.1808 O   0  0  0  0  0  0  0  0  0  0  0  0
   10.1474  -18.7461   25.0096 O   0  0  0  0  0  0  0  0  0  0  0  0
  2  1  1  6
  2  3  1  0
  4  2  1  0
  4  5  1  6
  6  8  1  0
  6  4  1  0
  7  6  2  0
  9  8  1  0
 10 15  1  0
 10  9  1  0
 11 10  2  0
 13 12  1  0
 14 13  1  1
 14 15  1  0
 16 17  1  0
 16 14  1  0
 18 16  2  0
M  END
$$$$
