VGS.pdb
     RDKit          3D

 18 17  0  0  1  0  0  0  0  0999 V2000
    8.4401  -12.7966   18.5691 C   0  0  0  0  0  0  0  0  0  0  0  0
    8.0015  -13.1922   19.9562 C   0  0  1  0  0  0  0  0  0  0  0  0
    6.6269  -13.7690   20.0130 C   0  0  0  0  0  0  0  0  0  0  0  0
    9.0287  -14.0453   20.6590 C   0  0  2  0  0  0  0  0  0  0  0  0
    9.2300  -15.2894   19.9611 N   0  0  0  0  0  0  0  0  0  0  0  0
    8.7526  -14.2810   22.0690 C   0  0  0  0  0  0  0  0  0  0  0  0
    8.7350  -13.3176   22.8762 O   0  0  0  0  0  0  0  0  0  0  0  0
    8.5031  -15.5951   22.5368 N   0  0  0  0  0  0  0  0  0  0  0  0
    8.1233  -15.9233   23.8720 C   0  0  0  0  0  0  0  0  0  0  0  0
    9.0920  -15.5817   24.9148 C   0  0  0  0  0  0  0  0  0  0  0  0
   10.3127  -15.5672   24.5753 O   0  0  0  0  0  0  0  0  0  0  0  0
   10.4517  -13.8500   29.1884 O   0  0  0  0  0  0  0  0  0  0  0  0
    9.3669  -14.1104   28.3551 C   0  0  0  0  0  0  0  0  0  0  0  0
    9.8449  -14.9907   27.2434 C   0  0  2  0  0  0  0  0  0  0  0  0
    8.8108  -15.2636   26.2625 N   0  0  0  0  0  0  0  0  0  0  0  0
   10.4159  -16.2618   27.7845 C   0  0  0  0  0  0  0  0  0  0  0  0
   11.6254  -16.1954   28.4617 O   0  0  0  0  0  0  0  0  0  0  0  0
    9.8486  -17.3590   27.6480 O   0  0  0  0  0  0  0  0  0  0  0  0
  2  1  1  6
  2  3  1  0
  4  2  1  0
  4  5  1  6
  6  8  1  0
  6  4  1  0
  7  6  2  0
  9  8  1  0
 10 15  1  0
 10  9  1  0
 11 10  2  0
 13 12  1  0
 14 13  1  1
 14 15  1  0
 16 17  1  0
 16 14  1  0
 18 16  2  0
M  END
$$$$
