VGS.pdb
     RDKit          3D

 18 17  0  0  1  0  0  0  0  0999 V2000
    9.2631  -12.4365   19.7551 C   0  0  0  0  0  0  0  0  0  0  0  0
    8.1900  -13.2453   19.0718 C   0  0  1  0  0  0  0  0  0  0  0  0
    7.4137  -12.4799   18.0534 C   0  0  0  0  0  0  0  0  0  0  0  0
    8.7114  -14.5614   18.5494 C   0  0  2  0  0  0  0  0  0  0  0  0
    7.7186  -15.2260   17.7443 N   0  0  0  0  0  0  0  0  0  0  0  0
    9.2283  -15.4547   19.5764 C   0  0  0  0  0  0  0  0  0  0  0  0
    8.4343  -16.0908   20.3145 O   0  0  0  0  0  0  0  0  0  0  0  0
   10.6263  -15.6107   19.7481 N   0  0  0  0  0  0  0  0  0  0  0  0
   11.2354  -16.4882   20.6933 C   0  0  0  0  0  0  0  0  0  0  0  0
   11.2142  -16.0413   22.0870 C   0  0  0  0  0  0  0  0  0  0  0  0
   12.0018  -15.0974   22.3943 O   0  0  0  0  0  0  0  0  0  0  0  0
    8.2725  -16.7389   24.8521 O   0  0  0  0  0  0  0  0  0  0  0  0
    9.1436  -15.6687   25.0386 C   0  0  0  0  0  0  0  0  0  0  0  0
   10.4799  -16.0663   24.4950 C   0  0  2  0  0  0  0  0  0  0  0  0
   10.4062  -16.5498   23.1287 N   0  0  0  0  0  0  0  0  0  0  0  0
   11.1325  -17.0758   25.3837 C   0  0  0  0  0  0  0  0  0  0  0  0
   11.4433  -18.3151   24.8422 O   0  0  0  0  0  0  0  0  0  0  0  0
   11.4007  -16.8417   26.5743 O   0  0  0  0  0  0  0  0  0  0  0  0
  2  1  1  6
  2  3  1  0
  4  2  1  0
  4  5  1  1
  6  8  1  0
  6  4  1  0
  7  6  2  0
  9  8  1  0
 10 15  1  0
 10  9  1  0
 11 10  2  0
 13 12  1  0
 14 13  1  1
 14 15  1  0
 16 17  1  0
 16 14  1  0
 18 16  2  0
M  END
$$$$
