RCP.pdb
     RDKit          3D

 25 25  0  0  1  0  0  0  0  0999 V2000
    8.6674  -15.3536   15.9609 N   0  0  0  0  0  0  0  0  0  0  0  0
    7.8997  -14.1570   16.1201 C   0  0  0  0  0  0  0  0  0  0  0  0
    7.8937  -13.2915   15.1706 N   0  0  0  0  0  0  0  0  0  0  0  0
    7.1655  -13.9337   17.2952 N   0  0  0  0  0  0  0  0  0  0  0  0
    7.4035  -14.8003   18.4680 C   0  0  0  0  0  0  0  0  0  0  0  0
    8.8291  -14.6384   18.8447 C   0  0  0  0  0  0  0  0  0  0  0  0
    9.1332  -14.1659   20.2094 C   0  0  0  0  0  0  0  0  0  0  0  0
    9.0723  -15.2470   21.2355 C   0  0  2  0  0  0  0  0  0  0  0  0
    8.0734  -16.2214   20.8816 N   0  0  0  0  0  0  0  0  0  0  0  0
    8.6892  -14.5804   22.5325 C   0  0  0  0  0  0  0  0  0  0  0  0
    8.5698  -13.3298   22.6016 O   0  0  0  0  0  0  0  0  0  0  0  0
    7.4392  -12.3615   15.2077 N   0  0  0  0  0  0  0  0  0  0  0  0
    8.4591  -15.3632   23.6925 C   0  0  1  0  0  0  0  0  0  0  0  0
    8.1888  -14.6473   24.9477 C   0  0  0  0  0  0  0  0  0  0  0  0
    6.6873  -14.7538   25.2001 S   0  0  0  0  0  0  0  0  0  0  0  0
    6.3166  -14.0669   26.8307 C   0  0  0  0  0  0  0  0  0  0  0  0
    8.9015  -15.3173   26.0521 O   0  0  0  0  0  0  0  0  0  0  0  0
    8.8850  -16.6090   26.0506 N   0  0  0  0  0  0  0  0  0  0  0  0
    9.5716  -14.6186   27.0610 C   0  0  0  0  0  0  0  0  0  0  0  0
    9.5254  -13.1997   27.3161 C   0  0  0  0  0  0  0  0  0  0  0  0
    9.5574  -13.2297   28.8568 C   0  0  0  0  0  0  0  0  0  0  0  0
   10.8036  -14.1131   29.0190 C   0  0  2  0  0  0  0  0  0  0  0  0
   10.5027  -15.2262   28.0383 C   0  0  0  0  0  0  0  0  0  0  0  0
    9.8243  -16.3023   28.8173 O   0  0  0  0  0  0  0  0  0  0  0  0
    8.5906  -16.4459   28.6350 O   0  0  0  0  0  0  0  0  0  0  0  0
  1  2  1  0
  2  3  2  0
  4  2  1  0
  5  4  1  0
  6  5  1  0
  7  6  1  0
  8  9  1  6
  8 10  1  0
  8  7  1  0
 10 12  1  0
 11 10  2  0
 12 13  1  0
 13 14  1  1
 14 15  1  0
 16 18  1  0
 16 13  1  0
 17 16  2  0
 18 22  1  0
 19 18  1  0
 20 21  1  0
 20 19  1  0
 21 22  1  0
 22 23  1  1
 23 25  1  0
 24 23  2  0
M  END
$$$$
