RCP.pdb
     RDKit          3D

 25 25  0  0  1  0  0  0  0  0999 V2000
    7.7915  -12.8239   14.6597 N   0  0  0  0  0  0  0  0  0  0  0  0
    8.1873  -13.7342   15.6900 C   0  0  0  0  0  0  0  0  0  0  0  0
    8.5650  -14.9177   15.3622 N   0  0  0  0  0  0  0  0  0  0  0  0
    8.1626  -13.3391   17.0365 N   0  0  0  0  0  0  0  0  0  0  0  0
    8.6494  -14.2758   18.0702 C   0  0  0  0  0  0  0  0  0  0  0  0
    7.7788  -14.1008   19.2585 C   0  0  0  0  0  0  0  0  0  0  0  0
    8.4066  -13.6403   20.5124 C   0  0  0  0  0  0  0  0  0  0  0  0
    9.1140  -14.7259   21.2515 C   0  0  2  0  0  0  0  0  0  0  0  0
    8.7077  -16.0167   20.7605 N   0  0  0  0  0  0  0  0  0  0  0  0
    8.7114  -14.5870   22.6979 C   0  0  0  0  0  0  0  0  0  0  0  0
    8.8732  -13.4987   23.3083 O   0  0  0  0  0  0  0  0  0  0  0  0
    8.7624  -15.6903   16.0232 N   0  0  0  0  0  0  0  0  0  0  0  0
    8.1437  -15.6893   23.3861 C   0  0  1  0  0  0  0  0  0  0  0  0
    7.8306  -15.5074   24.8108 C   0  0  0  0  0  0  0  0  0  0  0  0
    6.8183  -16.5884   25.1802 S   0  0  0  0  0  0  0  0  0  0  0  0
    6.5145  -16.5237   26.9610 C   0  0  0  0  0  0  0  0  0  0  0  0
    9.0547  -15.7154   25.6076 O   0  0  0  0  0  0  0  0  0  0  0  0
    9.8003  -16.7150   25.2705 N   0  0  0  0  0  0  0  0  0  0  0  0
    9.4176  -14.8894   26.6758 C   0  0  0  0  0  0  0  0  0  0  0  0
    8.6906  -13.7518   27.1833 C   0  0  0  0  0  0  0  0  0  0  0  0
    8.9698  -13.9376   28.6877 C   0  0  0  0  0  0  0  0  0  0  0  0
   10.5003  -14.0370   28.6015 C   0  0  1  0  0  0  0  0  0  0  0  0
   10.6659  -15.0183   27.4611 C   0  0  0  0  0  0  0  0  0  0  0  0
   10.7642  -16.3717   28.0804 O   0  0  0  0  0  0  0  0  0  0  0  0
    9.7521  -17.1099   27.9995 O   0  0  0  0  0  0  0  0  0  0  0  0
  1  2  1  0
  2  3  2  0
  4  2  1  0
  5  4  1  0
  6  5  1  0
  7  6  1  0
  8  9  1  6
  8 10  1  0
  8  7  1  0
 10 12  1  0
 11 10  2  0
 12 13  1  0
 13 14  1  6
 14 15  1  0
 16 18  1  0
 16 13  1  0
 17 16  2  0
 18 22  1  0
 19 18  1  0
 20 21  1  0
 20 19  1  0
 21 22  1  0
 22 23  1  1
 23 25  1  0
 24 23  2  0
M  END
$$$$
