RCP.pdb
     RDKit          3D

 25 25  0  0  1  0  0  0  0  0999 V2000
    8.2180  -14.4910   15.1510 N   0  0  0  0  0  0  0  0  0  0  0  0
    8.7142  -14.5287   16.4922 C   0  0  0  0  0  0  0  0  0  0  0  0
    9.1105  -15.6507   16.9770 N   0  0  0  0  0  0  0  0  0  0  0  0
    8.7665  -13.3581   17.2647 N   0  0  0  0  0  0  0  0  0  0  0  0
    9.0115  -13.4651   18.7178 C   0  0  0  0  0  0  0  0  0  0  0  0
    7.6867  -13.4352   19.3843 C   0  0  0  0  0  0  0  0  0  0  0  0
    7.6501  -13.5669   20.8539 C   0  0  0  0  0  0  0  0  0  0  0  0
    8.2307  -14.8499   21.3459 C   0  0  2  0  0  0  0  0  0  0  0  0
    7.7707  -15.9519   20.5419 N   0  0  0  0  0  0  0  0  0  0  0  0
    7.7429  -15.0212   22.7624 C   0  0  0  0  0  0  0  0  0  0  0  0
    6.7131  -14.4204   23.1645 O   0  0  0  0  0  0  0  0  0  0  0  0
    9.3765  -15.8188   17.9638 N   0  0  0  0  0  0  0  0  0  0  0  0
    8.4459  -15.8663   23.6583 C   0  0  1  0  0  0  0  0  0  0  0  0
    7.9821  -15.9072   25.0527 C   0  0  0  0  0  0  0  0  0  0  0  0
    7.1648  -17.1870   25.2070 S   0  0  0  0  0  0  0  0  0  0  0  0
    6.8853  -17.4959   26.9661 C   0  0  0  0  0  0  0  0  0  0  0  0
    9.1499  -15.9820   25.9510 O   0  0  0  0  0  0  0  0  0  0  0  0
    9.9477  -16.9833   25.7789 N   0  0  0  0  0  0  0  0  0  0  0  0
    9.4087  -15.0328   26.9445 C   0  0  0  0  0  0  0  0  0  0  0  0
    8.6158  -13.8721   27.2679 C   0  0  0  0  0  0  0  0  0  0  0  0
    8.7838  -13.8834   28.8000 C   0  0  0  0  0  0  0  0  0  0  0  0
   10.3185  -13.9394   28.8376 C   0  0  1  0  0  0  0  0  0  0  0  0
   10.5961  -15.0328   27.8285 C   0  0  0  0  0  0  0  0  0  0  0  0
   10.6816  -16.3066   28.5999 O   0  0  0  0  0  0  0  0  0  0  0  0
   11.7289  -16.5009   29.2641 O   0  0  0  0  0  0  0  0  0  0  0  0
  1  2  1  0
  2  3  2  0
  4  2  1  0
  5  4  1  0
  6  5  1  0
  7  6  1  0
  8  9  1  6
  8 10  1  0
  8  7  1  0
 10 12  1  0
 11 10  2  0
 12 13  1  0
 13 14  1  6
 14 15  1  0
 16 18  1  0
 16 13  1  0
 17 16  2  0
 18 22  1  0
 19 18  1  0
 20 21  1  0
 20 19  1  0
 21 22  1  0
 22 23  1  1
 23 25  1  0
 24 23  2  0
M  END
$$$$
