RCP.pdb
     RDKit          3D

 25 25  0  0  1  0  0  0  0  0999 V2000
    8.3174  -18.2538   18.0829 N   0  0  0  0  0  0  0  0  0  0  0  0
    9.4873  -17.5176   17.7142 C   0  0  0  0  0  0  0  0  0  0  0  0
    9.9173  -17.5982   16.5062 N   0  0  0  0  0  0  0  0  0  0  0  0
   10.1532  -16.7207   18.6582 N   0  0  0  0  0  0  0  0  0  0  0  0
    9.6937  -16.7327   20.0624 C   0  0  0  0  0  0  0  0  0  0  0  0
    9.2576  -15.3527   20.3878 C   0  0  0  0  0  0  0  0  0  0  0  0
    7.8284  -15.1319   20.6826 C   0  0  0  0  0  0  0  0  0  0  0  0
    7.5161  -13.7255   21.0696 C   0  0  2  0  0  0  0  0  0  0  0  0
    8.2684  -12.8019   20.2612 N   0  0  0  0  0  0  0  0  0  0  0  0
    7.9261  -13.5814   22.5135 C   0  0  0  0  0  0  0  0  0  0  0  0
    9.0170  -13.0347   22.8203 O   0  0  0  0  0  0  0  0  0  0  0  0
   10.8180  -17.2197   16.1622 N   0  0  0  0  0  0  0  0  0  0  0  0
    7.0797  -14.0645   23.5437 C   0  0  1  0  0  0  0  0  0  0  0  0
    7.4063  -13.6766   24.9235 C   0  0  0  0  0  0  0  0  0  0  0  0
    6.0951  -13.6853   25.7049 S   0  0  0  0  0  0  0  0  0  0  0  0
    6.1632  -12.4049   26.9792 C   0  0  0  0  0  0  0  0  0  0  0  0
    8.3114  -14.6834   25.5097 O   0  0  0  0  0  0  0  0  0  0  0  0
    8.2236  -15.8830   25.0386 N   0  0  0  0  0  0  0  0  0  0  0  0
    9.2292  -14.3852   26.5215 C   0  0  0  0  0  0  0  0  0  0  0  0
    9.4965  -13.0919   27.1016 C   0  0  0  0  0  0  0  0  0  0  0  0
    9.7184  -13.5240   28.5644 C   0  0  0  0  0  0  0  0  0  0  0  0
   10.7765  -14.6060   28.3004 C   0  0  1  0  0  0  0  0  0  0  0  0
   10.1395  -15.3650   27.1562 C   0  0  0  0  0  0  0  0  0  0  0  0
    9.3676  -16.4838   27.7705 O   0  0  0  0  0  0  0  0  0  0  0  0
    8.1218  -16.3461   27.8388 O   0  0  0  0  0  0  0  0  0  0  0  0
  1  2  1  0
  2  3  2  0
  4  2  1  0
  5  4  1  0
  6  5  1  0
  7  6  1  0
  8  9  1  6
  8 10  1  0
  8  7  1  0
 10 12  1  0
 11 10  2  0
 12 13  1  0
 13 14  1  1
 14 15  1  0
 16 18  1  0
 16 13  1  0
 17 16  2  0
 18 22  1  0
 19 18  1  0
 20 21  1  0
 20 19  1  0
 21 22  1  0
 22 23  1  1
 23 25  1  0
 24 23  2  0
M  END
$$$$
