RCP.pdb
     RDKit          3D

 25 25  0  0  1  0  0  0  0  0999 V2000
    8.8352  -15.2607   15.1232 N   0  0  0  0  0  0  0  0  0  0  0  0
    8.5544  -14.2647   16.1111 C   0  0  0  0  0  0  0  0  0  0  0  0
    7.8391  -13.2488   15.7836 N   0  0  0  0  0  0  0  0  0  0  0  0
    9.0533  -14.3966   17.4162 N   0  0  0  0  0  0  0  0  0  0  0  0
    8.2519  -15.1228   18.4229 C   0  0  0  0  0  0  0  0  0  0  0  0
    7.5031  -14.1038   19.1984 C   0  0  0  0  0  0  0  0  0  0  0  0
    8.1585  -13.5205   20.3853 C   0  0  0  0  0  0  0  0  0  0  0  0
    8.6919  -14.5458   21.3284 C   0  0  2  0  0  0  0  0  0  0  0  0
    7.9869  -15.7909   21.1699 N   0  0  0  0  0  0  0  0  0  0  0  0
    8.4585  -14.0075   22.7174 C   0  0  0  0  0  0  0  0  0  0  0  0
    8.8218  -12.8427   23.0246 O   0  0  0  0  0  0  0  0  0  0  0  0
    7.6390  -12.4338   16.3905 N   0  0  0  0  0  0  0  0  0  0  0  0
    7.8234  -14.8153   23.6947 C   0  0  1  0  0  0  0  0  0  0  0  0
    7.8389  -14.3330   25.0833 C   0  0  0  0  0  0  0  0  0  0  0  0
    6.4426  -14.5776   25.6494 S   0  0  0  0  0  0  0  0  0  0  0  0
    6.3609  -13.8983   27.3226 C   0  0  0  0  0  0  0  0  0  0  0  0
    8.8091  -15.1259   25.8621 O   0  0  0  0  0  0  0  0  0  0  0  0
    8.8916  -16.3825   25.5741 N   0  0  0  0  0  0  0  0  0  0  0  0
    9.6137  -14.5745   26.8639 C   0  0  0  0  0  0  0  0  0  0  0  0
    9.6086  -13.2105   27.3329 C   0  0  0  0  0  0  0  0  0  0  0  0
    9.8509  -13.4695   28.8329 C   0  0  0  0  0  0  0  0  0  0  0  0
   11.1040  -14.3464   28.6898 C   0  0  1  0  0  0  0  0  0  0  0  0
   10.6673  -15.3055   27.6034 C   0  0  0  0  0  0  0  0  0  0  0  0
   10.0976  -16.4969   28.2968 O   0  0  0  0  0  0  0  0  0  0  0  0
    8.8489  -16.6239   28.2778 O   0  0  0  0  0  0  0  0  0  0  0  0
  1  2  1  0
  2  3  2  0
  4  2  1  0
  5  4  1  0
  6  5  1  0
  7  6  1  0
  8  9  1  1
  8 10  1  0
  8  7  1  0
 10 12  1  0
 11 10  2  0
 12 13  1  0
 13 14  1  1
 14 15  1  0
 16 18  1  0
 16 13  1  0
 17 16  2  0
 18 22  1  0
 19 18  1  0
 20 21  1  0
 20 19  1  0
 21 22  1  0
 22 23  1  1
 23 25  1  0
 24 23  2  0
M  END
$$$$
