RCP.pdb
     RDKit          3D

 25 25  0  0  1  0  0  0  0  0999 V2000
    8.4837  -12.2556   18.7696 N   0  0  0  0  0  0  0  0  0  0  0  0
    8.7769  -13.4497   18.0381 C   0  0  0  0  0  0  0  0  0  0  0  0
    8.4106  -13.5314   16.8093 N   0  0  0  0  0  0  0  0  0  0  0  0
    9.4537  -14.5135   18.6545 N   0  0  0  0  0  0  0  0  0  0  0  0
    8.7552  -15.8031   18.8339 C   0  0  0  0  0  0  0  0  0  0  0  0
    7.3092  -15.4988   18.9634 C   0  0  0  0  0  0  0  0  0  0  0  0
    6.5634  -16.1448   20.0611 C   0  0  0  0  0  0  0  0  0  0  0  0
    7.4456  -16.8223   21.0551 C   0  0  2  0  0  0  0  0  0  0  0  0
    7.3013  -18.2518   20.9643 N   0  0  0  0  0  0  0  0  0  0  0  0
    6.9907  -16.3550   22.4146 C   0  0  0  0  0  0  0  0  0  0  0  0
    5.7783  -16.1000   22.6341 O   0  0  0  0  0  0  0  0  0  0  0  0
    8.5577  -14.3496   16.1914 N   0  0  0  0  0  0  0  0  0  0  0  0
    7.9323  -16.1982   23.4634 C   0  0  1  0  0  0  0  0  0  0  0  0
    7.4241  -15.7392   24.7642 C   0  0  0  0  0  0  0  0  0  0  0  0
    6.5858  -16.8794   25.3360 S   0  0  0  0  0  0  0  0  0  0  0  0
    7.6688  -18.0037   26.2475 C   0  0  0  0  0  0  0  0  0  0  0  0
    8.5619  -15.4902   25.6698 O   0  0  0  0  0  0  0  0  0  0  0  0
    9.4125  -16.4527   25.8067 N   0  0  0  0  0  0  0  0  0  0  0  0
    8.7395  -14.2849   26.3560 C   0  0  0  0  0  0  0  0  0  0  0  0
    7.9264  -13.0978   26.2562 C   0  0  0  0  0  0  0  0  0  0  0  0
    7.9648  -12.6533   27.7315 C   0  0  0  0  0  0  0  0  0  0  0  0
    9.4907  -12.6628   27.9089 C   0  0  1  0  0  0  0  0  0  0  0  0
    9.8483  -13.9989   27.2941 C   0  0  0  0  0  0  0  0  0  0  0  0
    9.8641  -14.9865   28.4117 O   0  0  0  0  0  0  0  0  0  0  0  0
    8.8353  -15.6893   28.5653 O   0  0  0  0  0  0  0  0  0  0  0  0
  1  2  1  0
  2  3  2  0
  4  2  1  0
  5  4  1  0
  6  5  1  0
  7  6  1  0
  8  9  1  1
  8 10  1  0
  8  7  1  0
 10 12  1  0
 11 10  2  0
 12 13  1  0
 13 14  1  6
 14 15  1  0
 16 18  1  0
 16 13  1  0
 17 16  2  0
 18 22  1  0
 19 18  1  0
 20 21  1  0
 20 19  1  0
 21 22  1  0
 22 23  1  1
 23 25  1  0
 24 23  2  0
M  END
$$$$
