RCP.pdb
     RDKit          3D

 25 25  0  0  1  0  0  0  0  0999 V2000
    7.8594  -13.0143   15.9055 N   0  0  0  0  0  0  0  0  0  0  0  0
    8.5475  -14.2663   15.9794 C   0  0  0  0  0  0  0  0  0  0  0  0
    8.5257  -15.0485   14.9603 N   0  0  0  0  0  0  0  0  0  0  0  0
    9.2347  -14.6328   17.1470 N   0  0  0  0  0  0  0  0  0  0  0  0
    8.4622  -14.9755   18.3589 C   0  0  0  0  0  0  0  0  0  0  0  0
    8.3971  -13.7503   19.1926 C   0  0  0  0  0  0  0  0  0  0  0  0
    7.7044  -13.8361   20.4930 C   0  0  0  0  0  0  0  0  0  0  0  0
    8.2620  -14.8894   21.3903 C   0  0  2  0  0  0  0  0  0  0  0  0
    7.4050  -16.0460   21.4023 N   0  0  0  0  0  0  0  0  0  0  0  0
    8.3147  -14.2865   22.7713 C   0  0  0  0  0  0  0  0  0  0  0  0
    9.0993  -13.3370   23.0285 O   0  0  0  0  0  0  0  0  0  0  0  0
    8.1348  -14.8135   14.0304 N   0  0  0  0  0  0  0  0  0  0  0  0
    7.4748  -14.7883   23.7978 C   0  0  1  0  0  0  0  0  0  0  0  0
    7.6187  -14.1988   25.1368 C   0  0  0  0  0  0  0  0  0  0  0  0
    6.2279  -14.1905   25.7655 S   0  0  0  0  0  0  0  0  0  0  0  0
    6.3535  -13.5713   27.4592 C   0  0  0  0  0  0  0  0  0  0  0  0
    8.5000  -15.0557   25.9526 O   0  0  0  0  0  0  0  0  0  0  0  0
    8.4950  -16.3177   25.6768 N   0  0  0  0  0  0  0  0  0  0  0  0
    9.3122  -14.5574   26.9759 C   0  0  0  0  0  0  0  0  0  0  0  0
    9.3085  -13.2209   27.5182 C   0  0  0  0  0  0  0  0  0  0  0  0
    9.5644  -13.5602   28.9998 C   0  0  0  0  0  0  0  0  0  0  0  0
   10.8180  -14.4250   28.7986 C   0  0  1  0  0  0  0  0  0  0  0  0
   10.3737  -15.3249   27.6655 C   0  0  0  0  0  0  0  0  0  0  0  0
    9.8124  -16.5535   28.2983 O   0  0  0  0  0  0  0  0  0  0  0  0
    8.5632  -16.6774   28.2921 O   0  0  0  0  0  0  0  0  0  0  0  0
  1  2  1  0
  2  3  2  0
  4  2  1  0
  5  4  1  0
  6  5  1  0
  7  6  1  0
  8  9  1  1
  8 10  1  0
  8  7  1  0
 10 12  1  0
 11 10  2  0
 12 13  1  0
 13 14  1  1
 14 15  1  0
 16 18  1  0
 16 13  1  0
 17 16  2  0
 18 22  1  0
 19 18  1  0
 20 21  1  0
 20 19  1  0
 21 22  1  0
 22 23  1  1
 23 25  1  0
 24 23  2  0
M  END
$$$$
