RCP.pdb
     RDKit          3D

 25 25  0  0  1  0  0  0  0  0999 V2000
    6.8113  -24.6791   23.4804 N   0  0  0  0  0  0  0  0  0  0  0  0
    5.5800  -24.4254   24.1632 C   0  0  0  0  0  0  0  0  0  0  0  0
    5.3363  -25.0513   25.2584 N   0  0  0  0  0  0  0  0  0  0  0  0
    4.6543  -23.5074   23.6435 N   0  0  0  0  0  0  0  0  0  0  0  0
    4.8894  -22.0614   23.8357 C   0  0  0  0  0  0  0  0  0  0  0  0
    4.2360  -21.3615   22.7028 C   0  0  0  0  0  0  0  0  0  0  0  0
    4.4151  -19.9002   22.5984 C   0  0  0  0  0  0  0  0  0  0  0  0
    5.8308  -19.4948   22.3596 C   0  0  2  0  0  0  0  0  0  0  0  0
    6.7071  -20.1525   23.2933 N   0  0  0  0  0  0  0  0  0  0  0  0
    5.8882  -18.0040   22.5784 C   0  0  0  0  0  0  0  0  0  0  0  0
    5.0828  -17.2367   21.9905 O   0  0  0  0  0  0  0  0  0  0  0  0
    4.4821  -24.9447   25.8345 N   0  0  0  0  0  0  0  0  0  0  0  0
    6.8571  -17.4516   23.4543 C   0  0  1  0  0  0  0  0  0  0  0  0
    7.0546  -15.9955   23.4109 C   0  0  0  0  0  0  0  0  0  0  0  0
    7.5405  -15.5761   24.7957 S   0  0  0  0  0  0  0  0  0  0  0  0
    7.8813  -13.8008   24.7850 C   0  0  0  0  0  0  0  0  0  0  0  0
    8.1056  -15.6771   22.4258 O   0  0  0  0  0  0  0  0  0  0  0  0
    9.1898  -16.3765   22.4914 N   0  0  0  0  0  0  0  0  0  0  0  0
    7.9646  -14.6782   21.4576 C   0  0  0  0  0  0  0  0  0  0  0  0
    6.8910  -13.7218   21.3428 C   0  0  0  0  0  0  0  0  0  0  0  0
    7.7058  -12.4976   20.8810 C   0  0  0  0  0  0  0  0  0  0  0  0
    8.4223  -13.1631   19.6963 C   0  0  1  0  0  0  0  0  0  0  0  0
    8.8954  -14.4544   20.3285 C   0  0  0  0  0  0  0  0  0  0  0  0
   10.2783  -14.1984   20.8255 O   0  0  0  0  0  0  0  0  0  0  0  0
   11.1801  -14.0735   19.9612 O   0  0  0  0  0  0  0  0  0  0  0  0
  1  2  1  0
  2  3  2  0
  4  2  1  0
  5  4  1  0
  6  5  1  0
  7  6  1  0
  8  9  1  1
  8 10  1  0
  8  7  1  0
 10 12  1  0
 11 10  2  0
 12 13  1  0
 13 14  1  6
 14 15  1  0
 16 18  1  0
 16 13  1  0
 17 16  2  0
 18 22  1  0
 19 18  1  0
 20 21  1  0
 20 19  1  0
 21 22  1  0
 22 23  1  1
 23 25  1  0
 24 23  2  0
M  END
$$$$
