RCP.pdb
     RDKit          3D

 25 25  0  0  1  0  0  0  0  0999 V2000
    7.6134  -19.2028   19.8284 N   0  0  0  0  0  0  0  0  0  0  0  0
    8.3157  -18.4938   18.8033 C   0  0  0  0  0  0  0  0  0  0  0  0
    8.1522  -18.8479   17.5791 N   0  0  0  0  0  0  0  0  0  0  0  0
    9.1691  -17.4290   19.1313 N   0  0  0  0  0  0  0  0  0  0  0  0
    9.4710  -17.1604   20.5525 C   0  0  0  0  0  0  0  0  0  0  0  0
    9.1022  -15.7478   20.8148 C   0  0  0  0  0  0  0  0  0  0  0  0
    7.6691  -15.4223   20.9507 C   0  0  0  0  0  0  0  0  0  0  0  0
    7.4144  -13.9751   21.2078 C   0  0  2  0  0  0  0  0  0  0  0  0
    8.1636  -13.1607   20.2870 N   0  0  0  0  0  0  0  0  0  0  0  0
    7.8823  -13.7051   22.6155 C   0  0  0  0  0  0  0  0  0  0  0  0
    9.0164  -13.2044   22.8309 O   0  0  0  0  0  0  0  0  0  0  0  0
    8.6765  -18.4712   16.7691 N   0  0  0  0  0  0  0  0  0  0  0  0
    7.0422  -14.0158   23.7150 C   0  0  2  0  0  0  0  0  0  0  0  0
    7.4749  -13.5624   25.0448 C   0  0  0  0  0  0  0  0  0  0  0  0
    6.2083  -13.3338   25.8652 S   0  0  0  0  0  0  0  0  0  0  0  0
    6.6748  -12.9342   27.5653 C   0  0  0  0  0  0  0  0  0  0  0  0
    8.2672  -14.6283   25.6873 O   0  0  0  0  0  0  0  0  0  0  0  0
    7.9284  -15.8445   25.4137 N   0  0  0  0  0  0  0  0  0  0  0  0
    9.3363  -14.3678   26.5499 C   0  0  0  0  0  0  0  0  0  0  0  0
    9.7759  -13.0799   27.0281 C   0  0  0  0  0  0  0  0  0  0  0  0
   10.1671  -13.4760   28.4654 C   0  0  0  0  0  0  0  0  0  0  0  0
   11.0958  -14.6468   28.1098 C   0  0  1  0  0  0  0  0  0  0  0  0
   10.2518  -15.3932   27.0992 C   0  0  0  0  0  0  0  0  0  0  0  0
    9.4930  -16.4251   27.8637 O   0  0  0  0  0  0  0  0  0  0  0  0
   10.1207  -17.4572   28.2049 O   0  0  0  0  0  0  0  0  0  0  0  0
  1  2  1  0
  2  3  2  0
  4  2  1  0
  5  4  1  0
  6  5  1  0
  7  6  1  0
  8  9  1  6
  8 10  1  0
  8  7  1  0
 10 12  1  0
 11 10  2  0
 12 13  1  0
 13 14  1  1
 14 15  1  0
 16 18  1  0
 16 13  1  0
 17 16  2  0
 18 22  1  0
 19 18  1  0
 20 21  1  0
 20 19  1  0
 21 22  1  0
 22 23  1  1
 23 25  1  0
 24 23  2  0
M  END
$$$$
