CHN.pdb
     RDKit          3D

 25 25  0  0  1  0  0  0  0  0999 V2000
   13.6785  -10.6748  -11.0652 N   0  0  0  0  0  0  0  0  0  0  0  0
   15.0917  -10.4744  -11.1651 C   0  0  1  0  0  0  0  0  0  0  0  0
   15.7267  -11.0545  -12.3929 C   0  0  0  0  0  0  0  0  0  0  0  0
   15.8087  -12.8437  -12.3972 S   0  0  0  0  0  0  0  0  0  0  0  0
   15.3868   -9.0056  -11.0062 C   0  0  0  0  0  0  0  0  0  0  0  0
   14.8349   -8.1479  -11.7377 O   0  0  0  0  0  0  0  0  0  0  0  0
   16.2950   -8.5346  -10.0297 N   0  0  0  0  0  0  0  0  0  0  0  0
   16.5468   -7.1426   -9.8659 C   0  0  1  0  0  0  0  0  0  0  0  0
   16.1048   -6.6676   -8.5211 C   0  0  0  0  0  0  0  0  0  0  0  0
   14.6592   -6.8516   -8.2557 C   0  0  0  0  0  0  0  0  0  0  0  0
   14.0339   -7.8064   -7.4840 C   0  0  0  0  0  0  0  0  0  0  0  0
   12.7028   -7.6310   -7.4999 N   0  0  0  0  0  0  0  0  0  0  0  0
   12.4655   -6.5602   -8.2838 C   0  0  0  0  0  0  0  0  0  0  0  0
   13.6440   -6.0957   -8.7354 N   0  0  0  0  0  0  0  0  0  0  0  0
   17.9083   -6.7353  -10.2272 C   0  0  0  0  0  0  0  0  0  0  0  0
   18.8528   -7.0037   -9.4605 O   0  0  0  0  0  0  0  0  0  0  0  0
   22.1390   -5.3561  -12.9500 N   0  0  0  0  0  0  0  0  0  0  0  0
   21.4353   -6.5631  -13.2253 C   0  0  0  0  0  0  0  0  0  0  0  0
   22.0197   -7.4169  -13.9376 O   0  0  0  0  0  0  0  0  0  0  0  0
   20.0799   -6.8381  -12.7162 C   0  0  0  0  0  0  0  0  0  0  0  0
   19.5391   -5.7257  -11.8637 C   0  0  2  0  0  0  0  0  0  0  0  0
   18.1624   -6.0455  -11.4285 N   0  0  0  0  0  0  0  0  0  0  0  0
   19.5165   -4.4325  -12.6083 C   0  0  0  0  0  0  0  0  0  0  0  0
   20.5960   -3.5781  -12.7158 O   0  0  0  0  0  0  0  0  0  0  0  0
   18.4547   -4.0414  -13.2025 O   0  0  0  0  0  0  0  0  0  0  0  0
  2  1  1  6
  3  2  1  0
  4  3  1  0
  5  2  1  0
  5  6  2  0
  7  5  1  0
  8  7  1  0
  8  9  1  1
 10  9  1  0
 10 14  1  0
 11 12  1  0
 11 10  2  0
 12 13  1  0
 13 14  2  0
 15  8  1  0
 16 15  2  0
 18 17  1  0
 19 18  2  0
 20 18  1  0
 21 20  1  6
 21 22  1  0
 22 15  1  0
 23 24  1  0
 23 21  1  0
 25 23  2  0
M  END
$$$$
