CHN.pdb
     RDKit          3D

 25 25  0  0  1  0  0  0  0  0999 V2000
   21.4504  -29.2211  -10.7717 N   0  0  0  0  0  0  0  0  0  0  0  0
   20.6229  -28.5762  -11.7446 C   0  0  1  0  0  0  0  0  0  0  0  0
   19.5014  -29.4167  -12.2766 C   0  0  0  0  0  0  0  0  0  0  0  0
   19.6504  -31.1603  -11.8950 S   0  0  0  0  0  0  0  0  0  0  0  0
   20.1396  -27.2658  -11.1799 C   0  0  0  0  0  0  0  0  0  0  0  0
   20.4283  -26.9153  -10.0098 O   0  0  0  0  0  0  0  0  0  0  0  0
   19.3433  -26.3800  -11.9424 N   0  0  0  0  0  0  0  0  0  0  0  0
   18.9603  -25.1066  -11.4328 C   0  0  1  0  0  0  0  0  0  0  0  0
   18.6905  -24.1403  -12.5387 C   0  0  0  0  0  0  0  0  0  0  0  0
   18.3712  -22.7676  -12.0828 C   0  0  0  0  0  0  0  0  0  0  0  0
   18.2558  -22.2857  -10.7972 C   0  0  0  0  0  0  0  0  0  0  0  0
   17.9518  -20.9779  -10.8072 N   0  0  0  0  0  0  0  0  0  0  0  0
   17.8702  -20.6120  -12.1022 C   0  0  0  0  0  0  0  0  0  0  0  0
   18.1230  -21.6908  -12.8644 N   0  0  0  0  0  0  0  0  0  0  0  0
   17.9055  -25.1629  -10.4159 C   0  0  0  0  0  0  0  0  0  0  0  0
   16.9124  -25.8915  -10.6018 O   0  0  0  0  0  0  0  0  0  0  0  0
   17.4423  -26.7535   -6.4582 N   0  0  0  0  0  0  0  0  0  0  0  0
   17.8265  -25.4557   -6.0155 C   0  0  0  0  0  0  0  0  0  0  0  0
   18.3544  -25.3714   -4.8788 O   0  0  0  0  0  0  0  0  0  0  0  0
   17.6314  -24.2393   -6.8243 C   0  0  0  0  0  0  0  0  0  0  0  0
   16.9934  -24.5187   -8.1553 C   0  0  2  0  0  0  0  0  0  0  0  0
   18.0000  -24.4047   -9.2327 N   0  0  0  0  0  0  0  0  0  0  0  0
   15.8823  -23.5628   -8.4366 C   0  0  0  0  0  0  0  0  0  0  0  0
   16.0604  -22.2917   -8.9457 O   0  0  0  0  0  0  0  0  0  0  0  0
   14.6681  -23.8901   -8.2088 O   0  0  0  0  0  0  0  0  0  0  0  0
  2  1  1  1
  3  2  1  0
  4  3  1  0
  5  2  1  0
  5  6  2  0
  7  5  1  0
  8  7  1  0
  8  9  1  6
 10  9  1  0
 10 14  1  0
 11 12  1  0
 11 10  2  0
 12 13  1  0
 13 14  2  0
 15  8  1  0
 16 15  2  0
 18 17  1  0
 19 18  2  0
 20 18  1  0
 21 20  1  1
 21 22  1  0
 22 15  1  0
 23 24  1  0
 23 21  1  0
 25 23  2  0
M  END
$$$$
