CHN.pdb
     RDKit          3D

 25 25  0  0  1  0  0  0  0  0999 V2000
   26.1843  -20.6376  -16.0249 N   0  0  0  0  0  0  0  0  0  0  0  0
   25.4454  -21.7006  -15.4156 C   0  0  1  0  0  0  0  0  0  0  0  0
   26.2790  -22.7185  -14.6972 C   0  0  0  0  0  0  0  0  0  0  0  0
   27.5228  -23.4994  -15.7224 S   0  0  0  0  0  0  0  0  0  0  0  0
   24.3780  -21.1073  -14.5333 C   0  0  0  0  0  0  0  0  0  0  0  0
   24.6740  -20.4498  -13.5060 O   0  0  0  0  0  0  0  0  0  0  0  0
   23.0034  -21.2669  -14.8252 N   0  0  0  0  0  0  0  0  0  0  0  0
   22.0012  -20.6649  -14.0122 C   0  0  1  0  0  0  0  0  0  0  0  0
   21.5465  -19.3644  -14.5879 C   0  0  0  0  0  0  0  0  0  0  0  0
   20.5742  -18.6321  -13.7439 C   0  0  0  0  0  0  0  0  0  0  0  0
   20.0512  -18.9844  -12.5189 C   0  0  0  0  0  0  0  0  0  0  0  0
   19.1956  -18.0466  -12.0817 N   0  0  0  0  0  0  0  0  0  0  0  0
   19.1643  -17.0847  -13.0259 C   0  0  0  0  0  0  0  0  0  0  0  0
   19.9942  -17.4412  -14.0222 N   0  0  0  0  0  0  0  0  0  0  0  0
   20.9089  -21.5705  -13.6420 C   0  0  0  0  0  0  0  0  0  0  0  0
   20.4656  -22.3736  -14.4848 O   0  0  0  0  0  0  0  0  0  0  0  0
   18.7041  -24.4309   -8.6431 N   0  0  0  0  0  0  0  0  0  0  0  0
   18.8254  -24.0826  -10.0185 C   0  0  0  0  0  0  0  0  0  0  0  0
   18.1356  -24.7384  -10.8382 O   0  0  0  0  0  0  0  0  0  0  0  0
   19.7094  -23.0066  -10.5010 C   0  0  0  0  0  0  0  0  0  0  0  0
   19.3822  -22.5643  -11.8989 C   0  0  2  0  0  0  0  0  0  0  0  0
   20.3548  -21.5446  -12.3474 N   0  0  0  0  0  0  0  0  0  0  0  0
   18.0100  -21.9829  -11.9776 C   0  0  0  0  0  0  0  0  0  0  0  0
   16.8983  -22.6709  -12.4224 O   0  0  0  0  0  0  0  0  0  0  0  0
   17.7934  -20.7740  -11.6240 O   0  0  0  0  0  0  0  0  0  0  0  0
  2  1  1  1
  3  2  1  0
  4  3  1  0
  5  2  1  0
  5  6  2  0
  7  5  1  0
  8  7  1  0
  8  9  1  6
 10  9  1  0
 10 14  1  0
 11 12  1  0
 11 10  2  0
 12 13  1  0
 13 14  2  0
 15  8  1  0
 16 15  2  0
 18 17  1  0
 19 18  2  0
 20 18  1  0
 21 20  1  1
 21 22  1  0
 22 15  1  0
 23 24  1  0
 23 21  1  0
 25 23  2  0
M  END
$$$$
