CHN.pdb
     RDKit          3D

 25 25  0  0  1  0  0  0  0  0999 V2000
   24.4267  -13.0116  -16.0218 N   0  0  0  0  0  0  0  0  0  0  0  0
   25.0525  -11.7269  -15.9494 C   0  0  1  0  0  0  0  0  0  0  0  0
   26.4923  -11.7013  -16.3659 C   0  0  0  0  0  0  0  0  0  0  0  0
   27.5180  -12.9040  -15.5237 S   0  0  0  0  0  0  0  0  0  0  0  0
   24.2162  -10.7349  -16.7150 C   0  0  0  0  0  0  0  0  0  0  0  0
   23.9334  -10.9179  -17.9241 O   0  0  0  0  0  0  0  0  0  0  0  0
   23.7175   -9.5604  -16.1049 N   0  0  0  0  0  0  0  0  0  0  0  0
   22.4555   -9.0146  -16.4754 C   0  0  1  0  0  0  0  0  0  0  0  0
   21.3756  -10.0422  -16.3901 C   0  0  0  0  0  0  0  0  0  0  0  0
   20.0375   -9.5537  -16.7963 C   0  0  0  0  0  0  0  0  0  0  0  0
   19.6592   -8.2894  -17.1919 C   0  0  0  0  0  0  0  0  0  0  0  0
   18.3478   -8.2551  -17.4781 N   0  0  0  0  0  0  0  0  0  0  0  0
   17.8757   -9.5003  -17.2673 C   0  0  0  0  0  0  0  0  0  0  0  0
   18.8947  -10.2765  -16.8579 N   0  0  0  0  0  0  0  0  0  0  0  0
   22.1327   -7.7496  -15.8078 C   0  0  0  0  0  0  0  0  0  0  0  0
   22.2660   -7.6563  -14.5728 O   0  0  0  0  0  0  0  0  0  0  0  0
   20.6085   -2.9984  -14.4888 N   0  0  0  0  0  0  0  0  0  0  0  0
   19.7528   -4.1367  -14.4811 C   0  0  0  0  0  0  0  0  0  0  0  0
   18.6603   -4.0276  -13.8709 O   0  0  0  0  0  0  0  0  0  0  0  0
   20.0960   -5.4056  -15.1474 C   0  0  0  0  0  0  0  0  0  0  0  0
   21.3971   -5.3396  -15.8954 C   0  0  2  0  0  0  0  0  0  0  0  0
   21.6744   -6.6396  -16.5436 N   0  0  0  0  0  0  0  0  0  0  0  0
   22.5315   -5.0086  -14.9840 C   0  0  0  0  0  0  0  0  0  0  0  0
   22.5292   -5.2423  -13.6230 O   0  0  0  0  0  0  0  0  0  0  0  0
   23.5980   -4.4717  -15.4397 O   0  0  0  0  0  0  0  0  0  0  0  0
  2  1  1  6
  3  2  1  0
  4  3  1  0
  5  2  1  0
  5  6  2  0
  7  5  1  0
  8  7  1  0
  8  9  1  1
 10  9  1  0
 10 14  1  0
 11 12  1  0
 11 10  2  0
 12 13  1  0
 13 14  2  0
 15  8  1  0
 16 15  2  0
 18 17  1  0
 19 18  2  0
 20 18  1  0
 21 20  1  1
 21 22  1  0
 22 15  1  0
 23 24  1  0
 23 21  1  0
 25 23  2  0
M  END
$$$$
