CHN.pdb
     RDKit          3D

 25 25  0  0  1  0  0  0  0  0999 V2000
   21.2350   -8.9068  -15.6744 N   0  0  0  0  0  0  0  0  0  0  0  0
   21.0288   -8.8662  -14.2591 C   0  0  1  0  0  0  0  0  0  0  0  0
   22.1054   -8.1685  -13.4838 C   0  0  0  0  0  0  0  0  0  0  0  0
   23.6791   -9.0238  -13.4868 S   0  0  0  0  0  0  0  0  0  0  0  0
   19.6619   -8.2959  -13.9832 C   0  0  0  0  0  0  0  0  0  0  0  0
   19.2062   -7.3417  -14.6593 O   0  0  0  0  0  0  0  0  0  0  0  0
   18.8393   -8.8103  -12.9543 N   0  0  0  0  0  0  0  0  0  0  0  0
   17.5859   -8.2108  -12.6417 C   0  0  1  0  0  0  0  0  0  0  0  0
   16.4933   -9.2279  -12.6080 C   0  0  0  0  0  0  0  0  0  0  0  0
   16.2113   -9.8615  -13.9169 C   0  0  0  0  0  0  0  0  0  0  0  0
   16.5868  -11.1045  -14.3774 C   0  0  0  0  0  0  0  0  0  0  0  0
   16.1317  -11.3049  -15.6247 N   0  0  0  0  0  0  0  0  0  0  0  0
   15.4598  -10.1890  -15.9726 C   0  0  0  0  0  0  0  0  0  0  0  0
   15.5106   -9.3251  -14.9432 N   0  0  0  0  0  0  0  0  0  0  0  0
   17.6208   -7.3302  -11.4697 C   0  0  0  0  0  0  0  0  0  0  0  0
   18.4798   -7.5171  -10.5872 O   0  0  0  0  0  0  0  0  0  0  0  0
   17.1102   -3.1872   -8.3551 N   0  0  0  0  0  0  0  0  0  0  0  0
   18.1659   -3.4939   -9.2603 C   0  0  0  0  0  0  0  0  0  0  0  0
   19.2015   -2.7862   -9.1931 O   0  0  0  0  0  0  0  0  0  0  0  0
   18.0874   -4.5851  -10.2478 C   0  0  0  0  0  0  0  0  0  0  0  0
   16.7773   -5.3189  -10.2047 C   0  0  2  0  0  0  0  0  0  0  0  0
   16.6968   -6.2766  -11.3287 N   0  0  0  0  0  0  0  0  0  0  0  0
   15.6236   -4.3766  -10.2965 C   0  0  0  0  0  0  0  0  0  0  0  0
   14.7597   -4.3075  -11.3715 O   0  0  0  0  0  0  0  0  0  0  0  0
   15.3739   -3.5581   -9.3472 O   0  0  0  0  0  0  0  0  0  0  0  0
  2  1  1  6
  3  2  1  0
  4  3  1  0
  5  2  1  0
  5  6  2  0
  7  5  1  0
  8  7  1  0
  8  9  1  1
 10  9  1  0
 10 14  1  0
 11 12  1  0
 11 10  2  0
 12 13  1  0
 13 14  2  0
 15  8  1  0
 16 15  2  0
 18 17  1  0
 19 18  2  0
 20 18  1  0
 21 20  1  6
 21 22  1  0
 22 15  1  0
 23 24  1  0
 23 21  1  0
 25 23  2  0
M  END
$$$$
