CHN.pdb
     RDKit          3D

 25 25  0  0  1  0  0  0  0  0999 V2000
   21.8238  -12.8484  -18.1340 N   0  0  0  0  0  0  0  0  0  0  0  0
   22.0629  -11.6645  -18.9010 C   0  0  1  0  0  0  0  0  0  0  0  0
   21.0156  -11.3549  -19.9279 C   0  0  0  0  0  0  0  0  0  0  0  0
   20.8515  -12.6020  -21.2030 S   0  0  0  0  0  0  0  0  0  0  0  0
   22.2992  -10.5137  -17.9578 C   0  0  0  0  0  0  0  0  0  0  0  0
   21.5952  -10.3592  -16.9303 O   0  0  0  0  0  0  0  0  0  0  0  0
   23.3202   -9.5632  -18.1911 N   0  0  0  0  0  0  0  0  0  0  0  0
   23.5710   -8.5075  -17.2689 C   0  0  1  0  0  0  0  0  0  0  0  0
   25.0295   -8.3802  -16.9758 C   0  0  0  0  0  0  0  0  0  0  0  0
   25.6124   -9.5454  -16.2710 C   0  0  0  0  0  0  0  0  0  0  0  0
   24.9881  -10.6887  -15.8223 C   0  0  0  0  0  0  0  0  0  0  0  0
   25.8706  -11.5086  -15.2292 N   0  0  0  0  0  0  0  0  0  0  0  0
   27.0692  -10.8948  -15.2938 C   0  0  0  0  0  0  0  0  0  0  0  0
   26.9087   -9.7159  -15.9206 N   0  0  0  0  0  0  0  0  0  0  0  0
   22.9175   -7.2420  -17.6176 C   0  0  0  0  0  0  0  0  0  0  0  0
   23.1364   -6.7246  -18.7294 O   0  0  0  0  0  0  0  0  0  0  0  0
   19.6714   -3.1692  -17.7951 N   0  0  0  0  0  0  0  0  0  0  0  0
   19.2154   -4.4963  -18.0374 C   0  0  0  0  0  0  0  0  0  0  0  0
   18.0954   -4.6248  -18.5913 O   0  0  0  0  0  0  0  0  0  0  0  0
   19.9926   -5.6935  -17.6704 C   0  0  0  0  0  0  0  0  0  0  0  0
   21.3296   -5.3613  -17.0714 C   0  0  2  0  0  0  0  0  0  0  0  0
   22.0463   -6.6043  -16.7132 N   0  0  0  0  0  0  0  0  0  0  0  0
   21.1823   -4.5243  -15.8445 C   0  0  0  0  0  0  0  0  0  0  0  0
   21.1581   -3.1437  -15.8434 O   0  0  0  0  0  0  0  0  0  0  0  0
   21.0686   -5.0691  -14.6941 O   0  0  0  0  0  0  0  0  0  0  0  0
  2  1  1  1
  3  2  1  0
  4  3  1  0
  5  2  1  0
  5  6  2  0
  7  5  1  0
  8  7  1  0
  8  9  1  6
 10  9  1  0
 10 14  1  0
 11 12  1  0
 11 10  2  0
 12 13  1  0
 13 14  2  0
 15  8  1  0
 16 15  2  0
 18 17  1  0
 19 18  2  0
 20 18  1  0
 21 20  1  1
 21 22  1  0
 22 15  1  0
 23 24  1  0
 23 21  1  0
 25 23  2  0
M  END
$$$$
