CHN.pdb
     RDKit          3D

 25 25  0  0  1  0  0  0  0  0999 V2000
   15.9950  -10.6717  -16.8058 N   0  0  0  0  0  0  0  0  0  0  0  0
   16.4083   -9.3032  -16.8654 C   0  0  1  0  0  0  0  0  0  0  0  0
   15.3450   -8.3064  -16.5151 C   0  0  0  0  0  0  0  0  0  0  0  0
   13.9774   -8.2604  -17.6707 S   0  0  0  0  0  0  0  0  0  0  0  0
   17.6509   -9.1339  -16.0304 C   0  0  0  0  0  0  0  0  0  0  0  0
   17.7910   -9.7417  -14.9413 O   0  0  0  0  0  0  0  0  0  0  0  0
   18.7065   -8.2855  -16.4380 N   0  0  0  0  0  0  0  0  0  0  0  0
   19.8640   -8.1059  -15.6282 C   0  0  1  0  0  0  0  0  0  0  0  0
   21.1076   -8.1057  -16.4546 C   0  0  0  0  0  0  0  0  0  0  0  0
   21.4987   -9.4398  -16.9657 C   0  0  0  0  0  0  0  0  0  0  0  0
   20.9291  -10.6678  -16.7092 C   0  0  0  0  0  0  0  0  0  0  0  0
   21.5815  -11.6394  -17.3674 N   0  0  0  0  0  0  0  0  0  0  0  0
   22.5760  -11.0391  -18.0518 C   0  0  0  0  0  0  0  0  0  0  0  0
   22.5219   -9.7179  -17.8071 N   0  0  0  0  0  0  0  0  0  0  0  0
   19.7682   -6.9831  -14.6900 C   0  0  0  0  0  0  0  0  0  0  0  0
   19.2169   -5.9264  -15.0521 O   0  0  0  0  0  0  0  0  0  0  0  0
   19.7462   -4.2803  -10.1539 N   0  0  0  0  0  0  0  0  0  0  0  0
   19.5256   -5.6757   -9.9742 C   0  0  0  0  0  0  0  0  0  0  0  0
   19.1540   -6.0546   -8.8358 O   0  0  0  0  0  0  0  0  0  0  0  0
   19.7130   -6.6649  -11.0504 C   0  0  0  0  0  0  0  0  0  0  0  0
   20.0516   -6.0344  -12.3712 C   0  0  2  0  0  0  0  0  0  0  0  0
   20.2907   -7.0833  -13.3859 N   0  0  0  0  0  0  0  0  0  0  0  0
   21.2720   -5.1815  -12.2690 C   0  0  0  0  0  0  0  0  0  0  0  0
   22.4629   -5.4475  -12.9154 O   0  0  0  0  0  0  0  0  0  0  0  0
   21.2703   -4.1253  -11.5494 O   0  0  0  0  0  0  0  0  0  0  0  0
  2  1  1  1
  3  2  1  0
  4  3  1  0
  5  2  1  0
  5  6  2  0
  7  5  1  0
  8  7  1  0
  8  9  1  6
 10  9  1  0
 10 14  1  0
 11 12  1  0
 11 10  2  0
 12 13  1  0
 13 14  2  0
 15  8  1  0
 16 15  2  0
 18 17  1  0
 19 18  2  0
 20 18  1  0
 21 20  1  1
 21 22  1  0
 22 15  1  0
 23 24  1  0
 23 21  1  0
 25 23  2  0
M  END
$$$$
