CHN.pdb
     RDKit          3D

 25 25  0  0  1  0  0  0  0  0999 V2000
   19.3358  -10.8793  -16.4849 N   0  0  0  0  0  0  0  0  0  0  0  0
   20.4765  -10.0343  -16.3062 C   0  0  1  0  0  0  0  0  0  0  0  0
   21.1370   -9.5879  -17.5757 C   0  0  0  0  0  0  0  0  0  0  0  0
   21.9396  -10.9063  -18.4845 S   0  0  0  0  0  0  0  0  0  0  0  0
   20.0903   -8.8766  -15.4228 C   0  0  0  0  0  0  0  0  0  0  0  0
   19.1303   -8.1242  -15.7186 O   0  0  0  0  0  0  0  0  0  0  0  0
   20.7916   -8.5910  -14.2283 N   0  0  0  0  0  0  0  0  0  0  0  0
   20.4783   -7.4442  -13.4444 C   0  0  1  0  0  0  0  0  0  0  0  0
   20.5580   -7.7486  -11.9847 C   0  0  0  0  0  0  0  0  0  0  0  0
   20.1776   -6.6184  -11.1059 C   0  0  0  0  0  0  0  0  0  0  0  0
   19.8458   -5.3262  -11.4498 C   0  0  0  0  0  0  0  0  0  0  0  0
   19.5627   -4.6025  -10.3548 N   0  0  0  0  0  0  0  0  0  0  0  0
   19.7116   -5.4280   -9.2994 C   0  0  0  0  0  0  0  0  0  0  0  0
   20.0810   -6.6378   -9.7560 N   0  0  0  0  0  0  0  0  0  0  0  0
   21.2007   -6.2322  -13.8437 C   0  0  0  0  0  0  0  0  0  0  0  0
   22.4367   -6.2755  -13.9918 O   0  0  0  0  0  0  0  0  0  0  0  0
   22.3590   -1.5189  -15.7779 N   0  0  0  0  0  0  0  0  0  0  0  0
   21.6798   -2.4746  -16.5861 C   0  0  0  0  0  0  0  0  0  0  0  0
   21.6336   -2.2504  -17.8212 O   0  0  0  0  0  0  0  0  0  0  0  0
   21.0459   -3.6867  -16.0375 C   0  0  0  0  0  0  0  0  0  0  0  0
   21.2142   -3.8119  -14.5501 C   0  0  2  0  0  0  0  0  0  0  0  0
   20.5161   -5.0209  -14.0620 N   0  0  0  0  0  0  0  0  0  0  0  0
   20.6623   -2.6217  -13.8387 C   0  0  0  0  0  0  0  0  0  0  0  0
   21.4315   -1.5936  -13.3307 O   0  0  0  0  0  0  0  0  0  0  0  0
   19.4031   -2.4958  -13.6596 O   0  0  0  0  0  0  0  0  0  0  0  0
  2  1  1  6
  3  2  1  0
  4  3  1  0
  5  2  1  0
  5  6  2  0
  7  5  1  0
  8  7  1  0
  8  9  1  1
 10  9  1  0
 10 14  1  0
 11 12  1  0
 11 10  2  0
 12 13  1  0
 13 14  2  0
 15  8  1  0
 16 15  2  0
 18 17  1  0
 19 18  2  0
 20 18  1  0
 21 20  1  6
 21 22  1  0
 22 15  1  0
 23 24  1  0
 23 21  1  0
 25 23  2  0
M  END
$$$$
