SPI.pdb
     RDKit          3D

 22 22  0  0  1  0  0  0  0  0999 V2000
   28.3956  -18.5544  -15.6415 O   0  0  0  0  0  0  0  0  0  0  0  0
   27.4224  -17.6427  -15.9094 C   0  0  0  0  0  0  0  0  0  0  0  0
   26.0979  -18.3779  -16.1557 C   0  0  2  0  0  0  0  0  0  0  0  0
   25.1219  -17.3237  -16.5363 N   0  0  0  0  0  0  0  0  0  0  0  0
   25.6336  -18.9841  -14.8930 C   0  0  0  0  0  0  0  0  0  0  0  0
   25.2021  -18.1816  -14.0124 O   0  0  0  0  0  0  0  0  0  0  0  0
   25.6239  -20.3662  -14.5837 N   0  0  0  0  0  0  0  0  0  0  0  0
   25.9900  -21.4108  -15.5095 C   0  0  0  0  0  0  0  0  0  0  0  0
   25.1581  -22.6121  -15.0255 C   0  0  0  0  0  0  0  0  0  0  0  0
   25.3581  -22.4341  -13.5329 C   0  0  0  0  0  0  0  0  0  0  0  0
   25.2446  -20.9575  -13.3585 C   0  0  1  0  0  0  0  0  0  0  0  0
   25.9903  -20.4489  -12.1811 C   0  0  0  0  0  0  0  0  0  0  0  0
   27.2235  -20.2880  -12.3254 O   0  0  0  0  0  0  0  0  0  0  0  0
   27.0879  -17.2225   -8.4969 C   0  0  0  0  0  0  0  0  0  0  0  0
   27.0891  -18.5008   -9.2540 C   0  0  0  0  0  0  0  0  0  0  0  0
   26.2247  -19.5982   -8.7260 C   0  0  2  0  0  0  0  0  0  0  0  0
   26.5786  -20.0196   -7.3145 C   0  0  0  0  0  0  0  0  0  0  0  0
   25.8301  -20.6727   -9.6459 C   0  0  2  0  0  0  0  0  0  0  0  0
   25.3887  -20.1494  -10.9481 N   0  0  0  0  0  0  0  0  0  0  0  0
   24.9510  -21.7365   -9.1782 C   0  0  0  0  0  0  0  0  0  0  0  0
   23.6974  -21.7586   -9.3088 O   0  0  0  0  0  0  0  0  0  0  0  0
   25.4384  -22.8862   -8.5051 O   0  0  0  0  0  0  0  0  0  0  0  0
  1  2  1  0
  2  3  1  0
  3  4  1  1
  3  5  1  0
  5  7  1  0
  5  6  2  0
  7  8  1  0
  9  8  1  0
 10 11  1  0
 10  9  1  0
 11  7  1  0
 11 12  1  1
 12 19  1  0
 13 12  2  0
 15 14  1  0
 16 17  1  1
 16 15  1  0
 18 20  1  0
 18 16  1  0
 18 19  1  6
 20 22  1  0
 21 20  2  0
M  END
$$$$
