SPI.pdb
     RDKit          3D

 22 22  0  0  1  0  0  0  0  0999 V2000
   21.4311  -10.1928  -19.6542 O   0  0  0  0  0  0  0  0  0  0  0  0
   21.5433  -11.5336  -19.8539 C   0  0  0  0  0  0  0  0  0  0  0  0
   21.4718  -12.2520  -18.4996 C   0  0  2  0  0  0  0  0  0  0  0  0
   20.0692  -12.7273  -18.3744 N   0  0  0  0  0  0  0  0  0  0  0  0
   21.7136  -11.2788  -17.4170 C   0  0  0  0  0  0  0  0  0  0  0  0
   20.7240  -10.5656  -17.0741 O   0  0  0  0  0  0  0  0  0  0  0  0
   22.9375  -11.0767  -16.7333 N   0  0  0  0  0  0  0  0  0  0  0  0
   24.1234  -11.8742  -16.9327 C   0  0  0  0  0  0  0  0  0  0  0  0
   24.8334  -11.7891  -15.5695 C   0  0  0  0  0  0  0  0  0  0  0  0
   24.6110  -10.3144  -15.2949 C   0  0  0  0  0  0  0  0  0  0  0  0
   23.2056  -10.1029  -15.7462 C   0  0  1  0  0  0  0  0  0  0  0  0
   22.9333   -8.7095  -16.1766 C   0  0  0  0  0  0  0  0  0  0  0  0
   22.8296   -8.5137  -17.4089 O   0  0  0  0  0  0  0  0  0  0  0  0
   18.6070   -6.1025  -16.6576 C   0  0  0  0  0  0  0  0  0  0  0  0
   19.8086   -6.2397  -15.7947 C   0  0  0  0  0  0  0  0  0  0  0  0
   21.1305   -6.3126  -16.4857 C   0  0  2  0  0  0  0  0  0  0  0  0
   21.1436   -7.2627  -17.6657 C   0  0  0  0  0  0  0  0  0  0  0  0
   22.3456   -6.2821  -15.6617 C   0  0  2  0  0  0  0  0  0  0  0  0
   22.7913   -7.6329  -15.2863 N   0  0  0  0  0  0  0  0  0  0  0  0
   22.4289   -5.3649  -14.5325 C   0  0  0  0  0  0  0  0  0  0  0  0
   22.2257   -5.6706  -13.3266 O   0  0  0  0  0  0  0  0  0  0  0  0
   22.7545   -3.9930  -14.6883 O   0  0  0  0  0  0  0  0  0  0  0  0
  1  2  1  0
  2  3  1  0
  3  4  1  1
  3  5  1  0
  5  7  1  0
  5  6  2  0
  7  8  1  0
  9  8  1  0
 10 11  1  0
 10  9  1  0
 11  7  1  0
 11 12  1  6
 12 19  1  0
 13 12  2  0
 15 14  1  0
 16 17  1  1
 16 15  1  0
 18 20  1  0
 18 16  1  0
 18 19  1  1
 20 22  1  0
 21 20  2  0
M  END
$$$$
