SPI.pdb
     RDKit          3D

 22 22  0  0  1  0  0  0  0  0999 V2000
   27.7632  -23.3307  -15.4989 O   0  0  0  0  0  0  0  0  0  0  0  0
   28.5837  -22.3445  -15.9511 C   0  0  0  0  0  0  0  0  0  0  0  0
   27.7361  -21.1309  -16.3564 C   0  0  2  0  0  0  0  0  0  0  0  0
   28.6995  -20.1319  -16.8880 N   0  0  0  0  0  0  0  0  0  0  0  0
   27.1066  -20.5513  -15.1542 C   0  0  0  0  0  0  0  0  0  0  0  0
   27.8936  -20.0505  -14.2966 O   0  0  0  0  0  0  0  0  0  0  0  0
   25.7180  -20.5022  -14.8794 N   0  0  0  0  0  0  0  0  0  0  0  0
   24.6911  -20.9478  -15.7899 C   0  0  0  0  0  0  0  0  0  0  0  0
   23.4870  -20.0649  -15.4157 C   0  0  0  0  0  0  0  0  0  0  0  0
   23.6297  -20.1222  -13.9071 C   0  0  0  0  0  0  0  0  0  0  0  0
   25.1030  -20.0031  -13.7101 C   0  0  1  0  0  0  0  0  0  0  0  0
   25.5781  -20.6361  -12.4554 C   0  0  0  0  0  0  0  0  0  0  0  0
   25.9892  -21.8154  -12.5433 O   0  0  0  0  0  0  0  0  0  0  0  0
   28.2905  -19.7115   -7.0479 C   0  0  0  0  0  0  0  0  0  0  0  0
   27.2740  -20.4750   -7.8168 C   0  0  0  0  0  0  0  0  0  0  0  0
   26.8358  -19.8918   -9.1199 C   0  0  2  0  0  0  0  0  0  0  0  0
   26.6571  -18.3879   -9.0789 C   0  0  0  0  0  0  0  0  0  0  0  0
   25.8593  -20.6411   -9.9209 C   0  0  2  0  0  0  0  0  0  0  0  0
   25.5858  -19.9873  -11.2100 N   0  0  0  0  0  0  0  0  0  0  0  0
   24.6312  -21.1192   -9.2994 C   0  0  0  0  0  0  0  0  0  0  0  0
   23.4938  -20.5914   -9.4283 O   0  0  0  0  0  0  0  0  0  0  0  0
   24.5980  -22.2612   -8.4584 O   0  0  0  0  0  0  0  0  0  0  0  0
  1  2  1  0
  2  3  1  0
  3  4  1  1
  3  5  1  0
  5  7  1  0
  5  6  2  0
  7  8  1  0
  9  8  1  0
 10 11  1  0
 10  9  1  0
 11  7  1  0
 11 12  1  1
 12 19  1  0
 13 12  2  0
 15 14  1  0
 16 17  1  1
 16 15  1  0
 18 20  1  0
 18 16  1  0
 18 19  1  6
 20 22  1  0
 21 20  2  0
M  END
$$$$
