SPI.pdb
     RDKit          3D

 22 22  0  0  1  0  0  0  0  0999 V2000
   13.8323   -9.5000  -14.9771 O   0  0  0  0  0  0  0  0  0  0  0  0
   15.1728   -9.2838  -15.0579 C   0  0  0  0  0  0  0  0  0  0  0  0
   15.6444   -9.5760  -16.4888 C   0  0  2  0  0  0  0  0  0  0  0  0
   15.7981  -11.0523  -16.5641 N   0  0  0  0  0  0  0  0  0  0  0  0
   16.9763   -8.9755  -16.6964 C   0  0  0  0  0  0  0  0  0  0  0  0
   17.9703   -9.6970  -16.3850 O   0  0  0  0  0  0  0  0  0  0  0  0
   17.2386   -7.6819  -17.2102 N   0  0  0  0  0  0  0  0  0  0  0  0
   16.2274   -6.7865  -17.7181 C   0  0  0  0  0  0  0  0  0  0  0  0
   16.9942   -5.9493  -18.7577 C   0  0  0  0  0  0  0  0  0  0  0  0
   18.2704   -5.7296  -17.9686 C   0  0  0  0  0  0  0  0  0  0  0  0
   18.5005   -7.0603  -17.3361 C   0  0  1  0  0  0  0  0  0  0  0  0
   19.2683   -6.9803  -16.0692 C   0  0  0  0  0  0  0  0  0  0  0  0
   18.6016   -6.9702  -15.0095 O   0  0  0  0  0  0  0  0  0  0  0  0
   22.6390  -10.5752  -14.9408 C   0  0  0  0  0  0  0  0  0  0  0  0
   21.7288   -9.4027  -15.0047 C   0  0  0  0  0  0  0  0  0  0  0  0
   22.3073   -8.0784  -14.6281 C   0  0  2  0  0  0  0  0  0  0  0  0
   23.1883   -8.1324  -13.3968 C   0  0  0  0  0  0  0  0  0  0  0  0
   21.4609   -6.8869  -14.7704 C   0  0  2  0  0  0  0  0  0  0  0  0
   20.6699   -6.9173  -16.0105 N   0  0  0  0  0  0  0  0  0  0  0  0
   22.0298   -5.5656  -14.5385 C   0  0  0  0  0  0  0  0  0  0  0  0
   22.4881   -4.8009  -15.4296 O   0  0  0  0  0  0  0  0  0  0  0  0
   22.1288   -4.9960  -13.2430 O   0  0  0  0  0  0  0  0  0  0  0  0
  1  2  1  0
  2  3  1  0
  3  4  1  1
  3  5  1  0
  5  7  1  0
  5  6  2  0
  7  8  1  0
  9  8  1  0
 10 11  1  0
 10  9  1  0
 11  7  1  0
 11 12  1  1
 12 19  1  0
 13 12  2  0
 15 14  1  0
 16 17  1  1
 16 15  1  0
 18 20  1  0
 18 16  1  0
 18 19  1  6
 20 22  1  0
 21 20  2  0
M  END
$$$$
