SPI.pdb
     RDKit          3D

 22 22  0  0  1  0  0  0  0  0999 V2000
   15.9359  -15.2964  -14.5869 O   0  0  0  0  0  0  0  0  0  0  0  0
   16.7032  -14.2094  -14.8695 C   0  0  0  0  0  0  0  0  0  0  0  0
   16.8258  -14.0618  -16.3921 C   0  0  2  0  0  0  0  0  0  0  0  0
   17.5324  -15.2846  -16.8553 N   0  0  0  0  0  0  0  0  0  0  0  0
   17.6847  -12.9029  -16.7031 C   0  0  0  0  0  0  0  0  0  0  0  0
   18.9313  -13.1255  -16.7456 O   0  0  0  0  0  0  0  0  0  0  0  0
   17.2441  -11.5813  -16.9589 N   0  0  0  0  0  0  0  0  0  0  0  0
   15.8605  -11.1966  -17.0994 C   0  0  0  0  0  0  0  0  0  0  0  0
   15.9314   -9.9790  -18.0384 C   0  0  0  0  0  0  0  0  0  0  0  0
   17.1391   -9.2962  -17.4263 C   0  0  0  0  0  0  0  0  0  0  0  0
   18.0539  -10.4385  -17.1398 C   0  0  1  0  0  0  0  0  0  0  0  0
   18.9887  -10.1718  -16.0190 C   0  0  0  0  0  0  0  0  0  0  0  0
   18.6202  -10.5429  -14.8815 O   0  0  0  0  0  0  0  0  0  0  0  0
   24.5703  -10.9905  -14.2306 C   0  0  0  0  0  0  0  0  0  0  0  0
   23.4029  -10.0792  -14.1131 C   0  0  0  0  0  0  0  0  0  0  0  0
   22.3820  -10.1470  -15.2010 C   0  0  2  0  0  0  0  0  0  0  0  0
   22.9826  -10.2867  -16.5848 C   0  0  0  0  0  0  0  0  0  0  0  0
   21.1943   -9.2905  -15.0909 C   0  0  2  0  0  0  0  0  0  0  0  0
   20.2326   -9.5393  -16.1760 N   0  0  0  0  0  0  0  0  0  0  0  0
   21.3541   -7.8636  -14.8428 C   0  0  0  0  0  0  0  0  0  0  0  0
   21.3897   -6.9676  -15.7287 O   0  0  0  0  0  0  0  0  0  0  0  0
   21.4932   -7.3288  -13.5362 O   0  0  0  0  0  0  0  0  0  0  0  0
  1  2  1  0
  2  3  1  0
  3  4  1  1
  3  5  1  0
  5  7  1  0
  5  6  2  0
  7  8  1  0
  9  8  1  0
 10 11  1  0
 10  9  1  0
 11  7  1  0
 11 12  1  1
 12 19  1  0
 13 12  2  0
 15 14  1  0
 16 17  1  6
 16 15  1  0
 18 20  1  0
 18 16  1  0
 18 19  1  6
 20 22  1  0
 21 20  2  0
M  END
$$$$
