SPI.pdb
     RDKit          3D

 22 22  0  0  1  0  0  0  0  0999 V2000
   18.8409  -11.5048  -19.3957 O   0  0  0  0  0  0  0  0  0  0  0  0
   19.0539  -10.6866  -18.3301 C   0  0  0  0  0  0  0  0  0  0  0  0
   19.3333  -11.5419  -17.0868 C   0  0  2  0  0  0  0  0  0  0  0  0
   17.9987  -11.9514  -16.5768 N   0  0  0  0  0  0  0  0  0  0  0  0
   19.9714  -10.7055  -16.0519 C   0  0  0  0  0  0  0  0  0  0  0  0
   19.1982   -9.9600  -15.3796 O   0  0  0  0  0  0  0  0  0  0  0  0
   21.3535  -10.6659  -15.7448 N   0  0  0  0  0  0  0  0  0  0  0  0
   22.3306  -11.5915  -16.2653 C   0  0  0  0  0  0  0  0  0  0  0  0
   23.4015  -11.6251  -15.1601 C   0  0  0  0  0  0  0  0  0  0  0  0
   23.4438  -10.1421  -14.8464 C   0  0  0  0  0  0  0  0  0  0  0  0
   22.0040   -9.7558  -14.8827 C   0  0  1  0  0  0  0  0  0  0  0  0
   21.7900   -8.3296  -15.2304 C   0  0  0  0  0  0  0  0  0  0  0  0
   21.6090   -8.0690  -16.4415 O   0  0  0  0  0  0  0  0  0  0  0  0
   18.3281   -3.9053  -15.4416 C   0  0  0  0  0  0  0  0  0  0  0  0
   19.7690   -4.1720  -15.1968 C   0  0  0  0  0  0  0  0  0  0  0  0
   20.1430   -5.5698  -14.8274 C   0  0  2  0  0  0  0  0  0  0  0  0
   19.1571   -6.2299  -13.8855 C   0  0  0  0  0  0  0  0  0  0  0  0
   21.5622   -5.8697  -14.5982 C   0  0  2  0  0  0  0  0  0  0  0  0
   21.7822   -7.2903  -14.2860 N   0  0  0  0  0  0  0  0  0  0  0  0
   22.3499   -5.0085  -13.7257 C   0  0  0  0  0  0  0  0  0  0  0  0
   22.5828   -5.2218  -12.5054 O   0  0  0  0  0  0  0  0  0  0  0  0
   22.9472   -3.8051  -14.1812 O   0  0  0  0  0  0  0  0  0  0  0  0
  1  2  1  0
  2  3  1  0
  3  4  1  1
  3  5  1  0
  5  7  1  0
  5  6  2  0
  7  8  1  0
  9  8  1  0
 10 11  1  0
 10  9  1  0
 11  7  1  0
 11 12  1  6
 12 19  1  0
 13 12  2  0
 15 14  1  0
 16 17  1  1
 16 15  1  0
 18 20  1  0
 18 16  1  0
 18 19  1  1
 20 22  1  0
 21 20  2  0
M  END
$$$$
