SPI.pdb
     RDKit          3D

 22 22  0  0  1  0  0  0  0  0999 V2000
   16.2672  -14.4889  -17.7900 O   0  0  0  0  0  0  0  0  0  0  0  0
   16.5299  -13.4815  -16.9146 C   0  0  0  0  0  0  0  0  0  0  0  0
   18.0415  -13.4207  -16.6561 C   0  0  2  0  0  0  0  0  0  0  0  0
   18.3577  -14.6324  -15.8557 N   0  0  0  0  0  0  0  0  0  0  0  0
   18.3477  -12.2411  -15.8240 C   0  0  0  0  0  0  0  0  0  0  0  0
   17.9970  -12.3076  -14.6082 O   0  0  0  0  0  0  0  0  0  0  0  0
   18.9943  -11.0579  -16.2576 N   0  0  0  0  0  0  0  0  0  0  0  0
   19.5614  -10.8742  -17.5717 C   0  0  0  0  0  0  0  0  0  0  0  0
   20.6992   -9.8679  -17.3222 C   0  0  0  0  0  0  0  0  0  0  0  0
   19.9704   -8.9400  -16.3696 C   0  0  0  0  0  0  0  0  0  0  0  0
   19.2152   -9.8869  -15.4997 C   0  0  1  0  0  0  0  0  0  0  0  0
   17.9836   -9.2946  -14.9224 C   0  0  0  0  0  0  0  0  0  0  0  0
   16.9064   -9.5694  -15.4982 O   0  0  0  0  0  0  0  0  0  0  0  0
   16.0854  -10.0841  -10.2556 C   0  0  0  0  0  0  0  0  0  0  0  0
   16.2745   -9.6591  -11.6666 C   0  0  0  0  0  0  0  0  0  0  0  0
   16.4442   -8.1961  -11.9135 C   0  0  2  0  0  0  0  0  0  0  0  0
   15.4421   -7.3378  -11.1690 C   0  0  0  0  0  0  0  0  0  0  0  0
   16.7935   -7.7585  -13.2710 C   0  0  2  0  0  0  0  0  0  0  0  0
   17.9756   -8.4634  -13.7906 N   0  0  0  0  0  0  0  0  0  0  0  0
   16.8490   -6.3353  -13.5786 C   0  0  0  0  0  0  0  0  0  0  0  0
   17.8432   -5.5846  -13.3862 O   0  0  0  0  0  0  0  0  0  0  0  0
   15.7508   -5.6342  -14.1398 O   0  0  0  0  0  0  0  0  0  0  0  0
  1  2  1  0
  2  3  1  0
  3  4  1  1
  3  5  1  0
  5  7  1  0
  5  6  2  0
  7  8  1  0
  9  8  1  0
 10 11  1  0
 10  9  1  0
 11  7  1  0
 11 12  1  6
 12 19  1  0
 13 12  2  0
 15 14  1  0
 16 17  1  6
 16 15  1  0
 18 20  1  0
 18 16  1  0
 18 19  1  1
 20 22  1  0
 21 20  2  0
M  END
$$$$
