FNE.pdb
     RDKit          3D

 29 29  0  0  1  0  0  0  0  0999 V2000
   20.2920  -10.0245  -17.7804 N   0  0  0  0  0  0  0  0  0  0  0  0
   21.0629   -8.9129  -18.2552 C   0  0  1  0  0  0  0  0  0  0  0  0
   20.7405   -8.5574  -19.6925 C   0  0  0  0  0  0  0  0  0  0  0  0
   21.0387   -9.6610  -20.6230 C   0  0  0  0  0  0  0  0  0  0  0  0
   22.3493   -9.9420  -20.9007 C   0  0  0  0  0  0  0  0  0  0  0  0
   22.6465  -10.9671  -21.7657 C   0  0  0  0  0  0  0  0  0  0  0  0
   21.6739  -11.7351  -22.3743 C   0  0  0  0  0  0  0  0  0  0  0  0
   20.3740  -11.4136  -22.0631 C   0  0  0  0  0  0  0  0  0  0  0  0
   20.0383  -10.3937  -21.2011 C   0  0  0  0  0  0  0  0  0  0  0  0
   20.7776   -7.6708  -17.4526 C   0  0  0  0  0  0  0  0  0  0  0  0
   19.5981   -7.3697  -17.1331 O   0  0  0  0  0  0  0  0  0  0  0  0
   20.2141   -6.5542  -13.9979 N   0  0  0  0  0  0  0  0  0  0  0  0
   21.5237   -6.0467  -13.8352 C   0  0  0  0  0  0  0  0  0  0  0  0
   21.9745   -6.0020  -12.6704 O   0  0  0  0  0  0  0  0  0  0  0  0
   22.3484   -5.5822  -14.9670 C   0  0  0  0  0  0  0  0  0  0  0  0
   21.6134   -5.6000  -16.2781 C   0  0  2  0  0  0  0  0  0  0  0  0
   21.8325   -6.8109  -17.0376 N   0  0  0  0  0  0  0  0  0  0  0  0
   21.8251   -4.3831  -17.0714 C   0  0  0  0  0  0  0  0  0  0  0  0
   22.8870   -4.2183  -17.7047 O   0  0  0  0  0  0  0  0  0  0  0  0
   20.8121   -3.3982  -17.1108 N   0  0  0  0  0  0  0  0  0  0  0  0
   20.9440   -2.1627  -17.9006 C   0  0  1  0  0  0  0  0  0  0  0  0
   19.5854   -1.8642  -18.4513 C   0  0  0  0  0  0  0  0  0  0  0  0
   19.4811   -0.5959  -19.2323 C   0  0  0  0  0  0  0  0  0  0  0  0
   18.0471   -0.3352  -19.6036 C   0  0  0  0  0  0  0  0  0  0  0  0
   17.4412    0.6642  -19.1475 O   0  0  0  0  0  0  0  0  0  0  0  0
   21.4464   -1.0891  -17.0283 C   0  0  0  0  0  0  0  0  0  0  0  0
   21.1918   -1.1140  -15.8009 O   0  0  0  0  0  0  0  0  0  0  0  0
   17.3450   -1.1808  -20.4562 O   0  0  0  0  0  0  0  0  0  0  0  0
   22.2008   -0.0370  -17.5161 O   0  0  0  0  0  0  0  0  0  0  0  0
  2  1  1  1
  2  3  1  0
  3  4  1  0
  4  5  2  0
  4  9  1  0
  5  6  1  0
  6  7  2  0
  8  7  1  0
  9  8  2  0
 10  2  1  0
 11 10  2  0
 12 13  1  0
 13 14  2  0
 16 15  1  1
 15 13  1  0
 16 17  1  0
 17 10  1  0
 18 20  1  0
 18 16  1  0
 19 18  2  0
 21 22  1  1
 21 26  1  0
 21 20  1  0
 23 22  1  0
 24 23  1  0
 25 24  2  0
 26 29  1  0
 27 26  2  0
 28 24  1  0
M  END
$$$$
