FNE.pdb
     RDKit          3D

 29 29  0  0  1  0  0  0  0  0999 V2000
   27.8823  -21.3616   -9.3594 N   0  0  0  0  0  0  0  0  0  0  0  0
   26.6774  -20.9923   -8.6761 C   0  0  1  0  0  0  0  0  0  0  0  0
   26.7706  -19.6202   -8.0398 C   0  0  0  0  0  0  0  0  0  0  0  0
   27.6962  -19.5964   -6.8928 C   0  0  0  0  0  0  0  0  0  0  0  0
   27.5474  -20.5443   -5.9167 C   0  0  0  0  0  0  0  0  0  0  0  0
   28.4007  -20.5378   -4.8401 C   0  0  0  0  0  0  0  0  0  0  0  0
   29.4123  -19.6093   -4.6958 C   0  0  0  0  0  0  0  0  0  0  0  0
   29.5204  -18.6789   -5.7021 C   0  0  0  0  0  0  0  0  0  0  0  0
   28.6837  -18.6546   -6.7954 C   0  0  0  0  0  0  0  0  0  0  0  0
   25.5118  -20.9238   -9.6275 C   0  0  0  0  0  0  0  0  0  0  0  0
   25.6865  -21.0534  -10.8671 O   0  0  0  0  0  0  0  0  0  0  0  0
   21.9255  -22.9785   -7.6707 N   0  0  0  0  0  0  0  0  0  0  0  0
   21.8934  -21.5758   -7.8448 C   0  0  0  0  0  0  0  0  0  0  0  0
   22.0047  -20.8736   -6.8169 O   0  0  0  0  0  0  0  0  0  0  0  0
   21.7371  -20.9365   -9.1653 C   0  0  0  0  0  0  0  0  0  0  0  0
   23.0111  -20.9117   -9.9626 C   0  0  2  0  0  0  0  0  0  0  0  0
   24.1891  -20.7116   -9.1482 N   0  0  0  0  0  0  0  0  0  0  0  0
   22.9511  -20.0009  -11.1122 C   0  0  0  0  0  0  0  0  0  0  0  0
   23.8202  -19.1194  -11.2662 O   0  0  0  0  0  0  0  0  0  0  0  0
   21.8972  -20.1325  -12.0448 N   0  0  0  0  0  0  0  0  0  0  0  0
   22.0460  -19.7575  -13.4608 C   0  0  1  0  0  0  0  0  0  0  0  0
   23.2222  -20.5218  -13.9808 C   0  0  0  0  0  0  0  0  0  0  0  0
   23.5550  -20.2770  -15.4156 C   0  0  0  0  0  0  0  0  0  0  0  0
   24.4754  -19.0936  -15.5370 C   0  0  0  0  0  0  0  0  0  0  0  0
   24.0474  -17.9298  -15.3463 O   0  0  0  0  0  0  0  0  0  0  0  0
   20.8015  -20.0845  -14.1751 C   0  0  0  0  0  0  0  0  0  0  0  0
   20.2005  -19.1922  -14.8189 O   0  0  0  0  0  0  0  0  0  0  0  0
   25.8201  -19.2407  -15.8612 O   0  0  0  0  0  0  0  0  0  0  0  0
   20.2598  -21.3575  -14.1649 O   0  0  0  0  0  0  0  0  0  0  0  0
  2  1  1  6
  2  3  1  0
  3  4  1  0
  4  5  2  0
  4  9  1  0
  5  6  1  0
  6  7  2  0
  8  7  1  0
  9  8  2  0
 10  2  1  0
 11 10  2  0
 12 13  1  0
 13 14  2  0
 16 15  1  1
 15 13  1  0
 16 17  1  0
 17 10  1  0
 18 20  1  0
 18 16  1  0
 19 18  2  0
 21 22  1  6
 21 26  1  0
 21 20  1  0
 23 22  1  0
 24 23  1  0
 25 24  2  0
 26 29  1  0
 27 26  2  0
 28 24  1  0
M  END
$$$$
