FNE.pdb
     RDKit          3D

 29 29  0  0  1  0  0  0  0  0999 V2000
   23.9524  -12.4431  -17.5813 N   0  0  0  0  0  0  0  0  0  0  0  0
   23.8838  -11.7576  -16.3242 C   0  0  1  0  0  0  0  0  0  0  0  0
   25.2207  -11.1790  -15.9072 C   0  0  0  0  0  0  0  0  0  0  0  0
   26.2498  -12.2190  -15.7281 C   0  0  0  0  0  0  0  0  0  0  0  0
   27.3710  -12.1668  -16.5115 C   0  0  0  0  0  0  0  0  0  0  0  0
   28.3410  -13.1277  -16.3588 C   0  0  0  0  0  0  0  0  0  0  0  0
   28.2358  -14.1545  -15.4418 C   0  0  0  0  0  0  0  0  0  0  0  0
   27.0918  -14.1629  -14.6794 C   0  0  0  0  0  0  0  0  0  0  0  0
   26.0990  -13.2171  -14.8046 C   0  0  0  0  0  0  0  0  0  0  0  0
   22.9358  -10.5892  -16.3928 C   0  0  0  0  0  0  0  0  0  0  0  0
   22.8907   -9.8584  -17.4165 O   0  0  0  0  0  0  0  0  0  0  0  0
   17.4871   -8.6330  -14.8392 N   0  0  0  0  0  0  0  0  0  0  0  0
   18.8653   -8.4187  -14.6073 C   0  0  0  0  0  0  0  0  0  0  0  0
   19.2344   -7.2378  -14.4312 O   0  0  0  0  0  0  0  0  0  0  0  0
   19.8506   -9.5163  -14.5685 C   0  0  0  0  0  0  0  0  0  0  0  0
   21.1044   -9.2103  -15.3391 C   0  0  2  0  0  0  0  0  0  0  0  0
   22.0710  -10.2852  -15.3047 N   0  0  0  0  0  0  0  0  0  0  0  0
   21.6871   -7.9081  -14.9932 C   0  0  0  0  0  0  0  0  0  0  0  0
   22.3860   -7.7806  -13.9679 O   0  0  0  0  0  0  0  0  0  0  0  0
   21.4483   -6.7979  -15.8349 N   0  0  0  0  0  0  0  0  0  0  0  0
   22.0440   -5.4752  -15.5832 C   0  0  1  0  0  0  0  0  0  0  0  0
   22.1229   -4.7863  -16.9089 C   0  0  0  0  0  0  0  0  0  0  0  0
   22.6714   -3.3982  -16.8717 C   0  0  0  0  0  0  0  0  0  0  0  0
   22.6121   -2.7832  -18.2431 C   0  0  0  0  0  0  0  0  0  0  0  0
   22.9223   -1.5802  -18.4173 O   0  0  0  0  0  0  0  0  0  0  0  0
   21.2025   -4.7475  -14.6196 C   0  0  0  0  0  0  0  0  0  0  0  0
   21.7395   -4.0507  -13.7264 O   0  0  0  0  0  0  0  0  0  0  0  0
   22.2159   -3.5145  -19.3581 O   0  0  0  0  0  0  0  0  0  0  0  0
   19.8208   -4.8022  -14.6610 O   0  0  0  0  0  0  0  0  0  0  0  0
  2  1  1  6
  2  3  1  0
  3  4  1  0
  4  5  2  0
  4  9  1  0
  5  6  1  0
  6  7  2  0
  8  7  1  0
  9  8  2  0
 10  2  1  0
 11 10  2  0
 12 13  1  0
 13 14  2  0
 16 15  1  1
 15 13  1  0
 16 17  1  0
 17 10  1  0
 18 20  1  0
 18 16  1  0
 19 18  2  0
 21 22  1  6
 21 26  1  0
 21 20  1  0
 23 22  1  0
 24 23  1  0
 25 24  2  0
 26 29  1  0
 27 26  2  0
 28 24  1  0
M  END
$$$$
