FNE.pdb
     RDKit          3D

 29 29  0  0  1  0  0  0  0  0999 V2000
   24.5779  -19.9519   -8.3718 N   0  0  0  0  0  0  0  0  0  0  0  0
   25.8925  -20.0109   -8.9407 C   0  0  1  0  0  0  0  0  0  0  0  0
   26.7294  -21.1267   -8.3486 C   0  0  0  0  0  0  0  0  0  0  0  0
   27.5650  -20.6648   -7.2256 C   0  0  0  0  0  0  0  0  0  0  0  0
   26.9739  -20.4899   -6.0035 C   0  0  0  0  0  0  0  0  0  0  0  0
   27.7369  -20.0598   -4.9450 C   0  0  0  0  0  0  0  0  0  0  0  0
   29.0868  -19.7930   -5.0585 C   0  0  0  0  0  0  0  0  0  0  0  0
   29.6332  -19.9839   -6.3055 C   0  0  0  0  0  0  0  0  0  0  0  0
   28.9000  -20.4137   -7.3889 C   0  0  0  0  0  0  0  0  0  0  0  0
   25.8329  -20.2851  -10.4204 C   0  0  0  0  0  0  0  0  0  0  0  0
   24.7410  -20.5716  -10.9768 O   0  0  0  0  0  0  0  0  0  0  0  0
   28.8828  -21.6109  -15.5204 N   0  0  0  0  0  0  0  0  0  0  0  0
   28.3099  -20.5754  -14.7468 C   0  0  0  0  0  0  0  0  0  0  0  0
   27.7735  -19.6330  -15.3681 O   0  0  0  0  0  0  0  0  0  0  0  0
   28.3267  -20.5755  -13.2714 C   0  0  0  0  0  0  0  0  0  0  0  0
   26.9819  -20.2836  -12.6668 C   0  0  2  0  0  0  0  0  0  0  0  0
   27.0069  -20.2266  -11.2221 N   0  0  0  0  0  0  0  0  0  0  0  0
   25.9187  -21.1531  -13.1848 C   0  0  0  0  0  0  0  0  0  0  0  0
   25.8262  -22.3361  -12.8001 O   0  0  0  0  0  0  0  0  0  0  0  0
   24.9991  -20.6361  -14.1254 N   0  0  0  0  0  0  0  0  0  0  0  0
   23.9630  -21.4707  -14.7559 C   0  0  1  0  0  0  0  0  0  0  0  0
   22.9046  -21.6872  -13.7209 C   0  0  0  0  0  0  0  0  0  0  0  0
   22.2724  -20.4436  -13.1889 C   0  0  0  0  0  0  0  0  0  0  0  0
   21.1733  -20.7957  -12.2245 C   0  0  0  0  0  0  0  0  0  0  0  0
   19.9860  -20.8935  -12.6176 O   0  0  0  0  0  0  0  0  0  0  0  0
   23.4507  -20.7770  -15.9485 C   0  0  0  0  0  0  0  0  0  0  0  0
   23.8356  -19.6115  -16.2040 O   0  0  0  0  0  0  0  0  0  0  0  0
   21.4264  -21.0238  -10.8758 O   0  0  0  0  0  0  0  0  0  0  0  0
   22.5474  -21.3690  -16.8131 O   0  0  0  0  0  0  0  0  0  0  0  0
  2  1  1  1
  2  3  1  0
  3  4  1  0
  4  5  2  0
  4  9  1  0
  5  6  1  0
  6  7  2  0
  8  7  1  0
  9  8  2  0
 10  2  1  0
 11 10  2  0
 12 13  1  0
 13 14  2  0
 16 15  1  1
 15 13  1  0
 16 17  1  0
 17 10  1  0
 18 20  1  0
 18 16  1  0
 19 18  2  0
 21 22  1  1
 21 26  1  0
 21 20  1  0
 23 22  1  0
 24 23  1  0
 25 24  2  0
 26 29  1  0
 27 26  2  0
 28 24  1  0
M  END
$$$$
