FNE.pdb
     RDKit          3D

 29 29  0  0  1  0  0  0  0  0999 V2000
   27.1205  -20.2802   -9.9765 N   0  0  0  0  0  0  0  0  0  0  0  0
   25.9501  -20.3837   -9.1551 C   0  0  1  0  0  0  0  0  0  0  0  0
   25.9910  -19.4419   -7.9687 C   0  0  0  0  0  0  0  0  0  0  0  0
   27.2553  -19.5417   -7.2175 C   0  0  0  0  0  0  0  0  0  0  0  0
   27.6132  -20.7593   -6.7048 C   0  0  0  0  0  0  0  0  0  0  0  0
   28.7882  -20.8717   -6.0017 C   0  0  0  0  0  0  0  0  0  0  0  0
   29.6335  -19.8015   -5.7862 C   0  0  0  0  0  0  0  0  0  0  0  0
   29.2298  -18.6011   -6.3209 C   0  0  0  0  0  0  0  0  0  0  0  0
   28.0596  -18.4508   -7.0309 C   0  0  0  0  0  0  0  0  0  0  0  0
   24.7100  -20.0162   -9.9267 C   0  0  0  0  0  0  0  0  0  0  0  0
   24.5272  -18.8361  -10.3240 O   0  0  0  0  0  0  0  0  0  0  0  0
   21.4584  -19.7171  -14.4030 N   0  0  0  0  0  0  0  0  0  0  0  0
   21.5626  -19.6117  -12.9969 C   0  0  0  0  0  0  0  0  0  0  0  0
   20.5537  -19.2046  -12.3819 O   0  0  0  0  0  0  0  0  0  0  0  0
   22.7913  -19.9581  -12.2572 C   0  0  0  0  0  0  0  0  0  0  0  0
   22.5198  -20.6984  -10.9774 C   0  0  2  0  0  0  0  0  0  0  0  0
   23.7185  -20.9924  -10.2240 N   0  0  0  0  0  0  0  0  0  0  0  0
   21.6617  -21.8744  -11.1656 C   0  0  0  0  0  0  0  0  0  0  0  0
   22.0254  -22.8103  -11.9058 O   0  0  0  0  0  0  0  0  0  0  0  0
   20.4170  -21.9363  -10.4987 N   0  0  0  0  0  0  0  0  0  0  0  0
   19.5865  -23.1519  -10.4907 C   0  0  1  0  0  0  0  0  0  0  0  0
   19.1713  -23.3728   -9.0705 C   0  0  0  0  0  0  0  0  0  0  0  0
   18.2870  -24.5542   -8.8435 C   0  0  0  0  0  0  0  0  0  0  0  0
   18.0061  -24.7136   -7.3745 C   0  0  0  0  0  0  0  0  0  0  0  0
   16.8268  -24.8047   -6.9562 O   0  0  0  0  0  0  0  0  0  0  0  0
   18.4376  -22.9519  -11.3886 C   0  0  0  0  0  0  0  0  0  0  0  0
   17.8753  -21.8325  -11.4399 O   0  0  0  0  0  0  0  0  0  0  0  0
   19.0294  -24.7656   -6.4337 O   0  0  0  0  0  0  0  0  0  0  0  0
   17.9458  -23.9655  -12.1914 O   0  0  0  0  0  0  0  0  0  0  0  0
  2  1  1  6
  2  3  1  0
  3  4  1  0
  4  5  2  0
  4  9  1  0
  5  6  1  0
  6  7  2  0
  8  7  1  0
  9  8  2  0
 10  2  1  0
 11 10  2  0
 12 13  1  0
 13 14  2  0
 16 15  1  6
 15 13  1  0
 16 17  1  0
 17 10  1  0
 18 20  1  0
 18 16  1  0
 19 18  2  0
 21 22  1  1
 21 26  1  0
 21 20  1  0
 23 22  1  0
 24 23  1  0
 25 24  2  0
 26 29  1  0
 27 26  2  0
 28 24  1  0
M  END
$$$$
