FNE.pdb
     RDKit          3D

 29 29  0  0  1  0  0  0  0  0999 V2000
   16.5548  -13.4534    6.8146 N   0  0  0  0  0  0  0  0  0  0  0  0
   17.2819  -14.4482    6.0819 C   0  0  1  0  0  0  0  0  0  0  0  0
   18.6988  -14.6208    6.5906 C   0  0  0  0  0  0  0  0  0  0  0  0
   19.5151  -13.4088    6.3967 C   0  0  0  0  0  0  0  0  0  0  0  0
   20.4282  -13.0780    7.3612 C   0  0  0  0  0  0  0  0  0  0  0  0
   21.1980  -11.9519    7.1978 C   0  0  0  0  0  0  0  0  0  0  0  0
   21.0918  -11.1297    6.0937 C   0  0  0  0  0  0  0  0  0  0  0  0
   20.1610  -11.5046    5.1540 C   0  0  0  0  0  0  0  0  0  0  0  0
   19.3724  -12.6259    5.2839 C   0  0  0  0  0  0  0  0  0  0  0  0
   16.6332  -15.8013    6.2111 C   0  0  0  0  0  0  0  0  0  0  0  0
   15.4033  -15.9026    6.4584 O   0  0  0  0  0  0  0  0  0  0  0  0
   14.3379  -18.8642    7.3755 N   0  0  0  0  0  0  0  0  0  0  0  0
   14.3607  -18.7325    5.9680 C   0  0  0  0  0  0  0  0  0  0  0  0
   13.2733  -18.8695    5.3674 O   0  0  0  0  0  0  0  0  0  0  0  0
   15.5944  -18.4466    5.2108 C   0  0  0  0  0  0  0  0  0  0  0  0
   16.8075  -18.3154    6.0885 C   0  0  2  0  0  0  0  0  0  0  0  0
   17.3936  -16.9939    6.0567 N   0  0  0  0  0  0  0  0  0  0  0  0
   17.7926  -19.3815    5.8694 C   0  0  0  0  0  0  0  0  0  0  0  0
   18.2761  -19.5719    4.7354 O   0  0  0  0  0  0  0  0  0  0  0  0
   18.1887  -20.1917    6.9577 N   0  0  0  0  0  0  0  0  0  0  0  0
   19.2650  -21.1901    6.8466 C   0  0  1  0  0  0  0  0  0  0  0  0
   20.4896  -20.5608    7.4317 C   0  0  0  0  0  0  0  0  0  0  0  0
   20.2366  -19.4051    8.3425 C   0  0  0  0  0  0  0  0  0  0  0  0
   21.5265  -18.9484    8.9669 C   0  0  0  0  0  0  0  0  0  0  0  0
   21.6364  -18.8606   10.2135 O   0  0  0  0  0  0  0  0  0  0  0  0
   18.8612  -22.4101    7.5641 C   0  0  0  0  0  0  0  0  0  0  0  0
   17.8366  -22.3970    8.2865 O   0  0  0  0  0  0  0  0  0  0  0  0
   22.6343  -18.6096    8.1969 O   0  0  0  0  0  0  0  0  0  0  0  0
   19.5781  -23.5896    7.4714 O   0  0  0  0  0  0  0  0  0  0  0  0
  2  1  1  1
  2  3  1  0
  3  4  1  0
  4  5  2  0
  4  9  1  0
  5  6  1  0
  6  7  2  0
  8  7  1  0
  9  8  2  0
 10  2  1  0
 11 10  2  0
 12 13  1  0
 13 14  2  0
 16 15  1  6
 15 13  1  0
 16 17  1  0
 17 10  1  0
 18 20  1  0
 18 16  1  0
 19 18  2  0
 21 22  1  1
 21 26  1  0
 21 20  1  0
 23 22  1  0
 24 23  1  0
 25 24  2  0
 26 29  1  0
 27 26  2  0
 28 24  1  0
M  END
$$$$
