FNE.pdb
     RDKit          3D

 29 29  0  0  1  0  0  0  0  0999 V2000
   17.4477  -10.3428  -16.0019 N   0  0  0  0  0  0  0  0  0  0  0  0
   18.6846   -9.8422  -16.5261 C   0  0  1  0  0  0  0  0  0  0  0  0
   18.6285   -9.6151  -18.0233 C   0  0  0  0  0  0  0  0  0  0  0  0
   18.4277  -10.8683  -18.7728 C   0  0  0  0  0  0  0  0  0  0  0  0
   17.1846  -11.1296  -19.2827 C   0  0  0  0  0  0  0  0  0  0  0  0
   16.9785  -12.2928  -19.9841 C   0  0  0  0  0  0  0  0  0  0  0  0
   17.9782  -13.2202  -20.2007 C   0  0  0  0  0  0  0  0  0  0  0  0
   19.2078  -12.9118  -19.6688 C   0  0  0  0  0  0  0  0  0  0  0  0
   19.4514  -11.7563  -18.9606 C   0  0  0  0  0  0  0  0  0  0  0  0
   19.0303   -8.5064  -15.9223 C   0  0  0  0  0  0  0  0  0  0  0  0
   18.1241   -7.7163  -15.5501 O   0  0  0  0  0  0  0  0  0  0  0  0
   22.0190   -4.9450  -12.7184 N   0  0  0  0  0  0  0  0  0  0  0  0
   22.3962   -5.4517  -13.9833 C   0  0  0  0  0  0  0  0  0  0  0  0
   23.0852   -4.7053  -14.7113 O   0  0  0  0  0  0  0  0  0  0  0  0
   22.0114   -6.7960  -14.4542 C   0  0  0  0  0  0  0  0  0  0  0  0
   20.7740   -6.7896  -15.3076 C   0  0  2  0  0  0  0  0  0  0  0  0
   20.3862   -8.1075  -15.7588 N   0  0  0  0  0  0  0  0  0  0  0  0
   20.8338   -5.8083  -16.3978 C   0  0  0  0  0  0  0  0  0  0  0  0
   21.5221   -6.0331  -17.4135 O   0  0  0  0  0  0  0  0  0  0  0  0
   20.1024   -4.6041  -16.2853 N   0  0  0  0  0  0  0  0  0  0  0  0
   20.0996   -3.5815  -17.3446 C   0  0  1  0  0  0  0  0  0  0  0  0
   18.6703   -3.1931  -17.5556 C   0  0  0  0  0  0  0  0  0  0  0  0
   18.4515   -2.0759  -18.5216 C   0  0  0  0  0  0  0  0  0  0  0  0
   16.9806   -1.7940  -18.6596 C   0  0  0  0  0  0  0  0  0  0  0  0
   16.1445   -2.4026  -17.9495 O   0  0  0  0  0  0  0  0  0  0  0  0
   20.9340   -2.4473  -16.9163 C   0  0  0  0  0  0  0  0  0  0  0  0
   21.6116   -1.8184  -17.7631 O   0  0  0  0  0  0  0  0  0  0  0  0
   16.4953   -0.8592  -19.5684 O   0  0  0  0  0  0  0  0  0  0  0  0
   21.0013   -2.0406  -15.5957 O   0  0  0  0  0  0  0  0  0  0  0  0
  2  1  1  1
  2  3  1  0
  3  4  1  0
  4  5  2  0
  4  9  1  0
  5  6  1  0
  6  7  2  0
  8  7  1  0
  9  8  2  0
 10  2  1  0
 11 10  2  0
 12 13  1  0
 13 14  2  0
 16 15  1  6
 15 13  1  0
 16 17  1  0
 17 10  1  0
 18 20  1  0
 18 16  1  0
 19 18  2  0
 21 22  1  1
 21 26  1  0
 21 20  1  0
 23 22  1  0
 24 23  1  0
 25 24  2  0
 26 29  1  0
 27 26  2  0
 28 24  1  0
M  END
$$$$
