FNE.pdb
     RDKit          3D

 29 29  0  0  1  0  0  0  0  0999 V2000
   14.7614   -7.0321  -10.7791 N   0  0  0  0  0  0  0  0  0  0  0  0
   15.8112   -6.8627   -9.8175 C   0  0  1  0  0  0  0  0  0  0  0  0
   15.5952   -7.6984   -8.5721 C   0  0  0  0  0  0  0  0  0  0  0  0
   14.2195   -7.5871   -8.0544 C   0  0  0  0  0  0  0  0  0  0  0  0
   13.8363   -6.4085   -7.4734 C   0  0  0  0  0  0  0  0  0  0  0  0
   12.5580   -6.2862   -6.9851 C   0  0  0  0  0  0  0  0  0  0  0  0
   11.6323   -7.3083   -7.0542 C   0  0  0  0  0  0  0  0  0  0  0  0
   12.0655   -8.4709   -7.6463 C   0  0  0  0  0  0  0  0  0  0  0  0
   13.3385   -8.6297   -8.1467 C   0  0  0  0  0  0  0  0  0  0  0  0
   17.1386   -7.3002  -10.3787 C   0  0  0  0  0  0  0  0  0  0  0  0
   18.1910   -7.1916   -9.6971 O   0  0  0  0  0  0  0  0  0  0  0  0
   20.9142   -8.9764  -13.5635 N   0  0  0  0  0  0  0  0  0  0  0  0
   19.8491   -9.9017  -13.4716 C   0  0  0  0  0  0  0  0  0  0  0  0
   20.0462  -11.0426  -13.9420 O   0  0  0  0  0  0  0  0  0  0  0  0
   18.5507   -9.5689  -12.8547 C   0  0  0  0  0  0  0  0  0  0  0  0
   18.4932   -8.1636  -12.3244 C   0  0  2  0  0  0  0  0  0  0  0  0
   17.2336   -7.8453  -11.6895 N   0  0  0  0  0  0  0  0  0  0  0  0
   18.9029   -7.1596  -13.3138 C   0  0  0  0  0  0  0  0  0  0  0  0
   18.1791   -6.9107  -14.2988 O   0  0  0  0  0  0  0  0  0  0  0  0
   20.1278   -6.4761  -13.1393 N   0  0  0  0  0  0  0  0  0  0  0  0
   20.4733   -5.2686  -13.9076 C   0  0  1  0  0  0  0  0  0  0  0  0
   19.4317   -4.2455  -13.5810 C   0  0  0  0  0  0  0  0  0  0  0  0
   19.6449   -2.9027  -14.1980 C   0  0  0  0  0  0  0  0  0  0  0  0
   18.5929   -1.9413  -13.7172 C   0  0  0  0  0  0  0  0  0  0  0  0
   17.6994   -2.3182  -12.9213 O   0  0  0  0  0  0  0  0  0  0  0  0
   21.8277   -4.8335  -13.5306 C   0  0  0  0  0  0  0  0  0  0  0  0
   22.3926   -5.3478  -12.5365 O   0  0  0  0  0  0  0  0  0  0  0  0
   18.5693   -0.6133  -14.1306 O   0  0  0  0  0  0  0  0  0  0  0  0
   22.5138   -3.8647  -14.2409 O   0  0  0  0  0  0  0  0  0  0  0  0
  2  1  1  6
  2  3  1  0
  3  4  1  0
  4  5  2  0
  4  9  1  0
  5  6  1  0
  6  7  2  0
  8  7  1  0
  9  8  2  0
 10  2  1  0
 11 10  2  0
 12 13  1  0
 13 14  2  0
 16 15  1  6
 15 13  1  0
 16 17  1  0
 17 10  1  0
 18 20  1  0
 18 16  1  0
 19 18  2  0
 21 22  1  1
 21 26  1  0
 21 20  1  0
 23 22  1  0
 24 23  1  0
 25 24  2  0
 26 29  1  0
 27 26  2  0
 28 24  1  0
M  END
$$$$
