FNE.pdb
     RDKit          3D

 29 29  0  0  1  0  0  0  0  0999 V2000
   23.6775   -9.7490  -18.2825 N   0  0  0  0  0  0  0  0  0  0  0  0
   23.1108   -9.0076  -17.1941 C   0  0  1  0  0  0  0  0  0  0  0  0
   24.1367   -8.1480  -16.4837 C   0  0  0  0  0  0  0  0  0  0  0  0
   25.2624   -8.9400  -15.9562 C   0  0  0  0  0  0  0  0  0  0  0  0
   25.0659   -9.6709  -14.8157 C   0  0  0  0  0  0  0  0  0  0  0  0
   26.1036  -10.4152  -14.3091 C   0  0  0  0  0  0  0  0  0  0  0  0
   27.3489  -10.4604  -14.9038 C   0  0  0  0  0  0  0  0  0  0  0  0
   27.4956   -9.7097  -16.0461 C   0  0  0  0  0  0  0  0  0  0  0  0
   26.4787   -8.9521  -16.5826 C   0  0  0  0  0  0  0  0  0  0  0  0
   22.0465   -8.0584  -17.6785 C   0  0  0  0  0  0  0  0  0  0  0  0
   22.0651   -7.6210  -18.8584 O   0  0  0  0  0  0  0  0  0  0  0  0
   16.9387   -6.7827  -18.9861 N   0  0  0  0  0  0  0  0  0  0  0  0
   17.4427   -6.6961  -17.6680 C   0  0  0  0  0  0  0  0  0  0  0  0
   16.8925   -5.8753  -16.9028 O   0  0  0  0  0  0  0  0  0  0  0  0
   18.5655   -7.5221  -17.1844 C   0  0  0  0  0  0  0  0  0  0  0  0
   19.8907   -6.8165  -17.2583 C   0  0  2  0  0  0  0  0  0  0  0  0
   20.9975   -7.6350  -16.8155 N   0  0  0  0  0  0  0  0  0  0  0  0
   19.8719   -5.4921  -16.6254 C   0  0  0  0  0  0  0  0  0  0  0  0
   20.1076   -5.3707  -15.4065 O   0  0  0  0  0  0  0  0  0  0  0  0
   19.5837   -4.3537  -17.4119 N   0  0  0  0  0  0  0  0  0  0  0  0
   19.5759   -2.9913  -16.8539 C   0  0  1  0  0  0  0  0  0  0  0  0
   19.7717   -2.0591  -18.0075 C   0  0  0  0  0  0  0  0  0  0  0  0
   19.7895   -0.6081  -17.6559 C   0  0  0  0  0  0  0  0  0  0  0  0
   19.9113    0.2234  -18.9033 C   0  0  0  0  0  0  0  0  0  0  0  0
   20.9723    0.2187  -19.5726 O   0  0  0  0  0  0  0  0  0  0  0  0
   18.2980   -2.7667  -16.1590 C   0  0  0  0  0  0  0  0  0  0  0  0
   17.2493   -3.2946  -16.5987 O   0  0  0  0  0  0  0  0  0  0  0  0
   18.8658    1.0203  -19.3583 O   0  0  0  0  0  0  0  0  0  0  0  0
   18.2064   -1.9843  -15.0218 O   0  0  0  0  0  0  0  0  0  0  0  0
  2  1  1  6
  2  3  1  0
  3  4  1  0
  4  5  2  0
  4  9  1  0
  5  6  1  0
  6  7  2  0
  8  7  1  0
  9  8  2  0
 10  2  1  0
 11 10  2  0
 12 13  1  0
 13 14  2  0
 16 15  1  1
 15 13  1  0
 16 17  1  0
 17 10  1  0
 18 20  1  0
 18 16  1  0
 19 18  2  0
 21 22  1  6
 21 26  1  0
 21 20  1  0
 23 22  1  0
 24 23  1  0
 25 24  2  0
 26 29  1  0
 27 26  2  0
 28 24  1  0
M  END
$$$$
