FNE.pdb
     RDKit          3D

 29 29  0  0  1  0  0  0  0  0999 V2000
   23.6196  -13.1962  -16.8209 N   0  0  0  0  0  0  0  0  0  0  0  0
   23.7998  -12.0178  -16.0246 C   0  0  1  0  0  0  0  0  0  0  0  0
   25.0148  -11.2158  -16.4449 C   0  0  0  0  0  0  0  0  0  0  0  0
   26.2512  -12.0179  -16.4206 C   0  0  0  0  0  0  0  0  0  0  0  0
   26.9525  -12.0972  -15.2478 C   0  0  0  0  0  0  0  0  0  0  0  0
   28.1074  -12.8401  -15.2060 C   0  0  0  0  0  0  0  0  0  0  0  0
   28.5985  -13.5176  -16.3043 C   0  0  0  0  0  0  0  0  0  0  0  0
   27.8585  -13.4067  -17.4576 C   0  0  0  0  0  0  0  0  0  0  0  0
   26.6969  -12.6715  -17.5368 C   0  0  0  0  0  0  0  0  0  0  0  0
   22.6259  -11.0842  -16.1614 C   0  0  0  0  0  0  0  0  0  0  0  0
   21.5823  -11.4489  -16.7630 O   0  0  0  0  0  0  0  0  0  0  0  0
   17.9920   -8.6917  -15.8871 N   0  0  0  0  0  0  0  0  0  0  0  0
   19.1360   -8.5643  -15.0660 C   0  0  0  0  0  0  0  0  0  0  0  0
   19.1573   -7.6032  -14.2675 O   0  0  0  0  0  0  0  0  0  0  0  0
   20.2710   -9.5053  -15.1231 C   0  0  0  0  0  0  0  0  0  0  0  0
   21.5370   -8.8715  -15.6279 C   0  0  2  0  0  0  0  0  0  0  0  0
   22.6690   -9.7712  -15.6150 N   0  0  0  0  0  0  0  0  0  0  0  0
   21.8268   -7.5813  -14.9904 C   0  0  0  0  0  0  0  0  0  0  0  0
   22.2505   -7.5366  -13.8180 O   0  0  0  0  0  0  0  0  0  0  0  0
   21.6207   -6.3879  -15.7192 N   0  0  0  0  0  0  0  0  0  0  0  0
   22.2688   -5.1180  -15.3520 C   0  0  1  0  0  0  0  0  0  0  0  0
   22.2578   -4.2651  -16.5811 C   0  0  0  0  0  0  0  0  0  0  0  0
   22.8431   -2.9018  -16.4137 C   0  0  0  0  0  0  0  0  0  0  0  0
   22.8114   -2.1624  -17.7230 C   0  0  0  0  0  0  0  0  0  0  0  0
   22.3860   -2.7221  -18.7621 O   0  0  0  0  0  0  0  0  0  0  0  0
   21.5273   -4.5079  -14.2367 C   0  0  0  0  0  0  0  0  0  0  0  0
   22.0477   -3.5759  -13.5792 O   0  0  0  0  0  0  0  0  0  0  0  0
   23.2469   -0.8458  -17.8324 O   0  0  0  0  0  0  0  0  0  0  0  0
   20.2586   -4.9282  -13.8792 O   0  0  0  0  0  0  0  0  0  0  0  0
  2  1  1  6
  2  3  1  0
  3  4  1  0
  4  5  2  0
  4  9  1  0
  5  6  1  0
  6  7  2  0
  8  7  1  0
  9  8  2  0
 10  2  1  0
 11 10  2  0
 12 13  1  0
 13 14  2  0
 16 15  1  1
 15 13  1  0
 16 17  1  0
 17 10  1  0
 18 20  1  0
 18 16  1  0
 19 18  2  0
 21 22  1  6
 21 26  1  0
 21 20  1  0
 23 22  1  0
 24 23  1  0
 25 24  2  0
 26 29  1  0
 27 26  2  0
 28 24  1  0
M  END
$$$$
