SRV.pdb
     RDKit          3D

 25 24  0  0  1  0  0  0  0  0999 V2000
    9.7035  -12.8658   20.3489 O   0  0  0  0  0  0  0  0  0  0  0  0
    9.5425  -14.0444   19.6307 C   0  0  0  0  0  0  0  0  0  0  0  0
    8.0760  -14.2974   19.4828 C   0  0  2  0  0  0  0  0  0  0  0  0
    7.4157  -13.1628   18.8640 N   0  0  0  0  0  0  0  0  0  0  0  0
    7.4115  -14.5338   20.8011 C   0  0  0  0  0  0  0  0  0  0  0  0
    6.6312  -13.6856   21.3073 O   0  0  0  0  0  0  0  0  0  0  0  0
    7.4276  -22.2750   24.8886 N   0  0  0  0  0  0  0  0  0  0  0  0
    6.9458  -21.4490   25.9306 C   0  0  0  0  0  0  0  0  0  0  0  0
    6.6300  -21.9028   27.1039 N   0  0  0  0  0  0  0  0  0  0  0  0
    6.8012  -20.0368   25.6680 N   0  0  0  0  0  0  0  0  0  0  0  0
    7.1066  -19.5224   24.3534 C   0  0  0  0  0  0  0  0  0  0  0  0
    6.9492  -17.9940   24.4099 C   0  0  0  0  0  0  0  0  0  0  0  0
    7.2573  -17.4723   23.0570 C   0  0  0  0  0  0  0  0  0  0  0  0
    7.0292  -15.9823   22.8574 C   0  0  2  0  0  0  0  0  0  0  0  0
    7.6266  -15.7181   21.5409 N   0  0  0  0  0  0  0  0  0  0  0  0
    7.7000  -15.1254   23.8360 C   0  0  0  0  0  0  0  0  0  0  0  0
    8.9422  -14.8951   23.7381 O   0  0  0  0  0  0  0  0  0  0  0  0
    6.2174  -21.2152   27.7700 C   0  0  0  0  0  0  0  0  0  0  0  0
    7.6035  -11.8456   27.5911 C   0  0  1  0  0  0  0  0  0  0  0  0
    6.8668  -12.7297   26.6341 C   0  0  0  0  0  0  0  0  0  0  0  0
    6.0592  -11.8505   25.7062 C   0  0  1  0  0  0  0  0  0  0  0  0
    7.7901  -13.6442   25.8589 N   0  0  0  0  0  0  0  0  0  0  0  0
    7.0659  -14.4905   24.9416 C   0  0  0  0  0  0  0  0  0  0  0  0
    8.6612  -14.4341   26.7633 O   0  0  0  0  0  0  0  0  0  0  0  0
    9.8418  -13.9119   27.2670 O   0  0  0  0  0  0  0  0  0  0  0  0
  2  3  1  0
  2  1  1  0
  3  4  1  1
  5  6  2  0
  5  3  1  0
  7  8  1  0
  8 10  1  0
  8  9  2  0
 10 11  1  0
 12 11  1  0
 12 13  1  0
 14 13  1  1
 14 15  1  0
 15  5  1  0
 16 17  2  0
 16 14  1  0
 19 18  1  1
 20 19  1  0
 21 19  1  0
 21 22  1  1
 22 16  1  0
 23 21  1  0
 24 23  1  0
 25 23  2  0
M  END
$$$$
