SRV.pdb
     RDKit          3D

 25 24  0  0  1  0  0  0  0  0999 V2000
   10.2618  -12.6591   20.6842 O   0  0  0  0  0  0  0  0  0  0  0  0
   10.2866  -13.4842   19.5664 C   0  0  0  0  0  0  0  0  0  0  0  0
    8.8888  -13.9467   19.3037 C   0  0  2  0  0  0  0  0  0  0  0  0
    8.0882  -12.8764   18.7381 N   0  0  0  0  0  0  0  0  0  0  0  0
    8.2042  -14.4018   20.5525 C   0  0  0  0  0  0  0  0  0  0  0  0
    7.2472  -13.7549   21.0527 O   0  0  0  0  0  0  0  0  0  0  0  0
    8.9717  -19.1930   18.8536 N   0  0  0  0  0  0  0  0  0  0  0  0
    8.0660  -20.2298   19.1772 C   0  0  0  0  0  0  0  0  0  0  0  0
    7.2903  -20.7900   18.3014 N   0  0  0  0  0  0  0  0  0  0  0  0
    8.0076  -20.6794   20.5478 N   0  0  0  0  0  0  0  0  0  0  0  0
    8.4974  -19.8199   21.6002 C   0  0  0  0  0  0  0  0  0  0  0  0
    7.8536  -18.4378   21.4019 C   0  0  0  0  0  0  0  0  0  0  0  0
    8.3723  -17.5557   22.4744 C   0  0  0  0  0  0  0  0  0  0  0  0
    7.9120  -16.1077   22.4172 C   0  0  2  0  0  0  0  0  0  0  0  0
    8.5973  -15.5776   21.2301 N   0  0  0  0  0  0  0  0  0  0  0  0
    8.3098  -15.2946   23.5671 C   0  0  0  0  0  0  0  0  0  0  0  0
    9.5140  -14.9234   23.7009 O   0  0  0  0  0  0  0  0  0  0  0  0
    6.5893  -21.4674   18.6707 C   0  0  0  0  0  0  0  0  0  0  0  0
    7.2892  -12.1243   27.2153 C   0  0  2  0  0  0  0  0  0  0  0  0
    6.8254  -13.0249   26.1136 C   0  0  0  0  0  0  0  0  0  0  0  0
    6.3735  -12.1614   24.9575 C   0  0  1  0  0  0  0  0  0  0  0  0
    7.8897  -14.0094   25.6804 N   0  0  0  0  0  0  0  0  0  0  0  0
    7.4365  -14.8542   24.6019 C   0  0  0  0  0  0  0  0  0  0  0  0
    8.3952  -14.8053   26.8257 O   0  0  0  0  0  0  0  0  0  0  0  0
    9.3145  -14.2806   27.7200 O   0  0  0  0  0  0  0  0  0  0  0  0
  2  3  1  0
  2  1  1  0
  3  4  1  1
  5  6  2  0
  5  3  1  0
  7  8  1  0
  8 10  1  0
  8  9  2  0
 10 11  1  0
 12 11  1  0
 12 13  1  0
 14 13  1  1
 14 15  1  0
 15  5  1  0
 16 17  2  0
 16 14  1  0
 19 18  1  1
 20 19  1  0
 21 19  1  0
 21 22  1  1
 22 16  1  0
 23 21  1  0
 24 23  1  0
 25 23  2  0
M  END
$$$$
