SRV.pdb
     RDKit          3D

 25 24  0  0  1  0  0  0  0  0999 V2000
   11.4906  -19.7548   24.4478 O   0  0  0  0  0  0  0  0  0  0  0  0
   10.5806  -20.0187   23.4314 C   0  0  0  0  0  0  0  0  0  0  0  0
   10.8449  -19.0590   22.3153 C   0  0  2  0  0  0  0  0  0  0  0  0
   12.1953  -19.2165   21.8074 N   0  0  0  0  0  0  0  0  0  0  0  0
   10.6970  -17.6366   22.7514 C   0  0  0  0  0  0  0  0  0  0  0  0
   11.6978  -16.9234   23.0241 O   0  0  0  0  0  0  0  0  0  0  0  0
    9.9101  -13.8159   18.7433 N   0  0  0  0  0  0  0  0  0  0  0  0
    8.6273  -13.2236   18.6840 C   0  0  0  0  0  0  0  0  0  0  0  0
    8.4354  -11.9840   18.3537 N   0  0  0  0  0  0  0  0  0  0  0  0
    7.4836  -14.0430   19.0078 N   0  0  0  0  0  0  0  0  0  0  0  0
    7.1601  -14.2982   20.3921 C   0  0  0  0  0  0  0  0  0  0  0  0
    8.4454  -14.7831   21.0826 C   0  0  0  0  0  0  0  0  0  0  0  0
    8.0846  -15.1438   22.4746 C   0  0  0  0  0  0  0  0  0  0  0  0
    9.2276  -15.6457   23.3427 C   0  0  2  0  0  0  0  0  0  0  0  0
    9.4296  -17.0253   22.8781 N   0  0  0  0  0  0  0  0  0  0  0  0
    8.9314  -15.6922   24.7751 C   0  0  0  0  0  0  0  0  0  0  0  0
    8.1664  -16.5887   25.2404 O   0  0  0  0  0  0  0  0  0  0  0  0
    7.4574  -11.6312   18.4299 C   0  0  0  0  0  0  0  0  0  0  0  0
    9.4812  -14.0565   29.4589 C   0  0  1  0  0  0  0  0  0  0  0  0
    9.9279  -14.0380   28.0305 C   0  0  0  0  0  0  0  0  0  0  0  0
   11.3295  -14.6020   27.9675 C   0  0  1  0  0  0  0  0  0  0  0  0
    8.9891  -14.7968   27.1180 N   0  0  0  0  0  0  0  0  0  0  0  0
    9.4435  -14.7877   25.7485 C   0  0  0  0  0  0  0  0  0  0  0  0
    7.5952  -14.3033   27.2371 O   0  0  0  0  0  0  0  0  0  0  0  0
    6.8044  -14.6289   28.3274 O   0  0  0  0  0  0  0  0  0  0  0  0
  2  3  1  0
  2  1  1  0
  3  4  1  1
  5  6  2  0
  5  3  1  0
  7  8  1  0
  8 10  1  0
  8  9  2  0
 10 11  1  0
 12 11  1  0
 12 13  1  0
 14 13  1  6
 14 15  1  0
 15  5  1  0
 16 17  2  0
 16 14  1  0
 19 18  1  1
 20 19  1  0
 21 19  1  0
 21 22  1  6
 22 16  1  0
 23 21  1  0
 24 23  1  0
 25 23  2  0
M  END
$$$$
