SRV.pdb
     RDKit          3D

 25 24  0  0  1  0  0  0  0  0999 V2000
    8.4313  -15.6793   18.1968 O   0  0  0  0  0  0  0  0  0  0  0  0
    7.8470  -15.4528   19.4370 C   0  0  0  0  0  0  0  0  0  0  0  0
    7.1655  -16.7141   19.8628 C   0  0  2  0  0  0  0  0  0  0  0  0
    5.9947  -16.9704   19.0442 N   0  0  0  0  0  0  0  0  0  0  0  0
    6.7088  -16.6527   21.2851 C   0  0  0  0  0  0  0  0  0  0  0  0
    5.5507  -16.2642   21.5893 O   0  0  0  0  0  0  0  0  0  0  0  0
    6.1660  -21.9955   26.9831 N   0  0  0  0  0  0  0  0  0  0  0  0
    7.0284  -21.2934   27.8568 C   0  0  0  0  0  0  0  0  0  0  0  0
    6.9563  -21.3879   29.1484 N   0  0  0  0  0  0  0  0  0  0  0  0
    8.0325  -20.4336   27.2764 N   0  0  0  0  0  0  0  0  0  0  0  0
    8.0204  -20.1849   25.8537 C   0  0  0  0  0  0  0  0  0  0  0  0
    7.4944  -18.7558   25.6414 C   0  0  0  0  0  0  0  0  0  0  0  0
    7.4981  -18.5008   24.1811 C   0  0  0  0  0  0  0  0  0  0  0  0
    7.1201  -17.0903   23.7573 C   0  0  2  0  0  0  0  0  0  0  0  0
    7.5530  -17.0271   22.3543 N   0  0  0  0  0  0  0  0  0  0  0  0
    7.8099  -16.0273   24.4893 C   0  0  0  0  0  0  0  0  0  0  0  0
    9.0190  -15.7527   24.2282 O   0  0  0  0  0  0  0  0  0  0  0  0
    7.6354  -20.8141   29.6927 C   0  0  0  0  0  0  0  0  0  0  0  0
    7.7773  -11.7898   26.9912 C   0  0  2  0  0  0  0  0  0  0  0  0
    7.0686  -12.9129   26.3009 C   0  0  0  0  0  0  0  0  0  0  0  0
    6.5706  -12.4065   24.9660 C   0  0  1  0  0  0  0  0  0  0  0  0
    7.9432  -14.1362   26.1325 N   0  0  0  0  0  0  0  0  0  0  0  0
    7.2302  -15.2285   25.5157 C   0  0  0  0  0  0  0  0  0  0  0  0
    8.5659  -14.5425   27.4163 O   0  0  0  0  0  0  0  0  0  0  0  0
    8.2937  -15.7724   27.9936 O   0  0  0  0  0  0  0  0  0  0  0  0
  2  3  1  0
  2  1  1  0
  3  4  1  6
  5  6  2  0
  5  3  1  0
  7  8  1  0
  8 10  1  0
  8  9  2  0
 10 11  1  0
 12 11  1  0
 12 13  1  0
 14 13  1  1
 14 15  1  0
 15  5  1  0
 16 17  2  0
 16 14  1  0
 19 18  1  1
 20 19  1  0
 21 19  1  0
 21 22  1  1
 22 16  1  0
 23 21  1  0
 24 23  1  0
 25 23  2  0
M  END
$$$$
