SRV.pdb
     RDKit          3D

 25 24  0  0  1  0  0  0  0  0999 V2000
    9.9534  -12.8537   19.9258 O   0  0  0  0  0  0  0  0  0  0  0  0
    9.6649  -14.0291   19.2431 C   0  0  0  0  0  0  0  0  0  0  0  0
    8.1870  -14.2483   19.3069 C   0  0  2  0  0  0  0  0  0  0  0  0
    7.4704  -13.0831   18.8219 N   0  0  0  0  0  0  0  0  0  0  0  0
    7.7180  -14.5098   20.7022 C   0  0  0  0  0  0  0  0  0  0  0  0
    7.0388  -13.6625   21.3388 O   0  0  0  0  0  0  0  0  0  0  0  0
    6.8557  -21.3784   25.1206 N   0  0  0  0  0  0  0  0  0  0  0  0
    6.8570  -20.4020   26.1437 C   0  0  0  0  0  0  0  0  0  0  0  0
    7.2860  -20.6372   27.3449 N   0  0  0  0  0  0  0  0  0  0  0  0
    6.3556  -19.0853   25.8286 N   0  0  0  0  0  0  0  0  0  0  0  0
    6.3786  -18.6237   24.4602 C   0  0  0  0  0  0  0  0  0  0  0  0
    7.8007  -18.1162   24.1703 C   0  0  0  0  0  0  0  0  0  0  0  0
    7.7998  -17.5777   22.7891 C   0  0  0  0  0  0  0  0  0  0  0  0
    7.4105  -16.1143   22.6525 C   0  0  2  0  0  0  0  0  0  0  0  0
    8.0138  -15.7179   21.3724 N   0  0  0  0  0  0  0  0  0  0  0  0
    7.9498  -15.2392   23.6942 C   0  0  0  0  0  0  0  0  0  0  0  0
    9.1742  -14.9131   23.6837 O   0  0  0  0  0  0  0  0  0  0  0  0
    7.2913  -19.8271   28.0010 C   0  0  0  0  0  0  0  0  0  0  0  0
    7.3358  -11.8705   27.2913 C   0  0  1  0  0  0  0  0  0  0  0  0
    6.7429  -12.8525   26.3299 C   0  0  0  0  0  0  0  0  0  0  0  0
    5.9992  -12.0789   25.2646 C   0  0  1  0  0  0  0  0  0  0  0  0
    7.7814  -13.7681   25.7194 N   0  0  0  0  0  0  0  0  0  0  0  0
    7.1998  -14.6875   24.7715 C   0  0  0  0  0  0  0  0  0  0  0  0
    8.5643  -14.4765   26.7616 O   0  0  0  0  0  0  0  0  0  0  0  0
    9.6293  -13.8662   27.4045 O   0  0  0  0  0  0  0  0  0  0  0  0
  2  3  1  0
  2  1  1  0
  3  4  1  1
  5  6  2  0
  5  3  1  0
  7  8  1  0
  8 10  1  0
  8  9  2  0
 10 11  1  0
 12 11  1  0
 12 13  1  0
 14 13  1  1
 14 15  1  0
 15  5  1  0
 16 17  2  0
 16 14  1  0
 19 18  1  1
 20 19  1  0
 21 19  1  0
 21 22  1  1
 22 16  1  0
 23 21  1  0
 24 23  1  0
 25 23  2  0
M  END
$$$$
