SRV.pdb
     RDKit          3D

 25 24  0  0  1  0  0  0  0  0999 V2000
    8.1026  -14.5178   17.9650 O   0  0  0  0  0  0  0  0  0  0  0  0
    7.4496  -13.3776   18.4170 C   0  0  0  0  0  0  0  0  0  0  0  0
    8.1322  -12.9203   19.6666 C   0  0  2  0  0  0  0  0  0  0  0  0
    9.5600  -12.7736   19.4514 N   0  0  0  0  0  0  0  0  0  0  0  0
    7.9494  -13.8874   20.7921 C   0  0  0  0  0  0  0  0  0  0  0  0
    6.8082  -14.1594   21.2484 O   0  0  0  0  0  0  0  0  0  0  0  0
   13.8942  -18.3011   24.6760 N   0  0  0  0  0  0  0  0  0  0  0  0
   13.9547  -17.2446   23.7378 C   0  0  0  0  0  0  0  0  0  0  0  0
   15.0322  -16.9422   23.0820 N   0  0  0  0  0  0  0  0  0  0  0  0
   12.7579  -16.4715   23.5053 N   0  0  0  0  0  0  0  0  0  0  0  0
   11.6678  -16.5460   24.4499 C   0  0  0  0  0  0  0  0  0  0  0  0
   10.4496  -17.1126   23.7022 C   0  0  0  0  0  0  0  0  0  0  0  0
   10.2090  -16.2364   22.5309 C   0  0  0  0  0  0  0  0  0  0  0  0
    8.9340  -15.4094   22.5773 C   0  0  2  0  0  0  0  0  0  0  0  0
    9.0462  -14.5412   21.3968 N   0  0  0  0  0  0  0  0  0  0  0  0
    8.8051  -14.5515   23.7559 C   0  0  0  0  0  0  0  0  0  0  0  0
    9.6713  -13.6577   23.9932 O   0  0  0  0  0  0  0  0  0  0  0  0
   14.9801  -16.0998   22.4702 C   0  0  0  0  0  0  0  0  0  0  0  0
    6.2857  -12.1984   27.2175 C   0  0  2  0  0  0  0  0  0  0  0  0
    6.3498  -13.1004   26.0248 C   0  0  0  0  0  0  0  0  0  0  0  0
    5.9862  -12.2902   24.8010 C   0  0  1  0  0  0  0  0  0  0  0  0
    7.7030  -13.7585   25.8656 N   0  0  0  0  0  0  0  0  0  0  0  0
    7.7506  -14.6216   24.7103 C   0  0  0  0  0  0  0  0  0  0  0  0
    8.1116  -14.4715   27.1007 O   0  0  0  0  0  0  0  0  0  0  0  0
    8.9073  -13.8615   28.0571 O   0  0  0  0  0  0  0  0  0  0  0  0
  2  3  1  0
  2  1  1  0
  3  4  1  6
  5  6  2  0
  5  3  1  0
  7  8  1  0
  8 10  1  0
  8  9  2  0
 10 11  1  0
 12 11  1  0
 12 13  1  0
 14 13  1  1
 14 15  1  0
 15  5  1  0
 16 17  2  0
 16 14  1  0
 19 18  1  1
 20 19  1  0
 21 19  1  0
 21 22  1  1
 22 16  1  0
 23 21  1  0
 24 23  1  0
 25 23  2  0
M  END
$$$$
