SRV.pdb
     RDKit          3D

 25 24  0  0  1  0  0  0  0  0999 V2000
    9.5938  -14.9168   18.3946 O   0  0  0  0  0  0  0  0  0  0  0  0
    8.9440  -14.8541   19.6213 C   0  0  0  0  0  0  0  0  0  0  0  0
    8.1650  -16.1188   19.7955 C   0  0  2  0  0  0  0  0  0  0  0  0
    7.1193  -16.2235   18.7944 N   0  0  0  0  0  0  0  0  0  0  0  0
    7.5064  -16.1923   21.1357 C   0  0  0  0  0  0  0  0  0  0  0  0
    6.3594  -15.7129   21.3336 O   0  0  0  0  0  0  0  0  0  0  0  0
    6.5209  -21.1216   28.9597 N   0  0  0  0  0  0  0  0  0  0  0  0
    6.7958  -20.9525   27.5828 C   0  0  0  0  0  0  0  0  0  0  0  0
    6.0384  -21.4340   26.6463 N   0  0  0  0  0  0  0  0  0  0  0  0
    7.9759  -20.2089   27.2106 N   0  0  0  0  0  0  0  0  0  0  0  0
    8.2355  -19.9373   25.8159 C   0  0  0  0  0  0  0  0  0  0  0  0
    7.6820  -18.5358   25.5099 C   0  0  0  0  0  0  0  0  0  0  0  0
    7.9932  -18.2431   24.0904 C   0  0  0  0  0  0  0  0  0  0  0  0
    7.5441  -16.8814   23.5844 C   0  0  2  0  0  0  0  0  0  0  0  0
    8.1382  -16.8021   22.2425 N   0  0  0  0  0  0  0  0  0  0  0  0
    8.0401  -15.7464   24.3638 C   0  0  0  0  0  0  0  0  0  0  0  0
    9.2797  -15.4857   24.3946 O   0  0  0  0  0  0  0  0  0  0  0  0
    6.3454  -21.2561   25.6660 C   0  0  0  0  0  0  0  0  0  0  0  0
    7.3514  -11.6468   27.1203 C   0  0  2  0  0  0  0  0  0  0  0  0
    6.7839  -12.7323   26.2601 C   0  0  0  0  0  0  0  0  0  0  0  0
    6.2404  -12.0989   24.9992 C   0  0  1  0  0  0  0  0  0  0  0  0
    7.7967  -13.8102   25.9406 N   0  0  0  0  0  0  0  0  0  0  0  0
    7.2298  -14.8593   25.1281 C   0  0  0  0  0  0  0  0  0  0  0  0
    8.4268  -14.3487   27.1710 O   0  0  0  0  0  0  0  0  0  0  0  0
    9.5425  -13.7490   27.7328 O   0  0  0  0  0  0  0  0  0  0  0  0
  2  3  1  0
  2  1  1  0
  3  4  1  6
  5  6  2  0
  5  3  1  0
  7  8  1  0
  8 10  1  0
  8  9  2  0
 10 11  1  0
 12 11  1  0
 12 13  1  0
 14 13  1  1
 14 15  1  0
 15  5  1  0
 16 17  2  0
 16 14  1  0
 19 18  1  1
 20 19  1  0
 21 19  1  0
 21 22  1  1
 22 16  1  0
 23 21  1  0
 24 23  1  0
 25 23  2  0
M  END
$$$$
