SRV.pdb
     RDKit          3D

 25 24  0  0  1  0  0  0  0  0999 V2000
    8.5827  -12.0297   20.2906 O   0  0  0  0  0  0  0  0  0  0  0  0
    9.3194  -13.0805   19.7574 C   0  0  0  0  0  0  0  0  0  0  0  0
    8.3951  -14.2402   19.5646 C   0  0  2  0  0  0  0  0  0  0  0  0
    7.2810  -13.8764   18.7085 N   0  0  0  0  0  0  0  0  0  0  0  0
    7.8224  -14.7226   20.8586 C   0  0  0  0  0  0  0  0  0  0  0  0
    6.6746  -14.3754   21.2415 O   0  0  0  0  0  0  0  0  0  0  0  0
   11.6240  -20.1330   23.8943 N   0  0  0  0  0  0  0  0  0  0  0  0
   11.5972  -19.7870   22.5234 C   0  0  0  0  0  0  0  0  0  0  0  0
   12.6697  -19.6597   21.8052 N   0  0  0  0  0  0  0  0  0  0  0  0
   10.3128  -19.5666   21.9020 N   0  0  0  0  0  0  0  0  0  0  0  0
    9.1073  -19.7426   22.6779 C   0  0  0  0  0  0  0  0  0  0  0  0
    8.2048  -18.5277   22.4069 C   0  0  0  0  0  0  0  0  0  0  0  0
    8.7451  -17.3963   23.1979 C   0  0  0  0  0  0  0  0  0  0  0  0
    8.0379  -16.0635   23.0099 C   0  0  2  0  0  0  0  0  0  0  0  0
    8.5400  -15.5898   21.7126 N   0  0  0  0  0  0  0  0  0  0  0  0
    8.3647  -15.0518   24.0155 C   0  0  0  0  0  0  0  0  0  0  0  0
    9.5364  -14.5746   24.0842 O   0  0  0  0  0  0  0  0  0  0  0  0
   12.5283  -19.4106   20.8028 C   0  0  0  0  0  0  0  0  0  0  0  0
    7.1153  -11.7476   27.5211 C   0  0  2  0  0  0  0  0  0  0  0  0
    6.7062  -12.7308   26.4693 C   0  0  0  0  0  0  0  0  0  0  0  0
    6.0655  -11.9662   25.3330 C   0  0  1  0  0  0  0  0  0  0  0  0
    7.8634  -13.5741   25.9801 N   0  0  0  0  0  0  0  0  0  0  0  0
    7.4527  -14.5208   24.9716 C   0  0  0  0  0  0  0  0  0  0  0  0
    8.5667  -14.2398   27.1040 O   0  0  0  0  0  0  0  0  0  0  0  0
    9.4751  -13.5546   27.8947 O   0  0  0  0  0  0  0  0  0  0  0  0
  2  3  1  0
  2  1  1  0
  3  4  1  6
  5  6  2  0
  5  3  1  0
  7  8  1  0
  8 10  1  0
  8  9  2  0
 10 11  1  0
 12 11  1  0
 12 13  1  0
 14 13  1  1
 14 15  1  0
 15  5  1  0
 16 17  2  0
 16 14  1  0
 19 18  1  1
 20 19  1  0
 21 19  1  0
 21 22  1  1
 22 16  1  0
 23 21  1  0
 24 23  1  0
 25 23  2  0
M  END
$$$$
