SRV.pdb
     RDKit          3D

 25 24  0  0  1  0  0  0  0  0999 V2000
   11.2228  -20.9193   18.5850 O   0  0  0  0  0  0  0  0  0  0  0  0
   10.1025  -20.3461   17.9956 C   0  0  0  0  0  0  0  0  0  0  0  0
   10.3905  -18.8958   17.7718 C   0  0  2  0  0  0  0  0  0  0  0  0
   11.5001  -18.7252   16.8520 N   0  0  0  0  0  0  0  0  0  0  0  0
   10.7530  -18.1933   19.0408 C   0  0  0  0  0  0  0  0  0  0  0  0
   11.9352  -17.8329   19.2801 O   0  0  0  0  0  0  0  0  0  0  0  0
    8.1041  -14.4584   18.6221 N   0  0  0  0  0  0  0  0  0  0  0  0
    7.4095  -13.3462   19.1518 C   0  0  0  0  0  0  0  0  0  0  0  0
    7.2571  -12.2334   18.5030 N   0  0  0  0  0  0  0  0  0  0  0  0
    6.8474  -13.4625   20.4765 N   0  0  0  0  0  0  0  0  0  0  0  0
    7.1478  -14.6264   21.2772 C   0  0  0  0  0  0  0  0  0  0  0  0
    8.4991  -15.1796   20.7954 C   0  0  0  0  0  0  0  0  0  0  0  0
    8.7491  -16.4353   21.5425 C   0  0  0  0  0  0  0  0  0  0  0  0
   10.0712  -17.1258   21.2473 C   0  0  2  0  0  0  0  0  0  0  0  0
    9.7884  -17.9004   20.0307 N   0  0  0  0  0  0  0  0  0  0  0  0
   10.5166  -18.0600   22.2820 C   0  0  0  0  0  0  0  0  0  0  0  0
    9.8945  -19.1475   22.4714 O   0  0  0  0  0  0  0  0  0  0  0  0
    6.7341  -11.4784   18.9962 C   0  0  0  0  0  0  0  0  0  0  0  0
   14.1987  -19.3052   22.8757 C   0  0  2  0  0  0  0  0  0  0  0  0
   13.5646  -18.9535   24.1851 C   0  0  0  0  0  0  0  0  0  0  0  0
   14.1683  -17.6536   24.6672 C   0  0  2  0  0  0  0  0  0  0  0  0
   12.0571  -18.8584   24.0941 N   0  0  0  0  0  0  0  0  0  0  0  0
   11.6360  -17.8617   23.1395 C   0  0  0  0  0  0  0  0  0  0  0  0
   11.4431  -18.6366   25.4262 O   0  0  0  0  0  0  0  0  0  0  0  0
   11.3959  -19.6440   26.3765 O   0  0  0  0  0  0  0  0  0  0  0  0
  2  3  1  0
  2  1  1  0
  3  4  1  6
  5  6  2  0
  5  3  1  0
  7  8  1  0
  8 10  1  0
  8  9  2  0
 10 11  1  0
 12 11  1  0
 12 13  1  0
 14 13  1  1
 14 15  1  0
 15  5  1  0
 16 17  2  0
 16 14  1  0
 19 18  1  1
 20 19  1  0
 21 19  1  0
 21 22  1  1
 22 16  1  0
 23 21  1  0
 24 23  1  0
 25 23  2  0
M  END
$$$$
