SRV.pdb
     RDKit          3D

 25 24  0  0  1  0  0  0  0  0999 V2000
   10.8386  -16.2739   18.5962 O   0  0  0  0  0  0  0  0  0  0  0  0
    9.8429  -15.7820   19.4314 C   0  0  0  0  0  0  0  0  0  0  0  0
    8.8451  -16.8739   19.6519 C   0  0  2  0  0  0  0  0  0  0  0  0
    8.0089  -17.0543   18.4794 N   0  0  0  0  0  0  0  0  0  0  0  0
    7.9382  -16.5812   20.8039 C   0  0  0  0  0  0  0  0  0  0  0  0
    6.8553  -15.9586   20.6485 O   0  0  0  0  0  0  0  0  0  0  0  0
    8.8869  -21.3502   24.7782 N   0  0  0  0  0  0  0  0  0  0  0  0
    8.8642  -20.9066   26.1208 C   0  0  0  0  0  0  0  0  0  0  0  0
    9.7241  -21.2984   27.0095 N   0  0  0  0  0  0  0  0  0  0  0  0
    7.8330  -19.9754   26.5126 N   0  0  0  0  0  0  0  0  0  0  0  0
    6.6938  -19.7702   25.6488 C   0  0  0  0  0  0  0  0  0  0  0  0
    6.6903  -18.2889   25.2367 C   0  0  0  0  0  0  0  0  0  0  0  0
    7.3164  -18.2066   23.8955 C   0  0  0  0  0  0  0  0  0  0  0  0
    7.3484  -16.8225   23.2669 C   0  0  2  0  0  0  0  0  0  0  0  0
    8.2520  -16.9886   22.1199 N   0  0  0  0  0  0  0  0  0  0  0  0
    7.9002  -15.7742   24.1262 C   0  0  0  0  0  0  0  0  0  0  0  0
    9.1544  -15.6467   24.2532 O   0  0  0  0  0  0  0  0  0  0  0  0
    9.5766  -20.9497   27.9808 C   0  0  0  0  0  0  0  0  0  0  0  0
    7.4070  -11.7089   26.9823 C   0  0  2  0  0  0  0  0  0  0  0  0
    6.7822  -12.7431   26.0989 C   0  0  0  0  0  0  0  0  0  0  0  0
    6.2445  -12.0490   24.8679 C   0  0  1  0  0  0  0  0  0  0  0  0
    7.7452  -13.8500   25.7287 N   0  0  0  0  0  0  0  0  0  0  0  0
    7.1316  -14.8341   24.8701 C   0  0  0  0  0  0  0  0  0  0  0  0
    8.3498  -14.4722   26.9321 O   0  0  0  0  0  0  0  0  0  0  0  0
    9.5035  -13.9627   27.5062 O   0  0  0  0  0  0  0  0  0  0  0  0
  2  3  1  0
  2  1  1  0
  3  4  1  6
  5  6  2  0
  5  3  1  0
  7  8  1  0
  8 10  1  0
  8  9  2  0
 10 11  1  0
 12 11  1  0
 12 13  1  0
 14 13  1  1
 14 15  1  0
 15  5  1  0
 16 17  2  0
 16 14  1  0
 19 18  1  1
 20 19  1  0
 21 19  1  0
 21 22  1  1
 22 16  1  0
 23 21  1  0
 24 23  1  0
 25 23  2  0
M  END
$$$$
