TND.pdb
     RDKit          3D

 24 23  0  0  1  0  0  0  0  0999 V2000
    7.5619  -19.5367   19.5631 C   0  0  0  0  0  0  0  0  0  0  0  0
    8.4343  -19.4052   18.3395 C   0  0  1  0  0  0  0  0  0  0  0  0
    7.8867  -20.2532   17.3694 O   0  0  0  0  0  0  0  0  0  0  0  0
    8.4139  -17.9901   17.7804 C   0  0  2  0  0  0  0  0  0  0  0  0
    9.1451  -17.9168   16.5417 N   0  0  0  0  0  0  0  0  0  0  0  0
    9.0048  -17.0278   18.7435 C   0  0  0  0  0  0  0  0  0  0  0  0
   10.2754  -17.0107   18.7977 O   0  0  0  0  0  0  0  0  0  0  0  0
    6.7568  -12.4401   19.5753 N   0  0  0  0  0  0  0  0  0  0  0  0
    7.9916  -13.1488   19.7522 C   0  0  0  0  0  0  0  0  0  0  0  0
    8.9085  -12.8174   18.9775 O   0  0  0  0  0  0  0  0  0  0  0  0
    8.0277  -14.1619   20.8054 C   0  0  0  0  0  0  0  0  0  0  0  0
    8.9150  -15.3480   20.5617 C   0  0  2  0  0  0  0  0  0  0  0  0
    8.2388  -16.1833   19.5504 N   0  0  0  0  0  0  0  0  0  0  0  0
    9.0595  -16.1519   21.8114 C   0  0  0  0  0  0  0  0  0  0  0  0
    8.1939  -17.0198   22.0622 O   0  0  0  0  0  0  0  0  0  0  0  0
   10.1428  -15.9537   22.7067 N   0  0  0  0  0  0  0  0  0  0  0  0
   10.4995  -17.0735   23.5975 C   0  0  1  0  0  0  0  0  0  0  0  0
   10.8227  -18.2820   22.7620 C   0  0  0  0  0  0  0  0  0  0  0  0
   11.3429  -19.4249   23.5208 C   0  0  0  0  0  0  0  0  0  0  0  0
   10.6300  -20.1941   24.1960 O   0  0  0  0  0  0  0  0  0  0  0  0
   11.6540  -16.6688   24.4274 C   0  0  0  0  0  0  0  0  0  0  0  0
   11.9588  -17.2871   25.5994 O   0  0  0  0  0  0  0  0  0  0  0  0
   12.7122  -19.7253   23.5296 O   0  0  0  0  0  0  0  0  0  0  0  0
   12.3759  -15.7226   24.0377 O   0  0  0  0  0  0  0  0  0  0  0  0
  2  1  1  1
  2  4  1  0
  3  2  1  0
  4  5  1  6
  6  7  2  0
  6  4  1  0
  9  8  1  0
  9 10  2  0
 12 11  1  1
 11  9  1  0
 12 13  1  0
 13  6  1  0
 14 12  1  0
 15 14  2  0
 16 14  1  0
 17 21  1  0
 17 16  1  0
 17 18  1  6
 19 18  1  0
 20 19  2  0
 21 22  1  0
 23 19  1  0
 24 21  2  0
M  END
$$$$
