TND.pdb
     RDKit          3D

 24 23  0  0  1  0  0  0  0  0999 V2000
   14.3609  -15.8705   15.0133 C   0  0  0  0  0  0  0  0  0  0  0  0
   13.2927  -16.9351   15.0494 C   0  0  1  0  0  0  0  0  0  0  0  0
   13.6914  -17.8639   16.0182 O   0  0  0  0  0  0  0  0  0  0  0  0
   11.9462  -16.3701   15.4779 C   0  0  2  0  0  0  0  0  0  0  0  0
   11.4726  -15.3959   14.5287 N   0  0  0  0  0  0  0  0  0  0  0  0
   12.0369  -15.7322   16.8148 C   0  0  0  0  0  0  0  0  0  0  0  0
   12.6395  -14.6127   16.8527 O   0  0  0  0  0  0  0  0  0  0  0  0
   11.3333  -14.4126   21.7663 N   0  0  0  0  0  0  0  0  0  0  0  0
   10.2681  -15.2842   21.3613 C   0  0  0  0  0  0  0  0  0  0  0  0
    9.3174  -15.3664   22.1613 O   0  0  0  0  0  0  0  0  0  0  0  0
   10.4219  -15.9635   20.0760 C   0  0  0  0  0  0  0  0  0  0  0  0
   11.6112  -15.5686   19.2495 C   0  0  2  0  0  0  0  0  0  0  0  0
   11.5036  -16.3017   17.9734 N   0  0  0  0  0  0  0  0  0  0  0  0
   12.8741  -15.9893   19.9255 C   0  0  0  0  0  0  0  0  0  0  0  0
   13.2181  -17.1897   19.8465 O   0  0  0  0  0  0  0  0  0  0  0  0
   13.6795  -15.0684   20.6450 N   0  0  0  0  0  0  0  0  0  0  0  0
   14.9063  -15.5897   21.2760 C   0  0  1  0  0  0  0  0  0  0  0  0
   16.0050  -14.5730   21.1278 C   0  0  0  0  0  0  0  0  0  0  0  0
   16.5214  -14.4298   19.7620 C   0  0  0  0  0  0  0  0  0  0  0  0
   16.8955  -13.3466   19.2697 O   0  0  0  0  0  0  0  0  0  0  0  0
   14.6232  -15.8723   22.6992 C   0  0  0  0  0  0  0  0  0  0  0  0
   15.4527  -16.6253   23.4696 O   0  0  0  0  0  0  0  0  0  0  0  0
   16.6262  -15.5365   18.9078 O   0  0  0  0  0  0  0  0  0  0  0  0
   13.5821  -15.4023   23.2128 O   0  0  0  0  0  0  0  0  0  0  0  0
  2  1  1  1
  2  4  1  0
  3  2  1  0
  4  5  1  6
  6  7  2  0
  6  4  1  0
  9  8  1  0
  9 10  2  0
 12 11  1  1
 11  9  1  0
 12 13  1  0
 13  6  1  0
 14 12  1  0
 15 14  2  0
 16 14  1  0
 17 21  1  0
 17 16  1  0
 17 18  1  1
 19 18  1  0
 20 19  2  0
 21 22  1  0
 23 19  1  0
 24 21  2  0
M  END
$$$$
