TND.pdb
     RDKit          3D

 24 23  0  0  1  0  0  0  0  0999 V2000
    7.9448  -14.1316   16.9576 C   0  0  0  0  0  0  0  0  0  0  0  0
    8.4019  -14.5130   18.3437 C   0  0  1  0  0  0  0  0  0  0  0  0
    9.7880  -14.6954   18.2677 O   0  0  0  0  0  0  0  0  0  0  0  0
    8.1368  -13.4039   19.3513 C   0  0  2  0  0  0  0  0  0  0  0  0
    8.7845  -12.1812   18.9513 N   0  0  0  0  0  0  0  0  0  0  0  0
    8.6214  -13.7834   20.7017 C   0  0  0  0  0  0  0  0  0  0  0  0
    9.7880  -13.3769   21.0042 O   0  0  0  0  0  0  0  0  0  0  0  0
    7.5388  -12.9712   24.6992 N   0  0  0  0  0  0  0  0  0  0  0  0
    6.8045  -14.2035   24.6814 C   0  0  0  0  0  0  0  0  0  0  0  0
    5.8032  -14.2345   25.4212 O   0  0  0  0  0  0  0  0  0  0  0  0
    7.3105  -15.2625   23.8100 C   0  0  0  0  0  0  0  0  0  0  0  0
    8.4535  -14.8966   22.9082 C   0  0  2  0  0  0  0  0  0  0  0  0
    7.8662  -14.5375   21.6029 N   0  0  0  0  0  0  0  0  0  0  0  0
    9.3524  -16.0718   22.7091 C   0  0  0  0  0  0  0  0  0  0  0  0
    9.5748  -16.4577   21.5398 O   0  0  0  0  0  0  0  0  0  0  0  0
    9.9504  -16.7495   23.8034 N   0  0  0  0  0  0  0  0  0  0  0  0
   11.2418  -17.4195   23.5621 C   0  0  1  0  0  0  0  0  0  0  0  0
   12.2063  -16.4282   22.9703 C   0  0  0  0  0  0  0  0  0  0  0  0
   12.6862  -16.7735   21.6276 C   0  0  0  0  0  0  0  0  0  0  0  0
   12.9071  -17.9404   21.2464 O   0  0  0  0  0  0  0  0  0  0  0  0
   11.7428  -17.9577   24.8446 C   0  0  0  0  0  0  0  0  0  0  0  0
   11.3461  -17.4601   26.0461 O   0  0  0  0  0  0  0  0  0  0  0  0
   12.9311  -15.7805   20.6686 O   0  0  0  0  0  0  0  0  0  0  0  0
   12.5622  -18.9046   24.8233 O   0  0  0  0  0  0  0  0  0  0  0  0
  2  1  1  6
  2  4  1  0
  3  2  1  0
  4  5  1  6
  6  7  2  0
  6  4  1  0
  9  8  1  0
  9 10  2  0
 12 11  1  1
 11  9  1  0
 12 13  1  0
 13  6  1  0
 14 12  1  0
 15 14  2  0
 16 14  1  0
 17 21  1  0
 17 16  1  0
 17 18  1  1
 19 18  1  0
 20 19  2  0
 21 22  1  0
 23 19  1  0
 24 21  2  0
M  END
$$$$
