TND.pdb
     RDKit          3D

 24 23  0  0  1  0  0  0  0  0999 V2000
    7.6125  -14.5585   17.2033 C   0  0  0  0  0  0  0  0  0  0  0  0
    7.9504  -14.8657   18.6410 C   0  0  1  0  0  0  0  0  0  0  0  0
    9.2975  -15.2471   18.6587 O   0  0  0  0  0  0  0  0  0  0  0  0
    7.8063  -13.6389   19.5298 C   0  0  2  0  0  0  0  0  0  0  0  0
    8.5647  -12.5326   19.0050 N   0  0  0  0  0  0  0  0  0  0  0  0
    8.2681  -13.9242   20.9111 C   0  0  0  0  0  0  0  0  0  0  0  0
    9.4261  -13.4894   21.2071 O   0  0  0  0  0  0  0  0  0  0  0  0
    6.4756  -16.3699   26.1411 N   0  0  0  0  0  0  0  0  0  0  0  0
    7.0713  -15.2211   25.5215 C   0  0  0  0  0  0  0  0  0  0  0  0
    7.7554  -14.5063   26.2776 O   0  0  0  0  0  0  0  0  0  0  0  0
    6.8089  -15.0277   24.0965 C   0  0  0  0  0  0  0  0  0  0  0  0
    8.0035  -14.7622   23.2270 C   0  0  2  0  0  0  0  0  0  0  0  0
    7.5011  -14.6226   21.8465 N   0  0  0  0  0  0  0  0  0  0  0  0
    8.9417  -15.9228   23.2681 C   0  0  0  0  0  0  0  0  0  0  0  0
    8.6392  -16.9535   22.6265 O   0  0  0  0  0  0  0  0  0  0  0  0
   10.1513  -15.8804   24.0093 N   0  0  0  0  0  0  0  0  0  0  0  0
   10.9703  -17.1064   24.0409 C   0  0  1  0  0  0  0  0  0  0  0  0
   12.4150  -16.7373   23.8423 C   0  0  0  0  0  0  0  0  0  0  0  0
   12.7495  -16.2983   22.4830 C   0  0  0  0  0  0  0  0  0  0  0  0
   12.3043  -16.8355   21.4490 O   0  0  0  0  0  0  0  0  0  0  0  0
   10.7612  -17.7820   25.3391 C   0  0  0  0  0  0  0  0  0  0  0  0
   11.3862  -18.9455   25.6619 O   0  0  0  0  0  0  0  0  0  0  0  0
   13.6150  -15.2174   22.2635 O   0  0  0  0  0  0  0  0  0  0  0  0
    9.9800  -17.2647   26.1703 O   0  0  0  0  0  0  0  0  0  0  0  0
  2  1  1  6
  2  4  1  0
  3  2  1  0
  4  5  1  6
  6  7  2  0
  6  4  1  0
  9  8  1  0
  9 10  2  0
 12 11  1  1
 11  9  1  0
 12 13  1  0
 13  6  1  0
 14 12  1  0
 15 14  2  0
 16 14  1  0
 17 21  1  0
 17 16  1  0
 17 18  1  1
 19 18  1  0
 20 19  2  0
 21 22  1  0
 23 19  1  0
 24 21  2  0
M  END
$$$$
