TND.pdb
     RDKit          3D

 24 23  0  0  1  0  0  0  0  0999 V2000
    9.8802  -18.8256   18.1749 C   0  0  0  0  0  0  0  0  0  0  0  0
   10.1295  -17.9532   16.9697 C   0  0  1  0  0  0  0  0  0  0  0  0
    9.7845  -18.7179   15.8488 O   0  0  0  0  0  0  0  0  0  0  0  0
    9.2437  -16.7158   16.9749 C   0  0  2  0  0  0  0  0  0  0  0  0
    9.3453  -16.0064   15.7256 N   0  0  0  0  0  0  0  0  0  0  0  0
    9.6172  -15.7975   18.0794 C   0  0  0  0  0  0  0  0  0  0  0  0
   10.5995  -15.0241   17.8461 O   0  0  0  0  0  0  0  0  0  0  0  0
    8.7134  -12.7565   18.7446 N   0  0  0  0  0  0  0  0  0  0  0  0
    7.9038  -12.9565   19.9120 C   0  0  0  0  0  0  0  0  0  0  0  0
    6.9359  -12.1812   20.0248 O   0  0  0  0  0  0  0  0  0  0  0  0
    8.3046  -14.0309   20.8186 C   0  0  0  0  0  0  0  0  0  0  0  0
    9.4584  -14.8832   20.3760 C   0  0  2  0  0  0  0  0  0  0  0  0
    8.9502  -15.7634   19.3062 N   0  0  0  0  0  0  0  0  0  0  0  0
    9.9303  -15.7413   21.5029 C   0  0  0  0  0  0  0  0  0  0  0  0
    9.1807  -16.6593   21.9040 O   0  0  0  0  0  0  0  0  0  0  0  0
   11.1930  -15.5392   22.1185 N   0  0  0  0  0  0  0  0  0  0  0  0
   11.7465  -16.6526   22.9116 C   0  0  1  0  0  0  0  0  0  0  0  0
   11.8719  -17.8669   22.0326 C   0  0  0  0  0  0  0  0  0  0  0  0
   12.3758  -19.0633   22.7160 C   0  0  0  0  0  0  0  0  0  0  0  0
   12.6708  -19.1003   23.9273 O   0  0  0  0  0  0  0  0  0  0  0  0
   13.0598  -16.2418   23.4520 C   0  0  0  0  0  0  0  0  0  0  0  0
   13.5019  -16.6457   24.6726 O   0  0  0  0  0  0  0  0  0  0  0  0
   12.5597  -20.2688   22.0243 O   0  0  0  0  0  0  0  0  0  0  0  0
   13.7900  -15.4944   22.7615 O   0  0  0  0  0  0  0  0  0  0  0  0
  2  1  1  1
  2  4  1  0
  3  2  1  0
  4  5  1  6
  6  7  2  0
  6  4  1  0
  9  8  1  0
  9 10  2  0
 12 11  1  1
 11  9  1  0
 12 13  1  0
 13  6  1  0
 14 12  1  0
 15 14  2  0
 16 14  1  0
 17 21  1  0
 17 16  1  0
 17 18  1  6
 19 18  1  0
 20 19  2  0
 21 22  1  0
 23 19  1  0
 24 21  2  0
M  END
$$$$
