VMA.pdb
     RDKit          3D

 21 20  0  0  1  0  0  0  0  0999 V2000
   16.3675  -10.5724  -10.8685 C   0  0  0  0  0  0  0  0  0  0  0  0
   15.8177  -10.3521  -12.2637 C   0  0  2  0  0  0  0  0  0  0  0  0
   16.4307  -11.3022  -13.2636 C   0  0  0  0  0  0  0  0  0  0  0  0
   16.1102   -8.9418  -12.7380 C   0  0  2  0  0  0  0  0  0  0  0  0
   15.5534   -8.6868  -14.0415 N   0  0  0  0  0  0  0  0  0  0  0  0
   17.5702   -8.6862  -12.7982 C   0  0  0  0  0  0  0  0  0  0  0  0
   18.2643   -8.6696  -11.7531 O   0  0  0  0  0  0  0  0  0  0  0  0
   24.1909  -11.0564  -14.9925 C   0  0  0  0  0  0  0  0  0  0  0  0
   22.5218  -10.7301  -15.6146 S   0  0  0  0  0  0  0  0  0  0  0  0
   21.6679   -9.5488  -14.5756 C   0  0  0  0  0  0  0  0  0  0  0  0
   20.3149   -9.1587  -15.0632 C   0  0  0  0  0  0  0  0  0  0  0  0
   19.6310   -8.1546  -14.1629 C   0  0  2  0  0  0  0  0  0  0  0  0
   18.2144   -8.4546  -14.0401 N   0  0  0  0  0  0  0  0  0  0  0  0
   19.8946   -6.7581  -14.5338 C   0  0  0  0  0  0  0  0  0  0  0  0
   19.1952   -6.2125  -15.4404 O   0  0  0  0  0  0  0  0  0  0  0  0
   22.1045   -3.9988  -13.2701 C   0  0  0  0  0  0  0  0  0  0  0  0
   21.2126   -4.6195  -14.3808 C   0  0  2  0  0  0  0  0  0  0  0  0
   20.8974   -5.9571  -13.9301 N   0  0  0  0  0  0  0  0  0  0  0  0
   22.0020   -4.5397  -15.6029 C   0  0  0  0  0  0  0  0  0  0  0  0
   22.1119   -3.2934  -16.2166 O   0  0  0  0  0  0  0  0  0  0  0  0
   22.5925   -5.4954  -16.1525 O   0  0  0  0  0  0  0  0  0  0  0  0
  2  1  1  1
  3  2  1  0
  4  2  1  0
  4  6  1  0
  4  5  1  6
  6  7  2  0
  9 10  1  0
  9  8  1  0
 10 11  1  0
 12 11  1  6
 13  6  1  0
 13 12  1  0
 14 12  1  0
 14 18  1  0
 15 14  2  0
 17 18  1  0
 17 16  1  1
 19 17  1  0
 20 19  1  0
 21 19  2  0
M  END
$$$$
