VMA.pdb
     RDKit          3D

 21 20  0  0  1  0  0  0  0  0999 V2000
   28.4321  -17.5666  -16.4580 C   0  0  0  0  0  0  0  0  0  0  0  0
   27.3611  -18.3717  -15.7493 C   0  0  2  0  0  0  0  0  0  0  0  0
   26.5919  -17.5313  -14.7593 C   0  0  0  0  0  0  0  0  0  0  0  0
   27.9779  -19.5260  -14.9836 C   0  0  2  0  0  0  0  0  0  0  0  0
   28.6498  -20.4528  -15.8575 N   0  0  0  0  0  0  0  0  0  0  0  0
   26.9510  -20.2723  -14.2159 C   0  0  0  0  0  0  0  0  0  0  0  0
   26.1890  -21.0898  -14.7861 O   0  0  0  0  0  0  0  0  0  0  0  0
   26.8610  -20.0665   -7.5956 C   0  0  0  0  0  0  0  0  0  0  0  0
   25.3103  -20.9466   -7.9119 S   0  0  0  0  0  0  0  0  0  0  0  0
   25.0699  -21.2156   -9.6652 C   0  0  0  0  0  0  0  0  0  0  0  0
   26.0720  -20.5425  -10.5387 C   0  0  0  0  0  0  0  0  0  0  0  0
   25.8168  -20.7697  -12.0117 C   0  0  2  0  0  0  0  0  0  0  0  0
   26.8079  -20.0778  -12.8185 N   0  0  0  0  0  0  0  0  0  0  0  0
   24.4362  -20.4791  -12.4201 C   0  0  0  0  0  0  0  0  0  0  0  0
   24.0184  -19.2818  -12.3934 O   0  0  0  0  0  0  0  0  0  0  0  0
   21.8144  -22.2444  -14.3483 C   0  0  0  0  0  0  0  0  0  0  0  0
   22.1778  -21.1546  -13.3020 C   0  0  2  0  0  0  0  0  0  0  0  0
   23.5181  -21.4677  -12.8577 N   0  0  0  0  0  0  0  0  0  0  0  0
   21.1433  -21.2373  -12.2794 C   0  0  0  0  0  0  0  0  0  0  0  0
   21.5197  -21.7022  -11.0207 O   0  0  0  0  0  0  0  0  0  0  0  0
   19.9415  -20.9266  -12.4320 O   0  0  0  0  0  0  0  0  0  0  0  0
  2  1  1  1
  3  2  1  0
  4  2  1  0
  4  6  1  0
  4  5  1  6
  6  7  2  0
  9 10  1  0
  9  8  1  0
 10 11  1  0
 12 11  1  1
 13  6  1  0
 13 12  1  0
 14 12  1  0
 14 18  1  0
 15 14  2  0
 17 18  1  0
 17 16  1  6
 19 17  1  0
 20 19  1  0
 21 19  2  0
M  END
$$$$
