VMA.pdb
     RDKit          3D

 21 20  0  0  1  0  0  0  0  0999 V2000
   20.6272  -13.1198  -16.8161 C   0  0  0  0  0  0  0  0  0  0  0  0
   19.3237  -12.6257  -16.2210 C   0  0  2  0  0  0  0  0  0  0  0  0
   18.1272  -13.2449  -16.9015 C   0  0  0  0  0  0  0  0  0  0  0  0
   19.2035  -11.1215  -16.3696 C   0  0  2  0  0  0  0  0  0  0  0  0
   19.2292  -10.7140  -17.7507 N   0  0  0  0  0  0  0  0  0  0  0  0
   20.3007  -10.4210  -15.6581 C   0  0  0  0  0  0  0  0  0  0  0  0
   20.4526  -10.5539  -14.4198 O   0  0  0  0  0  0  0  0  0  0  0  0
   26.9130  -11.3954  -14.9535 C   0  0  0  0  0  0  0  0  0  0  0  0
   26.0220  -10.2614  -16.0487 S   0  0  0  0  0  0  0  0  0  0  0  0
   24.3951   -9.8884  -15.4020 C   0  0  0  0  0  0  0  0  0  0  0  0
   23.5710   -9.0017  -16.2710 C   0  0  0  0  0  0  0  0  0  0  0  0
   22.1912   -8.7431  -15.7090 C   0  0  2  0  0  0  0  0  0  0  0  0
   21.2032   -9.5846  -16.3630 N   0  0  0  0  0  0  0  0  0  0  0  0
   21.8197   -7.3222  -15.6948 C   0  0  0  0  0  0  0  0  0  0  0  0
   21.3428   -6.7933  -16.7444 O   0  0  0  0  0  0  0  0  0  0  0  0
   21.7446   -4.5833  -13.1189 C   0  0  0  0  0  0  0  0  0  0  0  0
   21.6857   -5.0620  -14.5960 C   0  0  2  0  0  0  0  0  0  0  0  0
   21.9557   -6.4823  -14.5600 N   0  0  0  0  0  0  0  0  0  0  0  0
   22.6696   -4.2548  -15.3055 C   0  0  0  0  0  0  0  0  0  0  0  0
   22.2989   -2.9612  -15.6674 O   0  0  0  0  0  0  0  0  0  0  0  0
   23.8231   -4.6220  -15.6198 O   0  0  0  0  0  0  0  0  0  0  0  0
  2  1  1  6
  3  2  1  0
  4  2  1  0
  4  6  1  0
  4  5  1  6
  6  7  2  0
  9 10  1  0
  9  8  1  0
 10 11  1  0
 12 11  1  6
 13  6  1  0
 13 12  1  0
 14 12  1  0
 14 18  1  0
 15 14  2  0
 17 18  1  0
 17 16  1  1
 19 17  1  0
 20 19  1  0
 21 19  2  0
M  END
$$$$
