VMA.pdb
     RDKit          3D

 21 20  0  0  1  0  0  0  0  0999 V2000
   17.3130  -10.0293  -21.1231 C   0  0  0  0  0  0  0  0  0  0  0  0
   17.9953   -9.6735  -19.8172 C   0  0  2  0  0  0  0  0  0  0  0  0
   18.7206   -8.3528  -19.9060 C   0  0  0  0  0  0  0  0  0  0  0  0
   19.0171  -10.7292  -19.4421 C   0  0  2  0  0  0  0  0  0  0  0  0
   18.4149  -12.0278  -19.2838 N   0  0  0  0  0  0  0  0  0  0  0  0
   19.7108  -10.3815  -18.1777 C   0  0  0  0  0  0  0  0  0  0  0  0
   19.1142  -10.4509  -17.0762 O   0  0  0  0  0  0  0  0  0  0  0  0
   26.4699  -10.0386  -14.2004 C   0  0  0  0  0  0  0  0  0  0  0  0
   25.5110  -10.6999  -15.5870 S   0  0  0  0  0  0  0  0  0  0  0  0
   23.9385   -9.8586  -15.7403 C   0  0  0  0  0  0  0  0  0  0  0  0
   23.1095  -10.3003  -16.8971 C   0  0  0  0  0  0  0  0  0  0  0  0
   21.7890   -9.5693  -16.9889 C   0  0  2  0  0  0  0  0  0  0  0  0
   21.0655   -9.9622  -18.1864 N   0  0  0  0  0  0  0  0  0  0  0  0
   21.9124   -8.1132  -16.8415 C   0  0  0  0  0  0  0  0  0  0  0  0
   22.5908   -7.4573  -17.6891 O   0  0  0  0  0  0  0  0  0  0  0  0
   20.1693   -5.3956  -15.0677 C   0  0  0  0  0  0  0  0  0  0  0  0
   21.5127   -5.9515  -15.6161 C   0  0  2  0  0  0  0  0  0  0  0  0
   21.3065   -7.3718  -15.7951 N   0  0  0  0  0  0  0  0  0  0  0  0
   22.5178   -5.5839  -14.6274 C   0  0  0  0  0  0  0  0  0  0  0  0
   23.0038   -4.2782  -14.6601 O   0  0  0  0  0  0  0  0  0  0  0  0
   22.9852   -6.3401  -13.7477 O   0  0  0  0  0  0  0  0  0  0  0  0
  2  1  1  6
  3  2  1  0
  4  2  1  0
  4  6  1  0
  4  5  1  1
  6  7  2  0
  9 10  1  0
  9  8  1  0
 10 11  1  0
 12 11  1  6
 13  6  1  0
 13 12  1  0
 14 12  1  0
 14 18  1  0
 15 14  2  0
 17 18  1  0
 17 16  1  1
 19 17  1  0
 20 19  1  0
 21 19  2  0
M  END
$$$$
