VMA.pdb
     RDKit          3D

 21 20  0  0  1  0  0  0  0  0999 V2000
   20.5358  -13.2933  -18.6896 C   0  0  0  0  0  0  0  0  0  0  0  0
   19.6462  -12.8025  -19.8143 C   0  0  2  0  0  0  0  0  0  0  0  0
   20.0093  -13.4388  -21.1339 C   0  0  0  0  0  0  0  0  0  0  0  0
   19.7751  -11.3011  -19.9826 C   0  0  2  0  0  0  0  0  0  0  0  0
   21.0353  -10.9327  -20.5744 N   0  0  0  0  0  0  0  0  0  0  0  0
   19.6509  -10.6010  -18.6806 C   0  0  0  0  0  0  0  0  0  0  0  0
   18.6424  -10.7687  -17.9533 O   0  0  0  0  0  0  0  0  0  0  0  0
   23.2034  -12.9908  -14.0907 C   0  0  0  0  0  0  0  0  0  0  0  0
   23.3154  -11.2753  -14.6599 S   0  0  0  0  0  0  0  0  0  0  0  0
   21.8726  -10.8199  -15.6166 C   0  0  0  0  0  0  0  0  0  0  0  0
   21.8888   -9.4234  -16.1360 C   0  0  0  0  0  0  0  0  0  0  0  0
   20.6495   -9.0753  -16.9293 C   0  0  2  0  0  0  0  0  0  0  0  0
   20.6708   -9.7254  -18.2288 N   0  0  0  0  0  0  0  0  0  0  0  0
   20.3906   -7.6319  -17.0109 C   0  0  0  0  0  0  0  0  0  0  0  0
   21.1179   -6.9107  -17.7590 O   0  0  0  0  0  0  0  0  0  0  0  0
   17.7260   -5.3094  -15.7503 C   0  0  0  0  0  0  0  0  0  0  0  0
   19.1244   -5.5492  -16.3838 C   0  0  2  0  0  0  0  0  0  0  0  0
   19.3556   -6.9742  -16.2981 N   0  0  0  0  0  0  0  0  0  0  0  0
   20.0449   -4.7178  -15.6194 C   0  0  0  0  0  0  0  0  0  0  0  0
   19.9767   -3.3393  -15.8117 O   0  0  0  0  0  0  0  0  0  0  0  0
   20.8950   -5.1340  -14.8019 O   0  0  0  0  0  0  0  0  0  0  0  0
  2  1  1  1
  3  2  1  0
  4  2  1  0
  4  6  1  0
  4  5  1  1
  6  7  2  0
  9 10  1  0
  9  8  1  0
 10 11  1  0
 12 11  1  6
 13  6  1  0
 13 12  1  0
 14 12  1  0
 14 18  1  0
 15 14  2  0
 17 18  1  0
 17 16  1  1
 19 17  1  0
 20 19  1  0
 21 19  2  0
M  END
$$$$
