VMA.pdb
     RDKit          3D

 21 20  0  0  1  0  0  0  0  0999 V2000
   19.0639  -10.3114  -21.3533 C   0  0  0  0  0  0  0  0  0  0  0  0
   18.2754  -11.5324  -20.9234 C   0  0  2  0  0  0  0  0  0  0  0  0
   17.1356  -11.1677  -20.0037 C   0  0  0  0  0  0  0  0  0  0  0  0
   19.1650  -12.5096  -20.1797 C   0  0  2  0  0  0  0  0  0  0  0  0
   18.4736  -13.7330  -19.8644 N   0  0  0  0  0  0  0  0  0  0  0  0
   19.6703  -11.9221  -18.9147 C   0  0  0  0  0  0  0  0  0  0  0  0
   18.9255  -11.8190  -17.9104 O   0  0  0  0  0  0  0  0  0  0  0  0
   25.9035  -10.7308  -14.2730 C   0  0  0  0  0  0  0  0  0  0  0  0
   25.2909  -11.3462  -15.8621 S   0  0  0  0  0  0  0  0  0  0  0  0
   23.6064  -10.8146  -16.1513 C   0  0  0  0  0  0  0  0  0  0  0  0
   23.0030  -11.3262  -17.4141 C   0  0  0  0  0  0  0  0  0  0  0  0
   21.5672  -10.8899  -17.6002 C   0  0  2  0  0  0  0  0  0  0  0  0
   21.0082  -11.4632  -18.8129 N   0  0  0  0  0  0  0  0  0  0  0  0
   21.3789   -9.4361  -17.5097 C   0  0  0  0  0  0  0  0  0  0  0  0
   21.8733   -8.6877  -18.4065 O   0  0  0  0  0  0  0  0  0  0  0  0
   19.2361   -7.1092  -15.5451 C   0  0  0  0  0  0  0  0  0  0  0  0
   20.5298   -7.3599  -16.3685 C   0  0  2  0  0  0  0  0  0  0  0  0
   20.6607   -8.7968  -16.4671 N   0  0  0  0  0  0  0  0  0  0  0  0
   21.5928   -6.6824  -15.6379 C   0  0  0  0  0  0  0  0  0  0  0  0
   22.5476   -7.4782  -15.0077 O   0  0  0  0  0  0  0  0  0  0  0  0
   21.7249   -5.4438  -15.5257 O   0  0  0  0  0  0  0  0  0  0  0  0
  2  1  1  1
  3  2  1  0
  4  2  1  0
  4  6  1  0
  4  5  1  1
  6  7  2  0
  9 10  1  0
  9  8  1  0
 10 11  1  0
 12 11  1  6
 13  6  1  0
 13 12  1  0
 14 12  1  0
 14 18  1  0
 15 14  2  0
 17 18  1  0
 17 16  1  1
 19 17  1  0
 20 19  1  0
 21 19  2  0
M  END
$$$$
