QAS.pdb
     RDKit          3D

 21 20  0  0  1  0  0  0  0  0999 V2000
    9.4445  -16.6820   16.8352 N   0  0  0  0  0  0  0  0  0  0  0  0
    8.4261  -15.8026   17.3362 C   0  0  0  0  0  0  0  0  0  0  0  0
    7.6592  -15.3351   16.4669 O   0  0  0  0  0  0  0  0  0  0  0  0
    8.3688  -15.5388   18.7642 C   0  0  0  0  0  0  0  0  0  0  0  0
    7.2320  -14.7188   19.2490 C   0  0  0  0  0  0  0  0  0  0  0  0
    7.5682  -13.4056   19.8668 C   0  0  2  0  0  0  0  0  0  0  0  0
    8.4424  -12.6527   19.0449 N   0  0  0  0  0  0  0  0  0  0  0  0
    8.1630  -13.6781   21.2096 C   0  0  0  0  0  0  0  0  0  0  0  0
    9.3378  -14.0642   21.3813 O   0  0  0  0  0  0  0  0  0  0  0  0
    6.8820  -13.2562   24.7380 C   0  0  0  0  0  0  0  0  0  0  0  0
    7.8394  -13.7464   23.6743 C   0  0  2  0  0  0  0  0  0  0  0  0
    7.3363  -13.4829   22.3449 N   0  0  0  0  0  0  0  0  0  0  0  0
    8.1152  -15.1903   23.8018 C   0  0  0  0  0  0  0  0  0  0  0  0
    7.5586  -15.9923   23.0387 O   0  0  0  0  0  0  0  0  0  0  0  0
   11.1248  -18.3129   23.6013 O   0  0  0  0  0  0  0  0  0  0  0  0
   10.6804  -16.9738   23.6327 C   0  0  0  0  0  0  0  0  0  0  0  0
    9.6197  -16.9129   24.7161 C   0  0  2  0  0  0  0  0  0  0  0  0
    9.0292  -15.6055   24.8193 N   0  0  0  0  0  0  0  0  0  0  0  0
   10.1642  -17.3277   26.0270 C   0  0  0  0  0  0  0  0  0  0  0  0
   10.6550  -18.4764   26.1457 O   0  0  0  0  0  0  0  0  0  0  0  0
   10.1605  -16.5054   27.1423 O   0  0  0  0  0  0  0  0  0  0  0  0
  2  1  1  0
  3  2  2  0
  4  2  1  0
  5  6  1  0
  5  4  1  0
  6  7  1  6
  8  6  1  0
  9  8  2  0
 11 10  1  1
 11 13  1  0
 11 12  1  0
 12  8  1  0
 13 18  1  0
 14 13  2  0
 16 15  1  0
 17 16  1  6
 17 19  1  0
 18 17  1  0
 19 20  2  0
 19 21  1  0
M  END
$$$$
