QAS.pdb
     RDKit          3D

 21 20  0  0  1  0  0  0  0  0999 V2000
   15.5840  -19.0622   17.8741 N   0  0  0  0  0  0  0  0  0  0  0  0
   15.2736  -18.9866   16.4743 C   0  0  0  0  0  0  0  0  0  0  0  0
   16.2540  -18.7783   15.7276 O   0  0  0  0  0  0  0  0  0  0  0  0
   13.8931  -19.1560   16.0529 C   0  0  0  0  0  0  0  0  0  0  0  0
   12.8899  -19.3859   17.1210 C   0  0  0  0  0  0  0  0  0  0  0  0
   11.5225  -18.8444   16.8840 C   0  0  2  0  0  0  0  0  0  0  0  0
   11.5385  -17.7846   15.9442 N   0  0  0  0  0  0  0  0  0  0  0  0
   10.9746  -18.4100   18.2039 C   0  0  0  0  0  0  0  0  0  0  0  0
   11.2504  -17.3182   18.7429 O   0  0  0  0  0  0  0  0  0  0  0  0
    8.0738  -19.5651   20.2276 C   0  0  0  0  0  0  0  0  0  0  0  0
    9.4195  -18.8891   20.0844 C   0  0  2  0  0  0  0  0  0  0  0  0
   10.0922  -19.2967   18.8715 N   0  0  0  0  0  0  0  0  0  0  0  0
   10.3018  -19.1651   21.2345 C   0  0  0  0  0  0  0  0  0  0  0  0
   11.1909  -20.0225   21.1353 O   0  0  0  0  0  0  0  0  0  0  0  0
   11.8062  -17.8337   25.5777 O   0  0  0  0  0  0  0  0  0  0  0  0
   10.7873  -17.5917   24.6317 C   0  0  0  0  0  0  0  0  0  0  0  0
   10.9753  -18.6316   23.5427 C   0  0  2  0  0  0  0  0  0  0  0  0
   10.0862  -18.4165   22.4328 N   0  0  0  0  0  0  0  0  0  0  0  0
   10.8034  -20.0021   24.0712 C   0  0  0  0  0  0  0  0  0  0  0  0
    9.6721  -20.5412   24.0068 O   0  0  0  0  0  0  0  0  0  0  0  0
   11.8370  -20.7292   24.6395 O   0  0  0  0  0  0  0  0  0  0  0  0
  2  1  1  0
  3  2  2  0
  4  2  1  0
  5  6  1  0
  5  4  1  0
  6  7  1  6
  8  6  1  0
  9  8  2  0
 11 10  1  1
 11 13  1  0
 11 12  1  0
 12  8  1  0
 13 18  1  0
 14 13  2  0
 16 15  1  0
 17 16  1  1
 17 19  1  0
 18 17  1  0
 19 20  2  0
 19 21  1  0
M  END
$$$$
