QAS.pdb
     RDKit          3D

 21 20  0  0  1  0  0  0  0  0999 V2000
   12.9050  -19.9593   16.5889 N   0  0  0  0  0  0  0  0  0  0  0  0
   12.8649  -19.5891   15.2023 C   0  0  0  0  0  0  0  0  0  0  0  0
   12.4173  -20.4683   14.4348 O   0  0  0  0  0  0  0  0  0  0  0  0
   13.3284  -18.2667   14.8166 C   0  0  0  0  0  0  0  0  0  0  0  0
   12.4663  -17.5000   13.8847 C   0  0  0  0  0  0  0  0  0  0  0  0
   11.5049  -16.5406   14.4967 C   0  0  2  0  0  0  0  0  0  0  0  0
   10.7843  -15.8251   13.5091 N   0  0  0  0  0  0  0  0  0  0  0  0
   12.2832  -15.6290   15.3880 C   0  0  0  0  0  0  0  0  0  0  0  0
   13.1554  -14.8363   14.9763 O   0  0  0  0  0  0  0  0  0  0  0  0
   11.9806  -14.7041   19.0225 C   0  0  0  0  0  0  0  0  0  0  0  0
   12.7013  -14.8030   17.6960 C   0  0  2  0  0  0  0  0  0  0  0  0
   12.0057  -15.6763   16.7777 N   0  0  0  0  0  0  0  0  0  0  0  0
   14.0870  -15.2845   17.8544 C   0  0  0  0  0  0  0  0  0  0  0  0
   14.3501  -16.4782   17.6513 O   0  0  0  0  0  0  0  0  0  0  0  0
   17.4212  -13.3181   16.8997 O   0  0  0  0  0  0  0  0  0  0  0  0
   17.4398  -13.6678   18.2669 C   0  0  0  0  0  0  0  0  0  0  0  0
   16.4325  -14.7921   18.4222 C   0  0  2  0  0  0  0  0  0  0  0  0
   15.0812  -14.3336   18.2422 N   0  0  0  0  0  0  0  0  0  0  0  0
   16.5699  -15.4609   19.7341 C   0  0  0  0  0  0  0  0  0  0  0  0
   15.7088  -15.2437   20.6205 O   0  0  0  0  0  0  0  0  0  0  0  0
   17.6107  -16.3237   20.0382 O   0  0  0  0  0  0  0  0  0  0  0  0
  2  1  1  0
  3  2  2  0
  4  2  1  0
  5  6  1  0
  5  4  1  0
  6  7  1  6
  8  6  1  0
  9  8  2  0
 11 10  1  1
 11 13  1  0
 11 12  1  0
 12  8  1  0
 13 18  1  0
 14 13  2  0
 16 15  1  0
 17 16  1  1
 17 19  1  0
 18 17  1  0
 19 20  2  0
 19 21  1  0
M  END
$$$$
