QAS.pdb
     RDKit          3D

 21 20  0  0  1  0  0  0  0  0999 V2000
    8.4050  -17.7528   13.8253 N   0  0  0  0  0  0  0  0  0  0  0  0
    7.9193  -16.4205   14.0503 C   0  0  0  0  0  0  0  0  0  0  0  0
    7.3818  -15.8811   13.0591 O   0  0  0  0  0  0  0  0  0  0  0  0
    8.0829  -15.8284   15.3675 C   0  0  0  0  0  0  0  0  0  0  0  0
    8.7949  -16.6411   16.3836 C   0  0  0  0  0  0  0  0  0  0  0  0
    8.0506  -16.9500   17.6364 C   0  0  2  0  0  0  0  0  0  0  0  0
    6.6892  -16.5708   17.5395 N   0  0  0  0  0  0  0  0  0  0  0  0
    8.7452  -16.2497   18.7580 C   0  0  0  0  0  0  0  0  0  0  0  0
    9.9622  -16.3769   19.0062 O   0  0  0  0  0  0  0  0  0  0  0  0
    7.6818  -13.5736   21.1877 C   0  0  0  0  0  0  0  0  0  0  0  0
    8.5725  -14.6890   20.6864 C   0  0  2  0  0  0  0  0  0  0  0  0
    7.9674  -15.3947   19.5793 N   0  0  0  0  0  0  0  0  0  0  0  0
    8.8957  -15.6588   21.7504 C   0  0  0  0  0  0  0  0  0  0  0  0
    8.0733  -16.5344   22.0545 O   0  0  0  0  0  0  0  0  0  0  0  0
   12.5931  -15.4575   23.6260 O   0  0  0  0  0  0  0  0  0  0  0  0
   12.0219  -16.7372   23.4591 C   0  0  0  0  0  0  0  0  0  0  0  0
   10.5222  -16.5172   23.3887 C   0  0  2  0  0  0  0  0  0  0  0  0
   10.1667  -15.5415   22.3935 N   0  0  0  0  0  0  0  0  0  0  0  0
    9.9734  -16.1221   24.7039 C   0  0  0  0  0  0  0  0  0  0  0  0
    9.3655  -15.0291   24.8057 O   0  0  0  0  0  0  0  0  0  0  0  0
   10.0968  -16.9042   25.8412 O   0  0  0  0  0  0  0  0  0  0  0  0
  2  1  1  0
  3  2  2  0
  4  2  1  0
  5  6  1  0
  5  4  1  0
  6  7  1  6
  8  6  1  0
  9  8  2  0
 11 10  1  1
 11 13  1  0
 11 12  1  0
 12  8  1  0
 13 18  1  0
 14 13  2  0
 16 15  1  0
 17 16  1  1
 17 19  1  0
 18 17  1  0
 19 20  2  0
 19 21  1  0
M  END
$$$$
