QAS.pdb
     RDKit          3D

 21 20  0  0  1  0  0  0  0  0999 V2000
   12.2324  -19.8696   20.2558 N   0  0  0  0  0  0  0  0  0  0  0  0
   12.3052  -18.4541   20.4849 C   0  0  0  0  0  0  0  0  0  0  0  0
   13.1111  -18.1049   21.3743 O   0  0  0  0  0  0  0  0  0  0  0  0
   11.4679  -17.5718   19.6895 C   0  0  0  0  0  0  0  0  0  0  0  0
   10.4614  -16.7643   20.4207 C   0  0  0  0  0  0  0  0  0  0  0  0
    9.1205  -17.3828   20.6176 C   0  0  2  0  0  0  0  0  0  0  0  0
    8.3154  -17.2590   19.4587 N   0  0  0  0  0  0  0  0  0  0  0  0
    8.4923  -16.7292   21.8046 C   0  0  0  0  0  0  0  0  0  0  0  0
    7.9282  -15.6161   21.7646 O   0  0  0  0  0  0  0  0  0  0  0  0
    7.0391  -17.9725   24.8872 C   0  0  0  0  0  0  0  0  0  0  0  0
    7.8639  -16.9038   24.2043 C   0  0  2  0  0  0  0  0  0  0  0  0
    8.5461  -17.4226   23.0402 N   0  0  0  0  0  0  0  0  0  0  0  0
    8.8606  -16.3087   25.1151 C   0  0  0  0  0  0  0  0  0  0  0  0
   10.0447  -16.6681   25.0500 O   0  0  0  0  0  0  0  0  0  0  0  0
    9.8462  -13.1060   28.5370 O   0  0  0  0  0  0  0  0  0  0  0  0
    8.7900  -13.5922   27.7371 C   0  0  0  0  0  0  0  0  0  0  0  0
    9.3513  -14.7868   26.9884 C   0  0  2  0  0  0  0  0  0  0  0  0
    8.4059  -15.3262   26.0482 N   0  0  0  0  0  0  0  0  0  0  0  0
    9.7990  -15.8445   27.9199 C   0  0  0  0  0  0  0  0  0  0  0  0
    9.0484  -16.8279   28.1295 O   0  0  0  0  0  0  0  0  0  0  0  0
   11.0168  -15.8057   28.5800 O   0  0  0  0  0  0  0  0  0  0  0  0
  2  1  1  0
  3  2  2  0
  4  2  1  0
  5  6  1  0
  5  4  1  0
  6  7  1  6
  8  6  1  0
  9  8  2  0
 11 10  1  1
 11 13  1  0
 11 12  1  0
 12  8  1  0
 13 18  1  0
 14 13  2  0
 16 15  1  0
 17 16  1  1
 17 19  1  0
 18 17  1  0
 19 20  2  0
 19 21  1  0
M  END
$$$$
