QAS.pdb
     RDKit          3D

 21 20  0  0  1  0  0  0  0  0999 V2000
    9.2389  -14.5281   13.3936 N   0  0  0  0  0  0  0  0  0  0  0  0
    7.9419  -14.0208   13.7428 C   0  0  0  0  0  0  0  0  0  0  0  0
    7.1531  -13.8851   12.7827 O   0  0  0  0  0  0  0  0  0  0  0  0
    7.6593  -13.7198   15.1362 C   0  0  0  0  0  0  0  0  0  0  0  0
    8.7507  -13.9670   16.1097 C   0  0  0  0  0  0  0  0  0  0  0  0
    8.5813  -15.1295   17.0257 C   0  0  2  0  0  0  0  0  0  0  0  0
    7.2342  -15.5655   17.0689 N   0  0  0  0  0  0  0  0  0  0  0  0
    9.0769  -14.7178   18.3732 C   0  0  0  0  0  0  0  0  0  0  0  0
   10.2410  -14.3235   18.5924 O   0  0  0  0  0  0  0  0  0  0  0  0
    7.4496  -14.1978   21.7215 C   0  0  0  0  0  0  0  0  0  0  0  0
    8.6083  -14.5329   20.8085 C   0  0  2  0  0  0  0  0  0  0  0  0
    8.1635  -14.7827   19.4559 N   0  0  0  0  0  0  0  0  0  0  0  0
    9.3664  -15.7057   21.2851 C   0  0  0  0  0  0  0  0  0  0  0  0
    8.9921  -16.8461   20.9772 O   0  0  0  0  0  0  0  0  0  0  0  0
   13.0002  -15.2258   23.3145 O   0  0  0  0  0  0  0  0  0  0  0  0
   12.7533  -16.3756   22.5342 C   0  0  0  0  0  0  0  0  0  0  0  0
   11.2539  -16.6015   22.5894 C   0  0  2  0  0  0  0  0  0  0  0  0
   10.5194  -15.4678   22.0955 N   0  0  0  0  0  0  0  0  0  0  0  0
   10.8094  -16.9349   23.9600 C   0  0  0  0  0  0  0  0  0  0  0  0
    9.9656  -16.1957   24.5222 O   0  0  0  0  0  0  0  0  0  0  0  0
   11.2812  -18.0320   24.6626 O   0  0  0  0  0  0  0  0  0  0  0  0
  2  1  1  0
  3  2  2  0
  4  2  1  0
  5  6  1  0
  5  4  1  0
  6  7  1  1
  8  6  1  0
  9  8  2  0
 11 10  1  1
 11 13  1  0
 11 12  1  0
 12  8  1  0
 13 18  1  0
 14 13  2  0
 16 15  1  0
 17 16  1  1
 17 19  1  0
 18 17  1  0
 19 20  2  0
 19 21  1  0
M  END
$$$$
