QAS.pdb
     RDKit          3D

 21 20  0  0  1  0  0  0  0  0999 V2000
    6.4656  -17.8578   17.1590 N   0  0  0  0  0  0  0  0  0  0  0  0
    6.2400  -18.0649   15.7562 C   0  0  0  0  0  0  0  0  0  0  0  0
    5.1434  -18.5928   15.4711 O   0  0  0  0  0  0  0  0  0  0  0  0
    7.2674  -17.6552   14.8135 C   0  0  0  0  0  0  0  0  0  0  0  0
    8.4392  -16.9363   15.3702 C   0  0  0  0  0  0  0  0  0  0  0  0
    8.3683  -15.4484   15.3838 C   0  0  2  0  0  0  0  0  0  0  0  0
    8.9951  -14.8874   14.2441 N   0  0  0  0  0  0  0  0  0  0  0  0
    8.9986  -14.9785   16.6538 C   0  0  0  0  0  0  0  0  0  0  0  0
   10.2170  -15.0866   16.9037 O   0  0  0  0  0  0  0  0  0  0  0  0
    7.6603  -13.1060   19.6525 C   0  0  0  0  0  0  0  0  0  0  0  0
    8.7037  -13.8538   18.8521 C   0  0  2  0  0  0  0  0  0  0  0  0
    8.1545  -14.3772   17.6215 N   0  0  0  0  0  0  0  0  0  0  0  0
    9.2973  -14.9654   19.6197 C   0  0  0  0  0  0  0  0  0  0  0  0
    8.8264  -16.1065   19.5130 O   0  0  0  0  0  0  0  0  0  0  0  0
   12.9221  -14.3543   21.4178 O   0  0  0  0  0  0  0  0  0  0  0  0
   12.5848  -15.6612   21.0056 C   0  0  0  0  0  0  0  0  0  0  0  0
   11.0755  -15.7593   21.1277 C   0  0  2  0  0  0  0  0  0  0  0  0
   10.4094  -14.6690   20.4672 N   0  0  0  0  0  0  0  0  0  0  0  0
   10.6529  -15.8281   22.5433 C   0  0  0  0  0  0  0  0  0  0  0  0
    9.8695  -14.9542   22.9871 O   0  0  0  0  0  0  0  0  0  0  0  0
   11.0815  -16.8174   23.4137 O   0  0  0  0  0  0  0  0  0  0  0  0
  2  1  1  0
  3  2  2  0
  4  2  1  0
  5  6  1  0
  5  4  1  0
  6  7  1  6
  8  6  1  0
  9  8  2  0
 11 10  1  1
 11 13  1  0
 11 12  1  0
 12  8  1  0
 13 18  1  0
 14 13  2  0
 16 15  1  0
 17 16  1  1
 17 19  1  0
 18 17  1  0
 19 20  2  0
 19 21  1  0
M  END
$$$$
