QAS.pdb
     RDKit          3D

 21 20  0  0  1  0  0  0  0  0999 V2000
   10.6002  -16.9574   11.5001 N   0  0  0  0  0  0  0  0  0  0  0  0
    9.8794  -15.7354   11.2795 C   0  0  0  0  0  0  0  0  0  0  0  0
    9.9966  -15.2542   10.1318 O   0  0  0  0  0  0  0  0  0  0  0  0
    9.0960  -15.1777   12.3692 C   0  0  0  0  0  0  0  0  0  0  0  0
    9.0581  -15.9537   13.6326 C   0  0  0  0  0  0  0  0  0  0  0  0
    8.2255  -15.3980   14.7358 C   0  0  2  0  0  0  0  0  0  0  0  0
    7.5385  -14.2275   14.3300 N   0  0  0  0  0  0  0  0  0  0  0  0
    9.1293  -15.1390   15.8964 C   0  0  0  0  0  0  0  0  0  0  0  0
    9.8116  -14.1014   16.0249 O   0  0  0  0  0  0  0  0  0  0  0  0
    9.6562  -16.8498   19.1984 C   0  0  0  0  0  0  0  0  0  0  0  0
   10.0677  -15.9556   18.0497 C   0  0  2  0  0  0  0  0  0  0  0  0
    9.2072  -16.1355   16.9021 N   0  0  0  0  0  0  0  0  0  0  0  0
   11.4652  -16.1912   17.6390 C   0  0  0  0  0  0  0  0  0  0  0  0
   11.7236  -17.0885   16.8244 O   0  0  0  0  0  0  0  0  0  0  0  0
   14.5433  -13.7393   19.0811 O   0  0  0  0  0  0  0  0  0  0  0  0
   14.6633  -14.3295   17.8048 C   0  0  0  0  0  0  0  0  0  0  0  0
   13.8480  -15.6081   17.8595 C   0  0  2  0  0  0  0  0  0  0  0  0
   12.4759  -15.3577   18.2106 N   0  0  0  0  0  0  0  0  0  0  0  0
   14.4408  -16.5851   18.7982 C   0  0  0  0  0  0  0  0  0  0  0  0
   13.7732  -16.9531   19.7948 O   0  0  0  0  0  0  0  0  0  0  0  0
   15.7080  -17.1208   18.6325 O   0  0  0  0  0  0  0  0  0  0  0  0
  2  1  1  0
  3  2  2  0
  4  2  1  0
  5  6  1  0
  5  4  1  0
  6  7  1  6
  8  6  1  0
  9  8  2  0
 11 10  1  1
 11 13  1  0
 11 12  1  0
 12  8  1  0
 13 18  1  0
 14 13  2  0
 16 15  1  0
 17 16  1  1
 17 19  1  0
 18 17  1  0
 19 20  2  0
 19 21  1  0
M  END
$$$$
