QAS.pdb
     RDKit          3D

 21 20  0  0  1  0  0  0  0  0999 V2000
    9.5300  -15.3114   16.2135 N   0  0  0  0  0  0  0  0  0  0  0  0
    8.4695  -14.3442   16.2489 C   0  0  0  0  0  0  0  0  0  0  0  0
    8.0569  -13.9732   15.1289 O   0  0  0  0  0  0  0  0  0  0  0  0
    7.9759  -13.8929   17.5392 C   0  0  0  0  0  0  0  0  0  0  0  0
    8.5449  -14.5496   18.7412 C   0  0  0  0  0  0  0  0  0  0  0  0
    7.5850  -14.9293   19.8153 C   0  0  2  0  0  0  0  0  0  0  0  0
    6.4183  -14.1267   19.7776 N   0  0  0  0  0  0  0  0  0  0  0  0
    8.2999  -14.8115   21.1214 C   0  0  0  0  0  0  0  0  0  0  0  0
    9.4620  -15.2248   21.3146 O   0  0  0  0  0  0  0  0  0  0  0  0
    7.3897  -13.2504   24.4408 C   0  0  0  0  0  0  0  0  0  0  0  0
    8.2102  -14.1116   23.5060 C   0  0  2  0  0  0  0  0  0  0  0  0
    7.6088  -14.1930   22.1939 N   0  0  0  0  0  0  0  0  0  0  0  0
    8.3940  -15.4780   24.0316 C   0  0  0  0  0  0  0  0  0  0  0  0
    7.4637  -16.2936   23.9624 O   0  0  0  0  0  0  0  0  0  0  0  0
   10.6762  -17.9196   23.0960 O   0  0  0  0  0  0  0  0  0  0  0  0
   11.0074  -17.8472   24.4659 C   0  0  0  0  0  0  0  0  0  0  0  0
    9.8512  -17.1282   25.1359 C   0  0  2  0  0  0  0  0  0  0  0  0
    9.6609  -15.8042   24.6072 N   0  0  0  0  0  0  0  0  0  0  0  0
   10.0322  -17.0668   26.6024 C   0  0  0  0  0  0  0  0  0  0  0  0
   10.0790  -15.9452   27.1629 O   0  0  0  0  0  0  0  0  0  0  0  0
   10.1541  -18.1950   27.3977 O   0  0  0  0  0  0  0  0  0  0  0  0
  2  1  1  0
  3  2  2  0
  4  2  1  0
  5  6  1  0
  5  4  1  0
  6  7  1  1
  8  6  1  0
  9  8  2  0
 11 10  1  1
 11 13  1  0
 11 12  1  0
 12  8  1  0
 13 18  1  0
 14 13  2  0
 16 15  1  0
 17 16  1  6
 17 19  1  0
 18 17  1  0
 19 20  2  0
 19 21  1  0
M  END
$$$$
