QAS.pdb
     RDKit          3D

 21 20  0  0  1  0  0  0  0  0999 V2000
    7.7041  -18.4078   15.4200 N   0  0  0  0  0  0  0  0  0  0  0  0
    8.8671  -17.6000   15.1831 C   0  0  0  0  0  0  0  0  0  0  0  0
    9.8088  -18.1875   14.6083 O   0  0  0  0  0  0  0  0  0  0  0  0
    8.8549  -16.2116   15.6126 C   0  0  0  0  0  0  0  0  0  0  0  0
    7.6231  -15.7284   16.2826 C   0  0  0  0  0  0  0  0  0  0  0  0
    7.5728  -14.2805   16.6295 C   0  0  2  0  0  0  0  0  0  0  0  0
    8.1196  -13.4791   15.5974 N   0  0  0  0  0  0  0  0  0  0  0  0
    8.3024  -14.1004   17.9203 C   0  0  0  0  0  0  0  0  0  0  0  0
    9.5280  -13.8753   17.9976 O   0  0  0  0  0  0  0  0  0  0  0  0
    7.1791  -13.7929   21.5031 C   0  0  0  0  0  0  0  0  0  0  0  0
    8.1903  -14.0325   20.4036 C   0  0  2  0  0  0  0  0  0  0  0  0
    7.5490  -14.1922   19.1180 N   0  0  0  0  0  0  0  0  0  0  0  0
    9.0258  -15.2191   20.6701 C   0  0  0  0  0  0  0  0  0  0  0  0
    8.7810  -16.2862   20.0897 O   0  0  0  0  0  0  0  0  0  0  0  0
   12.7167  -15.5794   20.7507 O   0  0  0  0  0  0  0  0  0  0  0  0
   12.3328  -15.9881   22.0457 C   0  0  0  0  0  0  0  0  0  0  0  0
   10.8411  -16.2564   21.9720 C   0  0  2  0  0  0  0  0  0  0  0  0
   10.0996  -15.0805   21.6031 N   0  0  0  0  0  0  0  0  0  0  0  0
   10.3277  -16.7992   23.2483 C   0  0  0  0  0  0  0  0  0  0  0  0
    9.4541  -16.1534   23.8762 O   0  0  0  0  0  0  0  0  0  0  0  0
   10.7657  -17.9960   23.7923 O   0  0  0  0  0  0  0  0  0  0  0  0
  2  1  1  0
  3  2  2  0
  4  2  1  0
  5  6  1  0
  5  4  1  0
  6  7  1  6
  8  6  1  0
  9  8  2  0
 11 10  1  1
 11 13  1  0
 11 12  1  0
 12  8  1  0
 13 18  1  0
 14 13  2  0
 16 15  1  0
 17 16  1  1
 17 19  1  0
 18 17  1  0
 19 20  2  0
 19 21  1  0
M  END
$$$$
