NPP.pdb
     RDKit          3D

 23 24  0  0  1  0  0  0  0  0999 V2000
   21.7400  -18.8424  -19.1370 N   0  0  0  0  0  0  0  0  0  0  0  0
   22.1471  -18.5088  -17.8266 C   0  0  0  0  0  0  0  0  0  0  0  0
   21.3232  -18.7581  -16.8796 O   0  0  0  0  0  0  0  0  0  0  0  0
   23.4718  -17.8965  -17.6035 C   0  0  0  0  0  0  0  0  0  0  0  0
   24.5956  -18.8408  -18.0428 C   0  0  2  0  0  0  0  0  0  0  0  0
   24.1641  -19.7463  -19.0364 N   0  0  0  0  0  0  0  0  0  0  0  0
   25.2724  -19.4246  -16.8746 C   0  0  0  0  0  0  0  0  0  0  0  0
   24.9461  -20.6637  -16.6951 O   0  0  0  0  0  0  0  0  0  0  0  0
   26.1803  -18.8405  -15.9788 N   0  0  0  0  0  0  0  0  0  0  0  0
   27.3307  -18.0048  -16.3837 C   0  0  0  0  0  0  0  0  0  0  0  0
   27.3610  -16.9051  -15.3069 C   0  0  0  0  0  0  0  0  0  0  0  0
   26.2289  -17.2914  -14.3423 C   0  0  0  0  0  0  0  0  0  0  0  0
   26.3186  -18.8230  -14.5545 C   0  0  1  0  0  0  0  0  0  0  0  0
   25.4570  -19.5629  -13.6981 C   0  0  0  0  0  0  0  0  0  0  0  0
   24.2045  -19.7467  -13.7538 O   0  0  0  0  0  0  0  0  0  0  0  0
   26.0838  -20.2305  -12.5663 N   0  0  0  0  0  0  0  0  0  0  0  0
   27.4734  -20.2069  -12.1734 C   0  0  0  0  0  0  0  0  0  0  0  0
   27.7524  -21.5754  -11.5728 C   0  0  0  0  0  0  0  0  0  0  0  0
   26.4020  -22.2340  -11.4386 C   0  0  0  0  0  0  0  0  0  0  0  0
   25.4404  -21.0800  -11.5771 C   0  0  1  0  0  0  0  0  0  0  0  0
   25.3387  -20.4020  -10.2633 C   0  0  0  0  0  0  0  0  0  0  0  0
   26.0927  -19.4381   -9.9943 O   0  0  0  0  0  0  0  0  0  0  0  0
   24.4274  -20.7913   -9.2933 O   0  0  0  0  0  0  0  0  0  0  0  0
  2  1  1  0
  3  2  2  0
  4  5  1  0
  4  2  1  0
  5  6  1  6
  7  9  1  0
  7  5  1  0
  8  7  2  0
  9 13  1  0
 10 11  1  0
 10  9  1  0
 11 12  1  0
 12 13  1  0
 13 14  1  1
 14 16  1  0
 15 14  2  0
 16 20  1  0
 16 17  1  0
 17 18  1  0
 19 18  1  0
 20 19  1  0
 21 23  1  0
 20 21  1  1
 22 21  2  0
M  END
$$$$
