NPP.pdb
     RDKit          3D

 23 24  0  0  1  0  0  0  0  0999 V2000
   22.5627  -15.8840  -20.2309 N   0  0  0  0  0  0  0  0  0  0  0  0
   23.4574  -15.1140  -19.4558 C   0  0  0  0  0  0  0  0  0  0  0  0
   23.3574  -13.8412  -19.5439 O   0  0  0  0  0  0  0  0  0  0  0  0
   24.4523  -15.7878  -18.5982 C   0  0  0  0  0  0  0  0  0  0  0  0
   23.8866  -16.0466  -17.1980 C   0  0  2  0  0  0  0  0  0  0  0  0
   22.7579  -16.8940  -17.2344 N   0  0  0  0  0  0  0  0  0  0  0  0
   23.7345  -14.7856  -16.4560 C   0  0  0  0  0  0  0  0  0  0  0  0
   22.5238  -14.3330  -16.5132 O   0  0  0  0  0  0  0  0  0  0  0  0
   24.6845  -14.0510  -15.7307 N   0  0  0  0  0  0  0  0  0  0  0  0
   25.7287  -14.6536  -14.8751 C   0  0  0  0  0  0  0  0  0  0  0  0
   26.9534  -13.7573  -15.1333 C   0  0  0  0  0  0  0  0  0  0  0  0
   26.4306  -12.6709  -16.0859 C   0  0  0  0  0  0  0  0  0  0  0  0
   24.9704  -12.6580  -15.5698 C   0  0  1  0  0  0  0  0  0  0  0  0
   24.1702  -11.6441  -16.1652 C   0  0  0  0  0  0  0  0  0  0  0  0
   23.7178  -11.5423  -17.3445 O   0  0  0  0  0  0  0  0  0  0  0  0
   23.7902  -10.5302  -15.3082 N   0  0  0  0  0  0  0  0  0  0  0  0
   24.0505  -10.3595  -13.8978 C   0  0  0  0  0  0  0  0  0  0  0  0
   22.8511   -9.6035  -13.3488 C   0  0  0  0  0  0  0  0  0  0  0  0
   22.0665   -9.1672  -14.5610 C   0  0  0  0  0  0  0  0  0  0  0  0
   23.0534   -9.3360  -15.6893 C   0  0  1  0  0  0  0  0  0  0  0  0
   23.9315   -8.1427  -15.7187 C   0  0  0  0  0  0  0  0  0  0  0  0
   23.5179   -7.0711  -16.2193 O   0  0  0  0  0  0  0  0  0  0  0  0
   25.2201   -8.1540  -15.2065 O   0  0  0  0  0  0  0  0  0  0  0  0
  2  1  1  0
  3  2  2  0
  4  5  1  0
  4  2  1  0
  5  6  1  6
  7  9  1  0
  7  5  1  0
  8  7  2  0
  9 13  1  0
 10 11  1  0
 10  9  1  0
 11 12  1  0
 12 13  1  0
 13 14  1  6
 14 16  1  0
 15 14  2  0
 16 20  1  0
 16 17  1  0
 17 18  1  0
 19 18  1  0
 20 19  1  0
 21 23  1  0
 20 21  1  1
 22 21  2  0
M  END
$$$$
