NPP.pdb
     RDKit          3D

 23 24  0  0  1  0  0  0  0  0999 V2000
   21.4860  -17.7998  -19.6084 N   0  0  0  0  0  0  0  0  0  0  0  0
   22.3260  -17.3727  -18.5567 C   0  0  0  0  0  0  0  0  0  0  0  0
   22.3859  -16.1139  -18.3339 O   0  0  0  0  0  0  0  0  0  0  0  0
   23.0880  -18.3675  -17.7762 C   0  0  0  0  0  0  0  0  0  0  0  0
   24.5739  -18.3385  -18.1489 C   0  0  2  0  0  0  0  0  0  0  0  0
   24.7977  -18.8152  -19.4588 N   0  0  0  0  0  0  0  0  0  0  0  0
   25.3901  -18.9421  -17.0844 C   0  0  0  0  0  0  0  0  0  0  0  0
   25.3587  -20.2349  -17.1242 O   0  0  0  0  0  0  0  0  0  0  0  0
   26.1594  -18.3270  -16.0854 N   0  0  0  0  0  0  0  0  0  0  0  0
   27.1227  -17.2325  -16.3300 C   0  0  0  0  0  0  0  0  0  0  0  0
   26.9285  -16.3155  -15.1089 C   0  0  0  0  0  0  0  0  0  0  0  0
   25.8910  -17.0514  -14.2467 C   0  0  0  0  0  0  0  0  0  0  0  0
   26.2843  -18.4886  -14.6689 C   0  0  1  0  0  0  0  0  0  0  0  0
   25.5827  -19.4988  -13.9544 C   0  0  0  0  0  0  0  0  0  0  0  0
   24.4393  -20.0052  -14.1591 O   0  0  0  0  0  0  0  0  0  0  0  0
   26.2606  -20.0647  -12.7968 N   0  0  0  0  0  0  0  0  0  0  0  0
   27.5173  -19.6595  -12.2116 C   0  0  0  0  0  0  0  0  0  0  0  0
   28.1504  -20.9346  -11.6782 C   0  0  0  0  0  0  0  0  0  0  0  0
   27.0751  -21.9873  -11.7833 C   0  0  0  0  0  0  0  0  0  0  0  0
   25.8168  -21.1768  -11.9720 C   0  0  1  0  0  0  0  0  0  0  0  0
   25.3590  -20.7159  -10.6401 C   0  0  0  0  0  0  0  0  0  0  0  0
   25.7138  -19.5945  -10.2078 O   0  0  0  0  0  0  0  0  0  0  0  0
   24.5368  -21.4832   -9.8289 O   0  0  0  0  0  0  0  0  0  0  0  0
  2  1  1  0
  3  2  2  0
  4  5  1  0
  4  2  1  0
  5  6  1  6
  7  9  1  0
  7  5  1  0
  8  7  2  0
  9 13  1  0
 10 11  1  0
 10  9  1  0
 11 12  1  0
 12 13  1  0
 13 14  1  1
 14 16  1  0
 15 14  2  0
 16 20  1  0
 16 17  1  0
 17 18  1  0
 19 18  1  0
 20 19  1  0
 21 23  1  0
 20 21  1  1
 22 21  2  0
M  END
$$$$
