NPP.pdb
     RDKit          3D

 23 24  0  0  1  0  0  0  0  0999 V2000
   12.3863  -17.7320    1.4476 N   0  0  0  0  0  0  0  0  0  0  0  0
   12.4207  -18.8687    2.2848 C   0  0  0  0  0  0  0  0  0  0  0  0
   11.3695  -19.5977    2.3205 O   0  0  0  0  0  0  0  0  0  0  0  0
   13.6347  -19.1642    3.0711 C   0  0  0  0  0  0  0  0  0  0  0  0
   14.5888  -20.0733    2.2896 C   0  0  2  0  0  0  0  0  0  0  0  0
   13.9647  -21.2769    1.8954 N   0  0  0  0  0  0  0  0  0  0  0  0
   15.8762  -20.2024    2.9895 C   0  0  0  0  0  0  0  0  0  0  0  0
   15.8582  -21.1552    3.8646 O   0  0  0  0  0  0  0  0  0  0  0  0
   17.0592  -19.4643    2.8357 N   0  0  0  0  0  0  0  0  0  0  0  0
   17.6390  -19.0805    1.5310 C   0  0  0  0  0  0  0  0  0  0  0  0
   18.1656  -17.6568    1.7868 C   0  0  0  0  0  0  0  0  0  0  0  0
   17.8762  -17.4103    3.2757 C   0  0  0  0  0  0  0  0  0  0  0  0
   18.0070  -18.8830    3.7367 C   0  0  1  0  0  0  0  0  0  0  0  0
   17.9125  -19.0436    5.1468 C   0  0  0  0  0  0  0  0  0  0  0  0
   16.9200  -19.3478    5.8736 O   0  0  0  0  0  0  0  0  0  0  0  0
   19.1360  -18.8336    5.9075 N   0  0  0  0  0  0  0  0  0  0  0  0
   20.4655  -18.5745    5.4064 C   0  0  0  0  0  0  0  0  0  0  0  0
   21.4117  -19.2400    6.3929 C   0  0  0  0  0  0  0  0  0  0  0  0
   20.5476  -19.6475    7.5603 C   0  0  0  0  0  0  0  0  0  0  0  0
   19.2878  -18.8440    7.3535 C   0  0  1  0  0  0  0  0  0  0  0  0
   19.5163  -17.4797    7.8850 C   0  0  0  0  0  0  0  0  0  0  0  0
   19.4442  -17.2660    9.1177 O   0  0  0  0  0  0  0  0  0  0  0  0
   19.8136  -16.4016    7.0653 O   0  0  0  0  0  0  0  0  0  0  0  0
  2  1  1  0
  3  2  2  0
  4  5  1  0
  4  2  1  0
  5  6  1  1
  7  9  1  0
  7  5  1  0
  8  7  2  0
  9 13  1  0
 10 11  1  0
 10  9  1  0
 11 12  1  0
 12 13  1  0
 13 14  1  1
 14 16  1  0
 15 14  2  0
 16 20  1  0
 16 17  1  0
 17 18  1  0
 19 18  1  0
 20 19  1  0
 21 23  1  0
 20 21  1  6
 22 21  2  0
M  END
$$$$
