NPP.pdb
     RDKit          3D

 23 24  0  0  1  0  0  0  0  0999 V2000
   11.2975  -20.4149    2.7519 N   0  0  0  0  0  0  0  0  0  0  0  0
   12.4308  -19.5899    2.9230 C   0  0  0  0  0  0  0  0  0  0  0  0
   12.3573  -18.3971    2.4651 O   0  0  0  0  0  0  0  0  0  0  0  0
   13.6292  -20.1212    3.6020 C   0  0  0  0  0  0  0  0  0  0  0  0
   14.7183  -20.4886    2.5888 C   0  0  2  0  0  0  0  0  0  0  0  0
   14.3440  -21.5909    1.7899 N   0  0  0  0  0  0  0  0  0  0  0  0
   16.0329  -20.5712    3.2435 C   0  0  0  0  0  0  0  0  0  0  0  0
   16.1503  -21.6417    3.9606 O   0  0  0  0  0  0  0  0  0  0  0  0
   17.1191  -19.6849    3.1906 N   0  0  0  0  0  0  0  0  0  0  0  0
   17.5987  -19.0263    1.9570 C   0  0  0  0  0  0  0  0  0  0  0  0
   17.9734  -17.6126    2.4375 C   0  0  0  0  0  0  0  0  0  0  0  0
   17.7194  -17.6504    3.9525 C   0  0  0  0  0  0  0  0  0  0  0  0
   18.0322  -19.1536    4.1560 C   0  0  1  0  0  0  0  0  0  0  0  0
   18.0139  -19.5543    5.5206 C   0  0  0  0  0  0  0  0  0  0  0  0
   17.0518  -19.9385    6.2504 O   0  0  0  0  0  0  0  0  0  0  0  0
   19.2904  -19.5330    6.2205 N   0  0  0  0  0  0  0  0  0  0  0  0
   20.5970  -19.2288    5.6856 C   0  0  0  0  0  0  0  0  0  0  0  0
   21.5706  -20.1001    6.4631 C   0  0  0  0  0  0  0  0  0  0  0  0
   20.7623  -20.6914    7.5911 C   0  0  0  0  0  0  0  0  0  0  0  0
   19.5304  -19.8215    7.6253 C   0  0  1  0  0  0  0  0  0  0  0  0
   19.8538  -18.5907    8.3845 C   0  0  0  0  0  0  0  0  0  0  0  0
   19.9028  -18.6199    9.6363 O   0  0  0  0  0  0  0  0  0  0  0  0
   20.1114  -17.3784    7.7625 O   0  0  0  0  0  0  0  0  0  0  0  0
  2  1  1  0
  3  2  2  0
  4  5  1  0
  4  2  1  0
  5  6  1  1
  7  9  1  0
  7  5  1  0
  8  7  2  0
  9 13  1  0
 10 11  1  0
 10  9  1  0
 11 12  1  0
 12 13  1  0
 13 14  1  1
 14 16  1  0
 15 14  2  0
 16 20  1  0
 16 17  1  0
 17 18  1  0
 19 18  1  0
 20 19  1  0
 21 23  1  0
 20 21  1  1
 22 21  2  0
M  END
$$$$
