NPP.pdb
     RDKit          3D

 23 24  0  0  1  0  0  0  0  0999 V2000
   26.4926  -21.2660  -13.9706 N   0  0  0  0  0  0  0  0  0  0  0  0
   26.6270  -19.9400  -13.5038 C   0  0  0  0  0  0  0  0  0  0  0  0
   26.9656  -19.0523  -14.3612 O   0  0  0  0  0  0  0  0  0  0  0  0
   26.3827  -19.6351  -12.0802 C   0  0  0  0  0  0  0  0  0  0  0  0
   25.9928  -20.8984  -11.3058 C   0  0  2  0  0  0  0  0  0  0  0  0
   24.6153  -21.1845  -11.4242 N   0  0  0  0  0  0  0  0  0  0  0  0
   26.5387  -20.8622   -9.9404 C   0  0  0  0  0  0  0  0  0  0  0  0
   25.7525  -20.2425   -9.1208 O   0  0  0  0  0  0  0  0  0  0  0  0
   27.7390  -21.3880   -9.4396 N   0  0  0  0  0  0  0  0  0  0  0  0
   28.4296  -22.5694   -9.9992 C   0  0  0  0  0  0  0  0  0  0  0  0
   29.9171  -22.1862   -9.8981 C   0  0  0  0  0  0  0  0  0  0  0  0
   29.9060  -20.8133   -9.2079 C   0  0  0  0  0  0  0  0  0  0  0  0
   28.6227  -21.0369   -8.3701 C   0  0  1  0  0  0  0  0  0  0  0  0
   28.3424  -19.9706   -7.4716 C   0  0  0  0  0  0  0  0  0  0  0  0
   27.8274  -18.8323   -7.6837 O   0  0  0  0  0  0  0  0  0  0  0  0
   28.6890  -20.1907   -6.0747 N   0  0  0  0  0  0  0  0  0  0  0  0
   29.3112  -21.3512   -5.4814 C   0  0  0  0  0  0  0  0  0  0  0  0
   28.7181  -21.4653   -4.0862 C   0  0  0  0  0  0  0  0  0  0  0  0
   27.9468  -20.1861   -3.8756 C   0  0  0  0  0  0  0  0  0  0  0  0
   28.4772  -19.2815   -4.9600 C   0  0  1  0  0  0  0  0  0  0  0  0
   29.7533  -18.6934   -4.4893 C   0  0  0  0  0  0  0  0  0  0  0  0
   29.7429  -17.6919   -3.7362 O   0  0  0  0  0  0  0  0  0  0  0  0
   30.9887  -19.2097   -4.8499 O   0  0  0  0  0  0  0  0  0  0  0  0
  2  1  1  0
  3  2  2  0
  4  5  1  0
  4  2  1  0
  5  6  1  1
  7  9  1  0
  7  5  1  0
  8  7  2  0
  9 13  1  0
 10 11  1  0
 10  9  1  0
 11 12  1  0
 12 13  1  0
 13 14  1  6
 14 16  1  0
 15 14  2  0
 16 20  1  0
 16 17  1  0
 17 18  1  0
 19 18  1  0
 20 19  1  0
 21 23  1  0
 20 21  1  1
 22 21  2  0
M  END
$$$$
