NPP.pdb
     RDKit          3D

 23 24  0  0  1  0  0  0  0  0999 V2000
   14.3527  -11.1153  -17.8202 N   0  0  0  0  0  0  0  0  0  0  0  0
   14.2518   -9.7133  -17.6845 C   0  0  0  0  0  0  0  0  0  0  0  0
   13.3696   -9.1212  -18.3979 O   0  0  0  0  0  0  0  0  0  0  0  0
   15.1475   -9.0000  -16.7526 C   0  0  0  0  0  0  0  0  0  0  0  0
   16.0690   -9.9788  -16.0175 C   0  0  2  0  0  0  0  0  0  0  0  0
   15.3552  -10.7989  -15.1168 N   0  0  0  0  0  0  0  0  0  0  0  0
   17.2450   -9.2807  -15.4757 C   0  0  0  0  0  0  0  0  0  0  0  0
   16.9209   -8.4223  -14.5635 O   0  0  0  0  0  0  0  0  0  0  0  0
   18.6018   -9.4210  -15.8034 N   0  0  0  0  0  0  0  0  0  0  0  0
   19.2580  -10.7113  -16.1037 C   0  0  0  0  0  0  0  0  0  0  0  0
   20.2229  -10.3554  -17.2492 C   0  0  0  0  0  0  0  0  0  0  0  0
   20.0488   -8.8395  -17.4306 C   0  0  0  0  0  0  0  0  0  0  0  0
   19.6988   -8.5150  -15.9572 C   0  0  1  0  0  0  0  0  0  0  0  0
   19.5755   -7.1215  -15.7000 C   0  0  0  0  0  0  0  0  0  0  0  0
   18.5975   -6.3366  -15.8823 O   0  0  0  0  0  0  0  0  0  0  0  0
   20.7425   -6.4601  -15.1341 N   0  0  0  0  0  0  0  0  0  0  0  0
   22.0191   -7.0415  -14.7902 C   0  0  0  0  0  0  0  0  0  0  0  0
   22.5071   -6.2682  -13.5755 C   0  0  0  0  0  0  0  0  0  0  0  0
   21.5616   -5.1006  -13.4406 C   0  0  0  0  0  0  0  0  0  0  0  0
   20.8762   -5.0553  -14.7837 C   0  0  1  0  0  0  0  0  0  0  0  0
   21.7631   -4.3413  -15.7321 C   0  0  0  0  0  0  0  0  0  0  0  0
   22.5464   -4.9872  -16.4666 O   0  0  0  0  0  0  0  0  0  0  0  0
   21.7686   -2.9596  -15.8500 O   0  0  0  0  0  0  0  0  0  0  0  0
  2  1  1  0
  3  2  2  0
  4  5  1  0
  4  2  1  0
  5  6  1  1
  7  9  1  0
  7  5  1  0
  8  7  2  0
  9 13  1  0
 10 11  1  0
 10  9  1  0
 11 12  1  0
 12 13  1  0
 13 14  1  6
 14 16  1  0
 15 14  2  0
 16 20  1  0
 16 17  1  0
 17 18  1  0
 19 18  1  0
 20 19  1  0
 21 23  1  0
 20 21  1  6
 22 21  2  0
M  END
$$$$
