NPP.pdb
     RDKit          3D

 23 24  0  0  1  0  0  0  0  0999 V2000
   22.8529  -19.6330  -13.3856 N   0  0  0  0  0  0  0  0  0  0  0  0
   24.2428  -19.5352  -13.1557 C   0  0  0  0  0  0  0  0  0  0  0  0
   24.9849  -19.2902  -14.1692 O   0  0  0  0  0  0  0  0  0  0  0  0
   24.7755  -19.7188  -11.7911 C   0  0  0  0  0  0  0  0  0  0  0  0
   25.6270  -20.9893  -11.6992 C   0  0  2  0  0  0  0  0  0  0  0  0
   24.9605  -22.1103  -12.2400 N   0  0  0  0  0  0  0  0  0  0  0  0
   26.1822  -21.1478  -10.3462 C   0  0  0  0  0  0  0  0  0  0  0  0
   25.2826  -20.9824   -9.4312 O   0  0  0  0  0  0  0  0  0  0  0  0
   27.4933  -21.4420   -9.9430 N   0  0  0  0  0  0  0  0  0  0  0  0
   28.3692  -22.4289  -10.6098 C   0  0  0  0  0  0  0  0  0  0  0  0
   29.7530  -21.7561  -10.5646 C   0  0  0  0  0  0  0  0  0  0  0  0
   29.5114  -20.4499   -9.7920 C   0  0  0  0  0  0  0  0  0  0  0  0
   28.3557  -20.9712   -8.9025 C   0  0  1  0  0  0  0  0  0  0  0  0
   27.9257  -20.0299   -7.9268 C   0  0  0  0  0  0  0  0  0  0  0  0
   27.1504  -19.0333   -8.0334 O   0  0  0  0  0  0  0  0  0  0  0  0
   28.4393  -20.2138   -6.5769 N   0  0  0  0  0  0  0  0  0  0  0  0
   29.2927  -21.2689   -6.0823 C   0  0  0  0  0  0  0  0  0  0  0  0
   28.8660  -21.4988   -4.6413 C   0  0  0  0  0  0  0  0  0  0  0  0
   27.9270  -20.3634   -4.3181 C   0  0  0  0  0  0  0  0  0  0  0  0
   28.1978  -19.3682   -5.4189 C   0  0  1  0  0  0  0  0  0  0  0  0
   29.4052  -18.5907   -5.0535 C   0  0  0  0  0  0  0  0  0  0  0  0
   29.3127  -17.6213   -4.2648 O   0  0  0  0  0  0  0  0  0  0  0  0
   30.6634  -18.8908   -5.5534 O   0  0  0  0  0  0  0  0  0  0  0  0
  2  1  1  0
  3  2  2  0
  4  5  1  0
  4  2  1  0
  5  6  1  1
  7  9  1  0
  7  5  1  0
  8  7  2  0
  9 13  1  0
 10 11  1  0
 10  9  1  0
 11 12  1  0
 12 13  1  0
 13 14  1  6
 14 16  1  0
 15 14  2  0
 16 20  1  0
 16 17  1  0
 17 18  1  0
 19 18  1  0
 20 19  1  0
 21 23  1  0
 20 21  1  1
 22 21  2  0
M  END
$$$$
