HDV.pdb
     RDKit          3D

 26 26  0  0  1  0  0  0  0  0999 V2000
   16.9999  -11.9039  -16.8232 N   0  0  0  0  0  0  0  0  0  0  0  0
   16.9247  -10.4352  -16.8802 C   0  0  1  0  0  0  0  0  0  0  0  0
   15.9360  -10.0191  -15.8435 C   0  0  0  0  0  0  0  0  0  0  0  0
   14.5632  -10.2056  -16.4000 C   0  0  0  0  0  0  0  0  0  0  0  0
   13.9251   -9.5266  -17.4149 C   0  0  0  0  0  0  0  0  0  0  0  0
   12.6840  -10.0052  -17.6078 N   0  0  0  0  0  0  0  0  0  0  0  0
   12.5254  -10.9940  -16.7141 C   0  0  0  0  0  0  0  0  0  0  0  0
   13.6443  -11.1271  -15.9813 N   0  0  0  0  0  0  0  0  0  0  0  0
   18.2708   -9.8574  -16.6612 C   0  0  0  0  0  0  0  0  0  0  0  0
   19.0642  -10.4236  -15.8749 O   0  0  0  0  0  0  0  0  0  0  0  0
   18.6996   -8.6755  -17.3147 N   0  0  0  0  0  0  0  0  0  0  0  0
   20.0418   -8.1449  -17.1845 C   0  0  1  0  0  0  0  0  0  0  0  0
   20.5699   -7.6242  -18.4905 C   0  0  0  0  0  0  0  0  0  0  0  0
   21.9593   -7.1531  -18.2536 C   0  0  0  0  0  0  0  0  0  0  0  0
   22.1618   -5.9128  -18.2676 O   0  0  0  0  0  0  0  0  0  0  0  0
   20.1186   -7.1970  -16.0769 C   0  0  0  0  0  0  0  0  0  0  0  0
   19.1747   -6.3834  -15.9022 O   0  0  0  0  0  0  0  0  0  0  0  0
   23.0353   -7.9959  -18.0201 O   0  0  0  0  0  0  0  0  0  0  0  0
   22.4994   -8.0257  -12.7994 C   0  0  0  0  0  0  0  0  0  0  0  0
   21.2451   -7.1960  -12.7650 C   0  0  1  0  0  0  0  0  0  0  0  0
   21.0982   -6.4181  -11.4844 C   0  0  0  0  0  0  0  0  0  0  0  0
   21.1380   -6.2954  -13.9865 C   0  0  2  0  0  0  0  0  0  0  0  0
   21.2094   -7.1274  -15.1624 N   0  0  0  0  0  0  0  0  0  0  0  0
   22.1691   -5.2343  -13.9846 C   0  0  0  0  0  0  0  0  0  0  0  0
   23.1946   -5.3646  -14.7027 O   0  0  0  0  0  0  0  0  0  0  0  0
   22.0906   -4.0725  -13.2306 O   0  0  0  0  0  0  0  0  0  0  0  0
  2  1  1  1
  2  3  1  0
  4  8  1  0
  4  3  1  0
  5  4  2  0
  6  5  1  0
  6  7  1  0
  7  8  2  0
  9  2  1  0
  9 11  1  0
 10  9  2  0
 12 11  1  0
 12 13  1  6
 14 13  1  0
 14 15  2  0
 16 12  1  0
 16 17  2  0
 18 14  1  0
 20 19  1  1
 20 21  1  0
 20 22  1  0
 22 23  1  6
 22 24  1  0
 23 16  1  0
 24 25  2  0
 24 26  1  0
M  END
$$$$
