HDV.pdb
     RDKit          3D

 26 26  0  0  1  0  0  0  0  0999 V2000
   16.3463  -14.3554  -16.4005 N   0  0  0  0  0  0  0  0  0  0  0  0
   16.1501  -12.9218  -16.1320 C   0  0  1  0  0  0  0  0  0  0  0  0
   15.6614  -12.8149  -14.7266 C   0  0  0  0  0  0  0  0  0  0  0  0
   14.2384  -13.2646  -14.6872 C   0  0  0  0  0  0  0  0  0  0  0  0
   13.2431  -12.9580  -13.7850 C   0  0  0  0  0  0  0  0  0  0  0  0
   12.0941  -13.5764  -14.1078 N   0  0  0  0  0  0  0  0  0  0  0  0
   12.3530  -14.2816  -15.2200 C   0  0  0  0  0  0  0  0  0  0  0  0
   13.6357  -14.1053  -15.5809 N   0  0  0  0  0  0  0  0  0  0  0  0
   17.4189  -12.1927  -16.3607 C   0  0  0  0  0  0  0  0  0  0  0  0
   18.5081  -12.7568  -16.1081 O   0  0  0  0  0  0  0  0  0  0  0  0
   17.4475  -10.8668  -16.8597 N   0  0  0  0  0  0  0  0  0  0  0  0
   18.6745  -10.1877  -17.2246 C   0  0  1  0  0  0  0  0  0  0  0  0
   18.5066   -9.3462  -18.4572 C   0  0  0  0  0  0  0  0  0  0  0  0
   19.8361   -8.7709  -18.7887 C   0  0  0  0  0  0  0  0  0  0  0  0
   20.8012   -9.5678  -18.9030 O   0  0  0  0  0  0  0  0  0  0  0  0
   19.2351   -9.4797  -16.0775 C   0  0  0  0  0  0  0  0  0  0  0  0
   18.4544   -8.9830  -15.2247 O   0  0  0  0  0  0  0  0  0  0  0  0
   20.0707   -7.4173  -18.9774 O   0  0  0  0  0  0  0  0  0  0  0  0
   21.8129  -10.9114  -13.7556 C   0  0  0  0  0  0  0  0  0  0  0  0
   22.2645   -9.5204  -14.1077 C   0  0  1  0  0  0  0  0  0  0  0  0
   23.4469   -9.5121  -15.0396 C   0  0  0  0  0  0  0  0  0  0  0  0
   21.1162   -8.6808  -14.6473 C   0  0  2  0  0  0  0  0  0  0  0  0
   20.6318   -9.3084  -15.8522 N   0  0  0  0  0  0  0  0  0  0  0  0
   21.5148   -7.2731  -14.8673 C   0  0  0  0  0  0  0  0  0  0  0  0
   21.7123   -6.8603  -16.0399 O   0  0  0  0  0  0  0  0  0  0  0  0
   21.6927   -6.3454  -13.8514 O   0  0  0  0  0  0  0  0  0  0  0  0
  2  1  1  1
  2  3  1  0
  4  8  1  0
  4  3  1  0
  5  4  2  0
  6  5  1  0
  6  7  1  0
  7  8  2  0
  9  2  1  0
  9 11  1  0
 10  9  2  0
 12 11  1  0
 12 13  1  6
 14 13  1  0
 14 15  2  0
 16 12  1  0
 16 17  2  0
 18 14  1  0
 20 19  1  6
 20 21  1  0
 20 22  1  0
 22 23  1  6
 22 24  1  0
 23 16  1  0
 24 25  2  0
 24 26  1  0
M  END
$$$$
