HDV.pdb
     RDKit          3D

 26 26  0  0  1  0  0  0  0  0999 V2000
   26.3240  -20.7003  -16.7149 N   0  0  0  0  0  0  0  0  0  0  0  0
   27.1049  -20.7574  -15.4688 C   0  0  1  0  0  0  0  0  0  0  0  0
   28.3428  -19.9593  -15.7054 C   0  0  0  0  0  0  0  0  0  0  0  0
   29.1417  -20.6337  -16.7712 C   0  0  0  0  0  0  0  0  0  0  0  0
   29.7216  -21.8834  -16.7786 C   0  0  0  0  0  0  0  0  0  0  0  0
   30.3607  -22.1104  -17.9391 N   0  0  0  0  0  0  0  0  0  0  0  0
   30.1904  -21.0030  -18.6782 C   0  0  0  0  0  0  0  0  0  0  0  0
   29.4609  -20.1069  -17.9916 N   0  0  0  0  0  0  0  0  0  0  0  0
   26.2899  -20.2420  -14.3447 C   0  0  0  0  0  0  0  0  0  0  0  0
   25.9576  -19.0346  -14.3270 O   0  0  0  0  0  0  0  0  0  0  0  0
   25.8673  -21.0720  -13.2769 N   0  0  0  0  0  0  0  0  0  0  0  0
   24.9390  -20.6313  -12.2551 C   0  0  1  0  0  0  0  0  0  0  0  0
   23.5106  -20.8753  -12.6498 C   0  0  0  0  0  0  0  0  0  0  0  0
   22.6499  -20.3360  -11.5650 C   0  0  0  0  0  0  0  0  0  0  0  0
   23.1619  -19.4984  -10.7802 O   0  0  0  0  0  0  0  0  0  0  0  0
   25.3097  -21.1724  -10.9508 C   0  0  0  0  0  0  0  0  0  0  0  0
   25.3597  -22.4205  -10.7987 O   0  0  0  0  0  0  0  0  0  0  0  0
   21.3263  -20.7007  -11.3708 O   0  0  0  0  0  0  0  0  0  0  0  0
   28.2757  -20.2243   -8.6618 C   0  0  0  0  0  0  0  0  0  0  0  0
   27.0025  -20.1785   -7.8620 C   0  0  1  0  0  0  0  0  0  0  0  0
   26.5672  -18.7730   -7.5430 C   0  0  0  0  0  0  0  0  0  0  0  0
   25.8926  -20.9732   -8.5337 C   0  0  2  0  0  0  0  0  0  0  0  0
   25.6246  -20.3699   -9.8160 N   0  0  0  0  0  0  0  0  0  0  0  0
   24.6818  -21.0579   -7.6876 C   0  0  0  0  0  0  0  0  0  0  0  0
   23.6294  -20.4703   -8.0502 O   0  0  0  0  0  0  0  0  0  0  0  0
   24.6145  -21.7557   -6.4906 O   0  0  0  0  0  0  0  0  0  0  0  0
  2  1  1  6
  2  3  1  0
  4  8  1  0
  4  3  1  0
  5  4  2  0
  6  5  1  0
  6  7  1  0
  7  8  2  0
  9  2  1  0
  9 11  1  0
 10  9  2  0
 12 11  1  0
 12 13  1  6
 14 13  1  0
 14 15  2  0
 16 12  1  0
 16 17  2  0
 18 14  1  0
 20 19  1  6
 20 21  1  0
 20 22  1  0
 22 23  1  6
 22 24  1  0
 23 16  1  0
 24 25  2  0
 24 26  1  0
M  END
$$$$
