HDV.pdb
     RDKit          3D

 26 26  0  0  1  0  0  0  0  0999 V2000
   26.5461  -20.5757  -17.5521 N   0  0  0  0  0  0  0  0  0  0  0  0
   27.2174  -21.7683  -18.0931 C   0  0  1  0  0  0  0  0  0  0  0  0
   28.6556  -21.6563  -17.7132 C   0  0  0  0  0  0  0  0  0  0  0  0
   29.2439  -20.4889  -18.4344 C   0  0  0  0  0  0  0  0  0  0  0  0
   29.6018  -20.3618  -19.7587 C   0  0  0  0  0  0  0  0  0  0  0  0
   30.1014  -19.1389  -20.0068 N   0  0  0  0  0  0  0  0  0  0  0  0
   30.0638  -18.4796  -18.8383 C   0  0  0  0  0  0  0  0  0  0  0  0
   29.5518  -19.2760  -17.8842 N   0  0  0  0  0  0  0  0  0  0  0  0
   26.5714  -22.9900  -17.5603 C   0  0  0  0  0  0  0  0  0  0  0  0
   26.0481  -22.9644  -16.4228 O   0  0  0  0  0  0  0  0  0  0  0  0
   26.5224  -24.1996  -18.2966 N   0  0  0  0  0  0  0  0  0  0  0  0
   25.8882  -25.4025  -17.7960 C   0  0  1  0  0  0  0  0  0  0  0  0
   24.4042  -25.3939  -18.0270 C   0  0  0  0  0  0  0  0  0  0  0  0
   23.8212  -26.4984  -17.2216 C   0  0  0  0  0  0  0  0  0  0  0  0
   24.4426  -27.5906  -17.1988 O   0  0  0  0  0  0  0  0  0  0  0  0
   26.5730  -26.5932  -18.2908 C   0  0  0  0  0  0  0  0  0  0  0  0
   27.3006  -26.4991  -19.3132 O   0  0  0  0  0  0  0  0  0  0  0  0
   22.6416  -26.3940  -16.5003 O   0  0  0  0  0  0  0  0  0  0  0  0
   28.3116  -29.2036  -15.9671 C   0  0  0  0  0  0  0  0  0  0  0  0
   28.5311  -29.0881  -17.4508 C   0  0  1  0  0  0  0  0  0  0  0  0
   29.4141  -30.1799  -17.9939 C   0  0  0  0  0  0  0  0  0  0  0  0
   27.2127  -29.0026  -18.2050 C   0  0  2  0  0  0  0  0  0  0  0  0
   26.4727  -27.8791  -17.6850 N   0  0  0  0  0  0  0  0  0  0  0  0
   26.4465  -30.2659  -18.1267 C   0  0  0  0  0  0  0  0  0  0  0  0
   25.4834  -30.3583  -17.3215 O   0  0  0  0  0  0  0  0  0  0  0  0
   26.7151  -31.3894  -18.8947 O   0  0  0  0  0  0  0  0  0  0  0  0
  2  1  1  1
  2  3  1  0
  4  8  1  0
  4  3  1  0
  5  4  2  0
  6  5  1  0
  6  7  1  0
  7  8  2  0
  9  2  1  0
  9 11  1  0
 10  9  2  0
 12 11  1  0
 12 13  1  6
 14 13  1  0
 14 15  2  0
 16 12  1  0
 16 17  2  0
 18 14  1  0
 20 19  1  1
 20 21  1  0
 20 22  1  0
 22 23  1  1
 22 24  1  0
 23 16  1  0
 24 25  2  0
 24 26  1  0
M  END
$$$$
