HDV.pdb
     RDKit          3D

 26 26  0  0  1  0  0  0  0  0999 V2000
   16.4321  -22.2096    1.0746 N   0  0  0  0  0  0  0  0  0  0  0  0
   15.2232  -21.4299    0.7640 C   0  0  1  0  0  0  0  0  0  0  0  0
   14.1159  -22.4138    0.5874 C   0  0  0  0  0  0  0  0  0  0  0  0
   14.4746  -23.3304   -0.5350 C   0  0  0  0  0  0  0  0  0  0  0  0
   14.4774  -24.7075   -0.5803 C   0  0  0  0  0  0  0  0  0  0  0  0
   14.8708  -25.1484   -1.7876 N   0  0  0  0  0  0  0  0  0  0  0  0
   15.1212  -24.0511   -2.5189 C   0  0  0  0  0  0  0  0  0  0  0  0
   14.8883  -22.9516   -1.7817 N   0  0  0  0  0  0  0  0  0  0  0  0
   14.9645  -20.4560    1.8495 C   0  0  0  0  0  0  0  0  0  0  0  0
   13.9374  -19.7408    1.8041 O   0  0  0  0  0  0  0  0  0  0  0  0
   15.8444  -20.3010    2.9492 N   0  0  0  0  0  0  0  0  0  0  0  0
   15.5963  -19.3716    4.0330 C   0  0  1  0  0  0  0  0  0  0  0  0
   15.3999  -20.0764    5.3446 C   0  0  0  0  0  0  0  0  0  0  0  0
   15.1871  -19.0349    6.3830 C   0  0  0  0  0  0  0  0  0  0  0  0
   14.3319  -18.1450    6.1456 O   0  0  0  0  0  0  0  0  0  0  0  0
   16.6080  -18.3192    4.0544 C   0  0  0  0  0  0  0  0  0  0  0  0
   17.8242  -18.6398    4.0149 O   0  0  0  0  0  0  0  0  0  0  0  0
   15.8717  -18.9889    7.5879 O   0  0  0  0  0  0  0  0  0  0  0  0
   18.3813  -14.0253    2.9980 C   0  0  0  0  0  0  0  0  0  0  0  0
   17.4638  -15.2134    2.9019 C   0  0  1  0  0  0  0  0  0  0  0  0
   17.8344  -16.1441    1.7780 C   0  0  0  0  0  0  0  0  0  0  0  0
   17.3605  -15.9476    4.2304 C   0  0  2  0  0  0  0  0  0  0  0  0
   16.3082  -16.9275    4.1184 N   0  0  0  0  0  0  0  0  0  0  0  0
   17.1462  -15.0186    5.3618 C   0  0  0  0  0  0  0  0  0  0  0  0
   18.0187  -14.1503    5.6251 O   0  0  0  0  0  0  0  0  0  0  0  0
   16.0252  -15.0305    6.1787 O   0  0  0  0  0  0  0  0  0  0  0  0
  2  1  1  1
  2  3  1  0
  4  8  1  0
  4  3  1  0
  5  4  2  0
  6  5  1  0
  6  7  1  0
  7  8  2  0
  9  2  1  0
  9 11  1  0
 10  9  2  0
 12 11  1  0
 12 13  1  1
 14 13  1  0
 14 15  2  0
 16 12  1  0
 16 17  2  0
 18 14  1  0
 20 19  1  1
 20 21  1  0
 20 22  1  0
 22 23  1  6
 22 24  1  0
 23 16  1  0
 24 25  2  0
 24 26  1  0
M  END
$$$$
