EEE.pdb
     RDKit          3D

 28 27  0  0  1  0  0  0  0  0999 V2000
   14.4671  -13.6068   18.5955 N   0  0  0  0  0  0  0  0  0  0  0  0
   13.6754  -14.5918   17.9456 C   0  0  1  0  0  0  0  0  0  0  0  0
   14.3807  -15.5323   17.0262 C   0  0  0  0  0  0  0  0  0  0  0  0
   15.3998  -16.4038   17.6570 C   0  0  0  0  0  0  0  0  0  0  0  0
   16.1565  -17.2426   16.7176 C   0  0  0  0  0  0  0  0  0  0  0  0
   17.0107  -18.0380   17.1965 O   0  0  0  0  0  0  0  0  0  0  0  0
   12.8861  -15.3667   18.9294 C   0  0  0  0  0  0  0  0  0  0  0  0
   13.3205  -15.6282   20.0911 O   0  0  0  0  0  0  0  0  0  0  0  0
   15.9962  -17.2145   15.3524 O   0  0  0  0  0  0  0  0  0  0  0  0
   11.6165  -15.8437   18.6105 N   0  0  0  0  0  0  0  0  0  0  0  0
   10.7302  -16.4715   19.5975 C   0  0  1  0  0  0  0  0  0  0  0  0
    9.3653  -16.6687   19.0735 C   0  0  0  0  0  0  0  0  0  0  0  0
    8.5015  -17.3967   20.0697 C   0  0  0  0  0  0  0  0  0  0  0  0
    7.1148  -17.5375   19.5603 C   0  0  0  0  0  0  0  0  0  0  0  0
    6.1306  -17.1350   20.2097 O   0  0  0  0  0  0  0  0  0  0  0  0
   11.4449  -17.7008   20.0149 C   0  0  0  0  0  0  0  0  0  0  0  0
   12.0364  -18.4739   19.2221 O   0  0  0  0  0  0  0  0  0  0  0  0
    6.8531  -18.1366   18.3132 O   0  0  0  0  0  0  0  0  0  0  0  0
   11.5083  -18.0921   21.3726 N   0  0  0  0  0  0  0  0  0  0  0  0
   12.1005  -19.3472   21.8097 C   0  0  1  0  0  0  0  0  0  0  0  0
   13.5811  -19.3476   21.7140 C   0  0  0  0  0  0  0  0  0  0  0  0
   14.1781  -18.4776   22.7833 C   0  0  0  0  0  0  0  0  0  0  0  0
   15.6770  -18.6057   22.7474 C   0  0  0  0  0  0  0  0  0  0  0  0
   16.2172  -19.4084   21.9343 O   0  0  0  0  0  0  0  0  0  0  0  0
   11.7115  -19.5466   23.2225 C   0  0  0  0  0  0  0  0  0  0  0  0
   11.9851  -20.5288   23.9428 O   0  0  0  0  0  0  0  0  0  0  0  0
   16.5107  -17.8734   23.5796 O   0  0  0  0  0  0  0  0  0  0  0  0
   10.9480  -18.5161   23.8263 O   0  0  0  0  0  0  0  0  0  0  0  0
  2  1  1  1
  2  7  1  0
  2  3  1  0
  3  4  1  0
  4  5  1  0
  5  6  2  0
  7  8  2  0
  9  5  1  0
 10 11  1  0
 10  7  1  0
 12 13  1  0
 11 12  1  6
 13 14  1  0
 14 15  2  0
 14 18  1  0
 16 17  2  0
 16 11  1  0
 19 16  1  0
 20 19  1  0
 20 25  1  0
 20 21  1  1
 22 21  1  0
 23 22  1  0
 24 23  2  0
 25 28  1  0
 26 25  2  0
 27 23  1  0
M  END
$$$$
