EEE.pdb
     RDKit          3D

 28 27  0  0  1  0  0  0  0  0999 V2000
   15.6890  -13.1197   16.1893 N   0  0  0  0  0  0  0  0  0  0  0  0
   15.0355  -14.3230   16.5691 C   0  0  1  0  0  0  0  0  0  0  0  0
   15.8374  -15.5801   16.5082 C   0  0  0  0  0  0  0  0  0  0  0  0
   17.0642  -15.6003   17.3391 C   0  0  0  0  0  0  0  0  0  0  0  0
   17.8281  -16.8537   17.2755 C   0  0  0  0  0  0  0  0  0  0  0  0
   17.1940  -17.9168   17.0316 O   0  0  0  0  0  0  0  0  0  0  0  0
   14.4297  -14.1920   17.9135 C   0  0  0  0  0  0  0  0  0  0  0  0
   14.9241  -13.4435   18.8091 O   0  0  0  0  0  0  0  0  0  0  0  0
   19.1866  -16.9432   17.4672 O   0  0  0  0  0  0  0  0  0  0  0  0
   13.2754  -14.8964   18.2490 N   0  0  0  0  0  0  0  0  0  0  0  0
   12.6023  -14.7516   19.5451 C   0  0  1  0  0  0  0  0  0  0  0  0
   11.1380  -14.8887   19.4297 C   0  0  0  0  0  0  0  0  0  0  0  0
   10.5914  -13.9853   18.3556 C   0  0  0  0  0  0  0  0  0  0  0  0
    9.1165  -14.1172   18.2571 C   0  0  0  0  0  0  0  0  0  0  0  0
    8.4491  -13.4537   17.4406 O   0  0  0  0  0  0  0  0  0  0  0  0
   13.2746  -15.7334   20.4284 C   0  0  0  0  0  0  0  0  0  0  0  0
   13.4739  -16.9343   20.1218 O   0  0  0  0  0  0  0  0  0  0  0  0
    8.4062  -15.0038   19.0889 O   0  0  0  0  0  0  0  0  0  0  0  0
   13.7487  -15.3688   21.7102 N   0  0  0  0  0  0  0  0  0  0  0  0
   14.4414  -16.2952   22.5929 C   0  0  1  0  0  0  0  0  0  0  0  0
   15.7363  -15.7616   23.0830 C   0  0  0  0  0  0  0  0  0  0  0  0
   16.6956  -15.5768   21.9419 C   0  0  0  0  0  0  0  0  0  0  0  0
   17.9966  -15.0361   22.4703 C   0  0  0  0  0  0  0  0  0  0  0  0
   18.0038  -13.9606   23.1341 O   0  0  0  0  0  0  0  0  0  0  0  0
   13.5557  -16.5421   23.7511 C   0  0  0  0  0  0  0  0  0  0  0  0
   12.4662  -15.9828   23.9930 O   0  0  0  0  0  0  0  0  0  0  0  0
   19.2116  -15.6711   22.2596 O   0  0  0  0  0  0  0  0  0  0  0  0
   13.9851  -17.5160   24.6874 O   0  0  0  0  0  0  0  0  0  0  0  0
  2  1  1  1
  2  7  1  0
  2  3  1  0
  3  4  1  0
  4  5  1  0
  5  6  2  0
  7  8  2  0
  9  5  1  0
 10 11  1  0
 10  7  1  0
 12 13  1  0
 11 12  1  6
 13 14  1  0
 14 15  2  0
 14 18  1  0
 16 17  2  0
 16 11  1  0
 19 16  1  0
 20 19  1  0
 20 25  1  0
 20 21  1  1
 22 21  1  0
 23 22  1  0
 24 23  2  0
 25 28  1  0
 26 25  2  0
 27 23  1  0
M  END
$$$$
