EEE.pdb
     RDKit          3D

 28 27  0  0  1  0  0  0  0  0999 V2000
    8.5751  -21.6277   20.2586 N   0  0  0  0  0  0  0  0  0  0  0  0
    9.2201  -20.3756   20.4477 C   0  0  1  0  0  0  0  0  0  0  0  0
    8.8466  -19.2713   19.5158 C   0  0  0  0  0  0  0  0  0  0  0  0
    9.0273  -19.5594   18.0734 C   0  0  0  0  0  0  0  0  0  0  0  0
    8.7100  -18.4377   17.1791 C   0  0  0  0  0  0  0  0  0  0  0  0
    8.8205  -18.6272   15.9367 O   0  0  0  0  0  0  0  0  0  0  0  0
    9.0690  -19.9107   21.8450 C   0  0  0  0  0  0  0  0  0  0  0  0
    9.6472  -18.8694   22.2786 O   0  0  0  0  0  0  0  0  0  0  0  0
    8.3042  -17.1961   17.6081 O   0  0  0  0  0  0  0  0  0  0  0  0
    8.2726  -20.6106   22.7489 N   0  0  0  0  0  0  0  0  0  0  0  0
    8.0690  -20.1743   24.1352 C   0  0  1  0  0  0  0  0  0  0  0  0
    6.7725  -20.6255   24.6756 C   0  0  0  0  0  0  0  0  0  0  0  0
    5.8025  -20.9396   23.5670 C   0  0  0  0  0  0  0  0  0  0  0  0
    5.0096  -22.1521   23.8892 C   0  0  0  0  0  0  0  0  0  0  0  0
    4.0959  -22.5582   23.1460 O   0  0  0  0  0  0  0  0  0  0  0  0
    9.2709  -20.6517   24.8589 C   0  0  0  0  0  0  0  0  0  0  0  0
    9.8347  -21.7512   24.6372 O   0  0  0  0  0  0  0  0  0  0  0  0
    5.2595  -22.8981   25.0570 O   0  0  0  0  0  0  0  0  0  0  0  0
    9.8770  -19.8759   25.8744 N   0  0  0  0  0  0  0  0  0  0  0  0
   11.1573  -20.2169   26.4757 C   0  0  1  0  0  0  0  0  0  0  0  0
   12.3021  -19.5550   25.8026 C   0  0  0  0  0  0  0  0  0  0  0  0
   13.5979  -19.9647   26.4427 C   0  0  0  0  0  0  0  0  0  0  0  0
   14.7327  -19.6656   25.5008 C   0  0  0  0  0  0  0  0  0  0  0  0
   14.7952  -18.5374   24.9347 O   0  0  0  0  0  0  0  0  0  0  0  0
   11.1104  -19.7753   27.8863 C   0  0  0  0  0  0  0  0  0  0  0  0
   11.9269  -20.0587   28.7870 O   0  0  0  0  0  0  0  0  0  0  0  0
   15.7316  -20.5850   25.2170 O   0  0  0  0  0  0  0  0  0  0  0  0
   10.0259  -18.9419   28.2589 O   0  0  0  0  0  0  0  0  0  0  0  0
  2  1  1  1
  2  7  1  0
  2  3  1  0
  3  4  1  0
  4  5  1  0
  5  6  2  0
  7  8  2  0
  9  5  1  0
 10 11  1  0
 10  7  1  0
 12 13  1  0
 11 12  1  1
 13 14  1  0
 14 15  2  0
 14 18  1  0
 16 17  2  0
 16 11  1  0
 19 16  1  0
 20 19  1  0
 20 25  1  0
 20 21  1  6
 22 21  1  0
 23 22  1  0
 24 23  2  0
 25 28  1  0
 26 25  2  0
 27 23  1  0
M  END
$$$$
