EEE.pdb
     RDKit          3D

 28 27  0  0  1  0  0  0  0  0999 V2000
   12.2638  -14.5913   17.5247 N   0  0  0  0  0  0  0  0  0  0  0  0
   13.3443  -15.4728   17.2507 C   0  0  1  0  0  0  0  0  0  0  0  0
   14.5638  -14.8797   16.6275 C   0  0  0  0  0  0  0  0  0  0  0  0
   15.2078  -13.7852   17.3912 C   0  0  0  0  0  0  0  0  0  0  0  0
   16.4002  -13.2108   16.7534 C   0  0  0  0  0  0  0  0  0  0  0  0
   17.0375  -12.3259   17.3878 O   0  0  0  0  0  0  0  0  0  0  0  0
   13.7307  -16.2261   18.4650 C   0  0  0  0  0  0  0  0  0  0  0  0
   13.1460  -16.0631   19.5779 O   0  0  0  0  0  0  0  0  0  0  0  0
   16.8638  -13.5725   15.5106 O   0  0  0  0  0  0  0  0  0  0  0  0
   14.7664  -17.1573   18.4291 N   0  0  0  0  0  0  0  0  0  0  0  0
   15.0473  -18.0795   19.5356 C   0  0  1  0  0  0  0  0  0  0  0  0
   15.9433  -19.1789   19.1295 C   0  0  0  0  0  0  0  0  0  0  0  0
   16.1666  -20.1440   20.2640 C   0  0  0  0  0  0  0  0  0  0  0  0
   17.1300  -21.2028   19.8726 C   0  0  0  0  0  0  0  0  0  0  0  0
   18.3616  -21.0176   19.9064 O   0  0  0  0  0  0  0  0  0  0  0  0
   15.5449  -17.2123   20.6294 C   0  0  0  0  0  0  0  0  0  0  0  0
   16.3310  -16.2482   20.4601 O   0  0  0  0  0  0  0  0  0  0  0  0
   16.6880  -22.4689   19.4434 O   0  0  0  0  0  0  0  0  0  0  0  0
   15.1538  -17.4214   21.9724 N   0  0  0  0  0  0  0  0  0  0  0  0
   15.4312  -16.4691   23.0370 C   0  0  1  0  0  0  0  0  0  0  0  0
   14.4446  -16.5407   24.1429 C   0  0  0  0  0  0  0  0  0  0  0  0
   13.0624  -16.2424   23.6356 C   0  0  0  0  0  0  0  0  0  0  0  0
   12.0632  -16.5213   24.7257 C   0  0  0  0  0  0  0  0  0  0  0  0
   12.4420  -17.0813   25.7935 O   0  0  0  0  0  0  0  0  0  0  0  0
   16.7732  -16.7873   23.5708 C   0  0  0  0  0  0  0  0  0  0  0  0
   17.4138  -16.1366   24.4219 O   0  0  0  0  0  0  0  0  0  0  0  0
   10.7213  -16.1889   24.6135 O   0  0  0  0  0  0  0  0  0  0  0  0
   17.4014  -17.9534   23.0657 O   0  0  0  0  0  0  0  0  0  0  0  0
  2  1  1  1
  2  7  1  0
  2  3  1  0
  3  4  1  0
  4  5  1  0
  5  6  2  0
  7  8  2  0
  9  5  1  0
 10 11  1  0
 10  7  1  0
 12 13  1  0
 11 12  1  6
 13 14  1  0
 14 15  2  0
 14 18  1  0
 16 17  2  0
 16 11  1  0
 19 16  1  0
 20 19  1  0
 20 25  1  0
 20 21  1  1
 22 21  1  0
 23 22  1  0
 24 23  2  0
 25 28  1  0
 26 25  2  0
 27 23  1  0
M  END
$$$$
