EEE.pdb
     RDKit          3D

 28 27  0  0  1  0  0  0  0  0999 V2000
   12.3716  -17.7505   17.4973 N   0  0  0  0  0  0  0  0  0  0  0  0
   12.9162  -17.9850   18.7888 C   0  0  1  0  0  0  0  0  0  0  0  0
   14.3067  -17.5037   19.0375 C   0  0  0  0  0  0  0  0  0  0  0  0
   15.3575  -18.1069   18.1841 C   0  0  0  0  0  0  0  0  0  0  0  0
   16.7104  -17.5816   18.4128 C   0  0  0  0  0  0  0  0  0  0  0  0
   17.3308  -17.1045   17.4233 O   0  0  0  0  0  0  0  0  0  0  0  0
   12.0191  -17.4592   19.8424 C   0  0  0  0  0  0  0  0  0  0  0  0
   11.5981  -16.2636   19.8388 O   0  0  0  0  0  0  0  0  0  0  0  0
   17.3441  -17.5792   19.6329 O   0  0  0  0  0  0  0  0  0  0  0  0
   11.5968  -18.2717   20.8925 N   0  0  0  0  0  0  0  0  0  0  0  0
   10.5437  -17.8736   21.8340 C   0  0  1  0  0  0  0  0  0  0  0  0
    9.5634  -18.9525   22.0606 C   0  0  0  0  0  0  0  0  0  0  0  0
   10.2176  -20.1582   22.6823 C   0  0  0  0  0  0  0  0  0  0  0  0
    9.2271  -21.2420   22.8980 C   0  0  0  0  0  0  0  0  0  0  0  0
    8.9846  -22.0961   22.0239 O   0  0  0  0  0  0  0  0  0  0  0  0
   11.2730  -17.4019   23.0347 C   0  0  0  0  0  0  0  0  0  0  0  0
   12.5104  -17.5320   23.2022 O   0  0  0  0  0  0  0  0  0  0  0  0
    8.5153  -21.3496   24.1081 O   0  0  0  0  0  0  0  0  0  0  0  0
   10.6018  -16.7559   24.0989 N   0  0  0  0  0  0  0  0  0  0  0  0
   11.2879  -16.2448   25.2759 C   0  0  1  0  0  0  0  0  0  0  0  0
   10.3850  -15.5020   26.1894 C   0  0  0  0  0  0  0  0  0  0  0  0
   11.1215  -15.0787   27.4284 C   0  0  0  0  0  0  0  0  0  0  0  0
   10.2015  -14.2663   28.2991 C   0  0  0  0  0  0  0  0  0  0  0  0
    8.9584  -14.4936   28.2791 O   0  0  0  0  0  0  0  0  0  0  0  0
   11.8472  -17.4086   25.9968 C   0  0  0  0  0  0  0  0  0  0  0  0
   12.9496  -17.4691   26.5795 O   0  0  0  0  0  0  0  0  0  0  0  0
   10.6590  -13.2604   29.1372 O   0  0  0  0  0  0  0  0  0  0  0  0
   11.0508  -18.5807   26.0328 O   0  0  0  0  0  0  0  0  0  0  0  0
  2  1  1  6
  2  7  1  0
  2  3  1  0
  3  4  1  0
  4  5  1  0
  5  6  2  0
  7  8  2  0
  9  5  1  0
 10 11  1  0
 10  7  1  0
 12 13  1  0
 11 12  1  1
 13 14  1  0
 14 15  2  0
 14 18  1  0
 16 17  2  0
 16 11  1  0
 19 16  1  0
 20 19  1  0
 20 25  1  0
 20 21  1  1
 22 21  1  0
 23 22  1  0
 24 23  2  0
 25 28  1  0
 26 25  2  0
 27 23  1  0
M  END
$$$$
