EEE.pdb
     RDKit          3D

 28 27  0  0  1  0  0  0  0  0999 V2000
   11.9612  -20.1970   16.6543 N   0  0  0  0  0  0  0  0  0  0  0  0
   12.5558  -18.9137   16.7925 C   0  0  1  0  0  0  0  0  0  0  0  0
   12.4737  -17.9967   15.6179 C   0  0  0  0  0  0  0  0  0  0  0  0
   11.1548  -17.9307   14.9456 C   0  0  0  0  0  0  0  0  0  0  0  0
   11.1722  -18.2963   13.5227 C   0  0  0  0  0  0  0  0  0  0  0  0
   10.3178  -19.1328   13.1202 O   0  0  0  0  0  0  0  0  0  0  0  0
   12.0388  -18.2200   17.9937 C   0  0  0  0  0  0  0  0  0  0  0  0
   12.4801  -17.0919   18.3670 O   0  0  0  0  0  0  0  0  0  0  0  0
   12.0600  -17.7888   12.6037 O   0  0  0  0  0  0  0  0  0  0  0  0
   11.0317  -18.7896   18.7700 N   0  0  0  0  0  0  0  0  0  0  0  0
   10.5310  -18.1719   20.0035 C   0  0  1  0  0  0  0  0  0  0  0  0
    9.1987  -18.6817   20.3796 C   0  0  0  0  0  0  0  0  0  0  0  0
    8.1531  -18.2542   19.3833 C   0  0  0  0  0  0  0  0  0  0  0  0
    6.8601  -18.9303   19.6543 C   0  0  0  0  0  0  0  0  0  0  0  0
    5.8212  -18.6384   19.0318 O   0  0  0  0  0  0  0  0  0  0  0  0
   11.6092  -18.3902   20.9965 C   0  0  0  0  0  0  0  0  0  0  0  0
   12.1093  -19.5120   21.2565 O   0  0  0  0  0  0  0  0  0  0  0  0
    6.7542  -19.9364   20.6337 O   0  0  0  0  0  0  0  0  0  0  0  0
   12.1596  -17.3171   21.7354 N   0  0  0  0  0  0  0  0  0  0  0  0
   13.2291  -17.4890   22.7069 C   0  0  1  0  0  0  0  0  0  0  0  0
   14.4441  -16.7079   22.3676 C   0  0  0  0  0  0  0  0  0  0  0  0
   15.5095  -16.9135   23.4064 C   0  0  0  0  0  0  0  0  0  0  0  0
   16.7520  -16.1703   22.9963 C   0  0  0  0  0  0  0  0  0  0  0  0
   16.9730  -15.0161   23.4615 O   0  0  0  0  0  0  0  0  0  0  0  0
   12.7122  -17.0277   24.0136 C   0  0  0  0  0  0  0  0  0  0  0  0
   11.6953  -16.3318   24.2129 O   0  0  0  0  0  0  0  0  0  0  0  0
   17.6836  -16.6990   22.1152 O   0  0  0  0  0  0  0  0  0  0  0  0
   13.4457  -17.4147   25.1632 O   0  0  0  0  0  0  0  0  0  0  0  0
  2  1  1  6
  2  7  1  0
  2  3  1  0
  3  4  1  0
  4  5  1  0
  5  6  2  0
  7  8  2  0
  9  5  1  0
 10 11  1  0
 10  7  1  0
 12 13  1  0
 11 12  1  1
 13 14  1  0
 14 15  2  0
 14 18  1  0
 16 17  2  0
 16 11  1  0
 19 16  1  0
 20 19  1  0
 20 25  1  0
 20 21  1  6
 22 21  1  0
 23 22  1  0
 24 23  2  0
 25 28  1  0
 26 25  2  0
 27 23  1  0
M  END
$$$$
