EEE.pdb
     RDKit          3D

 28 27  0  0  1  0  0  0  0  0999 V2000
   14.4106  -19.3931   17.5083 N   0  0  0  0  0  0  0  0  0  0  0  0
   15.3075  -18.5416   18.2083 C   0  0  1  0  0  0  0  0  0  0  0  0
   16.0378  -17.5172   17.4057 C   0  0  0  0  0  0  0  0  0  0  0  0
   15.6822  -17.4540   15.9685 C   0  0  0  0  0  0  0  0  0  0  0  0
   16.7572  -16.9713   15.0909 C   0  0  0  0  0  0  0  0  0  0  0  0
   16.9239  -17.5597   13.9875 O   0  0  0  0  0  0  0  0  0  0  0  0
   14.6277  -17.8810   19.3454 C   0  0  0  0  0  0  0  0  0  0  0  0
   15.2188  -17.0491   20.0973 O   0  0  0  0  0  0  0  0  0  0  0  0
   17.5936  -15.9235   15.3954 O   0  0  0  0  0  0  0  0  0  0  0  0
   13.2922  -18.1525   19.6352 N   0  0  0  0  0  0  0  0  0  0  0  0
   12.5451  -17.4470   20.6831 C   0  0  1  0  0  0  0  0  0  0  0  0
   11.0970  -17.7200   20.6133 C   0  0  0  0  0  0  0  0  0  0  0  0
   10.3618  -17.0396   21.7380 C   0  0  0  0  0  0  0  0  0  0  0  0
    8.9010  -17.2789   21.6328 C   0  0  0  0  0  0  0  0  0  0  0  0
    8.4181  -18.0348   20.7682 O   0  0  0  0  0  0  0  0  0  0  0  0
   13.2146  -17.8353   21.9468 C   0  0  0  0  0  0  0  0  0  0  0  0
   13.5390  -19.0126   22.2380 O   0  0  0  0  0  0  0  0  0  0  0  0
    7.9946  -16.6563   22.5123 O   0  0  0  0  0  0  0  0  0  0  0  0
   13.5407  -16.8759   22.9336 N   0  0  0  0  0  0  0  0  0  0  0  0
   14.1336  -17.2263   24.2154 C   0  0  1  0  0  0  0  0  0  0  0  0
   15.4166  -16.5242   24.4657 C   0  0  0  0  0  0  0  0  0  0  0  0
   16.5609  -17.2873   23.8617 C   0  0  0  0  0  0  0  0  0  0  0  0
   17.8420  -16.5372   24.1079 C   0  0  0  0  0  0  0  0  0  0  0  0
   17.8142  -15.4399   24.7344 O   0  0  0  0  0  0  0  0  0  0  0  0
   13.1651  -16.8432   25.2654 C   0  0  0  0  0  0  0  0  0  0  0  0
   12.0810  -16.2462   25.1021 O   0  0  0  0  0  0  0  0  0  0  0  0
   19.0751  -16.9988   23.6716 O   0  0  0  0  0  0  0  0  0  0  0  0
   13.4989  -17.1891   26.5990 O   0  0  0  0  0  0  0  0  0  0  0  0
  2  1  1  6
  2  7  1  0
  2  3  1  0
  3  4  1  0
  4  5  1  0
  5  6  2  0
  7  8  2  0
  9  5  1  0
 10 11  1  0
 10  7  1  0
 12 13  1  0
 11 12  1  1
 13 14  1  0
 14 15  2  0
 14 18  1  0
 16 17  2  0
 16 11  1  0
 19 16  1  0
 20 19  1  0
 20 25  1  0
 20 21  1  1
 22 21  1  0
 23 22  1  0
 24 23  2  0
 25 28  1  0
 26 25  2  0
 27 23  1  0
M  END
$$$$
