EEE.pdb
     RDKit          3D

 28 27  0  0  1  0  0  0  0  0999 V2000
    9.1718  -18.2459   18.1699 N   0  0  0  0  0  0  0  0  0  0  0  0
    9.3178  -16.8896   18.5684 C   0  0  1  0  0  0  0  0  0  0  0  0
    8.4916  -15.8771   17.8477 C   0  0  0  0  0  0  0  0  0  0  0  0
    7.4163  -16.4214   16.9856 C   0  0  0  0  0  0  0  0  0  0  0  0
    7.8758  -16.9637   15.6997 C   0  0  0  0  0  0  0  0  0  0  0  0
    8.9204  -16.4698   15.1932 O   0  0  0  0  0  0  0  0  0  0  0  0
    9.1108  -16.7438   20.0269 C   0  0  0  0  0  0  0  0  0  0  0  0
    9.1679  -15.6198   20.6101 O   0  0  0  0  0  0  0  0  0  0  0  0
    7.2403  -17.9708   15.0126 O   0  0  0  0  0  0  0  0  0  0  0  0
    8.8403  -17.8534   20.8248 N   0  0  0  0  0  0  0  0  0  0  0  0
    8.6131  -17.7579   22.2716 C   0  0  1  0  0  0  0  0  0  0  0  0
    7.4196  -18.5128   22.6982 C   0  0  0  0  0  0  0  0  0  0  0  0
    7.7973  -19.6666   23.5896 C   0  0  0  0  0  0  0  0  0  0  0  0
    6.6015  -20.4701   23.9458 C   0  0  0  0  0  0  0  0  0  0  0  0
    5.4876  -20.2573   23.4299 O   0  0  0  0  0  0  0  0  0  0  0  0
    9.8959  -18.1808   22.8813 C   0  0  0  0  0  0  0  0  0  0  0  0
   10.5266  -19.2136   22.5473 O   0  0  0  0  0  0  0  0  0  0  0  0
    6.6778  -21.5131   24.8887 O   0  0  0  0  0  0  0  0  0  0  0  0
   10.5092  -17.4252   23.9077 N   0  0  0  0  0  0  0  0  0  0  0  0
   11.7851  -17.7880   24.5057 C   0  0  1  0  0  0  0  0  0  0  0  0
   12.8463  -16.7837   24.2478 C   0  0  0  0  0  0  0  0  0  0  0  0
   13.3475  -16.8977   22.8363 C   0  0  0  0  0  0  0  0  0  0  0  0
   14.3983  -15.8475   22.5968 C   0  0  0  0  0  0  0  0  0  0  0  0
   14.6639  -15.4861   21.4152 O   0  0  0  0  0  0  0  0  0  0  0  0
   11.5704  -17.8944   25.9651 C   0  0  0  0  0  0  0  0  0  0  0  0
   10.5435  -17.5699   26.5963 O   0  0  0  0  0  0  0  0  0  0  0  0
   15.1041  -15.2463   23.6284 O   0  0  0  0  0  0  0  0  0  0  0  0
   12.6408  -18.4201   26.7314 O   0  0  0  0  0  0  0  0  0  0  0  0
  2  1  1  6
  2  7  1  0
  2  3  1  0
  3  4  1  0
  4  5  1  0
  5  6  2  0
  7  8  2  0
  9  5  1  0
 10 11  1  0
 10  7  1  0
 12 13  1  0
 11 12  1  1
 13 14  1  0
 14 15  2  0
 14 18  1  0
 16 17  2  0
 16 11  1  0
 19 16  1  0
 20 19  1  0
 20 25  1  0
 20 21  1  1
 22 21  1  0
 23 22  1  0
 24 23  2  0
 25 28  1  0
 26 25  2  0
 27 23  1  0
M  END
$$$$
