SLY.pdb
     RDKit          3D

 27 27  0  0  1  0  0  0  0  0999 V2000
    8.0549  -18.3226   22.6179 O   0  0  0  0  0  0  0  0  0  0  0  0
    8.1044  -18.1082   21.2407 C   0  0  0  0  0  0  0  0  0  0  0  0
    7.4182  -16.8267   20.8460 C   0  0  2  0  0  0  0  0  0  0  0  0
    7.5386  -16.5633   19.4238 N   0  0  0  0  0  0  0  0  0  0  0  0
    8.0022  -15.7165   21.6257 C   0  0  0  0  0  0  0  0  0  0  0  0
    8.9958  -15.0562   21.2252 O   0  0  0  0  0  0  0  0  0  0  0  0
    7.3058  -11.3576   25.0089 C   0  0  0  0  0  0  0  0  0  0  0  0
    6.9783  -12.7266   25.4953 C   0  0  1  0  0  0  0  0  0  0  0  0
    5.7807  -12.6913   26.4563 C   0  0  0  0  0  0  0  0  0  0  0  0
    6.8632  -13.8029   24.5033 C   0  0  0  0  0  0  0  0  0  0  0  0
    7.9971  -14.2188   23.6599 C   0  0  2  0  0  0  0  0  0  0  0  0
    7.4432  -15.3684   22.8625 N   0  0  0  0  0  0  0  0  0  0  0  0
    9.1972  -14.7658   24.2779 C   0  0  0  0  0  0  0  0  0  0  0  0
   10.0754  -14.0121   24.7496 O   0  0  0  0  0  0  0  0  0  0  0  0
   11.1457  -14.2878   31.0768 O   0  0  0  0  0  0  0  0  0  0  0  0
   10.8566  -15.0392   29.9298 C   0  0  0  0  0  0  0  0  0  0  0  0
   10.1576  -14.5000   28.8663 C   0  0  0  0  0  0  0  0  0  0  0  0
    9.8608  -15.2181   27.7272 C   0  0  0  0  0  0  0  0  0  0  0  0
   10.2742  -16.5278   27.6370 C   0  0  0  0  0  0  0  0  0  0  0  0
    9.9545  -17.2892   26.4222 C   0  0  0  0  0  0  0  0  0  0  0  0
   10.5530  -16.7143   25.1613 C   0  0  2  0  0  0  0  0  0  0  0  0
    9.4452  -16.1852   24.3837 N   0  0  0  0  0  0  0  0  0  0  0  0
   11.3256  -17.6722   24.3699 C   0  0  0  0  0  0  0  0  0  0  0  0
   10.9605  -17.9925   23.0700 O   0  0  0  0  0  0  0  0  0  0  0  0
   10.9708  -17.1060   28.6672 C   0  0  0  0  0  0  0  0  0  0  0  0
   11.2477  -16.3539   29.7896 C   0  0  0  0  0  0  0  0  0  0  0  0
   12.3450  -18.2368   24.8400 O   0  0  0  0  0  0  0  0  0  0  0  0
  2  1  1  0
  3  2  1  0
  3  4  1  6
  5  3  1  0
  6  5  2  0
  8  7  1  6
  8  9  1  0
 10  8  1  0
 11 10  1  1
 11 12  1  0
 12  5  1  0
 13 11  1  0
 14 13  2  0
 16 17  2  0
 16 15  1  0
 18 17  1  0
 19 18  2  0
 21 20  1  1
 20 19  1  0
 21 22  1  0
 22 13  1  0
 23 21  1  0
 23 24  1  0
 25 19  1  0
 25 26  2  0
 26 16  1  0
 27 23  2  0
M  END
$$$$
