SLY.pdb
     RDKit          3D

 27 27  0  0  1  0  0  0  0  0999 V2000
    8.6387  -18.4976   21.1620 O   0  0  0  0  0  0  0  0  0  0  0  0
    7.2975  -18.1395   21.0275 C   0  0  0  0  0  0  0  0  0  0  0  0
    7.1397  -16.7623   20.4380 C   0  0  2  0  0  0  0  0  0  0  0  0
    7.6842  -16.6821   19.0950 N   0  0  0  0  0  0  0  0  0  0  0  0
    7.8094  -15.7880   21.3232 C   0  0  0  0  0  0  0  0  0  0  0  0
    8.9301  -15.2842   21.0517 O   0  0  0  0  0  0  0  0  0  0  0  0
    6.3251  -13.0438   26.6963 C   0  0  0  0  0  0  0  0  0  0  0  0
    6.7084  -12.9606   25.2596 C   0  0  1  0  0  0  0  0  0  0  0  0
    7.9105  -12.0236   25.0699 C   0  0  0  0  0  0  0  0  0  0  0  0
    6.8580  -14.2147   24.5109 C   0  0  0  0  0  0  0  0  0  0  0  0
    7.8231  -14.3611   23.4077 C   0  0  2  0  0  0  0  0  0  0  0  0
    7.1897  -15.3954   22.5171 N   0  0  0  0  0  0  0  0  0  0  0  0
    9.1524  -14.8934   23.6741 C   0  0  0  0  0  0  0  0  0  0  0  0
   10.1735  -14.3037   23.2601 O   0  0  0  0  0  0  0  0  0  0  0  0
   11.8380  -15.9975   31.7211 O   0  0  0  0  0  0  0  0  0  0  0  0
   11.3928  -15.7530   30.4151 C   0  0  0  0  0  0  0  0  0  0  0  0
   11.5814  -16.6721   29.4002 C   0  0  0  0  0  0  0  0  0  0  0  0
   11.1529  -16.4552   28.1076 C   0  0  0  0  0  0  0  0  0  0  0  0
   10.5093  -15.2765   27.8066 C   0  0  0  0  0  0  0  0  0  0  0  0
   10.0559  -15.0494   26.4280 C   0  0  0  0  0  0  0  0  0  0  0  0
   10.3543  -16.1912   25.4869 C   0  0  2  0  0  0  0  0  0  0  0  0
    9.3724  -16.1119   24.4186 N   0  0  0  0  0  0  0  0  0  0  0  0
   10.3256  -17.5126   26.1146 C   0  0  0  0  0  0  0  0  0  0  0  0
   11.4970  -18.1678   26.4673 O   0  0  0  0  0  0  0  0  0  0  0  0
   10.2994  -14.3343   28.7808 C   0  0  0  0  0  0  0  0  0  0  0  0
   10.7433  -14.5892   30.0614 C   0  0  0  0  0  0  0  0  0  0  0  0
    9.2404  -18.0985   26.3555 O   0  0  0  0  0  0  0  0  0  0  0  0
  2  1  1  0
  3  2  1  0
  3  4  1  6
  5  3  1  0
  6  5  2  0
  8  7  1  1
  8  9  1  0
 10  8  1  0
 11 10  1  1
 11 12  1  0
 12  5  1  0
 13 11  1  0
 14 13  2  0
 16 17  2  0
 16 15  1  0
 18 17  1  0
 19 18  2  0
 21 20  1  1
 20 19  1  0
 21 22  1  0
 22 13  1  0
 23 21  1  0
 23 24  1  0
 25 19  1  0
 25 26  2  0
 26 16  1  0
 27 23  2  0
M  END
$$$$
