WTG.pdb
     RDKit          3D

 26 27  0  0  1  0  0  0  0  0999 V2000
    7.0314  -18.0826   24.5139 N   0  0  0  0  0  0  0  0  0  0  0  0
    7.4852  -16.9044   23.8008 C   0  0  1  0  0  0  0  0  0  0  0  0
    8.2787  -16.0198   24.7571 C   0  0  0  0  0  0  0  0  0  0  0  0
    7.3561  -15.1698   25.5568 C   0  0  0  0  0  0  0  0  0  0  0  0
    6.2876  -15.5986   26.3123 C   0  0  0  0  0  0  0  0  0  0  0  0
    5.7103  -14.5133   26.8796 N   0  0  0  0  0  0  0  0  0  0  0  0
    6.3711  -13.4097   26.5134 C   0  0  0  0  0  0  0  0  0  0  0  0
    6.2017  -12.0585   26.8045 C   0  0  0  0  0  0  0  0  0  0  0  0
    7.0465  -11.1214   26.2794 C   0  0  0  0  0  0  0  0  0  0  0  0
    8.0786  -11.5209   25.4513 C   0  0  0  0  0  0  0  0  0  0  0  0
    8.2607  -12.8579   25.1523 C   0  0  0  0  0  0  0  0  0  0  0  0
    7.4071  -13.7941   25.6842 C   0  0  0  0  0  0  0  0  0  0  0  0
    8.3447  -17.2429   22.6508 C   0  0  0  0  0  0  0  0  0  0  0  0
    9.1252  -18.2194   22.7743 O   0  0  0  0  0  0  0  0  0  0  0  0
    7.2207  -16.8730   18.9493 C   0  0  0  0  0  0  0  0  0  0  0  0
    8.6864  -16.4939   19.0139 C   0  0  1  0  0  0  0  0  0  0  0  0
    8.8448  -15.1119   18.8507 O   0  0  0  0  0  0  0  0  0  0  0  0
    9.2170  -16.9399   20.3614 C   0  0  2  0  0  0  0  0  0  0  0  0
    8.3284  -16.5261   21.4323 N   0  0  0  0  0  0  0  0  0  0  0  0
   10.5735  -16.3505   20.5489 C   0  0  0  0  0  0  0  0  0  0  0  0
   10.7252  -15.1599   20.8914 O   0  0  0  0  0  0  0  0  0  0  0  0
   11.7334  -17.1422   20.3385 N   0  0  0  0  0  0  0  0  0  0  0  0
   13.0806  -16.5980   20.5561 C   0  0  0  0  0  0  0  0  0  0  0  0
   14.0456  -17.6868   20.2721 C   0  0  0  0  0  0  0  0  0  0  0  0
   15.2540  -17.4807   19.6187 O   0  0  0  0  0  0  0  0  0  0  0  0
   13.7597  -18.8506   20.6381 O   0  0  0  0  0  0  0  0  0  0  0  0
  2  1  1  1
  2 13  1  0
  3  2  1  0
  4  3  1  0
  5  4  2  0
  6  7  1  0
  6  5  1  0
  7 12  2  0
  8  7  1  0
  8  9  2  0
  9 10  1  0
 10 11  2  0
 12  4  1  0
 12 11  1  0
 13 19  1  0
 13 14  2  0
 16 15  1  1
 16 17  1  0
 18 16  1  0
 18 19  1  1
 20 18  1  0
 20 21  2  0
 22 20  1  0
 23 22  1  0
 24 23  1  0
 25 24  1  0
 26 24  2  0
M  END
$$$$
