WTG.pdb
     RDKit          3D

 26 27  0  0  1  0  0  0  0  0999 V2000
    6.3926  -17.6870   24.6365 N   0  0  0  0  0  0  0  0  0  0  0  0
    7.1764  -16.5966   24.0893 C   0  0  1  0  0  0  0  0  0  0  0  0
    7.9139  -15.8958   25.2259 C   0  0  0  0  0  0  0  0  0  0  0  0
    7.0270  -14.8915   25.8723 C   0  0  0  0  0  0  0  0  0  0  0  0
    5.8936  -15.1476   26.6112 C   0  0  0  0  0  0  0  0  0  0  0  0
    5.3803  -13.9632   27.0195 N   0  0  0  0  0  0  0  0  0  0  0  0
    6.1445  -12.9627   26.5682 C   0  0  0  0  0  0  0  0  0  0  0  0
    6.0716  -11.5779   26.6952 C   0  0  0  0  0  0  0  0  0  0  0  0
    7.0129  -10.7746   26.1151 C   0  0  0  0  0  0  0  0  0  0  0  0
    8.0465  -11.3444   25.3958 C   0  0  0  0  0  0  0  0  0  0  0  0
    8.1335  -12.7171   25.2601 C   0  0  0  0  0  0  0  0  0  0  0  0
    7.1833  -13.5180   25.8462 C   0  0  0  0  0  0  0  0  0  0  0  0
    8.1682  -17.0614   23.1013 C   0  0  0  0  0  0  0  0  0  0  0  0
    8.7129  -18.1754   23.3022 O   0  0  0  0  0  0  0  0  0  0  0  0
    7.9588  -16.9380   19.3230 C   0  0  0  0  0  0  0  0  0  0  0  0
    9.3604  -16.4712   19.6601 C   0  0  1  0  0  0  0  0  0  0  0  0
    9.4901  -15.0961   19.4279 O   0  0  0  0  0  0  0  0  0  0  0  0
    9.6143  -16.7959   21.1183 C   0  0  2  0  0  0  0  0  0  0  0  0
    8.5274  -16.3179   21.9537 N   0  0  0  0  0  0  0  0  0  0  0  0
   10.9024  -16.1629   21.5215 C   0  0  0  0  0  0  0  0  0  0  0  0
   10.9447  -14.9982   21.9681 O   0  0  0  0  0  0  0  0  0  0  0  0
   12.1213  -16.8820   21.4036 N   0  0  0  0  0  0  0  0  0  0  0  0
   13.4092  -16.2664   21.7513 C   0  0  0  0  0  0  0  0  0  0  0  0
   14.4735  -17.2154   21.3463 C   0  0  0  0  0  0  0  0  0  0  0  0
   15.8184  -16.8720   21.2928 O   0  0  0  0  0  0  0  0  0  0  0  0
   14.1467  -18.3848   21.0368 O   0  0  0  0  0  0  0  0  0  0  0  0
  2  1  1  1
  2 13  1  0
  3  2  1  0
  4  3  1  0
  5  4  2  0
  6  7  1  0
  6  5  1  0
  7 12  2  0
  8  7  1  0
  8  9  2  0
  9 10  1  0
 10 11  2  0
 12  4  1  0
 12 11  1  0
 13 19  1  0
 13 14  2  0
 16 15  1  1
 16 17  1  0
 18 16  1  0
 18 19  1  1
 20 18  1  0
 20 21  2  0
 22 20  1  0
 23 22  1  0
 24 23  1  0
 25 24  1  0
 26 24  2  0
M  END
$$$$
