WTG.pdb
     RDKit          3D

 26 27  0  0  1  0  0  0  0  0999 V2000
    7.1519  -17.5097   23.3748 N   0  0  0  0  0  0  0  0  0  0  0  0
    7.3817  -16.1288   22.9969 C   0  0  1  0  0  0  0  0  0  0  0  0
    8.2283  -15.4539   24.0714 C   0  0  0  0  0  0  0  0  0  0  0  0
    7.3536  -14.8633   25.1198 C   0  0  0  0  0  0  0  0  0  0  0  0
    6.3289  -15.4943   25.7893 C   0  0  0  0  0  0  0  0  0  0  0  0
    5.7861  -14.6097   26.6587 N   0  0  0  0  0  0  0  0  0  0  0  0
    6.4268  -13.4393   26.5677 C   0  0  0  0  0  0  0  0  0  0  0  0
    6.2760  -12.2187   27.2209 C   0  0  0  0  0  0  0  0  0  0  0  0
    7.0912  -11.1633   26.9222 C   0  0  0  0  0  0  0  0  0  0  0  0
    8.0742  -11.3110   25.9619 C   0  0  0  0  0  0  0  0  0  0  0  0
    8.2372  -12.5156   25.3042 C   0  0  0  0  0  0  0  0  0  0  0  0
    7.4137  -13.5720   25.6101 C   0  0  0  0  0  0  0  0  0  0  0  0
    8.0821  -16.0117   21.7039 C   0  0  0  0  0  0  0  0  0  0  0  0
    8.9194  -16.9015   21.4122 O   0  0  0  0  0  0  0  0  0  0  0  0
    8.0699  -12.5410   19.2169 C   0  0  0  0  0  0  0  0  0  0  0  0
    8.0521  -13.9187   18.5861 C   0  0  1  0  0  0  0  0  0  0  0  0
    8.7785  -13.9208   17.3886 O   0  0  0  0  0  0  0  0  0  0  0  0
    8.6561  -14.8877   19.5824 C   0  0  2  0  0  0  0  0  0  0  0  0
    7.8552  -14.9560   20.7913 N   0  0  0  0  0  0  0  0  0  0  0  0
   10.0410  -14.4338   19.8963 C   0  0  0  0  0  0  0  0  0  0  0  0
   10.2840  -13.7240   20.8938 O   0  0  0  0  0  0  0  0  0  0  0  0
   11.1237  -14.8050   19.0558 N   0  0  0  0  0  0  0  0  0  0  0  0
   12.5021  -14.3964   19.3589 C   0  0  0  0  0  0  0  0  0  0  0  0
   13.3378  -14.7708   18.1932 C   0  0  0  0  0  0  0  0  0  0  0  0
   14.6025  -14.2439   17.9637 O   0  0  0  0  0  0  0  0  0  0  0  0
   12.8837  -15.6027   17.3736 O   0  0  0  0  0  0  0  0  0  0  0  0
  2  1  1  1
  2 13  1  0
  3  2  1  0
  4  3  1  0
  5  4  2  0
  6  7  1  0
  6  5  1  0
  7 12  2  0
  8  7  1  0
  8  9  2  0
  9 10  1  0
 10 11  2  0
 12  4  1  0
 12 11  1  0
 13 19  1  0
 13 14  2  0
 16 15  1  1
 16 17  1  0
 18 16  1  0
 18 19  1  1
 20 18  1  0
 20 21  2  0
 22 20  1  0
 23 22  1  0
 24 23  1  0
 25 24  1  0
 26 24  2  0
M  END
$$$$
