WTG.pdb
     RDKit          3D

 26 27  0  0  1  0  0  0  0  0999 V2000
    6.4310  -17.8106   24.4260 N   0  0  0  0  0  0  0  0  0  0  0  0
    7.2554  -16.8557   23.7109 C   0  0  1  0  0  0  0  0  0  0  0  0
    8.0973  -16.0757   24.7156 C   0  0  0  0  0  0  0  0  0  0  0  0
    7.2434  -15.1179   25.4683 C   0  0  0  0  0  0  0  0  0  0  0  0
    6.0697  -15.4041   26.1292 C   0  0  0  0  0  0  0  0  0  0  0  0
    5.6077  -14.2583   26.6829 N   0  0  0  0  0  0  0  0  0  0  0  0
    6.4433  -13.2534   26.3992 C   0  0  0  0  0  0  0  0  0  0  0  0
    6.4428  -11.8972   26.7158 C   0  0  0  0  0  0  0  0  0  0  0  0
    7.4491  -11.0803   26.2826 C   0  0  0  0  0  0  0  0  0  0  0  0
    8.4764  -11.6073   25.5228 C   0  0  0  0  0  0  0  0  0  0  0  0
    8.4920  -12.9510   25.1996 C   0  0  0  0  0  0  0  0  0  0  0  0
    7.4767  -13.7659   25.6390 C   0  0  0  0  0  0  0  0  0  0  0  0
    8.1601  -17.5095   22.7465 C   0  0  0  0  0  0  0  0  0  0  0  0
    8.3967  -18.7328   22.9065 O   0  0  0  0  0  0  0  0  0  0  0  0
    7.9193  -16.6308   18.9398 C   0  0  0  0  0  0  0  0  0  0  0  0
    9.3735  -16.8625   19.2972 C   0  0  1  0  0  0  0  0  0  0  0  0
   10.0571  -15.6438   19.3916 O   0  0  0  0  0  0  0  0  0  0  0  0
    9.4092  -17.6022   20.6193 C   0  0  2  0  0  0  0  0  0  0  0  0
    8.7642  -16.8285   21.6648 N   0  0  0  0  0  0  0  0  0  0  0  0
   10.8339  -17.8691   20.9681 C   0  0  0  0  0  0  0  0  0  0  0  0
   11.5552  -18.5946   20.2531 O   0  0  0  0  0  0  0  0  0  0  0  0
   11.4046  -17.2957   22.1352 N   0  0  0  0  0  0  0  0  0  0  0  0
   12.8172  -17.5077   22.4790 C   0  0  0  0  0  0  0  0  0  0  0  0
   13.5886  -16.3961   21.8734 C   0  0  0  0  0  0  0  0  0  0  0  0
   14.4484  -15.5826   22.6003 O   0  0  0  0  0  0  0  0  0  0  0  0
   13.4605  -16.1776   20.6462 O   0  0  0  0  0  0  0  0  0  0  0  0
  2  1  1  1
  2 13  1  0
  3  2  1  0
  4  3  1  0
  5  4  2  0
  6  7  1  0
  6  5  1  0
  7 12  2  0
  8  7  1  0
  8  9  2  0
  9 10  1  0
 10 11  2  0
 12  4  1  0
 12 11  1  0
 13 19  1  0
 13 14  2  0
 16 15  1  1
 16 17  1  0
 18 16  1  0
 18 19  1  1
 20 18  1  0
 20 21  2  0
 22 20  1  0
 23 22  1  0
 24 23  1  0
 25 24  1  0
 26 24  2  0
M  END
$$$$
