WTG.pdb
     RDKit          3D

 26 27  0  0  1  0  0  0  0  0999 V2000
    6.6356  -17.2286   23.1604 N   0  0  0  0  0  0  0  0  0  0  0  0
    7.2095  -15.9204   22.9114 C   0  0  1  0  0  0  0  0  0  0  0  0
    8.1030  -15.5379   24.0870 C   0  0  0  0  0  0  0  0  0  0  0  0
    7.2849  -14.9646   25.1894 C   0  0  0  0  0  0  0  0  0  0  0  0
    6.4043  -15.6442   26.0012 C   0  0  0  0  0  0  0  0  0  0  0  0
    5.8663  -14.7593   26.8731 N   0  0  0  0  0  0  0  0  0  0  0  0
    6.3714  -13.5418   26.6469 C   0  0  0  0  0  0  0  0  0  0  0  0
    6.1647  -12.3001   27.2426 C   0  0  0  0  0  0  0  0  0  0  0  0
    6.8327  -11.1940   26.7977 C   0  0  0  0  0  0  0  0  0  0  0  0
    7.7218  -11.3112   25.7459 C   0  0  0  0  0  0  0  0  0  0  0  0
    7.9385  -12.5360   25.1435 C   0  0  0  0  0  0  0  0  0  0  0  0
    7.2630  -13.6434   25.5965 C   0  0  0  0  0  0  0  0  0  0  0  0
    8.0172  -15.8895   21.6774 C   0  0  0  0  0  0  0  0  0  0  0  0
    8.6356  -16.9357   21.3595 O   0  0  0  0  0  0  0  0  0  0  0  0
    7.0136  -13.6349   18.6803 C   0  0  0  0  0  0  0  0  0  0  0  0
    8.5242  -13.7510   18.6527 C   0  0  1  0  0  0  0  0  0  0  0  0
    9.1178  -12.5291   18.9935 O   0  0  0  0  0  0  0  0  0  0  0  0
    8.9196  -14.8333   19.6368 C   0  0  2  0  0  0  0  0  0  0  0  0
    8.1242  -14.7493   20.8484 N   0  0  0  0  0  0  0  0  0  0  0  0
   10.3687  -14.6752   19.9494 C   0  0  0  0  0  0  0  0  0  0  0  0
   10.7525  -14.1747   21.0264 O   0  0  0  0  0  0  0  0  0  0  0  0
   11.3525  -15.0962   19.0158 N   0  0  0  0  0  0  0  0  0  0  0  0
   12.7867  -14.9405   19.2937 C   0  0  0  0  0  0  0  0  0  0  0  0
   13.5157  -15.2906   18.0513 C   0  0  0  0  0  0  0  0  0  0  0  0
   12.8923  -15.8144   16.9258 O   0  0  0  0  0  0  0  0  0  0  0  0
   14.7544  -15.1063   18.0119 O   0  0  0  0  0  0  0  0  0  0  0  0
  2  1  1  1
  2 13  1  0
  3  2  1  0
  4  3  1  0
  5  4  2  0
  6  7  1  0
  6  5  1  0
  7 12  2  0
  8  7  1  0
  8  9  2  0
  9 10  1  0
 10 11  2  0
 12  4  1  0
 12 11  1  0
 13 19  1  0
 13 14  2  0
 16 15  1  1
 16 17  1  0
 18 16  1  0
 18 19  1  1
 20 18  1  0
 20 21  2  0
 22 20  1  0
 23 22  1  0
 24 23  1  0
 25 24  1  0
 26 24  2  0
M  END
$$$$
