WTG.pdb
     RDKit          3D

 26 27  0  0  1  0  0  0  0  0999 V2000
    6.8512  -18.1208   24.4925 N   0  0  0  0  0  0  0  0  0  0  0  0
    7.2311  -16.8447   23.9180 C   0  0  1  0  0  0  0  0  0  0  0  0
    8.0744  -16.0756   24.9299 C   0  0  0  0  0  0  0  0  0  0  0  0
    7.2133  -15.1628   25.7289 C   0  0  0  0  0  0  0  0  0  0  0  0
    6.1101  -15.5136   26.4746 C   0  0  0  0  0  0  0  0  0  0  0  0
    5.6127  -14.3910   27.0450 N   0  0  0  0  0  0  0  0  0  0  0  0
    6.3580  -13.3387   26.6903 C   0  0  0  0  0  0  0  0  0  0  0  0
    6.2895  -11.9802   26.9890 C   0  0  0  0  0  0  0  0  0  0  0  0
    7.2067  -11.1069   26.4755 C   0  0  0  0  0  0  0  0  0  0  0  0
    8.2113  -11.5787   25.6517 C   0  0  0  0  0  0  0  0  0  0  0  0
    8.2936  -12.9239   25.3453 C   0  0  0  0  0  0  0  0  0  0  0  0
    7.3677  -13.7957   25.8655 C   0  0  0  0  0  0  0  0  0  0  0  0
    8.0125  -17.0006   22.6765 C   0  0  0  0  0  0  0  0  0  0  0  0
    8.4899  -18.1354   22.4272 O   0  0  0  0  0  0  0  0  0  0  0  0
    6.7690  -15.4019   19.4756 C   0  0  0  0  0  0  0  0  0  0  0  0
    8.2809  -15.3318   19.4005 C   0  0  1  0  0  0  0  0  0  0  0  0
    8.7222  -14.0157   19.5872 O   0  0  0  0  0  0  0  0  0  0  0  0
    8.8368  -16.2425   20.4766 C   0  0  2  0  0  0  0  0  0  0  0  0
    8.2443  -15.9428   21.7676 N   0  0  0  0  0  0  0  0  0  0  0  0
   10.3159  -16.0622   20.5243 C   0  0  0  0  0  0  0  0  0  0  0  0
   11.0342  -16.3028   19.5324 O   0  0  0  0  0  0  0  0  0  0  0  0
   10.9436  -15.6077   21.7143 N   0  0  0  0  0  0  0  0  0  0  0  0
   12.3828  -15.3152   21.7560 C   0  0  0  0  0  0  0  0  0  0  0  0
   13.0605  -16.5184   22.2949 C   0  0  0  0  0  0  0  0  0  0  0  0
   14.3926  -16.5287   22.6883 O   0  0  0  0  0  0  0  0  0  0  0  0
   12.4019  -17.5790   22.4016 O   0  0  0  0  0  0  0  0  0  0  0  0
  2  1  1  1
  2 13  1  0
  3  2  1  0
  4  3  1  0
  5  4  2  0
  6  7  1  0
  6  5  1  0
  7 12  2  0
  8  7  1  0
  8  9  2  0
  9 10  1  0
 10 11  2  0
 12  4  1  0
 12 11  1  0
 13 19  1  0
 13 14  2  0
 16 15  1  1
 16 17  1  0
 18 16  1  0
 18 19  1  1
 20 18  1  0
 20 21  2  0
 22 20  1  0
 23 22  1  0
 24 23  1  0
 25 24  1  0
 26 24  2  0
M  END
$$$$
