WTG.pdb
     RDKit          3D

 26 27  0  0  1  0  0  0  0  0999 V2000
    6.7872  -17.9138   24.6465 N   0  0  0  0  0  0  0  0  0  0  0  0
    7.4147  -16.8491   23.8879 C   0  0  1  0  0  0  0  0  0  0  0  0
    8.1644  -15.9305   24.8476 C   0  0  0  0  0  0  0  0  0  0  0  0
    7.2109  -15.0241   25.5422 C   0  0  0  0  0  0  0  0  0  0  0  0
    6.0581  -15.3894   26.2009 C   0  0  0  0  0  0  0  0  0  0  0  0
    5.4805  -14.2680   26.6926 N   0  0  0  0  0  0  0  0  0  0  0  0
    6.2224  -13.2026   26.3717 C   0  0  0  0  0  0  0  0  0  0  0  0
    6.0884  -11.8393   26.6226 C   0  0  0  0  0  0  0  0  0  0  0  0
    7.0206  -10.9516   26.1636 C   0  0  0  0  0  0  0  0  0  0  0  0
    8.1061  -11.4135   25.4434 C   0  0  0  0  0  0  0  0  0  0  0  0
    8.2541  -12.7632   25.1856 C   0  0  0  0  0  0  0  0  0  0  0  0
    7.3127  -13.6495   25.6505 C   0  0  0  0  0  0  0  0  0  0  0  0
    8.3688  -17.3627   22.8870 C   0  0  0  0  0  0  0  0  0  0  0  0
    9.2168  -18.2066   23.2697 O   0  0  0  0  0  0  0  0  0  0  0  0
    7.7592  -17.6392   18.9340 C   0  0  0  0  0  0  0  0  0  0  0  0
    9.1424  -17.0896   19.2184 C   0  0  1  0  0  0  0  0  0  0  0  0
    9.1875  -15.7136   18.9608 O   0  0  0  0  0  0  0  0  0  0  0  0
    9.4596  -17.3745   20.6725 C   0  0  2  0  0  0  0  0  0  0  0  0
    8.3703  -16.9520   21.5341 N   0  0  0  0  0  0  0  0  0  0  0  0
   10.7169  -16.6559   21.0269 C   0  0  0  0  0  0  0  0  0  0  0  0
   10.6992  -15.4836   21.4547 O   0  0  0  0  0  0  0  0  0  0  0  0
   11.9743  -17.2997   20.8826 N   0  0  0  0  0  0  0  0  0  0  0  0
   13.2333  -16.5808   21.1207 C   0  0  0  0  0  0  0  0  0  0  0  0
   14.3391  -17.4989   20.7576 C   0  0  0  0  0  0  0  0  0  0  0  0
   15.6723  -17.1098   20.7291 O   0  0  0  0  0  0  0  0  0  0  0  0
   14.0603  -18.6841   20.4615 O   0  0  0  0  0  0  0  0  0  0  0  0
  2  1  1  1
  2 13  1  0
  3  2  1  0
  4  3  1  0
  5  4  2  0
  6  7  1  0
  6  5  1  0
  7 12  2  0
  8  7  1  0
  8  9  2  0
  9 10  1  0
 10 11  2  0
 12  4  1  0
 12 11  1  0
 13 19  1  0
 13 14  2  0
 16 15  1  1
 16 17  1  0
 18 16  1  0
 18 19  1  1
 20 18  1  0
 20 21  2  0
 22 20  1  0
 23 22  1  0
 24 23  1  0
 25 24  1  0
 26 24  2  0
M  END
$$$$
