WTG.pdb
     RDKit          3D

 26 27  0  0  1  0  0  0  0  0999 V2000
    6.6908  -18.2978   24.4860 N   0  0  0  0  0  0  0  0  0  0  0  0
    7.0319  -16.9585   24.0471 C   0  0  1  0  0  0  0  0  0  0  0  0
    7.9042  -16.2950   25.1080 C   0  0  0  0  0  0  0  0  0  0  0  0
    7.1070  -15.3094   25.8866 C   0  0  0  0  0  0  0  0  0  0  0  0
    6.0438  -15.5826   26.7179 C   0  0  0  0  0  0  0  0  0  0  0  0
    5.5998  -14.4117   27.2326 N   0  0  0  0  0  0  0  0  0  0  0  0
    6.3405  -13.4034   26.7601 C   0  0  0  0  0  0  0  0  0  0  0  0
    6.3126  -12.0259   26.9626 C   0  0  0  0  0  0  0  0  0  0  0  0
    7.2126  -11.2112   26.3350 C   0  0  0  0  0  0  0  0  0  0  0  0
    8.1590  -11.7619   25.4915 C   0  0  0  0  0  0  0  0  0  0  0  0
    8.2005  -13.1270   25.2796 C   0  0  0  0  0  0  0  0  0  0  0  0
    7.2922  -13.9395   25.9142 C   0  0  0  0  0  0  0  0  0  0  0  0
    7.7661  -16.9590   22.7677 C   0  0  0  0  0  0  0  0  0  0  0  0
    8.2508  -18.0492   22.3745 O   0  0  0  0  0  0  0  0  0  0  0  0
    6.5357  -14.9271   19.7277 C   0  0  0  0  0  0  0  0  0  0  0  0
    8.0498  -14.8659   19.7192 C   0  0  1  0  0  0  0  0  0  0  0  0
    8.4930  -13.5984   20.1174 O   0  0  0  0  0  0  0  0  0  0  0  0
    8.5579  -15.9345   20.6659 C   0  0  2  0  0  0  0  0  0  0  0  0
    7.9455  -15.8018   21.9755 N   0  0  0  0  0  0  0  0  0  0  0  0
   10.0398  -15.8060   20.7649 C   0  0  0  0  0  0  0  0  0  0  0  0
   10.7690  -15.8735   19.7542 O   0  0  0  0  0  0  0  0  0  0  0  0
   10.6579  -15.6019   22.0270 N   0  0  0  0  0  0  0  0  0  0  0  0
   12.1071  -15.3901   22.1435 C   0  0  0  0  0  0  0  0  0  0  0  0
   12.7411  -16.7272   22.2309 C   0  0  0  0  0  0  0  0  0  0  0  0
   14.1156  -16.9217   22.1810 O   0  0  0  0  0  0  0  0  0  0  0  0
   12.0035  -17.7324   22.3558 O   0  0  0  0  0  0  0  0  0  0  0  0
  2  1  1  1
  2 13  1  0
  3  2  1  0
  4  3  1  0
  5  4  2  0
  6  7  1  0
  6  5  1  0
  7 12  2  0
  8  7  1  0
  8  9  2  0
  9 10  1  0
 10 11  2  0
 12  4  1  0
 12 11  1  0
 13 19  1  0
 13 14  2  0
 16 15  1  1
 16 17  1  0
 18 16  1  0
 18 19  1  1
 20 18  1  0
 20 21  2  0
 22 20  1  0
 23 22  1  0
 24 23  1  0
 25 24  1  0
 26 24  2  0
M  END
$$$$
