VPE.pdb
     RDKit          3D

 24 24  0  0  1  0  0  0  0  0999 V2000
   19.1639   -9.9423  -18.9293 C   0  0  0  0  0  0  0  0  0  0  0  0
   19.9800  -11.2080  -18.7524 C   0  0  2  0  0  0  0  0  0  0  0  0
   19.5974  -12.1709  -19.8605 C   0  0  0  0  0  0  0  0  0  0  0  0
   19.6941  -11.7586  -17.3739 C   0  0  2  0  0  0  0  0  0  0  0  0
   18.3485  -12.2743  -17.3757 N   0  0  0  0  0  0  0  0  0  0  0  0
   19.9822  -10.8143  -16.2820 C   0  0  0  0  0  0  0  0  0  0  0  0
   18.9985  -10.1836  -15.7823 O   0  0  0  0  0  0  0  0  0  0  0  0
   21.2645  -10.5697  -15.7637 N   0  0  0  0  0  0  0  0  0  0  0  0
   22.4780  -11.2517  -16.2136 C   0  0  0  0  0  0  0  0  0  0  0  0
   23.2665  -11.4604  -14.9178 C   0  0  0  0  0  0  0  0  0  0  0  0
   23.0280  -10.1307  -14.2337 C   0  0  0  0  0  0  0  0  0  0  0  0
   21.6572   -9.6605  -14.7499 C   0  0  1  0  0  0  0  0  0  0  0  0
   21.8941   -8.2776  -15.2565 C   0  0  0  0  0  0  0  0  0  0  0  0
   22.0973   -8.1316  -16.4861 O   0  0  0  0  0  0  0  0  0  0  0  0
   21.9028   -7.1389  -14.4392 N   0  0  0  0  0  0  0  0  0  0  0  0
   22.0301   -5.7678  -14.9198 C   0  0  1  0  0  0  0  0  0  0  0  0
   20.7382   -5.4491  -15.6462 C   0  0  0  0  0  0  0  0  0  0  0  0
   19.5690   -5.4530  -14.6824 C   0  0  0  0  0  0  0  0  0  0  0  0
   18.3197   -5.1636  -15.4121 C   0  0  0  0  0  0  0  0  0  0  0  0
   17.3496   -5.9555  -15.3854 O   0  0  0  0  0  0  0  0  0  0  0  0
   22.2072   -4.8070  -13.8332 C   0  0  0  0  0  0  0  0  0  0  0  0
   22.6422   -3.5281  -14.1036 O   0  0  0  0  0  0  0  0  0  0  0  0
   18.1958   -4.0008  -16.1463 O   0  0  0  0  0  0  0  0  0  0  0  0
   21.9674   -5.1335  -12.6544 O   0  0  0  0  0  0  0  0  0  0  0  0
  2  1  1  6
  2  3  1  0
  4  2  1  0
  4  5  1  6
  6  8  1  0
  6  4  1  0
  7  6  2  0
  8 12  1  0
  9 10  1  0
  9  8  1  0
 10 11  1  0
 11 12  1  0
 12 13  1  6
 13 14  2  0
 15 13  1  0
 15 16  1  0
 16 21  1  0
 16 17  1  1
 18 17  1  0
 19 20  2  0
 19 18  1  0
 21 22  1  0
 23 19  1  0
 24 21  2  0
M  END
$$$$
