VPE.pdb
     RDKit          3D

 24 24  0  0  1  0  0  0  0  0999 V2000
   32.8181   -4.9763  -15.5278 C   0  0  0  0  0  0  0  0  0  0  0  0
   32.9206   -6.4876  -15.5994 C   0  0  2  0  0  0  0  0  0  0  0  0
   33.6460   -6.9674  -14.3564 C   0  0  0  0  0  0  0  0  0  0  0  0
   33.6468   -6.8459  -16.8759 C   0  0  2  0  0  0  0  0  0  0  0  0
   35.0226   -6.4436  -16.7280 N   0  0  0  0  0  0  0  0  0  0  0  0
   32.9938   -6.3435  -18.0958 C   0  0  0  0  0  0  0  0  0  0  0  0
   33.5724   -5.3997  -18.7199 O   0  0  0  0  0  0  0  0  0  0  0  0
   31.7827   -6.8378  -18.6072 N   0  0  0  0  0  0  0  0  0  0  0  0
   31.0731   -7.9972  -18.0665 C   0  0  0  0  0  0  0  0  0  0  0  0
   30.5417   -8.7010  -19.3182 C   0  0  0  0  0  0  0  0  0  0  0  0
   30.0901   -7.5075  -20.1336 C   0  0  0  0  0  0  0  0  0  0  0  0
   31.0130   -6.3573  -19.6959 C   0  0  1  0  0  0  0  0  0  0  0  0
   30.0888   -5.2479  -19.3213 C   0  0  0  0  0  0  0  0  0  0  0  0
   29.8836   -5.0442  -18.1003 O   0  0  0  0  0  0  0  0  0  0  0  0
   29.4400   -4.4258  -20.2529 N   0  0  0  0  0  0  0  0  0  0  0  0
   28.7396   -3.1883  -19.9285 C   0  0  1  0  0  0  0  0  0  0  0  0
   29.7913   -2.2260  -19.4123 C   0  0  0  0  0  0  0  0  0  0  0  0
   29.1653   -0.8938  -19.0528 C   0  0  0  0  0  0  0  0  0  0  0  0
   30.2043    0.0273  -18.5538 C   0  0  0  0  0  0  0  0  0  0  0  0
   30.7866    0.8306  -19.3185 O   0  0  0  0  0  0  0  0  0  0  0  0
   28.0877   -2.5914  -21.0921 C   0  0  0  0  0  0  0  0  0  0  0  0
   27.0099   -1.7496  -20.9262 O   0  0  0  0  0  0  0  0  0  0  0  0
   30.5578    0.0206  -17.2191 O   0  0  0  0  0  0  0  0  0  0  0  0
   28.4987   -2.8370  -22.2429 O   0  0  0  0  0  0  0  0  0  0  0  0
  2  1  1  1
  2  3  1  0
  4  2  1  0
  4  5  1  1
  6  8  1  0
  6  4  1  0
  7  6  2  0
  8 12  1  0
  9 10  1  0
  9  8  1  0
 10 11  1  0
 11 12  1  0
 12 13  1  1
 13 14  2  0
 15 13  1  0
 15 16  1  0
 16 21  1  0
 16 17  1  6
 18 17  1  0
 19 20  2  0
 19 18  1  0
 21 22  1  0
 23 19  1  0
 24 21  2  0
M  END
$$$$
