TCW.pdb
     RDKit          3D

 28 29  0  0  1  0  0  0  0  0999 V2000
    8.4838  -14.1690   17.1658 C   0  0  0  0  0  0  0  0  0  0  0  0
    8.6526  -14.6408   18.5772 C   0  0  1  0  0  0  0  0  0  0  0  0
    9.8105  -14.2260   19.1905 O   0  0  0  0  0  0  0  0  0  0  0  0
    7.4731  -14.1400   19.3983 C   0  0  2  0  0  0  0  0  0  0  0  0
    7.3839  -12.7007   19.3298 N   0  0  0  0  0  0  0  0  0  0  0  0
    7.5641  -14.6068   20.8155 C   0  0  0  0  0  0  0  0  0  0  0  0
    7.8424  -13.7994   21.7384 O   0  0  0  0  0  0  0  0  0  0  0  0
    7.3470  -15.9558   21.1954 N   0  0  0  0  0  0  0  0  0  0  0  0
    7.4350  -16.4034   22.5810 C   0  0  1  0  0  0  0  0  0  0  0  0
    6.9461  -17.8165   22.6432 C   0  0  0  0  0  0  0  0  0  0  0  0
    5.3957  -17.9453   23.5391 S   0  0  0  0  0  0  0  0  0  0  0  0
    8.7747  -16.1901   23.1317 C   0  0  0  0  0  0  0  0  0  0  0  0
    9.5221  -15.3397   22.5494 O   0  0  0  0  0  0  0  0  0  0  0  0
    9.2950  -16.8719   24.2747 N   0  0  0  0  0  0  0  0  0  0  0  0
   10.4512  -16.3716   24.9692 C   0  0  1  0  0  0  0  0  0  0  0  0
   10.4737  -14.9200   25.2539 C   0  0  0  0  0  0  0  0  0  0  0  0
    9.4589  -14.3999   26.1622 C   0  0  0  0  0  0  0  0  0  0  0  0
    9.2482  -14.7368   27.5009 C   0  0  0  0  0  0  0  0  0  0  0  0
    8.2036  -14.0465   27.9734 N   0  0  0  0  0  0  0  0  0  0  0  0
    7.6887  -13.2425   26.9969 C   0  0  0  0  0  0  0  0  0  0  0  0
    6.6379  -12.3611   27.0034 C   0  0  0  0  0  0  0  0  0  0  0  0
    6.3238  -11.6585   25.8767 C   0  0  0  0  0  0  0  0  0  0  0  0
    7.0784  -11.8512   24.7409 C   0  0  0  0  0  0  0  0  0  0  0  0
    8.1263  -12.7400   24.7592 C   0  0  0  0  0  0  0  0  0  0  0  0
    8.4811  -13.4769   25.8838 C   0  0  0  0  0  0  0  0  0  0  0  0
   10.7133  -17.2168   26.1641 C   0  0  0  0  0  0  0  0  0  0  0  0
   11.8961  -17.1090   26.8793 O   0  0  0  0  0  0  0  0  0  0  0  0
    9.8677  -18.0579   26.5638 O   0  0  0  0  0  0  0  0  0  0  0  0
  2  1  1  6
  2  4  1  0
  3  2  1  0
  4  5  1  1
  6  4  1  0
  7  6  2  0
  8  6  1  0
  9 12  1  0
  9  8  1  0
  9 10  1  6
 11 10  1  0
 12 14  1  0
 13 12  2  0
 14 15  1  0
 15 26  1  0
 15 16  1  1
 17 25  1  0
 17 16  1  0
 18 17  2  0
 19 18  1  0
 19 20  1  0
 20 25  2  0
 21 20  1  0
 21 22  2  0
 22 23  1  0
 23 24  2  0
 25 24  1  0
 26 28  2  0
 26 27  1  0
M  END
$$$$
