TCW.pdb
     RDKit          3D

 28 29  0  0  1  0  0  0  0  0999 V2000
    8.0400  -12.2395   19.4641 C   0  0  0  0  0  0  0  0  0  0  0  0
    8.3223  -13.2506   20.5323 C   0  0  1  0  0  0  0  0  0  0  0  0
    7.9139  -12.8881   21.7935 O   0  0  0  0  0  0  0  0  0  0  0  0
    7.6253  -14.5520   20.1619 C   0  0  2  0  0  0  0  0  0  0  0  0
    6.2123  -14.3308   19.9654 N   0  0  0  0  0  0  0  0  0  0  0  0
    7.8668  -15.6068   21.1932 C   0  0  0  0  0  0  0  0  0  0  0  0
    6.9721  -15.9052   22.0249 O   0  0  0  0  0  0  0  0  0  0  0  0
    9.0899  -16.3177   21.2933 N   0  0  0  0  0  0  0  0  0  0  0  0
    9.3373  -17.3083   22.3351 C   0  0  1  0  0  0  0  0  0  0  0  0
   10.1908  -18.3905   21.7519 C   0  0  0  0  0  0  0  0  0  0  0  0
   10.5633  -19.6670   22.9582 S   0  0  0  0  0  0  0  0  0  0  0  0
    9.8712  -16.6901   23.5501 C   0  0  0  0  0  0  0  0  0  0  0  0
   10.7315  -15.7621   23.4095 O   0  0  0  0  0  0  0  0  0  0  0  0
    9.4911  -17.0596   24.8772 N   0  0  0  0  0  0  0  0  0  0  0  0
   10.1917  -16.5343   26.0186 C   0  0  1  0  0  0  0  0  0  0  0  0
    9.4240  -15.6364   26.9090 C   0  0  0  0  0  0  0  0  0  0  0  0
    8.1336  -15.1586   26.4272 C   0  0  0  0  0  0  0  0  0  0  0  0
    7.0648  -15.9125   25.9378 C   0  0  0  0  0  0  0  0  0  0  0  0
    6.0688  -15.0924   25.5826 N   0  0  0  0  0  0  0  0  0  0  0  0
    6.4217  -13.7935   25.8140 C   0  0  0  0  0  0  0  0  0  0  0  0
    5.7438  -12.6173   25.6190 C   0  0  0  0  0  0  0  0  0  0  0  0
    6.3260  -11.4269   25.9444 C   0  0  0  0  0  0  0  0  0  0  0  0
    7.5993  -11.4309   26.4690 C   0  0  0  0  0  0  0  0  0  0  0  0
    8.2582  -12.6224   26.6550 C   0  0  0  0  0  0  0  0  0  0  0  0
    7.7039  -13.8575   26.3372 C   0  0  0  0  0  0  0  0  0  0  0  0
   10.8703  -17.6462   26.7356 C   0  0  0  0  0  0  0  0  0  0  0  0
   10.6886  -18.9673   26.3561 O   0  0  0  0  0  0  0  0  0  0  0  0
   11.6321  -17.4220   27.7110 O   0  0  0  0  0  0  0  0  0  0  0  0
  2  1  1  6
  2  4  1  0
  3  2  1  0
  4  5  1  1
  6  4  1  0
  7  6  2  0
  8  6  1  0
  9 12  1  0
  9  8  1  0
  9 10  1  6
 11 10  1  0
 12 14  1  0
 13 12  2  0
 14 15  1  0
 15 26  1  0
 15 16  1  1
 17 25  1  0
 17 16  1  0
 18 17  2  0
 19 18  1  0
 19 20  1  0
 20 25  2  0
 21 20  1  0
 21 22  2  0
 22 23  1  0
 23 24  2  0
 25 24  1  0
 26 28  2  0
 26 27  1  0
M  END
$$$$
