TCW.pdb
     RDKit          3D

 28 29  0  0  1  0  0  0  0  0999 V2000
   11.6204  -18.4545   17.1813 C   0  0  0  0  0  0  0  0  0  0  0  0
   10.9672  -17.3271   17.9199 C   0  0  1  0  0  0  0  0  0  0  0  0
    9.7664  -16.9120   17.3959 O   0  0  0  0  0  0  0  0  0  0  0  0
   10.7332  -17.7637   19.3590 C   0  0  2  0  0  0  0  0  0  0  0  0
    9.7662  -18.8343   19.4118 N   0  0  0  0  0  0  0  0  0  0  0  0
   10.3077  -16.6114   20.2109 C   0  0  0  0  0  0  0  0  0  0  0  0
   11.0069  -15.5681   20.2718 O   0  0  0  0  0  0  0  0  0  0  0  0
    9.1182  -16.6251   20.9831 N   0  0  0  0  0  0  0  0  0  0  0  0
    8.7594  -15.5391   21.8886 C   0  0  1  0  0  0  0  0  0  0  0  0
    7.3284  -15.1802   21.6375 C   0  0  0  0  0  0  0  0  0  0  0  0
    6.2381  -16.5865   21.8761 S   0  0  0  0  0  0  0  0  0  0  0  0
    9.0768  -15.8702   23.2790 C   0  0  0  0  0  0  0  0  0  0  0  0
    8.1609  -16.4102   23.9794 O   0  0  0  0  0  0  0  0  0  0  0  0
   10.3418  -15.6272   23.8977 N   0  0  0  0  0  0  0  0  0  0  0  0
   10.5440  -15.9003   25.2955 C   0  0  1  0  0  0  0  0  0  0  0  0
    9.9399  -14.9442   26.2492 C   0  0  0  0  0  0  0  0  0  0  0  0
    8.5067  -14.7019   26.1374 C   0  0  0  0  0  0  0  0  0  0  0  0
    7.4990  -15.6218   25.8396 C   0  0  0  0  0  0  0  0  0  0  0  0
    6.3175  -14.9938   25.8155 N   0  0  0  0  0  0  0  0  0  0  0  0
    6.4832  -13.6660   26.0890 C   0  0  0  0  0  0  0  0  0  0  0  0
    5.5821  -12.6362   26.1812 C   0  0  0  0  0  0  0  0  0  0  0  0
    6.0086  -11.3750   26.4802 C   0  0  0  0  0  0  0  0  0  0  0  0
    7.3531  -11.1592   26.6861 C   0  0  0  0  0  0  0  0  0  0  0  0
    8.2364  -12.2072   26.5881 C   0  0  0  0  0  0  0  0  0  0  0  0
    7.8463  -13.5071   26.2853 C   0  0  0  0  0  0  0  0  0  0  0  0
   10.1995  -17.3192   25.5760 C   0  0  0  0  0  0  0  0  0  0  0  0
    9.7298  -18.1589   24.5778 O   0  0  0  0  0  0  0  0  0  0  0  0
   10.3239  -17.8027   26.7305 O   0  0  0  0  0  0  0  0  0  0  0  0
  2  1  1  6
  2  4  1  0
  3  2  1  0
  4  5  1  6
  6  4  1  0
  7  6  2  0
  8  6  1  0
  9 12  1  0
  9  8  1  0
  9 10  1  1
 11 10  1  0
 12 14  1  0
 13 12  2  0
 14 15  1  0
 15 26  1  0
 15 16  1  1
 17 25  1  0
 17 16  1  0
 18 17  2  0
 19 18  1  0
 19 20  1  0
 20 25  2  0
 21 20  1  0
 21 22  2  0
 22 23  1  0
 23 24  2  0
 25 24  1  0
 26 28  2  0
 26 27  1  0
M  END
$$$$
