TCW.pdb
     RDKit          3D

 28 29  0  0  1  0  0  0  0  0999 V2000
    7.8672  -12.6513   18.2012 C   0  0  0  0  0  0  0  0  0  0  0  0
    8.4391  -13.6070   19.2025 C   0  0  1  0  0  0  0  0  0  0  0  0
    7.5646  -14.0070   20.1844 O   0  0  0  0  0  0  0  0  0  0  0  0
    8.9255  -14.8461   18.4646 C   0  0  2  0  0  0  0  0  0  0  0  0
    7.8706  -15.3933   17.6448 N   0  0  0  0  0  0  0  0  0  0  0  0
    9.4531  -15.8701   19.4172 C   0  0  0  0  0  0  0  0  0  0  0  0
    8.7153  -16.8016   19.8285 O   0  0  0  0  0  0  0  0  0  0  0  0
   10.7855  -15.8533   19.9028 N   0  0  0  0  0  0  0  0  0  0  0  0
   11.2065  -16.6312   21.0628 C   0  0  1  0  0  0  0  0  0  0  0  0
   12.6271  -17.0504   20.8486 C   0  0  0  0  0  0  0  0  0  0  0  0
   13.2588  -17.9952   22.2385 S   0  0  0  0  0  0  0  0  0  0  0  0
   10.9586  -15.9107   22.3130 C   0  0  0  0  0  0  0  0  0  0  0  0
   10.9212  -14.6390   22.2623 O   0  0  0  0  0  0  0  0  0  0  0  0
   10.7572  -16.5396   23.5803 N   0  0  0  0  0  0  0  0  0  0  0  0
    9.8255  -15.9978   24.5331 C   0  0  1  0  0  0  0  0  0  0  0  0
    8.5015  -15.5980   24.0080 C   0  0  0  0  0  0  0  0  0  0  0  0
    7.5489  -15.0309   24.9548 C   0  0  0  0  0  0  0  0  0  0  0  0
    6.4069  -15.6304   25.4901 C   0  0  0  0  0  0  0  0  0  0  0  0
    5.7948  -14.7672   26.3093 N   0  0  0  0  0  0  0  0  0  0  0  0
    6.4839  -13.5889   26.3536 C   0  0  0  0  0  0  0  0  0  0  0  0
    6.2556  -12.4262   27.0442 C   0  0  0  0  0  0  0  0  0  0  0  0
    7.1151  -11.3737   26.9202 C   0  0  0  0  0  0  0  0  0  0  0  0
    8.2089  -11.5023   26.0933 C   0  0  0  0  0  0  0  0  0  0  0  0
    8.4161  -12.6774   25.4118 C   0  0  0  0  0  0  0  0  0  0  0  0
    7.5666  -13.7741   25.5078 C   0  0  0  0  0  0  0  0  0  0  0  0
    9.7506  -16.8960   25.7156 C   0  0  0  0  0  0  0  0  0  0  0  0
   10.1149  -18.2311   25.6323 O   0  0  0  0  0  0  0  0  0  0  0  0
    9.3536  -16.4711   26.8309 O   0  0  0  0  0  0  0  0  0  0  0  0
  2  1  1  6
  2  4  1  0
  3  2  1  0
  4  5  1  1
  6  4  1  0
  7  6  2  0
  8  6  1  0
  9 12  1  0
  9  8  1  0
  9 10  1  6
 11 10  1  0
 12 14  1  0
 13 12  2  0
 14 15  1  0
 15 26  1  0
 15 16  1  6
 17 25  1  0
 17 16  1  0
 18 17  2  0
 19 18  1  0
 19 20  1  0
 20 25  2  0
 21 20  1  0
 21 22  2  0
 22 23  1  0
 23 24  2  0
 25 24  1  0
 26 28  2  0
 26 27  1  0
M  END
$$$$
