TCW.pdb
     RDKit          3D

 28 29  0  0  1  0  0  0  0  0999 V2000
    9.6474  -13.0814   20.2906 C   0  0  0  0  0  0  0  0  0  0  0  0
    8.3522  -12.9968   19.5433 C   0  0  1  0  0  0  0  0  0  0  0  0
    8.4087  -12.2869   18.3678 O   0  0  0  0  0  0  0  0  0  0  0  0
    7.8854  -14.4098   19.2242 C   0  0  2  0  0  0  0  0  0  0  0  0
    6.6013  -14.3815   18.5650 N   0  0  0  0  0  0  0  0  0  0  0  0
    7.8395  -15.2550   20.4562 C   0  0  0  0  0  0  0  0  0  0  0  0
    6.9628  -15.0570   21.3356 O   0  0  0  0  0  0  0  0  0  0  0  0
    8.7598  -16.3059   20.7017 N   0  0  0  0  0  0  0  0  0  0  0  0
    8.6627  -17.1755   21.8689 C   0  0  1  0  0  0  0  0  0  0  0  0
    9.0307  -18.5627   21.4447 C   0  0  0  0  0  0  0  0  0  0  0  0
    9.0012  -19.7105   22.8250 S   0  0  0  0  0  0  0  0  0  0  0  0
    9.4347  -16.6510   22.9968 C   0  0  0  0  0  0  0  0  0  0  0  0
   10.5403  -16.0756   22.7369 O   0  0  0  0  0  0  0  0  0  0  0  0
    9.0295  -16.7432   24.3641 N   0  0  0  0  0  0  0  0  0  0  0  0
    9.8929  -16.2896   25.4217 C   0  0  1  0  0  0  0  0  0  0  0  0
    9.2483  -15.5495   26.5286 C   0  0  0  0  0  0  0  0  0  0  0  0
    7.9595  -14.9251   26.2558 C   0  0  0  0  0  0  0  0  0  0  0  0
    6.7630  -15.5454   25.8899 C   0  0  0  0  0  0  0  0  0  0  0  0
    5.8162  -14.6158   25.7155 N   0  0  0  0  0  0  0  0  0  0  0  0
    6.3274  -13.3715   25.9516 C   0  0  0  0  0  0  0  0  0  0  0  0
    5.7520  -12.1273   25.9063 C   0  0  0  0  0  0  0  0  0  0  0  0
    6.4909  -11.0179   26.1980 C   0  0  0  0  0  0  0  0  0  0  0  0
    7.8169  -11.1723   26.5365 C   0  0  0  0  0  0  0  0  0  0  0  0
    8.3706  -12.4293   26.5748 C   0  0  0  0  0  0  0  0  0  0  0  0
    7.6558  -13.5862   26.2848 C   0  0  0  0  0  0  0  0  0  0  0  0
   10.7486  -17.4167   25.8777 C   0  0  0  0  0  0  0  0  0  0  0  0
   11.7902  -17.2169   26.7708 O   0  0  0  0  0  0  0  0  0  0  0  0
   10.5535  -18.5892   25.4665 O   0  0  0  0  0  0  0  0  0  0  0  0
  2  1  1  6
  2  4  1  0
  3  2  1  0
  4  5  1  1
  6  4  1  0
  7  6  2  0
  8  6  1  0
  9 12  1  0
  9  8  1  0
  9 10  1  6
 11 10  1  0
 12 14  1  0
 13 12  2  0
 14 15  1  0
 15 26  1  0
 15 16  1  1
 17 25  1  0
 17 16  1  0
 18 17  2  0
 19 18  1  0
 19 20  1  0
 20 25  2  0
 21 20  1  0
 21 22  2  0
 22 23  1  0
 23 24  2  0
 25 24  1  0
 26 28  2  0
 26 27  1  0
M  END
$$$$
