TCW.pdb
     RDKit          3D

 28 29  0  0  1  0  0  0  0  0999 V2000
    9.6138  -13.6398   16.7357 C   0  0  0  0  0  0  0  0  0  0  0  0
    9.4388  -14.2780   18.0793 C   0  0  1  0  0  0  0  0  0  0  0  0
   10.1487  -13.6865   19.0967 O   0  0  0  0  0  0  0  0  0  0  0  0
    7.9616  -14.2387   18.4440 C   0  0  2  0  0  0  0  0  0  0  0  0
    7.4717  -12.8809   18.4240 N   0  0  0  0  0  0  0  0  0  0  0  0
    7.7155  -14.8803   19.7715 C   0  0  0  0  0  0  0  0  0  0  0  0
    7.6237  -14.1813   20.8127 O   0  0  0  0  0  0  0  0  0  0  0  0
    7.5739  -16.2822   19.9327 N   0  0  0  0  0  0  0  0  0  0  0  0
    7.3667  -16.9040   21.2360 C   0  0  1  0  0  0  0  0  0  0  0  0
    7.0220  -18.3431   21.0130 C   0  0  0  0  0  0  0  0  0  0  0  0
    6.9039  -19.2464   22.5600 S   0  0  0  0  0  0  0  0  0  0  0  0
    8.5036  -16.6740   22.1292 C   0  0  0  0  0  0  0  0  0  0  0  0
    9.6629  -16.6218   21.6053 O   0  0  0  0  0  0  0  0  0  0  0  0
    8.3967  -16.5055   23.5442 N   0  0  0  0  0  0  0  0  0  0  0  0
    9.5561  -16.2052   24.3412 C   0  0  1  0  0  0  0  0  0  0  0  0
    9.4941  -14.9743   25.1595 C   0  0  0  0  0  0  0  0  0  0  0  0
    8.1844  -14.5599   25.6476 C   0  0  0  0  0  0  0  0  0  0  0  0
    7.0778  -15.3633   25.9307 C   0  0  0  0  0  0  0  0  0  0  0  0
    6.0632  -14.5930   26.3408 N   0  0  0  0  0  0  0  0  0  0  0  0
    6.4403  -13.2803   26.3484 C   0  0  0  0  0  0  0  0  0  0  0  0
    5.7603  -12.1398   26.6913 C   0  0  0  0  0  0  0  0  0  0  0  0
    6.3763  -10.9245   26.6175 C   0  0  0  0  0  0  0  0  0  0  0  0
    7.6857  -10.8674   26.1946 C   0  0  0  0  0  0  0  0  0  0  0  0
    8.3458  -12.0241   25.8564 C   0  0  0  0  0  0  0  0  0  0  0  0
    7.7575  -13.2826   25.9160 C   0  0  0  0  0  0  0  0  0  0  0  0
    9.9515  -17.4135   25.1121 C   0  0  0  0  0  0  0  0  0  0  0  0
   11.1470  -17.4639   25.8124 O   0  0  0  0  0  0  0  0  0  0  0  0
    9.2116  -18.4299   25.1528 O   0  0  0  0  0  0  0  0  0  0  0  0
  2  1  1  6
  2  4  1  0
  3  2  1  0
  4  5  1  1
  6  4  1  0
  7  6  2  0
  8  6  1  0
  9 12  1  0
  9  8  1  0
  9 10  1  6
 11 10  1  0
 12 14  1  0
 13 12  2  0
 14 15  1  0
 15 26  1  0
 15 16  1  1
 17 25  1  0
 17 16  1  0
 18 17  2  0
 19 18  1  0
 19 20  1  0
 20 25  2  0
 21 20  1  0
 21 22  2  0
 22 23  1  0
 23 24  2  0
 25 24  1  0
 26 28  2  0
 26 27  1  0
M  END
$$$$
