TCW.pdb
     RDKit          3D

 28 29  0  0  1  0  0  0  0  0999 V2000
    9.6741  -21.3550   20.0450 C   0  0  0  0  0  0  0  0  0  0  0  0
    9.7012  -20.0190   20.7212 C   0  0  1  0  0  0  0  0  0  0  0  0
   10.7748  -19.8150   21.5548 O   0  0  0  0  0  0  0  0  0  0  0  0
    9.7165  -18.9363   19.6516 C   0  0  2  0  0  0  0  0  0  0  0  0
   10.8503  -19.1079   18.7745 N   0  0  0  0  0  0  0  0  0  0  0  0
    9.7106  -17.5723   20.2631 C   0  0  0  0  0  0  0  0  0  0  0  0
   10.7838  -16.9349   20.4158 O   0  0  0  0  0  0  0  0  0  0  0  0
    8.5230  -16.9303   20.6974 N   0  0  0  0  0  0  0  0  0  0  0  0
    8.5308  -15.6231   21.3448 C   0  0  1  0  0  0  0  0  0  0  0  0
    7.1120  -15.1703   21.4914 C   0  0  0  0  0  0  0  0  0  0  0  0
    6.9985  -13.6139   22.3790 S   0  0  0  0  0  0  0  0  0  0  0  0
    9.3029  -15.6429   22.5886 C   0  0  0  0  0  0  0  0  0  0  0  0
   10.0664  -14.6515   22.8235 O   0  0  0  0  0  0  0  0  0  0  0  0
    9.2554  -16.6982   23.5510 N   0  0  0  0  0  0  0  0  0  0  0  0
    9.9397  -16.5793   24.8107 C   0  0  1  0  0  0  0  0  0  0  0  0
    9.6221  -15.3855   25.6246 C   0  0  0  0  0  0  0  0  0  0  0  0
    8.2165  -15.0242   25.7635 C   0  0  0  0  0  0  0  0  0  0  0  0
    7.0969  -15.8408   25.5908 C   0  0  0  0  0  0  0  0  0  0  0  0
    5.9870  -15.1212   25.7937 N   0  0  0  0  0  0  0  0  0  0  0  0
    6.3109  -13.8307   26.1019 C   0  0  0  0  0  0  0  0  0  0  0  0
    5.5308  -12.7410   26.3930 C   0  0  0  0  0  0  0  0  0  0  0  0
    6.1095  -11.5390   26.6800 C   0  0  0  0  0  0  0  0  0  0  0  0
    7.4833  -11.4436   26.6713 C   0  0  0  0  0  0  0  0  0  0  0  0
    8.2435  -12.5497   26.3765 C   0  0  0  0  0  0  0  0  0  0  0  0
    7.6965  -13.7928   26.0779 C   0  0  0  0  0  0  0  0  0  0  0  0
    9.8219  -17.8587   25.5590 C   0  0  0  0  0  0  0  0  0  0  0  0
    9.0204  -18.8926   25.0995 O   0  0  0  0  0  0  0  0  0  0  0  0
   10.4472  -18.0431   26.6346 O   0  0  0  0  0  0  0  0  0  0  0  0
  2  1  1  6
  2  4  1  0
  3  2  1  0
  4  5  1  1
  6  4  1  0
  7  6  2  0
  8  6  1  0
  9 12  1  0
  9  8  1  0
  9 10  1  1
 11 10  1  0
 12 14  1  0
 13 12  2  0
 14 15  1  0
 15 26  1  0
 15 16  1  1
 17 25  1  0
 17 16  1  0
 18 17  2  0
 19 18  1  0
 19 20  1  0
 20 25  2  0
 21 20  1  0
 21 22  2  0
 22 23  1  0
 23 24  2  0
 25 24  1  0
 26 28  2  0
 26 27  1  0
M  END
$$$$
