TCW.pdb
     RDKit          3D

 28 29  0  0  1  0  0  0  0  0999 V2000
    9.7675  -14.2244   15.8934 C   0  0  0  0  0  0  0  0  0  0  0  0
    9.4893  -14.7541   17.2663 C   0  0  1  0  0  0  0  0  0  0  0  0
   10.2748  -14.2223   18.2609 O   0  0  0  0  0  0  0  0  0  0  0  0
    8.0332  -14.4713   17.6073 C   0  0  2  0  0  0  0  0  0  0  0  0
    7.7525  -13.0597   17.4954 N   0  0  0  0  0  0  0  0  0  0  0  0
    7.6879  -14.9826   18.9689 C   0  0  0  0  0  0  0  0  0  0  0  0
    7.4954  -14.1851   19.9219 O   0  0  0  0  0  0  0  0  0  0  0  0
    7.5595  -16.3645   19.2609 N   0  0  0  0  0  0  0  0  0  0  0  0
    7.2890  -16.8591   20.6063 C   0  0  1  0  0  0  0  0  0  0  0  0
    6.8912  -18.2978   20.4995 C   0  0  0  0  0  0  0  0  0  0  0  0
    6.7632  -19.0743   22.1132 S   0  0  0  0  0  0  0  0  0  0  0  0
    8.4084  -16.5950   21.5122 C   0  0  0  0  0  0  0  0  0  0  0  0
    9.5857  -16.6885   21.0365 O   0  0  0  0  0  0  0  0  0  0  0  0
    8.2656  -16.2414   22.8894 N   0  0  0  0  0  0  0  0  0  0  0  0
    9.4081  -15.8585   23.6752 C   0  0  1  0  0  0  0  0  0  0  0  0
    9.2603  -14.6445   24.5076 C   0  0  0  0  0  0  0  0  0  0  0  0
    7.9967  -14.4655   25.2123 C   0  0  0  0  0  0  0  0  0  0  0  0
    7.0256  -15.4282   25.4960 C   0  0  0  0  0  0  0  0  0  0  0  0
    6.0065  -14.8529   26.1452 N   0  0  0  0  0  0  0  0  0  0  0  0
    6.2487  -13.5199   26.3172 C   0  0  0  0  0  0  0  0  0  0  0  0
    5.5132  -12.5312   26.9192 C   0  0  0  0  0  0  0  0  0  0  0  0
    5.9891  -11.2533   26.9666 C   0  0  0  0  0  0  0  0  0  0  0  0
    7.2146  -10.9788   26.4015 C   0  0  0  0  0  0  0  0  0  0  0  0
    7.9328  -11.9864   25.8039 C   0  0  0  0  0  0  0  0  0  0  0  0
    7.4865  -13.3014   25.7323 C   0  0  0  0  0  0  0  0  0  0  0  0
    9.9074  -17.0395   24.4280 C   0  0  0  0  0  0  0  0  0  0  0  0
    9.1773  -18.2164   24.4918 O   0  0  0  0  0  0  0  0  0  0  0  0
   11.0105  -17.0072   25.0317 O   0  0  0  0  0  0  0  0  0  0  0  0
  2  1  1  6
  2  4  1  0
  3  2  1  0
  4  5  1  1
  6  4  1  0
  7  6  2  0
  8  6  1  0
  9 12  1  0
  9  8  1  0
  9 10  1  6
 11 10  1  0
 12 14  1  0
 13 12  2  0
 14 15  1  0
 15 26  1  0
 15 16  1  1
 17 25  1  0
 17 16  1  0
 18 17  2  0
 19 18  1  0
 19 20  1  0
 20 25  2  0
 21 20  1  0
 21 22  2  0
 22 23  1  0
 23 24  2  0
 25 24  1  0
 26 28  2  0
 26 27  1  0
M  END
$$$$
