TCW.pdb
     RDKit          3D

 28 29  0  0  1  0  0  0  0  0999 V2000
    5.5764  -18.3642   23.4451 C   0  0  0  0  0  0  0  0  0  0  0  0
    5.9656  -19.5017   22.5520 C   0  0  1  0  0  0  0  0  0  0  0  0
    5.0889  -20.5602   22.5492 O   0  0  0  0  0  0  0  0  0  0  0  0
    6.0849  -18.9787   21.1277 C   0  0  2  0  0  0  0  0  0  0  0  0
    6.3614  -20.0608   20.2130 N   0  0  0  0  0  0  0  0  0  0  0  0
    7.1269  -17.9114   21.0295 C   0  0  0  0  0  0  0  0  0  0  0  0
    8.3489  -18.2079   21.0329 O   0  0  0  0  0  0  0  0  0  0  0  0
    6.8078  -16.5332   20.9288 N   0  0  0  0  0  0  0  0  0  0  0  0
    7.8147  -15.4848   21.0519 C   0  0  1  0  0  0  0  0  0  0  0  0
    7.2687  -14.2420   20.4221 C   0  0  0  0  0  0  0  0  0  0  0  0
    8.4644  -12.9030   20.4468 S   0  0  0  0  0  0  0  0  0  0  0  0
    8.2623  -15.3281   22.4371 C   0  0  0  0  0  0  0  0  0  0  0  0
    7.5833  -14.5599   23.1919 O   0  0  0  0  0  0  0  0  0  0  0  0
    9.4067  -15.9783   22.9936 N   0  0  0  0  0  0  0  0  0  0  0  0
    9.9724  -15.5369   24.2404 C   0  0  1  0  0  0  0  0  0  0  0  0
    9.2612  -15.9482   25.4706 C   0  0  0  0  0  0  0  0  0  0  0  0
    7.9174  -15.4212   25.6753 C   0  0  0  0  0  0  0  0  0  0  0  0
    6.6993  -16.0859   25.5190 C   0  0  0  0  0  0  0  0  0  0  0  0
    5.6956  -15.2426   25.7882 N   0  0  0  0  0  0  0  0  0  0  0  0
    6.1887  -14.0147   26.1262 C   0  0  0  0  0  0  0  0  0  0  0  0
    5.5614  -12.8484   26.4831 C   0  0  0  0  0  0  0  0  0  0  0  0
    6.2952  -11.7390   26.7871 C   0  0  0  0  0  0  0  0  0  0  0  0
    7.6691  -11.8141   26.7288 C   0  0  0  0  0  0  0  0  0  0  0  0
    8.2745  -12.9939   26.3684 C   0  0  0  0  0  0  0  0  0  0  0  0
    7.5665  -14.1476   26.0501 C   0  0  0  0  0  0  0  0  0  0  0  0
   11.4261  -15.8487   24.2605 C   0  0  0  0  0  0  0  0  0  0  0  0
   12.2434  -15.4146   25.2929 O   0  0  0  0  0  0  0  0  0  0  0  0
   11.9606  -16.5176   23.3392 O   0  0  0  0  0  0  0  0  0  0  0  0
  2  1  1  1
  2  4  1  0
  3  2  1  0
  4  5  1  6
  6  4  1  0
  7  6  2  0
  8  6  1  0
  9 12  1  0
  9  8  1  0
  9 10  1  1
 11 10  1  0
 12 14  1  0
 13 12  2  0
 14 15  1  0
 15 26  1  0
 15 16  1  1
 17 25  1  0
 17 16  1  0
 18 17  2  0
 19 18  1  0
 19 20  1  0
 20 25  2  0
 21 20  1  0
 21 22  2  0
 22 23  1  0
 23 24  2  0
 25 24  1  0
 26 28  2  0
 26 27  1  0
M  END
$$$$
