CDG.pdb
     RDKit          3D

 19 18  0  0  1  0  0  0  0  0999 V2000
    7.4312  -13.4611   18.3049 N   0  0  0  0  0  0  0  0  0  0  0  0
    8.2282  -13.4167   19.5118 C   0  0  1  0  0  0  0  0  0  0  0  0
    7.3008  -13.1068   20.6764 C   0  0  0  0  0  0  0  0  0  0  0  0
    8.1956  -13.1371   22.2356 S   0  0  0  0  0  0  0  0  0  0  0  0
    8.7637  -14.7886   19.7215 C   0  0  0  0  0  0  0  0  0  0  0  0
    8.0327  -15.7599   19.4044 O   0  0  0  0  0  0  0  0  0  0  0  0
   10.0330  -15.0611   20.2508 N   0  0  0  0  0  0  0  0  0  0  0  0
   10.4963  -16.4823   20.3975 C   0  0  1  0  0  0  0  0  0  0  0  0
   11.8702  -16.5289   19.8133 C   0  0  0  0  0  0  0  0  0  0  0  0
   12.1936  -17.4858   18.7974 C   0  0  0  0  0  0  0  0  0  0  0  0
   11.7483  -18.6342   18.6232 O   0  0  0  0  0  0  0  0  0  0  0  0
   10.4160  -16.7366   21.8520 C   0  0  0  0  0  0  0  0  0  0  0  0
   10.4190  -17.9487   22.2840 O   0  0  0  0  0  0  0  0  0  0  0  0
   13.1633  -17.1170   17.8173 O   0  0  0  0  0  0  0  0  0  0  0  0
   10.3379  -15.7679   22.8704 N   0  0  0  0  0  0  0  0  0  0  0  0
   10.3398  -16.1674   24.2942 C   0  0  0  0  0  0  0  0  0  0  0  0
   11.7423  -16.4434   24.7327 C   0  0  0  0  0  0  0  0  0  0  0  0
   12.6965  -16.3909   23.9204 O   0  0  0  0  0  0  0  0  0  0  0  0
   12.0260  -16.7657   26.0522 O   0  0  0  0  0  0  0  0  0  0  0  0
  2  1  1  6
  3  2  1  0
  4  3  1  0
  5  2  1  0
  5  6  2  0
  7  5  1  0
  8  7  1  0
  8  9  1  1
 10  9  1  0
 10 14  1  0
 11 10  2  0
 12  8  1  0
 13 12  2  0
 15 12  1  0
 16 15  1  0
 17 16  1  0
 17 19  1  0
 18 17  2  0
M  END
$$$$
