CDG.pdb
     RDKit          3D

 19 18  0  0  1  0  0  0  0  0999 V2000
    5.4837  -13.9884   25.8795 N   0  0  0  0  0  0  0  0  0  0  0  0
    6.7777  -13.5452   25.4073 C   0  0  1  0  0  0  0  0  0  0  0  0
    7.4787  -12.8347   26.5546 C   0  0  0  0  0  0  0  0  0  0  0  0
    6.7763  -11.2016   26.8236 S   0  0  0  0  0  0  0  0  0  0  0  0
    7.5621  -14.7703   25.0962 C   0  0  0  0  0  0  0  0  0  0  0  0
    7.3077  -15.8129   25.7491 O   0  0  0  0  0  0  0  0  0  0  0  0
    8.5661  -14.8299   24.1195 N   0  0  0  0  0  0  0  0  0  0  0  0
    9.3429  -16.0995   23.9174 C   0  0  1  0  0  0  0  0  0  0  0  0
   10.0637  -15.9378   22.6191 C   0  0  0  0  0  0  0  0  0  0  0  0
    9.3642  -16.0897   21.3782 C   0  0  0  0  0  0  0  0  0  0  0  0
    8.5790  -16.9850   21.0183 O   0  0  0  0  0  0  0  0  0  0  0  0
   10.2051  -16.1862   25.1156 C   0  0  0  0  0  0  0  0  0  0  0  0
   10.8791  -15.1549   25.4867 O   0  0  0  0  0  0  0  0  0  0  0  0
    9.5628  -15.0954   20.3738 O   0  0  0  0  0  0  0  0  0  0  0  0
   10.3830  -17.3119   25.9420 N   0  0  0  0  0  0  0  0  0  0  0  0
   11.2355  -17.2361   27.1479 C   0  0  0  0  0  0  0  0  0  0  0  0
   11.2346  -18.5598   27.8431 C   0  0  0  0  0  0  0  0  0  0  0  0
   10.5683  -19.5244   27.3973 O   0  0  0  0  0  0  0  0  0  0  0  0
   11.9719  -18.7567   29.0020 O   0  0  0  0  0  0  0  0  0  0  0  0
  2  1  1  1
  3  2  1  0
  4  3  1  0
  5  2  1  0
  5  6  2  0
  7  5  1  0
  8  7  1  0
  8  9  1  6
 10  9  1  0
 10 14  1  0
 11 10  2  0
 12  8  1  0
 13 12  2  0
 15 12  1  0
 16 15  1  0
 17 16  1  0
 17 19  1  0
 18 17  2  0
M  END
$$$$
