CDG.pdb
     RDKit          3D

 19 18  0  0  1  0  0  0  0  0999 V2000
    7.3148  -15.8356   20.5042 N   0  0  0  0  0  0  0  0  0  0  0  0
    7.9466  -15.0657   21.5539 C   0  0  1  0  0  0  0  0  0  0  0  0
    6.8850  -14.7174   22.5854 C   0  0  0  0  0  0  0  0  0  0  0  0
    7.5763  -13.7074   23.9026 S   0  0  0  0  0  0  0  0  0  0  0  0
    8.9295  -15.9670   22.2130 C   0  0  0  0  0  0  0  0  0  0  0  0
    8.5631  -17.1372   22.4860 O   0  0  0  0  0  0  0  0  0  0  0  0
   10.2376  -15.5887   22.5466 N   0  0  0  0  0  0  0  0  0  0  0  0
   11.1606  -16.5753   23.2029 C   0  0  1  0  0  0  0  0  0  0  0  0
   12.5459  -16.1198   22.8793 C   0  0  0  0  0  0  0  0  0  0  0  0
   13.1663  -16.5057   21.6471 C   0  0  0  0  0  0  0  0  0  0  0  0
   13.8399  -15.8238   20.8542 O   0  0  0  0  0  0  0  0  0  0  0  0
   10.7904  -16.5152   24.6333 C   0  0  0  0  0  0  0  0  0  0  0  0
   10.4485  -15.3884   25.1520 O   0  0  0  0  0  0  0  0  0  0  0  0
   13.0202  -17.8601   21.2215 O   0  0  0  0  0  0  0  0  0  0  0  0
   10.7603  -17.5928   25.5385 N   0  0  0  0  0  0  0  0  0  0  0  0
   10.3999  -17.3779   26.9564 C   0  0  0  0  0  0  0  0  0  0  0  0
   10.4353  -18.6840   27.6833 C   0  0  0  0  0  0  0  0  0  0  0  0
   10.6608  -19.7574   27.0748 O   0  0  0  0  0  0  0  0  0  0  0  0
   10.2189  -18.7437   29.0526 O   0  0  0  0  0  0  0  0  0  0  0  0
  2  1  1  6
  3  2  1  0
  4  3  1  0
  5  2  1  0
  5  6  2  0
  7  5  1  0
  8  7  1  0
  8  9  1  1
 10  9  1  0
 10 14  1  0
 11 10  2  0
 12  8  1  0
 13 12  2  0
 15 12  1  0
 16 15  1  0
 17 16  1  0
 17 19  1  0
 18 17  2  0
M  END
$$$$
