CDG.pdb
     RDKit          3D

 19 18  0  0  1  0  0  0  0  0999 V2000
    6.2306  -14.3699   20.4993 N   0  0  0  0  0  0  0  0  0  0  0  0
    7.4490  -14.9885   20.0234 C   0  0  1  0  0  0  0  0  0  0  0  0
    8.1667  -13.9879   19.1311 C   0  0  0  0  0  0  0  0  0  0  0  0
    8.4199  -12.4282   19.9891 S   0  0  0  0  0  0  0  0  0  0  0  0
    8.3072  -15.2169   21.2167 C   0  0  0  0  0  0  0  0  0  0  0  0
    8.0598  -14.5536   22.2545 O   0  0  0  0  0  0  0  0  0  0  0  0
    9.3733  -16.1268   21.2517 N   0  0  0  0  0  0  0  0  0  0  0  0
   10.1243  -16.3549   22.5323 C   0  0  1  0  0  0  0  0  0  0  0  0
    9.6128  -17.6452   23.0842 C   0  0  0  0  0  0  0  0  0  0  0  0
    9.7021  -18.8493   22.3132 C   0  0  0  0  0  0  0  0  0  0  0  0
   10.6823  -19.3397   21.7246 O   0  0  0  0  0  0  0  0  0  0  0  0
   11.5440  -16.3597   22.1187 C   0  0  0  0  0  0  0  0  0  0  0  0
   11.8595  -16.7760   20.9428 O   0  0  0  0  0  0  0  0  0  0  0  0
    8.5217  -19.6382   22.1679 O   0  0  0  0  0  0  0  0  0  0  0  0
   12.6443  -15.9397   22.8898 N   0  0  0  0  0  0  0  0  0  0  0  0
   13.9215  -16.6841   22.8512 C   0  0  0  0  0  0  0  0  0  0  0  0
   14.9376  -15.9744   23.6873 C   0  0  0  0  0  0  0  0  0  0  0  0
   15.9493  -15.4462   23.1669 O   0  0  0  0  0  0  0  0  0  0  0  0
   14.7885  -15.8811   25.0638 O   0  0  0  0  0  0  0  0  0  0  0  0
  2  1  1  1
  3  2  1  0
  4  3  1  0
  5  2  1  0
  5  6  2  0
  7  5  1  0
  8  7  1  0
  8  9  1  6
 10  9  1  0
 10 14  1  0
 11 10  2  0
 12  8  1  0
 13 12  2  0
 15 12  1  0
 16 15  1  0
 17 16  1  0
 17 19  1  0
 18 17  2  0
M  END
$$$$
