CDG.pdb
     RDKit          3D

 19 18  0  0  1  0  0  0  0  0999 V2000
    5.3748  -13.7738   25.6797 N   0  0  0  0  0  0  0  0  0  0  0  0
    6.7225  -13.4140   25.2950 C   0  0  1  0  0  0  0  0  0  0  0  0
    7.3886  -12.7445   26.4869 C   0  0  0  0  0  0  0  0  0  0  0  0
    6.6634  -11.1302   26.8049 S   0  0  0  0  0  0  0  0  0  0  0  0
    7.4478  -14.6868   25.0362 C   0  0  0  0  0  0  0  0  0  0  0  0
    6.9931  -15.7379   25.5524 O   0  0  0  0  0  0  0  0  0  0  0  0
    8.6060  -14.7823   24.2520 N   0  0  0  0  0  0  0  0  0  0  0  0
    9.2275  -16.1245   23.9906 C   0  0  1  0  0  0  0  0  0  0  0  0
   10.1294  -15.9375   22.8147 C   0  0  0  0  0  0  0  0  0  0  0  0
    9.5848  -15.8216   21.4949 C   0  0  0  0  0  0  0  0  0  0  0  0
    8.6626  -16.4639   20.9615 O   0  0  0  0  0  0  0  0  0  0  0  0
    9.9035  -16.4597   25.2623 C   0  0  0  0  0  0  0  0  0  0  0  0
   10.6093  -15.5647   25.8593 O   0  0  0  0  0  0  0  0  0  0  0  0
   10.1473  -14.8406   20.6242 O   0  0  0  0  0  0  0  0  0  0  0  0
    9.8631  -17.6963   25.9338 N   0  0  0  0  0  0  0  0  0  0  0  0
   10.4242  -17.8350   27.2948 C   0  0  0  0  0  0  0  0  0  0  0  0
   11.8048  -18.4027   27.2094 C   0  0  0  0  0  0  0  0  0  0  0  0
   12.3505  -18.6131   26.0998 O   0  0  0  0  0  0  0  0  0  0  0  0
   12.5203  -18.7126   28.3572 O   0  0  0  0  0  0  0  0  0  0  0  0
  2  1  1  1
  3  2  1  0
  4  3  1  0
  5  2  1  0
  5  6  2  0
  7  5  1  0
  8  7  1  0
  8  9  1  6
 10  9  1  0
 10 14  1  0
 11 10  2  0
 12  8  1  0
 13 12  2  0
 15 12  1  0
 16 15  1  0
 17 16  1  0
 17 19  1  0
 18 17  2  0
M  END
$$$$
