CDG.pdb
     RDKit          3D

 19 18  0  0  1  0  0  0  0  0999 V2000
    7.3085  -15.2887   20.6781 N   0  0  0  0  0  0  0  0  0  0  0  0
    8.0451  -14.7990   21.8233 C   0  0  1  0  0  0  0  0  0  0  0  0
    7.0460  -14.4877   22.9267 C   0  0  0  0  0  0  0  0  0  0  0  0
    7.8574  -13.6982   24.3236 S   0  0  0  0  0  0  0  0  0  0  0  0
    8.8962  -15.9232   22.2971 C   0  0  0  0  0  0  0  0  0  0  0  0
    8.3787  -17.0662   22.3606 O   0  0  0  0  0  0  0  0  0  0  0  0
   10.2387  -15.7830   22.6761 N   0  0  0  0  0  0  0  0  0  0  0  0
   10.9799  -16.9510   23.2613 C   0  0  1  0  0  0  0  0  0  0  0  0
   12.3149  -16.9675   22.5916 C   0  0  0  0  0  0  0  0  0  0  0  0
   12.4094  -16.9322   21.1627 C   0  0  0  0  0  0  0  0  0  0  0  0
   11.8548  -17.6556   20.3161 O   0  0  0  0  0  0  0  0  0  0  0  0
   11.0012  -16.6705   24.7130 C   0  0  0  0  0  0  0  0  0  0  0  0
   12.0201  -16.0770   25.2283 O   0  0  0  0  0  0  0  0  0  0  0  0
   13.2499  -15.9407   20.5734 O   0  0  0  0  0  0  0  0  0  0  0  0
    9.9925  -16.9842   25.6435 N   0  0  0  0  0  0  0  0  0  0  0  0
    9.8924  -18.3425   26.2192 C   0  0  0  0  0  0  0  0  0  0  0  0
   10.9225  -18.5071   27.2904 C   0  0  0  0  0  0  0  0  0  0  0  0
   10.5987  -18.5265   28.5020 O   0  0  0  0  0  0  0  0  0  0  0  0
   12.2663  -18.6427   26.9722 O   0  0  0  0  0  0  0  0  0  0  0  0
  2  1  1  6
  3  2  1  0
  4  3  1  0
  5  2  1  0
  5  6  2  0
  7  5  1  0
  8  7  1  0
  8  9  1  6
 10  9  1  0
 10 14  1  0
 11 10  2  0
 12  8  1  0
 13 12  2  0
 15 12  1  0
 16 15  1  0
 17 16  1  0
 17 19  1  0
 18 17  2  0
M  END
$$$$
