TDN.pdb
     RDKit          3D

 24 23  0  0  1  0  0  0  0  0999 V2000
   14.7491  -17.4500   14.4189 C   0  0  0  0  0  0  0  0  0  0  0  0
   13.9056  -16.5333   13.5811 C   0  0  1  0  0  0  0  0  0  0  0  0
   13.9941  -17.0024   12.2647 O   0  0  0  0  0  0  0  0  0  0  0  0
   12.4368  -16.5144   14.0205 C   0  0  2  0  0  0  0  0  0  0  0  0
   11.7947  -15.5588   13.0900 N   0  0  0  0  0  0  0  0  0  0  0  0
   12.3416  -15.9570   15.3729 C   0  0  0  0  0  0  0  0  0  0  0  0
   12.7389  -14.7618   15.5634 O   0  0  0  0  0  0  0  0  0  0  0  0
   11.8399  -16.6254   16.5173 N   0  0  0  0  0  0  0  0  0  0  0  0
   11.8458  -15.9846   17.7924 C   0  0  1  0  0  0  0  0  0  0  0  0
   10.8165  -16.5491   18.7411 C   0  0  0  0  0  0  0  0  0  0  0  0
   10.9140  -15.9819   20.0979 C   0  0  0  0  0  0  0  0  0  0  0  0
   11.4449  -14.8652   20.2654 O   0  0  0  0  0  0  0  0  0  0  0  0
   13.1666  -16.1579   18.4949 C   0  0  0  0  0  0  0  0  0  0  0  0
   13.7073  -17.2805   18.4183 O   0  0  0  0  0  0  0  0  0  0  0  0
   10.4275  -16.6639   21.1927 O   0  0  0  0  0  0  0  0  0  0  0  0
   15.5338  -12.6818   17.5368 N   0  0  0  0  0  0  0  0  0  0  0  0
   16.2170  -13.7097   18.2459 C   0  0  0  0  0  0  0  0  0  0  0  0
   17.1036  -14.4064   17.7069 O   0  0  0  0  0  0  0  0  0  0  0  0
   15.8329  -13.9245   19.6630 C   0  0  0  0  0  0  0  0  0  0  0  0
   15.0663  -15.2452   19.8095 C   0  0  2  0  0  0  0  0  0  0  0  0
   13.7711  -15.1036   19.2094 N   0  0  0  0  0  0  0  0  0  0  0  0
   14.9972  -15.6318   21.2367 C   0  0  0  0  0  0  0  0  0  0  0  0
   16.1194  -15.8884   21.9821 O   0  0  0  0  0  0  0  0  0  0  0  0
   13.8736  -15.7396   21.8253 O   0  0  0  0  0  0  0  0  0  0  0  0
  2  1  1  1
  3  2  1  0
  4  2  1  0
  4  6  1  0
  4  5  1  6
  6  7  2  0
  8  9  1  0
  8  6  1  0
  9 13  1  0
  9 10  1  1
 11 10  1  0
 11 15  1  0
 12 11  2  0
 13 14  2  0
 17 16  1  0
 17 18  2  0
 19 17  1  0
 20 19  1  1
 21 20  1  0
 21 13  1  0
 22 23  1  0
 22 20  1  0
 24 22  2  0
M  END
$$$$
