TDN.pdb
     RDKit          3D

 24 23  0  0  1  0  0  0  0  0999 V2000
   10.9406  -20.7692   14.3690 C   0  0  0  0  0  0  0  0  0  0  0  0
   10.3606  -22.1499   14.4735 C   0  0  1  0  0  0  0  0  0  0  0  0
   11.4448  -23.0331   14.5481 O   0  0  0  0  0  0  0  0  0  0  0  0
    9.4708  -22.3257   15.7096 C   0  0  2  0  0  0  0  0  0  0  0  0
    8.2573  -21.5385   15.3946 N   0  0  0  0  0  0  0  0  0  0  0  0
   10.1203  -21.7052   16.8680 C   0  0  0  0  0  0  0  0  0  0  0  0
   10.7900  -20.6371   16.6852 O   0  0  0  0  0  0  0  0  0  0  0  0
   10.0782  -22.1809   18.2021 N   0  0  0  0  0  0  0  0  0  0  0  0
   10.7817  -21.4973   19.2385 C   0  0  1  0  0  0  0  0  0  0  0  0
    9.9939  -21.4015   20.5224 C   0  0  0  0  0  0  0  0  0  0  0  0
    9.2801  -20.1199   20.6640 C   0  0  0  0  0  0  0  0  0  0  0  0
    8.4951  -19.9506   21.6191 O   0  0  0  0  0  0  0  0  0  0  0  0
   12.0549  -22.2109   19.6095 C   0  0  0  0  0  0  0  0  0  0  0  0
   12.6396  -22.8375   18.7018 O   0  0  0  0  0  0  0  0  0  0  0  0
    9.4631  -19.0977   19.7573 O   0  0  0  0  0  0  0  0  0  0  0  0
   16.8410  -21.9119   19.8148 N   0  0  0  0  0  0  0  0  0  0  0  0
   16.0925  -21.0077   20.6200 C   0  0  0  0  0  0  0  0  0  0  0  0
   16.6423  -20.2540   21.4517 O   0  0  0  0  0  0  0  0  0  0  0  0
   14.6206  -20.9939   20.4324 C   0  0  0  0  0  0  0  0  0  0  0  0
   13.9807  -22.1721   21.1780 C   0  0  2  0  0  0  0  0  0  0  0  0
   12.5693  -22.1771   20.9217 N   0  0  0  0  0  0  0  0  0  0  0  0
   14.3007  -22.0886   22.6208 C   0  0  0  0  0  0  0  0  0  0  0  0
   15.1374  -22.9820   23.2393 O   0  0  0  0  0  0  0  0  0  0  0  0
   13.7996  -21.1683   23.3436 O   0  0  0  0  0  0  0  0  0  0  0  0
  2  1  1  1
  3  2  1  0
  4  2  1  0
  4  6  1  0
  4  5  1  6
  6  7  2  0
  8  9  1  0
  8  6  1  0
  9 13  1  0
  9 10  1  1
 11 10  1  0
 11 15  1  0
 12 11  2  0
 13 14  2  0
 17 16  1  0
 17 18  2  0
 19 17  1  0
 20 19  1  6
 21 20  1  0
 21 13  1  0
 22 23  1  0
 22 20  1  0
 24 22  2  0
M  END
$$$$
