TDN.pdb
     RDKit          3D

 24 23  0  0  1  0  0  0  0  0999 V2000
    8.5408  -12.4513   19.9090 C   0  0  0  0  0  0  0  0  0  0  0  0
    7.9622  -13.2942   18.8096 C   0  0  1  0  0  0  0  0  0  0  0  0
    8.0384  -12.5295   17.6390 O   0  0  0  0  0  0  0  0  0  0  0  0
    8.7220  -14.6110   18.6117 C   0  0  2  0  0  0  0  0  0  0  0  0
    7.9425  -15.3242   17.5746 N   0  0  0  0  0  0  0  0  0  0  0  0
    8.6556  -15.4003   19.8452 C   0  0  0  0  0  0  0  0  0  0  0  0
    7.6071  -16.0891   20.0663 O   0  0  0  0  0  0  0  0  0  0  0  0
    9.6616  -15.4795   20.8400 N   0  0  0  0  0  0  0  0  0  0  0  0
    9.4628  -16.2700   22.0113 C   0  0  1  0  0  0  0  0  0  0  0  0
   10.4980  -17.3566   22.1725 C   0  0  0  0  0  0  0  0  0  0  0  0
   10.2718  -18.1930   23.3647 C   0  0  0  0  0  0  0  0  0  0  0  0
   10.8501  -17.9147   24.4349 O   0  0  0  0  0  0  0  0  0  0  0  0
    9.5630  -15.4409   23.2645 C   0  0  0  0  0  0  0  0  0  0  0  0
   10.6175  -14.7947   23.4348 O   0  0  0  0  0  0  0  0  0  0  0  0
    9.4291  -19.2831   23.3217 O   0  0  0  0  0  0  0  0  0  0  0  0
    8.5528  -12.8393   27.4136 N   0  0  0  0  0  0  0  0  0  0  0  0
    7.3273  -12.8840   26.6908 C   0  0  0  0  0  0  0  0  0  0  0  0
    6.3500  -12.1703   27.0035 O   0  0  0  0  0  0  0  0  0  0  0  0
    7.2534  -13.8191   25.5410 C   0  0  0  0  0  0  0  0  0  0  0  0
    8.5885  -14.5553   25.3707 C   0  0  2  0  0  0  0  0  0  0  0  0
    8.5164  -15.3921   24.2078 N   0  0  0  0  0  0  0  0  0  0  0  0
    8.9069  -15.3123   26.6022 C   0  0  0  0  0  0  0  0  0  0  0  0
    9.3949  -14.7049   27.7309 O   0  0  0  0  0  0  0  0  0  0  0  0
    8.7341  -16.5726   26.6514 O   0  0  0  0  0  0  0  0  0  0  0  0
  2  1  1  1
  3  2  1  0
  4  2  1  0
  4  6  1  0
  4  5  1  6
  6  7  2  0
  8  9  1  0
  8  6  1  0
  9 13  1  0
  9 10  1  1
 11 10  1  0
 11 15  1  0
 12 11  2  0
 13 14  2  0
 17 16  1  0
 17 18  2  0
 19 17  1  0
 20 19  1  1
 21 20  1  0
 21 13  1  0
 22 23  1  0
 22 20  1  0
 24 22  2  0
M  END
$$$$
