TDN.pdb
     RDKit          3D

 24 23  0  0  1  0  0  0  0  0999 V2000
    8.7987  -12.6753   21.4758 C   0  0  0  0  0  0  0  0  0  0  0  0
    7.7432  -13.5327   20.8398 C   0  0  1  0  0  0  0  0  0  0  0  0
    7.1691  -12.7660   19.8183 O   0  0  0  0  0  0  0  0  0  0  0  0
    8.3106  -14.8292   20.2500 C   0  0  2  0  0  0  0  0  0  0  0  0
    7.1197  -15.5420   19.7349 N   0  0  0  0  0  0  0  0  0  0  0  0
    8.8886  -15.6401   21.3257 C   0  0  0  0  0  0  0  0  0  0  0  0
    8.1044  -16.3491   22.0363 O   0  0  0  0  0  0  0  0  0  0  0  0
   10.2623  -15.7199   21.6641 N   0  0  0  0  0  0  0  0  0  0  0  0
   10.7161  -16.6592   22.6379 C   0  0  1  0  0  0  0  0  0  0  0  0
   12.0208  -17.3173   22.2597 C   0  0  0  0  0  0  0  0  0  0  0  0
   12.4958  -18.2755   23.2737 C   0  0  0  0  0  0  0  0  0  0  0  0
   11.6878  -19.0605   23.8102 O   0  0  0  0  0  0  0  0  0  0  0  0
   10.9778  -15.9996   23.9662 C   0  0  0  0  0  0  0  0  0  0  0  0
   11.6554  -14.9511   23.9556 O   0  0  0  0  0  0  0  0  0  0  0  0
   13.8229  -18.3227   23.6439 O   0  0  0  0  0  0  0  0  0  0  0  0
   10.2882  -13.1982   28.2279 N   0  0  0  0  0  0  0  0  0  0  0  0
    9.8252  -14.5440   28.2497 C   0  0  0  0  0  0  0  0  0  0  0  0
    9.6614  -15.1685   29.3199 O   0  0  0  0  0  0  0  0  0  0  0  0
    9.5416  -15.1835   26.9411 C   0  0  0  0  0  0  0  0  0  0  0  0
   10.7799  -15.9389   26.4415 C   0  0  2  0  0  0  0  0  0  0  0  0
   10.4828  -16.5368   25.1719 N   0  0  0  0  0  0  0  0  0  0  0  0
   11.2086  -16.9291   27.4548 C   0  0  0  0  0  0  0  0  0  0  0  0
   11.0574  -18.2797   27.2702 O   0  0  0  0  0  0  0  0  0  0  0  0
   11.7401  -16.5498   28.5476 O   0  0  0  0  0  0  0  0  0  0  0  0
  2  1  1  6
  3  2  1  0
  4  2  1  0
  4  6  1  0
  4  5  1  1
  6  7  2  0
  8  9  1  0
  8  6  1  0
  9 13  1  0
  9 10  1  6
 11 10  1  0
 11 15  1  0
 12 11  2  0
 13 14  2  0
 17 16  1  0
 17 18  2  0
 19 17  1  0
 20 19  1  1
 21 20  1  0
 21 13  1  0
 22 23  1  0
 22 20  1  0
 24 22  2  0
M  END
$$$$
