TDN.pdb
     RDKit          3D

 24 23  0  0  1  0  0  0  0  0999 V2000
    7.2367  -12.2199   19.5571 C   0  0  0  0  0  0  0  0  0  0  0  0
    8.1813  -13.3504   19.8455 C   0  0  1  0  0  0  0  0  0  0  0  0
    8.1747  -13.5309   21.2341 O   0  0  0  0  0  0  0  0  0  0  0  0
    7.7682  -14.6567   19.1571 C   0  0  2  0  0  0  0  0  0  0  0  0
    6.4658  -14.9932   19.7752 N   0  0  0  0  0  0  0  0  0  0  0  0
    8.7196  -15.7142   19.5109 C   0  0  0  0  0  0  0  0  0  0  0  0
    8.4264  -16.4932   20.4753 O   0  0  0  0  0  0  0  0  0  0  0  0
    9.9606  -15.9667   18.8752 N   0  0  0  0  0  0  0  0  0  0  0  0
   10.8336  -16.9832   19.3662 C   0  0  1  0  0  0  0  0  0  0  0  0
   12.0432  -17.1965   18.4890 C   0  0  0  0  0  0  0  0  0  0  0  0
   12.8609  -18.3486   18.9084 C   0  0  0  0  0  0  0  0  0  0  0  0
   12.4600  -19.0900   19.8286 O   0  0  0  0  0  0  0  0  0  0  0  0
   11.3870  -16.6325   20.7223 C   0  0  0  0  0  0  0  0  0  0  0  0
   12.0466  -15.5762   20.8104 O   0  0  0  0  0  0  0  0  0  0  0  0
   14.0670  -18.6260   18.3012 O   0  0  0  0  0  0  0  0  0  0  0  0
   10.7422  -15.5547   25.9186 N   0  0  0  0  0  0  0  0  0  0  0  0
   10.7766  -16.9175   25.5091 C   0  0  0  0  0  0  0  0  0  0  0  0
   11.1337  -17.8309   26.2839 O   0  0  0  0  0  0  0  0  0  0  0  0
   10.3683  -17.2154   24.1139 C   0  0  0  0  0  0  0  0  0  0  0  0
   11.5620  -17.0463   23.1653 C   0  0  2  0  0  0  0  0  0  0  0  0
   11.1736  -17.4559   21.8466 N   0  0  0  0  0  0  0  0  0  0  0  0
   12.7257  -17.8024   23.6804 C   0  0  0  0  0  0  0  0  0  0  0  0
   13.2995  -18.8323   22.9797 O   0  0  0  0  0  0  0  0  0  0  0  0
   13.2378  -17.5139   24.8096 O   0  0  0  0  0  0  0  0  0  0  0  0
  2  1  1  1
  3  2  1  0
  4  2  1  0
  4  6  1  0
  4  5  1  1
  6  7  2  0
  8  9  1  0
  8  6  1  0
  9 13  1  0
  9 10  1  6
 11 10  1  0
 11 15  1  0
 12 11  2  0
 13 14  2  0
 17 16  1  0
 17 18  2  0
 19 17  1  0
 20 19  1  1
 21 20  1  0
 21 13  1  0
 22 23  1  0
 22 20  1  0
 24 22  2  0
M  END
$$$$
