TDN.pdb
     RDKit          3D

 24 23  0  0  1  0  0  0  0  0999 V2000
    8.9645  -15.7330   17.5396 C   0  0  0  0  0  0  0  0  0  0  0  0
    8.7865  -14.2482   17.6711 C   0  0  1  0  0  0  0  0  0  0  0  0
    8.1065  -13.8250   16.5225 O   0  0  0  0  0  0  0  0  0  0  0  0
    7.9819  -13.8569   18.9162 C   0  0  2  0  0  0  0  0  0  0  0  0
    7.9310  -12.3784   18.8622 N   0  0  0  0  0  0  0  0  0  0  0  0
    8.7307  -14.2368   20.1177 C   0  0  0  0  0  0  0  0  0  0  0  0
    9.6556  -13.4607   20.5241 O   0  0  0  0  0  0  0  0  0  0  0  0
    8.5265  -15.4050   20.8934 N   0  0  0  0  0  0  0  0  0  0  0  0
    9.4492  -15.7638   21.9211 C   0  0  1  0  0  0  0  0  0  0  0  0
    9.0528  -17.0202   22.6575 C   0  0  0  0  0  0  0  0  0  0  0  0
   10.0007  -17.3827   23.7263 C   0  0  0  0  0  0  0  0  0  0  0  0
   10.6810  -18.4238   23.6236 O   0  0  0  0  0  0  0  0  0  0  0  0
   10.8186  -16.0492   21.3630 C   0  0  0  0  0  0  0  0  0  0  0  0
   10.8752  -16.7299   20.3180 O   0  0  0  0  0  0  0  0  0  0  0  0
   10.1524  -16.5903   24.8441 O   0  0  0  0  0  0  0  0  0  0  0  0
   13.6197  -16.1538   18.8050 N   0  0  0  0  0  0  0  0  0  0  0  0
   13.9028  -14.8281   19.2393 C   0  0  0  0  0  0  0  0  0  0  0  0
   14.2664  -13.9361   18.4430 O   0  0  0  0  0  0  0  0  0  0  0  0
   13.7484  -14.5429   20.6873 C   0  0  0  0  0  0  0  0  0  0  0  0
   13.2896  -15.8047   21.4295 C   0  0  2  0  0  0  0  0  0  0  0  0
   11.9889  -15.5723   21.9880 N   0  0  0  0  0  0  0  0  0  0  0  0
   14.2927  -16.1808   22.4510 C   0  0  0  0  0  0  0  0  0  0  0  0
   15.5885  -16.4917   22.1268 O   0  0  0  0  0  0  0  0  0  0  0  0
   13.9767  -16.2277   23.6833 O   0  0  0  0  0  0  0  0  0  0  0  0
  2  1  1  6
  3  2  1  0
  4  2  1  0
  4  6  1  0
  4  5  1  1
  6  7  2  0
  8  9  1  0
  8  6  1  0
  9 13  1  0
  9 10  1  6
 11 10  1  0
 11 15  1  0
 12 11  2  0
 13 14  2  0
 17 16  1  0
 17 18  2  0
 19 17  1  0
 20 19  1  1
 21 20  1  0
 21 13  1  0
 22 23  1  0
 22 20  1  0
 24 22  2  0
M  END
$$$$
