TDN.pdb
     RDKit          3D

 24 23  0  0  1  0  0  0  0  0999 V2000
    9.2811  -15.5014   16.6965 C   0  0  0  0  0  0  0  0  0  0  0  0
    8.7559  -14.1466   17.0739 C   0  0  1  0  0  0  0  0  0  0  0  0
    8.0232  -13.6828   15.9744 O   0  0  0  0  0  0  0  0  0  0  0  0
    7.8521  -14.1865   18.3118 C   0  0  2  0  0  0  0  0  0  0  0  0
    7.4575  -12.7742   18.5152 N   0  0  0  0  0  0  0  0  0  0  0  0
    8.6399  -14.6045   19.4751 C   0  0  0  0  0  0  0  0  0  0  0  0
    9.3202  -13.7223   20.0930 O   0  0  0  0  0  0  0  0  0  0  0  0
    8.7239  -15.9192   19.9970 N   0  0  0  0  0  0  0  0  0  0  0  0
    9.5720  -16.2057   21.1083 C   0  0  1  0  0  0  0  0  0  0  0  0
    9.1806  -17.4669   21.8395 C   0  0  0  0  0  0  0  0  0  0  0  0
   10.0224  -17.7310   23.0200 C   0  0  0  0  0  0  0  0  0  0  0  0
   10.9101  -16.9155   23.3423 O   0  0  0  0  0  0  0  0  0  0  0  0
   10.9977  -16.4266   20.6765 C   0  0  0  0  0  0  0  0  0  0  0  0
   11.2368  -17.4568   20.0131 O   0  0  0  0  0  0  0  0  0  0  0  0
    9.8480  -18.8676   23.7804 O   0  0  0  0  0  0  0  0  0  0  0  0
   13.4186  -15.7112   17.9124 N   0  0  0  0  0  0  0  0  0  0  0  0
   13.5992  -14.4733   18.5917 C   0  0  0  0  0  0  0  0  0  0  0  0
   13.4283  -13.3754   18.0195 O   0  0  0  0  0  0  0  0  0  0  0  0
   14.0019  -14.5368   20.0184 C   0  0  0  0  0  0  0  0  0  0  0  0
   13.3956  -15.7783   20.6850 C   0  0  2  0  0  0  0  0  0  0  0  0
   12.0220  -15.5147   21.0035 N   0  0  0  0  0  0  0  0  0  0  0  0
   14.1966  -16.1548   21.8715 C   0  0  0  0  0  0  0  0  0  0  0  0
   15.5245  -16.4868   21.7846 O   0  0  0  0  0  0  0  0  0  0  0  0
   13.6673  -16.1820   23.0289 O   0  0  0  0  0  0  0  0  0  0  0  0
  2  1  1  6
  3  2  1  0
  4  2  1  0
  4  6  1  0
  4  5  1  1
  6  7  2  0
  8  9  1  0
  8  6  1  0
  9 13  1  0
  9 10  1  6
 11 10  1  0
 11 15  1  0
 12 11  2  0
 13 14  2  0
 17 16  1  0
 17 18  2  0
 19 17  1  0
 20 19  1  1
 21 20  1  0
 21 13  1  0
 22 23  1  0
 22 20  1  0
 24 22  2  0
M  END
$$$$
