TDN.pdb
     RDKit          3D

 24 23  0  0  1  0  0  0  0  0999 V2000
    7.6533  -12.2660   19.8951 C   0  0  0  0  0  0  0  0  0  0  0  0
    8.8338  -13.1865   20.0083 C   0  0  1  0  0  0  0  0  0  0  0  0
    8.4304  -14.2540   20.8198 O   0  0  0  0  0  0  0  0  0  0  0  0
    9.2979  -13.7231   18.6492 C   0  0  2  0  0  0  0  0  0  0  0  0
    8.1400  -14.5020   18.1550 N   0  0  0  0  0  0  0  0  0  0  0  0
   10.4126  -14.6538   18.8493 C   0  0  0  0  0  0  0  0  0  0  0  0
   10.1640  -15.9032   18.8504 O   0  0  0  0  0  0  0  0  0  0  0  0
   11.7706  -14.2993   19.0447 N   0  0  0  0  0  0  0  0  0  0  0  0
   12.7482  -15.2999   19.3263 C   0  0  1  0  0  0  0  0  0  0  0  0
   14.1377  -14.9075   18.8864 C   0  0  0  0  0  0  0  0  0  0  0  0
   14.3131  -14.9587   17.4240 C   0  0  0  0  0  0  0  0  0  0  0  0
   13.7910  -15.8843   16.7699 O   0  0  0  0  0  0  0  0  0  0  0  0
   12.8625  -15.5643   20.8045 C   0  0  0  0  0  0  0  0  0  0  0  0
   13.2498  -14.6189   21.5220 O   0  0  0  0  0  0  0  0  0  0  0  0
   15.0465  -13.9990   16.7596 O   0  0  0  0  0  0  0  0  0  0  0  0
    9.1794  -16.9537   22.0540 N   0  0  0  0  0  0  0  0  0  0  0  0
   10.1527  -16.6824   23.0566 C   0  0  0  0  0  0  0  0  0  0  0  0
   10.0932  -15.6616   23.7753 O   0  0  0  0  0  0  0  0  0  0  0  0
   11.2511  -17.6670   23.2176 C   0  0  0  0  0  0  0  0  0  0  0  0
   12.5843  -17.0498   22.7758 C   0  0  2  0  0  0  0  0  0  0  0  0
   12.5479  -16.8213   21.3601 N   0  0  0  0  0  0  0  0  0  0  0  0
   13.7051  -17.9254   23.1860 C   0  0  0  0  0  0  0  0  0  0  0  0
   14.2025  -17.9297   24.4642 O   0  0  0  0  0  0  0  0  0  0  0  0
   14.2506  -18.7149   22.3496 O   0  0  0  0  0  0  0  0  0  0  0  0
  2  1  1  6
  3  2  1  0
  4  2  1  0
  4  6  1  0
  4  5  1  1
  6  7  2  0
  8  9  1  0
  8  6  1  0
  9 13  1  0
  9 10  1  1
 11 10  1  0
 11 15  1  0
 12 11  2  0
 13 14  2  0
 17 16  1  0
 17 18  2  0
 19 17  1  0
 20 19  1  6
 21 20  1  0
 21 13  1  0
 22 23  1  0
 22 20  1  0
 24 22  2  0
M  END
$$$$
