TDN.pdb
     RDKit          3D

 24 23  0  0  1  0  0  0  0  0999 V2000
    8.9813  -12.2389   19.7877 C   0  0  0  0  0  0  0  0  0  0  0  0
    8.2901  -13.3497   19.0515 C   0  0  1  0  0  0  0  0  0  0  0  0
    7.1248  -12.7998   18.5032 O   0  0  0  0  0  0  0  0  0  0  0  0
    9.1525  -13.9433   17.9314 C   0  0  2  0  0  0  0  0  0  0  0  0
    8.2680  -14.9393   17.2854 N   0  0  0  0  0  0  0  0  0  0  0  0
   10.2850  -14.6638   18.5204 C   0  0  0  0  0  0  0  0  0  0  0  0
   10.0877  -15.8418   18.9632 O   0  0  0  0  0  0  0  0  0  0  0  0
   11.6086  -14.1746   18.6500 N   0  0  0  0  0  0  0  0  0  0  0  0
   12.6228  -14.9770   19.2533 C   0  0  1  0  0  0  0  0  0  0  0  0
   14.0195  -14.5258   18.9011 C   0  0  0  0  0  0  0  0  0  0  0  0
   14.4010  -14.8652   17.5185 C   0  0  0  0  0  0  0  0  0  0  0  0
   14.2373  -16.0289   17.0990 O   0  0  0  0  0  0  0  0  0  0  0  0
   12.5567  -14.9179   20.7566 C   0  0  0  0  0  0  0  0  0  0  0  0
   11.9219  -13.9680   21.2600 O   0  0  0  0  0  0  0  0  0  0  0  0
   14.9384  -13.9174   16.6740 O   0  0  0  0  0  0  0  0  0  0  0  0
    9.6312  -16.1779   24.6570 N   0  0  0  0  0  0  0  0  0  0  0  0
   10.6995  -16.9567   24.1292 C   0  0  0  0  0  0  0  0  0  0  0  0
   11.1895  -17.9183   24.7596 O   0  0  0  0  0  0  0  0  0  0  0  0
   11.2141  -16.5798   22.7894 C   0  0  0  0  0  0  0  0  0  0  0  0
   12.6975  -16.1996   22.8797 C   0  0  2  0  0  0  0  0  0  0  0  0
   13.1818  -15.8885   21.5658 N   0  0  0  0  0  0  0  0  0  0  0  0
   13.4588  -17.2916   23.5271 C   0  0  0  0  0  0  0  0  0  0  0  0
   13.9841  -17.1718   24.7883 O   0  0  0  0  0  0  0  0  0  0  0  0
   13.6522  -18.3945   22.9214 O   0  0  0  0  0  0  0  0  0  0  0  0
  2  1  1  6
  3  2  1  0
  4  2  1  0
  4  6  1  0
  4  5  1  1
  6  7  2  0
  8  9  1  0
  8  6  1  0
  9 13  1  0
  9 10  1  6
 11 10  1  0
 11 15  1  0
 12 11  2  0
 13 14  2  0
 17 16  1  0
 17 18  2  0
 19 17  1  0
 20 19  1  6
 21 20  1  0
 21 13  1  0
 22 23  1  0
 22 20  1  0
 24 22  2  0
M  END
$$$$
