TWA.pdb
     RDKit          3D

 27 28  0  0  1  0  0  0  0  0999 V2000
    7.8029  -18.3808   19.0338 C   0  0  0  0  0  0  0  0  0  0  0  0
    8.5846  -18.0371   20.2686 C   0  0  1  0  0  0  0  0  0  0  0  0
    9.9548  -17.9619   20.0232 O   0  0  0  0  0  0  0  0  0  0  0  0
    8.1532  -16.6969   20.7921 C   0  0  2  0  0  0  0  0  0  0  0  0
    8.2641  -15.6452   19.8184 N   0  0  0  0  0  0  0  0  0  0  0  0
    8.8535  -16.3110   22.0317 C   0  0  0  0  0  0  0  0  0  0  0  0
    9.7722  -15.4477   22.0512 O   0  0  0  0  0  0  0  0  0  0  0  0
    8.5049  -16.9122   23.2556 N   0  0  0  0  0  0  0  0  0  0  0  0
    9.1556  -16.8054   24.5111 C   0  0  1  0  0  0  0  0  0  0  0  0
    8.2603  -16.7178   25.7343 C   0  0  0  0  0  0  0  0  0  0  0  0
    7.3297  -15.5616   25.7088 C   0  0  0  0  0  0  0  0  0  0  0  0
    5.9881  -15.4819   25.4526 C   0  0  0  0  0  0  0  0  0  0  0  0
    5.5834  -14.1900   25.5630 N   0  0  0  0  0  0  0  0  0  0  0  0
    6.6134  -13.4144   25.8842 C   0  0  0  0  0  0  0  0  0  0  0  0
    6.7723  -12.0519   26.1223 C   0  0  0  0  0  0  0  0  0  0  0  0
    8.0089  -11.5384   26.4508 C   0  0  0  0  0  0  0  0  0  0  0  0
    9.1181  -12.3498   26.5532 C   0  0  0  0  0  0  0  0  0  0  0  0
    8.9272  -13.7098   26.3090 C   0  0  0  0  0  0  0  0  0  0  0  0
    7.6975  -14.2253   25.9813 C   0  0  0  0  0  0  0  0  0  0  0  0
   10.2243  -17.7740   24.7763 C   0  0  0  0  0  0  0  0  0  0  0  0
    9.9491  -19.0139   24.6066 O   0  0  0  0  0  0  0  0  0  0  0  0
   13.9165  -18.0453   25.1125 C   0  0  0  0  0  0  0  0  0  0  0  0
   12.5409  -18.4982   25.4690 C   0  0  2  0  0  0  0  0  0  0  0  0
   11.5287  -17.4960   25.1987 N   0  0  0  0  0  0  0  0  0  0  0  0
   12.4955  -18.9706   26.8658 C   0  0  0  0  0  0  0  0  0  0  0  0
   13.2913  -19.8184   27.2936 O   0  0  0  0  0  0  0  0  0  0  0  0
   11.5353  -18.4488   27.7173 O   0  0  0  0  0  0  0  0  0  0  0  0
  2  1  1  6
  2  4  1  0
  3  2  1  0
  4  5  1  6
  6  4  1  0
  7  6  2  0
  8  6  1  0
  9 20  1  0
  9  8  1  0
  9 10  1  1
 11 10  1  0
 12 11  2  0
 13 12  1  0
 14 13  1  0
 14 19  2  0
 15 16  2  0
 15 14  1  0
 16 17  1  0
 17 18  2  0
 19 18  1  0
 19 11  1  0
 20 21  2  0
 23 22  1  1
 24 23  1  0
 24 20  1  0
 25 27  1  0
 25 23  1  0
 26 25  2  0
M  END
$$$$
