TWA.pdb
     RDKit          3D

 27 28  0  0  1  0  0  0  0  0999 V2000
   11.4108  -18.6673   20.2985 C   0  0  0  0  0  0  0  0  0  0  0  0
   11.3464  -17.8981   21.5861 C   0  0  1  0  0  0  0  0  0  0  0  0
   12.5613  -17.2913   21.9009 O   0  0  0  0  0  0  0  0  0  0  0  0
   10.3194  -16.8069   21.4808 C   0  0  2  0  0  0  0  0  0  0  0  0
   10.5347  -15.9316   20.3610 N   0  0  0  0  0  0  0  0  0  0  0  0
   10.1904  -16.0169   22.7197 C   0  0  0  0  0  0  0  0  0  0  0  0
   10.7323  -14.8876   22.8636 O   0  0  0  0  0  0  0  0  0  0  0  0
    9.4398  -16.5165   23.8005 N   0  0  0  0  0  0  0  0  0  0  0  0
    9.2225  -15.9300   25.0731 C   0  0  1  0  0  0  0  0  0  0  0  0
    7.8391  -16.1050   25.6739 C   0  0  0  0  0  0  0  0  0  0  0  0
    6.8923  -15.0201   25.3133 C   0  0  0  0  0  0  0  0  0  0  0  0
    5.7977  -15.0064   24.4924 C   0  0  0  0  0  0  0  0  0  0  0  0
    5.2462  -13.7651   24.4963 N   0  0  0  0  0  0  0  0  0  0  0  0
    5.9402  -12.9593   25.2929 C   0  0  0  0  0  0  0  0  0  0  0  0
    5.8283  -11.6226   25.6663 C   0  0  0  0  0  0  0  0  0  0  0  0
    6.7323  -11.0631   26.5440 C   0  0  0  0  0  0  0  0  0  0  0  0
    7.7670  -11.8020   27.0756 C   0  0  0  0  0  0  0  0  0  0  0  0
    7.8527  -13.1377   26.6827 C   0  0  0  0  0  0  0  0  0  0  0  0
    6.9547  -13.6988   25.8086 C   0  0  0  0  0  0  0  0  0  0  0  0
   10.2250  -16.2183   26.1039 C   0  0  0  0  0  0  0  0  0  0  0  0
   10.8633  -17.3254   26.0096 O   0  0  0  0  0  0  0  0  0  0  0  0
   11.6288  -14.7529   29.3045 C   0  0  0  0  0  0  0  0  0  0  0  0
   11.4889  -15.7958   28.2476 C   0  0  2  0  0  0  0  0  0  0  0  0
   10.5703  -15.4117   27.1936 N   0  0  0  0  0  0  0  0  0  0  0  0
   11.1348  -17.0969   28.8458 C   0  0  0  0  0  0  0  0  0  0  0  0
   11.9891  -17.8318   29.3610 O   0  0  0  0  0  0  0  0  0  0  0  0
    9.8105  -17.5030   28.8278 O   0  0  0  0  0  0  0  0  0  0  0  0
  2  1  1  6
  2  4  1  0
  3  2  1  0
  4  5  1  6
  6  4  1  0
  7  6  2  0
  8  6  1  0
  9 20  1  0
  9  8  1  0
  9 10  1  1
 11 10  1  0
 12 11  2  0
 13 12  1  0
 14 13  1  0
 14 19  2  0
 15 16  2  0
 15 14  1  0
 16 17  1  0
 17 18  2  0
 19 18  1  0
 19 11  1  0
 20 21  2  0
 23 22  1  1
 24 23  1  0
 24 20  1  0
 25 27  1  0
 25 23  1  0
 26 25  2  0
M  END
$$$$
