TWA.pdb
     RDKit          3D

 27 28  0  0  1  0  0  0  0  0999 V2000
    6.8834  -17.4627   18.7520 C   0  0  0  0  0  0  0  0  0  0  0  0
    7.8279  -17.0698   19.8508 C   0  0  1  0  0  0  0  0  0  0  0  0
    9.0774  -16.6900   19.3634 O   0  0  0  0  0  0  0  0  0  0  0  0
    7.2727  -15.8984   20.6097 C   0  0  2  0  0  0  0  0  0  0  0  0
    6.9159  -14.7922   19.7639 N   0  0  0  0  0  0  0  0  0  0  0  0
    8.1647  -15.4382   21.6906 C   0  0  0  0  0  0  0  0  0  0  0  0
    8.8579  -14.3892   21.5976 O   0  0  0  0  0  0  0  0  0  0  0  0
    8.2675  -16.1776   22.8838 N   0  0  0  0  0  0  0  0  0  0  0  0
    9.1649  -15.9913   23.9658 C   0  0  1  0  0  0  0  0  0  0  0  0
    8.5778  -16.1030   25.3616 C   0  0  0  0  0  0  0  0  0  0  0  0
    7.3986  -15.2289   25.5826 C   0  0  0  0  0  0  0  0  0  0  0  0
    6.0557  -15.4836   25.5207 C   0  0  0  0  0  0  0  0  0  0  0  0
    5.3674  -14.3510   25.8183 N   0  0  0  0  0  0  0  0  0  0  0  0
    6.2114  -13.3574   26.0750 C   0  0  0  0  0  0  0  0  0  0  0  0
    6.0646  -12.0189   26.4290 C   0  0  0  0  0  0  0  0  0  0  0  0
    7.1720  -11.2247   26.6377 C   0  0  0  0  0  0  0  0  0  0  0  0
    8.4489  -11.7253   26.5039 C   0  0  0  0  0  0  0  0  0  0  0  0
    8.5635  -13.0693   26.1485 C   0  0  0  0  0  0  0  0  0  0  0  0
    7.4634  -13.8637   25.9394 C   0  0  0  0  0  0  0  0  0  0  0  0
   10.4143  -16.7576   23.9163 C   0  0  0  0  0  0  0  0  0  0  0  0
   10.3259  -18.0325   24.0108 O   0  0  0  0  0  0  0  0  0  0  0  0
   14.0128  -16.3886   22.9447 C   0  0  0  0  0  0  0  0  0  0  0  0
   12.9104  -17.0590   23.6927 C   0  0  2  0  0  0  0  0  0  0  0  0
   11.7102  -16.2497   23.7749 N   0  0  0  0  0  0  0  0  0  0  0  0
   13.3765  -17.4974   25.0219 C   0  0  0  0  0  0  0  0  0  0  0  0
   14.3838  -18.2058   25.1587 O   0  0  0  0  0  0  0  0  0  0  0  0
   12.6650  -17.1036   26.1434 O   0  0  0  0  0  0  0  0  0  0  0  0
  2  1  1  6
  2  4  1  0
  3  2  1  0
  4  5  1  6
  6  4  1  0
  7  6  2  0
  8  6  1  0
  9 20  1  0
  9  8  1  0
  9 10  1  1
 11 10  1  0
 12 11  2  0
 13 12  1  0
 14 13  1  0
 14 19  2  0
 15 16  2  0
 15 14  1  0
 16 17  1  0
 17 18  2  0
 19 18  1  0
 19 11  1  0
 20 21  2  0
 23 22  1  1
 24 23  1  0
 24 20  1  0
 25 27  1  0
 25 23  1  0
 26 25  2  0
M  END
$$$$
