TWA.pdb
     RDKit          3D

 27 28  0  0  1  0  0  0  0  0999 V2000
    6.7142  -17.8813   19.0961 C   0  0  0  0  0  0  0  0  0  0  0  0
    7.7663  -17.5257   20.1063 C   0  0  1  0  0  0  0  0  0  0  0  0
    9.0428  -17.4827   19.5475 O   0  0  0  0  0  0  0  0  0  0  0  0
    7.4871  -16.1660   20.6805 C   0  0  2  0  0  0  0  0  0  0  0  0
    7.3838  -15.1384   19.6806 N   0  0  0  0  0  0  0  0  0  0  0  0
    8.4612  -15.7668   21.7137 C   0  0  0  0  0  0  0  0  0  0  0  0
    9.3239  -14.8677   21.5215 O   0  0  0  0  0  0  0  0  0  0  0  0
    8.4521  -16.3958   22.9728 N   0  0  0  0  0  0  0  0  0  0  0  0
    9.3077  -16.1703   24.0809 C   0  0  1  0  0  0  0  0  0  0  0  0
    8.6629  -16.2077   25.4551 C   0  0  0  0  0  0  0  0  0  0  0  0
    7.4774  -15.3232   25.5802 C   0  0  0  0  0  0  0  0  0  0  0  0
    6.1391  -15.5750   25.4470 C   0  0  0  0  0  0  0  0  0  0  0  0
    5.4405  -14.4316   25.6696 N   0  0  0  0  0  0  0  0  0  0  0  0
    6.2732  -13.4337   25.9458 C   0  0  0  0  0  0  0  0  0  0  0  0
    6.1128  -12.0846   26.2504 C   0  0  0  0  0  0  0  0  0  0  0  0
    7.2102  -11.2883   26.5002 C   0  0  0  0  0  0  0  0  0  0  0  0
    8.4902  -11.7972   26.4567 C   0  0  0  0  0  0  0  0  0  0  0  0
    8.6184  -13.1516   26.1489 C   0  0  0  0  0  0  0  0  0  0  0  0
    7.5283  -13.9481   25.8992 C   0  0  0  0  0  0  0  0  0  0  0  0
   10.5464  -16.9545   24.1189 C   0  0  0  0  0  0  0  0  0  0  0  0
   10.4330  -18.2299   24.1700 O   0  0  0  0  0  0  0  0  0  0  0  0
   14.2528  -16.5377   23.5935 C   0  0  0  0  0  0  0  0  0  0  0  0
   13.0473  -17.2884   24.0489 C   0  0  2  0  0  0  0  0  0  0  0  0
   11.8563  -16.4635   24.1048 N   0  0  0  0  0  0  0  0  0  0  0  0
   13.3125  -17.9682   25.3310 C   0  0  0  0  0  0  0  0  0  0  0  0
   14.2588  -18.7564   25.4676 O   0  0  0  0  0  0  0  0  0  0  0  0
   12.4781  -17.7148   26.4073 O   0  0  0  0  0  0  0  0  0  0  0  0
  2  1  1  6
  2  4  1  0
  3  2  1  0
  4  5  1  6
  6  4  1  0
  7  6  2  0
  8  6  1  0
  9 20  1  0
  9  8  1  0
  9 10  1  1
 11 10  1  0
 12 11  2  0
 13 12  1  0
 14 13  1  0
 14 19  2  0
 15 16  2  0
 15 14  1  0
 16 17  1  0
 17 18  2  0
 19 18  1  0
 19 11  1  0
 20 21  2  0
 23 22  1  1
 24 23  1  0
 24 20  1  0
 25 27  1  0
 25 23  1  0
 26 25  2  0
M  END
$$$$
