TWA.pdb
     RDKit          3D

 27 28  0  0  1  0  0  0  0  0999 V2000
    7.6334  -18.4496   17.9939 C   0  0  0  0  0  0  0  0  0  0  0  0
    8.2261  -17.9917   19.2951 C   0  0  1  0  0  0  0  0  0  0  0  0
    9.4954  -18.5246   19.5145 O   0  0  0  0  0  0  0  0  0  0  0  0
    8.3662  -16.4961   19.2966 C   0  0  2  0  0  0  0  0  0  0  0  0
    9.1577  -15.9995   18.2042 N   0  0  0  0  0  0  0  0  0  0  0  0
    8.8829  -15.9681   20.5733 C   0  0  0  0  0  0  0  0  0  0  0  0
   10.1038  -15.7130   20.7575 O   0  0  0  0  0  0  0  0  0  0  0  0
    8.0034  -15.7296   21.6460 N   0  0  0  0  0  0  0  0  0  0  0  0
    8.3155  -15.4338   22.9973 C   0  0  1  0  0  0  0  0  0  0  0  0
    7.1433  -15.1367   23.9154 C   0  0  0  0  0  0  0  0  0  0  0  0
    7.5483  -14.7122   25.2790 C   0  0  0  0  0  0  0  0  0  0  0  0
    8.2723  -15.3486   26.2500 C   0  0  0  0  0  0  0  0  0  0  0  0
    8.3874  -14.5361   27.3324 N   0  0  0  0  0  0  0  0  0  0  0  0
    7.7639  -13.3845   27.1078 C   0  0  0  0  0  0  0  0  0  0  0  0
    7.5697  -12.2196   27.8453 C   0  0  0  0  0  0  0  0  0  0  0  0
    6.8584  -11.1651   27.3136 C   0  0  0  0  0  0  0  0  0  0  0  0
    6.3211  -11.2291   26.0461 C   0  0  0  0  0  0  0  0  0  0  0  0
    6.5325  -12.4087   25.3323 C   0  0  0  0  0  0  0  0  0  0  0  0
    7.2400  -13.4613   25.8581 C   0  0  0  0  0  0  0  0  0  0  0  0
    9.2229  -16.3648   23.6760 C   0  0  0  0  0  0  0  0  0  0  0  0
    8.8331  -17.5791   23.8013 O   0  0  0  0  0  0  0  0  0  0  0  0
   12.8258  -16.7951   24.2926 C   0  0  0  0  0  0  0  0  0  0  0  0
   11.4184  -17.0677   24.7041 C   0  0  2  0  0  0  0  0  0  0  0  0
   10.4835  -16.0759   24.2095 N   0  0  0  0  0  0  0  0  0  0  0  0
   11.3283  -17.2347   26.1670 C   0  0  0  0  0  0  0  0  0  0  0  0
   10.5311  -16.5769   26.8505 O   0  0  0  0  0  0  0  0  0  0  0  0
   12.1595  -18.1527   26.7877 O   0  0  0  0  0  0  0  0  0  0  0  0
  2  1  1  6
  2  4  1  0
  3  2  1  0
  4  5  1  6
  6  4  1  0
  7  6  2  0
  8  6  1  0
  9 20  1  0
  9  8  1  0
  9 10  1  1
 11 10  1  0
 12 11  2  0
 13 12  1  0
 14 13  1  0
 14 19  2  0
 15 16  2  0
 15 14  1  0
 16 17  1  0
 17 18  2  0
 19 18  1  0
 19 11  1  0
 20 21  2  0
 23 22  1  1
 24 23  1  0
 24 20  1  0
 25 27  1  0
 25 23  1  0
 26 25  2  0
M  END
$$$$
