TWA.pdb
     RDKit          3D

 27 28  0  0  1  0  0  0  0  0999 V2000
    6.7453  -16.1735   18.4588 C   0  0  0  0  0  0  0  0  0  0  0  0
    7.7270  -16.0708   19.5901 C   0  0  1  0  0  0  0  0  0  0  0  0
    9.0146  -15.7720   19.1473 O   0  0  0  0  0  0  0  0  0  0  0  0
    7.3146  -14.9730   20.5288 C   0  0  2  0  0  0  0  0  0  0  0  0
    7.1496  -13.7021   19.8776 N   0  0  0  0  0  0  0  0  0  0  0  0
    8.2213  -14.8328   21.6837 C   0  0  0  0  0  0  0  0  0  0  0  0
    9.0013  -13.8515   21.8186 O   0  0  0  0  0  0  0  0  0  0  0  0
    8.2394  -15.8163   22.6903 N   0  0  0  0  0  0  0  0  0  0  0  0
    9.0243  -15.8605   23.8705 C   0  0  1  0  0  0  0  0  0  0  0  0
    8.2867  -16.1492   25.1659 C   0  0  0  0  0  0  0  0  0  0  0  0
    7.1916  -15.1892   25.4536 C   0  0  0  0  0  0  0  0  0  0  0  0
    5.8309  -15.3233   25.4040 C   0  0  0  0  0  0  0  0  0  0  0  0
    5.2484  -14.1527   25.7721 N   0  0  0  0  0  0  0  0  0  0  0  0
    6.1796  -13.2507   26.0635 C   0  0  0  0  0  0  0  0  0  0  0  0
    6.1553  -11.9250   26.4883 C   0  0  0  0  0  0  0  0  0  0  0  0
    7.3306  -11.2416   26.7166 C   0  0  0  0  0  0  0  0  0  0  0  0
    8.5570  -11.8431   26.5333 C   0  0  0  0  0  0  0  0  0  0  0  0
    8.5487  -13.1713   26.1074 C   0  0  0  0  0  0  0  0  0  0  0  0
    7.3805  -13.8555   25.8786 C   0  0  0  0  0  0  0  0  0  0  0  0
   10.2323  -16.6905   23.8197 C   0  0  0  0  0  0  0  0  0  0  0  0
   10.0818  -17.9303   23.5329 O   0  0  0  0  0  0  0  0  0  0  0  0
   13.9532  -16.4027   23.5868 C   0  0  0  0  0  0  0  0  0  0  0  0
   12.7120  -17.1397   23.9619 C   0  0  2  0  0  0  0  0  0  0  0  0
   11.5491  -16.2784   24.0509 N   0  0  0  0  0  0  0  0  0  0  0  0
   12.9232  -17.9169   25.1978 C   0  0  0  0  0  0  0  0  0  0  0  0
   12.1741  -17.7996   26.1778 O   0  0  0  0  0  0  0  0  0  0  0  0
   13.9890  -18.7997   25.2587 O   0  0  0  0  0  0  0  0  0  0  0  0
  2  1  1  6
  2  4  1  0
  3  2  1  0
  4  5  1  6
  6  4  1  0
  7  6  2  0
  8  6  1  0
  9 20  1  0
  9  8  1  0
  9 10  1  1
 11 10  1  0
 12 11  2  0
 13 12  1  0
 14 13  1  0
 14 19  2  0
 15 16  2  0
 15 14  1  0
 16 17  1  0
 17 18  2  0
 19 18  1  0
 19 11  1  0
 20 21  2  0
 23 22  1  1
 24 23  1  0
 24 20  1  0
 25 27  1  0
 25 23  1  0
 26 25  2  0
M  END
$$$$
