IMT.pdb
     RDKit          3D

 24 23  0  0  1  0  0  0  0  0999 V2000
    8.1105  -11.7181   19.4092 C   0  0  0  0  0  0  0  0  0  0  0  0
    7.8455  -12.9833   20.2007 C   0  0  0  0  0  0  0  0  0  0  0  0
    8.5315  -14.1729   19.6387 C   0  0  2  0  0  0  0  0  0  0  0  0
    8.1836  -14.4331   18.1899 C   0  0  0  0  0  0  0  0  0  0  0  0
    8.4547  -15.4093   20.4987 C   0  0  2  0  0  0  0  0  0  0  0  0
    7.0676  -15.9363   20.4538 N   0  0  0  0  0  0  0  0  0  0  0  0
    8.7607  -15.1682   21.9286 C   0  0  0  0  0  0  0  0  0  0  0  0
    9.9473  -14.9161   22.2765 O   0  0  0  0  0  0  0  0  0  0  0  0
    7.2291  -11.2189   27.5220 C   0  0  0  0  0  0  0  0  0  0  0  0
    6.1655  -12.6174   27.0832 S   0  0  0  0  0  0  0  0  0  0  0  0
    7.2206  -14.0292   26.5464 C   0  0  0  0  0  0  0  0  0  0  0  0
    7.0177  -14.2096   25.0739 C   0  0  0  0  0  0  0  0  0  0  0  0
    8.0431  -15.0372   24.3705 C   0  0  2  0  0  0  0  0  0  0  0  0
    7.7871  -15.1977   22.9743 N   0  0  0  0  0  0  0  0  0  0  0  0
    8.4472  -16.2557   25.1022 C   0  0  0  0  0  0  0  0  0  0  0  0
    7.5295  -17.0882   25.3262 O   0  0  0  0  0  0  0  0  0  0  0  0
   10.5704  -18.9019   23.8029 C   0  0  0  0  0  0  0  0  0  0  0  0
   11.1644  -18.5674   25.1602 C   0  0  1  0  0  0  0  0  0  0  0  0
   12.3802  -17.9441   25.0796 O   0  0  0  0  0  0  0  0  0  0  0  0
   10.1482  -17.8876   25.9937 C   0  0  2  0  0  0  0  0  0  0  0  0
    9.7169  -16.5936   25.5783 N   0  0  0  0  0  0  0  0  0  0  0  0
   10.6325  -17.8181   27.3890 C   0  0  0  0  0  0  0  0  0  0  0  0
   10.8480  -18.9635   28.1243 O   0  0  0  0  0  0  0  0  0  0  0  0
   10.8511  -16.7063   27.9137 O   0  0  0  0  0  0  0  0  0  0  0  0
  1  2  1  0
  3  4  1  6
  3  2  1  0
  5  3  1  0
  5  7  1  0
  5  6  1  1
  7  8  2  0
 10  9  1  0
 11 10  1  0
 12 11  1  0
 13 12  1  1
 14  7  1  0
 14 13  1  0
 15 21  1  0
 15 13  1  0
 16 15  2  0
 18 17  1  6
 18 19  1  0
 20 21  1  6
 20 18  1  0
 22 20  1  0
 22 23  1  0
 24 22  2  0
M  END
$$$$
