IMT.pdb
     RDKit          3D

 24 23  0  0  1  0  0  0  0  0999 V2000
    8.1134  -16.8644   18.7171 C   0  0  0  0  0  0  0  0  0  0  0  0
    8.4549  -15.5301   19.3500 C   0  0  0  0  0  0  0  0  0  0  0  0
    7.2690  -14.6593   19.5420 C   0  0  2  0  0  0  0  0  0  0  0  0
    6.4798  -14.4375   18.2709 C   0  0  0  0  0  0  0  0  0  0  0  0
    7.5394  -13.3853   20.3024 C   0  0  2  0  0  0  0  0  0  0  0  0
    8.5264  -12.5769   19.5434 N   0  0  0  0  0  0  0  0  0  0  0  0
    8.1249  -13.5993   21.6469 C   0  0  0  0  0  0  0  0  0  0  0  0
    9.3795  -13.6119   21.7840 O   0  0  0  0  0  0  0  0  0  0  0  0
    6.3512  -12.7345   27.9578 C   0  0  0  0  0  0  0  0  0  0  0  0
    6.0806  -11.4419   26.7187 S   0  0  0  0  0  0  0  0  0  0  0  0
    6.6826  -12.0416   25.0839 C   0  0  0  0  0  0  0  0  0  0  0  0
    7.0538  -13.4837   25.2412 C   0  0  0  0  0  0  0  0  0  0  0  0
    7.8729  -14.0707   24.1388 C   0  0  2  0  0  0  0  0  0  0  0  0
    7.3563  -13.7960   22.8356 N   0  0  0  0  0  0  0  0  0  0  0  0
    8.3163  -15.4589   24.3837 C   0  0  0  0  0  0  0  0  0  0  0  0
    7.4452  -16.3504   24.2050 O   0  0  0  0  0  0  0  0  0  0  0  0
   12.2756  -16.5933   24.2252 C   0  0  0  0  0  0  0  0  0  0  0  0
   11.1932  -17.6499   24.0870 C   0  0  1  0  0  0  0  0  0  0  0  0
   11.6512  -18.9232   24.2923 O   0  0  0  0  0  0  0  0  0  0  0  0
   10.0101  -17.2566   24.8840 C   0  0  2  0  0  0  0  0  0  0  0  0
    9.5775  -15.9011   24.7922 N   0  0  0  0  0  0  0  0  0  0  0  0
   10.2443  -17.6011   26.3027 C   0  0  0  0  0  0  0  0  0  0  0  0
   10.5527  -18.8903   26.6794 O   0  0  0  0  0  0  0  0  0  0  0  0
   10.1625  -16.7133   27.1769 O   0  0  0  0  0  0  0  0  0  0  0  0
  1  2  1  0
  3  4  1  6
  3  2  1  0
  5  3  1  0
  5  7  1  0
  5  6  1  6
  7  8  2  0
 10  9  1  0
 11 10  1  0
 12 11  1  0
 13 12  1  1
 14  7  1  0
 14 13  1  0
 15 21  1  0
 15 13  1  0
 16 15  2  0
 18 17  1  1
 18 19  1  0
 20 21  1  1
 20 18  1  0
 22 20  1  0
 22 23  1  0
 24 22  2  0
M  END
$$$$
