IMT.pdb
     RDKit          3D

 24 23  0  0  1  0  0  0  0  0999 V2000
    7.9861  -11.7157   19.0749 C   0  0  0  0  0  0  0  0  0  0  0  0
    7.3344  -12.7951   19.9160 C   0  0  0  0  0  0  0  0  0  0  0  0
    8.1512  -14.0304   20.0081 C   0  0  2  0  0  0  0  0  0  0  0  0
    8.6340  -14.5278   18.6637 C   0  0  0  0  0  0  0  0  0  0  0  0
    7.5532  -15.1188   20.8636 C   0  0  2  0  0  0  0  0  0  0  0  0
    6.1244  -15.2837   20.4962 N   0  0  0  0  0  0  0  0  0  0  0  0
    7.5767  -14.8245   22.3159 C   0  0  0  0  0  0  0  0  0  0  0  0
    7.0689  -13.7500   22.7408 O   0  0  0  0  0  0  0  0  0  0  0  0
    6.8868  -11.7510   25.6175 C   0  0  0  0  0  0  0  0  0  0  0  0
    7.3758  -12.7108   27.0733 S   0  0  0  0  0  0  0  0  0  0  0  0
    7.0703  -14.4978   26.7448 C   0  0  0  0  0  0  0  0  0  0  0  0
    7.0749  -14.6907   25.2599 C   0  0  0  0  0  0  0  0  0  0  0  0
    8.2526  -15.4191   24.7001 C   0  0  2  0  0  0  0  0  0  0  0  0
    8.1444  -15.6895   23.3017 N   0  0  0  0  0  0  0  0  0  0  0  0
    8.7355  -16.5328   25.5428 C   0  0  0  0  0  0  0  0  0  0  0  0
    7.8483  -17.3131   25.9781 O   0  0  0  0  0  0  0  0  0  0  0  0
   11.2831  -18.9129   24.0742 C   0  0  0  0  0  0  0  0  0  0  0  0
   11.7190  -18.6121   25.4977 C   0  0  1  0  0  0  0  0  0  0  0  0
   12.8602  -17.8596   25.5662 O   0  0  0  0  0  0  0  0  0  0  0  0
   10.5664  -18.1029   26.2734 C   0  0  2  0  0  0  0  0  0  0  0  0
   10.0501  -16.8221   25.9182 N   0  0  0  0  0  0  0  0  0  0  0  0
   10.9077  -18.1117   27.7120 C   0  0  0  0  0  0  0  0  0  0  0  0
   11.2913  -19.2745   28.3442 O   0  0  0  0  0  0  0  0  0  0  0  0
   10.8487  -17.0513   28.3687 O   0  0  0  0  0  0  0  0  0  0  0  0
  1  2  1  0
  3  4  1  6
  3  2  1  0
  5  3  1  0
  5  7  1  0
  5  6  1  6
  7  8  2  0
 10  9  1  0
 11 10  1  0
 12 11  1  0
 13 12  1  1
 14  7  1  0
 14 13  1  0
 15 21  1  0
 15 13  1  0
 16 15  2  0
 18 17  1  6
 18 19  1  0
 20 21  1  6
 20 18  1  0
 22 20  1  0
 22 23  1  0
 24 22  2  0
M  END
$$$$
