IMT.pdb
     RDKit          3D

 24 23  0  0  1  0  0  0  0  0999 V2000
    7.6584  -15.7903   16.8551 C   0  0  0  0  0  0  0  0  0  0  0  0
    7.4993  -14.5562   17.7207 C   0  0  0  0  0  0  0  0  0  0  0  0
    7.8988  -14.7824   19.1316 C   0  0  2  0  0  0  0  0  0  0  0  0
    7.3021  -16.0386   19.7264 C   0  0  0  0  0  0  0  0  0  0  0  0
    7.7581  -13.5771   20.0272 C   0  0  2  0  0  0  0  0  0  0  0  0
    8.5302  -12.4535   19.4398 N   0  0  0  0  0  0  0  0  0  0  0  0
    8.2928  -13.7775   21.3948 C   0  0  0  0  0  0  0  0  0  0  0  0
    9.5279  -13.9811   21.5559 O   0  0  0  0  0  0  0  0  0  0  0  0
    6.0152  -11.1270   26.5729 C   0  0  0  0  0  0  0  0  0  0  0  0
    6.4487  -12.6340   27.4786 S   0  0  0  0  0  0  0  0  0  0  0  0
    7.4270  -13.7379   26.3744 C   0  0  0  0  0  0  0  0  0  0  0  0
    7.1355  -13.3360   24.9618 C   0  0  0  0  0  0  0  0  0  0  0  0
    7.9509  -14.0131   23.9093 C   0  0  2  0  0  0  0  0  0  0  0  0
    7.4950  -13.7552   22.5803 N   0  0  0  0  0  0  0  0  0  0  0  0
    8.2975  -15.4161   24.2175 C   0  0  0  0  0  0  0  0  0  0  0  0
    7.3359  -16.2289   24.2187 O   0  0  0  0  0  0  0  0  0  0  0  0
   10.4457  -18.0145   22.4275 C   0  0  0  0  0  0  0  0  0  0  0  0
   10.9323  -17.9105   23.8626 C   0  0  1  0  0  0  0  0  0  0  0  0
   12.1660  -17.3286   23.9744 O   0  0  0  0  0  0  0  0  0  0  0  0
    9.8674  -17.3257   24.7074 C   0  0  2  0  0  0  0  0  0  0  0  0
    9.5559  -15.9482   24.5113 N   0  0  0  0  0  0  0  0  0  0  0  0
   10.1957  -17.5560   26.1306 C   0  0  0  0  0  0  0  0  0  0  0  0
   10.3436  -18.8325   26.6282 O   0  0  0  0  0  0  0  0  0  0  0  0
   10.3422  -16.5816   26.8976 O   0  0  0  0  0  0  0  0  0  0  0  0
  1  2  1  0
  3  4  1  1
  3  2  1  0
  5  3  1  0
  5  7  1  0
  5  6  1  6
  7  8  2  0
 10  9  1  0
 11 10  1  0
 12 11  1  0
 13 12  1  1
 14  7  1  0
 14 13  1  0
 15 21  1  0
 15 13  1  0
 16 15  2  0
 18 17  1  6
 18 19  1  0
 20 21  1  1
 20 18  1  0
 22 20  1  0
 22 23  1  0
 24 22  2  0
M  END
$$$$
