IMT.pdb
     RDKit          3D

 24 23  0  0  1  0  0  0  0  0999 V2000
    6.9263  -18.7200   18.3628 C   0  0  0  0  0  0  0  0  0  0  0  0
    7.0254  -17.2422   18.6848 C   0  0  0  0  0  0  0  0  0  0  0  0
    7.4831  -16.9806   20.0717 C   0  0  2  0  0  0  0  0  0  0  0  0
    6.7091  -17.7593   21.1122 C   0  0  0  0  0  0  0  0  0  0  0  0
    7.6407  -15.5214   20.4185 C   0  0  2  0  0  0  0  0  0  0  0  0
    8.5942  -14.9041   19.4628 N   0  0  0  0  0  0  0  0  0  0  0  0
    8.1953  -15.2806   21.7715 C   0  0  0  0  0  0  0  0  0  0  0  0
    9.4188  -15.5000   21.9901 O   0  0  0  0  0  0  0  0  0  0  0  0
    6.6843  -10.6412   26.2333 C   0  0  0  0  0  0  0  0  0  0  0  0
    6.4398  -12.1706   27.1718 S   0  0  0  0  0  0  0  0  0  0  0  0
    7.4955  -13.4953   26.4471 C   0  0  0  0  0  0  0  0  0  0  0  0
    7.1061  -13.6464   25.0092 C   0  0  0  0  0  0  0  0  0  0  0  0
    7.8978  -14.6365   24.2193 C   0  0  2  0  0  0  0  0  0  0  0  0
    7.4300  -14.8029   22.8799 N   0  0  0  0  0  0  0  0  0  0  0  0
    8.2257  -15.8766   24.9529 C   0  0  0  0  0  0  0  0  0  0  0  0
    7.2451  -16.6017   25.2663 O   0  0  0  0  0  0  0  0  0  0  0  0
   10.0074  -18.9384   23.8332 C   0  0  0  0  0  0  0  0  0  0  0  0
   10.6928  -18.4966   25.1145 C   0  0  1  0  0  0  0  0  0  0  0  0
   11.9557  -18.0096   24.9120 O   0  0  0  0  0  0  0  0  0  0  0  0
    9.7838  -17.6224   25.8886 C   0  0  2  0  0  0  0  0  0  0  0  0
    9.4852  -16.3391   25.3438 N   0  0  0  0  0  0  0  0  0  0  0  0
   10.3157  -17.4613   27.2588 C   0  0  0  0  0  0  0  0  0  0  0  0
   10.4838  -18.5488   28.0882 O   0  0  0  0  0  0  0  0  0  0  0  0
   10.6185  -16.3239   27.6755 O   0  0  0  0  0  0  0  0  0  0  0  0
  1  2  1  0
  3  4  1  1
  3  2  1  0
  5  3  1  0
  5  7  1  0
  5  6  1  6
  7  8  2  0
 10  9  1  0
 11 10  1  0
 12 11  1  0
 13 12  1  1
 14  7  1  0
 14 13  1  0
 15 21  1  0
 15 13  1  0
 16 15  2  0
 18 17  1  6
 18 19  1  0
 20 21  1  6
 20 18  1  0
 22 20  1  0
 22 23  1  0
 24 22  2  0
M  END
$$$$
