IMT.pdb
     RDKit          3D

 24 23  0  0  1  0  0  0  0  0999 V2000
    7.2895  -16.5803   16.9642 C   0  0  0  0  0  0  0  0  0  0  0  0
    7.1896  -15.2417   17.6681 C   0  0  0  0  0  0  0  0  0  0  0  0
    7.7320  -15.2710   19.0489 C   0  0  2  0  0  0  0  0  0  0  0  0
    7.2807  -16.4777   19.8414 C   0  0  0  0  0  0  0  0  0  0  0  0
    7.5916  -13.9758   19.8085 C   0  0  2  0  0  0  0  0  0  0  0  0
    8.2408  -12.8924   19.0286 N   0  0  0  0  0  0  0  0  0  0  0  0
    8.2495  -13.9823   21.1365 C   0  0  0  0  0  0  0  0  0  0  0  0
    9.5065  -13.8949   21.2081 O   0  0  0  0  0  0  0  0  0  0  0  0
    5.3408  -12.1758   26.7995 C   0  0  0  0  0  0  0  0  0  0  0  0
    7.1264  -12.0125   27.0531 S   0  0  0  0  0  0  0  0  0  0  0  0
    7.9933  -13.3105   26.0742 C   0  0  0  0  0  0  0  0  0  0  0  0
    7.4433  -13.2683   24.6822 C   0  0  0  0  0  0  0  0  0  0  0  0
    8.1408  -14.1270   23.6786 C   0  0  2  0  0  0  0  0  0  0  0  0
    7.5500  -14.0806   22.3789 N   0  0  0  0  0  0  0  0  0  0  0  0
    8.5105  -15.4678   24.1779 C   0  0  0  0  0  0  0  0  0  0  0  0
    7.5562  -16.2734   24.3382 O   0  0  0  0  0  0  0  0  0  0  0  0
   10.5584  -18.1314   22.4976 C   0  0  0  0  0  0  0  0  0  0  0  0
   11.1438  -17.9328   23.8849 C   0  0  1  0  0  0  0  0  0  0  0  0
   12.3753  -17.3359   23.8718 O   0  0  0  0  0  0  0  0  0  0  0  0
   10.1343  -17.3033   24.7650 C   0  0  2  0  0  0  0  0  0  0  0  0
    9.7836  -15.9476   24.4970 N   0  0  0  0  0  0  0  0  0  0  0  0
   10.5723  -17.4272   26.1718 C   0  0  0  0  0  0  0  0  0  0  0  0
   10.8262  -18.6608   26.7310 O   0  0  0  0  0  0  0  0  0  0  0  0
   10.7156  -16.4007   26.8682 O   0  0  0  0  0  0  0  0  0  0  0  0
  1  2  1  0
  3  4  1  1
  3  2  1  0
  5  3  1  0
  5  7  1  0
  5  6  1  6
  7  8  2  0
 10  9  1  0
 11 10  1  0
 12 11  1  0
 13 12  1  1
 14  7  1  0
 14 13  1  0
 15 21  1  0
 15 13  1  0
 16 15  2  0
 18 17  1  6
 18 19  1  0
 20 21  1  6
 20 18  1  0
 22 20  1  0
 22 23  1  0
 24 22  2  0
M  END
$$$$
