IMT.pdb
     RDKit          3D

 24 23  0  0  1  0  0  0  0  0999 V2000
    6.9774  -12.1397   28.2085 C   0  0  0  0  0  0  0  0  0  0  0  0
    6.2392  -13.1701   27.3773 C   0  0  0  0  0  0  0  0  0  0  0  0
    7.0627  -13.7222   26.2734 C   0  0  2  0  0  0  0  0  0  0  0  0
    7.7286  -12.6543   25.4344 C   0  0  0  0  0  0  0  0  0  0  0  0
    6.3803  -14.7848   25.4490 C   0  0  2  0  0  0  0  0  0  0  0  0
    6.0489  -15.9327   26.3300 N   0  0  0  0  0  0  0  0  0  0  0  0
    7.2193  -15.3298   24.3557 C   0  0  0  0  0  0  0  0  0  0  0  0
    7.5979  -16.5329   24.4031 O   0  0  0  0  0  0  0  0  0  0  0  0
    8.9397  -12.7335   18.3551 C   0  0  0  0  0  0  0  0  0  0  0  0
    7.1978  -12.9326   18.8083 S   0  0  0  0  0  0  0  0  0  0  0  0
    7.0636  -14.2061   20.1329 C   0  0  0  0  0  0  0  0  0  0  0  0
    8.3446  -14.1875   20.9080 C   0  0  0  0  0  0  0  0  0  0  0  0
    8.3939  -15.0749   22.1084 C   0  0  2  0  0  0  0  0  0  0  0  0
    7.6435  -14.5772   23.2173 N   0  0  0  0  0  0  0  0  0  0  0  0
    9.7382  -15.6049   22.4178 C   0  0  0  0  0  0  0  0  0  0  0  0
   10.4890  -14.8391   23.0775 O   0  0  0  0  0  0  0  0  0  0  0  0
   10.9240  -18.8851   24.3964 C   0  0  0  0  0  0  0  0  0  0  0  0
   11.4867  -18.8079   22.9878 C   0  0  1  0  0  0  0  0  0  0  0  0
   10.9105  -19.7011   22.1256 O   0  0  0  0  0  0  0  0  0  0  0  0
   11.5042  -17.3989   22.5360 C   0  0  2  0  0  0  0  0  0  0  0  0
   10.2775  -16.8450   22.0653 N   0  0  0  0  0  0  0  0  0  0  0  0
   12.5456  -17.2346   21.4993 C   0  0  0  0  0  0  0  0  0  0  0  0
   13.8720  -17.4819   21.7791 O   0  0  0  0  0  0  0  0  0  0  0  0
   12.2229  -16.8661   20.3507 O   0  0  0  0  0  0  0  0  0  0  0  0
  1  2  1  0
  3  4  1  6
  3  2  1  0
  5  3  1  0
  5  7  1  0
  5  6  1  1
  7  8  2  0
 10  9  1  0
 11 10  1  0
 12 11  1  0
 13 12  1  6
 14  7  1  0
 14 13  1  0
 15 21  1  0
 15 13  1  0
 16 15  2  0
 18 17  1  1
 18 19  1  0
 20 21  1  6
 20 18  1  0
 22 20  1  0
 22 23  1  0
 24 22  2  0
M  END
$$$$
