IMT.pdb
     RDKit          3D

 24 23  0  0  1  0  0  0  0  0999 V2000
    7.0505  -16.7167   17.9937 C   0  0  0  0  0  0  0  0  0  0  0  0
    8.2276  -17.4657   18.5863 C   0  0  0  0  0  0  0  0  0  0  0  0
    8.4377  -17.1701   20.0250 C   0  0  2  0  0  0  0  0  0  0  0  0
    7.3861  -17.7866   20.9204 C   0  0  0  0  0  0  0  0  0  0  0  0
    8.7065  -15.7194   20.3374 C   0  0  2  0  0  0  0  0  0  0  0  0
    9.9161  -15.2871   19.5932 N   0  0  0  0  0  0  0  0  0  0  0  0
    8.9829  -15.4529   21.7688 C   0  0  0  0  0  0  0  0  0  0  0  0
   10.1151  -15.7395   22.2472 O   0  0  0  0  0  0  0  0  0  0  0  0
    6.9932  -10.8655   26.9668 C   0  0  0  0  0  0  0  0  0  0  0  0
    6.0653  -12.3998   26.7130 S   0  0  0  0  0  0  0  0  0  0  0  0
    7.2331  -13.7307   26.2037 C   0  0  0  0  0  0  0  0  0  0  0  0
    7.2175  -13.7963   24.7078 C   0  0  0  0  0  0  0  0  0  0  0  0
    8.2115  -14.7208   24.0848 C   0  0  2  0  0  0  0  0  0  0  0  0
    8.0398  -14.8776   22.6754 N   0  0  0  0  0  0  0  0  0  0  0  0
    8.4538  -15.9599   24.8526 C   0  0  0  0  0  0  0  0  0  0  0  0
    7.4677  -16.7347   24.9652 O   0  0  0  0  0  0  0  0  0  0  0  0
   10.4364  -18.9291   24.0163 C   0  0  0  0  0  0  0  0  0  0  0  0
   10.9221  -18.4965   25.3889 C   0  0  1  0  0  0  0  0  0  0  0  0
   12.1892  -17.9793   25.3758 O   0  0  0  0  0  0  0  0  0  0  0  0
    9.8920  -17.6559   26.0385 C   0  0  2  0  0  0  0  0  0  0  0  0
    9.6372  -16.3732   25.4705 N   0  0  0  0  0  0  0  0  0  0  0  0
   10.2252  -17.5001   27.4706 C   0  0  0  0  0  0  0  0  0  0  0  0
   10.2928  -18.5929   28.3074 O   0  0  0  0  0  0  0  0  0  0  0  0
   10.4497  -16.3625   27.9337 O   0  0  0  0  0  0  0  0  0  0  0  0
  1  2  1  0
  3  4  1  1
  3  2  1  0
  5  3  1  0
  5  7  1  0
  5  6  1  6
  7  8  2  0
 10  9  1  0
 11 10  1  0
 12 11  1  0
 13 12  1  1
 14  7  1  0
 14 13  1  0
 15 21  1  0
 15 13  1  0
 16 15  2  0
 18 17  1  6
 18 19  1  0
 20 21  1  6
 20 18  1  0
 22 20  1  0
 22 23  1  0
 24 22  2  0
M  END
$$$$
