PMK.pdb
     RDKit          3D

 25 25  0  0  1  0  0  0  0  0999 V2000
   26.9391  -20.2366  -14.3006 N   0  0  0  0  0  0  0  0  0  0  0  0
   27.7369  -19.0364  -14.1265 C   0  0  0  0  0  0  0  0  0  0  0  0
   28.4549  -18.9366  -15.4521 C   0  0  0  0  0  0  0  0  0  0  0  0
   27.4742  -19.5541  -16.4255 C   0  0  0  0  0  0  0  0  0  0  0  0
   26.3148  -19.9976  -15.5857 C   0  0  1  0  0  0  0  0  0  0  0  0
   25.6620  -21.2242  -16.0700 C   0  0  0  0  0  0  0  0  0  0  0  0
   24.8393  -21.1589  -17.0123 O   0  0  0  0  0  0  0  0  0  0  0  0
   28.2688  -27.4032  -15.8756 C   0  0  0  0  0  0  0  0  0  0  0  0
   27.7656  -26.5664  -17.4255 S   0  0  0  0  0  0  0  0  0  0  0  0
   27.3257  -24.8661  -16.9787 C   0  0  0  0  0  0  0  0  0  0  0  0
   26.3507  -24.8428  -15.8135 C   0  0  0  0  0  0  0  0  0  0  0  0
   25.3888  -23.6950  -16.0398 C   0  0  2  0  0  0  0  0  0  0  0  0
   25.9397  -22.4731  -15.4994 N   0  0  0  0  0  0  0  0  0  0  0  0
   24.0502  -23.9728  -15.4676 C   0  0  0  0  0  0  0  0  0  0  0  0
   23.9424  -24.0548  -14.2011 O   0  0  0  0  0  0  0  0  0  0  0  0
   22.8878  -24.1531  -16.2208 N   0  0  0  0  0  0  0  0  0  0  0  0
   21.5551  -24.4084  -15.6558 C   0  0  1  0  0  0  0  0  0  0  0  0
   20.5149  -23.6380  -16.3764 C   0  0  0  0  0  0  0  0  0  0  0  0
   19.1463  -23.8971  -15.8376 C   0  0  0  0  0  0  0  0  0  0  0  0
   18.8557  -22.9607  -14.6607 C   0  0  0  0  0  0  0  0  0  0  0  0
   17.9599  -21.8173  -15.0425 C   0  0  0  0  0  0  0  0  0  0  0  0
   17.6432  -21.0192  -13.8662 N   0  0  0  0  0  0  0  0  0  0  0  0
   21.3105  -25.8584  -15.7550 C   0  0  0  0  0  0  0  0  0  0  0  0
   21.7476  -26.4819  -16.7862 O   0  0  0  0  0  0  0  0  0  0  0  0
   20.6480  -26.5994  -14.8186 O   0  0  0  0  0  0  0  0  0  0  0  0
  1  2  1  0
  3  2  1  0
  4  3  1  0
  5  4  1  0
  5  6  1  6
  5  1  1  0
  6  7  2  0
  8  9  1  0
 10  9  1  0
 11 10  1  0
 12 11  1  1
 12 14  1  0
 13  6  1  0
 13 12  1  0
 14 15  2  0
 16 14  1  0
 16 17  1  0
 17 23  1  0
 17 18  1  6
 19 20  1  0
 19 18  1  0
 20 21  1  0
 22 21  1  0
 23 24  2  0
 23 25  1  0
M  END
$$$$
