PMK.pdb
     RDKit          3D

 25 25  0  0  1  0  0  0  0  0999 V2000
   28.2241  -19.2716  -16.6747 N   0  0  0  0  0  0  0  0  0  0  0  0
   28.6908  -18.0590  -17.3221 C   0  0  0  0  0  0  0  0  0  0  0  0
   27.5566  -17.0979  -17.0528 C   0  0  0  0  0  0  0  0  0  0  0  0
   27.0059  -17.5736  -15.7258 C   0  0  0  0  0  0  0  0  0  0  0  0
   27.8217  -18.7804  -15.3727 C   0  0  1  0  0  0  0  0  0  0  0  0
   27.0702  -19.8173  -14.6479 C   0  0  0  0  0  0  0  0  0  0  0  0
   26.6308  -20.8130  -15.2680 O   0  0  0  0  0  0  0  0  0  0  0  0
   25.9234  -19.7715   -8.1783 C   0  0  0  0  0  0  0  0  0  0  0  0
   25.4877  -21.5000   -8.6001 S   0  0  0  0  0  0  0  0  0  0  0  0
   25.3020  -21.5642  -10.4017 C   0  0  0  0  0  0  0  0  0  0  0  0
   26.1843  -20.5287  -11.0786 C   0  0  0  0  0  0  0  0  0  0  0  0
   25.9934  -20.6672  -12.5747 C   0  0  2  0  0  0  0  0  0  0  0  0
   26.8319  -19.7182  -13.2711 N   0  0  0  0  0  0  0  0  0  0  0  0
   24.5733  -20.5106  -12.9688 C   0  0  0  0  0  0  0  0  0  0  0  0
   24.0775  -19.3373  -12.9792 O   0  0  0  0  0  0  0  0  0  0  0  0
   23.7308  -21.5635  -13.3330 N   0  0  0  0  0  0  0  0  0  0  0  0
   22.3655  -21.4021  -13.8529 C   0  0  1  0  0  0  0  0  0  0  0  0
   22.0435  -22.4587  -14.8402 C   0  0  0  0  0  0  0  0  0  0  0  0
   22.1080  -23.8265  -14.2438 C   0  0  0  0  0  0  0  0  0  0  0  0
   21.7651  -24.8806  -15.3009 C   0  0  0  0  0  0  0  0  0  0  0  0
   21.6554  -26.2620  -14.7219 C   0  0  0  0  0  0  0  0  0  0  0  0
   21.3202  -27.2157  -15.7702 N   0  0  0  0  0  0  0  0  0  0  0  0
   21.4509  -21.4532  -12.6984 C   0  0  0  0  0  0  0  0  0  0  0  0
   20.2051  -21.2248  -12.8961 O   0  0  0  0  0  0  0  0  0  0  0  0
   21.8331  -21.7324  -11.4174 O   0  0  0  0  0  0  0  0  0  0  0  0
  1  2  1  0
  3  2  1  0
  4  3  1  0
  5  4  1  0
  5  6  1  6
  5  1  1  0
  6  7  2  0
  8  9  1  0
 10  9  1  0
 11 10  1  0
 12 11  1  1
 12 14  1  0
 13  6  1  0
 13 12  1  0
 14 15  2  0
 16 14  1  0
 16 17  1  0
 17 23  1  0
 17 18  1  6
 19 20  1  0
 19 18  1  0
 20 21  1  0
 22 21  1  0
 23 24  2  0
 23 25  1  0
M  END
$$$$
