PMK.pdb
     RDKit          3D

 25 25  0  0  1  0  0  0  0  0999 V2000
   27.3034  -19.5786  -16.7522 N   0  0  0  0  0  0  0  0  0  0  0  0
   27.6867  -18.7726  -17.8972 C   0  0  0  0  0  0  0  0  0  0  0  0
   26.5055  -18.9516  -18.8220 C   0  0  0  0  0  0  0  0  0  0  0  0
   25.3456  -19.1479  -17.8697 C   0  0  0  0  0  0  0  0  0  0  0  0
   25.9533  -19.1180  -16.5000 C   0  0  1  0  0  0  0  0  0  0  0  0
   25.2865  -20.0030  -15.5320 C   0  0  0  0  0  0  0  0  0  0  0  0
   24.7969  -21.0891  -15.9189 O   0  0  0  0  0  0  0  0  0  0  0  0
   26.5491  -20.4336   -9.2046 C   0  0  0  0  0  0  0  0  0  0  0  0
   24.7669  -20.8547   -9.1592 S   0  0  0  0  0  0  0  0  0  0  0  0
   24.2574  -21.1434  -10.8742 C   0  0  0  0  0  0  0  0  0  0  0  0
   24.9547  -20.1803  -11.8203 C   0  0  0  0  0  0  0  0  0  0  0  0
   24.5007  -20.5066  -13.2278 C   0  0  2  0  0  0  0  0  0  0  0  0
   25.1845  -19.6590  -14.1779 N   0  0  0  0  0  0  0  0  0  0  0  0
   23.0306  -20.3925  -13.3763 C   0  0  0  0  0  0  0  0  0  0  0  0
   22.5190  -19.2269  -13.4220 O   0  0  0  0  0  0  0  0  0  0  0  0
   22.1565  -21.4780  -13.4705 N   0  0  0  0  0  0  0  0  0  0  0  0
   20.6997  -21.3686  -13.6319 C   0  0  1  0  0  0  0  0  0  0  0  0
   20.0887  -22.6978  -13.8653 C   0  0  0  0  0  0  0  0  0  0  0  0
   19.7001  -23.3718  -12.5903 C   0  0  0  0  0  0  0  0  0  0  0  0
   18.9891  -24.6955  -12.8877 C   0  0  0  0  0  0  0  0  0  0  0  0
   18.5830  -25.4240  -11.6387 C   0  0  0  0  0  0  0  0  0  0  0  0
   17.8264  -26.6196  -11.9838 N   0  0  0  0  0  0  0  0  0  0  0  0
   20.1711  -20.7457  -12.4052 C   0  0  0  0  0  0  0  0  0  0  0  0
   20.8899  -20.7810  -11.3444 O   0  0  0  0  0  0  0  0  0  0  0  0
   18.9596  -20.1226  -12.3113 O   0  0  0  0  0  0  0  0  0  0  0  0
  1  2  1  0
  3  2  1  0
  4  3  1  0
  5  4  1  0
  5  6  1  1
  5  1  1  0
  6  7  2  0
  8  9  1  0
 10  9  1  0
 11 10  1  0
 12 11  1  1
 12 14  1  0
 13  6  1  0
 13 12  1  0
 14 15  2  0
 16 14  1  0
 16 17  1  0
 17 23  1  0
 17 18  1  1
 19 20  1  0
 19 18  1  0
 20 21  1  0
 22 21  1  0
 23 24  2  0
 23 25  1  0
M  END
$$$$
