PMK.pdb
     RDKit          3D

 25 25  0  0  1  0  0  0  0  0999 V2000
   24.6667  -22.1891  -15.3054 N   0  0  0  0  0  0  0  0  0  0  0  0
   26.0184  -22.3053  -15.8219 C   0  0  0  0  0  0  0  0  0  0  0  0
   26.5713  -20.9202  -15.5808 C   0  0  0  0  0  0  0  0  0  0  0  0
   25.8312  -20.4615  -14.3428 C   0  0  0  0  0  0  0  0  0  0  0  0
   24.8921  -21.5811  -14.0100 C   0  0  1  0  0  0  0  0  0  0  0  0
   23.6159  -21.1363  -13.4280 C   0  0  0  0  0  0  0  0  0  0  0  0
   23.6149  -20.4898  -12.3551 O   0  0  0  0  0  0  0  0  0  0  0  0
   18.5681  -18.3873  -15.9675 C   0  0  0  0  0  0  0  0  0  0  0  0
   20.3271  -17.8806  -16.0374 S   0  0  0  0  0  0  0  0  0  0  0  0
   21.2356  -19.0052  -14.9447 C   0  0  0  0  0  0  0  0  0  0  0  0
   20.3644  -20.1753  -14.5194 C   0  0  0  0  0  0  0  0  0  0  0  0
   21.1359  -20.9746  -13.4900 C   0  0  2  0  0  0  0  0  0  0  0  0
   22.3924  -21.4198  -14.0484 N   0  0  0  0  0  0  0  0  0  0  0  0
   20.3489  -22.1193  -12.9737 C   0  0  0  0  0  0  0  0  0  0  0  0
   20.3096  -23.1853  -13.6697 O   0  0  0  0  0  0  0  0  0  0  0  0
   19.6405  -22.1158  -11.7698 N   0  0  0  0  0  0  0  0  0  0  0  0
   18.9387  -23.2786  -11.2079 C   0  0  1  0  0  0  0  0  0  0  0  0
   19.0778  -23.3229   -9.7336 C   0  0  0  0  0  0  0  0  0  0  0  0
   18.3557  -24.4844   -9.1335 C   0  0  0  0  0  0  0  0  0  0  0  0
   18.5555  -24.5035   -7.6149 C   0  0  0  0  0  0  0  0  0  0  0  0
   17.8096  -25.6250   -6.9504 C   0  0  0  0  0  0  0  0  0  0  0  0
   18.1058  -25.6433   -5.5246 N   0  0  0  0  0  0  0  0  0  0  0  0
   17.5244  -23.1687  -11.6077 C   0  0  0  0  0  0  0  0  0  0  0  0
   17.0056  -22.0002  -11.7013 O   0  0  0  0  0  0  0  0  0  0  0  0
   16.7141  -24.2302  -11.8934 O   0  0  0  0  0  0  0  0  0  0  0  0
  1  2  1  0
  3  2  1  0
  4  3  1  0
  5  4  1  0
  5  6  1  6
  5  1  1  0
  6  7  2  0
  8  9  1  0
 10  9  1  0
 11 10  1  0
 12 11  1  6
 12 14  1  0
 13  6  1  0
 13 12  1  0
 14 15  2  0
 16 14  1  0
 16 17  1  0
 17 23  1  0
 17 18  1  1
 19 20  1  0
 19 18  1  0
 20 21  1  0
 22 21  1  0
 23 24  2  0
 23 25  1  0
M  END
$$$$
