PMK.pdb
     RDKit          3D

 25 25  0  0  1  0  0  0  0  0999 V2000
   30.8796  -20.6868  -10.0315 N   0  0  0  0  0  0  0  0  0  0  0  0
   32.1824  -21.1345  -10.4890 C   0  0  0  0  0  0  0  0  0  0  0  0
   32.2900  -22.5014   -9.8545 C   0  0  0  0  0  0  0  0  0  0  0  0
   30.8520  -22.9691   -9.7914 C   0  0  0  0  0  0  0  0  0  0  0  0
   30.0450  -21.8305  -10.3379 C   0  0  1  0  0  0  0  0  0  0  0  0
   28.7238  -21.6793   -9.7081 C   0  0  0  0  0  0  0  0  0  0  0  0
   27.8732  -22.5916   -9.8234 O   0  0  0  0  0  0  0  0  0  0  0  0
   27.0568  -19.5650   -3.7544 C   0  0  0  0  0  0  0  0  0  0  0  0
   28.6679  -19.5299   -4.6254 S   0  0  0  0  0  0  0  0  0  0  0  0
   28.4085  -20.3307   -6.2303 C   0  0  0  0  0  0  0  0  0  0  0  0
   27.2877  -19.6551   -7.0026 C   0  0  0  0  0  0  0  0  0  0  0  0
   27.1150  -20.3991   -8.3104 C   0  0  2  0  0  0  0  0  0  0  0  0
   28.3904  -20.5318   -8.9770 N   0  0  0  0  0  0  0  0  0  0  0  0
   26.1201  -19.7451   -9.1928 C   0  0  0  0  0  0  0  0  0  0  0  0
   26.4092  -18.6068   -9.6859 O   0  0  0  0  0  0  0  0  0  0  0  0
   24.8776  -20.2890   -9.5267 N   0  0  0  0  0  0  0  0  0  0  0  0
   24.1897  -20.0811  -10.8089 C   0  0  1  0  0  0  0  0  0  0  0  0
   24.9019  -20.7666  -11.9123 C   0  0  0  0  0  0  0  0  0  0  0  0
   24.2264  -20.5675  -13.2294 C   0  0  0  0  0  0  0  0  0  0  0  0
   25.0455  -21.2198  -14.3474 C   0  0  0  0  0  0  0  0  0  0  0  0
   24.4231  -21.0324  -15.7013 C   0  0  0  0  0  0  0  0  0  0  0  0
   25.3314  -21.5065  -16.7363 N   0  0  0  0  0  0  0  0  0  0  0  0
   22.8180  -20.5980  -10.6561 C   0  0  0  0  0  0  0  0  0  0  0  0
   22.5601  -21.3584   -9.6568 O   0  0  0  0  0  0  0  0  0  0  0  0
   21.7858  -20.3227  -11.5068 O   0  0  0  0  0  0  0  0  0  0  0  0
  1  2  1  0
  3  2  1  0
  4  3  1  0
  5  4  1  0
  5  6  1  1
  5  1  1  0
  6  7  2  0
  8  9  1  0
 10  9  1  0
 11 10  1  0
 12 11  1  1
 12 14  1  0
 13  6  1  0
 13 12  1  0
 14 15  2  0
 16 14  1  0
 16 17  1  0
 17 23  1  0
 17 18  1  6
 19 20  1  0
 19 18  1  0
 20 21  1  0
 22 21  1  0
 23 24  2  0
 23 25  1  0
M  END
$$$$
