PMK.pdb
     RDKit          3D

 25 25  0  0  1  0  0  0  0  0999 V2000
   39.3320  -26.4549    4.4118 N   0  0  0  0  0  0  0  0  0  0  0  0
   39.8066  -27.6156    3.6804 C   0  0  0  0  0  0  0  0  0  0  0  0
   38.7971  -28.6706    4.0681 C   0  0  0  0  0  0  0  0  0  0  0  0
   37.5311  -27.8730    4.2956 C   0  0  0  0  0  0  0  0  0  0  0  0
   37.9233  -26.4435    4.0742 C   0  0  1  0  0  0  0  0  0  0  0  0
   37.2029  -25.4879    4.9304 C   0  0  0  0  0  0  0  0  0  0  0  0
   37.7329  -25.0823    5.9904 O   0  0  0  0  0  0  0  0  0  0  0  0
   31.3189  -20.3781    5.7562 C   0  0  0  0  0  0  0  0  0  0  0  0
   31.9110  -21.7545    4.7023 S   0  0  0  0  0  0  0  0  0  0  0  0
   33.4487  -22.3563    5.4490 C   0  0  0  0  0  0  0  0  0  0  0  0
   34.0584  -23.4730    4.6181 C   0  0  0  0  0  0  0  0  0  0  0  0
   35.2506  -24.0154    5.3785 C   0  0  2  0  0  0  0  0  0  0  0  0
   35.9292  -25.0164    4.5872 N   0  0  0  0  0  0  0  0  0  0  0  0
   34.8634  -24.5576    6.7023 C   0  0  0  0  0  0  0  0  0  0  0  0
   34.3095  -25.7039    6.7445 O   0  0  0  0  0  0  0  0  0  0  0  0
   35.0624  -23.8990    7.9179 N   0  0  0  0  0  0  0  0  0  0  0  0
   34.8189  -24.4913    9.2409 C   0  0  1  0  0  0  0  0  0  0  0  0
   35.7974  -23.9932   10.2354 C   0  0  0  0  0  0  0  0  0  0  0  0
   35.5688  -24.5748   11.5920 C   0  0  0  0  0  0  0  0  0  0  0  0
   36.3623  -25.8755   11.7498 C   0  0  0  0  0  0  0  0  0  0  0  0
   36.2049  -26.4838   13.1139 C   0  0  0  0  0  0  0  0  0  0  0  0
   36.9632  -27.7244   13.1959 N   0  0  0  0  0  0  0  0  0  0  0  0
   33.4401  -24.1423    9.6272 C   0  0  0  0  0  0  0  0  0  0  0  0
   32.8763  -24.8214   10.5569 O   0  0  0  0  0  0  0  0  0  0  0  0
   32.7082  -23.1353    9.0657 O   0  0  0  0  0  0  0  0  0  0  0  0
  1  2  1  0
  3  2  1  0
  4  3  1  0
  5  4  1  0
  5  6  1  1
  5  1  1  0
  6  7  2  0
  8  9  1  0
 10  9  1  0
 11 10  1  0
 12 11  1  6
 12 14  1  0
 13  6  1  0
 13 12  1  0
 14 15  2  0
 16 14  1  0
 16 17  1  0
 17 23  1  0
 17 18  1  1
 19 20  1  0
 19 18  1  0
 20 21  1  0
 22 21  1  0
 23 24  2  0
 23 25  1  0
M  END
$$$$
