PMK.pdb
     RDKit          3D

 25 25  0  0  1  0  0  0  0  0999 V2000
   26.7807  -12.3611  -15.4714 N   0  0  0  0  0  0  0  0  0  0  0  0
   28.0705  -13.0006  -15.6575 C   0  0  0  0  0  0  0  0  0  0  0  0
   27.8022  -13.9251  -16.8219 C   0  0  0  0  0  0  0  0  0  0  0  0
   26.7400  -13.1904  -17.6110 C   0  0  0  0  0  0  0  0  0  0  0  0
   26.4527  -11.9495  -16.8210 C   0  0  1  0  0  0  0  0  0  0  0  0
   25.0506  -11.5086  -16.8917 C   0  0  0  0  0  0  0  0  0  0  0  0
   24.5432  -11.2288  -18.0022 O   0  0  0  0  0  0  0  0  0  0  0  0
   20.7349  -15.7998  -14.6652 C   0  0  0  0  0  0  0  0  0  0  0  0
   20.8261  -14.0820  -14.0357 S   0  0  0  0  0  0  0  0  0  0  0  0
   21.7826  -13.1342  -15.2486 C   0  0  0  0  0  0  0  0  0  0  0  0
   22.0814  -11.7355  -14.7355 C   0  0  0  0  0  0  0  0  0  0  0  0
   22.8706  -11.0104  -15.8057 C   0  0  2  0  0  0  0  0  0  0  0  0
   24.2627  -11.3928  -15.7393 N   0  0  0  0  0  0  0  0  0  0  0  0
   22.7184   -9.5396  -15.7054 C   0  0  0  0  0  0  0  0  0  0  0  0
   23.4330   -8.9173  -14.8543 O   0  0  0  0  0  0  0  0  0  0  0  0
   21.8417   -8.7784  -16.4820 N   0  0  0  0  0  0  0  0  0  0  0  0
   21.7137   -7.3160  -16.4102 C   0  0  1  0  0  0  0  0  0  0  0  0
   20.8525   -6.8028  -17.5010 C   0  0  0  0  0  0  0  0  0  0  0  0
   20.7741   -5.3113  -17.5036 C   0  0  0  0  0  0  0  0  0  0  0  0
   19.8604   -4.8322  -18.6359 C   0  0  0  0  0  0  0  0  0  0  0  0
   19.7138   -3.3378  -18.6638 C   0  0  0  0  0  0  0  0  0  0  0  0
   18.8355   -2.9444  -19.7568 N   0  0  0  0  0  0  0  0  0  0  0  0
   21.1498   -6.9926  -15.0875 C   0  0  0  0  0  0  0  0  0  0  0  0
   21.5554   -5.9311  -14.4942 O   0  0  0  0  0  0  0  0  0  0  0  0
   20.2134   -7.7450  -14.4381 O   0  0  0  0  0  0  0  0  0  0  0  0
  1  2  1  0
  3  2  1  0
  4  3  1  0
  5  4  1  0
  5  6  1  1
  5  1  1  0
  6  7  2  0
  8  9  1  0
 10  9  1  0
 11 10  1  0
 12 11  1  1
 12 14  1  0
 13  6  1  0
 13 12  1  0
 14 15  2  0
 16 14  1  0
 16 17  1  0
 17 23  1  0
 17 18  1  6
 19 20  1  0
 19 18  1  0
 20 21  1  0
 22 21  1  0
 23 24  2  0
 23 25  1  0
M  END
$$$$
