PMK.pdb
     RDKit          3D

 25 25  0  0  1  0  0  0  0  0999 V2000
   27.6416  -19.2608  -14.9405 N   0  0  0  0  0  0  0  0  0  0  0  0
   28.6329  -19.0370  -15.9771 C   0  0  0  0  0  0  0  0  0  0  0  0
   29.5881  -20.1868  -15.7573 C   0  0  0  0  0  0  0  0  0  0  0  0
   28.6949  -21.2814  -15.2145 C   0  0  0  0  0  0  0  0  0  0  0  0
   27.3323  -20.6646  -15.1196 C   0  0  1  0  0  0  0  0  0  0  0  0
   26.5318  -21.1575  -13.9876 C   0  0  0  0  0  0  0  0  0  0  0  0
   25.8495  -22.1999  -14.1172 O   0  0  0  0  0  0  0  0  0  0  0  0
   27.6570  -21.0028   -7.5845 C   0  0  0  0  0  0  0  0  0  0  0  0
   25.8869  -20.5327   -7.6218 S   0  0  0  0  0  0  0  0  0  0  0  0
   25.2678  -20.9698   -9.2680 C   0  0  0  0  0  0  0  0  0  0  0  0
   26.1906  -20.4452  -10.3552 C   0  0  0  0  0  0  0  0  0  0  0  0
   25.6224  -20.8778  -11.6909 C   0  0  2  0  0  0  0  0  0  0  0  0
   26.5134  -20.4850  -12.7589 N   0  0  0  0  0  0  0  0  0  0  0  0
   24.2587  -20.3416  -11.9126 C   0  0  0  0  0  0  0  0  0  0  0  0
   24.1336  -19.0980  -12.1583 O   0  0  0  0  0  0  0  0  0  0  0  0
   23.0900  -21.1055  -11.8717 N   0  0  0  0  0  0  0  0  0  0  0  0
   21.7635  -20.6295  -12.2889 C   0  0  1  0  0  0  0  0  0  0  0  0
   21.2372  -21.4379  -13.4133 C   0  0  0  0  0  0  0  0  0  0  0  0
   19.8464  -21.0438  -13.7889 C   0  0  0  0  0  0  0  0  0  0  0  0
   19.3611  -21.8838  -14.9744 C   0  0  0  0  0  0  0  0  0  0  0  0
   17.9645  -21.5291  -15.3976 C   0  0  0  0  0  0  0  0  0  0  0  0
   17.5810  -22.3191  -16.5594 N   0  0  0  0  0  0  0  0  0  0  0  0
   20.8807  -20.7134  -11.1117 C   0  0  0  0  0  0  0  0  0  0  0  0
   21.2188  -21.4898  -10.1494 O   0  0  0  0  0  0  0  0  0  0  0  0
   19.7161  -20.0156  -10.9638 O   0  0  0  0  0  0  0  0  0  0  0  0
  1  2  1  0
  3  2  1  0
  4  3  1  0
  5  4  1  0
  5  6  1  1
  5  1  1  0
  6  7  2  0
  8  9  1  0
 10  9  1  0
 11 10  1  0
 12 11  1  1
 12 14  1  0
 13  6  1  0
 13 12  1  0
 14 15  2  0
 16 14  1  0
 16 17  1  0
 17 23  1  0
 17 18  1  6
 19 20  1  0
 19 18  1  0
 20 21  1  0
 22 21  1  0
 23 24  2  0
 23 25  1  0
M  END
$$$$
