ISV.pdb
     RDKit          3D

 22 21  0  0  1  0  0  0  0  0999 V2000
   27.5081  -26.9047  -18.2823 C   0  0  0  0  0  0  0  0  0  0  0  0
   28.1505  -26.3493  -17.0498 C   0  0  0  0  0  0  0  0  0  0  0  0
   27.3899  -25.1979  -16.4562 C   0  0  2  0  0  0  0  0  0  0  0  0
   25.9371  -25.5829  -16.2743 C   0  0  0  0  0  0  0  0  0  0  0  0
   27.5912  -23.9349  -17.2383 C   0  0  2  0  0  0  0  0  0  0  0  0
   29.0448  -23.6611  -17.1668 N   0  0  0  0  0  0  0  0  0  0  0  0
   26.8834  -22.7656  -16.6582 C   0  0  0  0  0  0  0  0  0  0  0  0
   27.1076  -22.4211  -15.4542 O   0  0  0  0  0  0  0  0  0  0  0  0
   25.0692  -20.0333  -18.9235 O   0  0  0  0  0  0  0  0  0  0  0  0
   25.4232  -19.6026  -17.6567 C   0  0  0  0  0  0  0  0  0  0  0  0
   25.3242  -20.8190  -16.7288 C   0  0  2  0  0  0  0  0  0  0  0  0
   25.9472  -21.9760  -17.3681 N   0  0  0  0  0  0  0  0  0  0  0  0
   23.8845  -21.1082  -16.5216 C   0  0  0  0  0  0  0  0  0  0  0  0
   23.2119  -21.8658  -17.2474 O   0  0  0  0  0  0  0  0  0  0  0  0
   22.1815  -21.8075  -12.9712 C   0  0  0  0  0  0  0  0  0  0  0  0
   21.4076  -20.7501  -13.7333 C   0  0  1  0  0  0  0  0  0  0  0  0
   21.6767  -19.3927  -13.1214 C   0  0  0  0  0  0  0  0  0  0  0  0
   21.7633  -20.7525  -15.2124 C   0  0  2  0  0  0  0  0  0  0  0  0
   23.1671  -20.5026  -15.4275 N   0  0  0  0  0  0  0  0  0  0  0  0
   20.9155  -19.7252  -15.8581 C   0  0  0  0  0  0  0  0  0  0  0  0
   19.5765  -19.8933  -16.1497 O   0  0  0  0  0  0  0  0  0  0  0  0
   21.4476  -18.6283  -16.1613 O   0  0  0  0  0  0  0  0  0  0  0  0
  2  1  1  0
  3  2  1  0
  3  5  1  0
  3  4  1  6
  5  7  1  0
  5  6  1  1
  7 12  1  0
  7  8  2  0
 11 10  1  6
 10  9  1  0
 11 13  1  0
 12 11  1  0
 13 14  2  0
 16 15  1  1
 16 18  1  0
 17 16  1  0
 18 20  1  0
 19 13  1  0
 18 19  1  1
 20 21  1  0
 22 20  2  0
M  END
$$$$
