ISV.pdb
     RDKit          3D

 22 21  0  0  1  0  0  0  0  0999 V2000
   14.4668  -13.3148  -16.4609 C   0  0  0  0  0  0  0  0  0  0  0  0
   15.7059  -13.2350  -17.2967 C   0  0  0  0  0  0  0  0  0  0  0  0
   16.7731  -12.3708  -16.6880 C   0  0  2  0  0  0  0  0  0  0  0  0
   16.1800  -11.0421  -16.2701 C   0  0  0  0  0  0  0  0  0  0  0  0
   17.9690  -12.2485  -17.5836 C   0  0  2  0  0  0  0  0  0  0  0  0
   18.4229  -13.6384  -17.8178 N   0  0  0  0  0  0  0  0  0  0  0  0
   19.0946  -11.5055  -16.9625 C   0  0  0  0  0  0  0  0  0  0  0  0
   19.7825  -12.0495  -16.0409 O   0  0  0  0  0  0  0  0  0  0  0  0
   20.7042   -8.2248  -18.6728 O   0  0  0  0  0  0  0  0  0  0  0  0
   21.5397   -9.0021  -17.8895 C   0  0  0  0  0  0  0  0  0  0  0  0
   20.6783   -9.5876  -16.7646 C   0  0  2  0  0  0  0  0  0  0  0  0
   19.4754  -10.1932  -17.3321 N   0  0  0  0  0  0  0  0  0  0  0  0
   20.2748   -8.4676  -15.8802 C   0  0  0  0  0  0  0  0  0  0  0  0
   19.2520   -7.7763  -16.0497 O   0  0  0  0  0  0  0  0  0  0  0  0
   22.5175   -7.5788  -12.2175 C   0  0  0  0  0  0  0  0  0  0  0  0
   21.0500   -7.2658  -12.4331 C   0  0  1  0  0  0  0  0  0  0  0  0
   20.6572   -6.0847  -11.5730 C   0  0  0  0  0  0  0  0  0  0  0  0
   20.7456   -6.9885  -13.8976 C   0  0  2  0  0  0  0  0  0  0  0  0
   21.0790   -8.1122  -14.7376 N   0  0  0  0  0  0  0  0  0  0  0  0
   21.5081   -5.7760  -14.2711 C   0  0  0  0  0  0  0  0  0  0  0  0
   21.0593   -4.4849  -14.0770 O   0  0  0  0  0  0  0  0  0  0  0  0
   22.6375   -5.9303  -14.7993 O   0  0  0  0  0  0  0  0  0  0  0  0
  2  1  1  0
  3  2  1  0
  3  5  1  0
  3  4  1  6
  5  7  1  0
  5  6  1  1
  7 12  1  0
  7  8  2  0
 11 10  1  6
 10  9  1  0
 11 13  1  0
 12 11  1  0
 13 14  2  0
 16 15  1  6
 16 18  1  0
 17 16  1  0
 18 20  1  0
 19 13  1  0
 18 19  1  6
 20 21  1  0
 22 20  2  0
M  END
$$$$
