ISV.pdb
     RDKit          3D

 22 21  0  0  1  0  0  0  0  0999 V2000
   25.9696  -14.9858  -15.7366 C   0  0  0  0  0  0  0  0  0  0  0  0
   24.5074  -14.7033  -15.5876 C   0  0  0  0  0  0  0  0  0  0  0  0
   24.1402  -13.2912  -15.9448 C   0  0  2  0  0  0  0  0  0  0  0  0
   24.9967  -12.3238  -15.1558 C   0  0  0  0  0  0  0  0  0  0  0  0
   22.6670  -13.0479  -15.8113 C   0  0  2  0  0  0  0  0  0  0  0  0
   22.0259  -14.0546  -16.6878 N   0  0  0  0  0  0  0  0  0  0  0  0
   22.2481  -11.7049  -16.2861 C   0  0  0  0  0  0  0  0  0  0  0  0
   22.4594  -11.3639  -17.4935 O   0  0  0  0  0  0  0  0  0  0  0  0
   19.3153   -9.7342  -14.6983 O   0  0  0  0  0  0  0  0  0  0  0  0
   19.7075   -9.2725  -15.9428 C   0  0  0  0  0  0  0  0  0  0  0  0
   21.2290   -9.4427  -16.0218 C   0  0  2  0  0  0  0  0  0  0  0  0
   21.6069  -10.7420  -15.4701 N   0  0  0  0  0  0  0  0  0  0  0  0
   21.8425   -8.3773  -15.1923 C   0  0  0  0  0  0  0  0  0  0  0  0
   22.1250   -8.5063  -13.9854 O   0  0  0  0  0  0  0  0  0  0  0  0
   24.8257   -5.9488  -16.3656 C   0  0  0  0  0  0  0  0  0  0  0  0
   23.6620   -5.1554  -15.8050 C   0  0  1  0  0  0  0  0  0  0  0  0
   22.9080   -4.4997  -16.9412 C   0  0  0  0  0  0  0  0  0  0  0  0
   22.7327   -6.0317  -14.9787 C   0  0  2  0  0  0  0  0  0  0  0  0
   22.1531   -7.0918  -15.7661 N   0  0  0  0  0  0  0  0  0  0  0  0
   21.6979   -5.1398  -14.4087 C   0  0  0  0  0  0  0  0  0  0  0  0
   21.9262   -4.2348  -13.3914 O   0  0  0  0  0  0  0  0  0  0  0  0
   20.5356   -5.2098  -14.8804 O   0  0  0  0  0  0  0  0  0  0  0  0
  2  1  1  0
  3  2  1  0
  3  5  1  0
  3  4  1  1
  5  7  1  0
  5  6  1  6
  7 12  1  0
  7  8  2  0
 11 10  1  1
 10  9  1  0
 11 13  1  0
 12 11  1  0
 13 14  2  0
 16 15  1  6
 16 18  1  0
 17 16  1  0
 18 20  1  0
 19 13  1  0
 18 19  1  6
 20 21  1  0
 22 20  2  0
M  END
$$$$
