ISV.pdb
     RDKit          3D

 22 21  0  0  1  0  0  0  0  0999 V2000
   22.7408  -15.4224  -20.6196 C   0  0  0  0  0  0  0  0  0  0  0  0
   23.2649  -14.0889  -20.1868 C   0  0  0  0  0  0  0  0  0  0  0  0
   22.2279  -13.2395  -19.5089 C   0  0  2  0  0  0  0  0  0  0  0  0
   20.9756  -13.1845  -20.3579 C   0  0  0  0  0  0  0  0  0  0  0  0
   22.7690  -11.8924  -19.1349 C   0  0  2  0  0  0  0  0  0  0  0  0
   24.0310  -12.1678  -18.4109 N   0  0  0  0  0  0  0  0  0  0  0  0
   21.8793  -11.1360  -18.2178 C   0  0  0  0  0  0  0  0  0  0  0  0
   20.6839  -10.8739  -18.5657 O   0  0  0  0  0  0  0  0  0  0  0  0
   23.2135   -9.6883  -14.7227 O   0  0  0  0  0  0  0  0  0  0  0  0
   21.8425   -9.8697  -14.6675 C   0  0  0  0  0  0  0  0  0  0  0  0
   21.3393   -9.9059  -16.1152 C   0  0  2  0  0  0  0  0  0  0  0  0
   22.2725  -10.6699  -16.9403 N   0  0  0  0  0  0  0  0  0  0  0  0
   21.3005   -8.5086  -16.6109 C   0  0  0  0  0  0  0  0  0  0  0  0
   22.2454   -7.9491  -17.2000 O   0  0  0  0  0  0  0  0  0  0  0  0
   18.3848   -6.9853  -18.7201 C   0  0  0  0  0  0  0  0  0  0  0  0
   18.6784   -6.0634  -17.5531 C   0  0  1  0  0  0  0  0  0  0  0  0
   17.5837   -6.2005  -16.5176 C   0  0  0  0  0  0  0  0  0  0  0  0
   20.0390   -6.3542  -16.9379 C   0  0  2  0  0  0  0  0  0  0  0  0
   20.1210   -7.7003  -16.4273 N   0  0  0  0  0  0  0  0  0  0  0  0
   20.2516   -5.3473  -15.8739 C   0  0  0  0  0  0  0  0  0  0  0  0
   20.5811   -4.0271  -16.1075 O   0  0  0  0  0  0  0  0  0  0  0  0
   20.1242   -5.7168  -14.6799 O   0  0  0  0  0  0  0  0  0  0  0  0
  2  1  1  0
  3  2  1  0
  3  5  1  0
  3  4  1  6
  5  7  1  0
  5  6  1  1
  7 12  1  0
  7  8  2  0
 11 10  1  1
 10  9  1  0
 11 13  1  0
 12 11  1  0
 13 14  2  0
 16 15  1  6
 16 18  1  0
 17 16  1  0
 18 20  1  0
 19 13  1  0
 18 19  1  1
 20 21  1  0
 22 20  2  0
M  END
$$$$
