ISV.pdb
     RDKit          3D

 22 21  0  0  1  0  0  0  0  0999 V2000
   16.0012  -14.2183  -15.5173 C   0  0  0  0  0  0  0  0  0  0  0  0
   15.8024  -12.7576  -15.7758 C   0  0  0  0  0  0  0  0  0  0  0  0
   17.0552  -11.9499  -15.5892 C   0  0  2  0  0  0  0  0  0  0  0  0
   17.6678  -12.2589  -14.2397 C   0  0  0  0  0  0  0  0  0  0  0  0
   16.8173  -10.4894  -15.8293 C   0  0  2  0  0  0  0  0  0  0  0  0
   16.2736  -10.4051  -17.2040 N   0  0  0  0  0  0  0  0  0  0  0  0
   18.0593   -9.6770  -15.7853 C   0  0  0  0  0  0  0  0  0  0  0  0
   18.6866   -9.5350  -14.6876 O   0  0  0  0  0  0  0  0  0  0  0  0
   20.8859   -8.9684  -18.7941 O   0  0  0  0  0  0  0  0  0  0  0  0
   20.3528   -7.8502  -18.1768 C   0  0  0  0  0  0  0  0  0  0  0  0
   19.8767   -8.2924  -16.7882 C   0  0  2  0  0  0  0  0  0  0  0  0
   18.6197   -9.0275  -16.9114 N   0  0  0  0  0  0  0  0  0  0  0  0
   19.6350   -7.0682  -15.9868 C   0  0  0  0  0  0  0  0  0  0  0  0
   18.5769   -6.4105  -16.0165 O   0  0  0  0  0  0  0  0  0  0  0  0
   20.8201   -6.8562  -12.1798 C   0  0  0  0  0  0  0  0  0  0  0  0
   21.1730   -5.5769  -12.9126 C   0  0  1  0  0  0  0  0  0  0  0  0
   22.6642   -5.5385  -13.1656 C   0  0  0  0  0  0  0  0  0  0  0  0
   20.4032   -5.4487  -14.2185 C   0  0  2  0  0  0  0  0  0  0  0  0
   20.6532   -6.5616  -15.1008 N   0  0  0  0  0  0  0  0  0  0  0  0
   20.8057   -4.1612  -14.8279 C   0  0  0  0  0  0  0  0  0  0  0  0
   20.3771   -2.9249  -14.3875 O   0  0  0  0  0  0  0  0  0  0  0  0
   21.5885   -4.1939  -15.8100 O   0  0  0  0  0  0  0  0  0  0  0  0
  2  1  1  0
  3  2  1  0
  3  5  1  0
  3  4  1  1
  5  7  1  0
  5  6  1  6
  7 12  1  0
  7  8  2  0
 11 10  1  6
 10  9  1  0
 11 13  1  0
 12 11  1  0
 13 14  2  0
 16 15  1  6
 16 18  1  0
 17 16  1  0
 18 20  1  0
 19 13  1  0
 18 19  1  6
 20 21  1  0
 22 20  2  0
M  END
$$$$
