ISV.pdb
     RDKit          3D

 22 21  0  0  1  0  0  0  0  0999 V2000
   12.7266  -12.7343  -14.5466 C   0  0  0  0  0  0  0  0  0  0  0  0
   14.1868  -12.4112  -14.6062 C   0  0  0  0  0  0  0  0  0  0  0  0
   14.6352  -11.5018  -13.4978 C   0  0  2  0  0  0  0  0  0  0  0  0
   13.7382  -10.2837  -13.4398 C   0  0  0  0  0  0  0  0  0  0  0  0
   16.0954  -11.1779  -13.5994 C   0  0  2  0  0  0  0  0  0  0  0  0
   16.7921  -12.4773  -13.4623 N   0  0  0  0  0  0  0  0  0  0  0  0
   16.5774  -10.2910  -12.5104 C   0  0  0  0  0  0  0  0  0  0  0  0
   16.7011  -10.7462  -11.3289 O   0  0  0  0  0  0  0  0  0  0  0  0
   19.7053   -8.1030  -11.9360 O   0  0  0  0  0  0  0  0  0  0  0  0
   18.5924   -7.2822  -11.9935 C   0  0  0  0  0  0  0  0  0  0  0  0
   17.3903   -8.1307  -11.5629 C   0  0  2  0  0  0  0  0  0  0  0  0
   16.9242   -8.9308  -12.6934 N   0  0  0  0  0  0  0  0  0  0  0  0
   16.3074   -7.2011  -11.1598 C   0  0  0  0  0  0  0  0  0  0  0  0
   15.5689   -6.5978  -11.9621 O   0  0  0  0  0  0  0  0  0  0  0  0
   13.6903   -7.9894   -8.2556 C   0  0  0  0  0  0  0  0  0  0  0  0
   14.3105   -6.6199   -8.0610 C   0  0  1  0  0  0  0  0  0  0  0  0
   15.3293   -6.6845   -6.9442 C   0  0  0  0  0  0  0  0  0  0  0  0
   14.9504   -6.1074   -9.3425 C   0  0  2  0  0  0  0  0  0  0  0  0
   16.0480   -6.9415   -9.7656 N   0  0  0  0  0  0  0  0  0  0  0  0
   15.3848   -4.7174   -9.0778 C   0  0  0  0  0  0  0  0  0  0  0  0
   14.5332   -3.6315   -9.0349 O   0  0  0  0  0  0  0  0  0  0  0  0
   16.6079   -4.5107   -8.8790 O   0  0  0  0  0  0  0  0  0  0  0  0
  2  1  1  0
  3  2  1  0
  3  5  1  0
  3  4  1  6
  5  7  1  0
  5  6  1  1
  7 12  1  0
  7  8  2  0
 11 10  1  6
 10  9  1  0
 11 13  1  0
 12 11  1  0
 13 14  2  0
 16 15  1  6
 16 18  1  0
 17 16  1  0
 18 20  1  0
 19 13  1  0
 18 19  1  1
 20 21  1  0
 22 20  2  0
M  END
$$$$
