ISV.pdb
     RDKit          3D

 22 21  0  0  1  0  0  0  0  0999 V2000
   22.5734  -24.0738  -12.1380 C   0  0  0  0  0  0  0  0  0  0  0  0
   23.7663  -23.2506  -11.7645 C   0  0  0  0  0  0  0  0  0  0  0  0
   23.9381  -22.0347  -12.6297 C   0  0  2  0  0  0  0  0  0  0  0  0
   23.7892  -22.4175  -14.0869 C   0  0  0  0  0  0  0  0  0  0  0  0
   25.2105  -21.3054  -12.3192 C   0  0  2  0  0  0  0  0  0  0  0  0
   25.1008  -20.9225  -10.8930 N   0  0  0  0  0  0  0  0  0  0  0  0
   25.3809  -20.0593  -13.1085 C   0  0  0  0  0  0  0  0  0  0  0  0
   24.6951  -19.0270  -12.8211 O   0  0  0  0  0  0  0  0  0  0  0  0
   28.0197  -19.8410  -16.1054 O   0  0  0  0  0  0  0  0  0  0  0  0
   27.6522  -18.5699  -15.6993 C   0  0  0  0  0  0  0  0  0  0  0  0
   26.2995  -18.7024  -14.9902 C   0  0  2  0  0  0  0  0  0  0  0  0
   26.2812  -19.9269  -14.1928 N   0  0  0  0  0  0  0  0  0  0  0  0
   25.2530  -18.8007  -16.0364 C   0  0  0  0  0  0  0  0  0  0  0  0
   24.9678  -19.8508  -16.6437 O   0  0  0  0  0  0  0  0  0  0  0  0
   21.5612  -17.4451  -15.7937 C   0  0  0  0  0  0  0  0  0  0  0  0
   22.2317  -16.8926  -17.0360 C   0  0  1  0  0  0  0  0  0  0  0  0
   22.6061  -15.4453  -16.8025 C   0  0  0  0  0  0  0  0  0  0  0  0
   23.4563  -17.7086  -17.4217 C   0  0  2  0  0  0  0  0  0  0  0  0
   24.4864  -17.6399  -16.4149 N   0  0  0  0  0  0  0  0  0  0  0  0
   23.9246  -17.1874  -18.7256 C   0  0  0  0  0  0  0  0  0  0  0  0
   23.3137  -17.4548  -19.9345 O   0  0  0  0  0  0  0  0  0  0  0  0
   24.9443  -16.4536  -18.7343 O   0  0  0  0  0  0  0  0  0  0  0  0
  2  1  1  0
  3  2  1  0
  3  5  1  0
  3  4  1  6
  5  7  1  0
  5  6  1  1
  7 12  1  0
  7  8  2  0
 11 10  1  6
 10  9  1  0
 11 13  1  0
 12 11  1  0
 13 14  2  0
 16 15  1  1
 16 18  1  0
 17 16  1  0
 18 20  1  0
 19 13  1  0
 18 19  1  1
 20 21  1  0
 22 20  2  0
M  END
$$$$
