CWP.pdb
     RDKit          3D

 28 30  0  0  1  0  0  0  0  0999 V2000
    3.5029  -20.2229   22.5269 N   0  0  0  0  0  0  0  0  0  0  0  0
    4.8118  -20.2399   23.0887 C   0  0  1  0  0  0  0  0  0  0  0  0
    5.7509  -21.1551   22.3329 C   0  0  0  0  0  0  0  0  0  0  0  0
    7.3524  -21.1902   23.1824 S   0  0  0  0  0  0  0  0  0  0  0  0
    5.3552  -18.8489   23.1560 C   0  0  0  0  0  0  0  0  0  0  0  0
    5.2406  -18.1272   22.1351 O   0  0  0  0  0  0  0  0  0  0  0  0
    5.9768  -18.3317   24.2982 N   0  0  0  0  0  0  0  0  0  0  0  0
    6.6021  -16.9968   24.2460 C   0  0  1  0  0  0  0  0  0  0  0  0
    6.6238  -16.5549   25.6605 C   0  0  0  0  0  0  0  0  0  0  0  0
    7.3945  -15.3782   26.0390 C   0  0  0  0  0  0  0  0  0  0  0  0
    8.7506  -15.2371   26.1857 C   0  0  0  0  0  0  0  0  0  0  0  0
    9.0448  -13.9813   26.5553 N   0  0  0  0  0  0  0  0  0  0  0  0
    7.9183  -13.2812   26.6584 C   0  0  0  0  0  0  0  0  0  0  0  0
    7.7082  -11.9508   26.9853 C   0  0  0  0  0  0  0  0  0  0  0  0
    6.4103  -11.4996   26.9827 C   0  0  0  0  0  0  0  0  0  0  0  0
    5.3274  -12.2982   26.6755 C   0  0  0  0  0  0  0  0  0  0  0  0
    5.5988  -13.6328   26.3543 C   0  0  0  0  0  0  0  0  0  0  0  0
    6.8734  -14.1216   26.3442 C   0  0  0  0  0  0  0  0  0  0  0  0
    7.8346  -17.0068   23.4846 C   0  0  0  0  0  0  0  0  0  0  0  0
    8.4660  -18.0918   23.2514 O   0  0  0  0  0  0  0  0  0  0  0  0
    8.4414  -15.8220   22.9196 N   0  0  0  0  0  0  0  0  0  0  0  0
    8.0941  -14.4430   23.1846 C   0  0  0  0  0  0  0  0  0  0  0  0
    8.0771  -13.7906   21.8046 C   0  0  0  0  0  0  0  0  0  0  0  0
    8.7889  -14.8049   20.9126 C   0  0  0  0  0  0  0  0  0  0  0  0
    9.4706  -15.7655   21.9143 C   0  0  1  0  0  0  0  0  0  0  0  0
   10.6993  -15.0969   22.3192 C   0  0  0  0  0  0  0  0  0  0  0  0
   10.7976  -14.5719   23.4774 O   0  0  0  0  0  0  0  0  0  0  0  0
   11.8290  -14.9680   21.5333 O   0  0  0  0  0  0  0  0  0  0  0  0
  2  5  1  0
  2  1  1  6
  3  2  1  0
  4  3  1  0
  5  6  2  0
  7  8  1  0
  7  5  1  0
  9 10  1  0
  8  9  1  1
 10 18  1  0
 11 10  2  0
 11 12  1  0
 12 13  1  0
 13 14  1  0
 14 15  2  0
 16 15  1  0
 17 16  2  0
 18 13  2  0
 18 17  1  0
 19 20  2  0
 19  8  1  0
 21 19  1  0
 22 21  1  0
 23 22  1  0
 24 25  1  0
 24 23  1  0
 25 21  1  0
 25 26  1  1
 26 28  1  0
 27 26  2  0
M  END
$$$$
