CWP.pdb
     RDKit          3D

 28 30  0  0  1  0  0  0  0  0999 V2000
    4.4870  -21.4448   23.2052 N   0  0  0  0  0  0  0  0  0  0  0  0
    5.7008  -21.1020   23.8674 C   0  0  1  0  0  0  0  0  0  0  0  0
    6.8880  -21.8700   23.3275 C   0  0  0  0  0  0  0  0  0  0  0  0
    7.3229  -21.2135   21.6943 S   0  0  0  0  0  0  0  0  0  0  0  0
    5.9297  -19.6273   23.7798 C   0  0  0  0  0  0  0  0  0  0  0  0
    5.4428  -19.0181   22.7959 O   0  0  0  0  0  0  0  0  0  0  0  0
    6.6557  -18.9140   24.7403 N   0  0  0  0  0  0  0  0  0  0  0  0
    6.9402  -17.4829   24.5238 C   0  0  1  0  0  0  0  0  0  0  0  0
    7.0444  -16.9264   25.8935 C   0  0  0  0  0  0  0  0  0  0  0  0
    6.7648  -15.5155   26.1241 C   0  0  0  0  0  0  0  0  0  0  0  0
    5.5624  -14.8562   26.1262 C   0  0  0  0  0  0  0  0  0  0  0  0
    5.7537  -13.5519   26.3758 N   0  0  0  0  0  0  0  0  0  0  0  0
    7.0542  -13.3250   26.5405 C   0  0  0  0  0  0  0  0  0  0  0  0
    7.7369  -12.1555   26.8358 C   0  0  0  0  0  0  0  0  0  0  0  0
    9.1012  -12.2411   26.9742 C   0  0  0  0  0  0  0  0  0  0  0  0
    9.8082  -13.4182   26.8338 C   0  0  0  0  0  0  0  0  0  0  0  0
    9.0675  -14.5670   26.5348 C   0  0  0  0  0  0  0  0  0  0  0  0
    7.7107  -14.5262   26.3896 C   0  0  0  0  0  0  0  0  0  0  0  0
    8.0299  -17.2838   23.5901 C   0  0  0  0  0  0  0  0  0  0  0  0
    8.7678  -18.2537   23.2091 O   0  0  0  0  0  0  0  0  0  0  0  0
    8.3658  -16.0044   23.0059 N   0  0  0  0  0  0  0  0  0  0  0  0
    7.8177  -14.7097   23.3467 C   0  0  0  0  0  0  0  0  0  0  0  0
    7.5499  -14.0506   21.9961 C   0  0  0  0  0  0  0  0  0  0  0  0
    8.3294  -14.9144   21.0074 C   0  0  0  0  0  0  0  0  0  0  0  0
    9.2628  -15.7571   21.9071 C   0  0  1  0  0  0  0  0  0  0  0  0
   10.3945  -14.8925   22.2108 C   0  0  0  0  0  0  0  0  0  0  0  0
   11.2104  -14.5497   21.2925 O   0  0  0  0  0  0  0  0  0  0  0  0
   10.6882  -14.3787   23.4600 O   0  0  0  0  0  0  0  0  0  0  0  0
  2  5  1  0
  2  1  1  6
  3  2  1  0
  4  3  1  0
  5  6  2  0
  7  8  1  0
  7  5  1  0
  9 10  1  0
  8  9  1  1
 10 18  1  0
 11 10  2  0
 11 12  1  0
 12 13  1  0
 13 14  1  0
 14 15  2  0
 16 15  1  0
 17 16  2  0
 18 13  2  0
 18 17  1  0
 19 20  2  0
 19  8  1  0
 21 19  1  0
 22 21  1  0
 23 22  1  0
 24 25  1  0
 24 23  1  0
 25 21  1  0
 25 26  1  1
 26 28  1  0
 27 26  2  0
M  END
$$$$
