CWP.pdb
     RDKit          3D

 28 30  0  0  1  0  0  0  0  0999 V2000
    2.9923  -19.6730   22.1569 N   0  0  0  0  0  0  0  0  0  0  0  0
    4.3644  -19.7979   22.5186 C   0  0  1  0  0  0  0  0  0  0  0  0
    5.1594  -20.5841   21.4985 C   0  0  0  0  0  0  0  0  0  0  0  0
    6.8460  -20.8221   22.1202 S   0  0  0  0  0  0  0  0  0  0  0  0
    4.9591  -18.4437   22.7359 C   0  0  0  0  0  0  0  0  0  0  0  0
    4.8344  -17.5969   21.8174 O   0  0  0  0  0  0  0  0  0  0  0  0
    5.6386  -18.0928   23.9079 N   0  0  0  0  0  0  0  0  0  0  0  0
    6.3895  -16.8244   23.9626 C   0  0  1  0  0  0  0  0  0  0  0  0
    6.4888  -16.5281   25.4113 C   0  0  0  0  0  0  0  0  0  0  0  0
    7.2884  -15.3983   25.8654 C   0  0  0  0  0  0  0  0  0  0  0  0
    8.6496  -15.2908   25.9907 C   0  0  0  0  0  0  0  0  0  0  0  0
    8.9741  -14.0740   26.4537 N   0  0  0  0  0  0  0  0  0  0  0  0
    7.8626  -13.3671   26.6401 C   0  0  0  0  0  0  0  0  0  0  0  0
    7.6832  -12.0647   27.0786 C   0  0  0  0  0  0  0  0  0  0  0  0
    6.3938  -11.5944   27.1436 C   0  0  0  0  0  0  0  0  0  0  0  0
    5.2903  -12.3484   26.7987 C   0  0  0  0  0  0  0  0  0  0  0  0
    5.5310  -13.6565   26.3639 C   0  0  0  0  0  0  0  0  0  0  0  0
    6.7963  -14.1627   26.2839 C   0  0  0  0  0  0  0  0  0  0  0  0
    7.5962  -16.8760   23.1625 C   0  0  0  0  0  0  0  0  0  0  0  0
    8.1539  -17.9859   22.8670 O   0  0  0  0  0  0  0  0  0  0  0  0
    8.2564  -15.7069   22.6252 N   0  0  0  0  0  0  0  0  0  0  0  0
    7.9896  -14.3211   22.9429 C   0  0  0  0  0  0  0  0  0  0  0  0
    7.9832  -13.6218   21.5860 C   0  0  0  0  0  0  0  0  0  0  0  0
    8.6223  -14.6418   20.6466 C   0  0  0  0  0  0  0  0  0  0  0  0
    9.2687  -15.6715   21.6019 C   0  0  1  0  0  0  0  0  0  0  0  0
   10.5392  -15.0843   22.0043 C   0  0  0  0  0  0  0  0  0  0  0  0
   11.4610  -14.8878   21.1451 O   0  0  0  0  0  0  0  0  0  0  0  0
   10.8629  -14.6978   23.2913 O   0  0  0  0  0  0  0  0  0  0  0  0
  2  5  1  0
  2  1  1  6
  3  2  1  0
  4  3  1  0
  5  6  2  0
  7  8  1  0
  7  5  1  0
  9 10  1  0
  8  9  1  1
 10 18  1  0
 11 10  2  0
 11 12  1  0
 12 13  1  0
 13 14  1  0
 14 15  2  0
 16 15  1  0
 17 16  2  0
 18 13  2  0
 18 17  1  0
 19 20  2  0
 19  8  1  0
 21 19  1  0
 22 21  1  0
 23 22  1  0
 24 25  1  0
 24 23  1  0
 25 21  1  0
 25 26  1  1
 26 28  1  0
 27 26  2  0
M  END
$$$$
