CWP.pdb
     RDKit          3D

 28 30  0  0  1  0  0  0  0  0999 V2000
   12.1042  -15.8011   19.8289 N   0  0  0  0  0  0  0  0  0  0  0  0
   11.6422  -16.7444   20.7912 C   0  0  1  0  0  0  0  0  0  0  0  0
   12.7163  -17.7335   21.1895 C   0  0  0  0  0  0  0  0  0  0  0  0
   11.9614  -19.0661   22.1600 S   0  0  0  0  0  0  0  0  0  0  0  0
   11.1004  -16.0287   21.9866 C   0  0  0  0  0  0  0  0  0  0  0  0
   11.8091  -15.1278   22.4987 O   0  0  0  0  0  0  0  0  0  0  0  0
    9.8516  -16.3230   22.5453 N   0  0  0  0  0  0  0  0  0  0  0  0
    9.4509  -15.6818   23.8119 C   0  0  1  0  0  0  0  0  0  0  0  0
    7.9765  -15.8300   23.8386 C   0  0  0  0  0  0  0  0  0  0  0  0
    7.2003  -15.1551   24.8701 C   0  0  0  0  0  0  0  0  0  0  0  0
    6.3995  -15.6907   25.8460 C   0  0  0  0  0  0  0  0  0  0  0  0
    5.8601  -14.7109   26.5871 N   0  0  0  0  0  0  0  0  0  0  0  0
    6.2815  -13.5349   26.1296 C   0  0  0  0  0  0  0  0  0  0  0  0
    6.0220  -12.2476   26.5726 C   0  0  0  0  0  0  0  0  0  0  0  0
    6.6340  -11.2160   25.9024 C   0  0  0  0  0  0  0  0  0  0  0  0
    7.4790  -11.4021   24.8271 C   0  0  0  0  0  0  0  0  0  0  0  0
    7.7038  -12.7227   24.4227 C   0  0  0  0  0  0  0  0  0  0  0  0
    7.1164  -13.7766   25.0613 C   0  0  0  0  0  0  0  0  0  0  0  0
   10.2347  -16.1614   24.9320 C   0  0  0  0  0  0  0  0  0  0  0  0
   11.1813  -17.0032   24.7721 O   0  0  0  0  0  0  0  0  0  0  0  0
   10.0333  -15.7319   26.2980 N   0  0  0  0  0  0  0  0  0  0  0  0
    9.0551  -14.7858   26.7884 C   0  0  0  0  0  0  0  0  0  0  0  0
    9.8406  -13.9045   27.7561 C   0  0  0  0  0  0  0  0  0  0  0  0
   11.1298  -14.6863   27.9974 C   0  0  0  0  0  0  0  0  0  0  0  0
   10.8152  -16.0979   27.4503 C   0  0  1  0  0  0  0  0  0  0  0  0
   10.0803  -16.7712   28.5120 C   0  0  0  0  0  0  0  0  0  0  0  0
   10.6609  -17.0786   29.6052 O   0  0  0  0  0  0  0  0  0  0  0  0
    8.7465  -17.1289   28.4507 O   0  0  0  0  0  0  0  0  0  0  0  0
  2  5  1  0
  2  1  1  6
  3  2  1  0
  4  3  1  0
  5  6  2  0
  7  8  1  0
  7  5  1  0
  9 10  1  0
  8  9  1  1
 10 18  1  0
 11 10  2  0
 11 12  1  0
 12 13  1  0
 13 14  1  0
 14 15  2  0
 16 15  1  0
 17 16  2  0
 18 13  2  0
 18 17  1  0
 19 20  2  0
 19  8  1  0
 21 19  1  0
 22 21  1  0
 23 22  1  0
 24 25  1  0
 24 23  1  0
 25 21  1  0
 25 26  1  1
 26 28  1  0
 27 26  2  0
M  END
$$$$
