CWP.pdb
     RDKit          3D

 28 30  0  0  1  0  0  0  0  0999 V2000
    8.0251  -12.8387   17.8203 N   0  0  0  0  0  0  0  0  0  0  0  0
    8.0333  -14.1854   18.2845 C   0  0  1  0  0  0  0  0  0  0  0  0
    9.0323  -15.0449   17.5401 C   0  0  0  0  0  0  0  0  0  0  0  0
    8.9803  -16.7279   18.2127 S   0  0  0  0  0  0  0  0  0  0  0  0
    8.2905  -14.2150   19.7568 C   0  0  0  0  0  0  0  0  0  0  0  0
    9.2453  -13.5287   20.1967 O   0  0  0  0  0  0  0  0  0  0  0  0
    7.5170  -14.9685   20.6470 N   0  0  0  0  0  0  0  0  0  0  0  0
    7.9016  -15.0358   22.0694 C   0  0  1  0  0  0  0  0  0  0  0  0
    6.6345  -14.7849   22.7962 C   0  0  0  0  0  0  0  0  0  0  0  0
    6.6165  -14.8212   24.2523 C   0  0  0  0  0  0  0  0  0  0  0  0
    6.3679  -15.8756   25.0930 C   0  0  0  0  0  0  0  0  0  0  0  0
    6.4443  -15.4729   26.3705 N   0  0  0  0  0  0  0  0  0  0  0  0
    6.7379  -14.1758   26.4027 C   0  0  0  0  0  0  0  0  0  0  0  0
    6.9415  -13.3220   27.4753 C   0  0  0  0  0  0  0  0  0  0  0  0
    7.2637  -12.0173   27.1888 C   0  0  0  0  0  0  0  0  0  0  0  0
    7.3900  -11.5290   25.9040 C   0  0  0  0  0  0  0  0  0  0  0  0
    7.1723  -12.4354   24.8604 C   0  0  0  0  0  0  0  0  0  0  0  0
    6.8510  -13.7402   25.1011 C   0  0  0  0  0  0  0  0  0  0  0  0
    8.6680  -16.2288   22.3662 C   0  0  0  0  0  0  0  0  0  0  0  0
    8.5609  -17.2845   21.6559 O   0  0  0  0  0  0  0  0  0  0  0  0
    9.6121  -16.3285   23.4569 N   0  0  0  0  0  0  0  0  0  0  0  0
    9.9948  -15.2897   24.3880 C   0  0  0  0  0  0  0  0  0  0  0  0
   11.5142  -15.4085   24.4759 C   0  0  0  0  0  0  0  0  0  0  0  0
   11.8106  -16.7698   23.8512 C   0  0  0  0  0  0  0  0  0  0  0  0
   10.4294  -17.4631   23.8005 C   0  0  1  0  0  0  0  0  0  0  0  0
   10.2155  -18.0016   25.1365 C   0  0  0  0  0  0  0  0  0  0  0  0
    9.3701  -17.4607   25.9234 O   0  0  0  0  0  0  0  0  0  0  0  0
   10.8708  -19.0980   25.6647 O   0  0  0  0  0  0  0  0  0  0  0  0
  2  5  1  0
  2  1  1  6
  3  2  1  0
  4  3  1  0
  5  6  2  0
  7  8  1  0
  7  5  1  0
  9 10  1  0
  8  9  1  1
 10 18  1  0
 11 10  2  0
 11 12  1  0
 12 13  1  0
 13 14  1  0
 14 15  2  0
 16 15  1  0
 17 16  2  0
 18 13  2  0
 18 17  1  0
 19 20  2  0
 19  8  1  0
 21 19  1  0
 22 21  1  0
 23 22  1  0
 24 25  1  0
 24 23  1  0
 25 21  1  0
 25 26  1  1
 26 28  1  0
 27 26  2  0
M  END
$$$$
