CWP.pdb
     RDKit          3D

 28 30  0  0  1  0  0  0  0  0999 V2000
    6.1226  -19.7321   22.8718 N   0  0  0  0  0  0  0  0  0  0  0  0
    5.2407  -18.8827   22.1438 C   0  0  1  0  0  0  0  0  0  0  0  0
    3.8677  -18.8012   22.7756 C   0  0  0  0  0  0  0  0  0  0  0  0
    2.7042  -18.1044   21.5721 S   0  0  0  0  0  0  0  0  0  0  0  0
    5.8469  -17.5240   21.9982 C   0  0  0  0  0  0  0  0  0  0  0  0
    5.3293  -16.7397   21.1656 O   0  0  0  0  0  0  0  0  0  0  0  0
    6.9529  -17.1029   22.7451 N   0  0  0  0  0  0  0  0  0  0  0  0
    7.5899  -15.8087   22.4369 C   0  0  1  0  0  0  0  0  0  0  0  0
    8.2496  -15.4219   23.7065 C   0  0  0  0  0  0  0  0  0  0  0  0
    7.4402  -15.0226   24.8498 C   0  0  0  0  0  0  0  0  0  0  0  0
    6.5437  -15.7594   25.5804 C   0  0  0  0  0  0  0  0  0  0  0  0
    6.0075  -15.0019   26.5493 N   0  0  0  0  0  0  0  0  0  0  0  0
    6.5243  -13.7778   26.4830 C   0  0  0  0  0  0  0  0  0  0  0  0
    6.3050  -12.6606   27.2733 C   0  0  0  0  0  0  0  0  0  0  0  0
    7.0189  -11.5261   26.9712 C   0  0  0  0  0  0  0  0  0  0  0  0
    7.9269  -11.4516   25.9344 C   0  0  0  0  0  0  0  0  0  0  0  0
    8.1071  -12.6093   25.1694 C   0  0  0  0  0  0  0  0  0  0  0  0
    7.4187  -13.7577   25.4359 C   0  0  0  0  0  0  0  0  0  0  0  0
    8.3710  -15.8674   21.2182 C   0  0  0  0  0  0  0  0  0  0  0  0
    8.5744  -16.9708   20.6086 O   0  0  0  0  0  0  0  0  0  0  0  0
    8.9655  -14.7105   20.5864 N   0  0  0  0  0  0  0  0  0  0  0  0
    8.9531  -13.3442   21.0615 C   0  0  0  0  0  0  0  0  0  0  0  0
    8.6237  -12.5202   19.8194 C   0  0  0  0  0  0  0  0  0  0  0  0
    8.8466  -13.4946   18.6653 C   0  0  0  0  0  0  0  0  0  0  0  0
    9.6310  -14.6604   19.3106 C   0  0  1  0  0  0  0  0  0  0  0  0
   11.0186  -14.2205   19.3500 C   0  0  0  0  0  0  0  0  0  0  0  0
   11.5056  -13.7132   20.4140 O   0  0  0  0  0  0  0  0  0  0  0  0
   11.9076  -14.3025   18.2947 O   0  0  0  0  0  0  0  0  0  0  0  0
  2  5  1  0
  2  1  1  1
  3  2  1  0
  4  3  1  0
  5  6  2  0
  7  8  1  0
  7  5  1  0
  9 10  1  0
  8  9  1  1
 10 18  1  0
 11 10  2  0
 11 12  1  0
 12 13  1  0
 13 14  1  0
 14 15  2  0
 16 15  1  0
 17 16  2  0
 18 13  2  0
 18 17  1  0
 19 20  2  0
 19  8  1  0
 21 19  1  0
 22 21  1  0
 23 22  1  0
 24 25  1  0
 24 23  1  0
 25 21  1  0
 25 26  1  1
 26 28  1  0
 27 26  2  0
M  END
$$$$
