CWP.pdb
     RDKit          3D

 28 30  0  0  1  0  0  0  0  0999 V2000
    4.8083  -20.2083   23.7648 N   0  0  0  0  0  0  0  0  0  0  0  0
    6.1403  -19.9349   23.3402 C   0  0  1  0  0  0  0  0  0  0  0  0
    6.5570  -20.7916   22.1642 C   0  0  0  0  0  0  0  0  0  0  0  0
    8.2746  -20.4045   21.7308 S   0  0  0  0  0  0  0  0  0  0  0  0
    6.2858  -18.4809   23.0245 C   0  0  0  0  0  0  0  0  0  0  0  0
    5.3546  -17.9245   22.3926 O   0  0  0  0  0  0  0  0  0  0  0  0
    7.4053  -17.7310   23.4024 N   0  0  0  0  0  0  0  0  0  0  0  0
    7.5291  -16.3309   22.9549 C   0  0  1  0  0  0  0  0  0  0  0  0
    8.1110  -15.6304   24.1242 C   0  0  0  0  0  0  0  0  0  0  0  0
    7.2325  -15.0616   25.1374 C   0  0  0  0  0  0  0  0  0  0  0  0
    6.2032  -15.6506   25.8258 C   0  0  0  0  0  0  0  0  0  0  0  0
    5.6460  -14.7652   26.6660 N   0  0  0  0  0  0  0  0  0  0  0  0
    6.2785  -13.6001   26.5550 C   0  0  0  0  0  0  0  0  0  0  0  0
    6.0866  -12.4008   27.2225 C   0  0  0  0  0  0  0  0  0  0  0  0
    6.9294  -11.3627   26.9064 C   0  0  0  0  0  0  0  0  0  0  0  0
    7.9390  -11.4599   25.9703 C   0  0  0  0  0  0  0  0  0  0  0  0
    8.0859  -12.6938   25.3269 C   0  0  0  0  0  0  0  0  0  0  0  0
    7.2706  -13.7510   25.6117 C   0  0  0  0  0  0  0  0  0  0  0  0
    8.1847  -16.2312   21.6669 C   0  0  0  0  0  0  0  0  0  0  0  0
    8.4607  -17.2693   20.9766 O   0  0  0  0  0  0  0  0  0  0  0  0
    8.5647  -14.9789   21.0518 N   0  0  0  0  0  0  0  0  0  0  0  0
    8.4231  -13.6487   21.6025 C   0  0  0  0  0  0  0  0  0  0  0  0
    7.8760  -12.8209   20.4424 C   0  0  0  0  0  0  0  0  0  0  0  0
    8.1116  -13.7050   19.2201 C   0  0  0  0  0  0  0  0  0  0  0  0
    9.0954  -14.7846   19.7275 C   0  0  1  0  0  0  0  0  0  0  0  0
   10.4131  -14.1675   19.6701 C   0  0  0  0  0  0  0  0  0  0  0  0
   10.9584  -13.7089   20.7278 O   0  0  0  0  0  0  0  0  0  0  0  0
   11.1722  -14.0218   18.5241 O   0  0  0  0  0  0  0  0  0  0  0  0
  2  5  1  0
  2  1  1  6
  3  2  1  0
  4  3  1  0
  5  6  2  0
  7  8  1  0
  7  5  1  0
  9 10  1  0
  8  9  1  1
 10 18  1  0
 11 10  2  0
 11 12  1  0
 12 13  1  0
 13 14  1  0
 14 15  2  0
 16 15  1  0
 17 16  2  0
 18 13  2  0
 18 17  1  0
 19 20  2  0
 19  8  1  0
 21 19  1  0
 22 21  1  0
 23 22  1  0
 24 25  1  0
 24 23  1  0
 25 21  1  0
 25 26  1  1
 26 28  1  0
 27 26  2  0
M  END
$$$$
