CWP.pdb
     RDKit          3D

 28 30  0  0  1  0  0  0  0  0999 V2000
    5.5766  -21.8463   23.3279 N   0  0  0  0  0  0  0  0  0  0  0  0
    6.2494  -21.2257   24.4195 C   0  0  1  0  0  0  0  0  0  0  0  0
    7.3212  -22.1131   25.0147 C   0  0  0  0  0  0  0  0  0  0  0  0
    7.9843  -21.3201   26.5044 S   0  0  0  0  0  0  0  0  0  0  0  0
    6.8177  -19.9124   23.9870 C   0  0  0  0  0  0  0  0  0  0  0  0
    7.5110  -19.8922   22.9406 O   0  0  0  0  0  0  0  0  0  0  0  0
    6.6073  -18.7244   24.6962 N   0  0  0  0  0  0  0  0  0  0  0  0
    7.3258  -17.5000   24.2957 C   0  0  1  0  0  0  0  0  0  0  0  0
    6.4512  -16.4001   24.7669 C   0  0  0  0  0  0  0  0  0  0  0  0
    6.7863  -15.0201   24.4427 C   0  0  0  0  0  0  0  0  0  0  0  0
    7.0085  -14.4437   23.2184 C   0  0  0  0  0  0  0  0  0  0  0  0
    7.2981  -13.1423   23.3687 N   0  0  0  0  0  0  0  0  0  0  0  0
    7.2744  -12.8364   24.6632 C   0  0  0  0  0  0  0  0  0  0  0  0
    7.4835  -11.6285   25.3100 C   0  0  0  0  0  0  0  0  0  0  0  0
    7.3628  -11.6184   26.6787 C   0  0  0  0  0  0  0  0  0  0  0  0
    7.0494  -12.7374   27.4234 C   0  0  0  0  0  0  0  0  0  0  0  0
    6.8501  -13.9293   26.7179 C   0  0  0  0  0  0  0  0  0  0  0  0
    6.9597  -13.9829   25.3582 C   0  0  0  0  0  0  0  0  0  0  0  0
    8.7150  -17.5300   24.7060 C   0  0  0  0  0  0  0  0  0  0  0  0
    9.1034  -18.2380   25.6950 O   0  0  0  0  0  0  0  0  0  0  0  0
    9.7665  -16.7919   24.0421 N   0  0  0  0  0  0  0  0  0  0  0  0
    9.6189  -15.7171   23.0853 C   0  0  0  0  0  0  0  0  0  0  0  0
   10.6287  -16.0510   21.9902 C   0  0  0  0  0  0  0  0  0  0  0  0
   11.5231  -17.1106   22.6293 C   0  0  0  0  0  0  0  0  0  0  0  0
   11.1847  -17.0221   24.1355 C   0  0  1  0  0  0  0  0  0  0  0  0
   11.9643  -15.9020   24.6437 C   0  0  0  0  0  0  0  0  0  0  0  0
   11.4044  -14.7816   24.8844 O   0  0  0  0  0  0  0  0  0  0  0  0
   13.3211  -15.9331   24.9057 O   0  0  0  0  0  0  0  0  0  0  0  0
  2  5  1  0
  2  1  1  6
  3  2  1  0
  4  3  1  0
  5  6  2  0
  7  8  1  0
  7  5  1  0
  9 10  1  0
  8  9  1  1
 10 18  1  0
 11 10  2  0
 11 12  1  0
 12 13  1  0
 13 14  1  0
 14 15  2  0
 16 15  1  0
 17 16  2  0
 18 13  2  0
 18 17  1  0
 19 20  2  0
 19  8  1  0
 21 19  1  0
 22 21  1  0
 23 22  1  0
 24 25  1  0
 24 23  1  0
 25 21  1  0
 25 26  1  6
 26 28  1  0
 27 26  2  0
M  END
$$$$
