MPA.pdb
     RDKit          3D

 21 21  0  0  1  0  0  0  0  0999 V2000
   20.9322  -12.1002    5.1129 C   0  0  0  0  0  0  0  0  0  0  0  0
   19.3121  -11.2547    5.1052 S   0  0  0  0  0  0  0  0  0  0  0  0
   18.1044  -12.2610    4.2265 C   0  0  0  0  0  0  0  0  0  0  0  0
   17.8802  -13.5830    4.9689 C   0  0  0  0  0  0  0  0  0  0  0  0
   16.8174  -14.3824    4.1940 C   0  0  2  0  0  0  0  0  0  0  0  0
   15.6159  -13.6337    4.2482 N   0  0  0  0  0  0  0  0  0  0  0  0
   16.7734  -15.7681    4.6359 C   0  0  0  0  0  0  0  0  0  0  0  0
   16.4488  -15.9398    5.8646 O   0  0  0  0  0  0  0  0  0  0  0  0
   17.0451  -16.9386    3.8723 N   0  0  0  0  0  0  0  0  0  0  0  0
   17.2297  -17.0706    2.4482 C   0  0  0  0  0  0  0  0  0  0  0  0
   18.3710  -18.0969    2.3790 C   0  0  0  0  0  0  0  0  0  0  0  0
   17.7538  -19.1503    3.3167 C   0  0  0  0  0  0  0  0  0  0  0  0
   17.1709  -18.2711    4.4314 C   0  0  1  0  0  0  0  0  0  0  0  0
   18.1225  -18.3545    5.5551 C   0  0  0  0  0  0  0  0  0  0  0  0
   19.1710  -17.6836    5.5362 O   0  0  0  0  0  0  0  0  0  0  0  0
   17.9293  -19.6997    9.0295 C   0  0  0  0  0  0  0  0  0  0  0  0
   18.7256  -19.2811    7.8196 C   0  0  2  0  0  0  0  0  0  0  0  0
   17.8512  -19.1935    6.6561 N   0  0  0  0  0  0  0  0  0  0  0  0
   19.8317  -20.2127    7.5747 C   0  0  0  0  0  0  0  0  0  0  0  0
   20.9022  -20.1958    8.2051 O   0  0  0  0  0  0  0  0  0  0  0  0
   19.6837  -21.1748    6.5812 O   0  0  0  0  0  0  0  0  0  0  0  0
  2  1  1  0
  3  2  1  0
  4  5  1  0
  4  3  1  0
  5  6  1  1
  7  5  1  0
  8  7  2  0
  9 13  1  0
  9  7  1  0
 10  9  1  0
 11 10  1  0
 11 12  1  0
 12 13  1  0
 13 14  1  1
 14 15  2  0
 14 18  1  0
 17 19  1  0
 17 16  1  1
 18 17  1  0
 19 21  1  0
 20 19  2  0
M  END
$$$$
