MPA.pdb
     RDKit          3D

 21 21  0  0  1  0  0  0  0  0999 V2000
   24.5468  -19.5753   -9.2280 C   0  0  0  0  0  0  0  0  0  0  0  0
   25.3193  -21.0991   -9.8769 S   0  0  0  0  0  0  0  0  0  0  0  0
   25.1172  -21.1702  -11.6650 C   0  0  0  0  0  0  0  0  0  0  0  0
   23.9729  -20.2495  -12.1028 C   0  0  0  0  0  0  0  0  0  0  0  0
   24.4886  -19.3781  -13.2621 C   0  0  2  0  0  0  0  0  0  0  0  0
   23.4216  -18.5300  -13.6484 N   0  0  0  0  0  0  0  0  0  0  0  0
   25.1170  -20.1900  -14.2934 C   0  0  0  0  0  0  0  0  0  0  0  0
   24.3279  -20.9816  -14.9219 O   0  0  0  0  0  0  0  0  0  0  0  0
   26.4872  -20.2063  -14.6796 N   0  0  0  0  0  0  0  0  0  0  0  0
   27.5822  -19.4163  -14.1734 C   0  0  0  0  0  0  0  0  0  0  0  0
   28.7198  -20.4486  -14.1443 C   0  0  0  0  0  0  0  0  0  0  0  0
   28.5621  -20.9651  -15.5859 C   0  0  0  0  0  0  0  0  0  0  0  0
   27.0359  -21.0573  -15.7183 C   0  0  1  0  0  0  0  0  0  0  0  0
   26.6987  -22.4838  -15.5548 C   0  0  0  0  0  0  0  0  0  0  0  0
   26.8099  -23.0277  -14.4405 O   0  0  0  0  0  0  0  0  0  0  0  0
   24.6300  -24.8291  -17.5219 C   0  0  0  0  0  0  0  0  0  0  0  0
   25.7444  -24.6013  -16.5322 C   0  0  2  0  0  0  0  0  0  0  0  0
   26.2490  -23.2392  -16.6579 N   0  0  0  0  0  0  0  0  0  0  0  0
   26.8210  -25.5788  -16.7242 C   0  0  0  0  0  0  0  0  0  0  0  0
   26.7001  -26.7941  -16.4967 O   0  0  0  0  0  0  0  0  0  0  0  0
   28.0530  -25.1291  -17.1875 O   0  0  0  0  0  0  0  0  0  0  0  0
  2  1  1  0
  3  2  1  0
  4  5  1  0
  4  3  1  0
  5  6  1  6
  7  5  1  0
  8  7  2  0
  9 13  1  0
  9  7  1  0
 10  9  1  0
 11 10  1  0
 11 12  1  0
 12 13  1  0
 13 14  1  1
 14 15  2  0
 14 18  1  0
 17 19  1  0
 17 16  1  6
 18 17  1  0
 19 21  1  0
 20 19  2  0
M  END
$$$$
