MPA.pdb
     RDKit          3D

 21 21  0  0  1  0  0  0  0  0999 V2000
   17.3885  -14.4300  -15.3628 C   0  0  0  0  0  0  0  0  0  0  0  0
   16.8797  -14.8126  -17.0758 S   0  0  0  0  0  0  0  0  0  0  0  0
   18.1036  -14.1730  -18.2316 C   0  0  0  0  0  0  0  0  0  0  0  0
   18.6866  -12.8564  -17.7065 C   0  0  0  0  0  0  0  0  0  0  0  0
   19.9054  -12.5020  -18.5773 C   0  0  2  0  0  0  0  0  0  0  0  0
   20.8345  -13.5625  -18.4395 N   0  0  0  0  0  0  0  0  0  0  0  0
   20.3730  -11.1511  -18.3055 C   0  0  0  0  0  0  0  0  0  0  0  0
   21.2505  -11.0533  -17.3755 O   0  0  0  0  0  0  0  0  0  0  0  0
   19.9745   -9.9426  -18.9442 N   0  0  0  0  0  0  0  0  0  0  0  0
   19.1567   -9.7636  -20.1182 C   0  0  0  0  0  0  0  0  0  0  0  0
   18.3169   -8.5384  -19.7253 C   0  0  0  0  0  0  0  0  0  0  0  0
   19.4779   -7.6311  -19.2797 C   0  0  0  0  0  0  0  0  0  0  0  0
   20.3625   -8.6162  -18.5035 C   0  0  1  0  0  0  0  0  0  0  0  0
   20.0951   -8.3647  -17.0751 C   0  0  0  0  0  0  0  0  0  0  0  0
   19.0736   -8.8333  -16.5394 O   0  0  0  0  0  0  0  0  0  0  0  0
   22.1177   -6.9774  -14.2464 C   0  0  0  0  0  0  0  0  0  0  0  0
   20.7998   -7.3323  -14.8871 C   0  0  2  0  0  0  0  0  0  0  0  0
   20.9933   -7.5933  -16.3084 N   0  0  0  0  0  0  0  0  0  0  0  0
   19.8145   -6.2657  -14.6795 C   0  0  0  0  0  0  0  0  0  0  0  0
   19.4289   -5.4968  -15.5759 O   0  0  0  0  0  0  0  0  0  0  0  0
   19.2744   -6.0971  -13.4089 O   0  0  0  0  0  0  0  0  0  0  0  0
  2  1  1  0
  3  2  1  0
  4  5  1  0
  4  3  1  0
  5  6  1  1
  7  5  1  0
  8  7  2  0
  9 13  1  0
  9  7  1  0
 10  9  1  0
 11 10  1  0
 11 12  1  0
 12 13  1  0
 13 14  1  1
 14 15  2  0
 14 18  1  0
 17 19  1  0
 17 16  1  6
 18 17  1  0
 19 21  1  0
 20 19  2  0
M  END
$$$$
