MPA.pdb
     RDKit          3D

 21 21  0  0  1  0  0  0  0  0999 V2000
   25.0808  -22.6080   -9.7026 C   0  0  0  0  0  0  0  0  0  0  0  0
   23.6704  -21.5866   -9.1484 S   0  0  0  0  0  0  0  0  0  0  0  0
   23.5204  -20.1332  -10.2010 C   0  0  0  0  0  0  0  0  0  0  0  0
   24.1858  -20.3938  -11.5569 C   0  0  0  0  0  0  0  0  0  0  0  0
   24.0056  -19.1313  -12.4189 C   0  0  2  0  0  0  0  0  0  0  0  0
   22.6178  -18.9963  -12.6694 N   0  0  0  0  0  0  0  0  0  0  0  0
   24.9036  -19.1418  -13.5639 C   0  0  0  0  0  0  0  0  0  0  0  0
   24.3383  -18.9775  -14.7032 O   0  0  0  0  0  0  0  0  0  0  0  0
   26.3173  -19.3108  -13.5651 N   0  0  0  0  0  0  0  0  0  0  0  0
   27.2137  -19.4654  -12.4463 C   0  0  0  0  0  0  0  0  0  0  0  0
   28.1936  -20.5218  -12.9798 C   0  0  0  0  0  0  0  0  0  0  0  0
   28.5213  -19.8367  -14.3188 C   0  0  0  0  0  0  0  0  0  0  0  0
   27.1383  -19.3393  -14.7606 C   0  0  1  0  0  0  0  0  0  0  0  0
   26.6679  -20.2965  -15.7794 C   0  0  0  0  0  0  0  0  0  0  0  0
   26.2012  -21.3975  -15.4332 O   0  0  0  0  0  0  0  0  0  0  0  0
   25.6997  -20.0102  -19.3416 C   0  0  0  0  0  0  0  0  0  0  0  0
   26.2289  -20.8413  -18.2002 C   0  0  2  0  0  0  0  0  0  0  0  0
   26.7439  -19.9711  -17.1498 N   0  0  0  0  0  0  0  0  0  0  0  0
   27.2647  -21.7692  -18.6666 C   0  0  0  0  0  0  0  0  0  0  0  0
   28.4601  -21.6933  -18.3371 O   0  0  0  0  0  0  0  0  0  0  0  0
   26.8975  -22.7975  -19.5283 O   0  0  0  0  0  0  0  0  0  0  0  0
  2  1  1  0
  3  2  1  0
  4  5  1  0
  4  3  1  0
  5  6  1  6
  7  5  1  0
  8  7  2  0
  9 13  1  0
  9  7  1  0
 10  9  1  0
 11 10  1  0
 11 12  1  0
 12 13  1  0
 13 14  1  6
 14 15  2  0
 14 18  1  0
 17 19  1  0
 17 16  1  6
 18 17  1  0
 19 21  1  0
 20 19  2  0
M  END
$$$$
