MPA.pdb
     RDKit          3D

 21 21  0  0  1  0  0  0  0  0999 V2000
   12.2916  -15.0711  -11.1076 C   0  0  0  0  0  0  0  0  0  0  0  0
   11.3611  -13.5766  -11.5980 S   0  0  0  0  0  0  0  0  0  0  0  0
   12.3869  -12.5403  -12.6547 C   0  0  0  0  0  0  0  0  0  0  0  0
   13.2279  -11.5858  -11.8001 C   0  0  0  0  0  0  0  0  0  0  0  0
   14.6152  -11.4665  -12.4562 C   0  0  2  0  0  0  0  0  0  0  0  0
   15.2186  -12.7462  -12.3831 N   0  0  0  0  0  0  0  0  0  0  0  0
   15.3570  -10.3354  -11.9197 C   0  0  0  0  0  0  0  0  0  0  0  0
   15.5706  -10.3719  -10.6558 O   0  0  0  0  0  0  0  0  0  0  0  0
   15.8660   -9.2091  -12.6264 N   0  0  0  0  0  0  0  0  0  0  0  0
   15.9951   -9.0128  -14.0491 C   0  0  0  0  0  0  0  0  0  0  0  0
   15.5983   -7.5355  -14.1940 C   0  0  0  0  0  0  0  0  0  0  0  0
   16.5320   -6.9674  -13.1100 C   0  0  0  0  0  0  0  0  0  0  0  0
   16.3848   -8.0109  -11.9943 C   0  0  1  0  0  0  0  0  0  0  0  0
   15.4672   -7.4197  -11.0026 C   0  0  0  0  0  0  0  0  0  0  0  0
   14.2612   -7.2756  -11.2760 O   0  0  0  0  0  0  0  0  0  0  0  0
   15.5788   -6.8356   -7.3475 C   0  0  0  0  0  0  0  0  0  0  0  0
   15.0926   -6.4297   -8.7158 C   0  0  2  0  0  0  0  0  0  0  0  0
   15.9493   -7.0145   -9.7404 N   0  0  0  0  0  0  0  0  0  0  0  0
   15.0474   -4.9690   -8.8416 C   0  0  0  0  0  0  0  0  0  0  0  0
   15.8218   -4.3124   -9.5575 O   0  0  0  0  0  0  0  0  0  0  0  0
   14.0852   -4.2688   -8.1215 O   0  0  0  0  0  0  0  0  0  0  0  0
  2  1  1  0
  3  2  1  0
  4  5  1  0
  4  3  1  0
  5  6  1  1
  7  5  1  0
  8  7  2  0
  9 13  1  0
  9  7  1  0
 10  9  1  0
 11 10  1  0
 11 12  1  0
 12 13  1  0
 13 14  1  1
 14 15  2  0
 14 18  1  0
 17 19  1  0
 17 16  1  1
 18 17  1  0
 19 21  1  0
 20 19  2  0
M  END
$$$$
