MPA.pdb
     RDKit          3D

 21 21  0  0  1  0  0  0  0  0999 V2000
   20.0335  -17.8684  -14.4352 C   0  0  0  0  0  0  0  0  0  0  0  0
   20.5650  -17.1798  -16.0424 S   0  0  0  0  0  0  0  0  0  0  0  0
   21.9846  -18.1001  -16.6595 C   0  0  0  0  0  0  0  0  0  0  0  0
   22.5911  -18.9485  -15.5364 C   0  0  0  0  0  0  0  0  0  0  0  0
   23.7871  -19.7192  -16.1235 C   0  0  2  0  0  0  0  0  0  0  0  0
   23.2644  -20.6376  -17.0671 N   0  0  0  0  0  0  0  0  0  0  0  0
   24.6453  -20.2426  -15.0713 C   0  0  0  0  0  0  0  0  0  0  0  0
   24.0770  -21.0515  -14.2545 O   0  0  0  0  0  0  0  0  0  0  0  0
   26.0235  -19.9644  -14.8476 N   0  0  0  0  0  0  0  0  0  0  0  0
   26.9662  -19.2962  -15.7103 C   0  0  0  0  0  0  0  0  0  0  0  0
   27.7687  -18.4601  -14.7015 C   0  0  0  0  0  0  0  0  0  0  0  0
   28.0895  -19.5925  -13.7092 C   0  0  0  0  0  0  0  0  0  0  0  0
   26.7531  -20.3449  -13.6529 C   0  0  1  0  0  0  0  0  0  0  0  0
   26.1000  -19.9215  -12.4001 C   0  0  0  0  0  0  0  0  0  0  0  0
   25.6178  -18.7778  -12.3032 O   0  0  0  0  0  0  0  0  0  0  0  0
   24.5366  -21.3389   -9.4570 C   0  0  0  0  0  0  0  0  0  0  0  0
   25.5854  -20.3893   -9.9781 C   0  0  2  0  0  0  0  0  0  0  0  0
   26.0180  -20.8080  -11.3061 N   0  0  0  0  0  0  0  0  0  0  0  0
   26.7237  -20.3117   -9.0563 C   0  0  0  0  0  0  0  0  0  0  0  0
   27.8288  -20.8345   -9.2770 O   0  0  0  0  0  0  0  0  0  0  0  0
   26.5669  -19.6147   -7.8629 O   0  0  0  0  0  0  0  0  0  0  0  0
  2  1  1  0
  3  2  1  0
  4  5  1  0
  4  3  1  0
  5  6  1  1
  7  5  1  0
  8  7  2  0
  9 13  1  0
  9  7  1  0
 10  9  1  0
 11 10  1  0
 11 12  1  0
 12 13  1  0
 13 14  1  1
 14 15  2  0
 14 18  1  0
 17 19  1  0
 17 16  1  1
 18 17  1  0
 19 21  1  0
 20 19  2  0
M  END
$$$$
