MPA.pdb
     RDKit          3D

 21 21  0  0  1  0  0  0  0  0999 V2000
   21.8791  -17.2113  -14.8759 C   0  0  0  0  0  0  0  0  0  0  0  0
   23.2472  -16.7681  -16.0035 S   0  0  0  0  0  0  0  0  0  0  0  0
   24.2995  -18.2035  -16.2777 C   0  0  0  0  0  0  0  0  0  0  0  0
   24.3787  -19.0499  -15.0024 C   0  0  0  0  0  0  0  0  0  0  0  0
   25.3007  -20.2483  -15.2906 C   0  0  2  0  0  0  0  0  0  0  0  0
   24.5964  -21.1107  -16.1665 N   0  0  0  0  0  0  0  0  0  0  0  0
   25.8282  -20.8162  -14.0590 C   0  0  0  0  0  0  0  0  0  0  0  0
   24.9499  -21.3032  -13.2617 O   0  0  0  0  0  0  0  0  0  0  0  0
   27.1878  -20.8925  -13.6434 N   0  0  0  0  0  0  0  0  0  0  0  0
   28.3862  -20.6706  -14.4140 C   0  0  0  0  0  0  0  0  0  0  0  0
   29.2696  -19.9240  -13.4025 C   0  0  0  0  0  0  0  0  0  0  0  0
   29.1126  -20.9091  -12.2300 C   0  0  0  0  0  0  0  0  0  0  0  0
   27.6165  -21.2436  -12.3028 C   0  0  1  0  0  0  0  0  0  0  0  0
   26.9690  -20.4447  -11.2456 C   0  0  0  0  0  0  0  0  0  0  0  0
   26.8112  -19.2192  -11.3976 O   0  0  0  0  0  0  0  0  0  0  0  0
   24.9926  -21.0938   -8.1750 C   0  0  0  0  0  0  0  0  0  0  0  0
   26.0574  -20.3104   -8.9002 C   0  0  2  0  0  0  0  0  0  0  0  0
   26.5253  -21.0630  -10.0580 N   0  0  0  0  0  0  0  0  0  0  0  0
   27.1702  -19.9861   -8.0014 C   0  0  0  0  0  0  0  0  0  0  0  0
   28.2931  -20.5125   -8.0736 O   0  0  0  0  0  0  0  0  0  0  0  0
   26.9666  -19.0351   -7.0069 O   0  0  0  0  0  0  0  0  0  0  0  0
  2  1  1  0
  3  2  1  0
  4  5  1  0
  4  3  1  0
  5  6  1  1
  7  5  1  0
  8  7  2  0
  9 13  1  0
  9  7  1  0
 10  9  1  0
 11 10  1  0
 11 12  1  0
 12 13  1  0
 13 14  1  1
 14 15  2  0
 14 18  1  0
 17 19  1  0
 17 16  1  1
 18 17  1  0
 19 21  1  0
 20 19  2  0
M  END
$$$$
