MPA.pdb
     RDKit          3D

 21 21  0  0  1  0  0  0  0  0999 V2000
   23.4262    4.7024   -3.1745 C   0  0  0  0  0  0  0  0  0  0  0  0
   23.2582    3.1716   -2.1905 S   0  0  0  0  0  0  0  0  0  0  0  0
   24.6359    2.0669   -2.5434 C   0  0  0  0  0  0  0  0  0  0  0  0
   25.4183    2.5725   -3.7604 C   0  0  0  0  0  0  0  0  0  0  0  0
   26.6063    1.6196   -3.9840 C   0  0  2  0  0  0  0  0  0  0  0  0
   27.5177    1.8386   -2.9217 N   0  0  0  0  0  0  0  0  0  0  0  0
   27.1137    1.7193   -5.3442 C   0  0  0  0  0  0  0  0  0  0  0  0
   28.0908    2.5341   -5.5046 O   0  0  0  0  0  0  0  0  0  0  0  0
   26.6570    1.0261   -6.5009 N   0  0  0  0  0  0  0  0  0  0  0  0
   25.6343    0.0152   -6.6084 C   0  0  0  0  0  0  0  0  0  0  0  0
   24.9488    0.4087   -7.9260 C   0  0  0  0  0  0  0  0  0  0  0  0
   26.2176    0.5134   -8.7914 C   0  0  0  0  0  0  0  0  0  0  0  0
   27.1882    1.2215   -7.8365 C   0  0  1  0  0  0  0  0  0  0  0  0
   27.2190    2.6336   -8.2610 C   0  0  0  0  0  0  0  0  0  0  0  0
   26.3301    3.4188   -7.8823 O   0  0  0  0  0  0  0  0  0  0  0  0
   29.7438    4.7379  -10.0976 C   0  0  0  0  0  0  0  0  0  0  0  0
   28.3871    4.5021   -9.4833 C   0  0  2  0  0  0  0  0  0  0  0  0
   28.2537    3.1025   -9.0971 N   0  0  0  0  0  0  0  0  0  0  0  0
   27.3195    4.8943  -10.4094 C   0  0  0  0  0  0  0  0  0  0  0  0
   26.6912    4.0918  -11.1198 O   0  0  0  0  0  0  0  0  0  0  0  0
   26.9834    6.2405  -10.5055 O   0  0  0  0  0  0  0  0  0  0  0  0
  2  1  1  0
  3  2  1  0
  4  5  1  0
  4  3  1  0
  5  6  1  1
  7  5  1  0
  8  7  2  0
  9 13  1  0
  9  7  1  0
 10  9  1  0
 11 10  1  0
 11 12  1  0
 12 13  1  0
 13 14  1  6
 14 15  2  0
 14 18  1  0
 17 19  1  0
 17 16  1  6
 18 17  1  0
 19 21  1  0
 20 19  2  0
M  END
$$$$
