LWK.pdb
     RDKit          3D

 32 33  0  0  1  0  0  0  0  0999 V2000
    7.8498  -11.9702   20.4539 C   0  0  0  0  0  0  0  0  0  0  0  0
    7.6357  -13.4486   20.7681 C   0  0  1  0  0  0  0  0  0  0  0  0
    6.7898  -13.9889   19.6076 C   0  0  0  0  0  0  0  0  0  0  0  0
    8.9264  -14.2075   20.7447 C   0  0  0  0  0  0  0  0  0  0  0  0
    8.7773  -15.6453   21.1791 C   0  0  2  0  0  0  0  0  0  0  0  0
    7.4257  -16.0901   21.2222 N   0  0  0  0  0  0  0  0  0  0  0  0
    9.3966  -15.7591   22.5231 C   0  0  0  0  0  0  0  0  0  0  0  0
   10.5167  -15.2167   22.7077 O   0  0  0  0  0  0  0  0  0  0  0  0
    8.7436  -16.4665   23.5894 N   0  0  0  0  0  0  0  0  0  0  0  0
    9.3263  -16.5620   24.8859 C   0  0  1  0  0  0  0  0  0  0  0  0
    8.3037  -16.4785   26.0011 C   0  0  0  0  0  0  0  0  0  0  0  0
    7.4093  -15.3293   25.8983 C   0  0  0  0  0  0  0  0  0  0  0  0
    6.1158  -15.3021   25.4638 C   0  0  0  0  0  0  0  0  0  0  0  0
    5.6749  -14.0341   25.5359 N   0  0  0  0  0  0  0  0  0  0  0  0
    6.6554  -13.2349   26.0088 C   0  0  0  0  0  0  0  0  0  0  0  0
    6.7622  -11.8892   26.2808 C   0  0  0  0  0  0  0  0  0  0  0  0
    7.9162  -11.3145   26.7735 C   0  0  0  0  0  0  0  0  0  0  0  0
    9.0112  -12.1226   27.0038 C   0  0  0  0  0  0  0  0  0  0  0  0
    8.9124  -13.4666   26.7349 C   0  0  0  0  0  0  0  0  0  0  0  0
    7.7422  -14.0351   26.2378 C   0  0  0  0  0  0  0  0  0  0  0  0
   10.0735  -17.8343   25.0917 C   0  0  0  0  0  0  0  0  0  0  0  0
    9.4137  -18.9006   25.0466 O   0  0  0  0  0  0  0  0  0  0  0  0
   11.4736  -17.8738   25.3310 N   0  0  0  0  0  0  0  0  0  0  0  0
   12.1915  -19.1037   25.6731 C   0  0  1  0  0  0  0  0  0  0  0  0
   13.5989  -19.0561   25.1991 C   0  0  0  0  0  0  0  0  0  0  0  0
   13.6641  -18.8697   23.7100 C   0  0  0  0  0  0  0  0  0  0  0  0
   15.1099  -18.7072   23.2427 C   0  0  0  0  0  0  0  0  0  0  0  0
   15.0427  -18.4945   21.7286 C   0  0  0  0  0  0  0  0  0  0  0  0
   16.2521  -17.8421   21.2655 N   0  0  0  0  0  0  0  0  0  0  0  0
   12.1053  -19.4020   27.0993 C   0  0  0  0  0  0  0  0  0  0  0  0
   11.7013  -18.5866   28.1175 O   0  0  0  0  0  0  0  0  0  0  0  0
   12.4590  -20.5901   27.4496 O   0  0  0  0  0  0  0  0  0  0  0  0
  2  1  1  6
  2  3  1  0
  4  2  1  0
  5  4  1  0
  5  6  1  1
  7  5  1  0
  7  8  2  0
  9  7  1  0
 10  9  1  0
 10 11  1  1
 11 12  1  0
 12 13  2  0
 12 20  1  0
 13 14  1  0
 14 15  1  0
 15 16  2  0
 16 17  1  0
 18 17  2  0
 19 18  1  0
 20 19  2  0
 20 15  1  0
 21 10  1  0
 22 21  2  0
 23 21  1  0
 24 25  1  1
 24 23  1  0
 25 26  1  0
 26 27  1  0
 27 28  1  0
 28 29  1  0
 30 24  1  0
 31 30  1  0
 32 30  2  0
M  END
$$$$
