LWK.pdb
     RDKit          3D

 32 33  0  0  1  0  0  0  0  0999 V2000
    7.0685  -12.0998   19.4402 C   0  0  0  0  0  0  0  0  0  0  0  0
    7.3438  -13.5955   19.5713 C   0  0  1  0  0  0  0  0  0  0  0  0
    8.1398  -13.9705   18.3143 C   0  0  0  0  0  0  0  0  0  0  0  0
    8.2305  -13.8902   20.7415 C   0  0  0  0  0  0  0  0  0  0  0  0
    8.4818  -15.3654   20.9388 C   0  0  2  0  0  0  0  0  0  0  0  0
    7.2931  -16.1484   20.9569 N   0  0  0  0  0  0  0  0  0  0  0  0
    9.2119  -15.5134   22.2225 C   0  0  0  0  0  0  0  0  0  0  0  0
   10.3083  -14.9105   22.3541 O   0  0  0  0  0  0  0  0  0  0  0  0
    8.6898  -16.3201   23.2904 N   0  0  0  0  0  0  0  0  0  0  0  0
    9.3685  -16.4338   24.5378 C   0  0  1  0  0  0  0  0  0  0  0  0
    8.4243  -16.5968   25.7118 C   0  0  0  0  0  0  0  0  0  0  0  0
    7.3743  -15.5843   25.7710 C   0  0  0  0  0  0  0  0  0  0  0  0
    6.0535  -15.7178   25.4543 C   0  0  0  0  0  0  0  0  0  0  0  0
    5.4511  -14.5331   25.6563 N   0  0  0  0  0  0  0  0  0  0  0  0
    6.3531  -13.6305   26.0984 C   0  0  0  0  0  0  0  0  0  0  0  0
    6.2992  -12.3020   26.4567 C   0  0  0  0  0  0  0  0  0  0  0  0
    7.4052  -11.5974   26.8870 C   0  0  0  0  0  0  0  0  0  0  0  0
    8.6182  -12.2517   26.9617 C   0  0  0  0  0  0  0  0  0  0  0  0
    8.6801  -13.5776   26.6058 C   0  0  0  0  0  0  0  0  0  0  0  0
    7.5569  -14.2781   26.1730 C   0  0  0  0  0  0  0  0  0  0  0  0
   10.3040  -17.5924   24.5835 C   0  0  0  0  0  0  0  0  0  0  0  0
    9.8650  -18.6998   24.1893 O   0  0  0  0  0  0  0  0  0  0  0  0
   11.6424  -17.4824   25.0478 N   0  0  0  0  0  0  0  0  0  0  0  0
   12.5618  -18.6205   25.1129 C   0  0  1  0  0  0  0  0  0  0  0  0
   13.8245  -18.3359   24.3831 C   0  0  0  0  0  0  0  0  0  0  0  0
   14.7748  -19.4959   24.4700 C   0  0  0  0  0  0  0  0  0  0  0  0
   15.6737  -19.5590   23.2358 C   0  0  0  0  0  0  0  0  0  0  0  0
   16.6184  -20.7416   23.4618 C   0  0  0  0  0  0  0  0  0  0  0  0
   17.4935  -20.9030   22.3167 N   0  0  0  0  0  0  0  0  0  0  0  0
   12.8088  -19.0391   26.4892 C   0  0  0  0  0  0  0  0  0  0  0  0
   13.6972  -18.5249   27.3898 O   0  0  0  0  0  0  0  0  0  0  0  0
   12.0990  -20.0262   26.9147 O   0  0  0  0  0  0  0  0  0  0  0  0
  2  1  1  6
  2  3  1  0
  4  2  1  0
  5  4  1  0
  5  6  1  1
  7  5  1  0
  7  8  2  0
  9  7  1  0
 10  9  1  0
 10 11  1  1
 11 12  1  0
 12 13  2  0
 12 20  1  0
 13 14  1  0
 14 15  1  0
 15 16  2  0
 16 17  1  0
 18 17  2  0
 19 18  1  0
 20 19  2  0
 20 15  1  0
 21 10  1  0
 22 21  2  0
 23 21  1  0
 24 25  1  1
 24 23  1  0
 25 26  1  0
 26 27  1  0
 27 28  1  0
 28 29  1  0
 30 24  1  0
 31 30  1  0
 32 30  2  0
M  END
$$$$
