LWK.pdb
     RDKit          3D

 32 33  0  0  1  0  0  0  0  0999 V2000
    7.3805  -12.2717   19.4201 C   0  0  0  0  0  0  0  0  0  0  0  0
    7.4952  -13.7728   19.6727 C   0  0  1  0  0  0  0  0  0  0  0  0
    8.0024  -14.3663   18.3517 C   0  0  0  0  0  0  0  0  0  0  0  0
    8.5362  -14.0779   20.7050 C   0  0  0  0  0  0  0  0  0  0  0  0
    8.6208  -15.5457   21.0465 C   0  0  2  0  0  0  0  0  0  0  0  0
    7.3604  -16.2072   21.0335 N   0  0  0  0  0  0  0  0  0  0  0  0
    9.2361  -15.6431   22.3936 C   0  0  0  0  0  0  0  0  0  0  0  0
   10.2929  -14.9960   22.6111 O   0  0  0  0  0  0  0  0  0  0  0  0
    8.6493  -16.4509   23.4266 N   0  0  0  0  0  0  0  0  0  0  0  0
    9.2519  -16.5688   24.7121 C   0  0  1  0  0  0  0  0  0  0  0  0
    8.2416  -16.5603   25.8415 C   0  0  0  0  0  0  0  0  0  0  0  0
    7.3069  -15.4401   25.7903 C   0  0  0  0  0  0  0  0  0  0  0  0
    6.0071  -15.4431   25.3741 C   0  0  0  0  0  0  0  0  0  0  0  0
    5.5241  -14.1944   25.4958 N   0  0  0  0  0  0  0  0  0  0  0  0
    6.4833  -13.3781   25.9829 C   0  0  0  0  0  0  0  0  0  0  0  0
    6.5478  -12.0395   26.2997 C   0  0  0  0  0  0  0  0  0  0  0  0
    7.6885  -11.4422   26.7966 C   0  0  0  0  0  0  0  0  0  0  0  0
    8.8137  -12.2192   26.9844 C   0  0  0  0  0  0  0  0  0  0  0  0
    8.7572  -13.5558   26.6706 C   0  0  0  0  0  0  0  0  0  0  0  0
    7.6001  -14.1474   26.1698 C   0  0  0  0  0  0  0  0  0  0  0  0
   10.0471  -17.8193   24.8654 C   0  0  0  0  0  0  0  0  0  0  0  0
    9.4618  -18.9037   24.6289 O   0  0  0  0  0  0  0  0  0  0  0  0
   11.4119  -17.8192   25.2608 N   0  0  0  0  0  0  0  0  0  0  0  0
   12.2115  -19.0410   25.3731 C   0  0  1  0  0  0  0  0  0  0  0  0
   13.5892  -18.8331   24.8571 C   0  0  0  0  0  0  0  0  0  0  0  0
   13.5823  -18.5844   23.3757 C   0  0  0  0  0  0  0  0  0  0  0  0
   15.0059  -18.4411   22.8393 C   0  0  0  0  0  0  0  0  0  0  0  0
   14.8752  -18.3356   21.3182 C   0  0  0  0  0  0  0  0  0  0  0  0
   16.1824  -18.1446   20.7203 N   0  0  0  0  0  0  0  0  0  0  0  0
   12.2117  -19.5647   26.7356 C   0  0  0  0  0  0  0  0  0  0  0  0
   12.5604  -20.8118   27.1691 O   0  0  0  0  0  0  0  0  0  0  0  0
   11.8302  -18.7465   27.6546 O   0  0  0  0  0  0  0  0  0  0  0  0
  2  1  1  6
  2  3  1  0
  4  2  1  0
  5  4  1  0
  5  6  1  1
  7  5  1  0
  7  8  2  0
  9  7  1  0
 10  9  1  0
 10 11  1  1
 11 12  1  0
 12 13  2  0
 12 20  1  0
 13 14  1  0
 14 15  1  0
 15 16  2  0
 16 17  1  0
 18 17  2  0
 19 18  1  0
 20 19  2  0
 20 15  1  0
 21 10  1  0
 22 21  2  0
 23 21  1  0
 24 25  1  1
 24 23  1  0
 25 26  1  0
 26 27  1  0
 27 28  1  0
 28 29  1  0
 30 24  1  0
 31 30  1  0
 32 30  2  0
M  END
$$$$
