LWK.pdb
     RDKit          3D

 32 33  0  0  1  0  0  0  0  0999 V2000
    7.5464  -12.1390   18.0217 C   0  0  0  0  0  0  0  0  0  0  0  0
    7.7241  -13.6344   18.2713 C   0  0  1  0  0  0  0  0  0  0  0  0
    7.8286  -14.2662   16.8769 C   0  0  0  0  0  0  0  0  0  0  0  0
    9.0168  -13.9249   18.9693 C   0  0  0  0  0  0  0  0  0  0  0  0
    9.1426  -15.3628   19.4106 C   0  0  2  0  0  0  0  0  0  0  0  0
    8.0552  -16.1830   18.9969 N   0  0  0  0  0  0  0  0  0  0  0  0
    9.2434  -15.3550   20.8914 C   0  0  0  0  0  0  0  0  0  0  0  0
   10.2850  -14.8791   21.4124 O   0  0  0  0  0  0  0  0  0  0  0  0
    8.1869  -15.8740   21.7150 N   0  0  0  0  0  0  0  0  0  0  0  0
    8.2577  -15.8223   23.1370 C   0  0  1  0  0  0  0  0  0  0  0  0
    6.8936  -15.7821   23.7957 C   0  0  0  0  0  0  0  0  0  0  0  0
    6.9317  -15.4380   25.2139 C   0  0  0  0  0  0  0  0  0  0  0  0
    6.8262  -16.2727   26.2885 C   0  0  0  0  0  0  0  0  0  0  0  0
    6.9142  -15.5313   27.4066 N   0  0  0  0  0  0  0  0  0  0  0  0
    7.0748  -14.2305   27.0816 C   0  0  0  0  0  0  0  0  0  0  0  0
    7.2164  -13.0629   27.7979 C   0  0  0  0  0  0  0  0  0  0  0  0
    7.3697  -11.8300   27.1969 C   0  0  0  0  0  0  0  0  0  0  0  0
    7.3816  -11.7633   25.8182 C   0  0  0  0  0  0  0  0  0  0  0  0
    7.2409  -12.9242   25.0964 C   0  0  0  0  0  0  0  0  0  0  0  0
    7.0869  -14.1627   25.7145 C   0  0  0  0  0  0  0  0  0  0  0  0
    8.9761  -16.9886   23.7229 C   0  0  0  0  0  0  0  0  0  0  0  0
    8.6336  -18.1298   23.3292 O   0  0  0  0  0  0  0  0  0  0  0  0
   10.0095  -16.8496   24.6881 N   0  0  0  0  0  0  0  0  0  0  0  0
   10.8000  -17.9798   25.1809 C   0  0  1  0  0  0  0  0  0  0  0  0
   12.2297  -17.8448   24.7995 C   0  0  0  0  0  0  0  0  0  0  0  0
   13.0281  -19.0318   25.2576 C   0  0  0  0  0  0  0  0  0  0  0  0
   14.5006  -18.6638   25.4356 C   0  0  0  0  0  0  0  0  0  0  0  0
   15.2888  -19.6429   24.5626 C   0  0  0  0  0  0  0  0  0  0  0  0
   16.3701  -18.9483   23.8910 N   0  0  0  0  0  0  0  0  0  0  0  0
   10.6338  -18.1708   26.6184 C   0  0  0  0  0  0  0  0  0  0  0  0
   10.9241  -19.2728   27.3707 O   0  0  0  0  0  0  0  0  0  0  0  0
   10.1462  -17.1709   27.2678 O   0  0  0  0  0  0  0  0  0  0  0  0
  2  1  1  6
  2  3  1  0
  4  2  1  0
  5  4  1  0
  5  6  1  1
  7  5  1  0
  7  8  2  0
  9  7  1  0
 10  9  1  0
 10 11  1  1
 11 12  1  0
 12 13  2  0
 12 20  1  0
 13 14  1  0
 14 15  1  0
 15 16  2  0
 16 17  1  0
 18 17  2  0
 19 18  1  0
 20 19  2  0
 20 15  1  0
 21 10  1  0
 22 21  2  0
 23 21  1  0
 24 25  1  1
 24 23  1  0
 25 26  1  0
 26 27  1  0
 27 28  1  0
 28 29  1  0
 30 24  1  0
 31 30  1  0
 32 30  2  0
M  END
$$$$
