LWK.pdb
     RDKit          3D

 32 33  0  0  1  0  0  0  0  0999 V2000
    6.1697  -13.7481   20.2356 C   0  0  0  0  0  0  0  0  0  0  0  0
    7.5788  -13.7783   19.6496 C   0  0  1  0  0  0  0  0  0  0  0  0
    7.8307  -12.3559   19.1320 C   0  0  0  0  0  0  0  0  0  0  0  0
    8.6077  -14.0361   20.7066 C   0  0  0  0  0  0  0  0  0  0  0  0
    8.7274  -15.4950   21.0748 C   0  0  2  0  0  0  0  0  0  0  0  0
    7.4772  -16.1737   21.1275 N   0  0  0  0  0  0  0  0  0  0  0  0
    9.3987  -15.5552   22.3971 C   0  0  0  0  0  0  0  0  0  0  0  0
   10.3981  -14.8155   22.5891 O   0  0  0  0  0  0  0  0  0  0  0  0
    8.9283  -16.4303   23.4348 N   0  0  0  0  0  0  0  0  0  0  0  0
    9.5631  -16.4826   24.7092 C   0  0  1  0  0  0  0  0  0  0  0  0
    8.5773  -16.5298   25.8591 C   0  0  0  0  0  0  0  0  0  0  0  0
    7.5666  -15.4773   25.8150 C   0  0  0  0  0  0  0  0  0  0  0  0
    6.2505  -15.5842   25.4696 C   0  0  0  0  0  0  0  0  0  0  0  0
    5.6899  -14.3663   25.5689 N   0  0  0  0  0  0  0  0  0  0  0  0
    6.6144  -13.4683   25.9721 C   0  0  0  0  0  0  0  0  0  0  0  0
    6.6030  -12.1163   26.2333 C   0  0  0  0  0  0  0  0  0  0  0  0
    7.7238  -11.4241   26.6449 C   0  0  0  0  0  0  0  0  0  0  0  0
    8.9078  -12.1160   26.8019 C   0  0  0  0  0  0  0  0  0  0  0  0
    8.9272  -13.4655   26.5432 C   0  0  0  0  0  0  0  0  0  0  0  0
    7.7894  -14.1532   26.1283 C   0  0  0  0  0  0  0  0  0  0  0  0
   10.4512  -17.6686   24.8645 C   0  0  0  0  0  0  0  0  0  0  0  0
    9.9431  -18.7967   24.6557 O   0  0  0  0  0  0  0  0  0  0  0  0
   11.8195  -17.5618   25.2322 N   0  0  0  0  0  0  0  0  0  0  0  0
   12.7074  -18.7203   25.3524 C   0  0  1  0  0  0  0  0  0  0  0  0
   14.0869  -18.3905   24.9094 C   0  0  0  0  0  0  0  0  0  0  0  0
   14.1426  -18.1731   23.4242 C   0  0  0  0  0  0  0  0  0  0  0  0
   15.5773  -17.9200   22.9627 C   0  0  0  0  0  0  0  0  0  0  0  0
   15.5275  -17.8775   21.4338 C   0  0  0  0  0  0  0  0  0  0  0  0
   16.8505  -17.6138   20.9018 N   0  0  0  0  0  0  0  0  0  0  0  0
   12.6859  -19.2815   26.6996 C   0  0  0  0  0  0  0  0  0  0  0  0
   13.2189  -20.4587   27.1409 O   0  0  0  0  0  0  0  0  0  0  0  0
   12.0825  -18.5781   27.5943 O   0  0  0  0  0  0  0  0  0  0  0  0
  2  1  1  1
  2  3  1  0
  4  2  1  0
  5  4  1  0
  5  6  1  1
  7  5  1  0
  7  8  2  0
  9  7  1  0
 10  9  1  0
 10 11  1  1
 11 12  1  0
 12 13  2  0
 12 20  1  0
 13 14  1  0
 14 15  1  0
 15 16  2  0
 16 17  1  0
 18 17  2  0
 19 18  1  0
 20 19  2  0
 20 15  1  0
 21 10  1  0
 22 21  2  0
 23 21  1  0
 24 25  1  1
 24 23  1  0
 25 26  1  0
 26 27  1  0
 27 28  1  0
 28 29  1  0
 30 24  1  0
 31 30  1  0
 32 30  2  0
M  END
$$$$
