LWK.pdb
     RDKit          3D

 32 33  0  0  1  0  0  0  0  0999 V2000
    7.0458  -12.1042   19.3801 C   0  0  0  0  0  0  0  0  0  0  0  0
    7.2529  -13.6072   19.5488 C   0  0  1  0  0  0  0  0  0  0  0  0
    8.0298  -14.0496   18.3019 C   0  0  0  0  0  0  0  0  0  0  0  0
    8.1263  -13.9124   20.7263 C   0  0  0  0  0  0  0  0  0  0  0  0
    8.3547  -15.3907   20.9283 C   0  0  2  0  0  0  0  0  0  0  0  0
    7.1538  -16.1548   20.9504 N   0  0  0  0  0  0  0  0  0  0  0  0
    9.0838  -15.5459   22.2117 C   0  0  0  0  0  0  0  0  0  0  0  0
   10.1531  -14.9016   22.3679 O   0  0  0  0  0  0  0  0  0  0  0  0
    8.5908  -16.4051   23.2521 N   0  0  0  0  0  0  0  0  0  0  0  0
    9.3130  -16.5953   24.4653 C   0  0  1  0  0  0  0  0  0  0  0  0
    8.4135  -16.6763   25.6822 C   0  0  0  0  0  0  0  0  0  0  0  0
    7.4328  -15.5982   25.7653 C   0  0  0  0  0  0  0  0  0  0  0  0
    6.1066  -15.6364   25.4450 C   0  0  0  0  0  0  0  0  0  0  0  0
    5.5836  -14.4195   25.6752 N   0  0  0  0  0  0  0  0  0  0  0  0
    6.5426  -13.5894   26.1390 C   0  0  0  0  0  0  0  0  0  0  0  0
    6.5761  -12.2692   26.5290 C   0  0  0  0  0  0  0  0  0  0  0  0
    7.7255  -11.6499   26.9763 C   0  0  0  0  0  0  0  0  0  0  0  0
    8.8924  -12.3847   27.0357 C   0  0  0  0  0  0  0  0  0  0  0  0
    8.8670  -13.7029   26.6482 C   0  0  0  0  0  0  0  0  0  0  0  0
    7.7007  -14.3169   26.1984 C   0  0  0  0  0  0  0  0  0  0  0  0
   10.1324  -17.8395   24.4615 C   0  0  0  0  0  0  0  0  0  0  0  0
    9.5192  -18.9297   24.3624 O   0  0  0  0  0  0  0  0  0  0  0  0
   11.5496  -17.8273   24.5638 N   0  0  0  0  0  0  0  0  0  0  0  0
   12.3636  -19.0444   24.5321 C   0  0  1  0  0  0  0  0  0  0  0  0
   13.4547  -18.9373   23.5292 C   0  0  0  0  0  0  0  0  0  0  0  0
   12.9149  -18.5672   22.1772 C   0  0  0  0  0  0  0  0  0  0  0  0
   14.0478  -18.3836   21.1683 C   0  0  0  0  0  0  0  0  0  0  0  0
   13.3917  -17.8644   19.8869 C   0  0  0  0  0  0  0  0  0  0  0  0
   14.4003  -17.6399   18.8694 N   0  0  0  0  0  0  0  0  0  0  0  0
   12.8708  -19.3912   25.8561 C   0  0  0  0  0  0  0  0  0  0  0  0
   13.4744  -20.5470   26.2615 O   0  0  0  0  0  0  0  0  0  0  0  0
   12.7300  -18.4919   26.7677 O   0  0  0  0  0  0  0  0  0  0  0  0
  2  1  1  6
  2  3  1  0
  4  2  1  0
  5  4  1  0
  5  6  1  1
  7  5  1  0
  7  8  2  0
  9  7  1  0
 10  9  1  0
 10 11  1  1
 11 12  1  0
 12 13  2  0
 12 20  1  0
 13 14  1  0
 14 15  1  0
 15 16  2  0
 16 17  1  0
 18 17  2  0
 19 18  1  0
 20 19  2  0
 20 15  1  0
 21 10  1  0
 22 21  2  0
 23 21  1  0
 24 25  1  6
 24 23  1  0
 25 26  1  0
 26 27  1  0
 27 28  1  0
 28 29  1  0
 30 24  1  0
 31 30  1  0
 32 30  2  0
M  END
$$$$
