LWK.pdb
     RDKit          3D

 32 33  0  0  1  0  0  0  0  0999 V2000
    7.0560  -12.0450   19.3525 C   0  0  0  0  0  0  0  0  0  0  0  0
    7.4014  -13.5275   19.4669 C   0  0  1  0  0  0  0  0  0  0  0  0
    8.2080  -13.8523   18.2027 C   0  0  0  0  0  0  0  0  0  0  0  0
    8.3064  -13.7923   20.6302 C   0  0  0  0  0  0  0  0  0  0  0  0
    8.5649  -15.2618   20.8584 C   0  0  2  0  0  0  0  0  0  0  0  0
    7.3865  -16.0596   20.8240 N   0  0  0  0  0  0  0  0  0  0  0  0
    9.2284  -15.3856   22.1803 C   0  0  0  0  0  0  0  0  0  0  0  0
   10.2608  -14.6984   22.3923 O   0  0  0  0  0  0  0  0  0  0  0  0
    8.7142  -16.2626   23.1953 N   0  0  0  0  0  0  0  0  0  0  0  0
    9.3519  -16.3889   24.4630 C   0  0  1  0  0  0  0  0  0  0  0  0
    8.3692  -16.5418   25.6064 C   0  0  0  0  0  0  0  0  0  0  0  0
    7.3548  -15.4933   25.6583 C   0  0  0  0  0  0  0  0  0  0  0  0
    6.0476  -15.5630   25.2721 C   0  0  0  0  0  0  0  0  0  0  0  0
    5.4790  -14.3656   25.4959 N   0  0  0  0  0  0  0  0  0  0  0  0
    6.3896  -13.5172   26.0201 C   0  0  0  0  0  0  0  0  0  0  0  0
    6.3657  -12.2037   26.4328 C   0  0  0  0  0  0  0  0  0  0  0  0
    7.4733  -11.5603   26.9466 C   0  0  0  0  0  0  0  0  0  0  0  0
    8.6567  -12.2631   27.0518 C   0  0  0  0  0  0  0  0  0  0  0  0
    8.6885  -13.5744   26.6421 C   0  0  0  0  0  0  0  0  0  0  0  0
    7.5639  -14.2129   26.1251 C   0  0  0  0  0  0  0  0  0  0  0  0
   10.2695  -17.5604   24.5345 C   0  0  0  0  0  0  0  0  0  0  0  0
    9.7843  -18.6861   24.2667 O   0  0  0  0  0  0  0  0  0  0  0  0
   11.6409  -17.4426   24.8874 N   0  0  0  0  0  0  0  0  0  0  0  0
   12.5303  -18.5969   25.0338 C   0  0  1  0  0  0  0  0  0  0  0  0
   13.9131  -18.2706   24.5990 C   0  0  0  0  0  0  0  0  0  0  0  0
   14.4866  -19.3660   23.7459 C   0  0  0  0  0  0  0  0  0  0  0  0
   15.9214  -19.0415   23.3320 C   0  0  0  0  0  0  0  0  0  0  0  0
   16.4287  -20.2683   22.5708 C   0  0  0  0  0  0  0  0  0  0  0  0
   17.7622  -20.0177   22.0591 N   0  0  0  0  0  0  0  0  0  0  0  0
   12.4972  -19.1374   26.3893 C   0  0  0  0  0  0  0  0  0  0  0  0
   12.8980  -20.3676   26.8261 O   0  0  0  0  0  0  0  0  0  0  0  0
   12.0252  -18.3551   27.2973 O   0  0  0  0  0  0  0  0  0  0  0  0
  2  1  1  6
  2  3  1  0
  4  2  1  0
  5  4  1  0
  5  6  1  1
  7  5  1  0
  7  8  2  0
  9  7  1  0
 10  9  1  0
 10 11  1  1
 11 12  1  0
 12 13  2  0
 12 20  1  0
 13 14  1  0
 14 15  1  0
 15 16  2  0
 16 17  1  0
 18 17  2  0
 19 18  1  0
 20 19  2  0
 20 15  1  0
 21 10  1  0
 22 21  2  0
 23 21  1  0
 24 25  1  1
 24 23  1  0
 25 26  1  0
 26 27  1  0
 27 28  1  0
 28 29  1  0
 30 24  1  0
 31 30  1  0
 32 30  2  0
M  END
$$$$
