LWK.pdb
     RDKit          3D

 32 33  0  0  1  0  0  0  0  0999 V2000
    7.6483  -11.9021   19.7678 C   0  0  0  0  0  0  0  0  0  0  0  0
    7.5822  -13.4184   19.9307 C   0  0  1  0  0  0  0  0  0  0  0  0
    7.7172  -13.9827   18.5102 C   0  0  0  0  0  0  0  0  0  0  0  0
    8.7510  -13.9386   20.7091 C   0  0  0  0  0  0  0  0  0  0  0  0
    8.6628  -15.4181   20.9943 C   0  0  2  0  0  0  0  0  0  0  0  0
    7.3276  -15.9085   21.0527 N   0  0  0  0  0  0  0  0  0  0  0  0
    9.3511  -15.6525   22.2882 C   0  0  0  0  0  0  0  0  0  0  0  0
   10.5063  -15.1778   22.4399 O   0  0  0  0  0  0  0  0  0  0  0  0
    8.7245  -16.3992   23.3435 N   0  0  0  0  0  0  0  0  0  0  0  0
    9.3465  -16.5555   24.6157 C   0  0  1  0  0  0  0  0  0  0  0  0
    8.3542  -16.5696   25.7610 C   0  0  0  0  0  0  0  0  0  0  0  0
    7.4082  -15.4581   25.7373 C   0  0  0  0  0  0  0  0  0  0  0  0
    6.0867  -15.4809   25.3965 C   0  0  0  0  0  0  0  0  0  0  0  0
    5.6003  -14.2334   25.5166 N   0  0  0  0  0  0  0  0  0  0  0  0
    6.5785  -13.3984   25.9286 C   0  0  0  0  0  0  0  0  0  0  0  0
    6.6490  -12.0522   26.2098 C   0  0  0  0  0  0  0  0  0  0  0  0
    7.8107  -11.4345   26.6263 C   0  0  0  0  0  0  0  0  0  0  0  0
    8.9518  -12.1981   26.7673 C   0  0  0  0  0  0  0  0  0  0  0  0
    8.8895  -13.5423   26.4886 C   0  0  0  0  0  0  0  0  0  0  0  0
    7.7110  -14.1545   26.0690 C   0  0  0  0  0  0  0  0  0  0  0  0
   10.1343  -17.8154   24.7232 C   0  0  0  0  0  0  0  0  0  0  0  0
    9.5059  -18.8958   24.6132 O   0  0  0  0  0  0  0  0  0  0  0  0
   11.5385  -17.8281   24.9405 N   0  0  0  0  0  0  0  0  0  0  0  0
   12.3669  -19.0195   24.7427 C   0  0  1  0  0  0  0  0  0  0  0  0
   13.2967  -18.8454   23.5969 C   0  0  0  0  0  0  0  0  0  0  0  0
   14.0827  -20.0994   23.3402 C   0  0  0  0  0  0  0  0  0  0  0  0
   15.0911  -19.8905   22.2112 C   0  0  0  0  0  0  0  0  0  0  0  0
   15.7897  -21.2379   22.0146 C   0  0  0  0  0  0  0  0  0  0  0  0
   16.8981  -21.0916   21.0911 N   0  0  0  0  0  0  0  0  0  0  0  0
   13.0703  -19.3988   25.9641 C   0  0  0  0  0  0  0  0  0  0  0  0
   13.6279  -20.6027   26.2875 O   0  0  0  0  0  0  0  0  0  0  0  0
   13.1797  -18.4803   26.8606 O   0  0  0  0  0  0  0  0  0  0  0  0
  2  1  1  6
  2  3  1  0
  4  2  1  0
  5  4  1  0
  5  6  1  1
  7  5  1  0
  7  8  2  0
  9  7  1  0
 10  9  1  0
 10 11  1  1
 11 12  1  0
 12 13  2  0
 12 20  1  0
 13 14  1  0
 14 15  1  0
 15 16  2  0
 16 17  1  0
 18 17  2  0
 19 18  1  0
 20 19  2  0
 20 15  1  0
 21 10  1  0
 22 21  2  0
 23 21  1  0
 24 25  1  6
 24 23  1  0
 25 26  1  0
 26 27  1  0
 27 28  1  0
 28 29  1  0
 30 24  1  0
 31 30  1  0
 32 30  2  0
M  END
$$$$
