TWR.pdb
     RDKit          3D

 33 34  0  0  1  0  0  0  0  0999 V2000
   28.8202  -20.7933  -19.0139 C   0  0  0  0  0  0  0  0  0  0  0  0
   27.9479  -21.1821  -17.8344 C   0  0  1  0  0  0  0  0  0  0  0  0
   26.8444  -21.9427  -18.2999 O   0  0  0  0  0  0  0  0  0  0  0  0
   28.6936  -21.8762  -16.7333 C   0  0  2  0  0  0  0  0  0  0  0  0
   29.1798  -23.1420  -17.2388 N   0  0  0  0  0  0  0  0  0  0  0  0
   27.8766  -22.0729  -15.5083 C   0  0  0  0  0  0  0  0  0  0  0  0
   27.3913  -23.1889  -15.2692 O   0  0  0  0  0  0  0  0  0  0  0  0
   27.6572  -20.9835  -14.6138 N   0  0  0  0  0  0  0  0  0  0  0  0
   26.9421  -21.0790  -13.3729 C   0  0  1  0  0  0  0  0  0  0  0  0
   27.2762  -20.0340  -12.3387 C   0  0  0  0  0  0  0  0  0  0  0  0
   26.6010  -20.1694  -11.0555 C   0  0  0  0  0  0  0  0  0  0  0  0
   25.2755  -19.9948  -10.7939 C   0  0  0  0  0  0  0  0  0  0  0  0
   25.0455  -20.2351   -9.4683 N   0  0  0  0  0  0  0  0  0  0  0  0
   26.2026  -20.5593   -8.8901 C   0  0  0  0  0  0  0  0  0  0  0  0
   26.5133  -20.8816   -7.5710 C   0  0  0  0  0  0  0  0  0  0  0  0
   27.8028  -21.1777   -7.1730 C   0  0  0  0  0  0  0  0  0  0  0  0
   28.7814  -21.1392   -8.1536 C   0  0  0  0  0  0  0  0  0  0  0  0
   28.4823  -20.8221   -9.4561 C   0  0  0  0  0  0  0  0  0  0  0  0
   27.1901  -20.5296   -9.8398 C   0  0  0  0  0  0  0  0  0  0  0  0
   25.4575  -20.8473  -13.6445 C   0  0  0  0  0  0  0  0  0  0  0  0
   25.1152  -19.7747  -14.2024 O   0  0  0  0  0  0  0  0  0  0  0  0
   24.7680  -23.5929  -17.1498 N   0  0  0  0  0  0  0  0  0  0  0  0
   24.6932  -25.0069  -16.9929 C   0  0  0  0  0  0  0  0  0  0  0  0
   24.8085  -25.8213  -18.0327 N   0  0  0  0  0  0  0  0  0  0  0  0
   24.4874  -25.6114  -15.7087 N   0  0  0  0  0  0  0  0  0  0  0  0
   24.1958  -24.8671  -14.5327 C   0  0  0  0  0  0  0  0  0  0  0  0
   22.9430  -24.0345  -14.6120 C   0  0  0  0  0  0  0  0  0  0  0  0
   22.5636  -23.2717  -13.3879 C   0  0  0  0  0  0  0  0  0  0  0  0
   23.1021  -21.8510  -13.4249 C   0  0  2  0  0  0  0  0  0  0  0  0
   24.4923  -21.7872  -13.2857 N   0  0  0  0  0  0  0  0  0  0  0  0
   22.2033  -20.8540  -12.8270 C   0  0  0  0  0  0  0  0  0  0  0  0
   22.3440  -20.2685  -11.6238 O   0  0  0  0  0  0  0  0  0  0  0  0
   21.1971  -20.5268  -13.5594 O   0  0  0  0  0  0  0  0  0  0  0  0
  2  1  1  6
  3  2  1  0
  4  5  1  6
  4  2  1  0
  6  4  1  0
  7  6  2  0
  8  6  1  0
  9 20  1  0
  9  8  1  0
  9 10  1  1
 11 10  1  0
 12 11  2  0
 13 14  1  0
 13 12  1  0
 14 19  2  0
 15 16  2  0
 15 14  1  0
 16 17  1  0
 17 18  2  0
 19 18  1  0
 19 11  1  0
 20 21  2  0
 23 22  1  0
 23 25  1  0
 24 23  2  0
 26 25  1  0
 26 27  1  0
 27 28  1  0
 29 28  1  1
 30 20  1  0
 30 29  1  0
 31 29  1  0
 31 32  1  0
 33 31  2  0
M  END
$$$$
