TWR.pdb
     RDKit          3D

 33 34  0  0  1  0  0  0  0  0999 V2000
   25.5142  -21.6731  -18.3680 C   0  0  0  0  0  0  0  0  0  0  0  0
   26.4573  -22.8618  -18.3956 C   0  0  1  0  0  0  0  0  0  0  0  0
   27.1549  -22.8764  -19.6309 O   0  0  0  0  0  0  0  0  0  0  0  0
   27.3841  -22.9262  -17.2178 C   0  0  2  0  0  0  0  0  0  0  0  0
   28.1552  -24.1473  -17.3100 N   0  0  0  0  0  0  0  0  0  0  0  0
   26.6779  -22.8421  -15.9135 C   0  0  0  0  0  0  0  0  0  0  0  0
   26.0127  -23.8097  -15.5145 O   0  0  0  0  0  0  0  0  0  0  0  0
   26.7700  -21.6556  -15.1269 N   0  0  0  0  0  0  0  0  0  0  0  0
   26.2097  -21.5024  -13.8143 C   0  0  1  0  0  0  0  0  0  0  0  0
   26.7816  -20.3834  -12.9812 C   0  0  0  0  0  0  0  0  0  0  0  0
   26.3371  -20.3301  -11.5953 C   0  0  0  0  0  0  0  0  0  0  0  0
   25.1354  -19.8921  -11.1267 C   0  0  0  0  0  0  0  0  0  0  0  0
   25.1098  -20.0256   -9.7668 N   0  0  0  0  0  0  0  0  0  0  0  0
   26.2739  -20.5412   -9.3702 C   0  0  0  0  0  0  0  0  0  0  0  0
   26.7547  -20.8595   -8.1022 C   0  0  0  0  0  0  0  0  0  0  0  0
   28.0193  -21.3809   -7.9074 C   0  0  0  0  0  0  0  0  0  0  0  0
   28.7943  -21.5745   -9.0400 C   0  0  0  0  0  0  0  0  0  0  0  0
   28.3267  -21.2627  -10.2932 C   0  0  0  0  0  0  0  0  0  0  0  0
   27.0615  -20.7437  -10.4733 C   0  0  0  0  0  0  0  0  0  0  0  0
   24.7367  -21.1249  -13.9520 C   0  0  0  0  0  0  0  0  0  0  0  0
   24.4210  -20.2638  -14.8108 O   0  0  0  0  0  0  0  0  0  0  0  0
   18.2765  -24.5572   -8.6403 N   0  0  0  0  0  0  0  0  0  0  0  0
   19.0203  -25.0699   -9.7420 C   0  0  0  0  0  0  0  0  0  0  0  0
   19.2282  -26.3714   -9.8854 N   0  0  0  0  0  0  0  0  0  0  0  0
   19.5785  -24.2047  -10.7404 N   0  0  0  0  0  0  0  0  0  0  0  0
   19.5952  -22.7875  -10.6252 C   0  0  0  0  0  0  0  0  0  0  0  0
   20.3071  -22.0756  -11.7455 C   0  0  0  0  0  0  0  0  0  0  0  0
   21.7825  -22.2732  -11.8380 C   0  0  0  0  0  0  0  0  0  0  0  0
   22.3772  -21.5069  -13.0080 C   0  0  2  0  0  0  0  0  0  0  0  0
   23.7542  -21.7060  -13.1513 N   0  0  0  0  0  0  0  0  0  0  0  0
   21.7379  -20.2082  -13.2605 C   0  0  0  0  0  0  0  0  0  0  0  0
   20.8315  -19.9343  -14.2164 O   0  0  0  0  0  0  0  0  0  0  0  0
   22.0991  -19.2650  -12.4631 O   0  0  0  0  0  0  0  0  0  0  0  0
  2  1  1  1
  3  2  1  0
  4  5  1  1
  4  2  1  0
  6  4  1  0
  7  6  2  0
  8  6  1  0
  9 20  1  0
  9  8  1  0
  9 10  1  6
 11 10  1  0
 12 11  2  0
 13 14  1  0
 13 12  1  0
 14 19  2  0
 15 16  2  0
 15 14  1  0
 16 17  1  0
 17 18  2  0
 19 18  1  0
 19 11  1  0
 20 21  2  0
 23 22  1  0
 23 25  1  0
 24 23  2  0
 26 25  1  0
 26 27  1  0
 27 28  1  0
 29 28  1  1
 30 20  1  0
 30 29  1  0
 31 29  1  0
 31 32  1  0
 33 31  2  0
M  END
$$$$
