TWR.pdb
     RDKit          3D

 33 34  0  0  1  0  0  0  0  0999 V2000
   20.7081  -22.8583  -12.2456 C   0  0  0  0  0  0  0  0  0  0  0  0
   21.7484  -21.7639  -12.3988 C   0  0  1  0  0  0  0  0  0  0  0  0
   21.1365  -20.6124  -12.9580 O   0  0  0  0  0  0  0  0  0  0  0  0
   22.4925  -21.4552  -11.1334 C   0  0  2  0  0  0  0  0  0  0  0  0
   21.5599  -20.8912  -10.1815 N   0  0  0  0  0  0  0  0  0  0  0  0
   23.6501  -20.5480  -11.3430 C   0  0  0  0  0  0  0  0  0  0  0  0
   23.5466  -19.3469  -11.0521 O   0  0  0  0  0  0  0  0  0  0  0  0
   24.8719  -21.0599  -11.8724 N   0  0  0  0  0  0  0  0  0  0  0  0
   26.0461  -20.2725  -12.1204 C   0  0  1  0  0  0  0  0  0  0  0  0
   27.3629  -20.9949  -11.9882 C   0  0  0  0  0  0  0  0  0  0  0  0
   27.8654  -21.1594  -10.6313 C   0  0  0  0  0  0  0  0  0  0  0  0
   28.8340  -22.0168  -10.2045 C   0  0  0  0  0  0  0  0  0  0  0  0
   29.0238  -21.8452   -8.8619 N   0  0  0  0  0  0  0  0  0  0  0  0
   28.1925  -20.8937   -8.4353 C   0  0  0  0  0  0  0  0  0  0  0  0
   27.9830  -20.3558   -7.1676 C   0  0  0  0  0  0  0  0  0  0  0  0
   27.0451  -19.3680   -6.9363 C   0  0  0  0  0  0  0  0  0  0  0  0
   26.3160  -18.9328   -8.0317 C   0  0  0  0  0  0  0  0  0  0  0  0
   26.5172  -19.4588   -9.2844 C   0  0  0  0  0  0  0  0  0  0  0  0
   27.4579  -20.4440   -9.5013 C   0  0  0  0  0  0  0  0  0  0  0  0
   26.0338  -19.8216  -13.5792 C   0  0  0  0  0  0  0  0  0  0  0  0
   25.5830  -20.6148  -14.4432 O   0  0  0  0  0  0  0  0  0  0  0  0
   24.9715  -12.5562  -17.5634 N   0  0  0  0  0  0  0  0  0  0  0  0
   25.2385  -13.6884  -18.3859 C   0  0  0  0  0  0  0  0  0  0  0  0
   24.7013  -13.8040  -19.5925 N   0  0  0  0  0  0  0  0  0  0  0  0
   26.0944  -14.7521  -17.9468 N   0  0  0  0  0  0  0  0  0  0  0  0
   26.7527  -14.7552  -16.6863 C   0  0  0  0  0  0  0  0  0  0  0  0
   27.6012  -15.9721  -16.4250 C   0  0  0  0  0  0  0  0  0  0  0  0
   27.4482  -16.6255  -15.0931 C   0  0  0  0  0  0  0  0  0  0  0  0
   26.6699  -17.9269  -15.1945 C   0  0  2  0  0  0  0  0  0  0  0  0
   26.5105  -18.5685  -13.9620 N   0  0  0  0  0  0  0  0  0  0  0  0
   26.8980  -18.6653  -16.4442 C   0  0  0  0  0  0  0  0  0  0  0  0
   26.0862  -18.6942  -17.5168 O   0  0  0  0  0  0  0  0  0  0  0  0
   27.9975  -19.3327  -16.4834 O   0  0  0  0  0  0  0  0  0  0  0  0
  2  1  1  1
  3  2  1  0
  4  5  1  1
  4  2  1  0
  6  4  1  0
  7  6  2  0
  8  6  1  0
  9 20  1  0
  9  8  1  0
  9 10  1  6
 11 10  1  0
 12 11  2  0
 13 14  1  0
 13 12  1  0
 14 19  2  0
 15 16  2  0
 15 14  1  0
 16 17  1  0
 17 18  2  0
 19 18  1  0
 19 11  1  0
 20 21  2  0
 23 22  1  0
 23 25  1  0
 24 23  2  0
 26 25  1  0
 26 27  1  0
 27 28  1  0
 29 28  1  1
 30 20  1  0
 30 29  1  0
 31 29  1  0
 31 32  1  0
 33 31  2  0
M  END
$$$$
