TWR.pdb
     RDKit          3D

 33 34  0  0  1  0  0  0  0  0999 V2000
   27.2848  -18.5306  -14.9501 C   0  0  0  0  0  0  0  0  0  0  0  0
   27.9841  -19.7662  -15.4863 C   0  0  1  0  0  0  0  0  0  0  0  0
   29.0126  -19.3705  -16.3798 O   0  0  0  0  0  0  0  0  0  0  0  0
   28.4845  -20.6905  -14.4159 C   0  0  2  0  0  0  0  0  0  0  0  0
   29.1639  -21.7991  -15.0512 N   0  0  0  0  0  0  0  0  0  0  0  0
   27.4090  -21.1749  -13.5128 C   0  0  0  0  0  0  0  0  0  0  0  0
   26.6673  -22.0968  -13.8841 O   0  0  0  0  0  0  0  0  0  0  0  0
   27.2364  -20.5830  -12.2263 N   0  0  0  0  0  0  0  0  0  0  0  0
   26.1530  -20.8779  -11.3322 C   0  0  1  0  0  0  0  0  0  0  0  0
   26.3032  -20.3616   -9.9236 C   0  0  0  0  0  0  0  0  0  0  0  0
   27.5177  -20.7598   -9.2256 C   0  0  0  0  0  0  0  0  0  0  0  0
   28.5280  -21.5408   -9.6999 C   0  0  0  0  0  0  0  0  0  0  0  0
   29.4920  -21.6585   -8.7383 N   0  0  0  0  0  0  0  0  0  0  0  0
   29.1076  -20.9642   -7.6666 C   0  0  0  0  0  0  0  0  0  0  0  0
   29.7164  -20.7710   -6.4287 C   0  0  0  0  0  0  0  0  0  0  0  0
   29.1300  -20.0123   -5.4339 C   0  0  0  0  0  0  0  0  0  0  0  0
   27.8985  -19.4475   -5.7257 C   0  0  0  0  0  0  0  0  0  0  0  0
   27.2923  -19.6340   -6.9440 C   0  0  0  0  0  0  0  0  0  0  0  0
   27.8896  -20.3931   -7.9287 C   0  0  0  0  0  0  0  0  0  0  0  0
   24.8964  -20.1723  -11.8365 C   0  0  0  0  0  0  0  0  0  0  0  0
   25.0275  -19.2679  -12.6989 O   0  0  0  0  0  0  0  0  0  0  0  0
   19.3526  -23.2889  -12.7881 N   0  0  0  0  0  0  0  0  0  0  0  0
   19.1043  -23.7742  -14.1044 C   0  0  0  0  0  0  0  0  0  0  0  0
   17.9797  -24.4099  -14.4023 N   0  0  0  0  0  0  0  0  0  0  0  0
   20.0571  -23.6007  -15.1622 N   0  0  0  0  0  0  0  0  0  0  0  0
   21.1475  -22.6909  -15.0900 C   0  0  0  0  0  0  0  0  0  0  0  0
   21.1732  -21.8403  -13.8471 C   0  0  0  0  0  0  0  0  0  0  0  0
   22.4966  -21.6578  -13.1840 C   0  0  0  0  0  0  0  0  0  0  0  0
   22.3947  -20.7437  -11.9741 C   0  0  2  0  0  0  0  0  0  0  0  0
   23.6289  -20.5056  -11.3607 N   0  0  0  0  0  0  0  0  0  0  0  0
   21.1507  -20.9006  -11.2079 C   0  0  0  0  0  0  0  0  0  0  0  0
   19.9044  -20.6392  -11.6424 O   0  0  0  0  0  0  0  0  0  0  0  0
   21.3074  -21.3417  -10.0093 O   0  0  0  0  0  0  0  0  0  0  0  0
  2  1  1  1
  3  2  1  0
  4  5  1  6
  4  2  1  0
  6  4  1  0
  7  6  2  0
  8  6  1  0
  9 20  1  0
  9  8  1  0
  9 10  1  1
 11 10  1  0
 12 11  2  0
 13 14  1  0
 13 12  1  0
 14 19  2  0
 15 16  2  0
 15 14  1  0
 16 17  1  0
 17 18  2  0
 19 18  1  0
 19 11  1  0
 20 21  2  0
 23 22  1  0
 23 25  1  0
 24 23  2  0
 26 25  1  0
 26 27  1  0
 27 28  1  0
 29 28  1  1
 30 20  1  0
 30 29  1  0
 31 29  1  0
 31 32  1  0
 33 31  2  0
M  END
$$$$
