TWR.pdb
     RDKit          3D

 33 34  0  0  1  0  0  0  0  0999 V2000
   28.4084  -19.3902  -17.2891 C   0  0  0  0  0  0  0  0  0  0  0  0
   27.5423  -19.9170  -16.1597 C   0  0  1  0  0  0  0  0  0  0  0  0
   26.2719  -20.2814  -16.6757 O   0  0  0  0  0  0  0  0  0  0  0  0
   28.1784  -21.0275  -15.3769 C   0  0  2  0  0  0  0  0  0  0  0  0
   28.3427  -22.1674  -16.2530 N   0  0  0  0  0  0  0  0  0  0  0  0
   27.4102  -21.3994  -14.1609 C   0  0  0  0  0  0  0  0  0  0  0  0
   26.6658  -22.3909  -14.1871 O   0  0  0  0  0  0  0  0  0  0  0  0
   27.5338  -20.6205  -12.9722 N   0  0  0  0  0  0  0  0  0  0  0  0
   26.8618  -20.9068  -11.7366 C   0  0  1  0  0  0  0  0  0  0  0  0
   27.3424  -20.1371  -10.5325 C   0  0  0  0  0  0  0  0  0  0  0  0
   26.6952  -20.4624   -9.2690 C   0  0  0  0  0  0  0  0  0  0  0  0
   25.5253  -21.1358   -9.0864 C   0  0  0  0  0  0  0  0  0  0  0  0
   25.2781  -21.2485   -7.7469 N   0  0  0  0  0  0  0  0  0  0  0  0
   26.2725  -20.6589   -7.0822 C   0  0  0  0  0  0  0  0  0  0  0  0
   26.4928  -20.4887   -5.7173 C   0  0  0  0  0  0  0  0  0  0  0  0
   27.6013  -19.8226   -5.2312 C   0  0  0  0  0  0  0  0  0  0  0  0
   28.4917  -19.3272   -6.1706 C   0  0  0  0  0  0  0  0  0  0  0  0
   28.2808  -19.4912   -7.5179 C   0  0  0  0  0  0  0  0  0  0  0  0
   27.1700  -20.1594   -7.9894 C   0  0  0  0  0  0  0  0  0  0  0  0
   25.3996  -20.4863  -11.8659 C   0  0  0  0  0  0  0  0  0  0  0  0
   25.1473  -19.2825  -12.1227 O   0  0  0  0  0  0  0  0  0  0  0  0
   18.2973  -23.8848   -9.0907 N   0  0  0  0  0  0  0  0  0  0  0  0
   17.7280  -23.0551  -10.0993 C   0  0  0  0  0  0  0  0  0  0  0  0
   16.5006  -22.5688   -9.9777 N   0  0  0  0  0  0  0  0  0  0  0  0
   18.4523  -22.7123  -11.2887 N   0  0  0  0  0  0  0  0  0  0  0  0
   19.8029  -23.0935  -11.5180 C   0  0  0  0  0  0  0  0  0  0  0  0
   20.8256  -22.2091  -10.8541 C   0  0  0  0  0  0  0  0  0  0  0  0
   22.2587  -22.5016  -11.1456 C   0  0  0  0  0  0  0  0  0  0  0  0
   22.9641  -21.2976  -11.7475 C   0  0  2  0  0  0  0  0  0  0  0  0
   24.3583  -21.3988  -11.7016 N   0  0  0  0  0  0  0  0  0  0  0  0
   22.2588  -20.0252  -11.5413 C   0  0  0  0  0  0  0  0  0  0  0  0
   21.5854  -19.3231  -12.4708 O   0  0  0  0  0  0  0  0  0  0  0  0
   22.3044  -19.5720  -10.3378 O   0  0  0  0  0  0  0  0  0  0  0  0
  2  1  1  6
  3  2  1  0
  4  5  1  6
  4  2  1  0
  6  4  1  0
  7  6  2  0
  8  6  1  0
  9 20  1  0
  9  8  1  0
  9 10  1  1
 11 10  1  0
 12 11  2  0
 13 14  1  0
 13 12  1  0
 14 19  2  0
 15 16  2  0
 15 14  1  0
 16 17  1  0
 17 18  2  0
 19 18  1  0
 19 11  1  0
 20 21  2  0
 23 22  1  0
 23 25  1  0
 24 23  2  0
 26 25  1  0
 26 27  1  0
 27 28  1  0
 29 28  1  1
 30 20  1  0
 30 29  1  0
 31 29  1  0
 31 32  1  0
 33 31  2  0
M  END
$$$$
