TWR.pdb
     RDKit          3D

 33 34  0  0  1  0  0  0  0  0999 V2000
   25.5486  -26.3315  -17.3285 C   0  0  0  0  0  0  0  0  0  0  0  0
   24.6294  -25.5116  -16.4419 C   0  0  1  0  0  0  0  0  0  0  0  0
   24.5499  -26.1191  -15.1623 O   0  0  0  0  0  0  0  0  0  0  0  0
   25.0027  -24.0609  -16.3609 C   0  0  2  0  0  0  0  0  0  0  0  0
   26.3964  -23.9688  -15.9824 N   0  0  0  0  0  0  0  0  0  0  0  0
   24.1465  -23.2888  -15.4240 C   0  0  0  0  0  0  0  0  0  0  0  0
   24.6573  -22.7522  -14.4294 O   0  0  0  0  0  0  0  0  0  0  0  0
   22.7472  -23.1652  -15.6724 N   0  0  0  0  0  0  0  0  0  0  0  0
   21.8476  -22.3674  -14.8885 C   0  0  1  0  0  0  0  0  0  0  0  0
   21.4704  -21.0312  -15.4764 C   0  0  0  0  0  0  0  0  0  0  0  0
   22.4705  -19.9791  -15.3596 C   0  0  0  0  0  0  0  0  0  0  0  0
   23.8194  -20.0976  -15.5082 C   0  0  0  0  0  0  0  0  0  0  0  0
   24.3978  -18.8711  -15.3382 N   0  0  0  0  0  0  0  0  0  0  0  0
   23.4370  -17.9813  -15.0864 C   0  0  0  0  0  0  0  0  0  0  0  0
   23.4941  -16.6131  -14.8313 C   0  0  0  0  0  0  0  0  0  0  0  0
   22.3595  -15.8670  -14.5766 C   0  0  0  0  0  0  0  0  0  0  0  0
   21.1519  -16.5469  -14.5865 C   0  0  0  0  0  0  0  0  0  0  0  0
   21.0881  -17.8959  -14.8371 C   0  0  0  0  0  0  0  0  0  0  0  0
   22.2290  -18.6285  -15.0909 C   0  0  0  0  0  0  0  0  0  0  0  0
   20.5112  -23.0982  -14.7824 C   0  0  0  0  0  0  0  0  0  0  0  0
   20.1046  -23.7427  -15.7816 O   0  0  0  0  0  0  0  0  0  0  0  0
   18.3125  -24.7245   -6.5235 N   0  0  0  0  0  0  0  0  0  0  0  0
   18.6266  -25.8464   -7.3435 C   0  0  0  0  0  0  0  0  0  0  0  0
   18.8765  -27.0362   -6.8149 N   0  0  0  0  0  0  0  0  0  0  0  0
   18.6897  -25.7395   -8.7724 N   0  0  0  0  0  0  0  0  0  0  0  0
   18.3953  -24.5417   -9.4798 C   0  0  0  0  0  0  0  0  0  0  0  0
   18.5392  -24.6453  -10.9756 C   0  0  0  0  0  0  0  0  0  0  0  0
   18.2023  -23.4287  -11.7698 C   0  0  0  0  0  0  0  0  0  0  0  0
   18.5192  -23.6176  -13.2441 C   0  0  2  0  0  0  0  0  0  0  0  0
   19.7458  -23.0589  -13.6177 N   0  0  0  0  0  0  0  0  0  0  0  0
   17.3393  -23.5861  -14.1193 C   0  0  0  0  0  0  0  0  0  0  0  0
   16.6152  -24.6448  -14.5255 O   0  0  0  0  0  0  0  0  0  0  0  0
   16.9884  -22.4112  -14.5096 O   0  0  0  0  0  0  0  0  0  0  0  0
  2  1  1  6
  3  2  1  0
  4  5  1  1
  4  2  1  0
  6  4  1  0
  7  6  2  0
  8  6  1  0
  9 20  1  0
  9  8  1  0
  9 10  1  6
 11 10  1  0
 12 11  2  0
 13 14  1  0
 13 12  1  0
 14 19  2  0
 15 16  2  0
 15 14  1  0
 16 17  1  0
 17 18  2  0
 19 18  1  0
 19 11  1  0
 20 21  2  0
 23 22  1  0
 23 25  1  0
 24 23  2  0
 26 25  1  0
 26 27  1  0
 27 28  1  0
 29 28  1  1
 30 20  1  0
 30 29  1  0
 31 29  1  0
 31 32  1  0
 33 31  2  0
M  END
$$$$
