TWR.pdb
     RDKit          3D

 33 34  0  0  1  0  0  0  0  0999 V2000
   27.4487  -18.6708  -14.7380 C   0  0  0  0  0  0  0  0  0  0  0  0
   28.0551  -19.9466  -15.2927 C   0  0  1  0  0  0  0  0  0  0  0  0
   29.0217  -19.6153  -16.2770 O   0  0  0  0  0  0  0  0  0  0  0  0
   28.6057  -20.8623  -14.2397 C   0  0  2  0  0  0  0  0  0  0  0  0
   29.2131  -21.9998  -14.8963 N   0  0  0  0  0  0  0  0  0  0  0  0
   27.5837  -21.3016  -13.2551 C   0  0  0  0  0  0  0  0  0  0  0  0
   26.8135  -22.2293  -13.5454 O   0  0  0  0  0  0  0  0  0  0  0  0
   27.4946  -20.6601  -11.9840 N   0  0  0  0  0  0  0  0  0  0  0  0
   26.4527  -20.8931  -11.0247 C   0  0  1  0  0  0  0  0  0  0  0  0
   26.6512  -20.2602   -9.6707 C   0  0  0  0  0  0  0  0  0  0  0  0
   27.8141  -20.7136   -8.9203 C   0  0  0  0  0  0  0  0  0  0  0  0
   28.7963  -21.5571   -9.3437 C   0  0  0  0  0  0  0  0  0  0  0  0
   29.7149  -21.7121   -8.3436 N   0  0  0  0  0  0  0  0  0  0  0  0
   29.3295  -20.9799   -7.2979 C   0  0  0  0  0  0  0  0  0  0  0  0
   29.9007  -20.8002   -6.0401 C   0  0  0  0  0  0  0  0  0  0  0  0
   29.3203  -19.9938   -5.0800 C   0  0  0  0  0  0  0  0  0  0  0  0
   28.1344  -19.3665   -5.4276 C   0  0  0  0  0  0  0  0  0  0  0  0
   27.5655  -19.5392   -6.6658 C   0  0  0  0  0  0  0  0  0  0  0  0
   28.1564  -20.3466   -7.6154 C   0  0  0  0  0  0  0  0  0  0  0  0
   25.1660  -20.2470  -11.5330 C   0  0  0  0  0  0  0  0  0  0  0  0
   25.2561  -19.3522  -12.4106 O   0  0  0  0  0  0  0  0  0  0  0  0
   18.1141  -22.7613  -12.8778 N   0  0  0  0  0  0  0  0  0  0  0  0
   18.2897  -22.5773  -14.2797 C   0  0  0  0  0  0  0  0  0  0  0  0
   17.2534  -22.3781  -15.0822 N   0  0  0  0  0  0  0  0  0  0  0  0
   19.5898  -22.6024  -14.8846 N   0  0  0  0  0  0  0  0  0  0  0  0
   20.7956  -22.7208  -14.1402 C   0  0  0  0  0  0  0  0  0  0  0  0
   21.3660  -21.4127  -13.6581 C   0  0  0  0  0  0  0  0  0  0  0  0
   22.6895  -21.4677  -12.9727 C   0  0  0  0  0  0  0  0  0  0  0  0
   22.6510  -20.7668  -11.6248 C   0  0  2  0  0  0  0  0  0  0  0  0
   23.9155  -20.6232  -11.0446 N   0  0  0  0  0  0  0  0  0  0  0  0
   21.4483  -21.0580  -10.8324 C   0  0  0  0  0  0  0  0  0  0  0  0
   20.3990  -20.2383  -10.6389 O   0  0  0  0  0  0  0  0  0  0  0  0
   21.4283  -22.2255  -10.2915 O   0  0  0  0  0  0  0  0  0  0  0  0
  2  1  1  1
  3  2  1  0
  4  5  1  6
  4  2  1  0
  6  4  1  0
  7  6  2  0
  8  6  1  0
  9 20  1  0
  9  8  1  0
  9 10  1  1
 11 10  1  0
 12 11  2  0
 13 14  1  0
 13 12  1  0
 14 19  2  0
 15 16  2  0
 15 14  1  0
 16 17  1  0
 17 18  2  0
 19 18  1  0
 19 11  1  0
 20 21  2  0
 23 22  1  0
 23 25  1  0
 24 23  2  0
 26 25  1  0
 26 27  1  0
 27 28  1  0
 29 28  1  6
 30 20  1  0
 30 29  1  0
 31 29  1  0
 31 32  1  0
 33 31  2  0
M  END
$$$$
