TWR.pdb
     RDKit          3D

 33 34  0  0  1  0  0  0  0  0999 V2000
   27.4425  -18.1038  -14.1970 C   0  0  0  0  0  0  0  0  0  0  0  0
   27.4516  -19.3111  -15.1165 C   0  0  1  0  0  0  0  0  0  0  0  0
   28.2002  -19.0052  -16.2822 O   0  0  0  0  0  0  0  0  0  0  0  0
   27.9204  -20.5727  -14.4539 C   0  0  2  0  0  0  0  0  0  0  0  0
   27.8667  -21.6449  -15.4243 N   0  0  0  0  0  0  0  0  0  0  0  0
   27.1402  -20.9184  -13.2379 C   0  0  0  0  0  0  0  0  0  0  0  0
   26.0073  -21.4089  -13.3567 O   0  0  0  0  0  0  0  0  0  0  0  0
   27.6957  -20.6894  -11.9441 N   0  0  0  0  0  0  0  0  0  0  0  0
   27.0192  -20.9590  -10.7071 C   0  0  1  0  0  0  0  0  0  0  0  0
   27.8101  -20.6892   -9.4521 C   0  0  0  0  0  0  0  0  0  0  0  0
   27.0673  -20.7686   -8.2020 C   0  0  0  0  0  0  0  0  0  0  0  0
   25.8340  -21.3121   -8.0039 C   0  0  0  0  0  0  0  0  0  0  0  0
   25.5036  -21.2023   -6.6823 N   0  0  0  0  0  0  0  0  0  0  0  0
   26.5076  -20.6002   -6.0437 C   0  0  0  0  0  0  0  0  0  0  0  0
   26.6656  -20.2447   -4.7062 C   0  0  0  0  0  0  0  0  0  0  0  0
   27.7999  -19.6030   -4.2474 C   0  0  0  0  0  0  0  0  0  0  0  0
   28.7816  -19.3266   -5.1858 C   0  0  0  0  0  0  0  0  0  0  0  0
   28.6324  -19.6739   -6.5062 C   0  0  0  0  0  0  0  0  0  0  0  0
   27.4949  -20.3153   -6.9505 C   0  0  0  0  0  0  0  0  0  0  0  0
   25.8269  -20.0130  -10.5852 C   0  0  0  0  0  0  0  0  0  0  0  0
   26.0460  -18.7758  -10.5919 O   0  0  0  0  0  0  0  0  0  0  0  0
   23.5052  -18.7251  -16.4671 N   0  0  0  0  0  0  0  0  0  0  0  0
   23.0378  -20.0632  -16.3226 C   0  0  0  0  0  0  0  0  0  0  0  0
   23.3479  -20.9993  -17.2088 N   0  0  0  0  0  0  0  0  0  0  0  0
   22.2114  -20.4562  -15.2184 N   0  0  0  0  0  0  0  0  0  0  0  0
   22.0838  -19.6908  -14.0268 C   0  0  0  0  0  0  0  0  0  0  0  0
   23.2878  -19.7324  -13.1228 C   0  0  0  0  0  0  0  0  0  0  0  0
   23.1897  -18.9838  -11.8366 C   0  0  0  0  0  0  0  0  0  0  0  0
   23.2594  -19.9172  -10.6393 C   0  0  2  0  0  0  0  0  0  0  0  0
   24.5227  -20.4910  -10.4637 N   0  0  0  0  0  0  0  0  0  0  0  0
   22.0153  -20.6557  -10.3822 C   0  0  0  0  0  0  0  0  0  0  0  0
   20.8582  -20.1412   -9.9276 O   0  0  0  0  0  0  0  0  0  0  0  0
   22.0737  -21.9158  -10.6364 O   0  0  0  0  0  0  0  0  0  0  0  0
  2  1  1  1
  3  2  1  0
  4  5  1  6
  4  2  1  0
  6  4  1  0
  7  6  2  0
  8  6  1  0
  9 20  1  0
  9  8  1  0
  9 10  1  1
 11 10  1  0
 12 11  2  0
 13 14  1  0
 13 12  1  0
 14 19  2  0
 15 16  2  0
 15 14  1  0
 16 17  1  0
 17 18  2  0
 19 18  1  0
 19 11  1  0
 20 21  2  0
 23 22  1  0
 23 25  1  0
 24 23  2  0
 26 25  1  0
 26 27  1  0
 27 28  1  0
 29 28  1  6
 30 20  1  0
 30 29  1  0
 31 29  1  0
 31 32  1  0
 33 31  2  0
M  END
$$$$
