TWR.pdb
     RDKit          3D

 33 34  0  0  1  0  0  0  0  0999 V2000
   29.0249  -18.3207  -15.2868 C   0  0  0  0  0  0  0  0  0  0  0  0
   27.9921  -19.0934  -14.4871 C   0  0  1  0  0  0  0  0  0  0  0  0
   26.8542  -19.3321  -15.3001 O   0  0  0  0  0  0  0  0  0  0  0  0
   28.5239  -20.3525  -13.8687 C   0  0  2  0  0  0  0  0  0  0  0  0
   28.8986  -21.2601  -14.9317 N   0  0  0  0  0  0  0  0  0  0  0  0
   27.5634  -20.9960  -12.9359 C   0  0  0  0  0  0  0  0  0  0  0  0
   26.8559  -21.9326  -13.3362 O   0  0  0  0  0  0  0  0  0  0  0  0
   27.4613  -20.5388  -11.5884 N   0  0  0  0  0  0  0  0  0  0  0  0
   26.4257  -20.9255  -10.6728 C   0  0  1  0  0  0  0  0  0  0  0  0
   26.5427  -20.3719   -9.2752 C   0  0  0  0  0  0  0  0  0  0  0  0
   27.7562  -20.7233   -8.5507 C   0  0  0  0  0  0  0  0  0  0  0  0
   28.7665  -21.5348   -8.9706 C   0  0  0  0  0  0  0  0  0  0  0  0
   29.7293  -21.5885   -8.0021 N   0  0  0  0  0  0  0  0  0  0  0  0
   29.3441  -20.8239   -6.9797 C   0  0  0  0  0  0  0  0  0  0  0  0
   29.9516  -20.5486   -5.7567 C   0  0  0  0  0  0  0  0  0  0  0  0
   29.3646  -19.7248   -4.8157 C   0  0  0  0  0  0  0  0  0  0  0  0
   28.1338  -19.1801   -5.1460 C   0  0  0  0  0  0  0  0  0  0  0  0
   27.5289  -19.4473   -6.3498 C   0  0  0  0  0  0  0  0  0  0  0  0
   28.1268  -20.2709   -7.2808 C   0  0  0  0  0  0  0  0  0  0  0  0
   25.0974  -20.3589  -11.1687 C   0  0  0  0  0  0  0  0  0  0  0  0
   25.0527  -19.1464  -11.4953 O   0  0  0  0  0  0  0  0  0  0  0  0
   18.7158  -23.7345  -13.4016 N   0  0  0  0  0  0  0  0  0  0  0  0
   18.4273  -22.9719  -14.5700 C   0  0  0  0  0  0  0  0  0  0  0  0
   17.1844  -22.8301  -15.0090 N   0  0  0  0  0  0  0  0  0  0  0  0
   19.4642  -22.3283  -15.3232 N   0  0  0  0  0  0  0  0  0  0  0  0
   20.8347  -22.3525  -14.9446 C   0  0  0  0  0  0  0  0  0  0  0  0
   21.1560  -21.5641  -13.7021 C   0  0  0  0  0  0  0  0  0  0  0  0
   22.4214  -21.9116  -12.9933 C   0  0  0  0  0  0  0  0  0  0  0  0
   22.6907  -20.9667  -11.8338 C   0  0  2  0  0  0  0  0  0  0  0  0
   23.9524  -21.1495  -11.2586 N   0  0  0  0  0  0  0  0  0  0  0  0
   21.5000  -20.6427  -11.0361 C   0  0  0  0  0  0  0  0  0  0  0  0
   20.4186  -19.9592  -11.4529 O   0  0  0  0  0  0  0  0  0  0  0  0
   21.5262  -21.0795   -9.8260 O   0  0  0  0  0  0  0  0  0  0  0  0
  2  1  1  6
  3  2  1  0
  4  5  1  6
  4  2  1  0
  6  4  1  0
  7  6  2  0
  8  6  1  0
  9 20  1  0
  9  8  1  0
  9 10  1  1
 11 10  1  0
 12 11  2  0
 13 14  1  0
 13 12  1  0
 14 19  2  0
 15 16  2  0
 15 14  1  0
 16 17  1  0
 17 18  2  0
 19 18  1  0
 19 11  1  0
 20 21  2  0
 23 22  1  0
 23 25  1  0
 24 23  2  0
 26 25  1  0
 26 27  1  0
 27 28  1  0
 29 28  1  1
 30 20  1  0
 30 29  1  0
 31 29  1  0
 31 32  1  0
 33 31  2  0
M  END
$$$$
