FIP.pdb
     RDKit          3D

 27 28  0  0  1  0  0  0  0  0999 V2000
   19.6565  -19.9445  -13.8454 N   0  0  0  0  0  0  0  0  0  0  0  0
   20.7822  -20.1071  -14.7240 C   0  0  1  0  0  0  0  0  0  0  0  0
   20.6259  -19.3805  -16.0377 C   0  0  0  0  0  0  0  0  0  0  0  0
   19.7824  -20.0804  -17.0099 C   0  0  0  0  0  0  0  0  0  0  0  0
   18.4389  -19.8033  -17.1447 C   0  0  0  0  0  0  0  0  0  0  0  0
   17.6300  -20.4461  -18.0482 C   0  0  0  0  0  0  0  0  0  0  0  0
   18.2126  -21.4135  -18.8503 C   0  0  0  0  0  0  0  0  0  0  0  0
   19.5449  -21.7050  -18.7336 C   0  0  0  0  0  0  0  0  0  0  0  0
   20.3389  -21.0506  -17.8229 C   0  0  0  0  0  0  0  0  0  0  0  0
   22.0786  -19.8460  -14.0648 C   0  0  0  0  0  0  0  0  0  0  0  0
   22.1951  -18.7652  -13.4321 O   0  0  0  0  0  0  0  0  0  0  0  0
   25.7550  -20.6407  -10.4120 C   0  0  0  0  0  0  0  0  0  0  0  0
   26.0363  -21.3438  -11.7189 C   0  0  0  0  0  0  0  0  0  0  0  0
   24.7039  -21.5404  -12.4235 C   0  0  2  0  0  0  0  0  0  0  0  0
   24.7336  -22.9212  -13.0059 C   0  0  0  0  0  0  0  0  0  0  0  0
   24.4717  -20.4501  -13.4505 C   0  0  2  0  0  0  0  0  0  0  0  0
   23.1771  -20.7225  -14.1019 N   0  0  0  0  0  0  0  0  0  0  0  0
   25.4929  -20.5576  -14.5105 C   0  0  0  0  0  0  0  0  0  0  0  0
   25.2565  -21.4636  -15.4029 O   0  0  0  0  0  0  0  0  0  0  0  0
   26.6608  -19.8088  -14.6677 N   0  0  0  0  0  0  0  0  0  0  0  0
   27.2684  -18.7855  -13.8132 C   0  0  0  0  0  0  0  0  0  0  0  0
   27.8570  -17.8019  -14.8112 C   0  0  0  0  0  0  0  0  0  0  0  0
   28.4230  -18.7127  -15.8510 C   0  0  0  0  0  0  0  0  0  0  0  0
   27.5591  -19.9238  -15.8198 C   0  0  1  0  0  0  0  0  0  0  0  0
   28.4280  -21.1205  -15.6869 C   0  0  0  0  0  0  0  0  0  0  0  0
   29.1498  -21.5658  -16.6133 O   0  0  0  0  0  0  0  0  0  0  0  0
   28.4363  -21.7772  -14.4671 O   0  0  0  0  0  0  0  0  0  0  0  0
  2  1  1  1
  3  2  1  0
  4  5  2  0
  4  3  1  0
  6  5  1  0
  7  6  2  0
  8  7  1  0
  8  9  2  0
  9  4  1  0
 10  2  1  0
 11 10  2  0
 13 12  1  0
 14 13  1  0
 14 15  1  6
 16 14  1  0
 16 17  1  6
 17 10  1  0
 18 16  1  0
 19 18  2  0
 20 18  1  0
 21 20  1  0
 22 23  1  0
 22 21  1  0
 23 24  1  0
 24 20  1  0
 24 25  1  1
 25 27  1  0
 26 25  2  0
M  END
$$$$
