FIP.pdb
     RDKit          3D

 27 28  0  0  1  0  0  0  0  0999 V2000
   20.2820  -20.2570  -13.0333 N   0  0  0  0  0  0  0  0  0  0  0  0
   21.3664  -21.0521  -13.5407 C   0  0  1  0  0  0  0  0  0  0  0  0
   21.1613  -21.5036  -14.9663 C   0  0  0  0  0  0  0  0  0  0  0  0
   20.3008  -22.6817  -15.1011 C   0  0  0  0  0  0  0  0  0  0  0  0
   19.6871  -23.2663  -14.0142 C   0  0  0  0  0  0  0  0  0  0  0  0
   18.8773  -24.3697  -14.1169 C   0  0  0  0  0  0  0  0  0  0  0  0
   18.6825  -24.9025  -15.3805 C   0  0  0  0  0  0  0  0  0  0  0  0
   19.2820  -24.3382  -16.4741 C   0  0  0  0  0  0  0  0  0  0  0  0
   20.0897  -23.2334  -16.3513 C   0  0  0  0  0  0  0  0  0  0  0  0
   22.6932  -20.4450  -13.3073 C   0  0  0  0  0  0  0  0  0  0  0  0
   22.7570  -19.1890  -13.2938 O   0  0  0  0  0  0  0  0  0  0  0  0
   25.5060  -21.4159   -9.1570 C   0  0  0  0  0  0  0  0  0  0  0  0
   24.9341  -20.7198  -10.3693 C   0  0  0  0  0  0  0  0  0  0  0  0
   25.7416  -21.1729  -11.5747 C   0  0  2  0  0  0  0  0  0  0  0  0
   27.1659  -20.7999  -11.2936 C   0  0  0  0  0  0  0  0  0  0  0  0
   25.1923  -20.5655  -12.8502 C   0  0  2  0  0  0  0  0  0  0  0  0
   23.8749  -21.1784  -13.1020 N   0  0  0  0  0  0  0  0  0  0  0  0
   26.0503  -20.9614  -13.9838 C   0  0  0  0  0  0  0  0  0  0  0  0
   25.9013  -22.1847  -14.3767 O   0  0  0  0  0  0  0  0  0  0  0  0
   26.9834  -20.1870  -14.6760 N   0  0  0  0  0  0  0  0  0  0  0  0
   27.6015  -18.9013  -14.3424 C   0  0  0  0  0  0  0  0  0  0  0  0
   27.7230  -18.2121  -15.6916 C   0  0  0  0  0  0  0  0  0  0  0  0
   28.1495  -19.3353  -16.5791 C   0  0  0  0  0  0  0  0  0  0  0  0
   27.5540  -20.5573  -15.9740 C   0  0  1  0  0  0  0  0  0  0  0  0
   28.6259  -21.5704  -15.8034 C   0  0  0  0  0  0  0  0  0  0  0  0
   29.0953  -21.9096  -14.6888 O   0  0  0  0  0  0  0  0  0  0  0  0
   29.1314  -22.1708  -16.9450 O   0  0  0  0  0  0  0  0  0  0  0  0
  2  1  1  6
  3  2  1  0
  4  5  2  0
  4  3  1  0
  6  5  1  0
  7  6  2  0
  8  7  1  0
  8  9  2  0
  9  4  1  0
 10  2  1  0
 11 10  2  0
 13 12  1  0
 14 13  1  0
 14 15  1  1
 16 14  1  0
 16 17  1  6
 17 10  1  0
 18 16  1  0
 19 18  2  0
 20 18  1  0
 21 20  1  0
 22 23  1  0
 22 21  1  0
 23 24  1  0
 24 20  1  0
 24 25  1  1
 25 27  1  0
 26 25  2  0
M  END
$$$$
