FIP.pdb
     RDKit          3D

 27 28  0  0  1  0  0  0  0  0999 V2000
   25.4114  -22.2562  -12.1644 N   0  0  0  0  0  0  0  0  0  0  0  0
   25.9191  -21.1325  -11.4261 C   0  0  1  0  0  0  0  0  0  0  0  0
   24.8715  -20.0858  -11.1339 C   0  0  0  0  0  0  0  0  0  0  0  0
   24.3389  -19.4251  -12.3282 C   0  0  0  0  0  0  0  0  0  0  0  0
   23.0317  -19.5902  -12.7328 C   0  0  0  0  0  0  0  0  0  0  0  0
   22.5116  -18.9814  -13.8476 C   0  0  0  0  0  0  0  0  0  0  0  0
   23.3579  -18.1686  -14.5837 C   0  0  0  0  0  0  0  0  0  0  0  0
   24.6598  -17.9903  -14.2004 C   0  0  0  0  0  0  0  0  0  0  0  0
   25.1625  -18.6084  -13.0810 C   0  0  0  0  0  0  0  0  0  0  0  0
   26.7004  -21.5230  -10.2343 C   0  0  0  0  0  0  0  0  0  0  0  0
   26.1737  -22.3500   -9.4465 O   0  0  0  0  0  0  0  0  0  0  0  0
   31.5930  -22.9973   -8.0216 C   0  0  0  0  0  0  0  0  0  0  0  0
   31.0972  -21.5781   -7.8748 C   0  0  0  0  0  0  0  0  0  0  0  0
   30.2270  -21.2750   -9.0836 C   0  0  2  0  0  0  0  0  0  0  0  0
   30.5986  -19.8953   -9.5363 C   0  0  0  0  0  0  0  0  0  0  0  0
   28.7583  -21.4302   -8.7425 C   0  0  2  0  0  0  0  0  0  0  0  0
   27.9822  -21.0314   -9.9312 N   0  0  0  0  0  0  0  0  0  0  0  0
   28.4032  -20.4681   -7.6813 C   0  0  0  0  0  0  0  0  0  0  0  0
   27.9565  -19.3309   -8.1060 O   0  0  0  0  0  0  0  0  0  0  0  0
   28.4840  -20.6355   -6.2974 N   0  0  0  0  0  0  0  0  0  0  0  0
   28.9685  -21.7595   -5.4923 C   0  0  0  0  0  0  0  0  0  0  0  0
   28.0319  -21.7607   -4.2953 C   0  0  0  0  0  0  0  0  0  0  0  0
   27.8906  -20.3018   -4.0076 C   0  0  0  0  0  0  0  0  0  0  0  0
   28.0558  -19.6275   -5.3237 C   0  0  1  0  0  0  0  0  0  0  0  0
   29.0843  -18.5658   -5.1847 C   0  0  0  0  0  0  0  0  0  0  0  0
   28.8743  -17.4582   -4.6309 O   0  0  0  0  0  0  0  0  0  0  0  0
   30.3454  -18.8205   -5.6985 O   0  0  0  0  0  0  0  0  0  0  0  0
  2  1  1  1
  3  2  1  0
  4  5  2  0
  4  3  1  0
  6  5  1  0
  7  6  2  0
  8  7  1  0
  8  9  2  0
  9  4  1  0
 10  2  1  0
 11 10  2  0
 13 12  1  0
 14 13  1  0
 14 15  1  1
 16 14  1  0
 16 17  1  6
 17 10  1  0
 18 16  1  0
 19 18  2  0
 20 18  1  0
 21 20  1  0
 22 23  1  0
 22 21  1  0
 23 24  1  0
 24 20  1  0
 24 25  1  1
 25 27  1  0
 26 25  2  0
M  END
$$$$
