FIP.pdb
     RDKit          3D

 27 28  0  0  1  0  0  0  0  0999 V2000
   20.4626  -18.1009  -15.7397 N   0  0  0  0  0  0  0  0  0  0  0  0
   21.8085  -18.2525  -16.2207 C   0  0  1  0  0  0  0  0  0  0  0  0
   22.2636  -17.1095  -17.0953 C   0  0  0  0  0  0  0  0  0  0  0  0
   21.6224  -17.0740  -18.4122 C   0  0  0  0  0  0  0  0  0  0  0  0
   22.0736  -17.8401  -19.4654 C   0  0  0  0  0  0  0  0  0  0  0  0
   21.4887  -17.8228  -20.7069 C   0  0  0  0  0  0  0  0  0  0  0  0
   20.3967  -16.9898  -20.8859 C   0  0  0  0  0  0  0  0  0  0  0  0
   19.9315  -16.2201  -19.8539 C   0  0  0  0  0  0  0  0  0  0  0  0
   20.5304  -16.2509  -18.6177 C   0  0  0  0  0  0  0  0  0  0  0  0
   22.7741  -18.5900  -15.1544 C   0  0  0  0  0  0  0  0  0  0  0  0
   22.9500  -17.7375  -14.2465 O   0  0  0  0  0  0  0  0  0  0  0  0
   23.2367  -20.2765  -11.2131 C   0  0  0  0  0  0  0  0  0  0  0  0
   22.7613  -20.9647  -12.4708 C   0  0  0  0  0  0  0  0  0  0  0  0
   23.9935  -21.3142  -13.2893 C   0  0  2  0  0  0  0  0  0  0  0  0
   24.9945  -21.8778  -12.3264 C   0  0  0  0  0  0  0  0  0  0  0  0
   24.4949  -20.1038  -14.0515 C   0  0  2  0  0  0  0  0  0  0  0  0
   23.4997  -19.7926  -15.0942 N   0  0  0  0  0  0  0  0  0  0  0  0
   25.7362  -20.4609  -14.7653 C   0  0  0  0  0  0  0  0  0  0  0  0
   25.6098  -21.4119  -15.6328 O   0  0  0  0  0  0  0  0  0  0  0  0
   27.0081  -19.9023  -14.6245 N   0  0  0  0  0  0  0  0  0  0  0  0
   27.5355  -18.9485  -13.6454 C   0  0  0  0  0  0  0  0  0  0  0  0
   28.4985  -18.1045  -14.4641 C   0  0  0  0  0  0  0  0  0  0  0  0
   29.1567  -19.1303  -15.3276 C   0  0  0  0  0  0  0  0  0  0  0  0
   28.1352  -20.1961  -15.5137 C   0  0  1  0  0  0  0  0  0  0  0  0
   28.7477  -21.5033  -15.1659 C   0  0  0  0  0  0  0  0  0  0  0  0
   29.5949  -22.0906  -15.8835 O   0  0  0  0  0  0  0  0  0  0  0  0
   28.3559  -22.1020  -13.9796 O   0  0  0  0  0  0  0  0  0  0  0  0
  2  1  1  1
  3  2  1  0
  4  5  2  0
  4  3  1  0
  6  5  1  0
  7  6  2  0
  8  7  1  0
  8  9  2  0
  9  4  1  0
 10  2  1  0
 11 10  2  0
 13 12  1  0
 14 13  1  0
 14 15  1  1
 16 14  1  0
 16 17  1  6
 17 10  1  0
 18 16  1  0
 19 18  2  0
 20 18  1  0
 21 20  1  0
 22 23  1  0
 22 21  1  0
 23 24  1  0
 24 20  1  0
 24 25  1  1
 25 27  1  0
 26 25  2  0
M  END
$$$$
