FIP.pdb
     RDKit          3D

 27 28  0  0  1  0  0  0  0  0999 V2000
   17.3123  -15.1848  -16.3501 N   0  0  0  0  0  0  0  0  0  0  0  0
   17.8886  -13.8742  -16.2238 C   0  0  1  0  0  0  0  0  0  0  0  0
   19.1834  -13.7142  -16.9830 C   0  0  0  0  0  0  0  0  0  0  0  0
   20.1707  -14.7606  -16.7058 C   0  0  0  0  0  0  0  0  0  0  0  0
   20.3475  -15.8391  -17.5456 C   0  0  0  0  0  0  0  0  0  0  0  0
   21.2659  -16.8306  -17.3058 C   0  0  0  0  0  0  0  0  0  0  0  0
   22.0389  -16.7208  -16.1617 C   0  0  0  0  0  0  0  0  0  0  0  0
   21.8803  -15.6582  -15.3135 C   0  0  0  0  0  0  0  0  0  0  0  0
   20.9553  -14.6752  -15.5704 C   0  0  0  0  0  0  0  0  0  0  0  0
   16.9235  -12.7857  -16.4827 C   0  0  0  0  0  0  0  0  0  0  0  0
   16.1972  -12.8913  -17.5041 O   0  0  0  0  0  0  0  0  0  0  0  0
   12.7479   -9.6484  -13.8398 C   0  0  0  0  0  0  0  0  0  0  0  0
   13.7544   -9.5006  -14.9562 C   0  0  0  0  0  0  0  0  0  0  0  0
   14.7380  -10.6531  -14.8349 C   0  0  2  0  0  0  0  0  0  0  0  0
   15.2970  -10.5870  -13.4457 C   0  0  0  0  0  0  0  0  0  0  0  0
   15.7925  -10.5778  -15.9210 C   0  0  2  0  0  0  0  0  0  0  0  0
   16.7700  -11.6520  -15.6656 N   0  0  0  0  0  0  0  0  0  0  0  0
   16.5353   -9.3096  -15.7880 C   0  0  0  0  0  0  0  0  0  0  0  0
   17.4640   -9.3157  -14.8877 O   0  0  0  0  0  0  0  0  0  0  0  0
   16.3641   -8.1255  -16.5078 N   0  0  0  0  0  0  0  0  0  0  0  0
   15.3929   -7.7621  -17.5428 C   0  0  0  0  0  0  0  0  0  0  0  0
   16.1991   -6.8831  -18.4847 C   0  0  0  0  0  0  0  0  0  0  0  0
   17.0104   -6.0666  -17.5327 C   0  0  0  0  0  0  0  0  0  0  0  0
   17.2041   -6.9363  -16.3410 C   0  0  1  0  0  0  0  0  0  0  0  0
   16.7993   -6.1768  -15.1311 C   0  0  0  0  0  0  0  0  0  0  0  0
   15.7294   -6.3791  -14.5049 O   0  0  0  0  0  0  0  0  0  0  0  0
   17.6576   -5.1900  -14.6739 O   0  0  0  0  0  0  0  0  0  0  0  0
  2  1  1  6
  3  2  1  0
  4  5  2  0
  4  3  1  0
  6  5  1  0
  7  6  2  0
  8  7  1  0
  8  9  2  0
  9  4  1  0
 10  2  1  0
 11 10  2  0
 13 12  1  0
 14 13  1  0
 14 15  1  1
 16 14  1  0
 16 17  1  1
 17 10  1  0
 18 16  1  0
 19 18  2  0
 20 18  1  0
 21 20  1  0
 22 23  1  0
 22 21  1  0
 23 24  1  0
 24 20  1  0
 24 25  1  1
 25 27  1  0
 26 25  2  0
M  END
$$$$
