FIP.pdb
     RDKit          3D

 27 28  0  0  1  0  0  0  0  0999 V2000
   21.5955  -20.8511  -17.4447 N   0  0  0  0  0  0  0  0  0  0  0  0
   21.7927  -20.1622  -16.1988 C   0  0  1  0  0  0  0  0  0  0  0  0
   20.7328  -20.4717  -15.1696 C   0  0  0  0  0  0  0  0  0  0  0  0
   19.3772  -20.0940  -15.5771 C   0  0  0  0  0  0  0  0  0  0  0  0
   18.4675  -21.0215  -16.0375 C   0  0  0  0  0  0  0  0  0  0  0  0
   17.1929  -20.6904  -16.4245 C   0  0  0  0  0  0  0  0  0  0  0  0
   16.8268  -19.3573  -16.3397 C   0  0  0  0  0  0  0  0  0  0  0  0
   17.7139  -18.4190  -15.8853 C   0  0  0  0  0  0  0  0  0  0  0  0
   18.9860  -18.7698  -15.5024 C   0  0  0  0  0  0  0  0  0  0  0  0
   23.1683  -20.2887  -15.6742 C   0  0  0  0  0  0  0  0  0  0  0  0
   23.7136  -21.4191  -15.7557 O   0  0  0  0  0  0  0  0  0  0  0  0
   26.7075  -16.2670  -16.1859 C   0  0  0  0  0  0  0  0  0  0  0  0
   26.1432  -17.6674  -16.1423 C   0  0  0  0  0  0  0  0  0  0  0  0
   25.9439  -18.0301  -14.6797 C   0  0  2  0  0  0  0  0  0  0  0  0
   27.3001  -17.9800  -14.0434 C   0  0  0  0  0  0  0  0  0  0  0  0
   25.2571  -19.3747  -14.5469 C   0  0  2  0  0  0  0  0  0  0  0  0
   23.8958  -19.2337  -15.0960 N   0  0  0  0  0  0  0  0  0  0  0  0
   25.0893  -19.6937  -13.1159 C   0  0  0  0  0  0  0  0  0  0  0  0
   24.1742  -19.0090  -12.5102 O   0  0  0  0  0  0  0  0  0  0  0  0
   25.7827  -20.6333  -12.3504 N   0  0  0  0  0  0  0  0  0  0  0  0
   26.8773  -21.5408  -12.7034 C   0  0  0  0  0  0  0  0  0  0  0  0
   26.5706  -22.7893  -11.8929 C   0  0  0  0  0  0  0  0  0  0  0  0
   26.1190  -22.2136  -10.5907 C   0  0  0  0  0  0  0  0  0  0  0  0
   25.5081  -20.9015  -10.9361 C   0  0  1  0  0  0  0  0  0  0  0  0
   26.1195  -19.8553  -10.0781 C   0  0  0  0  0  0  0  0  0  0  0  0
   27.0194  -19.0705  -10.4676 O   0  0  0  0  0  0  0  0  0  0  0  0
   25.6646  -19.7460   -8.7740 O   0  0  0  0  0  0  0  0  0  0  0  0
  2  1  1  6
  3  2  1  0
  4  5  2  0
  4  3  1  0
  6  5  1  0
  7  6  2  0
  8  7  1  0
  8  9  2  0
  9  4  1  0
 10  2  1  0
 11 10  2  0
 13 12  1  0
 14 13  1  0
 14 15  1  1
 16 14  1  0
 16 17  1  6
 17 10  1  0
 18 16  1  0
 19 18  2  0
 20 18  1  0
 21 20  1  0
 22 23  1  0
 22 21  1  0
 23 24  1  0
 24 20  1  0
 24 25  1  1
 25 27  1  0
 26 25  2  0
M  END
$$$$
