FIP.pdb
     RDKit          3D

 27 28  0  0  1  0  0  0  0  0999 V2000
   23.0495  -17.9264  -15.8264 N   0  0  0  0  0  0  0  0  0  0  0  0
   22.2776  -16.7773  -16.2128 C   0  0  1  0  0  0  0  0  0  0  0  0
   20.8775  -16.7797  -15.6488 C   0  0  0  0  0  0  0  0  0  0  0  0
   20.0656  -17.9233  -16.0726 C   0  0  0  0  0  0  0  0  0  0  0  0
   19.7875  -18.9753  -15.2266 C   0  0  0  0  0  0  0  0  0  0  0  0
   19.0295  -20.0563  -15.6020 C   0  0  0  0  0  0  0  0  0  0  0  0
   18.5323  -20.0684  -16.8948 C   0  0  0  0  0  0  0  0  0  0  0  0
   18.7959  -19.0343  -17.7520 C   0  0  0  0  0  0  0  0  0  0  0  0
   19.5570  -17.9603  -17.3579 C   0  0  0  0  0  0  0  0  0  0  0  0
   22.9885  -15.4994  -16.0008 C   0  0  0  0  0  0  0  0  0  0  0  0
   23.8159  -15.4512  -15.0548 O   0  0  0  0  0  0  0  0  0  0  0  0
   25.0775  -14.0476  -19.8668 C   0  0  0  0  0  0  0  0  0  0  0  0
   25.2473  -13.7510  -18.3956 C   0  0  0  0  0  0  0  0  0  0  0  0
   24.1553  -12.7695  -18.0023 C   0  0  2  0  0  0  0  0  0  0  0  0
   24.7683  -11.4037  -18.0758 C   0  0  0  0  0  0  0  0  0  0  0  0
   23.5893  -13.1115  -16.6385 C   0  0  2  0  0  0  0  0  0  0  0  0
   22.7979  -14.3473  -16.7837 N   0  0  0  0  0  0  0  0  0  0  0  0
   22.6355  -12.0611  -16.2326 C   0  0  0  0  0  0  0  0  0  0  0  0
   21.5367  -12.0320  -16.9144 O   0  0  0  0  0  0  0  0  0  0  0  0
   22.7703  -11.1144  -15.2151 N   0  0  0  0  0  0  0  0  0  0  0  0
   23.8636  -10.8671  -14.2717 C   0  0  0  0  0  0  0  0  0  0  0  0
   23.1401  -10.4636  -12.9974 C   0  0  0  0  0  0  0  0  0  0  0  0
   22.0451   -9.5935  -13.5217 C   0  0  0  0  0  0  0  0  0  0  0  0
   21.7486  -10.1181  -14.8822 C   0  0  1  0  0  0  0  0  0  0  0  0
   21.7892   -8.9873  -15.8437 C   0  0  0  0  0  0  0  0  0  0  0  0
   22.6789   -8.8464  -16.7189 O   0  0  0  0  0  0  0  0  0  0  0  0
   20.7835   -8.0379  -15.7630 O   0  0  0  0  0  0  0  0  0  0  0  0
  2  1  1  1
  3  2  1  0
  4  5  2  0
  4  3  1  0
  6  5  1  0
  7  6  2  0
  8  7  1  0
  8  9  2  0
  9  4  1  0
 10  2  1  0
 11 10  2  0
 13 12  1  0
 14 13  1  0
 14 15  1  1
 16 14  1  0
 16 17  1  6
 17 10  1  0
 18 16  1  0
 19 18  2  0
 20 18  1  0
 21 20  1  0
 22 23  1  0
 22 21  1  0
 23 24  1  0
 24 20  1  0
 24 25  1  6
 25 27  1  0
 26 25  2  0
M  END
$$$$
