FIP.pdb
     RDKit          3D

 27 28  0  0  1  0  0  0  0  0999 V2000
   22.2282  -17.7368  -19.4077 N   0  0  0  0  0  0  0  0  0  0  0  0
   23.0125  -18.8222  -18.8857 C   0  0  1  0  0  0  0  0  0  0  0  0
   24.1879  -19.1858  -19.7601 C   0  0  0  0  0  0  0  0  0  0  0  0
   23.8129  -19.7240  -21.0702 C   0  0  0  0  0  0  0  0  0  0  0  0
   23.2801  -20.9867  -21.2160 C   0  0  0  0  0  0  0  0  0  0  0  0
   22.9218  -21.5111  -22.4328 C   0  0  0  0  0  0  0  0  0  0  0  0
   23.1136  -20.7165  -23.5510 C   0  0  0  0  0  0  0  0  0  0  0  0
   23.6412  -19.4593  -23.4297 C   0  0  0  0  0  0  0  0  0  0  0  0
   23.9940  -18.9515  -22.2027 C   0  0  0  0  0  0  0  0  0  0  0  0
   23.3763  -18.6476  -17.4642 C   0  0  0  0  0  0  0  0  0  0  0  0
   23.8280  -17.5255  -17.1195 O   0  0  0  0  0  0  0  0  0  0  0  0
   19.9623  -19.6642  -13.8218 C   0  0  0  0  0  0  0  0  0  0  0  0
   21.1392  -19.0451  -14.5382 C   0  0  0  0  0  0  0  0  0  0  0  0
   22.3491  -19.9236  -14.2647 C   0  0  2  0  0  0  0  0  0  0  0  0
   22.5580  -19.9048  -12.7805 C   0  0  0  0  0  0  0  0  0  0  0  0
   23.5508  -19.4468  -15.0559 C   0  0  2  0  0  0  0  0  0  0  0  0
   23.2495  -19.6485  -16.4852 N   0  0  0  0  0  0  0  0  0  0  0  0
   24.7048  -20.3161  -14.7551 C   0  0  0  0  0  0  0  0  0  0  0  0
   24.5170  -21.5723  -14.9995 O   0  0  0  0  0  0  0  0  0  0  0  0
   25.9558  -19.9527  -14.2526 N   0  0  0  0  0  0  0  0  0  0  0  0
   26.4977  -18.6439  -13.8789 C   0  0  0  0  0  0  0  0  0  0  0  0
   27.9563  -18.7383  -14.2956 C   0  0  0  0  0  0  0  0  0  0  0  0
   28.3094  -20.1301  -13.8844 C   0  0  0  0  0  0  0  0  0  0  0  0
   27.0418  -20.9017  -13.9930 C   0  0  1  0  0  0  0  0  0  0  0  0
   26.8139  -21.6184  -12.7128 C   0  0  0  0  0  0  0  0  0  0  0  0
   25.8867  -21.3407  -11.9123 O   0  0  0  0  0  0  0  0  0  0  0  0
   27.6790  -22.6516  -12.3911 O   0  0  0  0  0  0  0  0  0  0  0  0
  2  1  1  6
  3  2  1  0
  4  5  2  0
  4  3  1  0
  6  5  1  0
  7  6  2  0
  8  7  1  0
  8  9  2  0
  9  4  1  0
 10  2  1  0
 11 10  2  0
 13 12  1  0
 14 13  1  0
 14 15  1  1
 16 14  1  0
 16 17  1  6
 17 10  1  0
 18 16  1  0
 19 18  2  0
 20 18  1  0
 21 20  1  0
 22 23  1  0
 22 21  1  0
 23 24  1  0
 24 20  1  0
 24 25  1  1
 25 27  1  0
 26 25  2  0
M  END
$$$$
