FIP.pdb
     RDKit          3D

 27 28  0  0  1  0  0  0  0  0999 V2000
   21.4892  -19.6512  -17.6060 N   0  0  0  0  0  0  0  0  0  0  0  0
   21.9949  -18.9318  -16.4692 C   0  0  1  0  0  0  0  0  0  0  0  0
   20.9406  -18.6373  -15.4300 C   0  0  0  0  0  0  0  0  0  0  0  0
   19.8631  -17.7649  -15.9039 C   0  0  0  0  0  0  0  0  0  0  0  0
   18.6308  -18.2602  -16.2723 C   0  0  0  0  0  0  0  0  0  0  0  0
   17.6073  -17.4620  -16.7188 C   0  0  0  0  0  0  0  0  0  0  0  0
   17.8473  -16.0999  -16.7943 C   0  0  0  0  0  0  0  0  0  0  0  0
   19.0637  -15.5861  -16.4335 C   0  0  0  0  0  0  0  0  0  0  0  0
   20.0763  -16.4013  -15.9887 C   0  0  0  0  0  0  0  0  0  0  0  0
   23.2220  -19.5277  -15.9012 C   0  0  0  0  0  0  0  0  0  0  0  0
   23.2577  -20.7804  -15.7955 O   0  0  0  0  0  0  0  0  0  0  0  0
   28.1454  -17.2423  -16.5801 C   0  0  0  0  0  0  0  0  0  0  0  0
   27.1213  -18.3468  -16.4673 C   0  0  0  0  0  0  0  0  0  0  0  0
   26.6752  -18.4045  -15.0154 C   0  0  2  0  0  0  0  0  0  0  0  0
   27.8924  -18.7530  -14.2131 C   0  0  0  0  0  0  0  0  0  0  0  0
   25.5299  -19.3821  -14.8422 C   0  0  2  0  0  0  0  0  0  0  0  0
   24.3390  -18.7872  -15.4765 N   0  0  0  0  0  0  0  0  0  0  0  0
   25.2102  -19.5041  -13.4067 C   0  0  0  0  0  0  0  0  0  0  0  0
   24.5650  -18.5009  -12.9065 O   0  0  0  0  0  0  0  0  0  0  0  0
   25.5093  -20.5561  -12.5387 N   0  0  0  0  0  0  0  0  0  0  0  0
   26.2175  -21.8182  -12.7669 C   0  0  0  0  0  0  0  0  0  0  0  0
   25.4713  -22.8021  -11.8807 C   0  0  0  0  0  0  0  0  0  0  0  0
   25.2274  -21.9915  -10.6500 C   0  0  0  0  0  0  0  0  0  0  0  0
   25.1291  -20.5844  -11.1237 C   0  0  1  0  0  0  0  0  0  0  0  0
   26.0546  -19.7488  -10.3176 C   0  0  0  0  0  0  0  0  0  0  0  0
   27.1804  -19.3652  -10.7214 O   0  0  0  0  0  0  0  0  0  0  0  0
   25.6442  -19.3758   -9.0481 O   0  0  0  0  0  0  0  0  0  0  0  0
  2  1  1  6
  3  2  1  0
  4  5  2  0
  4  3  1  0
  6  5  1  0
  7  6  2  0
  8  7  1  0
  8  9  2  0
  9  4  1  0
 10  2  1  0
 11 10  2  0
 13 12  1  0
 14 13  1  0
 14 15  1  1
 16 14  1  0
 16 17  1  6
 17 10  1  0
 18 16  1  0
 19 18  2  0
 20 18  1  0
 21 20  1  0
 22 23  1  0
 22 21  1  0
 23 24  1  0
 24 20  1  0
 24 25  1  1
 25 27  1  0
 26 25  2  0
M  END
$$$$
