FIP.pdb
     RDKit          3D

 27 28  0  0  1  0  0  0  0  0999 V2000
   23.6133  -21.4592  -14.2544 N   0  0  0  0  0  0  0  0  0  0  0  0
   24.1376  -20.4330  -13.3955 C   0  0  1  0  0  0  0  0  0  0  0  0
   23.1220  -19.3749  -13.0384 C   0  0  0  0  0  0  0  0  0  0  0  0
   22.6000  -18.6359  -14.1908 C   0  0  0  0  0  0  0  0  0  0  0  0
   23.3291  -17.6474  -14.8159 C   0  0  0  0  0  0  0  0  0  0  0  0
   22.8604  -16.9425  -15.8964 C   0  0  0  0  0  0  0  0  0  0  0  0
   21.5942  -17.2565  -16.3620 C   0  0  0  0  0  0  0  0  0  0  0  0
   20.8523  -18.2347  -15.7565 C   0  0  0  0  0  0  0  0  0  0  0  0
   21.3388  -18.9297  -14.6757 C   0  0  0  0  0  0  0  0  0  0  0  0
   24.8590  -20.9674  -12.2219 C   0  0  0  0  0  0  0  0  0  0  0  0
   24.3112  -21.9053  -11.5878 O   0  0  0  0  0  0  0  0  0  0  0  0
   30.1225  -21.7500  -12.5713 C   0  0  0  0  0  0  0  0  0  0  0  0
   28.6654  -21.9478  -12.2260 C   0  0  0  0  0  0  0  0  0  0  0  0
   28.3471  -21.0265  -11.0596 C   0  0  2  0  0  0  0  0  0  0  0  0
   29.2773  -21.4134   -9.9498 C   0  0  0  0  0  0  0  0  0  0  0  0
   26.8810  -21.1171  -10.6862 C   0  0  2  0  0  0  0  0  0  0  0  0
   26.1062  -20.4959  -11.7764 N   0  0  0  0  0  0  0  0  0  0  0  0
   26.6344  -20.2915   -9.4881 C   0  0  0  0  0  0  0  0  0  0  0  0
   26.6019  -19.0166   -9.7040 O   0  0  0  0  0  0  0  0  0  0  0  0
   26.4294  -20.7126   -8.1727 N   0  0  0  0  0  0  0  0  0  0  0  0
   26.3552  -22.0569   -7.5948 C   0  0  0  0  0  0  0  0  0  0  0  0
   25.2990  -21.9130   -6.5114 C   0  0  0  0  0  0  0  0  0  0  0  0
   25.6327  -20.5807   -5.9245 C   0  0  0  0  0  0  0  0  0  0  0  0
   26.2311  -19.8017   -7.0421 C   0  0  1  0  0  0  0  0  0  0  0  0
   27.5297  -19.2439   -6.5870 C   0  0  0  0  0  0  0  0  0  0  0  0
   28.6465  -19.6759   -6.9658 O   0  0  0  0  0  0  0  0  0  0  0  0
   27.4975  -18.1861   -5.6929 O   0  0  0  0  0  0  0  0  0  0  0  0
  2  1  1  1
  3  2  1  0
  4  5  2  0
  4  3  1  0
  6  5  1  0
  7  6  2  0
  8  7  1  0
  8  9  2  0
  9  4  1  0
 10  2  1  0
 11 10  2  0
 13 12  1  0
 14 13  1  0
 14 15  1  1
 16 14  1  0
 16 17  1  6
 17 10  1  0
 18 16  1  0
 19 18  2  0
 20 18  1  0
 21 20  1  0
 22 23  1  0
 22 21  1  0
 23 24  1  0
 24 20  1  0
 24 25  1  1
 25 27  1  0
 26 25  2  0
M  END
$$$$
