EWE.pdb
     RDKit          3D

 33 34  0  0  1  0  0  0  0  0999 V2000
   28.9473  -22.6778  -15.5123 N   0  0  0  0  0  0  0  0  0  0  0  0
   28.4647  -21.3987  -15.0435 C   0  0  1  0  0  0  0  0  0  0  0  0
   27.7056  -20.6991  -16.1116 C   0  0  0  0  0  0  0  0  0  0  0  0
   28.5159  -19.5743  -16.7080 C   0  0  0  0  0  0  0  0  0  0  0  0
   27.8805  -18.2556  -16.4553 C   0  0  0  0  0  0  0  0  0  0  0  0
   26.6512  -18.1361  -16.6050 O   0  0  0  0  0  0  0  0  0  0  0  0
   27.7118  -21.6044  -13.7944 C   0  0  0  0  0  0  0  0  0  0  0  0
   26.6463  -22.3138  -13.7732 O   0  0  0  0  0  0  0  0  0  0  0  0
   28.6772  -17.1980  -16.0610 O   0  0  0  0  0  0  0  0  0  0  0  0
   28.0870  -21.0500  -12.5429 N   0  0  0  0  0  0  0  0  0  0  0  0
   27.2598  -21.1934  -11.3386 C   0  0  1  0  0  0  0  0  0  0  0  0
   28.1778  -20.8597  -10.1996 C   0  0  0  0  0  0  0  0  0  0  0  0
   27.5303  -20.7036   -8.8916 C   0  0  0  0  0  0  0  0  0  0  0  0
   26.1764  -20.7111   -8.6258 C   0  0  0  0  0  0  0  0  0  0  0  0
   26.0314  -20.4843   -7.3252 N   0  0  0  0  0  0  0  0  0  0  0  0
   27.2491  -20.3292   -6.7396 C   0  0  0  0  0  0  0  0  0  0  0  0
   27.6110  -20.0921   -5.4289 C   0  0  0  0  0  0  0  0  0  0  0  0
   28.9291  -20.0037   -5.1290 C   0  0  0  0  0  0  0  0  0  0  0  0
   29.9488  -20.1344   -6.0598 C   0  0  0  0  0  0  0  0  0  0  0  0
   29.5423  -20.3674   -7.3584 C   0  0  0  0  0  0  0  0  0  0  0  0
   28.2224  -20.4649   -7.7070 C   0  0  0  0  0  0  0  0  0  0  0  0
   25.9985  -20.4775  -11.3763 C   0  0  0  0  0  0  0  0  0  0  0  0
   26.0198  -19.2098  -11.5507 O   0  0  0  0  0  0  0  0  0  0  0  0
   24.6907  -21.0270  -11.2352 N   0  0  0  0  0  0  0  0  0  0  0  0
   23.5014  -20.2100  -11.4424 C   0  0  1  0  0  0  0  0  0  0  0  0
   22.9971  -20.2197  -12.8425 C   0  0  0  0  0  0  0  0  0  0  0  0
   22.7615  -21.5979  -13.4035 C   0  0  0  0  0  0  0  0  0  0  0  0
   22.2449  -21.4518  -14.7816 C   0  0  0  0  0  0  0  0  0  0  0  0
   21.9920  -20.3620  -15.3443 O   0  0  0  0  0  0  0  0  0  0  0  0
   22.4400  -20.5328  -10.4480 C   0  0  0  0  0  0  0  0  0  0  0  0
   21.2918  -19.8198  -10.2624 O   0  0  0  0  0  0  0  0  0  0  0  0
   21.9958  -22.5925  -15.5856 O   0  0  0  0  0  0  0  0  0  0  0  0
   22.6229  -21.5461   -9.7291 O   0  0  0  0  0  0  0  0  0  0  0  0
  2  1  1  6
  2  3  1  0
  3  4  1  0
  5  4  1  0
  5  9  1  0
  6  5  2  0
  7  2  1  0
  7  8  2  0
 10  7  1  0
 11 12  1  1
 11 10  1  0
 12 13  1  0
 13 14  2  0
 13 21  1  0
 14 15  1  0
 15 16  1  0
 16 17  2  0
 17 18  1  0
 19 18  2  0
 20 19  1  0
 21 20  2  0
 21 16  1  0
 22 11  1  0
 23 22  2  0
 24 22  1  0
 25 26  1  6
 25 24  1  0
 26 27  1  0
 28 27  1  0
 28 32  1  0
 29 28  2  0
 30 31  1  0
 30 25  1  0
 33 30  2  0
M  END
$$$$
