EWE.pdb
     RDKit          3D

 33 34  0  0  1  0  0  0  0  0999 V2000
   21.2376  -13.6328  -16.6718 N   0  0  0  0  0  0  0  0  0  0  0  0
   21.3536  -12.4016  -17.4197 C   0  0  1  0  0  0  0  0  0  0  0  0
   20.0265  -11.7518  -17.5724 C   0  0  0  0  0  0  0  0  0  0  0  0
   19.1268  -12.5571  -18.4776 C   0  0  0  0  0  0  0  0  0  0  0  0
   17.8446  -11.8521  -18.7337 C   0  0  0  0  0  0  0  0  0  0  0  0
   16.9940  -12.3880  -19.4665 O   0  0  0  0  0  0  0  0  0  0  0  0
   22.3782  -11.5553  -16.7847 C   0  0  0  0  0  0  0  0  0  0  0  0
   22.5839  -11.6003  -15.5218 O   0  0  0  0  0  0  0  0  0  0  0  0
   17.6356  -10.6181  -18.1488 O   0  0  0  0  0  0  0  0  0  0  0  0
   23.2010  -10.6412  -17.4930 N   0  0  0  0  0  0  0  0  0  0  0  0
   24.1388   -9.7377  -16.8153 C   0  0  1  0  0  0  0  0  0  0  0  0
   25.4994  -10.2061  -17.2406 C   0  0  0  0  0  0  0  0  0  0  0  0
   25.9915  -11.4127  -16.5648 C   0  0  0  0  0  0  0  0  0  0  0  0
   25.2423  -12.3528  -15.8877 C   0  0  0  0  0  0  0  0  0  0  0  0
   26.0910  -13.2439  -15.3881 N   0  0  0  0  0  0  0  0  0  0  0  0
   27.3672  -12.9104  -15.7195 C   0  0  0  0  0  0  0  0  0  0  0  0
   28.5737  -13.5230  -15.4471 C   0  0  0  0  0  0  0  0  0  0  0  0
   29.7066  -12.9633  -15.9351 C   0  0  0  0  0  0  0  0  0  0  0  0
   29.7362  -11.8037  -16.6952 C   0  0  0  0  0  0  0  0  0  0  0  0
   28.5083  -11.2225  -16.9409 C   0  0  0  0  0  0  0  0  0  0  0  0
   27.3384  -11.7531  -16.4688 C   0  0  0  0  0  0  0  0  0  0  0  0
   23.8620   -8.3249  -16.9949 C   0  0  0  0  0  0  0  0  0  0  0  0
   23.6784   -7.8837  -18.1822 O   0  0  0  0  0  0  0  0  0  0  0  0
   23.7686   -7.3288  -15.9794 N   0  0  0  0  0  0  0  0  0  0  0  0
   23.4895   -5.9367  -16.3099 C   0  0  1  0  0  0  0  0  0  0  0  0
   22.9650   -5.1376  -15.1693 C   0  0  0  0  0  0  0  0  0  0  0  0
   21.6261   -5.6001  -14.6563 C   0  0  0  0  0  0  0  0  0  0  0  0
   21.2481   -4.7391  -13.5148 C   0  0  0  0  0  0  0  0  0  0  0  0
   20.4095   -3.8101  -13.5599 O   0  0  0  0  0  0  0  0  0  0  0  0
   24.6564   -5.2912  -16.9741 C   0  0  0  0  0  0  0  0  0  0  0  0
   24.6005   -4.5503  -18.1184 O   0  0  0  0  0  0  0  0  0  0  0  0
   21.8404   -4.9259  -12.2404 O   0  0  0  0  0  0  0  0  0  0  0  0
   25.7774   -5.4431  -16.4289 O   0  0  0  0  0  0  0  0  0  0  0  0
  2  1  1  1
  2  3  1  0
  3  4  1  0
  5  4  1  0
  5  9  1  0
  6  5  2  0
  7  2  1  0
  7  8  2  0
 10  7  1  0
 11 12  1  6
 11 10  1  0
 12 13  1  0
 13 14  2  0
 13 21  1  0
 14 15  1  0
 15 16  1  0
 16 17  2  0
 17 18  1  0
 19 18  2  0
 20 19  1  0
 21 20  2  0
 21 16  1  0
 22 11  1  0
 23 22  2  0
 24 22  1  0
 25 26  1  1
 25 24  1  0
 26 27  1  0
 28 27  1  0
 28 32  1  0
 29 28  2  0
 30 31  1  0
 30 25  1  0
 33 30  2  0
M  END
$$$$
