EWE.pdb
     RDKit          3D

 33 34  0  0  1  0  0  0  0  0999 V2000
   28.4386  -21.9705  -17.6072 N   0  0  0  0  0  0  0  0  0  0  0  0
   27.7011  -20.9416  -16.9099 C   0  0  1  0  0  0  0  0  0  0  0  0
   26.5709  -20.4504  -17.7394 C   0  0  0  0  0  0  0  0  0  0  0  0
   27.0696  -19.6893  -18.9433 C   0  0  0  0  0  0  0  0  0  0  0  0
   27.9004  -18.5250  -18.5423 C   0  0  0  0  0  0  0  0  0  0  0  0
   27.3893  -17.6240  -17.8532 O   0  0  0  0  0  0  0  0  0  0  0  0
   27.3089  -21.4536  -15.5857 C   0  0  0  0  0  0  0  0  0  0  0  0
   26.8963  -22.6564  -15.4370 O   0  0  0  0  0  0  0  0  0  0  0  0
   29.2198  -18.4777  -18.9492 O   0  0  0  0  0  0  0  0  0  0  0  0
   27.3496  -20.6830  -14.3945 N   0  0  0  0  0  0  0  0  0  0  0  0
   26.8183  -21.1774  -13.1185 C   0  0  1  0  0  0  0  0  0  0  0  0
   27.2844  -20.1825  -12.0965 C   0  0  0  0  0  0  0  0  0  0  0  0
   26.7339  -20.3582  -10.7472 C   0  0  0  0  0  0  0  0  0  0  0  0
   25.4045  -20.3276  -10.3792 C   0  0  0  0  0  0  0  0  0  0  0  0
   25.3599  -20.4764   -9.0602 N   0  0  0  0  0  0  0  0  0  0  0  0
   26.6190  -20.6017   -8.5614 C   0  0  0  0  0  0  0  0  0  0  0  0
   27.0793  -20.7866   -7.2734 C   0  0  0  0  0  0  0  0  0  0  0  0
   28.4144  -20.9012   -7.0751 C   0  0  0  0  0  0  0  0  0  0  0  0
   29.3590  -20.8423   -8.0889 C   0  0  0  0  0  0  0  0  0  0  0  0
   28.8555  -20.6532   -9.3604 C   0  0  0  0  0  0  0  0  0  0  0  0
   27.5148  -20.5330   -9.6076 C   0  0  0  0  0  0  0  0  0  0  0  0
   25.3981  -21.4741  -13.1232 C   0  0  0  0  0  0  0  0  0  0  0  0
   24.9130  -22.1582  -12.1565 O   0  0  0  0  0  0  0  0  0  0  0  0
   24.4402  -21.0886  -14.1061 N   0  0  0  0  0  0  0  0  0  0  0  0
   23.0191  -21.3562  -13.9219 C   0  0  1  0  0  0  0  0  0  0  0  0
   22.2957  -20.2937  -13.1719 C   0  0  0  0  0  0  0  0  0  0  0  0
   21.4173  -20.8110  -12.0626 C   0  0  0  0  0  0  0  0  0  0  0  0
   20.1263  -20.0922  -12.1245 C   0  0  0  0  0  0  0  0  0  0  0  0
   19.8039  -19.2653  -13.0080 O   0  0  0  0  0  0  0  0  0  0  0  0
   22.3586  -21.6984  -15.2127 C   0  0  0  0  0  0  0  0  0  0  0  0
   21.3560  -22.6108  -15.3665 O   0  0  0  0  0  0  0  0  0  0  0  0
   19.1291  -20.3098  -11.1406 O   0  0  0  0  0  0  0  0  0  0  0  0
   22.7603  -21.0914  -16.2360 O   0  0  0  0  0  0  0  0  0  0  0  0
  2  1  1  6
  2  3  1  0
  3  4  1  0
  5  4  1  0
  5  9  1  0
  6  5  2  0
  7  2  1  0
  7  8  2  0
 10  7  1  0
 11 12  1  1
 11 10  1  0
 12 13  1  0
 13 14  2  0
 13 21  1  0
 14 15  1  0
 15 16  1  0
 16 17  2  0
 17 18  1  0
 19 18  2  0
 20 19  1  0
 21 20  2  0
 21 16  1  0
 22 11  1  0
 23 22  2  0
 24 22  1  0
 25 26  1  6
 25 24  1  0
 26 27  1  0
 28 27  1  0
 28 32  1  0
 29 28  2  0
 30 31  1  0
 30 25  1  0
 33 30  2  0
M  END
$$$$
