EWE.pdb
     RDKit          3D

 33 34  0  0  1  0  0  0  0  0999 V2000
   13.1129  -16.8516    7.5746 N   0  0  0  0  0  0  0  0  0  0  0  0
   14.5271  -16.5552    7.5437 C   0  0  1  0  0  0  0  0  0  0  0  0
   15.1308  -16.7304    8.8897 C   0  0  0  0  0  0  0  0  0  0  0  0
   14.8919  -15.5179    9.7557 C   0  0  0  0  0  0  0  0  0  0  0  0
   15.9199  -14.4719    9.5193 C   0  0  0  0  0  0  0  0  0  0  0  0
   15.5617  -13.2872    9.3935 O   0  0  0  0  0  0  0  0  0  0  0  0
   15.1574  -17.3592    6.4827 C   0  0  0  0  0  0  0  0  0  0  0  0
   14.7692  -18.5547    6.2394 O   0  0  0  0  0  0  0  0  0  0  0  0
   17.2471  -14.8484    9.4453 O   0  0  0  0  0  0  0  0  0  0  0  0
   16.2195  -16.8961    5.6630 N   0  0  0  0  0  0  0  0  0  0  0  0
   16.8692  -17.7486    4.6600 C   0  0  1  0  0  0  0  0  0  0  0  0
   17.5103  -16.7912    3.6988 C   0  0  0  0  0  0  0  0  0  0  0  0
   18.2100  -17.4081    2.5654 C   0  0  0  0  0  0  0  0  0  0  0  0
   17.8700  -18.5742    1.9110 C   0  0  0  0  0  0  0  0  0  0  0  0
   18.7999  -18.7903    0.9876 N   0  0  0  0  0  0  0  0  0  0  0  0
   19.7327  -17.8012    1.0236 C   0  0  0  0  0  0  0  0  0  0  0  0
   20.8651  -17.5826    0.2652 C   0  0  0  0  0  0  0  0  0  0  0  0
   21.6076  -16.4781    0.5173 C   0  0  0  0  0  0  0  0  0  0  0  0
   21.3050  -15.5446    1.4973 C   0  0  0  0  0  0  0  0  0  0  0  0
   20.1665  -15.8037    2.2340 C   0  0  0  0  0  0  0  0  0  0  0  0
   19.3859  -16.9061    2.0137 C   0  0  0  0  0  0  0  0  0  0  0  0
   17.7288  -18.7832    5.2036 C   0  0  0  0  0  0  0  0  0  0  0  0
   18.5663  -18.4649    6.1174 O   0  0  0  0  0  0  0  0  0  0  0  0
   17.7620  -20.1593    4.8328 N   0  0  0  0  0  0  0  0  0  0  0  0
   18.6912  -21.0893    5.4626 C   0  0  1  0  0  0  0  0  0  0  0  0
   18.1168  -22.4381    5.7189 C   0  0  0  0  0  0  0  0  0  0  0  0
   19.1200  -23.4547    6.1983 C   0  0  0  0  0  0  0  0  0  0  0  0
   18.8460  -23.7345    7.6244 C   0  0  0  0  0  0  0  0  0  0  0  0
   17.8764  -23.2807    8.2743 O   0  0  0  0  0  0  0  0  0  0  0  0
   19.9851  -21.1472    4.7264 C   0  0  0  0  0  0  0  0  0  0  0  0
   20.1427  -20.9133    3.3915 O   0  0  0  0  0  0  0  0  0  0  0  0
   19.7059  -24.5755    8.3749 O   0  0  0  0  0  0  0  0  0  0  0  0
   21.0087  -21.4314    5.3960 O   0  0  0  0  0  0  0  0  0  0  0  0
  2  1  1  1
  2  3  1  0
  3  4  1  0
  5  4  1  0
  5  9  1  0
  6  5  2  0
  7  2  1  0
  7  8  2  0
 10  7  1  0
 11 12  1  6
 11 10  1  0
 12 13  1  0
 13 14  2  0
 13 21  1  0
 14 15  1  0
 15 16  1  0
 16 17  2  0
 17 18  1  0
 19 18  2  0
 20 19  1  0
 21 20  2  0
 21 16  1  0
 22 11  1  0
 23 22  2  0
 24 22  1  0
 25 26  1  6
 25 24  1  0
 26 27  1  0
 28 27  1  0
 28 32  1  0
 29 28  2  0
 30 31  1  0
 30 25  1  0
 33 30  2  0
M  END
$$$$
