EWE.pdb
     RDKit          3D

 33 34  0  0  1  0  0  0  0  0999 V2000
   37.7364  -29.2723  -19.9946 N   0  0  0  0  0  0  0  0  0  0  0  0
   36.7616  -28.3198  -20.4757 C   0  0  1  0  0  0  0  0  0  0  0  0
   36.2723  -28.7037  -21.8247 C   0  0  0  0  0  0  0  0  0  0  0  0
   35.4774  -29.9853  -21.7713 C   0  0  0  0  0  0  0  0  0  0  0  0
   34.9460  -30.3496  -23.1098 C   0  0  0  0  0  0  0  0  0  0  0  0
   35.7215  -30.8155  -23.9638 O   0  0  0  0  0  0  0  0  0  0  0  0
   35.7034  -28.1709  -19.4621 C   0  0  0  0  0  0  0  0  0  0  0  0
   35.6231  -28.9720  -18.4666 O   0  0  0  0  0  0  0  0  0  0  0  0
   33.6020  -30.1585  -23.3664 O   0  0  0  0  0  0  0  0  0  0  0  0
   34.7080  -27.1598  -19.4987 N   0  0  0  0  0  0  0  0  0  0  0  0
   33.7363  -26.9720  -18.4144 C   0  0  1  0  0  0  0  0  0  0  0  0
   33.7788  -25.5033  -18.1101 C   0  0  0  0  0  0  0  0  0  0  0  0
   32.8336  -25.0431  -17.0857 C   0  0  0  0  0  0  0  0  0  0  0  0
   32.8469  -25.3515  -15.7410 C   0  0  0  0  0  0  0  0  0  0  0  0
   31.7851  -24.7693  -15.1953 N   0  0  0  0  0  0  0  0  0  0  0  0
   31.0834  -24.0937  -16.1445 C   0  0  0  0  0  0  0  0  0  0  0  0
   29.9334  -23.3345  -16.0658 C   0  0  0  0  0  0  0  0  0  0  0  0
   29.4667  -22.7507  -17.1956 C   0  0  0  0  0  0  0  0  0  0  0  0
   30.0712  -22.8678  -18.4382 C   0  0  0  0  0  0  0  0  0  0  0  0
   31.2162  -23.6383  -18.4722 C   0  0  0  0  0  0  0  0  0  0  0  0
   31.7243  -24.2460  -17.3561 C   0  0  0  0  0  0  0  0  0  0  0  0
   32.4240  -27.5366  -18.6671 C   0  0  0  0  0  0  0  0  0  0  0  0
   31.9764  -27.5313  -19.8661 O   0  0  0  0  0  0  0  0  0  0  0  0
   31.5361  -28.1147  -17.7134 N   0  0  0  0  0  0  0  0  0  0  0  0
   30.2164  -28.5952  -18.1039 C   0  0  1  0  0  0  0  0  0  0  0  0
   29.5193  -29.3760  -17.0460 C   0  0  0  0  0  0  0  0  0  0  0  0
   28.2645  -30.0657  -17.5143 C   0  0  0  0  0  0  0  0  0  0  0  0
   27.4701  -30.4350  -16.3228 C   0  0  0  0  0  0  0  0  0  0  0  0
   27.8081  -30.2191  -15.1364 O   0  0  0  0  0  0  0  0  0  0  0  0
   29.3765  -27.4930  -18.6509 C   0  0  0  0  0  0  0  0  0  0  0  0
   28.4516  -27.6267  -19.6448 O   0  0  0  0  0  0  0  0  0  0  0  0
   26.2176  -31.0847  -16.4611 O   0  0  0  0  0  0  0  0  0  0  0  0
   29.5362  -26.3530  -18.1490 O   0  0  0  0  0  0  0  0  0  0  0  0
  2  1  1  1
  2  3  1  0
  3  4  1  0
  5  4  1  0
  5  9  1  0
  6  5  2  0
  7  2  1  0
  7  8  2  0
 10  7  1  0
 11 12  1  6
 11 10  1  0
 12 13  1  0
 13 14  2  0
 13 21  1  0
 14 15  1  0
 15 16  1  0
 16 17  2  0
 17 18  1  0
 19 18  2  0
 20 19  1  0
 21 20  2  0
 21 16  1  0
 22 11  1  0
 23 22  2  0
 24 22  1  0
 25 26  1  1
 25 24  1  0
 26 27  1  0
 28 27  1  0
 28 32  1  0
 29 28  2  0
 30 31  1  0
 30 25  1  0
 33 30  2  0
M  END
$$$$
