TYA.pdb
     RDKit          3D

 25 25  0  0  1  0  0  0  0  0999 V2000
   29.1104  -23.4735  -18.9454 C   0  0  0  0  0  0  0  0  0  0  0  0
   27.9187  -23.0959  -18.1110 C   0  0  1  0  0  0  0  0  0  0  0  0
   26.7563  -23.5397  -18.7950 O   0  0  0  0  0  0  0  0  0  0  0  0
   27.9171  -23.8000  -16.7801 C   0  0  2  0  0  0  0  0  0  0  0  0
   27.7460  -25.2479  -17.0595 N   0  0  0  0  0  0  0  0  0  0  0  0
   26.9152  -23.3490  -15.8194 C   0  0  0  0  0  0  0  0  0  0  0  0
   25.9942  -24.1863  -15.5020 O   0  0  0  0  0  0  0  0  0  0  0  0
   23.2424  -20.2987   -8.4683 O   0  0  0  0  0  0  0  0  0  0  0  0
   24.0058  -20.4453   -9.6195 C   0  0  0  0  0  0  0  0  0  0  0  0
   23.6090  -19.9404  -10.8462 C   0  0  0  0  0  0  0  0  0  0  0  0
   24.3726  -20.0957  -11.9606 C   0  0  0  0  0  0  0  0  0  0  0  0
   25.5874  -20.7823  -11.8628 C   0  0  0  0  0  0  0  0  0  0  0  0
   26.3908  -20.9812  -13.0824 C   0  0  0  0  0  0  0  0  0  0  0  0
   25.7830  -21.7658  -14.1805 C   0  0  2  0  0  0  0  0  0  0  0  0
   26.8340  -22.0935  -15.1884 N   0  0  0  0  0  0  0  0  0  0  0  0
   24.6132  -21.2148  -14.8642 C   0  0  0  0  0  0  0  0  0  0  0  0
   24.7807  -20.4016  -15.8545 O   0  0  0  0  0  0  0  0  0  0  0  0
   25.9881  -21.2865  -10.6482 C   0  0  0  0  0  0  0  0  0  0  0  0
   25.2099  -21.1236   -9.5321 C   0  0  0  0  0  0  0  0  0  0  0  0
   21.8695  -21.4714  -16.5709 C   0  0  0  0  0  0  0  0  0  0  0  0
   22.1858  -20.7807  -15.2407 C   0  0  2  0  0  0  0  0  0  0  0  0
   23.2513  -21.4740  -14.5720 N   0  0  0  0  0  0  0  0  0  0  0  0
   20.9348  -20.7817  -14.4672 C   0  0  0  0  0  0  0  0  0  0  0  0
   20.8364  -21.4524  -13.3827 O   0  0  0  0  0  0  0  0  0  0  0  0
   19.8494  -20.0656  -14.8903 O   0  0  0  0  0  0  0  0  0  0  0  0
  2  4  1  0
  2  1  1  6
  3  2  1  0
  4  6  1  0
  4  5  1  6
  6  7  2  0
  8  9  1  0
  9 19  2  0
 10 11  2  0
 10  9  1  0
 11 12  1  0
 12 13  1  0
 12 18  2  0
 14 13  1  1
 14 16  1  0
 15  6  1  0
 15 14  1  0
 16 17  2  0
 19 18  1  0
 21 20  1  6
 21 23  1  0
 22 21  1  0
 22 16  1  0
 23 25  1  0
 24 23  2  0
M  END
$$$$
