TYA.pdb
     RDKit          3D

 25 25  0  0  1  0  0  0  0  0999 V2000
   24.6301  -19.2816  -16.0677 C   0  0  0  0  0  0  0  0  0  0  0  0
   25.5231  -20.3082  -16.7063 C   0  0  1  0  0  0  0  0  0  0  0  0
   25.8838  -19.8250  -17.9917 O   0  0  0  0  0  0  0  0  0  0  0  0
   26.8114  -20.4843  -15.9473 C   0  0  2  0  0  0  0  0  0  0  0  0
   27.5782  -21.5487  -16.6422 N   0  0  0  0  0  0  0  0  0  0  0  0
   26.6797  -20.8008  -14.5286 C   0  0  0  0  0  0  0  0  0  0  0  0
   26.3358  -22.0016  -14.2292 O   0  0  0  0  0  0  0  0  0  0  0  0
   27.0238  -20.4210   -5.6042 O   0  0  0  0  0  0  0  0  0  0  0  0
   27.1520  -20.1858   -6.9672 C   0  0  0  0  0  0  0  0  0  0  0  0
   26.5044  -19.1429   -7.6077 C   0  0  0  0  0  0  0  0  0  0  0  0
   26.6444  -18.9313   -8.9436 C   0  0  0  0  0  0  0  0  0  0  0  0
   27.4626  -19.7891   -9.6864 C   0  0  0  0  0  0  0  0  0  0  0  0
   27.5783  -19.5776  -11.1404 C   0  0  0  0  0  0  0  0  0  0  0  0
   26.6969  -20.3785  -12.0195 C   0  0  2  0  0  0  0  0  0  0  0  0
   26.8874  -19.9410  -13.4338 N   0  0  0  0  0  0  0  0  0  0  0  0
   25.2667  -20.4229  -11.7161 C   0  0  0  0  0  0  0  0  0  0  0  0
   24.5369  -19.3803  -11.9411 O   0  0  0  0  0  0  0  0  0  0  0  0
   28.1088  -20.8268   -9.0574 C   0  0  0  0  0  0  0  0  0  0  0  0
   27.9599  -21.0298   -7.7104 C   0  0  0  0  0  0  0  0  0  0  0  0
   22.5287  -22.8323  -10.8193 C   0  0  0  0  0  0  0  0  0  0  0  0
   23.1338  -21.4274  -10.9013 C   0  0  2  0  0  0  0  0  0  0  0  0
   24.5386  -21.5170  -11.1868 N   0  0  0  0  0  0  0  0  0  0  0  0
   22.8575  -20.7827   -9.6085 C   0  0  0  0  0  0  0  0  0  0  0  0
   23.7930  -20.5971   -8.7565 O   0  0  0  0  0  0  0  0  0  0  0  0
   21.5944  -20.3674   -9.2889 O   0  0  0  0  0  0  0  0  0  0  0  0
  2  4  1  0
  2  1  1  1
  3  2  1  0
  4  6  1  0
  4  5  1  6
  6  7  2  0
  8  9  1  0
  9 19  2  0
 10 11  2  0
 10  9  1  0
 11 12  1  0
 12 13  1  0
 12 18  2  0
 14 13  1  1
 14 16  1  0
 15  6  1  0
 15 14  1  0
 16 17  2  0
 19 18  1  0
 21 20  1  1
 21 23  1  0
 22 21  1  0
 22 16  1  0
 23 25  1  0
 24 23  2  0
M  END
$$$$
