TYA.pdb
     RDKit          3D

 25 25  0  0  1  0  0  0  0  0999 V2000
   25.6101  -11.0246  -15.6751 C   0  0  0  0  0  0  0  0  0  0  0  0
   25.0857  -11.8194  -16.8381 C   0  0  1  0  0  0  0  0  0  0  0  0
   25.7891  -13.0524  -16.8688 O   0  0  0  0  0  0  0  0  0  0  0  0
   23.6311  -12.1699  -16.6707 C   0  0  2  0  0  0  0  0  0  0  0  0
   23.2422  -12.9716  -17.8580 N   0  0  0  0  0  0  0  0  0  0  0  0
   22.7177  -11.0443  -16.4999 C   0  0  0  0  0  0  0  0  0  0  0  0
   22.3316  -10.4406  -17.5659 O   0  0  0  0  0  0  0  0  0  0  0  0
   16.4369  -13.1826  -17.3856 O   0  0  0  0  0  0  0  0  0  0  0  0
   17.3289  -12.3815  -16.6842 C   0  0  0  0  0  0  0  0  0  0  0  0
   18.1282  -12.8714  -15.6652 C   0  0  0  0  0  0  0  0  0  0  0  0
   18.9948  -12.0687  -14.9917 C   0  0  0  0  0  0  0  0  0  0  0  0
   19.0788  -10.7160  -15.3383 C   0  0  0  0  0  0  0  0  0  0  0  0
   19.9913   -9.8434  -14.5777 C   0  0  0  0  0  0  0  0  0  0  0  0
   21.2315   -9.3985  -15.2522 C   0  0  2  0  0  0  0  0  0  0  0  0
   22.2000  -10.5334  -15.2949 N   0  0  0  0  0  0  0  0  0  0  0  0
   21.9084   -8.2046  -14.7464 C   0  0  0  0  0  0  0  0  0  0  0  0
   22.5106   -8.2518  -13.6039 O   0  0  0  0  0  0  0  0  0  0  0  0
   18.2883  -10.2222  -16.3489 C   0  0  0  0  0  0  0  0  0  0  0  0
   17.4188  -11.0413  -17.0204 C   0  0  0  0  0  0  0  0  0  0  0  0
   22.8632   -4.7152  -15.8346 C   0  0  0  0  0  0  0  0  0  0  0  0
   22.7916   -5.8734  -14.8347 C   0  0  2  0  0  0  0  0  0  0  0  0
   22.0001   -6.9408  -15.3801 N   0  0  0  0  0  0  0  0  0  0  0  0
   22.2198   -5.3174  -13.5989 C   0  0  0  0  0  0  0  0  0  0  0  0
   21.0125   -5.5730  -13.2635 O   0  0  0  0  0  0  0  0  0  0  0  0
   22.9665   -4.5150  -12.7812 O   0  0  0  0  0  0  0  0  0  0  0  0
  2  4  1  0
  2  1  1  1
  3  2  1  0
  4  6  1  0
  4  5  1  6
  6  7  2  0
  8  9  1  0
  9 19  2  0
 10 11  2  0
 10  9  1  0
 11 12  1  0
 12 13  1  0
 12 18  2  0
 14 13  1  1
 14 16  1  0
 15  6  1  0
 15 14  1  0
 16 17  2  0
 19 18  1  0
 21 20  1  6
 21 23  1  0
 22 21  1  0
 22 16  1  0
 23 25  1  0
 24 23  2  0
M  END
$$$$
