TYA.pdb
     RDKit          3D

 25 25  0  0  1  0  0  0  0  0999 V2000
   20.4030   -6.8018  -21.0668 C   0  0  0  0  0  0  0  0  0  0  0  0
   20.9433   -8.2042  -21.0837 C   0  0  1  0  0  0  0  0  0  0  0  0
   21.6319   -8.3853  -22.3121 O   0  0  0  0  0  0  0  0  0  0  0  0
   21.9593   -8.4296  -19.9957 C   0  0  2  0  0  0  0  0  0  0  0  0
   22.4309   -9.8307  -20.1308 N   0  0  0  0  0  0  0  0  0  0  0  0
   21.5022   -8.1796  -18.6323 C   0  0  0  0  0  0  0  0  0  0  0  0
   20.8172   -9.1083  -18.0681 O   0  0  0  0  0  0  0  0  0  0  0  0
   25.9904  -10.9858  -15.0160 O   0  0  0  0  0  0  0  0  0  0  0  0
   25.0904   -9.9331  -15.1221 C   0  0  0  0  0  0  0  0  0  0  0  0
   23.8887   -9.9078  -14.4347 C   0  0  0  0  0  0  0  0  0  0  0  0
   23.0223   -8.8665  -14.5537 C   0  0  0  0  0  0  0  0  0  0  0  0
   23.3553   -7.7965  -15.3911 C   0  0  0  0  0  0  0  0  0  0  0  0
   22.3940   -6.6901  -15.5458 C   0  0  0  0  0  0  0  0  0  0  0  0
   21.2374   -6.9104  -16.4430 C   0  0  2  0  0  0  0  0  0  0  0  0
   21.7241   -7.0316  -17.8488 N   0  0  0  0  0  0  0  0  0  0  0  0
   20.1292   -5.9569  -16.3960 C   0  0  0  0  0  0  0  0  0  0  0  0
   20.3294   -4.7319  -16.7561 O   0  0  0  0  0  0  0  0  0  0  0  0
   24.5467   -7.8146  -16.0769 C   0  0  0  0  0  0  0  0  0  0  0  0
   25.4116   -8.8697  -15.9488 C   0  0  0  0  0  0  0  0  0  0  0  0
   16.3988   -5.8164  -15.9702 C   0  0  0  0  0  0  0  0  0  0  0  0
   17.7945   -5.1852  -15.9762 C   0  0  2  0  0  0  0  0  0  0  0  0
   18.7958   -6.2150  -15.9928 N   0  0  0  0  0  0  0  0  0  0  0  0
   17.8704   -4.3394  -14.7753 C   0  0  0  0  0  0  0  0  0  0  0  0
   18.4715   -4.7487  -13.7233 O   0  0  0  0  0  0  0  0  0  0  0  0
   17.3002   -3.0966  -14.7572 O   0  0  0  0  0  0  0  0  0  0  0  0
  2  4  1  0
  2  1  1  6
  3  2  1  0
  4  6  1  0
  4  5  1  1
  6  7  2  0
  8  9  1  0
  9 19  2  0
 10 11  2  0
 10  9  1  0
 11 12  1  0
 12 13  1  0
 12 18  2  0
 14 13  1  1
 14 16  1  0
 15  6  1  0
 15 14  1  0
 16 17  2  0
 19 18  1  0
 21 20  1  1
 21 23  1  0
 22 21  1  0
 22 16  1  0
 23 25  1  0
 24 23  2  0
M  END
$$$$
