TYA.pdb
     RDKit          3D

 25 25  0  0  1  0  0  0  0  0999 V2000
   19.3061   -5.7375  -20.3565 C   0  0  0  0  0  0  0  0  0  0  0  0
   19.0829   -5.1630  -18.9856 C   0  0  1  0  0  0  0  0  0  0  0  0
   17.7854   -5.5536  -18.5613 O   0  0  0  0  0  0  0  0  0  0  0  0
   20.0436   -5.7295  -17.9743 C   0  0  2  0  0  0  0  0  0  0  0  0
   19.7601   -7.1836  -17.8789 N   0  0  0  0  0  0  0  0  0  0  0  0
   20.0093   -5.1201  -16.6484 C   0  0  0  0  0  0  0  0  0  0  0  0
   19.1893   -5.6230  -15.7972 O   0  0  0  0  0  0  0  0  0  0  0  0
   22.6659   -9.3070  -12.9405 O   0  0  0  0  0  0  0  0  0  0  0  0
   22.4608   -7.9545  -13.1814 C   0  0  0  0  0  0  0  0  0  0  0  0
   21.6725   -7.1630  -12.3633 C   0  0  0  0  0  0  0  0  0  0  0  0
   21.4855   -5.8404  -12.6183 C   0  0  0  0  0  0  0  0  0  0  0  0
   22.1053   -5.2683  -13.7343 C   0  0  0  0  0  0  0  0  0  0  0  0
   21.8663   -3.8437  -14.0268 C   0  0  0  0  0  0  0  0  0  0  0  0
   20.6486   -3.4988  -14.7945 C   0  0  2  0  0  0  0  0  0  0  0  0
   20.7755   -4.0358  -16.1814 N   0  0  0  0  0  0  0  0  0  0  0  0
   20.2387   -2.0961  -14.8553 C   0  0  0  0  0  0  0  0  0  0  0  0
   21.0206   -1.2292  -15.4097 O   0  0  0  0  0  0  0  0  0  0  0  0
   22.8894   -6.0479  -14.5513 C   0  0  0  0  0  0  0  0  0  0  0  0
   23.0704   -7.3797  -14.2838 C   0  0  0  0  0  0  0  0  0  0  0  0
   17.2343    0.0976  -14.3150 C   0  0  0  0  0  0  0  0  0  0  0  0
   18.7370   -0.1365  -14.4988 C   0  0  2  0  0  0  0  0  0  0  0  0
   19.0327   -1.5359  -14.3666 N   0  0  0  0  0  0  0  0  0  0  0  0
   19.4103    0.6843  -13.4808 C   0  0  0  0  0  0  0  0  0  0  0  0
   19.2963    1.9581  -13.4867 O   0  0  0  0  0  0  0  0  0  0  0  0
   20.1729    0.1037  -12.5054 O   0  0  0  0  0  0  0  0  0  0  0  0
  2  4  1  0
  2  1  1  6
  3  2  1  0
  4  6  1  0
  4  5  1  1
  6  7  2  0
  8  9  1  0
  9 19  2  0
 10 11  2  0
 10  9  1  0
 11 12  1  0
 12 13  1  0
 12 18  2  0
 14 13  1  6
 14 16  1  0
 15  6  1  0
 15 14  1  0
 16 17  2  0
 19 18  1  0
 21 20  1  1
 21 23  1  0
 22 21  1  0
 22 16  1  0
 23 25  1  0
 24 23  2  0
M  END
$$$$
