TYA.pdb
     RDKit          3D

 25 25  0  0  1  0  0  0  0  0999 V2000
   27.4668  -10.0507  -15.9038 C   0  0  0  0  0  0  0  0  0  0  0  0
   27.6662  -11.0594  -17.0000 C   0  0  1  0  0  0  0  0  0  0  0  0
   28.7984  -11.8461  -16.6603 O   0  0  0  0  0  0  0  0  0  0  0  0
   26.5072  -12.0147  -17.1041 C   0  0  2  0  0  0  0  0  0  0  0  0
   26.8268  -12.9610  -18.2024 N   0  0  0  0  0  0  0  0  0  0  0  0
   25.1974  -11.4094  -17.3240 C   0  0  0  0  0  0  0  0  0  0  0  0
   24.9020  -11.0823  -18.5305 O   0  0  0  0  0  0  0  0  0  0  0  0
   21.2426  -15.9662  -19.7515 O   0  0  0  0  0  0  0  0  0  0  0  0
   21.3611  -14.8527  -18.9297 C   0  0  0  0  0  0  0  0  0  0  0  0
   20.8551  -13.6118  -19.2784 C   0  0  0  0  0  0  0  0  0  0  0  0
   20.9826  -12.5349  -18.4580 C   0  0  0  0  0  0  0  0  0  0  0  0
   21.6410  -12.6868  -17.2331 C   0  0  0  0  0  0  0  0  0  0  0  0
   21.8102  -11.5065  -16.3667 C   0  0  0  0  0  0  0  0  0  0  0  0
   22.8808  -10.5474  -16.7202 C   0  0  2  0  0  0  0  0  0  0  0  0
   24.2046  -11.1379  -16.3640 N   0  0  0  0  0  0  0  0  0  0  0  0
   22.7997   -9.1873  -16.1881 C   0  0  0  0  0  0  0  0  0  0  0  0
   22.9740   -8.9886  -14.9231 O   0  0  0  0  0  0  0  0  0  0  0  0
   22.1461  -13.9157  -16.8799 C   0  0  0  0  0  0  0  0  0  0  0  0
   22.0113  -14.9936  -17.7153 C   0  0  0  0  0  0  0  0  0  0  0  0
   22.3880   -5.6096  -17.3336 C   0  0  0  0  0  0  0  0  0  0  0  0
   22.4952   -6.7131  -16.2765 C   0  0  2  0  0  0  0  0  0  0  0  0
   22.5484   -7.9981  -16.9160 N   0  0  0  0  0  0  0  0  0  0  0  0
   21.3222   -6.5626  -15.4021 C   0  0  0  0  0  0  0  0  0  0  0  0
   21.2298   -5.5747  -14.5952 O   0  0  0  0  0  0  0  0  0  0  0  0
   20.3045   -7.4755  -15.4326 O   0  0  0  0  0  0  0  0  0  0  0  0
  2  4  1  0
  2  1  1  1
  3  2  1  0
  4  6  1  0
  4  5  1  6
  6  7  2  0
  8  9  1  0
  9 19  2  0
 10 11  2  0
 10  9  1  0
 11 12  1  0
 12 13  1  0
 12 18  2  0
 14 13  1  1
 14 16  1  0
 15  6  1  0
 15 14  1  0
 16 17  2  0
 19 18  1  0
 21 20  1  6
 21 23  1  0
 22 21  1  0
 22 16  1  0
 23 25  1  0
 24 23  2  0
M  END
$$$$
