TYA.pdb
     RDKit          3D

 25 25  0  0  1  0  0  0  0  0999 V2000
   25.3051  -18.9629  -18.1739 C   0  0  0  0  0  0  0  0  0  0  0  0
   26.1399  -20.0882  -18.7178 C   0  0  1  0  0  0  0  0  0  0  0  0
   26.8757  -19.5835  -19.8223 O   0  0  0  0  0  0  0  0  0  0  0  0
   27.1589  -20.5676  -17.7184 C   0  0  2  0  0  0  0  0  0  0  0  0
   27.8758  -21.7055  -18.3469 N   0  0  0  0  0  0  0  0  0  0  0  0
   26.6386  -20.9581  -16.4118 C   0  0  0  0  0  0  0  0  0  0  0  0
   25.9936  -22.0672  -16.3495 O   0  0  0  0  0  0  0  0  0  0  0  0
   24.6434  -20.9046   -7.6393 O   0  0  0  0  0  0  0  0  0  0  0  0
   25.1846  -20.7524   -8.9094 C   0  0  0  0  0  0  0  0  0  0  0  0
   25.9567  -21.7308   -9.5127 C   0  0  0  0  0  0  0  0  0  0  0  0
   26.4767  -21.5604  -10.7575 C   0  0  0  0  0  0  0  0  0  0  0  0
   26.2243  -20.3673  -11.4429 C   0  0  0  0  0  0  0  0  0  0  0  0
   26.8238  -20.1734  -12.7754 C   0  0  0  0  0  0  0  0  0  0  0  0
   26.0836  -20.7056  -13.9415 C   0  0  2  0  0  0  0  0  0  0  0  0
   26.7596  -20.2603  -15.1956 N   0  0  0  0  0  0  0  0  0  0  0  0
   24.6507  -20.4293  -14.0410 C   0  0  0  0  0  0  0  0  0  0  0  0
   24.2542  -19.2588  -14.4191 O   0  0  0  0  0  0  0  0  0  0  0  0
   25.4587  -19.3912  -10.8504 C   0  0  0  0  0  0  0  0  0  0  0  0
   24.9400  -19.5747   -9.5954 C   0  0  0  0  0  0  0  0  0  0  0  0
   21.3731  -21.9906  -14.5184 C   0  0  0  0  0  0  0  0  0  0  0  0
   22.2123  -20.9105  -13.8288 C   0  0  2  0  0  0  0  0  0  0  0  0
   23.5866  -21.3242  -13.7691 N   0  0  0  0  0  0  0  0  0  0  0  0
   21.6202  -20.7154  -12.4966 C   0  0  0  0  0  0  0  0  0  0  0  0
   22.2561  -21.0580  -11.4412 O   0  0  0  0  0  0  0  0  0  0  0  0
   20.3770  -20.1633  -12.3570 O   0  0  0  0  0  0  0  0  0  0  0  0
  2  4  1  0
  2  1  1  1
  3  2  1  0
  4  6  1  0
  4  5  1  6
  6  7  2  0
  8  9  1  0
  9 19  2  0
 10 11  2  0
 10  9  1  0
 11 12  1  0
 12 13  1  0
 12 18  2  0
 14 13  1  1
 14 16  1  0
 15  6  1  0
 15 14  1  0
 16 17  2  0
 19 18  1  0
 21 20  1  1
 21 23  1  0
 22 21  1  0
 22 16  1  0
 23 25  1  0
 24 23  2  0
M  END
$$$$
