TYA.pdb
     RDKit          3D

 25 25  0  0  1  0  0  0  0  0999 V2000
   30.1587  -31.2297  -20.9784 C   0  0  0  0  0  0  0  0  0  0  0  0
   31.0326  -31.9136  -19.9647 C   0  0  1  0  0  0  0  0  0  0  0  0
   32.2752  -32.1985  -20.5899 O   0  0  0  0  0  0  0  0  0  0  0  0
   31.3463  -31.0181  -18.7958 C   0  0  2  0  0  0  0  0  0  0  0  0
   32.0711  -31.8475  -17.8005 N   0  0  0  0  0  0  0  0  0  0  0  0
   30.2037  -30.3605  -18.1693 C   0  0  0  0  0  0  0  0  0  0  0  0
   29.5605  -31.0306  -17.2821 O   0  0  0  0  0  0  0  0  0  0  0  0
   23.8813  -24.2023  -16.3802 O   0  0  0  0  0  0  0  0  0  0  0  0
   25.0288  -24.9168  -16.6996 C   0  0  0  0  0  0  0  0  0  0  0  0
   25.8923  -25.4095  -15.7358 C   0  0  0  0  0  0  0  0  0  0  0  0
   27.0105  -26.1067  -16.0713 C   0  0  0  0  0  0  0  0  0  0  0  0
   27.2930  -26.3302  -17.4231 C   0  0  0  0  0  0  0  0  0  0  0  0
   28.5272  -27.0523  -17.7806 C   0  0  0  0  0  0  0  0  0  0  0  0
   28.4793  -28.5318  -17.7738 C   0  0  2  0  0  0  0  0  0  0  0  0
   29.7147  -29.0647  -18.4201 N   0  0  0  0  0  0  0  0  0  0  0  0
   27.3089  -29.1925  -18.3507 C   0  0  0  0  0  0  0  0  0  0  0  0
   27.2431  -29.3655  -19.6297 O   0  0  0  0  0  0  0  0  0  0  0  0
   26.4404  -25.8441  -18.3857 C   0  0  0  0  0  0  0  0  0  0  0  0
   25.3165  -25.1429  -18.0351 C   0  0  0  0  0  0  0  0  0  0  0  0
   24.1512  -30.9865  -17.3127 C   0  0  0  0  0  0  0  0  0  0  0  0
   25.1039  -30.3589  -18.3348 C   0  0  2  0  0  0  0  0  0  0  0  0
   26.1834  -29.6989  -17.6549 N   0  0  0  0  0  0  0  0  0  0  0  0
   24.2929  -29.4351  -19.1424 C   0  0  0  0  0  0  0  0  0  0  0  0
   23.6808  -29.8445  -20.1880 O   0  0  0  0  0  0  0  0  0  0  0  0
   24.1753  -28.1182  -18.7931 O   0  0  0  0  0  0  0  0  0  0  0  0
  2  4  1  0
  2  1  1  6
  3  2  1  0
  4  6  1  0
  4  5  1  1
  6  7  2  0
  8  9  1  0
  9 19  2  0
 10 11  2  0
 10  9  1  0
 11 12  1  0
 12 13  1  0
 12 18  2  0
 14 13  1  6
 14 16  1  0
 15  6  1  0
 15 14  1  0
 16 17  2  0
 19 18  1  0
 21 20  1  1
 21 23  1  0
 22 21  1  0
 22 16  1  0
 23 25  1  0
 24 23  2  0
M  END
$$$$
