IWT.pdb
     RDKit          3D

 30 31  0  0  1  0  0  0  0  0999 V2000
    6.6965  -12.4793   19.1038 C   0  0  0  0  0  0  0  0  0  0  0  0
    7.1231  -13.8468   19.5284 C   0  0  0  0  0  0  0  0  0  0  0  0
    7.9419  -13.8521   20.8019 C   0  0  2  0  0  0  0  0  0  0  0  0
    9.1451  -12.9621   20.5896 C   0  0  0  0  0  0  0  0  0  0  0  0
    8.3183  -15.2912   21.0721 C   0  0  2  0  0  0  0  0  0  0  0  0
    7.0399  -16.0111   21.1945 N   0  0  0  0  0  0  0  0  0  0  0  0
    9.0444  -15.4793   22.3264 C   0  0  0  0  0  0  0  0  0  0  0  0
   10.1566  -14.8949   22.4623 O   0  0  0  0  0  0  0  0  0  0  0  0
    8.6159  -16.2692   23.4304 N   0  0  0  0  0  0  0  0  0  0  0  0
    9.4677  -16.4654   24.5864 C   0  0  1  0  0  0  0  0  0  0  0  0
    8.6257  -16.5549   25.8597 C   0  0  0  0  0  0  0  0  0  0  0  0
    7.5913  -15.4904   25.8641 C   0  0  0  0  0  0  0  0  0  0  0  0
    6.2598  -15.6089   25.5294 C   0  0  0  0  0  0  0  0  0  0  0  0
    5.6488  -14.4049   25.6632 N   0  0  0  0  0  0  0  0  0  0  0  0
    6.5573  -13.5202   26.0753 C   0  0  0  0  0  0  0  0  0  0  0  0
    6.4400  -12.1648   26.3580 C   0  0  0  0  0  0  0  0  0  0  0  0
    7.5536  -11.4552   26.7775 C   0  0  0  0  0  0  0  0  0  0  0  0
    8.7649  -12.0790   26.9150 C   0  0  0  0  0  0  0  0  0  0  0  0
    8.8555  -13.4249   26.6283 C   0  0  0  0  0  0  0  0  0  0  0  0
    7.7781  -14.1707   26.2088 C   0  0  0  0  0  0  0  0  0  0  0  0
   10.3385  -17.6431   24.4347 C   0  0  0  0  0  0  0  0  0  0  0  0
    9.8909  -18.7808   24.7391 O   0  0  0  0  0  0  0  0  0  0  0  0
   11.9669  -18.8500   21.3289 C   0  0  0  0  0  0  0  0  0  0  0  0
   13.0604  -18.7026   22.3322 C   0  0  1  0  0  0  0  0  0  0  0  0
   13.7732  -17.5421   22.0761 O   0  0  0  0  0  0  0  0  0  0  0  0
   12.5117  -18.7283   23.7444 C   0  0  2  0  0  0  0  0  0  0  0  0
   11.6797  -17.5622   23.9550 N   0  0  0  0  0  0  0  0  0  0  0  0
   13.6768  -18.6621   24.6708 C   0  0  0  0  0  0  0  0  0  0  0  0
   13.9929  -17.5564   25.4295 O   0  0  0  0  0  0  0  0  0  0  0  0
   14.4540  -19.6691   24.7979 O   0  0  0  0  0  0  0  0  0  0  0  0
  2  1  1  0
  2  3  1  0
  3  4  1  6
  5  3  1  0
  5  6  1  1
  7  5  1  0
  7  8  2  0
  9  7  1  0
 10  9  1  0
 10 11  1  1
 12 11  1  0
 13 12  2  0
 14 13  1  0
 15 14  1  0
 15 20  2  0
 16 15  1  0
 17 16  2  0
 17 18  1  0
 18 19  2  0
 19 20  1  0
 20 12  1  0
 21 10  1  0
 22 21  2  0
 24 23  1  6
 24 25  1  0
 24 26  1  0
 26 27  1  6
 26 28  1  0
 27 21  1  0
 28 29  1  0
 30 28  2  0
M  END
$$$$
