IWT.pdb
     RDKit          3D

 30 31  0  0  1  0  0  0  0  0999 V2000
    7.4580  -16.6704   17.1328 C   0  0  0  0  0  0  0  0  0  0  0  0
    6.8680  -16.3726   18.4728 C   0  0  0  0  0  0  0  0  0  0  0  0
    7.9061  -16.0697   19.5323 C   0  0  2  0  0  0  0  0  0  0  0  0
    8.8563  -17.2429   19.6069 C   0  0  0  0  0  0  0  0  0  0  0  0
    7.1559  -15.8404   20.8247 C   0  0  2  0  0  0  0  0  0  0  0  0
    6.3931  -14.5986   20.6166 N   0  0  0  0  0  0  0  0  0  0  0  0
    8.0293  -15.6256   21.9767 C   0  0  0  0  0  0  0  0  0  0  0  0
    8.6596  -14.5327   22.0486 O   0  0  0  0  0  0  0  0  0  0  0  0
    8.2445  -16.5412   23.0452 N   0  0  0  0  0  0  0  0  0  0  0  0
    9.2199  -16.2670   24.0815 C   0  0  1  0  0  0  0  0  0  0  0  0
    8.5750  -16.3792   25.4635 C   0  0  0  0  0  0  0  0  0  0  0  0
    7.5297  -15.3380   25.6258 C   0  0  0  0  0  0  0  0  0  0  0  0
    6.1656  -15.4876   25.5006 C   0  0  0  0  0  0  0  0  0  0  0  0
    5.5554  -14.2968   25.7252 N   0  0  0  0  0  0  0  0  0  0  0  0
    6.4963  -13.3901   25.9909 C   0  0  0  0  0  0  0  0  0  0  0  0
    6.3933  -12.0362   26.2862 C   0  0  0  0  0  0  0  0  0  0  0  0
    7.5419  -11.3001   26.5279 C   0  0  0  0  0  0  0  0  0  0  0  0
    8.7737  -11.8962   26.4779 C   0  0  0  0  0  0  0  0  0  0  0  0
    8.8495  -13.2411   26.1827 C   0  0  0  0  0  0  0  0  0  0  0  0
    7.7375  -14.0127   25.9355 C   0  0  0  0  0  0  0  0  0  0  0  0
   10.4021  -17.1374   23.9684 C   0  0  0  0  0  0  0  0  0  0  0  0
   10.2437  -18.3869   23.9368 O   0  0  0  0  0  0  0  0  0  0  0  0
   13.0133  -16.8381   21.3424 C   0  0  0  0  0  0  0  0  0  0  0  0
   13.7689  -16.9415   22.6240 C   0  0  1  0  0  0  0  0  0  0  0  0
   14.3016  -15.7047   22.9509 O   0  0  0  0  0  0  0  0  0  0  0  0
   12.8916  -17.4892   23.7315 C   0  0  2  0  0  0  0  0  0  0  0  0
   11.7347  -16.6334   23.8920 N   0  0  0  0  0  0  0  0  0  0  0  0
   13.6938  -17.4545   24.9866 C   0  0  0  0  0  0  0  0  0  0  0  0
   14.7590  -18.2904   25.2406 O   0  0  0  0  0  0  0  0  0  0  0  0
   13.4094  -16.6144   25.9073 O   0  0  0  0  0  0  0  0  0  0  0  0
  2  1  1  0
  2  3  1  0
  3  4  1  1
  5  3  1  0
  5  6  1  6
  7  5  1  0
  7  8  2  0
  9  7  1  0
 10  9  1  0
 10 11  1  1
 12 11  1  0
 13 12  2  0
 14 13  1  0
 15 14  1  0
 15 20  2  0
 16 15  1  0
 17 16  2  0
 17 18  1  0
 18 19  2  0
 19 20  1  0
 20 12  1  0
 21 10  1  0
 22 21  2  0
 24 23  1  6
 24 25  1  0
 24 26  1  0
 26 27  1  1
 26 28  1  0
 27 21  1  0
 28 29  1  0
 30 28  2  0
M  END
$$$$
