IWT.pdb
     RDKit          3D

 30 31  0  0  1  0  0  0  0  0999 V2000
    7.9453  -14.7196   16.9017 C   0  0  0  0  0  0  0  0  0  0  0  0
    7.2750  -14.5504   18.2263 C   0  0  0  0  0  0  0  0  0  0  0  0
    8.2114  -14.7361   19.4014 C   0  0  2  0  0  0  0  0  0  0  0  0
    8.9436  -16.0454   19.2153 C   0  0  0  0  0  0  0  0  0  0  0  0
    7.3562  -14.7153   20.6478 C   0  0  2  0  0  0  0  0  0  0  0  0
    6.7330  -13.3816   20.6697 N   0  0  0  0  0  0  0  0  0  0  0  0
    8.1225  -14.8567   21.8843 C   0  0  0  0  0  0  0  0  0  0  0  0
    8.9298  -13.9343   22.1916 O   0  0  0  0  0  0  0  0  0  0  0  0
    8.0488  -15.9496   22.7934 N   0  0  0  0  0  0  0  0  0  0  0  0
    8.9697  -16.0610   23.9069 C   0  0  1  0  0  0  0  0  0  0  0  0
    8.2076  -16.3401   25.2029 C   0  0  0  0  0  0  0  0  0  0  0  0
    7.2833  -15.2184   25.5039 C   0  0  0  0  0  0  0  0  0  0  0  0
    5.9127  -15.1961   25.3639 C   0  0  0  0  0  0  0  0  0  0  0  0
    5.4366  -13.9842   25.7452 N   0  0  0  0  0  0  0  0  0  0  0  0
    6.4696  -13.2317   26.1254 C   0  0  0  0  0  0  0  0  0  0  0  0
    6.5149  -11.9253   26.5968 C   0  0  0  0  0  0  0  0  0  0  0  0
    7.7356  -11.3609   26.9302 C   0  0  0  0  0  0  0  0  0  0  0  0
    8.8937  -12.0798   26.7985 C   0  0  0  0  0  0  0  0  0  0  0  0
    8.8223  -13.3744   26.3285 C   0  0  0  0  0  0  0  0  0  0  0  0
    7.6341  -13.9770   25.9850 C   0  0  0  0  0  0  0  0  0  0  0  0
   10.0062  -17.0782   23.6639 C   0  0  0  0  0  0  0  0  0  0  0  0
    9.6946  -18.1409   23.0631 O   0  0  0  0  0  0  0  0  0  0  0  0
   12.0238  -17.6506   21.3538 C   0  0  0  0  0  0  0  0  0  0  0  0
   13.0268  -17.5809   22.4553 C   0  0  1  0  0  0  0  0  0  0  0  0
   13.6315  -16.3340   22.4553 O   0  0  0  0  0  0  0  0  0  0  0  0
   12.3906  -17.9000   23.7930 C   0  0  2  0  0  0  0  0  0  0  0  0
   11.3624  -16.9215   24.0786 N   0  0  0  0  0  0  0  0  0  0  0  0
   13.4590  -17.7911   24.8259 C   0  0  0  0  0  0  0  0  0  0  0  0
   14.4907  -18.6940   24.9618 O   0  0  0  0  0  0  0  0  0  0  0  0
   13.4543  -16.8174   25.6542 O   0  0  0  0  0  0  0  0  0  0  0  0
  2  1  1  0
  2  3  1  0
  3  4  1  6
  5  3  1  0
  5  6  1  1
  7  5  1  0
  7  8  2  0
  9  7  1  0
 10  9  1  0
 10 11  1  1
 12 11  1  0
 13 12  2  0
 14 13  1  0
 15 14  1  0
 15 20  2  0
 16 15  1  0
 17 16  2  0
 17 18  1  0
 18 19  2  0
 19 20  1  0
 20 12  1  0
 21 10  1  0
 22 21  2  0
 24 23  1  6
 24 25  1  0
 24 26  1  0
 26 27  1  1
 26 28  1  0
 27 21  1  0
 28 29  1  0
 30 28  2  0
M  END
$$$$
