IWT.pdb
     RDKit          3D

 30 31  0  0  1  0  0  0  0  0999 V2000
    7.8231  -12.2309   19.4450 C   0  0  0  0  0  0  0  0  0  0  0  0
    7.4345  -13.2920   20.4224 C   0  0  0  0  0  0  0  0  0  0  0  0
    7.8114  -14.6883   19.9745 C   0  0  2  0  0  0  0  0  0  0  0  0
    7.1437  -14.9502   18.6439 C   0  0  0  0  0  0  0  0  0  0  0  0
    7.3476  -15.6340   21.0589 C   0  0  2  0  0  0  0  0  0  0  0  0
    5.9249  -15.3184   21.2679 N   0  0  0  0  0  0  0  0  0  0  0  0
    8.0285  -15.4361   22.3369 C   0  0  0  0  0  0  0  0  0  0  0  0
    8.1654  -14.2533   22.7600 O   0  0  0  0  0  0  0  0  0  0  0  0
    8.5625  -16.4615   23.1675 N   0  0  0  0  0  0  0  0  0  0  0  0
    9.4635  -16.1481   24.2586 C   0  0  1  0  0  0  0  0  0  0  0  0
    8.7518  -16.3142   25.6017 C   0  0  0  0  0  0  0  0  0  0  0  0
    7.6082  -15.3725   25.6940 C   0  0  0  0  0  0  0  0  0  0  0  0
    6.2853  -15.6231   25.4008 C   0  0  0  0  0  0  0  0  0  0  0  0
    5.5522  -14.5016   25.6141 N   0  0  0  0  0  0  0  0  0  0  0  0
    6.3744  -13.5406   26.0365 C   0  0  0  0  0  0  0  0  0  0  0  0
    6.1210  -12.2204   26.3885 C   0  0  0  0  0  0  0  0  0  0  0  0
    7.1664  -11.4109   26.8026 C   0  0  0  0  0  0  0  0  0  0  0  0
    8.4432  -11.9017   26.8672 C   0  0  0  0  0  0  0  0  0  0  0  0
    8.6687  -13.2152   26.5126 C   0  0  0  0  0  0  0  0  0  0  0  0
    7.6633  -14.0567   26.0955 C   0  0  0  0  0  0  0  0  0  0  0  0
   10.6966  -16.9508   24.2016 C   0  0  0  0  0  0  0  0  0  0  0  0
   10.6167  -18.2056   24.2833 O   0  0  0  0  0  0  0  0  0  0  0  0
   15.6467  -17.0451   23.6015 C   0  0  0  0  0  0  0  0  0  0  0  0
   14.3602  -16.2913   23.5736 C   0  0  1  0  0  0  0  0  0  0  0  0
   14.1524  -15.7728   22.3054 O   0  0  0  0  0  0  0  0  0  0  0  0
   13.2065  -17.1650   24.0226 C   0  0  2  0  0  0  0  0  0  0  0  0
   11.9939  -16.3747   24.0569 N   0  0  0  0  0  0  0  0  0  0  0  0
   13.5175  -17.6297   25.4036 C   0  0  0  0  0  0  0  0  0  0  0  0
   14.2195  -18.7808   25.6868 O   0  0  0  0  0  0  0  0  0  0  0  0
   13.1277  -16.9490   26.4131 O   0  0  0  0  0  0  0  0  0  0  0  0
  2  1  1  0
  2  3  1  0
  3  4  1  6
  5  3  1  0
  5  6  1  1
  7  5  1  0
  7  8  2  0
  9  7  1  0
 10  9  1  0
 10 11  1  1
 12 11  1  0
 13 12  2  0
 14 13  1  0
 15 14  1  0
 15 20  2  0
 16 15  1  0
 17 16  2  0
 17 18  1  0
 18 19  2  0
 19 20  1  0
 20 12  1  0
 21 10  1  0
 22 21  2  0
 24 23  1  6
 24 25  1  0
 24 26  1  0
 26 27  1  1
 26 28  1  0
 27 21  1  0
 28 29  1  0
 30 28  2  0
M  END
$$$$
