IWT.pdb
     RDKit          3D

 30 31  0  0  1  0  0  0  0  0999 V2000
    8.9074  -20.5023   17.8841 C   0  0  0  0  0  0  0  0  0  0  0  0
    8.0990  -19.9885   19.0307 C   0  0  0  0  0  0  0  0  0  0  0  0
    8.9035  -19.1590   20.0089 C   0  0  2  0  0  0  0  0  0  0  0  0
   10.0413  -20.0116   20.5219 C   0  0  0  0  0  0  0  0  0  0  0  0
    7.9522  -18.7316   21.1034 C   0  0  2  0  0  0  0  0  0  0  0  0
    6.9154  -17.9339   20.4280 N   0  0  0  0  0  0  0  0  0  0  0  0
    8.5707  -17.8744   22.1128 C   0  0  0  0  0  0  0  0  0  0  0  0
    9.1844  -16.8420   21.7200 O   0  0  0  0  0  0  0  0  0  0  0  0
    8.5501  -18.0903   23.5196 N   0  0  0  0  0  0  0  0  0  0  0  0
    9.2889  -17.2284   24.4206 C   0  0  1  0  0  0  0  0  0  0  0  0
    8.5415  -17.0770   25.7459 C   0  0  0  0  0  0  0  0  0  0  0  0
    7.5120  -16.0137   25.6335 C   0  0  0  0  0  0  0  0  0  0  0  0
    6.2245  -16.1352   25.1578 C   0  0  0  0  0  0  0  0  0  0  0  0
    5.6019  -14.9312   25.2189 N   0  0  0  0  0  0  0  0  0  0  0  0
    6.4602  -14.0436   25.7222 C   0  0  0  0  0  0  0  0  0  0  0  0
    6.3124  -12.6869   25.9839 C   0  0  0  0  0  0  0  0  0  0  0  0
    7.3739  -11.9741   26.5176 C   0  0  0  0  0  0  0  0  0  0  0  0
    8.5636  -12.5959   26.7879 C   0  0  0  0  0  0  0  0  0  0  0  0
    8.6854  -13.9431   26.5193 C   0  0  0  0  0  0  0  0  0  0  0  0
    7.6599  -14.6921   25.9898 C   0  0  0  0  0  0  0  0  0  0  0  0
   10.6660  -17.7049   24.6322 C   0  0  0  0  0  0  0  0  0  0  0  0
   10.8508  -18.8600   25.1001 O   0  0  0  0  0  0  0  0  0  0  0  0
   13.9209  -15.4562   23.1018 C   0  0  0  0  0  0  0  0  0  0  0  0
   13.9370  -16.9458   23.1722 C   0  0  1  0  0  0  0  0  0  0  0  0
   15.2473  -17.3970   23.1762 O   0  0  0  0  0  0  0  0  0  0  0  0
   13.1648  -17.4431   24.3774 C   0  0  2  0  0  0  0  0  0  0  0  0
   11.8167  -16.9168   24.3314 N   0  0  0  0  0  0  0  0  0  0  0  0
   13.8486  -16.9101   25.5891 C   0  0  0  0  0  0  0  0  0  0  0  0
   15.1129  -17.2871   25.9858 O   0  0  0  0  0  0  0  0  0  0  0  0
   13.2618  -16.0506   26.3316 O   0  0  0  0  0  0  0  0  0  0  0  0
  2  1  1  0
  2  3  1  0
  3  4  1  1
  5  3  1  0
  5  6  1  6
  7  5  1  0
  7  8  2  0
  9  7  1  0
 10  9  1  0
 10 11  1  1
 12 11  1  0
 13 12  2  0
 14 13  1  0
 15 14  1  0
 15 20  2  0
 16 15  1  0
 17 16  2  0
 17 18  1  0
 18 19  2  0
 19 20  1  0
 20 12  1  0
 21 10  1  0
 22 21  2  0
 24 23  1  1
 24 25  1  0
 24 26  1  0
 26 27  1  6
 26 28  1  0
 27 21  1  0
 28 29  1  0
 30 28  2  0
M  END
$$$$
