WLS.pdb
     RDKit          3D

 29 30  0  0  1  0  0  0  0  0999 V2000
   23.9858  -19.5505   -9.9565 N   0  0  0  0  0  0  0  0  0  0  0  0
   25.3589  -20.0164   -9.9395 C   0  0  1  0  0  0  0  0  0  0  0  0
   25.3895  -21.2855   -9.1136 C   0  0  0  0  0  0  0  0  0  0  0  0
   25.3264  -21.0130   -7.6551 C   0  0  0  0  0  0  0  0  0  0  0  0
   24.2985  -21.2885   -6.7701 C   0  0  0  0  0  0  0  0  0  0  0  0
   24.6984  -20.8608   -5.5612 N   0  0  0  0  0  0  0  0  0  0  0  0
   25.9139  -20.3291   -5.6097 C   0  0  0  0  0  0  0  0  0  0  0  0
   26.7409  -19.7635   -4.6535 C   0  0  0  0  0  0  0  0  0  0  0  0
   27.9608  -19.3044   -5.0624 C   0  0  0  0  0  0  0  0  0  0  0  0
   28.3905  -19.3822   -6.3672 C   0  0  0  0  0  0  0  0  0  0  0  0
   27.5790  -19.9395   -7.3163 C   0  0  0  0  0  0  0  0  0  0  0  0
   26.3453  -20.4099   -6.9331 C   0  0  0  0  0  0  0  0  0  0  0  0
   25.7371  -20.4368  -11.3358 C   0  0  0  0  0  0  0  0  0  0  0  0
   25.0818  -20.0421  -12.3332 O   0  0  0  0  0  0  0  0  0  0  0  0
   29.8780  -19.3811  -12.1100 C   0  0  0  0  0  0  0  0  0  0  0  0
   29.7999  -20.8391  -11.6691 C   0  0  2  0  0  0  0  0  0  0  0  0
   31.1675  -21.4215  -11.4789 C   0  0  0  0  0  0  0  0  0  0  0  0
   29.0019  -21.6554  -12.6464 C   0  0  0  0  0  0  0  0  0  0  0  0
   27.5820  -21.2281  -12.8246 C   0  0  2  0  0  0  0  0  0  0  0  0
   26.8439  -21.2911  -11.5717 N   0  0  0  0  0  0  0  0  0  0  0  0
   26.8913  -21.9230  -13.9071 C   0  0  0  0  0  0  0  0  0  0  0  0
   27.3378  -21.9203  -15.0732 O   0  0  0  0  0  0  0  0  0  0  0  0
   23.0369  -23.3591  -13.4579 O   0  0  0  0  0  0  0  0  0  0  0  0
   23.8298  -24.1838  -14.2551 C   0  0  0  0  0  0  0  0  0  0  0  0
   24.9695  -23.3324  -14.7731 C   0  0  2  0  0  0  0  0  0  0  0  0
   25.6689  -22.6500  -13.7216 N   0  0  0  0  0  0  0  0  0  0  0  0
   24.4114  -22.3803  -15.7415 C   0  0  0  0  0  0  0  0  0  0  0  0
   24.4684  -21.1528  -15.4934 O   0  0  0  0  0  0  0  0  0  0  0  0
   23.8208  -22.7850  -16.9247 O   0  0  0  0  0  0  0  0  0  0  0  0
  2  1  1  6
  2 13  1  0
  3  2  1  0
  4  3  1  0
  4 12  1  0
  5  6  1  0
  5  4  2  0
  6  7  1  0
  7 12  2  0
  7  8  1  0
  8  9  2  0
  9 10  1  0
 11 10  2  0
 12 11  1  0
 13 14  2  0
 16 18  1  0
 16 15  1  6
 17 16  1  0
 19 18  1  1
 19 21  1  0
 20 19  1  0
 20 13  1  0
 21 22  2  0
 23 24  1  0
 25 24  1  1
 25 27  1  0
 26 25  1  0
 26 21  1  0
 27 28  2  0
 27 29  1  0
M  END
$$$$
