WLS.pdb
     RDKit          3D

 29 30  0  0  1  0  0  0  0  0999 V2000
   21.0450  -27.8291    9.8889 N   0  0  0  0  0  0  0  0  0  0  0  0
   21.9056  -26.7440    9.4596 C   0  0  1  0  0  0  0  0  0  0  0  0
   21.5461  -25.5322   10.2939 C   0  0  0  0  0  0  0  0  0  0  0  0
   20.4336  -24.7471    9.7011 C   0  0  0  0  0  0  0  0  0  0  0  0
   19.1054  -25.1081    9.5556 C   0  0  0  0  0  0  0  0  0  0  0  0
   18.4818  -24.0747    8.9660 N   0  0  0  0  0  0  0  0  0  0  0  0
   19.3198  -23.0741    8.7229 C   0  0  0  0  0  0  0  0  0  0  0  0
   19.1636  -21.8246    8.1462 C   0  0  0  0  0  0  0  0  0  0  0  0
   20.2689  -21.0275    8.0523 C   0  0  0  0  0  0  0  0  0  0  0  0
   21.5105  -21.4141    8.5021 C   0  0  0  0  0  0  0  0  0  0  0  0
   21.6717  -22.6464    9.0725 C   0  0  0  0  0  0  0  0  0  0  0  0
   20.5761  -23.4699    9.1800 C   0  0  0  0  0  0  0  0  0  0  0  0
   23.3245  -27.0834    9.8352 C   0  0  0  0  0  0  0  0  0  0  0  0
   23.6030  -27.5478   10.9696 O   0  0  0  0  0  0  0  0  0  0  0  0
   28.4769  -28.4308    6.8993 C   0  0  0  0  0  0  0  0  0  0  0  0
   27.6130  -28.4070    8.1560 C   0  0  2  0  0  0  0  0  0  0  0  0
   26.8547  -29.6896    8.3164 C   0  0  0  0  0  0  0  0  0  0  0  0
   26.6781  -27.2305    8.1448 C   0  0  0  0  0  0  0  0  0  0  0  0
   25.7710  -27.1255    9.3266 C   0  0  2  0  0  0  0  0  0  0  0  0
   24.3925  -26.8906    8.9228 N   0  0  0  0  0  0  0  0  0  0  0  0
   26.2229  -26.1660   10.3300 C   0  0  0  0  0  0  0  0  0  0  0  0
   25.8334  -24.9796   10.3198 O   0  0  0  0  0  0  0  0  0  0  0  0
   28.2574  -25.3041   14.6186 O   0  0  0  0  0  0  0  0  0  0  0  0
   28.0435  -26.2890   13.6549 C   0  0  0  0  0  0  0  0  0  0  0  0
   27.5595  -25.5849   12.4050 C   0  0  2  0  0  0  0  0  0  0  0  0
   27.1322  -26.5023   11.3870 N   0  0  0  0  0  0  0  0  0  0  0  0
   28.6518  -24.7307   11.9221 C   0  0  0  0  0  0  0  0  0  0  0  0
   29.3227  -25.0999   10.9296 O   0  0  0  0  0  0  0  0  0  0  0  0
   28.9735  -23.5269   12.5219 O   0  0  0  0  0  0  0  0  0  0  0  0
  2  1  1  1
  2 13  1  0
  3  2  1  0
  4  3  1  0
  4 12  1  0
  5  6  1  0
  5  4  2  0
  6  7  1  0
  7 12  2  0
  7  8  1  0
  8  9  2  0
  9 10  1  0
 11 10  2  0
 12 11  1  0
 13 14  2  0
 16 18  1  0
 16 15  1  6
 17 16  1  0
 19 18  1  6
 19 21  1  0
 20 19  1  0
 20 13  1  0
 21 22  2  0
 23 24  1  0
 25 24  1  1
 25 27  1  0
 26 25  1  0
 26 21  1  0
 27 28  2  0
 27 29  1  0
M  END
$$$$
