WLS.pdb
     RDKit          3D

 29 30  0  0  1  0  0  0  0  0999 V2000
   24.6216  -19.2860  -11.3022 N   0  0  0  0  0  0  0  0  0  0  0  0
   26.0013  -19.7074  -11.4485 C   0  0  1  0  0  0  0  0  0  0  0  0
   26.1729  -20.9674  -10.6260 C   0  0  0  0  0  0  0  0  0  0  0  0
   26.1335  -20.6996   -9.1658 C   0  0  0  0  0  0  0  0  0  0  0  0
   25.0457  -20.7402   -8.3108 C   0  0  0  0  0  0  0  0  0  0  0  0
   25.4991  -20.4249   -7.0863 N   0  0  0  0  0  0  0  0  0  0  0  0
   26.8047  -20.1845   -7.0968 C   0  0  0  0  0  0  0  0  0  0  0  0
   27.7122  -19.8305   -6.1123 C   0  0  0  0  0  0  0  0  0  0  0  0
   29.0154  -19.6589   -6.4839 C   0  0  0  0  0  0  0  0  0  0  0  0
   29.4519  -19.8222   -7.7785 C   0  0  0  0  0  0  0  0  0  0  0  0
   28.5612  -20.1716   -8.7555 C   0  0  0  0  0  0  0  0  0  0  0  0
   27.2427  -20.3510   -8.4100 C   0  0  0  0  0  0  0  0  0  0  0  0
   26.2225  -20.1279  -12.8781 C   0  0  0  0  0  0  0  0  0  0  0  0
   25.3413  -20.7606  -13.5131 O   0  0  0  0  0  0  0  0  0  0  0  0
   29.4332  -17.4511  -16.9895 C   0  0  0  0  0  0  0  0  0  0  0  0
   28.2853  -18.3856  -16.6219 C   0  0  2  0  0  0  0  0  0  0  0  0
   27.0853  -17.6147  -16.1619 C   0  0  0  0  0  0  0  0  0  0  0  0
   28.7133  -19.3809  -15.5806 C   0  0  0  0  0  0  0  0  0  0  0  0
   27.6073  -20.1683  -14.9582 C   0  0  2  0  0  0  0  0  0  0  0  0
   27.4309  -19.8245  -13.5549 N   0  0  0  0  0  0  0  0  0  0  0  0
   27.7254  -21.6091  -15.1624 C   0  0  0  0  0  0  0  0  0  0  0  0
   28.4863  -22.3071  -14.4601 O   0  0  0  0  0  0  0  0  0  0  0  0
   24.8534  -23.7245  -16.8753 O   0  0  0  0  0  0  0  0  0  0  0  0
   25.8544  -24.4951  -16.2848 C   0  0  0  0  0  0  0  0  0  0  0  0
   27.1494  -23.7254  -16.4349 C   0  0  2  0  0  0  0  0  0  0  0  0
   26.9914  -22.3243  -16.1658 N   0  0  0  0  0  0  0  0  0  0  0  0
   27.6465  -23.9491  -17.7983 C   0  0  0  0  0  0  0  0  0  0  0  0
   27.6996  -22.9828  -18.5951 O   0  0  0  0  0  0  0  0  0  0  0  0
   28.0614  -25.1911  -18.2428 O   0  0  0  0  0  0  0  0  0  0  0  0
  2  1  1  6
  2 13  1  0
  3  2  1  0
  4  3  1  0
  4 12  1  0
  5  6  1  0
  5  4  2  0
  6  7  1  0
  7 12  2  0
  7  8  1  0
  8  9  2  0
  9 10  1  0
 11 10  2  0
 12 11  1  0
 13 14  2  0
 16 18  1  0
 16 15  1  1
 17 16  1  0
 19 18  1  1
 19 21  1  0
 20 19  1  0
 20 13  1  0
 21 22  2  0
 23 24  1  0
 25 24  1  6
 25 27  1  0
 26 25  1  0
 26 21  1  0
 27 28  2  0
 27 29  1  0
M  END
$$$$
