WLS.pdb
     RDKit          3D

 29 30  0  0  1  0  0  0  0  0999 V2000
   25.5022  -22.4554  -13.9679 N   0  0  0  0  0  0  0  0  0  0  0  0
   24.8019  -21.1976  -13.7941 C   0  0  1  0  0  0  0  0  0  0  0  0
   25.7209  -20.2787  -13.0164 C   0  0  0  0  0  0  0  0  0  0  0  0
   25.7900  -20.6342  -11.5762 C   0  0  0  0  0  0  0  0  0  0  0  0
   26.9082  -20.9133  -10.8097 C   0  0  0  0  0  0  0  0  0  0  0  0
   26.4736  -21.1795   -9.5669 N   0  0  0  0  0  0  0  0  0  0  0  0
   25.1516  -21.0902   -9.4832 C   0  0  0  0  0  0  0  0  0  0  0  0
   24.2526  -21.2679   -8.4447 C   0  0  0  0  0  0  0  0  0  0  0  0
   22.9259  -21.0913   -8.7181 C   0  0  0  0  0  0  0  0  0  0  0  0
   22.4583  -20.7491   -9.9661 C   0  0  0  0  0  0  0  0  0  0  0  0
   23.3405  -20.5721  -10.9958 C   0  0  0  0  0  0  0  0  0  0  0  0
   24.6821  -20.7435  -10.7493 C   0  0  0  0  0  0  0  0  0  0  0  0
   24.6384  -20.5521  -15.1454 C   0  0  0  0  0  0  0  0  0  0  0  0
   25.3486  -20.9006  -16.1223 O   0  0  0  0  0  0  0  0  0  0  0  0
   22.0046  -19.4183  -19.2195 C   0  0  0  0  0  0  0  0  0  0  0  0
   21.2577  -19.3450  -17.8918 C   0  0  2  0  0  0  0  0  0  0  0  0
   19.8853  -18.7712  -18.0733 C   0  0  0  0  0  0  0  0  0  0  0  0
   22.0375  -18.5563  -16.8778 C   0  0  0  0  0  0  0  0  0  0  0  0
   23.4562  -18.9838  -16.6911 C   0  0  2  0  0  0  0  0  0  0  0  0
   23.6788  -19.5307  -15.3608 N   0  0  0  0  0  0  0  0  0  0  0  0
   24.4303  -17.9514  -17.0330 C   0  0  0  0  0  0  0  0  0  0  0  0
   24.2835  -16.7680  -16.6626 O   0  0  0  0  0  0  0  0  0  0  0  0
   28.1990  -18.9093  -17.7780 O   0  0  0  0  0  0  0  0  0  0  0  0
   27.9580  -17.5650  -17.4970 C   0  0  0  0  0  0  0  0  0  0  0  0
   26.6121  -17.2230  -18.1003 C   0  0  2  0  0  0  0  0  0  0  0  0
   25.6107  -18.2085  -17.8062 N   0  0  0  0  0  0  0  0  0  0  0  0
   26.7971  -17.0734  -19.5492 C   0  0  0  0  0  0  0  0  0  0  0  0
   26.1164  -17.7814  -20.3280 O   0  0  0  0  0  0  0  0  0  0  0  0
   27.6983  -16.1770  -20.0938 O   0  0  0  0  0  0  0  0  0  0  0  0
  2  1  1  6
  2 13  1  0
  3  2  1  0
  4  3  1  0
  4 12  1  0
  5  6  1  0
  5  4  2  0
  6  7  1  0
  7 12  2  0
  7  8  1  0
  8  9  2  0
  9 10  1  0
 11 10  2  0
 12 11  1  0
 13 14  2  0
 16 18  1  0
 16 15  1  6
 17 16  1  0
 19 18  1  1
 19 21  1  0
 20 19  1  0
 20 13  1  0
 21 22  2  0
 23 24  1  0
 25 24  1  1
 25 27  1  0
 26 25  1  0
 26 21  1  0
 27 28  2  0
 27 29  1  0
M  END
$$$$
