WLS.pdb
     RDKit          3D

 29 30  0  0  1  0  0  0  0  0999 V2000
   25.2950  -18.5401   -9.3180 N   0  0  0  0  0  0  0  0  0  0  0  0
   26.2926  -19.5289   -9.6779 C   0  0  1  0  0  0  0  0  0  0  0  0
   26.5739  -20.3512   -8.4376 C   0  0  0  0  0  0  0  0  0  0  0  0
   27.2666  -19.5669   -7.3838 C   0  0  0  0  0  0  0  0  0  0  0  0
   27.6789  -18.2462   -7.4227 C   0  0  0  0  0  0  0  0  0  0  0  0
   28.2571  -17.9823   -6.2393 N   0  0  0  0  0  0  0  0  0  0  0  0
   28.2441  -19.0442   -5.4428 C   0  0  0  0  0  0  0  0  0  0  0  0
   28.7054  -19.2713   -4.1567 C   0  0  0  0  0  0  0  0  0  0  0  0
   28.5209  -20.5174   -3.6282 C   0  0  0  0  0  0  0  0  0  0  0  0
   27.9039  -21.5375   -4.3151 C   0  0  0  0  0  0  0  0  0  0  0  0
   27.4461  -21.3201   -5.5852 C   0  0  0  0  0  0  0  0  0  0  0  0
   27.6184  -20.0752   -6.1424 C   0  0  0  0  0  0  0  0  0  0  0  0
   25.6794  -20.4877  -10.6648 C   0  0  0  0  0  0  0  0  0  0  0  0
   24.4510  -20.7531  -10.6355 O   0  0  0  0  0  0  0  0  0  0  0  0
   28.6147  -20.9233  -15.8281 C   0  0  0  0  0  0  0  0  0  0  0  0
   27.4111  -20.5240  -14.9807 C   0  0  2  0  0  0  0  0  0  0  0  0
   27.6350  -19.2024  -14.3106 C   0  0  0  0  0  0  0  0  0  0  0  0
   27.0868  -21.5881  -13.9703 C   0  0  0  0  0  0  0  0  0  0  0  0
   25.9804  -21.2536  -13.0246 C   0  0  2  0  0  0  0  0  0  0  0  0
   26.4662  -21.1225  -11.6589 N   0  0  0  0  0  0  0  0  0  0  0  0
   24.8354  -22.1546  -13.1186 C   0  0  0  0  0  0  0  0  0  0  0  0
   24.8613  -23.2968  -12.6144 O   0  0  0  0  0  0  0  0  0  0  0  0
   20.8692  -21.0249  -13.2932 O   0  0  0  0  0  0  0  0  0  0  0  0
   21.3875  -22.2401  -12.8470 C   0  0  0  0  0  0  0  0  0  0  0  0
   22.4554  -22.6540  -13.8371 C   0  0  2  0  0  0  0  0  0  0  0  0
   23.6133  -21.8071  -13.7839 N   0  0  0  0  0  0  0  0  0  0  0  0
   21.8524  -22.6414  -15.1758 C   0  0  0  0  0  0  0  0  0  0  0  0
   22.2632  -21.8137  -16.0229 O   0  0  0  0  0  0  0  0  0  0  0  0
   20.8423  -23.5116  -15.5432 O   0  0  0  0  0  0  0  0  0  0  0  0
  2  1  1  1
  2 13  1  0
  3  2  1  0
  4  3  1  0
  4 12  1  0
  5  6  1  0
  5  4  2  0
  6  7  1  0
  7 12  2  0
  7  8  1  0
  8  9  2  0
  9 10  1  0
 11 10  2  0
 12 11  1  0
 13 14  2  0
 16 18  1  0
 16 15  1  1
 17 16  1  0
 19 18  1  6
 19 21  1  0
 20 19  1  0
 20 13  1  0
 21 22  2  0
 23 24  1  0
 25 24  1  1
 25 27  1  0
 26 25  1  0
 26 21  1  0
 27 28  2  0
 27 29  1  0
M  END
$$$$
