WLS.pdb
     RDKit          3D

 29 30  0  0  1  0  0  0  0  0999 V2000
   25.8047  -19.8468  -16.3612 N   0  0  0  0  0  0  0  0  0  0  0  0
   25.4362  -19.0865  -15.1828 C   0  0  1  0  0  0  0  0  0  0  0  0
   24.2945  -18.1739  -15.5793 C   0  0  0  0  0  0  0  0  0  0  0  0
   24.7158  -17.1275  -16.5452 C   0  0  0  0  0  0  0  0  0  0  0  0
   24.2869  -16.9325  -17.8467 C   0  0  0  0  0  0  0  0  0  0  0  0
   24.9494  -15.8644  -18.3206 N   0  0  0  0  0  0  0  0  0  0  0  0
   25.7749  -15.3600  -17.4115 C   0  0  0  0  0  0  0  0  0  0  0  0
   26.6520  -14.2881  -17.4172 C   0  0  0  0  0  0  0  0  0  0  0  0
   27.3655  -14.0471  -16.2775 C   0  0  0  0  0  0  0  0  0  0  0  0
   27.2464  -14.8172  -15.1435 C   0  0  0  0  0  0  0  0  0  0  0  0
   26.3823  -15.8770  -15.1310 C   0  0  0  0  0  0  0  0  0  0  0  0
   25.6512  -16.1430  -16.2645 C   0  0  0  0  0  0  0  0  0  0  0  0
   24.8575  -20.0347  -14.1652 C   0  0  0  0  0  0  0  0  0  0  0  0
   24.3143  -21.1125  -14.5164 O   0  0  0  0  0  0  0  0  0  0  0  0
   25.5547  -21.3797   -8.2481 C   0  0  0  0  0  0  0  0  0  0  0  0
   25.0631  -21.6917   -9.6578 C   0  0  2  0  0  0  0  0  0  0  0  0
   26.0168  -22.5975  -10.3760 C   0  0  0  0  0  0  0  0  0  0  0  0
   24.8328  -20.4292  -10.4397 C   0  0  0  0  0  0  0  0  0  0  0  0
   24.2671  -20.6210  -11.8085 C   0  0  2  0  0  0  0  0  0  0  0  0
   24.9058  -19.7435  -12.7783 N   0  0  0  0  0  0  0  0  0  0  0  0
   22.8107  -20.5322  -11.8596 C   0  0  0  0  0  0  0  0  0  0  0  0
   22.2181  -19.4433  -11.7095 O   0  0  0  0  0  0  0  0  0  0  0  0
   20.6343  -23.9248  -12.3773 O   0  0  0  0  0  0  0  0  0  0  0  0
   19.9085  -22.8084  -12.7910 C   0  0  0  0  0  0  0  0  0  0  0  0
   20.5268  -21.6045  -12.1125 C   0  0  2  0  0  0  0  0  0  0  0  0
   21.9607  -21.6658  -12.0821 N   0  0  0  0  0  0  0  0  0  0  0  0
   19.9723  -21.5229  -10.7554 C   0  0  0  0  0  0  0  0  0  0  0  0
   18.7384  -21.3573  -10.6089 O   0  0  0  0  0  0  0  0  0  0  0  0
   20.7612  -21.6217   -9.6239 O   0  0  0  0  0  0  0  0  0  0  0  0
  2  1  1  6
  2 13  1  0
  3  2  1  0
  4  3  1  0
  4 12  1  0
  5  6  1  0
  5  4  2  0
  6  7  1  0
  7 12  2  0
  7  8  1  0
  8  9  2  0
  9 10  1  0
 11 10  2  0
 12 11  1  0
 13 14  2  0
 16 18  1  0
 16 15  1  1
 17 16  1  0
 19 18  1  1
 19 21  1  0
 20 19  1  0
 20 13  1  0
 21 22  2  0
 23 24  1  0
 25 24  1  1
 25 27  1  0
 26 25  1  0
 26 21  1  0
 27 28  2  0
 27 29  1  0
M  END
$$$$
