WLS.pdb
     RDKit          3D

 29 30  0  0  1  0  0  0  0  0999 V2000
   27.1915  -21.8010   -8.8899 N   0  0  0  0  0  0  0  0  0  0  0  0
   26.0367  -20.9287   -8.7999 C   0  0  1  0  0  0  0  0  0  0  0  0
   26.4835  -19.6685   -8.0886 C   0  0  0  0  0  0  0  0  0  0  0  0
   26.6371  -19.8690   -6.6252 C   0  0  0  0  0  0  0  0  0  0  0  0
   25.7871  -20.5236   -5.7507 C   0  0  0  0  0  0  0  0  0  0  0  0
   26.3453  -20.4459   -4.5314 N   0  0  0  0  0  0  0  0  0  0  0  0
   27.4965  -19.7856   -4.5635 C   0  0  0  0  0  0  0  0  0  0  0  0
   28.4248  -19.4492   -3.5921 C   0  0  0  0  0  0  0  0  0  0  0  0
   29.5275  -18.7457   -3.9860 C   0  0  0  0  0  0  0  0  0  0  0  0
   29.7458  -18.3655   -5.2903 C   0  0  0  0  0  0  0  0  0  0  0  0
   28.8334  -18.6943   -6.2543 C   0  0  0  0  0  0  0  0  0  0  0  0
   27.7138  -19.4023   -5.8863 C   0  0  0  0  0  0  0  0  0  0  0  0
   25.6594  -20.4920  -10.1915 C   0  0  0  0  0  0  0  0  0  0  0  0
   25.7149  -19.2829  -10.5306 O   0  0  0  0  0  0  0  0  0  0  0  0
   26.2957  -22.2791  -15.9018 C   0  0  0  0  0  0  0  0  0  0  0  0
   25.4718  -21.4044  -14.9625 C   0  0  2  0  0  0  0  0  0  0  0  0
   25.7243  -19.9493  -15.2164 C   0  0  0  0  0  0  0  0  0  0  0  0
   25.7434  -21.7519  -13.5259 C   0  0  0  0  0  0  0  0  0  0  0  0
   24.9238  -21.0075  -12.5237 C   0  0  2  0  0  0  0  0  0  0  0  0
   25.2291  -21.4293  -11.1645 N   0  0  0  0  0  0  0  0  0  0  0  0
   23.4905  -21.0349  -12.8008 C   0  0  0  0  0  0  0  0  0  0  0  0
   22.8010  -22.0500  -12.5698 O   0  0  0  0  0  0  0  0  0  0  0  0
   21.8536  -17.9281  -14.7425 O   0  0  0  0  0  0  0  0  0  0  0  0
   20.8445  -18.5588  -14.0156 C   0  0  0  0  0  0  0  0  0  0  0  0
   21.3666  -19.9273  -13.6327 C   0  0  2  0  0  0  0  0  0  0  0  0
   22.7738  -19.9202  -13.3493 N   0  0  0  0  0  0  0  0  0  0  0  0
   21.0535  -20.8485  -14.7324 C   0  0  0  0  0  0  0  0  0  0  0  0
   21.9799  -21.2495  -15.4756 O   0  0  0  0  0  0  0  0  0  0  0  0
   19.7691  -21.2951  -14.9838 O   0  0  0  0  0  0  0  0  0  0  0  0
  2  1  1  6
  2 13  1  0
  3  2  1  0
  4  3  1  0
  4 12  1  0
  5  6  1  0
  5  4  2  0
  6  7  1  0
  7 12  2  0
  7  8  1  0
  8  9  2  0
  9 10  1  0
 11 10  2  0
 12 11  1  0
 13 14  2  0
 16 18  1  0
 16 15  1  6
 17 16  1  0
 19 18  1  6
 19 21  1  0
 20 19  1  0
 20 13  1  0
 21 22  2  0
 23 24  1  0
 25 24  1  6
 25 27  1  0
 26 25  1  0
 26 21  1  0
 27 28  2  0
 27 29  1  0
M  END
$$$$
