WLS.pdb
     RDKit          3D

 29 30  0  0  1  0  0  0  0  0999 V2000
   24.3594  -19.4599  -10.3471 N   0  0  0  0  0  0  0  0  0  0  0  0
   25.7208  -19.9049  -10.5731 C   0  0  1  0  0  0  0  0  0  0  0  0
   25.9198  -21.1653   -9.7573 C   0  0  0  0  0  0  0  0  0  0  0  0
   26.0459  -20.8849   -8.3045 C   0  0  0  0  0  0  0  0  0  0  0  0
   25.0469  -20.8224   -7.3485 C   0  0  0  0  0  0  0  0  0  0  0  0
   25.6429  -20.5403   -6.1782 N   0  0  0  0  0  0  0  0  0  0  0  0
   26.9574  -20.4174   -6.3178 C   0  0  0  0  0  0  0  0  0  0  0  0
   27.9838  -20.1388   -5.4305 C   0  0  0  0  0  0  0  0  0  0  0  0
   29.2549  -20.0867   -5.9282 C   0  0  0  0  0  0  0  0  0  0  0  0
   29.5476  -20.2972   -7.2561 C   0  0  0  0  0  0  0  0  0  0  0  0
   28.5390  -20.5727   -8.1374 C   0  0  0  0  0  0  0  0  0  0  0  0
   27.2496  -20.6314   -7.6642 C   0  0  0  0  0  0  0  0  0  0  0  0
   25.8499  -20.3331  -12.0117 C   0  0  0  0  0  0  0  0  0  0  0  0
   24.8834  -20.8536  -12.6240 O   0  0  0  0  0  0  0  0  0  0  0  0
   28.2448  -19.8764  -16.8876 C   0  0  0  0  0  0  0  0  0  0  0  0
   27.9794  -18.6135  -16.0747 C   0  0  2  0  0  0  0  0  0  0  0  0
   28.9700  -17.5386  -16.4049 C   0  0  0  0  0  0  0  0  0  0  0  0
   27.9832  -18.9104  -14.6016 C   0  0  0  0  0  0  0  0  0  0  0  0
   27.0677  -20.0085  -14.1699 C   0  0  2  0  0  0  0  0  0  0  0  0
   27.0649  -20.1639  -12.7227 N   0  0  0  0  0  0  0  0  0  0  0  0
   27.3022  -21.2736  -14.8599 C   0  0  0  0  0  0  0  0  0  0  0  0
   28.3697  -21.9057  -14.7181 O   0  0  0  0  0  0  0  0  0  0  0  0
   24.2334  -23.0477  -16.8385 O   0  0  0  0  0  0  0  0  0  0  0  0
   25.2263  -23.9455  -16.4481 C   0  0  0  0  0  0  0  0  0  0  0  0
   26.5188  -23.1622  -16.3598 C   0  0  2  0  0  0  0  0  0  0  0  0
   26.3441  -21.8801  -15.7382 N   0  0  0  0  0  0  0  0  0  0  0  0
   27.0499  -23.0215  -17.7214 C   0  0  0  0  0  0  0  0  0  0  0  0
   27.4576  -24.0410  -18.3262 O   0  0  0  0  0  0  0  0  0  0  0  0
   27.1193  -21.8015  -18.3688 O   0  0  0  0  0  0  0  0  0  0  0  0
  2  1  1  6
  2 13  1  0
  3  2  1  0
  4  3  1  0
  4 12  1  0
  5  6  1  0
  5  4  2  0
  6  7  1  0
  7 12  2  0
  7  8  1  0
  8  9  2  0
  9 10  1  0
 11 10  2  0
 12 11  1  0
 13 14  2  0
 16 18  1  0
 16 15  1  6
 17 16  1  0
 19 18  1  1
 19 21  1  0
 20 19  1  0
 20 13  1  0
 21 22  2  0
 23 24  1  0
 25 24  1  6
 25 27  1  0
 26 25  1  0
 26 21  1  0
 27 28  2  0
 27 29  1  0
M  END
$$$$
