NIL.pdb
     RDKit          3D

 25 24  0  0  1  0  0  0  0  0999 V2000
   15.0374  -17.6173   18.3913 N   0  0  0  0  0  0  0  0  0  0  0  0
   13.7177  -18.0546   18.6527 C   0  0  0  0  0  0  0  0  0  0  0  0
   13.4472  -19.2585   18.5007 O   0  0  0  0  0  0  0  0  0  0  0  0
   12.6487  -17.1257   19.1010 C   0  0  0  0  0  0  0  0  0  0  0  0
   11.9402  -17.6745   20.3219 C   0  0  2  0  0  0  0  0  0  0  0  0
   10.8180  -18.4598   19.8638 N   0  0  0  0  0  0  0  0  0  0  0  0
   11.4601  -16.5718   21.2095 C   0  0  0  0  0  0  0  0  0  0  0  0
   12.2343  -15.6696   21.6127 O   0  0  0  0  0  0  0  0  0  0  0  0
    6.4536  -14.1732   20.4893 C   0  0  0  0  0  0  0  0  0  0  0  0
    7.8948  -14.4621   20.7841 C   0  0  0  0  0  0  0  0  0  0  0  0
    8.2353  -14.9564   22.1358 C   0  0  2  0  0  0  0  0  0  0  0  0
    7.6275  -14.0714   23.2355 C   0  0  0  0  0  0  0  0  0  0  0  0
    9.6008  -15.3852   22.4384 C   0  0  2  0  0  0  0  0  0  0  0  0
   10.1227  -16.4703   21.6492 N   0  0  0  0  0  0  0  0  0  0  0  0
    9.7482  -15.7659   23.8553 C   0  0  0  0  0  0  0  0  0  0  0  0
    9.6658  -16.9959   24.1521 O   0  0  0  0  0  0  0  0  0  0  0  0
    9.7315  -13.6638   29.6269 C   0  0  0  0  0  0  0  0  0  0  0  0
   10.1412  -14.7726   28.6367 C   0  0  2  0  0  0  0  0  0  0  0  0
   11.4733  -15.3126   29.0356 C   0  0  0  0  0  0  0  0  0  0  0  0
   10.1023  -14.2508   27.2441 C   0  0  0  0  0  0  0  0  0  0  0  0
   10.1263  -15.4262   26.2628 C   0  0  2  0  0  0  0  0  0  0  0  0
    9.9819  -14.8448   24.9052 N   0  0  0  0  0  0  0  0  0  0  0  0
    8.9853  -16.3114   26.4797 C   0  0  0  0  0  0  0  0  0  0  0  0
    7.7118  -15.9297   26.1197 O   0  0  0  0  0  0  0  0  0  0  0  0
    9.1303  -17.4373   26.9996 O   0  0  0  0  0  0  0  0  0  0  0  0
  1  2  1  0
  2  4  1  0
  3  2  2  0
  4  5  1  0
  5  6  1  6
  7  5  1  0
  8  7  2  0
  9 10  1  0
 11 10  1  0
 11 13  1  0
 11 12  1  1
 13 15  1  0
 13 14  1  6
 14  7  1  0
 15 16  2  0
 18 17  1  1
 18 20  1  0
 19 18  1  0
 21 20  1  1
 22 21  1  0
 22 15  1  0
 23 24  1  0
 23 21  1  0
 25 23  2  0
M  END
$$$$
