NIL.pdb
     RDKit          3D

 25 24  0  0  1  0  0  0  0  0999 V2000
    8.1537  -19.2307   19.7867 N   0  0  0  0  0  0  0  0  0  0  0  0
    9.4592  -18.7175   19.9692 C   0  0  0  0  0  0  0  0  0  0  0  0
   10.3196  -18.9544   19.1036 O   0  0  0  0  0  0  0  0  0  0  0  0
    9.8342  -17.9078   21.1568 C   0  0  0  0  0  0  0  0  0  0  0  0
    9.1848  -16.5408   21.0992 C   0  0  2  0  0  0  0  0  0  0  0  0
    9.7686  -15.8223   19.9907 N   0  0  0  0  0  0  0  0  0  0  0  0
    9.4062  -15.7833   22.3687 C   0  0  0  0  0  0  0  0  0  0  0  0
   10.4867  -15.1863   22.5969 O   0  0  0  0  0  0  0  0  0  0  0  0
    5.5174  -12.7383   25.0834 C   0  0  0  0  0  0  0  0  0  0  0  0
    6.7782  -13.2963   24.4949 C   0  0  0  0  0  0  0  0  0  0  0  0
    7.4658  -14.3750   25.2374 C   0  0  2  0  0  0  0  0  0  0  0  0
    7.6626  -14.0114   26.7176 C   0  0  0  0  0  0  0  0  0  0  0  0
    8.6303  -15.0411   24.6539 C   0  0  2  0  0  0  0  0  0  0  0  0
    8.4300  -15.6884   23.3837 N   0  0  0  0  0  0  0  0  0  0  0  0
    9.1961  -16.0467   25.5719 C   0  0  0  0  0  0  0  0  0  0  0  0
    9.2999  -17.2400   25.1557 O   0  0  0  0  0  0  0  0  0  0  0  0
   11.4684  -13.8926   28.1561 C   0  0  0  0  0  0  0  0  0  0  0  0
   10.5125  -14.7860   28.9722 C   0  0  2  0  0  0  0  0  0  0  0  0
   10.4479  -14.2766   30.3728 C   0  0  0  0  0  0  0  0  0  0  0  0
   10.9376  -16.2082   28.8742 C   0  0  0  0  0  0  0  0  0  0  0  0
   10.5557  -16.7563   27.4961 C   0  0  2  0  0  0  0  0  0  0  0  0
    9.6367  -15.7628   26.8874 N   0  0  0  0  0  0  0  0  0  0  0  0
    9.8190  -18.0112   27.6186 C   0  0  0  0  0  0  0  0  0  0  0  0
   10.4610  -19.1813   27.9589 O   0  0  0  0  0  0  0  0  0  0  0  0
    8.5880  -18.0605   27.4160 O   0  0  0  0  0  0  0  0  0  0  0  0
  1  2  1  0
  2  4  1  0
  3  2  2  0
  4  5  1  0
  5  6  1  6
  7  5  1  0
  8  7  2  0
  9 10  1  0
 11 10  1  0
 11 13  1  0
 11 12  1  1
 13 15  1  0
 13 14  1  6
 14  7  1  0
 15 16  2  0
 18 17  1  6
 18 20  1  0
 19 18  1  0
 21 20  1  1
 22 21  1  0
 22 15  1  0
 23 24  1  0
 23 21  1  0
 25 23  2  0
M  END
$$$$
