NIL.pdb
     RDKit          3D

 25 24  0  0  1  0  0  0  0  0999 V2000
    6.6155  -17.0690   19.4136 N   0  0  0  0  0  0  0  0  0  0  0  0
    7.2342  -17.8790   20.3945 C   0  0  0  0  0  0  0  0  0  0  0  0
    7.1112  -19.1134   20.3128 O   0  0  0  0  0  0  0  0  0  0  0  0
    8.0230  -17.3049   21.5147 C   0  0  0  0  0  0  0  0  0  0  0  0
    7.8252  -15.8055   21.5952 C   0  0  2  0  0  0  0  0  0  0  0  0
    8.4063  -15.2204   20.4096 N   0  0  0  0  0  0  0  0  0  0  0  0
    8.4789  -15.2388   22.8141 C   0  0  0  0  0  0  0  0  0  0  0  0
    9.7185  -15.0472   22.8653 O   0  0  0  0  0  0  0  0  0  0  0  0
    5.7876  -11.6692   26.2380 C   0  0  0  0  0  0  0  0  0  0  0  0
    6.8102  -12.3815   25.4048 C   0  0  0  0  0  0  0  0  0  0  0  0
    7.5258  -13.5210   26.0186 C   0  0  2  0  0  0  0  0  0  0  0  0
    8.2065  -13.1220   27.3375 C   0  0  0  0  0  0  0  0  0  0  0  0
    8.3540  -14.3992   25.1921 C   0  0  2  0  0  0  0  0  0  0  0  0
    7.7580  -14.8850   23.9750 N   0  0  0  0  0  0  0  0  0  0  0  0
    8.8204  -15.5752   25.9494 C   0  0  0  0  0  0  0  0  0  0  0  0
    7.9462  -16.3555   26.4337 O   0  0  0  0  0  0  0  0  0  0  0  0
   11.1384  -19.1330   24.6426 C   0  0  0  0  0  0  0  0  0  0  0  0
   11.8069  -17.7984   25.0297 C   0  0  2  0  0  0  0  0  0  0  0  0
   13.1658  -17.7397   24.4173 C   0  0  0  0  0  0  0  0  0  0  0  0
   11.8126  -17.6427   26.5092 C   0  0  0  0  0  0  0  0  0  0  0  0
   10.4513  -17.1112   26.9670 C   0  0  2  0  0  0  0  0  0  0  0  0
   10.1837  -15.8916   26.1650 N   0  0  0  0  0  0  0  0  0  0  0  0
   10.4927  -16.7079   28.3699 C   0  0  0  0  0  0  0  0  0  0  0  0
   10.6101  -17.6429   29.3744 O   0  0  0  0  0  0  0  0  0  0  0  0
   10.4201  -15.5058   28.6993 O   0  0  0  0  0  0  0  0  0  0  0  0
  1  2  1  0
  2  4  1  0
  3  2  2  0
  4  5  1  0
  5  6  1  6
  7  5  1  0
  8  7  2  0
  9 10  1  0
 11 10  1  0
 11 13  1  0
 11 12  1  1
 13 15  1  0
 13 14  1  6
 14  7  1  0
 15 16  2  0
 18 17  1  1
 18 20  1  0
 19 18  1  0
 21 20  1  6
 22 21  1  0
 22 15  1  0
 23 24  1  0
 23 21  1  0
 25 23  2  0
M  END
$$$$
