NIL.pdb
     RDKit          3D

 25 24  0  0  1  0  0  0  0  0999 V2000
   12.3717  -21.2073   20.3791 N   0  0  0  0  0  0  0  0  0  0  0  0
   11.3727  -20.2605   20.7059 C   0  0  0  0  0  0  0  0  0  0  0  0
   10.1793  -20.5854   20.5803 O   0  0  0  0  0  0  0  0  0  0  0  0
   11.7020  -18.8961   21.1922 C   0  0  0  0  0  0  0  0  0  0  0  0
   11.1297  -17.8447   20.2645 C   0  0  2  0  0  0  0  0  0  0  0  0
   12.1545  -17.4963   19.3084 N   0  0  0  0  0  0  0  0  0  0  0  0
   10.7070  -16.6276   21.0223 C   0  0  0  0  0  0  0  0  0  0  0  0
   11.5409  -15.9035   21.6193 O   0  0  0  0  0  0  0  0  0  0  0  0
    6.8342  -13.0702   19.1893 C   0  0  0  0  0  0  0  0  0  0  0  0
    8.0274  -13.6820   19.8594 C   0  0  0  0  0  0  0  0  0  0  0  0
    7.8346  -14.2766   21.1999 C   0  0  2  0  0  0  0  0  0  0  0  0
    7.1604  -13.2916   22.1680 C   0  0  0  0  0  0  0  0  0  0  0  0
    8.9122  -15.0433   21.8250 C   0  0  2  0  0  0  0  0  0  0  0  0
    9.3607  -16.2143   21.1177 N   0  0  0  0  0  0  0  0  0  0  0  0
    8.5535  -15.4689   23.1904 C   0  0  0  0  0  0  0  0  0  0  0  0
    8.2426  -16.6847   23.3718 O   0  0  0  0  0  0  0  0  0  0  0  0
    7.1511  -12.6587   25.3797 C   0  0  0  0  0  0  0  0  0  0  0  0
    7.4066  -13.3171   26.7505 C   0  0  2  0  0  0  0  0  0  0  0  0
    7.4706  -12.2547   27.7957 C   0  0  0  0  0  0  0  0  0  0  0  0
    8.6269  -14.1657   26.6876 C   0  0  0  0  0  0  0  0  0  0  0  0
    8.4257  -15.2637   25.6391 C   0  0  2  0  0  0  0  0  0  0  0  0
    8.5399  -14.6065   24.3135 N   0  0  0  0  0  0  0  0  0  0  0  0
    7.0832  -15.8315   25.7280 C   0  0  0  0  0  0  0  0  0  0  0  0
    6.7794  -16.7928   26.6664 O   0  0  0  0  0  0  0  0  0  0  0  0
    6.1737  -15.4646   24.9552 O   0  0  0  0  0  0  0  0  0  0  0  0
  1  2  1  0
  2  4  1  0
  3  2  2  0
  4  5  1  0
  5  6  1  6
  7  5  1  0
  8  7  2  0
  9 10  1  0
 11 10  1  0
 11 13  1  0
 11 12  1  1
 13 15  1  0
 13 14  1  6
 14  7  1  0
 15 16  2  0
 18 17  1  6
 18 20  1  0
 19 18  1  0
 21 20  1  1
 22 21  1  0
 22 15  1  0
 23 24  1  0
 23 21  1  0
 25 23  2  0
M  END
$$$$
