NIL.pdb
     RDKit          3D

 25 24  0  0  1  0  0  0  0  0999 V2000
    7.0608  -17.1092   19.4040 N   0  0  0  0  0  0  0  0  0  0  0  0
    7.1273  -17.9034   20.5727 C   0  0  0  0  0  0  0  0  0  0  0  0
    6.7061  -19.0721   20.5244 O   0  0  0  0  0  0  0  0  0  0  0  0
    7.6817  -17.3883   21.8510 C   0  0  0  0  0  0  0  0  0  0  0  0
    7.8325  -15.8821   21.8006 C   0  0  2  0  0  0  0  0  0  0  0  0
    8.6020  -15.5558   20.6228 N   0  0  0  0  0  0  0  0  0  0  0  0
    8.5270  -15.3674   23.0200 C   0  0  0  0  0  0  0  0  0  0  0  0
    9.7739  -15.2265   23.0550 O   0  0  0  0  0  0  0  0  0  0  0  0
    5.8488  -11.7757   26.3397 C   0  0  0  0  0  0  0  0  0  0  0  0
    6.9101  -12.4668   25.5376 C   0  0  0  0  0  0  0  0  0  0  0  0
    7.6630  -13.5604   26.1893 C   0  0  2  0  0  0  0  0  0  0  0  0
    8.3950  -13.0749   27.4504 C   0  0  0  0  0  0  0  0  0  0  0  0
    8.4644  -14.4818   25.3837 C   0  0  2  0  0  0  0  0  0  0  0  0
    7.8388  -15.0094   24.1993 N   0  0  0  0  0  0  0  0  0  0  0  0
    8.9320  -15.6316   26.1794 C   0  0  0  0  0  0  0  0  0  0  0  0
    8.0619  -16.4379   26.6274 O   0  0  0  0  0  0  0  0  0  0  0  0
   10.9521  -19.3792   25.2531 C   0  0  0  0  0  0  0  0  0  0  0  0
   11.7362  -18.0576   25.3811 C   0  0  2  0  0  0  0  0  0  0  0  0
   13.0393  -18.1945   24.6680 C   0  0  0  0  0  0  0  0  0  0  0  0
   11.8774  -17.6867   26.8148 C   0  0  0  0  0  0  0  0  0  0  0  0
   10.5597  -17.0869   27.3141 C   0  0  2  0  0  0  0  0  0  0  0  0
   10.2925  -15.8958   26.4703 N   0  0  0  0  0  0  0  0  0  0  0  0
   10.6861  -16.6227   28.6929 C   0  0  0  0  0  0  0  0  0  0  0  0
   10.7506  -17.5154   29.7397 O   0  0  0  0  0  0  0  0  0  0  0  0
   10.7364  -15.4046   28.9628 O   0  0  0  0  0  0  0  0  0  0  0  0
  1  2  1  0
  2  4  1  0
  3  2  2  0
  4  5  1  0
  5  6  1  6
  7  5  1  0
  8  7  2  0
  9 10  1  0
 11 10  1  0
 11 13  1  0
 11 12  1  1
 13 15  1  0
 13 14  1  6
 14  7  1  0
 15 16  2  0
 18 17  1  1
 18 20  1  0
 19 18  1  0
 21 20  1  6
 22 21  1  0
 22 15  1  0
 23 24  1  0
 23 21  1  0
 25 23  2  0
M  END
$$$$
