NIL.pdb
     RDKit          3D

 25 24  0  0  1  0  0  0  0  0999 V2000
   10.9589  -21.0382   20.2462 N   0  0  0  0  0  0  0  0  0  0  0  0
   11.1338  -20.0849   19.2159 C   0  0  0  0  0  0  0  0  0  0  0  0
   11.6027  -20.4618   18.1279 O   0  0  0  0  0  0  0  0  0  0  0  0
   10.7770  -18.6536   19.3910 C   0  0  0  0  0  0  0  0  0  0  0  0
   10.1534  -18.4200   20.7512 C   0  0  2  0  0  0  0  0  0  0  0  0
    8.7627  -18.8006   20.6693 N   0  0  0  0  0  0  0  0  0  0  0  0
   10.2645  -16.9858   21.1576 C   0  0  0  0  0  0  0  0  0  0  0  0
   11.3659  -16.3836   21.1456 O   0  0  0  0  0  0  0  0  0  0  0  0
    6.6938  -13.0410   19.6874 C   0  0  0  0  0  0  0  0  0  0  0  0
    7.8279  -13.9254   20.1106 C   0  0  0  0  0  0  0  0  0  0  0  0
    8.1797  -13.9539   21.5469 C   0  0  2  0  0  0  0  0  0  0  0  0
    8.2920  -12.5379   22.1337 C   0  0  0  0  0  0  0  0  0  0  0  0
    9.2258  -14.8557   22.0289 C   0  0  2  0  0  0  0  0  0  0  0  0
    9.1549  -16.2208   21.5769 N   0  0  0  0  0  0  0  0  0  0  0  0
    9.2790  -14.8861   23.5021 C   0  0  0  0  0  0  0  0  0  0  0  0
   10.3748  -14.5833   24.0638 O   0  0  0  0  0  0  0  0  0  0  0  0
    8.3522  -12.4318   26.9116 C   0  0  0  0  0  0  0  0  0  0  0  0
    7.2019  -13.1306   26.1589 C   0  0  2  0  0  0  0  0  0  0  0  0
    5.9150  -12.4625   26.5096 C   0  0  0  0  0  0  0  0  0  0  0  0
    7.2152  -14.5892   26.4508 C   0  0  0  0  0  0  0  0  0  0  0  0
    8.4418  -15.2257   25.7909 C   0  0  2  0  0  0  0  0  0  0  0  0
    8.1817  -15.2263   24.3299 N   0  0  0  0  0  0  0  0  0  0  0  0
    8.5949  -16.6177   26.2052 C   0  0  0  0  0  0  0  0  0  0  0  0
    9.1704  -16.9395   27.4145 O   0  0  0  0  0  0  0  0  0  0  0  0
    8.2116  -17.5553   25.4752 O   0  0  0  0  0  0  0  0  0  0  0  0
  1  2  1  0
  2  4  1  0
  3  2  2  0
  4  5  1  0
  5  6  1  6
  7  5  1  0
  8  7  2  0
  9 10  1  0
 11 10  1  0
 11 13  1  0
 11 12  1  6
 13 15  1  0
 13 14  1  1
 14  7  1  0
 15 16  2  0
 18 17  1  1
 18 20  1  0
 19 18  1  0
 21 20  1  1
 22 21  1  0
 22 15  1  0
 23 24  1  0
 23 21  1  0
 25 23  2  0
M  END
$$$$
