NIL.pdb
     RDKit          3D

 25 24  0  0  1  0  0  0  0  0999 V2000
   14.6958  -18.5862   20.8050 N   0  0  0  0  0  0  0  0  0  0  0  0
   14.3945  -17.4852   19.9696 C   0  0  0  0  0  0  0  0  0  0  0  0
   15.2091  -17.1664   19.0862 O   0  0  0  0  0  0  0  0  0  0  0  0
   13.1414  -16.7005   20.1129 C   0  0  0  0  0  0  0  0  0  0  0  0
   12.1742  -17.4020   21.0435 C   0  0  2  0  0  0  0  0  0  0  0  0
   11.2441  -18.1495   20.2299 N   0  0  0  0  0  0  0  0  0  0  0  0
   11.4320  -16.4202   21.8918 C   0  0  0  0  0  0  0  0  0  0  0  0
   12.0336  -15.6267   22.6562 O   0  0  0  0  0  0  0  0  0  0  0  0
    6.8313  -13.8682   20.0398 C   0  0  0  0  0  0  0  0  0  0  0  0
    8.1250  -14.1823   20.7290 C   0  0  0  0  0  0  0  0  0  0  0  0
    8.0580  -14.8362   22.0539 C   0  0  2  0  0  0  0  0  0  0  0  0
    7.1856  -14.0409   23.0379 C   0  0  0  0  0  0  0  0  0  0  0  0
    9.2719  -15.3706   22.6712 C   0  0  2  0  0  0  0  0  0  0  0  0
   10.0241  -16.3190   21.8920 N   0  0  0  0  0  0  0  0  0  0  0  0
    8.9854  -16.0037   23.9716 C   0  0  0  0  0  0  0  0  0  0  0  0
    8.9005  -17.2683   24.0114 O   0  0  0  0  0  0  0  0  0  0  0  0
   10.9560  -15.1138   28.2337 C   0  0  0  0  0  0  0  0  0  0  0  0
    9.8102  -14.3304   27.5619 C   0  0  2  0  0  0  0  0  0  0  0  0
    9.6720  -13.0034   28.2293 C   0  0  0  0  0  0  0  0  0  0  0  0
    8.5620  -15.1395   27.5799 C   0  0  0  0  0  0  0  0  0  0  0  0
    8.5710  -16.1094   26.3948 C   0  0  2  0  0  0  0  0  0  0  0  0
    8.8047  -15.2889   25.1806 N   0  0  0  0  0  0  0  0  0  0  0  0
    7.2708  -16.7556   26.2385 C   0  0  0  0  0  0  0  0  0  0  0  0
    6.9384  -17.8701   26.9763 O   0  0  0  0  0  0  0  0  0  0  0  0
    6.4249  -16.3189   25.4306 O   0  0  0  0  0  0  0  0  0  0  0  0
  1  2  1  0
  2  4  1  0
  3  2  2  0
  4  5  1  0
  5  6  1  6
  7  5  1  0
  8  7  2  0
  9 10  1  0
 11 10  1  0
 11 13  1  0
 11 12  1  1
 13 15  1  0
 13 14  1  6
 14  7  1  0
 15 16  2  0
 18 17  1  1
 18 20  1  0
 19 18  1  0
 21 20  1  1
 22 21  1  0
 22 15  1  0
 23 24  1  0
 23 21  1  0
 25 23  2  0
M  END
$$$$
