NIL.pdb
     RDKit          3D

 25 24  0  0  1  0  0  0  0  0999 V2000
   15.5717  -17.4819   19.1922 N   0  0  0  0  0  0  0  0  0  0  0  0
   14.5264  -17.9387   20.0286 C   0  0  0  0  0  0  0  0  0  0  0  0
   14.2014  -19.1375   19.9763 O   0  0  0  0  0  0  0  0  0  0  0  0
   13.8071  -17.0361   20.9638 C   0  0  0  0  0  0  0  0  0  0  0  0
   12.3622  -16.8694   20.5417 C   0  0  2  0  0  0  0  0  0  0  0  0
   12.3528  -16.2300   19.2468 N   0  0  0  0  0  0  0  0  0  0  0  0
   11.6045  -16.0367   21.5250 C   0  0  0  0  0  0  0  0  0  0  0  0
   11.9351  -14.8515   21.7739 O   0  0  0  0  0  0  0  0  0  0  0  0
    6.6151  -14.8807   20.7249 C   0  0  0  0  0  0  0  0  0  0  0  0
    8.0316  -14.9760   21.2063 C   0  0  0  0  0  0  0  0  0  0  0  0
    8.2610  -15.4963   22.5717 C   0  0  2  0  0  0  0  0  0  0  0  0
    7.3583  -14.8030   23.6043 C   0  0  0  0  0  0  0  0  0  0  0  0
    9.6246  -15.7083   23.0572 C   0  0  2  0  0  0  0  0  0  0  0  0
   10.4814  -16.5185   22.2313 N   0  0  0  0  0  0  0  0  0  0  0  0
    9.6335  -16.3001   24.4077 C   0  0  0  0  0  0  0  0  0  0  0  0
    9.9033  -17.5345   24.5141 O   0  0  0  0  0  0  0  0  0  0  0  0
   11.6711  -14.6770   28.3421 C   0  0  0  0  0  0  0  0  0  0  0  0
   10.2832  -14.2106   27.8583 C   0  0  2  0  0  0  0  0  0  0  0  0
    9.9003  -12.9740   28.5997 C   0  0  0  0  0  0  0  0  0  0  0  0
    9.2983  -15.3170   27.9958 C   0  0  0  0  0  0  0  0  0  0  0  0
    9.5121  -16.3275   26.8651 C   0  0  2  0  0  0  0  0  0  0  0  0
    9.3654  -15.5754   25.5944 N   0  0  0  0  0  0  0  0  0  0  0  0
    8.4769  -17.3574   26.8821 C   0  0  0  0  0  0  0  0  0  0  0  0
    8.5969  -18.4718   27.6825 O   0  0  0  0  0  0  0  0  0  0  0  0
    7.4557  -17.2593   26.1703 O   0  0  0  0  0  0  0  0  0  0  0  0
  1  2  1  0
  2  4  1  0
  3  2  2  0
  4  5  1  0
  5  6  1  6
  7  5  1  0
  8  7  2  0
  9 10  1  0
 11 10  1  0
 11 13  1  0
 11 12  1  1
 13 15  1  0
 13 14  1  6
 14  7  1  0
 15 16  2  0
 18 17  1  1
 18 20  1  0
 19 18  1  0
 21 20  1  1
 22 21  1  0
 22 15  1  0
 23 24  1  0
 23 21  1  0
 25 23  2  0
M  END
$$$$
