NIL.pdb
     RDKit          3D

 25 24  0  0  1  0  0  0  0  0999 V2000
    7.2902  -16.3326   18.9505 N   0  0  0  0  0  0  0  0  0  0  0  0
    7.4544  -17.2894   19.9794 C   0  0  0  0  0  0  0  0  0  0  0  0
    7.2241  -18.4843   19.7250 O   0  0  0  0  0  0  0  0  0  0  0  0
    7.8915  -16.9142   21.3487 C   0  0  0  0  0  0  0  0  0  0  0  0
    8.0148  -15.4103   21.4779 C   0  0  2  0  0  0  0  0  0  0  0  0
    8.8722  -14.9457   20.4127 N   0  0  0  0  0  0  0  0  0  0  0  0
    8.5951  -15.0272   22.8011 C   0  0  0  0  0  0  0  0  0  0  0  0
    9.8270  -14.8345   22.9464 O   0  0  0  0  0  0  0  0  0  0  0  0
    6.9443  -11.2279   26.2084 C   0  0  0  0  0  0  0  0  0  0  0  0
    6.6614  -12.5683   25.5996 C   0  0  0  0  0  0  0  0  0  0  0  0
    7.4092  -13.7329   26.1212 C   0  0  2  0  0  0  0  0  0  0  0  0
    8.0022  -13.4527   27.5111 C   0  0  0  0  0  0  0  0  0  0  0  0
    8.3240  -14.4689   25.2485 C   0  0  2  0  0  0  0  0  0  0  0  0
    7.8095  -14.8582   23.9615 N   0  0  0  0  0  0  0  0  0  0  0  0
    8.8333  -15.6885   25.9021 C   0  0  0  0  0  0  0  0  0  0  0  0
    7.9882  -16.5379   26.3170 O   0  0  0  0  0  0  0  0  0  0  0  0
   11.1130  -19.0123   24.3029 C   0  0  0  0  0  0  0  0  0  0  0  0
   11.9145  -17.7713   24.7452 C   0  0  2  0  0  0  0  0  0  0  0  0
   13.2785  -17.8342   24.1446 C   0  0  0  0  0  0  0  0  0  0  0  0
   11.9207  -17.6722   26.2295 C   0  0  0  0  0  0  0  0  0  0  0  0
   10.5219  -17.2825   26.7161 C   0  0  2  0  0  0  0  0  0  0  0  0
   10.2074  -15.9741   26.0905 N   0  0  0  0  0  0  0  0  0  0  0  0
   10.5078  -17.0865   28.1631 C   0  0  0  0  0  0  0  0  0  0  0  0
   10.3955  -15.8266   28.7081 O   0  0  0  0  0  0  0  0  0  0  0  0
   10.5997  -18.0537   28.9473 O   0  0  0  0  0  0  0  0  0  0  0  0
  1  2  1  0
  2  4  1  0
  3  2  2  0
  4  5  1  0
  5  6  1  6
  7  5  1  0
  8  7  2  0
  9 10  1  0
 11 10  1  0
 11 13  1  0
 11 12  1  1
 13 15  1  0
 13 14  1  6
 14  7  1  0
 15 16  2  0
 18 17  1  1
 18 20  1  0
 19 18  1  0
 21 20  1  6
 22 21  1  0
 22 15  1  0
 23 24  1  0
 23 21  1  0
 25 23  2  0
M  END
$$$$
