WLR.pdb
     RDKit          3D

 34 35  0  0  1  0  0  0  0  0999 V2000
    5.8779  -18.4316   24.9143 N   0  0  0  0  0  0  0  0  0  0  0  0
    6.6746  -18.3060   23.7162 C   0  0  1  0  0  0  0  0  0  0  0  0
    5.8686  -18.8680   22.5596 C   0  0  0  0  0  0  0  0  0  0  0  0
    5.4562  -20.2626   22.8016 C   0  0  0  0  0  0  0  0  0  0  0  0
    4.1256  -20.6600   22.9595 C   0  0  0  0  0  0  0  0  0  0  0  0
    4.0788  -21.9783   23.2079 N   0  0  0  0  0  0  0  0  0  0  0  0
    5.3223  -22.4737   23.2211 C   0  0  0  0  0  0  0  0  0  0  0  0
    5.7960  -23.7521   23.4229 C   0  0  0  0  0  0  0  0  0  0  0  0
    7.1525  -23.9887   23.3730 C   0  0  0  0  0  0  0  0  0  0  0  0
    7.9993  -22.9397   23.1222 C   0  0  0  0  0  0  0  0  0  0  0  0
    7.5328  -21.6657   22.9213 C   0  0  0  0  0  0  0  0  0  0  0  0
    6.1881  -21.4174   22.9691 C   0  0  0  0  0  0  0  0  0  0  0  0
    6.9194  -16.8348   23.5057 C   0  0  0  0  0  0  0  0  0  0  0  0
    7.4246  -16.3713   22.4525 O   0  0  0  0  0  0  0  0  0  0  0  0
    6.7085  -11.9690   27.3989 C   0  0  0  0  0  0  0  0  0  0  0  0
    7.5116  -12.6783   26.3007 C   0  0  2  0  0  0  0  0  0  0  0  0
    7.8157  -11.6520   25.2509 C   0  0  0  0  0  0  0  0  0  0  0  0
    6.6948  -13.8322   25.8614 C   0  0  0  0  0  0  0  0  0  0  0  0
    7.3913  -14.7835   24.8980 C   0  0  2  0  0  0  0  0  0  0  0  0
    6.5671  -15.8875   24.5401 N   0  0  0  0  0  0  0  0  0  0  0  0
    8.7531  -15.1175   25.3648 C   0  0  0  0  0  0  0  0  0  0  0  0
    9.6105  -14.1869   25.5840 O   0  0  0  0  0  0  0  0  0  0  0  0
   12.4012  -21.9748   29.4934 N   0  0  0  0  0  0  0  0  0  0  0  0
   12.7509  -20.7142   30.0371 C   0  0  0  0  0  0  0  0  0  0  0  0
   13.6272  -20.5968   30.9913 N   0  0  0  0  0  0  0  0  0  0  0  0
   12.1153  -19.5683   29.5073 N   0  0  0  0  0  0  0  0  0  0  0  0
   11.1227  -19.6812   28.4242 C   0  0  0  0  0  0  0  0  0  0  0  0
   10.7164  -18.3082   28.0694 C   0  0  0  0  0  0  0  0  0  0  0  0
   10.5904  -17.9943   26.6598 C   0  0  0  0  0  0  0  0  0  0  0  0
   10.6564  -16.6581   26.0568 C   0  0  2  0  0  0  0  0  0  0  0  0
    9.2257  -16.4311   25.6076 N   0  0  0  0  0  0  0  0  0  0  0  0
   11.4458  -16.4935   24.8524 C   0  0  0  0  0  0  0  0  0  0  0  0
   12.6750  -16.1310   24.8899 O   0  0  0  0  0  0  0  0  0  0  0  0
   10.9402  -16.7257   23.5791 O   0  0  0  0  0  0  0  0  0  0  0  0
  2  1  1  1
  2  3  1  0
  3  4  1  0
  4  5  2  0
  5  6  1  0
  7  8  2  0
  7  6  1  0
  9  8  1  0
 10  9  2  0
 11 10  1  0
 11 12  2  0
 12  4  1  0
 12  7  1  0
 13  2  1  0
 13 20  1  0
 14 13  2  0
 16 15  1  1
 16 17  1  0
 19 18  1  1
 18 16  1  0
 19 20  1  0
 19 21  1  0
 21 22  2  0
 21 31  1  0
 23 24  1  0
 24 26  1  0
 25 24  2  0
 26 27  1  0
 28 27  1  0
 29 28  1  0
 30 32  1  0
 30 29  1  6
 31 30  1  0
 32 34  1  0
 33 32  2  0
M  END
$$$$
