WLR.pdb
     RDKit          3D

 34 35  0  0  1  0  0  0  0  0999 V2000
    6.5821  -17.3568   25.3763 N   0  0  0  0  0  0  0  0  0  0  0  0
    6.9747  -16.1633   24.6641 C   0  0  1  0  0  0  0  0  0  0  0  0
    8.3301  -15.7303   25.1921 C   0  0  0  0  0  0  0  0  0  0  0  0
    8.2125  -14.6645   26.2038 C   0  0  0  0  0  0  0  0  0  0  0  0
    8.7384  -14.7615   27.4951 C   0  0  0  0  0  0  0  0  0  0  0  0
    8.4312  -13.6535   28.1879 N   0  0  0  0  0  0  0  0  0  0  0  0
    7.7237  -12.8242   27.4110 C   0  0  0  0  0  0  0  0  0  0  0  0
    7.1872  -11.5780   27.6531 C   0  0  0  0  0  0  0  0  0  0  0  0
    6.4979  -10.9299   26.6515 C   0  0  0  0  0  0  0  0  0  0  0  0
    6.3637  -11.5458   25.4337 C   0  0  0  0  0  0  0  0  0  0  0  0
    6.8954  -12.7860   25.1881 C   0  0  0  0  0  0  0  0  0  0  0  0
    7.5813  -13.4405   26.1746 C   0  0  0  0  0  0  0  0  0  0  0  0
    7.0851  -16.5381   23.2094 C   0  0  0  0  0  0  0  0  0  0  0  0
    6.8463  -17.6960   22.7835 O   0  0  0  0  0  0  0  0  0  0  0  0
    8.4407  -13.0376   21.5173 C   0  0  0  0  0  0  0  0  0  0  0  0
    8.5115  -13.5824   20.0847 C   0  0  2  0  0  0  0  0  0  0  0  0
    8.3833  -12.4061   19.1640 C   0  0  0  0  0  0  0  0  0  0  0  0
    7.4525  -14.6108   19.9732 C   0  0  0  0  0  0  0  0  0  0  0  0
    7.6525  -15.8378   20.8522 C   0  0  2  0  0  0  0  0  0  0  0  0
    7.4785  -15.5452   22.2344 N   0  0  0  0  0  0  0  0  0  0  0  0
    8.8928  -16.5573   20.4945 C   0  0  0  0  0  0  0  0  0  0  0  0
    9.1173  -16.8979   19.2769 O   0  0  0  0  0  0  0  0  0  0  0  0
   16.5940  -14.2638   19.3292 N   0  0  0  0  0  0  0  0  0  0  0  0
   15.7751  -14.4446   18.1873 C   0  0  0  0  0  0  0  0  0  0  0  0
   16.0636  -13.8999   17.0418 N   0  0  0  0  0  0  0  0  0  0  0  0
   14.6191  -15.2462   18.3252 N   0  0  0  0  0  0  0  0  0  0  0  0
   13.8090  -15.2080   19.5554 C   0  0  0  0  0  0  0  0  0  0  0  0
   13.1944  -16.5405   19.7062 C   0  0  0  0  0  0  0  0  0  0  0  0
   11.7993  -16.5900   20.0969 C   0  0  0  0  0  0  0  0  0  0  0  0
   11.1636  -17.6221   20.9240 C   0  0  2  0  0  0  0  0  0  0  0  0
    9.9090  -16.9234   21.4117 N   0  0  0  0  0  0  0  0  0  0  0  0
   11.8428  -18.0368   22.1354 C   0  0  0  0  0  0  0  0  0  0  0  0
   12.7958  -18.8943   22.1205 O   0  0  0  0  0  0  0  0  0  0  0  0
   11.5251  -17.5330   23.3909 O   0  0  0  0  0  0  0  0  0  0  0  0
  2  1  1  1
  2  3  1  0
  3  4  1  0
  4  5  2  0
  5  6  1  0
  7  8  2  0
  7  6  1  0
  9  8  1  0
 10  9  2  0
 11 10  1  0
 11 12  2  0
 12  4  1  0
 12  7  1  0
 13  2  1  0
 13 20  1  0
 14 13  2  0
 16 15  1  1
 16 17  1  0
 19 18  1  6
 18 16  1  0
 19 20  1  0
 19 21  1  0
 21 22  2  0
 21 31  1  0
 23 24  1  0
 24 26  1  0
 25 24  2  0
 26 27  1  0
 28 27  1  0
 29 28  1  0
 30 32  1  0
 30 29  1  1
 31 30  1  0
 32 34  1  0
 33 32  2  0
M  END
$$$$
