WLR.pdb
     RDKit          3D

 34 35  0  0  1  0  0  0  0  0999 V2000
    5.5310  -18.1129   23.9479 N   0  0  0  0  0  0  0  0  0  0  0  0
    6.2482  -16.8630   24.0434 C   0  0  1  0  0  0  0  0  0  0  0  0
    7.0484  -16.8824   25.3328 C   0  0  0  0  0  0  0  0  0  0  0  0
    6.8177  -15.6724   26.1427 C   0  0  0  0  0  0  0  0  0  0  0  0
    5.8004  -15.5603   27.0946 C   0  0  0  0  0  0  0  0  0  0  0  0
    5.8220  -14.3296   27.6300 N   0  0  0  0  0  0  0  0  0  0  0  0
    6.8112  -13.6193   27.0743 C   0  0  0  0  0  0  0  0  0  0  0  0
    7.2399  -12.3266   27.2855 C   0  0  0  0  0  0  0  0  0  0  0  0
    8.3107  -11.8411   26.5670 C   0  0  0  0  0  0  0  0  0  0  0  0
    8.9245  -12.6621   25.6561 C   0  0  0  0  0  0  0  0  0  0  0  0
    8.5012  -13.9490   25.4421 C   0  0  0  0  0  0  0  0  0  0  0  0
    7.4385  -14.4428   26.1484 C   0  0  0  0  0  0  0  0  0  0  0  0
    7.1793  -16.8013   22.8610 C   0  0  0  0  0  0  0  0  0  0  0  0
    7.5851  -17.8267   22.2583 O   0  0  0  0  0  0  0  0  0  0  0  0
    7.8848  -12.0461   19.6067 C   0  0  0  0  0  0  0  0  0  0  0  0
    7.8743  -13.5784   19.6841 C   0  0  2  0  0  0  0  0  0  0  0  0
    6.4380  -14.0013   19.7613 C   0  0  0  0  0  0  0  0  0  0  0  0
    8.7213  -13.9467   20.8410 C   0  0  0  0  0  0  0  0  0  0  0  0
    8.5802  -15.3890   21.3081 C   0  0  2  0  0  0  0  0  0  0  0  0
    7.6435  -15.5221   22.3717 N   0  0  0  0  0  0  0  0  0  0  0  0
    9.9016  -16.0131   21.5280 C   0  0  0  0  0  0  0  0  0  0  0  0
   10.4686  -15.9441   22.6782 O   0  0  0  0  0  0  0  0  0  0  0  0
   15.5007  -18.4753   16.2528 N   0  0  0  0  0  0  0  0  0  0  0  0
   15.8880  -19.5684   17.0667 C   0  0  0  0  0  0  0  0  0  0  0  0
   17.0733  -20.0984   16.9869 N   0  0  0  0  0  0  0  0  0  0  0  0
   14.9398  -20.0760   17.9838 N   0  0  0  0  0  0  0  0  0  0  0  0
   13.5874  -19.4987   18.0778 C   0  0  0  0  0  0  0  0  0  0  0  0
   13.5308  -18.7416   19.3426 C   0  0  0  0  0  0  0  0  0  0  0  0
   12.2495  -18.1838   19.7280 C   0  0  0  0  0  0  0  0  0  0  0  0
   11.9909  -17.3133   20.8807 C   0  0  2  0  0  0  0  0  0  0  0  0
   10.6380  -16.7168   20.5430 N   0  0  0  0  0  0  0  0  0  0  0  0
   12.8556  -16.1662   21.0743 C   0  0  0  0  0  0  0  0  0  0  0  0
   12.7233  -15.0920   20.3872 O   0  0  0  0  0  0  0  0  0  0  0  0
   13.8752  -16.1384   22.0180 O   0  0  0  0  0  0  0  0  0  0  0  0
  2  1  1  6
  2  3  1  0
  3  4  1  0
  4  5  2  0
  5  6  1  0
  7  8  2  0
  7  6  1  0
  9  8  1  0
 10  9  2  0
 11 10  1  0
 11 12  2  0
 12  4  1  0
 12  7  1  0
 13  2  1  0
 13 20  1  0
 14 13  2  0
 16 15  1  1
 16 17  1  0
 19 18  1  1
 18 16  1  0
 19 20  1  0
 19 21  1  0
 21 22  2  0
 21 31  1  0
 23 24  1  0
 24 26  1  0
 25 24  2  0
 26 27  1  0
 28 27  1  0
 29 28  1  0
 30 32  1  0
 30 29  1  6
 31 30  1  0
 32 34  1  0
 33 32  2  0
M  END
$$$$
