WLR.pdb
     RDKit          3D

 34 35  0  0  1  0  0  0  0  0999 V2000
    8.9085  -16.8452   24.7794 N   0  0  0  0  0  0  0  0  0  0  0  0
    7.5139  -17.1956   24.9132 C   0  0  1  0  0  0  0  0  0  0  0  0
    6.9841  -16.5276   26.1688 C   0  0  0  0  0  0  0  0  0  0  0  0
    8.0649  -16.1992   27.1161 C   0  0  0  0  0  0  0  0  0  0  0  0
    8.6321  -17.1262   27.9950 C   0  0  0  0  0  0  0  0  0  0  0  0
    9.5559  -16.5160   28.7541 N   0  0  0  0  0  0  0  0  0  0  0  0
    9.6267  -15.2227   28.4161 C   0  0  0  0  0  0  0  0  0  0  0  0
   10.4121  -14.1945   28.8909 C   0  0  0  0  0  0  0  0  0  0  0  0
   10.2831  -12.9353   28.3466 C   0  0  0  0  0  0  0  0  0  0  0  0
    9.3716  -12.7381   27.3412 C   0  0  0  0  0  0  0  0  0  0  0  0
    8.5875  -13.7580   26.8658 C   0  0  0  0  0  0  0  0  0  0  0  0
    8.7053  -15.0128   27.3984 C   0  0  0  0  0  0  0  0  0  0  0  0
    6.8067  -16.6475   23.7015 C   0  0  0  0  0  0  0  0  0  0  0  0
    5.5742  -16.7955   23.5061 O   0  0  0  0  0  0  0  0  0  0  0  0
    7.9490  -13.3408   22.3254 C   0  0  0  0  0  0  0  0  0  0  0  0
    8.4057  -13.8376   20.9475 C   0  0  2  0  0  0  0  0  0  0  0  0
    8.5515  -12.6278   20.0740 C   0  0  0  0  0  0  0  0  0  0  0  0
    7.4058  -14.8371   20.5084 C   0  0  0  0  0  0  0  0  0  0  0  0
    7.4027  -16.1357   21.3032 C   0  0  2  0  0  0  0  0  0  0  0  0
    7.5490  -15.9125   22.7014 N   0  0  0  0  0  0  0  0  0  0  0  0
    8.3183  -17.1311   20.7077 C   0  0  0  0  0  0  0  0  0  0  0  0
    8.2937  -17.3616   19.4446 O   0  0  0  0  0  0  0  0  0  0  0  0
   12.9205  -14.0784   17.4892 N   0  0  0  0  0  0  0  0  0  0  0  0
   13.6953  -14.2690   18.6599 C   0  0  0  0  0  0  0  0  0  0  0  0
   14.6718  -13.4695   18.9752 N   0  0  0  0  0  0  0  0  0  0  0  0
   13.3747  -15.3661   19.4915 N   0  0  0  0  0  0  0  0  0  0  0  0
   12.6378  -16.5290   18.9664 C   0  0  0  0  0  0  0  0  0  0  0  0
   11.7029  -16.9580   20.0238 C   0  0  0  0  0  0  0  0  0  0  0  0
   10.8493  -18.0940   19.7371 C   0  0  0  0  0  0  0  0  0  0  0  0
   10.1334  -18.9144   20.7209 C   0  0  2  0  0  0  0  0  0  0  0  0
    9.2691  -17.8915   21.4327 N   0  0  0  0  0  0  0  0  0  0  0  0
   10.9052  -19.5368   21.7781 C   0  0  0  0  0  0  0  0  0  0  0  0
   11.7268  -20.4934   21.5467 O   0  0  0  0  0  0  0  0  0  0  0  0
   10.8243  -19.1402   23.1075 O   0  0  0  0  0  0  0  0  0  0  0  0
  2  1  1  6
  2  3  1  0
  3  4  1  0
  4  5  2  0
  5  6  1  0
  7  8  2  0
  7  6  1  0
  9  8  1  0
 10  9  2  0
 11 10  1  0
 11 12  2  0
 12  4  1  0
 12  7  1  0
 13  2  1  0
 13 20  1  0
 14 13  2  0
 16 15  1  1
 16 17  1  0
 19 18  1  6
 18 16  1  0
 19 20  1  0
 19 21  1  0
 21 22  2  0
 21 31  1  0
 23 24  1  0
 24 26  1  0
 25 24  2  0
 26 27  1  0
 28 27  1  0
 29 28  1  0
 30 32  1  0
 30 29  1  6
 31 30  1  0
 32 34  1  0
 33 32  2  0
M  END
$$$$
