WLR.pdb
     RDKit          3D

 34 35  0  0  1  0  0  0  0  0999 V2000
    6.9141  -18.4511   24.7715 N   0  0  0  0  0  0  0  0  0  0  0  0
    7.0573  -17.0430   24.4841 C   0  0  1  0  0  0  0  0  0  0  0  0
    7.8107  -16.4064   25.6375 C   0  0  0  0  0  0  0  0  0  0  0  0
    7.1275  -15.2024   26.1443 C   0  0  0  0  0  0  0  0  0  0  0  0
    5.7588  -15.1483   26.4225 C   0  0  0  0  0  0  0  0  0  0  0  0
    5.4324  -13.9100   26.8248 N   0  0  0  0  0  0  0  0  0  0  0  0
    6.5268  -13.1391   26.8262 C   0  0  0  0  0  0  0  0  0  0  0  0
    6.7129  -11.8149   27.1600 C   0  0  0  0  0  0  0  0  0  0  0  0
    7.9735  -11.2651   27.0769 C   0  0  0  0  0  0  0  0  0  0  0  0
    9.0149  -12.0549   26.6620 C   0  0  0  0  0  0  0  0  0  0  0  0
    8.8346  -13.3729   26.3283 C   0  0  0  0  0  0  0  0  0  0  0  0
    7.5876  -13.9306   26.4058 C   0  0  0  0  0  0  0  0  0  0  0  0
    7.8670  -16.9348   23.2186 C   0  0  0  0  0  0  0  0  0  0  0  0
    8.3741  -17.9319   22.6460 O   0  0  0  0  0  0  0  0  0  0  0  0
    7.6412  -12.3859   19.5782 C   0  0  0  0  0  0  0  0  0  0  0  0
    7.7675  -13.8912   19.8468 C   0  0  2  0  0  0  0  0  0  0  0  0
    6.3967  -14.3885   20.1955 C   0  0  0  0  0  0  0  0  0  0  0  0
    8.7994  -14.0458   20.8969 C   0  0  0  0  0  0  0  0  0  0  0  0
    8.9244  -15.4492   21.4740 C   0  0  2  0  0  0  0  0  0  0  0  0
    8.0873  -15.6420   22.6090 N   0  0  0  0  0  0  0  0  0  0  0  0
   10.3409  -15.8357   21.6419 C   0  0  0  0  0  0  0  0  0  0  0  0
   11.1575  -15.7532   20.6543 O   0  0  0  0  0  0  0  0  0  0  0  0
    8.6791  -18.8352   26.8207 N   0  0  0  0  0  0  0  0  0  0  0  0
    9.9080  -18.7165   27.5158 C   0  0  0  0  0  0  0  0  0  0  0  0
    9.9775  -18.1903   28.7034 N   0  0  0  0  0  0  0  0  0  0  0  0
   11.0753  -19.1934   26.8773 N   0  0  0  0  0  0  0  0  0  0  0  0
   11.1775  -19.2313   25.4079 C   0  0  0  0  0  0  0  0  0  0  0  0
   12.1382  -18.1822   25.0171 C   0  0  0  0  0  0  0  0  0  0  0  0
   12.3559  -17.9734   23.5992 C   0  0  0  0  0  0  0  0  0  0  0  0
   12.3821  -16.6812   22.9042 C   0  0  2  0  0  0  0  0  0  0  0  0
   10.9126  -16.3101   22.8485 N   0  0  0  0  0  0  0  0  0  0  0  0
   12.8146  -16.6616   21.5209 C   0  0  0  0  0  0  0  0  0  0  0  0
   12.6259  -17.6574   20.7358 O   0  0  0  0  0  0  0  0  0  0  0  0
   13.4487  -15.5689   20.9422 O   0  0  0  0  0  0  0  0  0  0  0  0
  2  1  1  1
  2  3  1  0
  3  4  1  0
  4  5  2  0
  5  6  1  0
  7  8  2  0
  7  6  1  0
  9  8  1  0
 10  9  2  0
 11 10  1  0
 11 12  2  0
 12  4  1  0
 12  7  1  0
 13  2  1  0
 13 20  1  0
 14 13  2  0
 16 15  1  1
 16 17  1  0
 19 18  1  1
 18 16  1  0
 19 20  1  0
 19 21  1  0
 21 22  2  0
 21 31  1  0
 23 24  1  0
 24 26  1  0
 25 24  2  0
 26 27  1  0
 28 27  1  0
 29 28  1  0
 30 32  1  0
 30 29  1  6
 31 30  1  0
 32 34  1  0
 33 32  2  0
M  END
$$$$
