SPA.pdb
     RDKit          3D

 19 19  0  0  1  0  0  0  0  0999 V2000
   15.7018  -11.3677  -15.2585 O   0  0  0  0  0  0  0  0  0  0  0  0
   16.8981  -10.6483  -15.0252 C   0  0  0  0  0  0  0  0  0  0  0  0
   17.8763  -11.1403  -16.1093 C   0  0  2  0  0  0  0  0  0  0  0  0
   18.2141  -12.5023  -15.6510 N   0  0  0  0  0  0  0  0  0  0  0  0
   19.0943  -10.3268  -16.0253 C   0  0  0  0  0  0  0  0  0  0  0  0
   20.0604  -10.7651  -15.3293 O   0  0  0  0  0  0  0  0  0  0  0  0
   19.2565   -9.0685  -16.6830 N   0  0  0  0  0  0  0  0  0  0  0  0
   18.2101   -8.3946  -17.4217 C   0  0  0  0  0  0  0  0  0  0  0  0
   18.9312   -7.4977  -18.4069 C   0  0  0  0  0  0  0  0  0  0  0  0
   20.4111   -7.8670  -18.2577 C   0  0  0  0  0  0  0  0  0  0  0  0
   20.4186   -8.2211  -16.7748 C   0  0  1  0  0  0  0  0  0  0  0  0
   20.1891   -7.0263  -15.9276 C   0  0  0  0  0  0  0  0  0  0  0  0
   19.0458   -6.5656  -15.7687 O   0  0  0  0  0  0  0  0  0  0  0  0
   21.9399   -5.7544  -12.9805 C   0  0  0  0  0  0  0  0  0  0  0  0
   20.9806   -5.5070  -14.1200 C   0  0  2  0  0  0  0  0  0  0  0  0
   21.2571   -6.3530  -15.2598 N   0  0  0  0  0  0  0  0  0  0  0  0
   20.9833   -4.0852  -14.5199 C   0  0  0  0  0  0  0  0  0  0  0  0
   21.3959   -3.7560  -15.6510 O   0  0  0  0  0  0  0  0  0  0  0  0
   20.5278   -3.1315  -13.6357 O   0  0  0  0  0  0  0  0  0  0  0  0
  1  2  1  0
  2  3  1  0
  3  5  1  0
  3  4  1  1
  5  6  2  0
  7 11  1  0
  7  5  1  0
  8  7  1  0
  9  8  1  0
  9 10  1  0
 10 11  1  0
 11 12  1  1
 12 13  2  0
 12 16  1  0
 15 14  1  1
 15 17  1  0
 16 15  1  0
 17 18  2  0
 17 19  1  0
M  END
$$$$
