SPA.pdb
     RDKit          3D

 19 19  0  0  1  0  0  0  0  0999 V2000
   27.6320  -18.4169  -15.3352 O   0  0  0  0  0  0  0  0  0  0  0  0
   27.1288  -19.5752  -15.9740 C   0  0  0  0  0  0  0  0  0  0  0  0
   27.5932  -20.7499  -15.0916 C   0  0  2  0  0  0  0  0  0  0  0  0
   28.2975  -21.6219  -16.0522 N   0  0  0  0  0  0  0  0  0  0  0  0
   26.4012  -21.4688  -14.6279 C   0  0  0  0  0  0  0  0  0  0  0  0
   25.9547  -22.4142  -15.3468 O   0  0  0  0  0  0  0  0  0  0  0  0
   25.7137  -21.1666  -13.4122 N   0  0  0  0  0  0  0  0  0  0  0  0
   26.0139  -20.0304  -12.5673 C   0  0  0  0  0  0  0  0  0  0  0  0
   25.5308  -20.4216  -11.1857 C   0  0  0  0  0  0  0  0  0  0  0  0
   25.1162  -21.8909  -11.3205 C   0  0  0  0  0  0  0  0  0  0  0  0
   24.6336  -21.8693  -12.7666 C   0  0  1  0  0  0  0  0  0  0  0  0
   23.3995  -21.0616  -12.9176 C   0  0  0  0  0  0  0  0  0  0  0  0
   23.4295  -19.8234  -12.8154 O   0  0  0  0  0  0  0  0  0  0  0  0
   20.5129  -21.7909  -15.0254 C   0  0  0  0  0  0  0  0  0  0  0  0
   21.1352  -20.9367  -13.9470 C   0  0  2  0  0  0  0  0  0  0  0  0
   22.1298  -21.6587  -13.1848 N   0  0  0  0  0  0  0  0  0  0  0  0
   20.1045  -20.3760  -13.0500 C   0  0  0  0  0  0  0  0  0  0  0  0
   19.2301  -19.6107  -13.5058 O   0  0  0  0  0  0  0  0  0  0  0  0
   20.1187  -20.7050  -11.7119 O   0  0  0  0  0  0  0  0  0  0  0  0
  1  2  1  0
  2  3  1  0
  3  5  1  0
  3  4  1  6
  5  6  2  0
  7 11  1  0
  7  5  1  0
  8  7  1  0
  9  8  1  0
  9 10  1  0
 10 11  1  0
 11 12  1  1
 12 13  2  0
 12 16  1  0
 15 14  1  6
 15 17  1  0
 16 15  1  0
 17 18  2  0
 17 19  1  0
M  END
$$$$
