SPA.pdb
     RDKit          3D

 19 19  0  0  1  0  0  0  0  0999 V2000
   20.5811  -31.8797   -8.0553 O   0  0  0  0  0  0  0  0  0  0  0  0
   21.3842  -32.7740   -7.3081 C   0  0  0  0  0  0  0  0  0  0  0  0
   22.0891  -33.6507   -8.3611 C   0  0  2  0  0  0  0  0  0  0  0  0
   21.1317  -34.7566   -8.5596 N   0  0  0  0  0  0  0  0  0  0  0  0
   23.2983  -34.2123   -7.7488 C   0  0  0  0  0  0  0  0  0  0  0  0
   23.2099  -35.3396   -7.1732 O   0  0  0  0  0  0  0  0  0  0  0  0
   24.5715  -33.5635   -7.7638 N   0  0  0  0  0  0  0  0  0  0  0  0
   24.7871  -32.2026   -8.2069 C   0  0  0  0  0  0  0  0  0  0  0  0
   26.2407  -32.1462   -8.6301 C   0  0  0  0  0  0  0  0  0  0  0  0
   26.7274  -33.5968   -8.5430 C   0  0  0  0  0  0  0  0  0  0  0  0
   25.8654  -34.0665   -7.3765 C   0  0  1  0  0  0  0  0  0  0  0  0
   26.2582  -33.4073   -6.1080 C   0  0  0  0  0  0  0  0  0  0  0  0
   25.8628  -32.2614   -5.8340 O   0  0  0  0  0  0  0  0  0  0  0  0
   25.5972  -34.8692   -3.3924 C   0  0  0  0  0  0  0  0  0  0  0  0
   26.7729  -33.9885   -3.7417 C   0  0  2  0  0  0  0  0  0  0  0  0
   27.1005  -34.0482   -5.1489 N   0  0  0  0  0  0  0  0  0  0  0  0
   27.9541  -34.3265   -2.9220 C   0  0  0  0  0  0  0  0  0  0  0  0
   27.9798  -34.0260   -1.7108 O   0  0  0  0  0  0  0  0  0  0  0  0
   29.0216  -34.9735   -3.5058 O   0  0  0  0  0  0  0  0  0  0  0  0
  1  2  1  0
  2  3  1  0
  3  5  1  0
  3  4  1  1
  5  6  2  0
  7 11  1  0
  7  5  1  0
  8  7  1  0
  9  8  1  0
  9 10  1  0
 10 11  1  0
 11 12  1  1
 12 13  2  0
 12 16  1  0
 15 14  1  6
 15 17  1  0
 16 15  1  0
 17 18  2  0
 17 19  1  0
M  END
$$$$
