SPA.pdb
     RDKit          3D

 19 19  0  0  1  0  0  0  0  0999 V2000
   16.7100  -10.3978  -18.1157 O   0  0  0  0  0  0  0  0  0  0  0  0
   17.3182  -10.1971  -16.8537 C   0  0  0  0  0  0  0  0  0  0  0  0
   18.6211  -11.0181  -16.9046 C   0  0  2  0  0  0  0  0  0  0  0  0
   18.2380  -12.2805  -16.2422 N   0  0  0  0  0  0  0  0  0  0  0  0
   19.6122  -10.3508  -16.0532 C   0  0  0  0  0  0  0  0  0  0  0  0
   19.5830  -10.5822  -14.8060 O   0  0  0  0  0  0  0  0  0  0  0  0
   20.6101   -9.4553  -16.5473 N   0  0  0  0  0  0  0  0  0  0  0  0
   20.6350   -8.9264  -17.8944 C   0  0  0  0  0  0  0  0  0  0  0  0
   22.0843   -8.5721  -18.1574 C   0  0  0  0  0  0  0  0  0  0  0  0
   22.8421   -9.1027  -16.9355 C   0  0  0  0  0  0  0  0  0  0  0  0
   21.7607   -8.9005  -15.8798 C   0  0  1  0  0  0  0  0  0  0  0  0
   21.5034   -7.4617  -15.6313 C   0  0  0  0  0  0  0  0  0  0  0  0
   20.8118   -6.7912  -16.4165 O   0  0  0  0  0  0  0  0  0  0  0  0
   21.6993   -5.1975  -12.6477 C   0  0  0  0  0  0  0  0  0  0  0  0
   21.5166   -5.4830  -14.1191 C   0  0  2  0  0  0  0  0  0  0  0  0
   22.0310   -6.7825  -14.4910 N   0  0  0  0  0  0  0  0  0  0  0  0
   22.1337   -4.4275  -14.9476 C   0  0  0  0  0  0  0  0  0  0  0  0
   23.1840   -4.6642  -15.5793 O   0  0  0  0  0  0  0  0  0  0  0  0
   21.5408   -3.1854  -15.0152 O   0  0  0  0  0  0  0  0  0  0  0  0
  1  2  1  0
  2  3  1  0
  3  5  1  0
  3  4  1  1
  5  6  2  0
  7 11  1  0
  7  5  1  0
  8  7  1  0
  9  8  1  0
  9 10  1  0
 10 11  1  0
 11 12  1  6
 12 13  2  0
 12 16  1  0
 15 14  1  1
 15 17  1  0
 16 15  1  0
 17 18  2  0
 17 19  1  0
M  END
$$$$
