SPA.pdb
     RDKit          3D

 19 19  0  0  1  0  0  0  0  0999 V2000
   40.5030   -7.5793  -14.4916 O   0  0  0  0  0  0  0  0  0  0  0  0
   39.9006   -8.5371  -13.6416 C   0  0  0  0  0  0  0  0  0  0  0  0
   40.9818   -9.6134  -13.4253 C   0  0  2  0  0  0  0  0  0  0  0  0
   40.7111  -10.5721  -14.5146 N   0  0  0  0  0  0  0  0  0  0  0  0
   40.7006  -10.2911  -12.1548 C   0  0  0  0  0  0  0  0  0  0  0  0
   39.9762  -11.3324  -12.1791 O   0  0  0  0  0  0  0  0  0  0  0  0
   41.1964   -9.8467  -10.8904 N   0  0  0  0  0  0  0  0  0  0  0  0
   41.9378   -8.6197  -10.6917 C   0  0  0  0  0  0  0  0  0  0  0  0
   42.7527   -8.8448   -9.4345 C   0  0  0  0  0  0  0  0  0  0  0  0
   42.5249  -10.3188   -9.0824 C   0  0  0  0  0  0  0  0  0  0  0  0
   41.0959  -10.4664   -9.5931 C   0  0  1  0  0  0  0  0  0  0  0  0
   40.1409   -9.6796   -8.7763 C   0  0  0  0  0  0  0  0  0  0  0  0
   39.9919   -8.4603   -8.9650 O   0  0  0  0  0  0  0  0  0  0  0  0
   37.2619  -10.6436   -6.5164 C   0  0  0  0  0  0  0  0  0  0  0  0
   38.0611   -9.7229   -7.4072 C   0  0  2  0  0  0  0  0  0  0  0  0
   39.3540  -10.2761   -7.7444 N   0  0  0  0  0  0  0  0  0  0  0  0
   38.2151   -8.3884   -6.7932 C   0  0  0  0  0  0  0  0  0  0  0  0
   37.2410   -7.6095   -6.7408 O   0  0  0  0  0  0  0  0  0  0  0  0
   39.4389   -8.0147   -6.2818 O   0  0  0  0  0  0  0  0  0  0  0  0
  1  2  1  0
  2  3  1  0
  3  5  1  0
  3  4  1  6
  5  6  2  0
  7 11  1  0
  7  5  1  0
  8  7  1  0
  9  8  1  0
  9 10  1  0
 10 11  1  0
 11 12  1  1
 12 13  2  0
 12 16  1  0
 15 14  1  1
 15 17  1  0
 16 15  1  0
 17 18  2  0
 17 19  1  0
M  END
$$$$
