SPA.pdb
     RDKit          3D

 19 19  0  0  1  0  0  0  0  0999 V2000
   17.8947  -10.0837  -19.6336 O   0  0  0  0  0  0  0  0  0  0  0  0
   18.2520   -9.4649  -18.4120 C   0  0  0  0  0  0  0  0  0  0  0  0
   19.0514  -10.5343  -17.6429 C   0  0  2  0  0  0  0  0  0  0  0  0
   17.9926  -11.4167  -17.1144 N   0  0  0  0  0  0  0  0  0  0  0  0
   19.6999   -9.8821  -16.4999 C   0  0  0  0  0  0  0  0  0  0  0  0
   19.0716   -9.8408  -15.3983 O   0  0  0  0  0  0  0  0  0  0  0  0
   20.9997   -9.2909  -16.5547 N   0  0  0  0  0  0  0  0  0  0  0  0
   21.7436   -9.0705  -17.7765 C   0  0  0  0  0  0  0  0  0  0  0  0
   23.1983   -9.0271  -17.3559 C   0  0  0  0  0  0  0  0  0  0  0  0
   23.1851   -9.4064  -15.8711 C   0  0  0  0  0  0  0  0  0  0  0  0
   21.8369   -8.8079  -15.4856 C   0  0  1  0  0  0  0  0  0  0  0  0
   21.8599   -7.3268  -15.5478 C   0  0  0  0  0  0  0  0  0  0  0  0
   21.8257   -6.7324  -16.6387 O   0  0  0  0  0  0  0  0  0  0  0  0
   20.6711   -4.8137  -13.1274 C   0  0  0  0  0  0  0  0  0  0  0  0
   21.4131   -5.1652  -14.3946 C   0  0  2  0  0  0  0  0  0  0  0  0
   21.9217   -6.5188  -14.3717 N   0  0  0  0  0  0  0  0  0  0  0  0
   22.5067   -4.2074  -14.6552 C   0  0  0  0  0  0  0  0  0  0  0  0
   22.2427   -3.0190  -14.9312 O   0  0  0  0  0  0  0  0  0  0  0  0
   23.8142   -4.6374  -14.5905 O   0  0  0  0  0  0  0  0  0  0  0  0
  1  2  1  0
  2  3  1  0
  3  5  1  0
  3  4  1  1
  5  6  2  0
  7 11  1  0
  7  5  1  0
  8  7  1  0
  9  8  1  0
  9 10  1  0
 10 11  1  0
 11 12  1  6
 12 13  2  0
 12 16  1  0
 15 14  1  1
 15 17  1  0
 16 15  1  0
 17 18  2  0
 17 19  1  0
M  END
$$$$
