SPA.pdb
     RDKit          3D

 19 19  0  0  1  0  0  0  0  0999 V2000
   19.4224  -10.6624  -18.1166 O   0  0  0  0  0  0  0  0  0  0  0  0
   18.9402   -9.4906  -17.4863 C   0  0  0  0  0  0  0  0  0  0  0  0
   19.2670   -9.6788  -15.9924 C   0  0  2  0  0  0  0  0  0  0  0  0
   18.1867  -10.5730  -15.5315 N   0  0  0  0  0  0  0  0  0  0  0  0
   19.0915   -8.3855  -15.3224 C   0  0  0  0  0  0  0  0  0  0  0  0
   17.9653   -8.1317  -14.7960 O   0  0  0  0  0  0  0  0  0  0  0  0
   20.1164   -7.3942  -15.2272 N   0  0  0  0  0  0  0  0  0  0  0  0
   21.4026   -7.4866  -15.8844 C   0  0  0  0  0  0  0  0  0  0  0  0
   22.3335   -6.6177  -15.0637 C   0  0  0  0  0  0  0  0  0  0  0  0
   21.5032   -6.2018  -13.8446 C   0  0  0  0  0  0  0  0  0  0  0  0
   20.1282   -6.1493  -14.5011 C   0  0  1  0  0  0  0  0  0  0  0  0
   20.0335   -5.0405  -15.4806 C   0  0  0  0  0  0  0  0  0  0  0  0
   20.7293   -5.0362  -16.5103 O   0  0  0  0  0  0  0  0  0  0  0  0
   17.3646   -2.6142  -16.3371 C   0  0  0  0  0  0  0  0  0  0  0  0
   18.7955   -3.0905  -16.4118 C   0  0  2  0  0  0  0  0  0  0  0  0
   19.1488   -3.9350  -15.2923 N   0  0  0  0  0  0  0  0  0  0  0  0
   19.7314   -1.9526  -16.5153 C   0  0  0  0  0  0  0  0  0  0  0  0
   20.4766   -1.6683  -15.5550 O   0  0  0  0  0  0  0  0  0  0  0  0
   19.7727   -1.2123  -17.6768 O   0  0  0  0  0  0  0  0  0  0  0  0
  1  2  1  0
  2  3  1  0
  3  5  1  0
  3  4  1  1
  5  6  2  0
  7 11  1  0
  7  5  1  0
  8  7  1  0
  9  8  1  0
  9 10  1  0
 10 11  1  0
 11 12  1  6
 12 13  2  0
 12 16  1  0
 15 14  1  1
 15 17  1  0
 16 15  1  0
 17 18  2  0
 17 19  1  0
M  END
$$$$
