SPA.pdb
     RDKit          3D

 19 19  0  0  1  0  0  0  0  0999 V2000
   14.9154  -10.4835  -15.6913 O   0  0  0  0  0  0  0  0  0  0  0  0
   16.1703   -9.8868  -15.4231 C   0  0  0  0  0  0  0  0  0  0  0  0
   17.2080  -10.8563  -16.0211 C   0  0  2  0  0  0  0  0  0  0  0  0
   17.0120  -12.0802  -15.2193 N   0  0  0  0  0  0  0  0  0  0  0  0
   18.5452  -10.3342  -15.7180 C   0  0  0  0  0  0  0  0  0  0  0  0
   19.1586  -10.8062  -14.7126 O   0  0  0  0  0  0  0  0  0  0  0  0
   19.1980   -9.3246  -16.4904 N   0  0  0  0  0  0  0  0  0  0  0  0
   18.5719   -8.5939  -17.5716 C   0  0  0  0  0  0  0  0  0  0  0  0
   19.7131   -8.1316  -18.4543 C   0  0  0  0  0  0  0  0  0  0  0  0
   20.9573   -8.8058  -17.8660 C   0  0  0  0  0  0  0  0  0  0  0  0
   20.5459   -8.8228  -16.3980 C   0  0  1  0  0  0  0  0  0  0  0  0
   20.4931   -7.4542  -15.8305 C   0  0  0  0  0  0  0  0  0  0  0  0
   19.5243   -6.7077  -16.0515 O   0  0  0  0  0  0  0  0  0  0  0  0
   22.0115   -5.9977  -12.7922 C   0  0  0  0  0  0  0  0  0  0  0  0
   21.2711   -5.8422  -14.0989 C   0  0  2  0  0  0  0  0  0  0  0  0
   21.5400   -6.9313  -15.0116 N   0  0  0  0  0  0  0  0  0  0  0  0
   21.5810   -4.5464  -14.7363 C   0  0  0  0  0  0  0  0  0  0  0  0
   22.2018   -4.5163  -15.8189 O   0  0  0  0  0  0  0  0  0  0  0  0
   21.1798   -3.3778  -14.1264 O   0  0  0  0  0  0  0  0  0  0  0  0
  1  2  1  0
  2  3  1  0
  3  5  1  0
  3  4  1  1
  5  6  2  0
  7 11  1  0
  7  5  1  0
  8  7  1  0
  9  8  1  0
  9 10  1  0
 10 11  1  0
 11 12  1  6
 12 13  2  0
 12 16  1  0
 15 14  1  1
 15 17  1  0
 16 15  1  0
 17 18  2  0
 17 19  1  0
M  END
$$$$
