SPA.pdb
     RDKit          3D

 19 19  0  0  1  0  0  0  0  0999 V2000
   25.9203  -22.1475  -19.0517 O   0  0  0  0  0  0  0  0  0  0  0  0
   26.3681  -22.7767  -17.8658 C   0  0  0  0  0  0  0  0  0  0  0  0
   27.7612  -22.1753  -17.5977 C   0  0  2  0  0  0  0  0  0  0  0  0
   28.6641  -23.3142  -17.8561 N   0  0  0  0  0  0  0  0  0  0  0  0
   27.8492  -21.8518  -16.1694 C   0  0  0  0  0  0  0  0  0  0  0  0
   28.4352  -22.6764  -15.4036 O   0  0  0  0  0  0  0  0  0  0  0  0
   27.3136  -20.6603  -15.5900 N   0  0  0  0  0  0  0  0  0  0  0  0
   26.4730  -19.7176  -16.2965 C   0  0  0  0  0  0  0  0  0  0  0  0
   26.6535  -18.3999  -15.5710 C   0  0  0  0  0  0  0  0  0  0  0  0
   27.7654  -18.6673  -14.5506 C   0  0  0  0  0  0  0  0  0  0  0  0
   27.4703  -20.1341  -14.2574 C   0  0  1  0  0  0  0  0  0  0  0  0
   26.1835  -20.2986  -13.5398 C   0  0  0  0  0  0  0  0  0  0  0  0
   25.1197  -20.4556  -14.1630 O   0  0  0  0  0  0  0  0  0  0  0  0
   25.3222  -21.1621   -9.9594 C   0  0  0  0  0  0  0  0  0  0  0  0
   25.0588  -21.0250  -11.4399 C   0  0  2  0  0  0  0  0  0  0  0  0
   26.1027  -20.2851  -12.1139 N   0  0  0  0  0  0  0  0  0  0  0  0
   23.7420  -20.4052  -11.6919 C   0  0  0  0  0  0  0  0  0  0  0  0
   23.6755  -19.2456  -12.1492 O   0  0  0  0  0  0  0  0  0  0  0  0
   22.5943  -21.1169  -11.4182 O   0  0  0  0  0  0  0  0  0  0  0  0
  1  2  1  0
  2  3  1  0
  3  5  1  0
  3  4  1  1
  5  6  2  0
  7 11  1  0
  7  5  1  0
  8  7  1  0
  9  8  1  0
  9 10  1  0
 10 11  1  0
 11 12  1  1
 12 13  2  0
 12 16  1  0
 15 14  1  1
 15 17  1  0
 16 15  1  0
 17 18  2  0
 17 19  1  0
M  END
$$$$
