SPA.pdb
     RDKit          3D

 19 19  0  0  1  0  0  0  0  0999 V2000
   24.3455  -11.1038  -21.3978 O   0  0  0  0  0  0  0  0  0  0  0  0
   23.7201  -10.5368  -20.2619 C   0  0  0  0  0  0  0  0  0  0  0  0
   23.8197  -11.6198  -19.1704 C   0  0  2  0  0  0  0  0  0  0  0  0
   22.6260  -12.4503  -19.4241 N   0  0  0  0  0  0  0  0  0  0  0  0
   23.6417  -10.9695  -17.8674 C   0  0  0  0  0  0  0  0  0  0  0  0
   22.5056  -11.0500  -17.3082 O   0  0  0  0  0  0  0  0  0  0  0  0
   24.6745  -10.2506  -17.1903 N   0  0  0  0  0  0  0  0  0  0  0  0
   25.9687   -9.9500  -17.7644 C   0  0  0  0  0  0  0  0  0  0  0  0
   26.8965   -9.7632  -16.5814 C   0  0  0  0  0  0  0  0  0  0  0  0
   26.0535  -10.1502  -15.3614 C   0  0  0  0  0  0  0  0  0  0  0  0
   24.6882   -9.6921  -15.8618 C   0  0  1  0  0  0  0  0  0  0  0  0
   24.6175   -8.2158  -15.9789 C   0  0  0  0  0  0  0  0  0  0  0  0
   25.4767   -7.5834  -16.6164 O   0  0  0  0  0  0  0  0  0  0  0  0
   22.4049   -5.8872  -16.8554 C   0  0  0  0  0  0  0  0  0  0  0  0
   23.3886   -6.0648  -15.7237 C   0  0  2  0  0  0  0  0  0  0  0  0
   23.5713   -7.4557  -15.3725 N   0  0  0  0  0  0  0  0  0  0  0  0
   22.9844   -5.2821  -14.5382 C   0  0  0  0  0  0  0  0  0  0  0  0
   22.5266   -5.8636  -13.5330 O   0  0  0  0  0  0  0  0  0  0  0  0
   23.1173   -3.9106  -14.5538 O   0  0  0  0  0  0  0  0  0  0  0  0
  1  2  1  0
  2  3  1  0
  3  5  1  0
  3  4  1  6
  5  6  2  0
  7 11  1  0
  7  5  1  0
  8  7  1  0
  9  8  1  0
  9 10  1  0
 10 11  1  0
 11 12  1  6
 12 13  2  0
 12 16  1  0
 15 14  1  6
 15 17  1  0
 16 15  1  0
 17 18  2  0
 17 19  1  0
M  END
$$$$
