QSL.pdb
     RDKit          3D

 24 23  0  0  1  0  0  0  0  0999 V2000
   12.9799  -19.3719   20.6386 N   0  0  0  0  0  0  0  0  0  0  0  0
   12.5794  -18.0374   21.0053 C   0  0  0  0  0  0  0  0  0  0  0  0
   13.5060  -17.2321   21.2271 O   0  0  0  0  0  0  0  0  0  0  0  0
   11.1352  -17.7612   21.0822 C   0  0  0  0  0  0  0  0  0  0  0  0
   10.3553  -18.9778   20.6899 C   0  0  0  0  0  0  0  0  0  0  0  0
    8.8689  -18.7333   20.7120 C   0  0  2  0  0  0  0  0  0  0  0  0
    8.6453  -17.7968   19.5698 N   0  0  0  0  0  0  0  0  0  0  0  0
    8.3774  -18.0391   21.9001 C   0  0  0  0  0  0  0  0  0  0  0  0
    8.1368  -16.7815   21.8648 O   0  0  0  0  0  0  0  0  0  0  0  0
    7.5507  -19.9933   25.4373 O   0  0  0  0  0  0  0  0  0  0  0  0
    6.7850  -18.8857   25.1311 C   0  0  0  0  0  0  0  0  0  0  0  0
    7.5562  -17.8815   24.2854 C   0  0  2  0  0  0  0  0  0  0  0  0
    8.1136  -18.6272   23.1736 N   0  0  0  0  0  0  0  0  0  0  0  0
    8.6283  -17.3268   25.1613 C   0  0  0  0  0  0  0  0  0  0  0  0
    9.8074  -17.7101   24.9503 O   0  0  0  0  0  0  0  0  0  0  0  0
    7.5394  -13.6749   26.2188 C   0  0  0  0  0  0  0  0  0  0  0  0
    8.6779  -13.4802   27.2871 C   0  0  1  0  0  0  0  0  0  0  0  0
    8.1690  -12.3659   28.1352 C   0  0  0  0  0  0  0  0  0  0  0  0
    8.8677  -14.8013   27.8917 C   0  0  0  0  0  0  0  0  0  0  0  0
    9.4743  -15.9034   27.0960 C   0  0  2  0  0  0  0  0  0  0  0  0
    8.3909  -16.4126   26.1931 N   0  0  0  0  0  0  0  0  0  0  0  0
    9.8346  -17.0616   27.9059 C   0  0  0  0  0  0  0  0  0  0  0  0
    9.0123  -18.0371   28.0238 O   0  0  0  0  0  0  0  0  0  0  0  0
   11.0157  -17.2128   28.5712 O   0  0  0  0  0  0  0  0  0  0  0  0
  2  1  1  0
  2  3  2  0
  4  2  1  0
  5  4  1  0
  6  5  1  0
  6  7  1  6
  8  6  1  0
  9  8  2  0
 10 11  1  0
 12 11  1  1
 12 13  1  0
 13  8  1  0
 14 12  1  0
 15 14  2  0
 17 16  1  6
 18 17  1  0
 19 17  1  0
 20 19  1  1
 20 21  1  0
 21 14  1  0
 22 20  1  0
 22 24  1  0
 23 22  2  0
M  END
$$$$
