QSL.pdb
     RDKit          3D

 24 23  0  0  1  0  0  0  0  0999 V2000
    7.7167  -12.8199   16.3252 N   0  0  0  0  0  0  0  0  0  0  0  0
    7.8507  -14.2463   16.1731 C   0  0  0  0  0  0  0  0  0  0  0  0
    7.3405  -14.7349   15.1448 O   0  0  0  0  0  0  0  0  0  0  0  0
    8.5658  -14.9759   17.2335 C   0  0  0  0  0  0  0  0  0  0  0  0
    8.9474  -14.0390   18.3374 C   0  0  0  0  0  0  0  0  0  0  0  0
    9.6381  -14.7481   19.4732 C   0  0  2  0  0  0  0  0  0  0  0  0
    9.8593  -16.1291   18.9483 N   0  0  0  0  0  0  0  0  0  0  0  0
    8.8319  -14.9042   20.6817 C   0  0  0  0  0  0  0  0  0  0  0  0
    8.3191  -13.8812   21.2573 O   0  0  0  0  0  0  0  0  0  0  0  0
    8.6486  -18.3354   23.0654 O   0  0  0  0  0  0  0  0  0  0  0  0
    7.4592  -17.6897   22.7907 C   0  0  0  0  0  0  0  0  0  0  0  0
    7.6719  -16.2084   22.5100 C   0  0  2  0  0  0  0  0  0  0  0  0
    8.5242  -16.1332   21.3392 N   0  0  0  0  0  0  0  0  0  0  0  0
    8.3481  -15.6433   23.7132 C   0  0  0  0  0  0  0  0  0  0  0  0
    9.6006  -15.5351   23.6788 O   0  0  0  0  0  0  0  0  0  0  0  0
    5.4881  -12.1130   26.8038 C   0  0  0  0  0  0  0  0  0  0  0  0
    6.5816  -12.7059   25.8405 C   0  0  1  0  0  0  0  0  0  0  0  0
    7.2970  -11.4969   25.3440 C   0  0  0  0  0  0  0  0  0  0  0  0
    7.3168  -13.6826   26.6483 C   0  0  0  0  0  0  0  0  0  0  0  0
    8.3467  -14.5492   26.0127 C   0  0  2  0  0  0  0  0  0  0  0  0
    7.6671  -15.2326   24.8640 N   0  0  0  0  0  0  0  0  0  0  0  0
    8.7801  -15.6454   26.8716 C   0  0  0  0  0  0  0  0  0  0  0  0
    9.5481  -15.4075   27.8693 O   0  0  0  0  0  0  0  0  0  0  0  0
    8.4247  -16.9523   26.7098 O   0  0  0  0  0  0  0  0  0  0  0  0
  2  1  1  0
  2  3  2  0
  4  2  1  0
  5  4  1  0
  6  5  1  0
  6  7  1  6
  8  6  1  0
  9  8  2  0
 10 11  1  0
 12 11  1  1
 12 13  1  0
 13  8  1  0
 14 12  1  0
 15 14  2  0
 17 16  1  1
 18 17  1  0
 19 17  1  0
 20 19  1  1
 20 21  1  0
 21 14  1  0
 22 20  1  0
 22 24  1  0
 23 22  2  0
M  END
$$$$
