QSL.pdb
     RDKit          3D

 24 23  0  0  1  0  0  0  0  0999 V2000
    7.8181  -13.0920   17.3284 N   0  0  0  0  0  0  0  0  0  0  0  0
    8.7097  -13.9378   16.5765 C   0  0  0  0  0  0  0  0  0  0  0  0
    8.9959  -13.5433   15.4281 O   0  0  0  0  0  0  0  0  0  0  0  0
    9.1868  -15.1683   17.2294 C   0  0  0  0  0  0  0  0  0  0  0  0
    8.5495  -15.3185   18.5761 C   0  0  0  0  0  0  0  0  0  0  0  0
    8.9720  -16.5883   19.2679 C   0  0  2  0  0  0  0  0  0  0  0  0
    8.4044  -17.6687   18.4064 N   0  0  0  0  0  0  0  0  0  0  0  0
    8.3922  -16.7885   20.5940 C   0  0  0  0  0  0  0  0  0  0  0  0
    7.3604  -17.5321   20.7465 O   0  0  0  0  0  0  0  0  0  0  0  0
   10.0052  -18.1527   23.3897 O   0  0  0  0  0  0  0  0  0  0  0  0
    8.6391  -17.9556   23.4340 C   0  0  0  0  0  0  0  0  0  0  0  0
    8.2644  -16.5173   23.1039 C   0  0  2  0  0  0  0  0  0  0  0  0
    8.8650  -16.2243   21.8169 N   0  0  0  0  0  0  0  0  0  0  0  0
    8.8490  -15.6701   24.1832 C   0  0  0  0  0  0  0  0  0  0  0  0
   10.0872  -15.4530   24.1451 O   0  0  0  0  0  0  0  0  0  0  0  0
    5.6303  -11.9761   26.8720 C   0  0  0  0  0  0  0  0  0  0  0  0
    6.6811  -12.6714   25.9298 C   0  0  1  0  0  0  0  0  0  0  0  0
    7.2467  -11.5372   25.1465 C   0  0  0  0  0  0  0  0  0  0  0  0
    7.5633  -13.4231   26.8264 C   0  0  0  0  0  0  0  0  0  0  0  0
    8.6928  -14.2149   26.2670 C   0  0  2  0  0  0  0  0  0  0  0  0
    8.0981  -15.1117   25.2229 N   0  0  0  0  0  0  0  0  0  0  0  0
    9.2788  -15.1361   27.2341 C   0  0  0  0  0  0  0  0  0  0  0  0
    8.9450  -16.3731   27.2186 O   0  0  0  0  0  0  0  0  0  0  0  0
   10.1910  -14.7916   28.1878 O   0  0  0  0  0  0  0  0  0  0  0  0
  2  1  1  0
  2  3  2  0
  4  2  1  0
  5  4  1  0
  6  5  1  0
  6  7  1  6
  8  6  1  0
  9  8  2  0
 10 11  1  0
 12 11  1  1
 12 13  1  0
 13  8  1  0
 14 12  1  0
 15 14  2  0
 17 16  1  1
 18 17  1  0
 19 17  1  0
 20 19  1  1
 20 21  1  0
 21 14  1  0
 22 20  1  0
 22 24  1  0
 23 22  2  0
M  END
$$$$
