QSL.pdb
     RDKit          3D

 24 23  0  0  1  0  0  0  0  0999 V2000
    9.7462  -17.1918   15.4984 N   0  0  0  0  0  0  0  0  0  0  0  0
    8.5543  -17.6647   16.1554 C   0  0  0  0  0  0  0  0  0  0  0  0
    7.5092  -17.6363   15.4747 O   0  0  0  0  0  0  0  0  0  0  0  0
    8.6866  -18.1270   17.5471 C   0  0  0  0  0  0  0  0  0  0  0  0
    8.1316  -17.1016   18.4866 C   0  0  0  0  0  0  0  0  0  0  0  0
    8.9959  -16.9201   19.7071 C   0  0  2  0  0  0  0  0  0  0  0  0
    9.6028  -18.2689   19.9171 N   0  0  0  0  0  0  0  0  0  0  0  0
    8.2678  -16.6137   20.9363 C   0  0  0  0  0  0  0  0  0  0  0  0
    7.5293  -15.5697   21.0109 O   0  0  0  0  0  0  0  0  0  0  0  0
    8.5222  -18.9031   24.4165 O   0  0  0  0  0  0  0  0  0  0  0  0
    7.3218  -18.2874   24.1217 C   0  0  0  0  0  0  0  0  0  0  0  0
    7.5241  -17.0092   23.3195 C   0  0  2  0  0  0  0  0  0  0  0  0
    8.2768  -17.3838   22.1379 N   0  0  0  0  0  0  0  0  0  0  0  0
    8.3032  -16.0826   24.1905 C   0  0  0  0  0  0  0  0  0  0  0  0
    9.5488  -16.0365   24.0222 O   0  0  0  0  0  0  0  0  0  0  0  0
    6.1175  -11.4841   26.3467 C   0  0  0  0  0  0  0  0  0  0  0  0
    6.9836  -12.5191   25.5380 C   0  0  1  0  0  0  0  0  0  0  0  0
    7.7942  -11.6581   24.6317 C   0  0  0  0  0  0  0  0  0  0  0  0
    7.6696  -13.3227   26.5533 C   0  0  0  0  0  0  0  0  0  0  0  0
    8.5343  -14.4620   26.1410 C   0  0  2  0  0  0  0  0  0  0  0  0
    7.7251  -15.2723   25.1732 N   0  0  0  0  0  0  0  0  0  0  0  0
    8.8162  -15.3890   27.2311 C   0  0  0  0  0  0  0  0  0  0  0  0
    8.1279  -16.4635   27.3476 O   0  0  0  0  0  0  0  0  0  0  0  0
    9.7878  -15.2157   28.1726 O   0  0  0  0  0  0  0  0  0  0  0  0
  2  1  1  0
  2  3  2  0
  4  2  1  0
  5  4  1  0
  6  5  1  0
  6  7  1  1
  8  6  1  0
  9  8  2  0
 10 11  1  0
 12 11  1  1
 12 13  1  0
 13  8  1  0
 14 12  1  0
 15 14  2  0
 17 16  1  1
 18 17  1  0
 19 17  1  0
 20 19  1  1
 20 21  1  0
 21 14  1  0
 22 20  1  0
 22 24  1  0
 23 22  2  0
M  END
$$$$
