QSL.pdb
     RDKit          3D

 24 23  0  0  1  0  0  0  0  0999 V2000
    7.9648  -12.5197   17.2105 N   0  0  0  0  0  0  0  0  0  0  0  0
    8.1271  -13.7703   16.5138 C   0  0  0  0  0  0  0  0  0  0  0  0
    8.3910  -13.6861   15.2974 O   0  0  0  0  0  0  0  0  0  0  0  0
    7.9660  -15.0070   17.2965 C   0  0  0  0  0  0  0  0  0  0  0  0
    7.5852  -14.6792   18.7071 C   0  0  0  0  0  0  0  0  0  0  0  0
    8.7396  -14.8421   19.6613 C   0  0  2  0  0  0  0  0  0  0  0  0
    9.5533  -15.9367   19.0519 N   0  0  0  0  0  0  0  0  0  0  0  0
    8.3731  -15.3118   20.9955 C   0  0  0  0  0  0  0  0  0  0  0  0
    7.3879  -14.7849   21.6219 O   0  0  0  0  0  0  0  0  0  0  0  0
   10.5779  -18.1102   23.1293 O   0  0  0  0  0  0  0  0  0  0  0  0
    9.2076  -18.1325   23.2989 C   0  0  0  0  0  0  0  0  0  0  0  0
    8.5852  -16.7649   23.0529 C   0  0  2  0  0  0  0  0  0  0  0  0
    9.0162  -16.3522   21.7312 N   0  0  0  0  0  0  0  0  0  0  0  0
    9.1237  -15.8596   24.1087 C   0  0  0  0  0  0  0  0  0  0  0  0
   10.2401  -15.3204   23.8978 O   0  0  0  0  0  0  0  0  0  0  0  0
    5.8345  -12.4970   26.7692 C   0  0  0  0  0  0  0  0  0  0  0  0
    7.0494  -13.0265   25.9213 C   0  0  1  0  0  0  0  0  0  0  0  0
    7.6677  -11.7803   25.3879 C   0  0  0  0  0  0  0  0  0  0  0  0
    7.8237  -13.8645   26.8407 C   0  0  0  0  0  0  0  0  0  0  0  0
    8.9932  -14.6361   26.3381 C   0  0  2  0  0  0  0  0  0  0  0  0
    8.4572  -15.5837   25.3072 N   0  0  0  0  0  0  0  0  0  0  0  0
    9.5802  -15.5074   27.3498 C   0  0  0  0  0  0  0  0  0  0  0  0
   10.2464  -14.9991   28.3192 O   0  0  0  0  0  0  0  0  0  0  0  0
    9.4767  -16.8673   27.3650 O   0  0  0  0  0  0  0  0  0  0  0  0
  2  1  1  0
  2  3  2  0
  4  2  1  0
  5  4  1  0
  6  5  1  0
  6  7  1  6
  8  6  1  0
  9  8  2  0
 10 11  1  0
 12 11  1  1
 12 13  1  0
 13  8  1  0
 14 12  1  0
 15 14  2  0
 17 16  1  1
 18 17  1  0
 19 17  1  0
 20 19  1  1
 20 21  1  0
 21 14  1  0
 22 20  1  0
 22 24  1  0
 23 22  2  0
M  END
$$$$
