QSL.pdb
     RDKit          3D

 24 23  0  0  1  0  0  0  0  0999 V2000
   10.5241  -12.5380   19.4318 N   0  0  0  0  0  0  0  0  0  0  0  0
    9.8831  -12.8603   18.1825 C   0  0  0  0  0  0  0  0  0  0  0  0
   10.6455  -13.1281   17.2320 O   0  0  0  0  0  0  0  0  0  0  0  0
    8.4111  -12.8403   18.1520 C   0  0  0  0  0  0  0  0  0  0  0  0
    7.8605  -13.4736   19.3921 C   0  0  0  0  0  0  0  0  0  0  0  0
    8.4318  -14.8468   19.6324 C   0  0  2  0  0  0  0  0  0  0  0  0
    7.7843  -15.6901   18.5830 N   0  0  0  0  0  0  0  0  0  0  0  0
    8.0657  -15.4499   20.9119 C   0  0  0  0  0  0  0  0  0  0  0  0
    6.8483  -15.4402   21.3102 O   0  0  0  0  0  0  0  0  0  0  0  0
   10.6111  -17.7831   23.1056 O   0  0  0  0  0  0  0  0  0  0  0  0
    9.2558  -17.9021   23.3420 C   0  0  0  0  0  0  0  0  0  0  0  0
    8.5259  -16.5838   23.1236 C   0  0  2  0  0  0  0  0  0  0  0  0
    8.9526  -16.0909   21.8283 N   0  0  0  0  0  0  0  0  0  0  0  0
    8.9597  -15.6737   24.2226 C   0  0  0  0  0  0  0  0  0  0  0  0
   10.0570  -15.0753   24.0825 O   0  0  0  0  0  0  0  0  0  0  0  0
    5.8505  -11.9691   26.4993 C   0  0  0  0  0  0  0  0  0  0  0  0
    7.1313  -12.6286   25.8668 C   0  0  1  0  0  0  0  0  0  0  0  0
    8.0369  -11.4690   25.6321 C   0  0  0  0  0  0  0  0  0  0  0  0
    7.5395  -13.6654   26.8183 C   0  0  0  0  0  0  0  0  0  0  0  0
    8.6838  -14.5615   26.4966 C   0  0  2  0  0  0  0  0  0  0  0  0
    8.2162  -15.4550   25.3871 N   0  0  0  0  0  0  0  0  0  0  0  0
    9.0106  -15.4820   27.5797 C   0  0  0  0  0  0  0  0  0  0  0  0
    9.6201  -15.0500   28.6207 O   0  0  0  0  0  0  0  0  0  0  0  0
    8.7101  -16.8124   27.5918 O   0  0  0  0  0  0  0  0  0  0  0  0
  2  1  1  0
  2  3  2  0
  4  2  1  0
  5  4  1  0
  6  5  1  0
  6  7  1  6
  8  6  1  0
  9  8  2  0
 10 11  1  0
 12 11  1  1
 12 13  1  0
 13  8  1  0
 14 12  1  0
 15 14  2  0
 17 16  1  1
 18 17  1  0
 19 17  1  0
 20 19  1  1
 20 21  1  0
 21 14  1  0
 22 20  1  0
 22 24  1  0
 23 22  2  0
M  END
$$$$
