QSL.pdb
     RDKit          3D

 24 23  0  0  1  0  0  0  0  0999 V2000
   15.1149  -15.6487   19.7001 N   0  0  0  0  0  0  0  0  0  0  0  0
   14.3396  -14.6566   18.9998 C   0  0  0  0  0  0  0  0  0  0  0  0
   14.8947  -13.5526   18.8283 O   0  0  0  0  0  0  0  0  0  0  0  0
   12.9864  -15.0392   18.5634 C   0  0  0  0  0  0  0  0  0  0  0  0
   12.0930  -15.2207   19.7513 C   0  0  0  0  0  0  0  0  0  0  0  0
   10.7160  -15.6920   19.3618 C   0  0  2  0  0  0  0  0  0  0  0  0
   10.3217  -14.7654   18.2583 N   0  0  0  0  0  0  0  0  0  0  0  0
    9.6970  -15.5367   20.3974 C   0  0  0  0  0  0  0  0  0  0  0  0
    9.0827  -14.4221   20.5425 O   0  0  0  0  0  0  0  0  0  0  0  0
    8.5593  -18.5696   23.0660 O   0  0  0  0  0  0  0  0  0  0  0  0
    7.6112  -17.6966   22.5703 C   0  0  0  0  0  0  0  0  0  0  0  0
    8.2037  -16.3247   22.2784 C   0  0  2  0  0  0  0  0  0  0  0  0
    9.2739  -16.5372   21.3232 N   0  0  0  0  0  0  0  0  0  0  0  0
    8.7262  -15.8057   23.5752 C   0  0  0  0  0  0  0  0  0  0  0  0
    9.9725  -15.8124   23.7440 O   0  0  0  0  0  0  0  0  0  0  0  0
    5.7537  -12.1168   26.7195 C   0  0  0  0  0  0  0  0  0  0  0  0
    7.0465  -12.5718   25.9467 C   0  0  1  0  0  0  0  0  0  0  0  0
    8.0149  -11.4719   26.2156 C   0  0  0  0  0  0  0  0  0  0  0  0
    7.3424  -13.9156   26.4504 C   0  0  0  0  0  0  0  0  0  0  0  0
    8.4556  -14.7046   25.8553 C   0  0  2  0  0  0  0  0  0  0  0  0
    7.9095  -15.3176   24.6006 N   0  0  0  0  0  0  0  0  0  0  0  0
    8.8431  -15.8504   26.6704 C   0  0  0  0  0  0  0  0  0  0  0  0
    8.2223  -16.9637   26.5404 O   0  0  0  0  0  0  0  0  0  0  0  0
    9.8499  -15.8498   27.5907 O   0  0  0  0  0  0  0  0  0  0  0  0
  2  1  1  0
  2  3  2  0
  4  2  1  0
  5  4  1  0
  6  5  1  0
  6  7  1  6
  8  6  1  0
  9  8  2  0
 10 11  1  0
 12 11  1  1
 12 13  1  0
 13  8  1  0
 14 12  1  0
 15 14  2  0
 17 16  1  1
 18 17  1  0
 19 17  1  0
 20 19  1  1
 20 21  1  0
 21 14  1  0
 22 20  1  0
 22 24  1  0
 23 22  2  0
M  END
$$$$
