MIP.pdb
     RDKit          3D

 24 24  0  0  1  0  0  0  0  0999 V2000
   19.7130  -24.2620  -10.7511 C   0  0  0  0  0  0  0  0  0  0  0  0
   18.8549  -24.0089  -12.3320 S   0  0  0  0  0  0  0  0  0  0  0  0
   19.0768  -22.2483  -12.7813 C   0  0  0  0  0  0  0  0  0  0  0  0
   20.5437  -21.9409  -12.6133 C   0  0  0  0  0  0  0  0  0  0  0  0
   20.8145  -20.4528  -12.7273 C   0  0  2  0  0  0  0  0  0  0  0  0
   20.3288  -20.0198  -14.0179 N   0  0  0  0  0  0  0  0  0  0  0  0
   22.2661  -20.1615  -12.6174 C   0  0  0  0  0  0  0  0  0  0  0  0
   22.7458  -19.4549  -13.5714 O   0  0  0  0  0  0  0  0  0  0  0  0
   26.8392  -20.0538   -8.4245 C   0  0  0  0  0  0  0  0  0  0  0  0
   26.4153  -20.0717   -9.8984 C   0  0  0  0  0  0  0  0  0  0  0  0
   24.9628  -20.4252  -10.0294 C   0  0  2  0  0  0  0  0  0  0  0  0
   24.7278  -21.7507   -9.3682 C   0  0  0  0  0  0  0  0  0  0  0  0
   24.4827  -20.2856  -11.4255 C   0  0  2  0  0  0  0  0  0  0  0  0
   23.0767  -20.6142  -11.5571 N   0  0  0  0  0  0  0  0  0  0  0  0
   25.3150  -20.8328  -12.4892 C   0  0  0  0  0  0  0  0  0  0  0  0
   25.0077  -22.0224  -12.8808 O   0  0  0  0  0  0  0  0  0  0  0  0
   26.4132  -20.2516  -13.1541 N   0  0  0  0  0  0  0  0  0  0  0  0
   27.3070  -19.1675  -12.8381 C   0  0  0  0  0  0  0  0  0  0  0  0
   27.7951  -18.6299  -14.1822 C   0  0  0  0  0  0  0  0  0  0  0  0
   27.0418  -19.4439  -15.2207 C   0  0  0  0  0  0  0  0  0  0  0  0
   26.9006  -20.7479  -14.4571 C   0  0  1  0  0  0  0  0  0  0  0  0
   28.1974  -21.4489  -14.3052 C   0  0  0  0  0  0  0  0  0  0  0  0
   28.8229  -22.0945  -15.3541 O   0  0  0  0  0  0  0  0  0  0  0  0
   28.7569  -21.4621  -13.1836 O   0  0  0  0  0  0  0  0  0  0  0  0
  1  2  1  0
  3  2  1  0
  4  3  1  0
  5  7  1  0
  5  4  1  0
  5  6  1  6
  7  8  2  0
  9 10  1  0
 10 11  1  0
 11 12  1  6
 13 11  1  0
 13 14  1  1
 14  7  1  0
 15 16  2  0
 15 13  1  0
 17 15  1  0
 18 17  1  0
 19 18  1  0
 20 19  1  0
 20 21  1  0
 21 22  1  1
 21 17  1  0
 22 23  1  0
 24 22  2  0
M  END
$$$$
