MIP.pdb
     RDKit          3D

 24 24  0  0  1  0  0  0  0  0999 V2000
   17.6719  -15.2187  -21.9303 C   0  0  0  0  0  0  0  0  0  0  0  0
   18.1235  -14.2303  -20.4746 S   0  0  0  0  0  0  0  0  0  0  0  0
   19.8532  -14.6594  -20.0566 C   0  0  0  0  0  0  0  0  0  0  0  0
   20.2354  -13.8082  -18.8716 C   0  0  0  0  0  0  0  0  0  0  0  0
   21.6906  -14.0076  -18.4926 C   0  0  2  0  0  0  0  0  0  0  0  0
   21.8759  -15.4112  -18.2013 N   0  0  0  0  0  0  0  0  0  0  0  0
   22.0503  -13.1991  -17.3006 C   0  0  0  0  0  0  0  0  0  0  0  0
   21.6344  -13.6718  -16.1856 O   0  0  0  0  0  0  0  0  0  0  0  0
   26.7831  -10.1997  -16.0832 C   0  0  0  0  0  0  0  0  0  0  0  0
   25.3123  -10.1509  -16.5156 C   0  0  0  0  0  0  0  0  0  0  0  0
   24.5220  -11.2294  -15.8345 C   0  0  2  0  0  0  0  0  0  0  0  0
   25.2228  -12.5402  -16.0349 C   0  0  0  0  0  0  0  0  0  0  0  0
   23.0866  -11.1811  -16.2038 C   0  0  2  0  0  0  0  0  0  0  0  0
   22.7907  -12.0015  -17.3620 N   0  0  0  0  0  0  0  0  0  0  0  0
   22.4329   -9.8788  -16.2249 C   0  0  0  0  0  0  0  0  0  0  0  0
   22.4079   -9.2866  -17.3702 O   0  0  0  0  0  0  0  0  0  0  0  0
   21.8234   -9.1669  -15.1725 N   0  0  0  0  0  0  0  0  0  0  0  0
   21.7100   -9.3916  -13.7545 C   0  0  0  0  0  0  0  0  0  0  0  0
   20.4310   -8.6754  -13.3243 C   0  0  0  0  0  0  0  0  0  0  0  0
   19.8400   -8.1313  -14.6140 C   0  0  0  0  0  0  0  0  0  0  0  0
   21.1220   -7.8850  -15.3880 C   0  0  1  0  0  0  0  0  0  0  0  0
   21.9019   -6.7546  -14.8311 C   0  0  0  0  0  0  0  0  0  0  0  0
   23.1512   -6.9184  -14.2649 O   0  0  0  0  0  0  0  0  0  0  0  0
   21.4166   -5.5996  -14.8707 O   0  0  0  0  0  0  0  0  0  0  0  0
  1  2  1  0
  3  2  1  0
  4  3  1  0
  5  7  1  0
  5  4  1  0
  5  6  1  1
  7  8  2  0
  9 10  1  0
 10 11  1  0
 11 12  1  6
 13 11  1  0
 13 14  1  6
 14  7  1  0
 15 16  2  0
 15 13  1  0
 17 15  1  0
 18 17  1  0
 19 18  1  0
 20 19  1  0
 20 21  1  0
 21 22  1  1
 21 17  1  0
 22 23  1  0
 24 22  2  0
M  END
$$$$
