MIP.pdb
     RDKit          3D

 24 24  0  0  1  0  0  0  0  0999 V2000
   25.5347  -16.1530  -16.0137 C   0  0  0  0  0  0  0  0  0  0  0  0
   27.2538  -15.7726  -16.4606 S   0  0  0  0  0  0  0  0  0  0  0  0
   28.2863  -17.1375  -15.8111 C   0  0  0  0  0  0  0  0  0  0  0  0
   27.3370  -18.1941  -15.3041 C   0  0  0  0  0  0  0  0  0  0  0  0
   28.0821  -19.3336  -14.6354 C   0  0  2  0  0  0  0  0  0  0  0  0
   28.8062  -20.0436  -15.6653 N   0  0  0  0  0  0  0  0  0  0  0  0
   27.1444  -20.2618  -13.9549 C   0  0  0  0  0  0  0  0  0  0  0  0
   26.7621  -21.2557  -14.6658 O   0  0  0  0  0  0  0  0  0  0  0  0
   26.6592  -20.6167   -8.4771 C   0  0  0  0  0  0  0  0  0  0  0  0
   26.6457  -21.0519   -9.9478 C   0  0  0  0  0  0  0  0  0  0  0  0
   25.3961  -20.5787  -10.6306 C   0  0  2  0  0  0  0  0  0  0  0  0
   24.2136  -21.2298   -9.9772 C   0  0  0  0  0  0  0  0  0  0  0  0
   25.4905  -20.7018  -12.1054 C   0  0  2  0  0  0  0  0  0  0  0  0
   26.6940  -20.0872  -12.6309 N   0  0  0  0  0  0  0  0  0  0  0  0
   24.2959  -20.4170  -12.8899 C   0  0  0  0  0  0  0  0  0  0  0  0
   24.0965  -19.1740  -13.1696 O   0  0  0  0  0  0  0  0  0  0  0  0
   23.3205  -21.3039  -13.3879 N   0  0  0  0  0  0  0  0  0  0  0  0
   23.1333  -22.7289  -13.2976 C   0  0  0  0  0  0  0  0  0  0  0  0
   22.3384  -23.1203  -14.5421 C   0  0  0  0  0  0  0  0  0  0  0  0
   22.1907  -21.8287  -15.3286 C   0  0  0  0  0  0  0  0  0  0  0  0
   22.1610  -20.8407  -14.1769 C   0  0  1  0  0  0  0  0  0  0  0  0
   20.9101  -20.9402  -13.3884 C   0  0  0  0  0  0  0  0  0  0  0  0
   19.6969  -20.4712  -13.8532 O   0  0  0  0  0  0  0  0  0  0  0  0
   20.9445  -21.4697  -12.2528 O   0  0  0  0  0  0  0  0  0  0  0  0
  1  2  1  0
  3  2  1  0
  4  3  1  0
  5  7  1  0
  5  4  1  0
  5  6  1  6
  7  8  2  0
  9 10  1  0
 10 11  1  0
 11 12  1  1
 13 11  1  0
 13 14  1  6
 14  7  1  0
 15 16  2  0
 15 13  1  0
 17 15  1  0
 18 17  1  0
 19 18  1  0
 20 19  1  0
 20 21  1  0
 21 22  1  1
 21 17  1  0
 22 23  1  0
 24 22  2  0
M  END
$$$$
