STR.pdb
     RDKit          3D

 25 24  0  0  1  0  0  0  0  0999 V2000
    8.9575  -15.2980   16.8410 O   0  0  0  0  0  0  0  0  0  0  0  0
   10.0262  -15.9702   16.3054 C   0  0  0  0  0  0  0  0  0  0  0  0
    9.8584  -17.4538   16.5266 C   0  0  2  0  0  0  0  0  0  0  0  0
    8.6791  -17.9510   15.8066 N   0  0  0  0  0  0  0  0  0  0  0  0
    9.6624  -17.8197   17.9523 C   0  0  0  0  0  0  0  0  0  0  0  0
    8.4966  -18.0168   18.4463 O   0  0  0  0  0  0  0  0  0  0  0  0
   11.2728  -20.6418   19.5916 C   0  0  0  0  0  0  0  0  0  0  0  0
   11.5417  -19.4949   20.5457 C   0  0  1  0  0  0  0  0  0  0  0  0
   12.8262  -19.0404   20.3037 O   0  0  0  0  0  0  0  0  0  0  0  0
   10.4976  -18.4321   20.2654 C   0  0  2  0  0  0  0  0  0  0  0  0
   10.7296  -17.9832   18.8844 N   0  0  0  0  0  0  0  0  0  0  0  0
   10.8010  -17.2621   21.1384 C   0  0  0  0  0  0  0  0  0  0  0  0
   11.1353  -16.1286   20.6683 O   0  0  0  0  0  0  0  0  0  0  0  0
    8.2034  -11.7263   20.3015 N   0  0  0  0  0  0  0  0  0  0  0  0
    7.7029  -12.9384   19.7719 C   0  0  0  0  0  0  0  0  0  0  0  0
    7.6005  -13.0642   18.4985 N   0  0  0  0  0  0  0  0  0  0  0  0
    7.3250  -13.9867   20.6483 N   0  0  0  0  0  0  0  0  0  0  0  0
    7.5361  -13.9192   22.0737 C   0  0  0  0  0  0  0  0  0  0  0  0
    8.9272  -14.3544   22.4348 C   0  0  0  0  0  0  0  0  0  0  0  0
    9.0078  -15.7195   23.0254 C   0  0  0  0  0  0  0  0  0  0  0  0
   10.4020  -16.1767   23.3799 C   0  0  2  0  0  0  0  0  0  0  0  0
   10.7371  -17.3332   22.5657 N   0  0  0  0  0  0  0  0  0  0  0  0
   10.3223  -16.5829   24.8139 C   0  0  0  0  0  0  0  0  0  0  0  0
    9.8432  -17.6786   25.1790 O   0  0  0  0  0  0  0  0  0  0  0  0
   10.8051  -15.6931   25.7591 O   0  0  0  0  0  0  0  0  0  0  0  0
  2  1  1  0
  2  3  1  0
  3  4  1  6
  5  6  2  0
  5  3  1  0
  8  7  1  6
  8 10  1  0
  9  8  1  0
 10 12  1  0
 10 11  1  6
 11  5  1  0
 12 13  2  0
 15 14  1  0
 16 15  2  0
 17 15  1  0
 18 19  1  0
 18 17  1  0
 20 19  1  0
 21 20  1  6
 22 12  1  0
 22 21  1  0
 23 25  1  0
 23 21  1  0
 24 23  2  0
M  END
$$$$
