STR.pdb
     RDKit          3D

 25 24  0  0  1  0  0  0  0  0999 V2000
    9.5195  -17.0893   17.1582 O   0  0  0  0  0  0  0  0  0  0  0  0
   10.5242  -18.0161   17.0478 C   0  0  0  0  0  0  0  0  0  0  0  0
   10.0405  -19.3549   17.5496 C   0  0  2  0  0  0  0  0  0  0  0  0
    8.7954  -19.7386   16.8723 N   0  0  0  0  0  0  0  0  0  0  0  0
    9.7459  -19.3686   19.0048 C   0  0  0  0  0  0  0  0  0  0  0  0
    8.6052  -19.0128   19.4678 O   0  0  0  0  0  0  0  0  0  0  0  0
   11.0815  -22.0479   21.6388 C   0  0  0  0  0  0  0  0  0  0  0  0
   11.3650  -20.6385   22.1199 C   0  0  1  0  0  0  0  0  0  0  0  0
   12.6694  -20.3319   21.7743 O   0  0  0  0  0  0  0  0  0  0  0  0
   10.3641  -19.7280   21.4362 C   0  0  2  0  0  0  0  0  0  0  0  0
   10.6836  -19.7708   20.0014 N   0  0  0  0  0  0  0  0  0  0  0  0
   10.6463  -18.3336   21.8826 C   0  0  0  0  0  0  0  0  0  0  0  0
   11.4211  -17.5556   21.2410 O   0  0  0  0  0  0  0  0  0  0  0  0
    6.8285  -11.9862   19.7305 N   0  0  0  0  0  0  0  0  0  0  0  0
    7.8302  -12.8044   19.1585 C   0  0  0  0  0  0  0  0  0  0  0  0
    8.3575  -12.4519   18.0424 N   0  0  0  0  0  0  0  0  0  0  0  0
    8.2330  -13.9913   19.8210 N   0  0  0  0  0  0  0  0  0  0  0  0
    8.4927  -14.0373   21.2391 C   0  0  0  0  0  0  0  0  0  0  0  0
    8.8256  -15.4329   21.6821 C   0  0  0  0  0  0  0  0  0  0  0  0
    9.1155  -15.5607   23.1377 C   0  0  0  0  0  0  0  0  0  0  0  0
   10.3220  -16.4033   23.4733 C   0  0  2  0  0  0  0  0  0  0  0  0
   10.0648  -17.7740   23.0637 N   0  0  0  0  0  0  0  0  0  0  0  0
   10.4354  -16.3405   24.9602 C   0  0  0  0  0  0  0  0  0  0  0  0
   10.8088  -15.3120   25.5654 O   0  0  0  0  0  0  0  0  0  0  0  0
   10.1085  -17.4802   25.6759 O   0  0  0  0  0  0  0  0  0  0  0  0
  2  1  1  0
  2  3  1  0
  3  4  1  6
  5  6  2  0
  5  3  1  0
  8  7  1  6
  8 10  1  0
  9  8  1  0
 10 12  1  0
 10 11  1  6
 11  5  1  0
 12 13  2  0
 15 14  1  0
 16 15  2  0
 17 15  1  0
 18 19  1  0
 18 17  1  0
 20 19  1  0
 21 20  1  1
 22 12  1  0
 22 21  1  0
 23 25  1  0
 23 21  1  0
 24 23  2  0
M  END
$$$$
