STR.pdb
     RDKit          3D

 25 24  0  0  1  0  0  0  0  0999 V2000
    7.8323  -11.4634   27.6368 O   0  0  0  0  0  0  0  0  0  0  0  0
    7.9199  -12.6478   26.9510 C   0  0  0  0  0  0  0  0  0  0  0  0
    6.9617  -12.6341   25.7850 C   0  0  2  0  0  0  0  0  0  0  0  0
    5.5727  -12.6145   26.2609 N   0  0  0  0  0  0  0  0  0  0  0  0
    7.0852  -13.8238   24.9052 C   0  0  0  0  0  0  0  0  0  0  0  0
    6.4918  -14.9276   25.1725 O   0  0  0  0  0  0  0  0  0  0  0  0
    6.6155  -13.9587   21.2667 C   0  0  0  0  0  0  0  0  0  0  0  0
    7.9514  -14.6491   21.4582 C   0  0  1  0  0  0  0  0  0  0  0  0
    8.9433  -13.7419   21.1295 O   0  0  0  0  0  0  0  0  0  0  0  0
    8.0253  -15.0743   22.9114 C   0  0  2  0  0  0  0  0  0  0  0  0
    7.8579  -13.8488   23.7066 N   0  0  0  0  0  0  0  0  0  0  0  0
    9.4142  -15.5506   23.1707 C   0  0  0  0  0  0  0  0  0  0  0  0
   10.3751  -14.7531   23.4115 O   0  0  0  0  0  0  0  0  0  0  0  0
   12.0731  -21.3353   27.9827 N   0  0  0  0  0  0  0  0  0  0  0  0
   10.9148  -21.2404   27.1767 C   0  0  0  0  0  0  0  0  0  0  0  0
   10.4039  -22.3150   26.6949 N   0  0  0  0  0  0  0  0  0  0  0  0
   10.3409  -19.9707   26.9157 N   0  0  0  0  0  0  0  0  0  0  0  0
   10.0726  -19.5016   25.5782 C   0  0  0  0  0  0  0  0  0  0  0  0
   11.3314  -19.4516   24.7609 C   0  0  0  0  0  0  0  0  0  0  0  0
   11.1504  -18.8948   23.3912 C   0  0  0  0  0  0  0  0  0  0  0  0
   11.1368  -17.3874   23.3153 C   0  0  2  0  0  0  0  0  0  0  0  0
    9.7625  -16.9381   23.1668 N   0  0  0  0  0  0  0  0  0  0  0  0
   11.9057  -17.0559   22.0797 C   0  0  0  0  0  0  0  0  0  0  0  0
   11.3677  -16.5726   21.0597 O   0  0  0  0  0  0  0  0  0  0  0  0
   13.2684  -17.3028   22.0882 O   0  0  0  0  0  0  0  0  0  0  0  0
  2  1  1  0
  2  3  1  0
  3  4  1  1
  5  6  2  0
  5  3  1  0
  8  7  1  1
  8 10  1  0
  9  8  1  0
 10 12  1  0
 10 11  1  1
 11  5  1  0
 12 13  2  0
 15 14  1  0
 16 15  2  0
 17 15  1  0
 18 19  1  0
 18 17  1  0
 20 19  1  0
 21 20  1  6
 22 12  1  0
 22 21  1  0
 23 25  1  0
 23 21  1  0
 24 23  2  0
M  END
$$$$
