STR.pdb
     RDKit          3D

 25 24  0  0  1  0  0  0  0  0999 V2000
   12.6451  -16.8907   16.8669 O   0  0  0  0  0  0  0  0  0  0  0  0
   11.8845  -16.8953   18.0080 C   0  0  0  0  0  0  0  0  0  0  0  0
   10.9161  -18.0523   17.9708 C   0  0  2  0  0  0  0  0  0  0  0  0
    9.9965  -17.9169   16.8340 N   0  0  0  0  0  0  0  0  0  0  0  0
   10.0674  -18.1514   19.1852 C   0  0  0  0  0  0  0  0  0  0  0  0
    8.8769  -17.6787   19.2191 O   0  0  0  0  0  0  0  0  0  0  0  0
    9.7048  -21.2206   21.6203 C   0  0  0  0  0  0  0  0  0  0  0  0
   10.0817  -19.9858   22.4147 C   0  0  1  0  0  0  0  0  0  0  0  0
   11.4523  -20.0114   22.6046 O   0  0  0  0  0  0  0  0  0  0  0  0
    9.6404  -18.7849   21.6016 C   0  0  2  0  0  0  0  0  0  0  0  0
   10.4882  -18.7685   20.4003 N   0  0  0  0  0  0  0  0  0  0  0  0
    9.9957  -17.5616   22.3767 C   0  0  0  0  0  0  0  0  0  0  0  0
   11.1151  -16.9723   22.2458 O   0  0  0  0  0  0  0  0  0  0  0  0
    9.3831  -14.1058   20.1646 N   0  0  0  0  0  0  0  0  0  0  0  0
    8.3121  -13.2725   19.7661 C   0  0  0  0  0  0  0  0  0  0  0  0
    8.3266  -12.7637   18.5876 N   0  0  0  0  0  0  0  0  0  0  0  0
    7.2483  -13.0141   20.6669 N   0  0  0  0  0  0  0  0  0  0  0  0
    7.3554  -13.2610   22.0840 C   0  0  0  0  0  0  0  0  0  0  0  0
    8.3954  -14.3049   22.3731 C   0  0  0  0  0  0  0  0  0  0  0  0
    8.4990  -14.6846   23.8098 C   0  0  0  0  0  0  0  0  0  0  0  0
    9.4745  -15.7985   24.1034 C   0  0  2  0  0  0  0  0  0  0  0  0
    9.1020  -16.9658   23.3214 N   0  0  0  0  0  0  0  0  0  0  0  0
    9.2973  -16.0943   25.5556 C   0  0  0  0  0  0  0  0  0  0  0  0
    8.7143  -17.1203   25.9688 O   0  0  0  0  0  0  0  0  0  0  0  0
    9.8079  -15.1800   26.4620 O   0  0  0  0  0  0  0  0  0  0  0  0
  2  1  1  0
  2  3  1  0
  3  4  1  6
  5  6  2  0
  5  3  1  0
  8  7  1  6
  8 10  1  0
  9  8  1  0
 10 12  1  0
 10 11  1  6
 11  5  1  0
 12 13  2  0
 15 14  1  0
 16 15  2  0
 17 15  1  0
 18 19  1  0
 18 17  1  0
 20 19  1  0
 21 20  1  6
 22 12  1  0
 22 21  1  0
 23 25  1  0
 23 21  1  0
 24 23  2  0
M  END
$$$$
