STR.pdb
     RDKit          3D

 25 24  0  0  1  0  0  0  0  0999 V2000
    1.4868  -22.0368   24.9848 O   0  0  0  0  0  0  0  0  0  0  0  0
    1.3645  -21.2874   23.8427 C   0  0  0  0  0  0  0  0  0  0  0  0
    1.9563  -22.0379   22.6745 C   0  0  2  0  0  0  0  0  0  0  0  0
    1.3068  -23.3460   22.5215 N   0  0  0  0  0  0  0  0  0  0  0  0
    3.4091  -22.3073   22.8206 C   0  0  0  0  0  0  0  0  0  0  0  0
    3.8576  -23.4802   23.0758 O   0  0  0  0  0  0  0  0  0  0  0  0
    6.1227  -21.7869   20.4004 C   0  0  0  0  0  0  0  0  0  0  0  0
    6.5292  -20.9856   21.6213 C   0  0  1  0  0  0  0  0  0  0  0  0
    6.1152  -19.6801   21.4231 O   0  0  0  0  0  0  0  0  0  0  0  0
    5.8498  -21.6248   22.8163 C   0  0  2  0  0  0  0  0  0  0  0  0
    4.4191  -21.3083   22.6929 N   0  0  0  0  0  0  0  0  0  0  0  0
    6.3276  -20.9158   24.0379 C   0  0  0  0  0  0  0  0  0  0  0  0
    5.7304  -19.8989   24.5139 O   0  0  0  0  0  0  0  0  0  0  0  0
    9.9886  -23.3169   31.7322 N   0  0  0  0  0  0  0  0  0  0  0  0
   10.3482  -21.9591   31.5670 C   0  0  0  0  0  0  0  0  0  0  0  0
   10.9584  -21.3576   32.5230 N   0  0  0  0  0  0  0  0  0  0  0  0
   10.0317  -21.2891   30.3584 N   0  0  0  0  0  0  0  0  0  0  0  0
    9.2991  -21.9230   29.2897 C   0  0  0  0  0  0  0  0  0  0  0  0
    9.0055  -20.9496   28.1847 C   0  0  0  0  0  0  0  0  0  0  0  0
    8.2704  -21.5373   27.0301 C   0  0  0  0  0  0  0  0  0  0  0  0
    8.0009  -20.5796   25.8950 C   0  0  2  0  0  0  0  0  0  0  0  0
    7.4911  -21.3303   24.7596 N   0  0  0  0  0  0  0  0  0  0  0  0
    9.3337  -20.0018   25.5525 C   0  0  0  0  0  0  0  0  0  0  0  0
    9.9104  -19.1607   26.2759 O   0  0  0  0  0  0  0  0  0  0  0  0
    9.9353  -20.4305   24.3809 O   0  0  0  0  0  0  0  0  0  0  0  0
  2  1  1  0
  2  3  1  0
  3  4  1  1
  5  6  2  0
  5  3  1  0
  8  7  1  6
  8 10  1  0
  9  8  1  0
 10 12  1  0
 10 11  1  6
 11  5  1  0
 12 13  2  0
 15 14  1  0
 16 15  2  0
 17 15  1  0
 18 19  1  0
 18 17  1  0
 20 19  1  0
 21 20  1  1
 22 12  1  0
 22 21  1  0
 23 25  1  0
 23 21  1  0
 24 23  2  0
M  END
$$$$
