STR.pdb
     RDKit          3D

 25 24  0  0  1  0  0  0  0  0999 V2000
   10.9436  -13.7070   18.0976 O   0  0  0  0  0  0  0  0  0  0  0  0
   10.0375  -14.4326   17.3674 C   0  0  0  0  0  0  0  0  0  0  0  0
    8.6367  -13.9741   17.6922 C   0  0  2  0  0  0  0  0  0  0  0  0
    8.4767  -12.5484   17.3791 N   0  0  0  0  0  0  0  0  0  0  0  0
    8.2819  -14.1295   19.1256 C   0  0  0  0  0  0  0  0  0  0  0  0
    8.3851  -13.1600   19.9572 O   0  0  0  0  0  0  0  0  0  0  0  0
    5.2665  -16.4750   20.3632 C   0  0  0  0  0  0  0  0  0  0  0  0
    6.5159  -16.6900   21.1943 C   0  0  1  0  0  0  0  0  0  0  0  0
    7.1813  -17.7867   20.6752 O   0  0  0  0  0  0  0  0  0  0  0  0
    7.3393  -15.4214   21.0917 C   0  0  2  0  0  0  0  0  0  0  0  0
    7.8033  -15.3449   19.6984 N   0  0  0  0  0  0  0  0  0  0  0  0
    8.5607  -15.6090   21.9259 C   0  0  0  0  0  0  0  0  0  0  0  0
    9.6997  -15.8635   21.4205 O   0  0  0  0  0  0  0  0  0  0  0  0
   10.5669  -14.0616   30.6817 N   0  0  0  0  0  0  0  0  0  0  0  0
   10.5134  -15.4303   30.3297 C   0  0  0  0  0  0  0  0  0  0  0  0
   10.3452  -16.3035   31.2556 N   0  0  0  0  0  0  0  0  0  0  0  0
   10.6453  -15.8135   28.9712 N   0  0  0  0  0  0  0  0  0  0  0  0
   10.3005  -14.9342   27.8810 C   0  0  0  0  0  0  0  0  0  0  0  0
   10.5257  -15.6033   26.5556 C   0  0  0  0  0  0  0  0  0  0  0  0
    9.3805  -15.4894   25.6098 C   0  0  0  0  0  0  0  0  0  0  0  0
    9.7338  -15.6968   24.1571 C   0  0  2  0  0  0  0  0  0  0  0  0
    8.5364  -15.5159   23.3532 N   0  0  0  0  0  0  0  0  0  0  0  0
   10.1839  -17.1171   24.0680 C   0  0  0  0  0  0  0  0  0  0  0  0
    9.4171  -18.0484   23.7394 O   0  0  0  0  0  0  0  0  0  0  0  0
   11.5089  -17.3886   24.3662 O   0  0  0  0  0  0  0  0  0  0  0  0
  2  1  1  0
  2  3  1  0
  3  4  1  1
  5  6  2  0
  5  3  1  0
  8  7  1  6
  8 10  1  0
  9  8  1  0
 10 12  1  0
 10 11  1  6
 11  5  1  0
 12 13  2  0
 15 14  1  0
 16 15  2  0
 17 15  1  0
 18 19  1  0
 18 17  1  0
 20 19  1  0
 21 20  1  1
 22 12  1  0
 22 21  1  0
 23 25  1  0
 23 21  1  0
 24 23  2  0
M  END
$$$$
