QWV.pdb
     RDKit          3D

 31 32  0  0  1  0  0  0  0  0999 V2000
   26.5805  -25.8497  -17.9981 N   0  0  0  0  0  0  0  0  0  0  0  0
   27.6226  -25.1919  -18.6994 C   0  0  0  0  0  0  0  0  0  0  0  0
   27.8458  -25.5364  -19.8802 O   0  0  0  0  0  0  0  0  0  0  0  0
   28.4222  -24.1339  -18.0650 C   0  0  0  0  0  0  0  0  0  0  0  0
   28.0539  -23.7925  -16.6670 C   0  0  0  0  0  0  0  0  0  0  0  0
   27.1624  -22.6084  -16.4967 C   0  0  2  0  0  0  0  0  0  0  0  0
   27.9153  -21.4258  -16.8751 N   0  0  0  0  0  0  0  0  0  0  0  0
   26.7343  -22.4225  -15.0806 C   0  0  0  0  0  0  0  0  0  0  0  0
   26.1453  -23.3536  -14.4826 O   0  0  0  0  0  0  0  0  0  0  0  0
   26.9651  -21.2246  -14.3675 N   0  0  0  0  0  0  0  0  0  0  0  0
   26.4760  -20.8660  -13.0728 C   0  0  1  0  0  0  0  0  0  0  0  0
   27.3830  -19.8968  -12.2958 C   0  0  0  0  0  0  0  0  0  0  0  0
   27.9446  -20.4927  -11.0900 C   0  0  0  0  0  0  0  0  0  0  0  0
   28.9918  -21.3497  -10.9603 C   0  0  0  0  0  0  0  0  0  0  0  0
   29.1889  -21.6502   -9.6498 N   0  0  0  0  0  0  0  0  0  0  0  0
   28.2705  -20.9886   -8.9258 C   0  0  0  0  0  0  0  0  0  0  0  0
   28.0466  -20.9537   -7.5455 C   0  0  0  0  0  0  0  0  0  0  0  0
   27.0227  -20.1714   -7.1139 C   0  0  0  0  0  0  0  0  0  0  0  0
   26.2268  -19.4375   -7.9660 C   0  0  0  0  0  0  0  0  0  0  0  0
   26.4613  -19.4845   -9.3145 C   0  0  0  0  0  0  0  0  0  0  0  0
   27.4882  -20.2655   -9.7850 C   0  0  0  0  0  0  0  0  0  0  0  0
   25.1227  -20.3432  -13.0119 C   0  0  0  0  0  0  0  0  0  0  0  0
   24.9103  -19.1914  -13.5155 O   0  0  0  0  0  0  0  0  0  0  0  0
   22.0443  -22.6682  -13.9094 C   0  0  0  0  0  0  0  0  0  0  0  0
   22.0599  -21.1672  -13.9513 C   0  0  1  0  0  0  0  0  0  0  0  0
   20.6305  -20.6887  -14.0702 C   0  0  0  0  0  0  0  0  0  0  0  0
   22.6233  -20.6255  -12.6866 C   0  0  2  0  0  0  0  0  0  0  0  0
   24.0017  -20.9785  -12.4490 N   0  0  0  0  0  0  0  0  0  0  0  0
   21.8089  -21.0998  -11.5463 C   0  0  0  0  0  0  0  0  0  0  0  0
   20.5536  -20.6112  -11.2187 O   0  0  0  0  0  0  0  0  0  0  0  0
   22.2519  -22.0097  -10.7964 O   0  0  0  0  0  0  0  0  0  0  0  0
  2  1  1  0
  3  2  2  0
  4  2  1  0
  5  4  1  0
  6  5  1  0
  6  7  1  1
  8  6  1  0
  8  9  2  0
 10  8  1  0
 11 12  1  6
 11 10  1  0
 13 12  1  0
 13 14  2  0
 15 14  1  0
 16 15  1  0
 17 16  2  0
 18 17  1  0
 19 18  2  0
 19 20  1  0
 20 21  2  0
 21 16  1  0
 21 13  1  0
 22 11  1  0
 23 22  2  0
 25 24  1  1
 26 25  1  0
 27 25  1  0
 27 28  1  1
 28 22  1  0
 29 27  1  0
 29 30  1  0
 31 29  2  0
M  END
$$$$
