QWV.pdb
     RDKit          3D

 31 32  0  0  1  0  0  0  0  0999 V2000
   27.0587  -17.2947  -14.0234 N   0  0  0  0  0  0  0  0  0  0  0  0
   26.7995  -18.0073  -15.2214 C   0  0  0  0  0  0  0  0  0  0  0  0
   25.7465  -17.7485  -15.8437 O   0  0  0  0  0  0  0  0  0  0  0  0
   27.7361  -19.0221  -15.7256 C   0  0  0  0  0  0  0  0  0  0  0  0
   28.6025  -19.6683  -14.7067 C   0  0  0  0  0  0  0  0  0  0  0  0
   28.3473  -21.1167  -14.4556 C   0  0  2  0  0  0  0  0  0  0  0  0
   28.3760  -21.8025  -15.7352 N   0  0  0  0  0  0  0  0  0  0  0  0
   27.0030  -21.3582  -13.8575 C   0  0  0  0  0  0  0  0  0  0  0  0
   26.0476  -21.6984  -14.5943 O   0  0  0  0  0  0  0  0  0  0  0  0
   26.7502  -21.2194  -12.4742 N   0  0  0  0  0  0  0  0  0  0  0  0
   25.5262  -21.4639  -11.7770 C   0  0  1  0  0  0  0  0  0  0  0  0
   25.6746  -21.5746  -10.2501 C   0  0  0  0  0  0  0  0  0  0  0  0
   26.1598  -20.3435   -9.6390 C   0  0  0  0  0  0  0  0  0  0  0  0
   26.2220  -19.0896  -10.1604 C   0  0  0  0  0  0  0  0  0  0  0  0
   26.7338  -18.2279   -9.2429 N   0  0  0  0  0  0  0  0  0  0  0  0
   27.0046  -18.9201   -8.1237 C   0  0  0  0  0  0  0  0  0  0  0  0
   27.5359  -18.5049   -6.8981 C   0  0  0  0  0  0  0  0  0  0  0  0
   27.6887  -19.4613   -5.9449 C   0  0  0  0  0  0  0  0  0  0  0  0
   27.3477  -20.7813   -6.1432 C   0  0  0  0  0  0  0  0  0  0  0  0
   26.8289  -21.1690   -7.3500 C   0  0  0  0  0  0  0  0  0  0  0  0
   26.6615  -20.2279   -8.3359 C   0  0  0  0  0  0  0  0  0  0  0  0
   24.4320  -20.5478  -12.0453 C   0  0  0  0  0  0  0  0  0  0  0  0
   24.7287  -19.3584  -12.3955 O   0  0  0  0  0  0  0  0  0  0  0  0
   23.4996  -19.6260  -14.4974 C   0  0  0  0  0  0  0  0  0  0  0  0
   22.1178  -20.0592  -14.1000 C   0  0  1  0  0  0  0  0  0  0  0  0
   21.8966  -21.4578  -14.6301 C   0  0  0  0  0  0  0  0  0  0  0  0
   22.0015  -20.1043  -12.6186 C   0  0  2  0  0  0  0  0  0  0  0  0
   23.0578  -20.8332  -11.9598 N   0  0  0  0  0  0  0  0  0  0  0  0
   20.7042  -20.7113  -12.2486 C   0  0  0  0  0  0  0  0  0  0  0  0
   19.4774  -20.0752  -12.3598 O   0  0  0  0  0  0  0  0  0  0  0  0
   20.6693  -21.8865  -11.7965 O   0  0  0  0  0  0  0  0  0  0  0  0
  2  1  1  0
  3  2  2  0
  4  2  1  0
  5  4  1  0
  6  5  1  0
  6  7  1  6
  8  6  1  0
  8  9  2  0
 10  8  1  0
 11 12  1  1
 11 10  1  0
 13 12  1  0
 13 14  2  0
 15 14  1  0
 16 15  1  0
 17 16  2  0
 18 17  1  0
 19 18  2  0
 19 20  1  0
 20 21  2  0
 21 16  1  0
 21 13  1  0
 22 11  1  0
 23 22  2  0
 25 24  1  1
 26 25  1  0
 27 25  1  0
 27 28  1  1
 28 22  1  0
 29 27  1  0
 29 30  1  0
 31 29  2  0
M  END
$$$$
