QWV.pdb
     RDKit          3D

 31 32  0  0  1  0  0  0  0  0999 V2000
   27.2066  -17.1423  -13.3538 N   0  0  0  0  0  0  0  0  0  0  0  0
   27.5479  -17.8483  -14.5350 C   0  0  0  0  0  0  0  0  0  0  0  0
   26.9928  -17.5110  -15.6032 O   0  0  0  0  0  0  0  0  0  0  0  0
   28.5255  -18.9460  -14.5144 C   0  0  0  0  0  0  0  0  0  0  0  0
   29.0704  -19.3043  -13.1798 C   0  0  0  0  0  0  0  0  0  0  0  0
   29.0115  -20.7502  -12.8166 C   0  0  2  0  0  0  0  0  0  0  0  0
   29.2435  -21.5227  -14.0240 N   0  0  0  0  0  0  0  0  0  0  0  0
   27.6737  -21.1468  -12.2912 C   0  0  0  0  0  0  0  0  0  0  0  0
   26.7990  -21.5757  -13.0801 O   0  0  0  0  0  0  0  0  0  0  0  0
   27.3388  -21.0606  -10.9212 N   0  0  0  0  0  0  0  0  0  0  0  0
   26.1045  -21.4198  -10.2953 C   0  0  1  0  0  0  0  0  0  0  0  0
   26.1979  -21.6219   -8.7733 C   0  0  0  0  0  0  0  0  0  0  0  0
   26.6859  -20.4390   -8.0754 C   0  0  0  0  0  0  0  0  0  0  0  0
   26.5029  -19.1258   -8.3747 C   0  0  0  0  0  0  0  0  0  0  0  0
   27.1233  -18.3460   -7.4509 N   0  0  0  0  0  0  0  0  0  0  0  0
   27.7100  -19.1512   -6.5494 C   0  0  0  0  0  0  0  0  0  0  0  0
   28.4639  -18.8514   -5.4099 C   0  0  0  0  0  0  0  0  0  0  0  0
   28.9245  -19.9071   -4.6889 C   0  0  0  0  0  0  0  0  0  0  0  0
   28.6794  -21.2179   -5.0351 C   0  0  0  0  0  0  0  0  0  0  0  0
   27.9392  -21.4918   -6.1545 C   0  0  0  0  0  0  0  0  0  0  0  0
   27.4584  -20.4483   -6.9065 C   0  0  0  0  0  0  0  0  0  0  0  0
   24.9692  -20.5520  -10.5529 C   0  0  0  0  0  0  0  0  0  0  0  0
   25.1612  -19.2931  -10.4922 O   0  0  0  0  0  0  0  0  0  0  0  0
   23.8559  -19.7929  -13.5167 C   0  0  0  0  0  0  0  0  0  0  0  0
   22.5326  -20.1517  -12.9043 C   0  0  1  0  0  0  0  0  0  0  0  0
   22.1969  -21.5676  -13.3148 C   0  0  0  0  0  0  0  0  0  0  0  0
   22.6272  -20.1122  -11.4212 C   0  0  2  0  0  0  0  0  0  0  0  0
   23.6591  -20.9544  -10.8672 N   0  0  0  0  0  0  0  0  0  0  0  0
   21.3269  -20.5093  -10.8380 C   0  0  0  0  0  0  0  0  0  0  0  0
   21.1072  -21.6801  -10.1288 O   0  0  0  0  0  0  0  0  0  0  0  0
   20.3247  -19.7585  -10.9737 O   0  0  0  0  0  0  0  0  0  0  0  0
  2  1  1  0
  3  2  2  0
  4  2  1  0
  5  4  1  0
  6  5  1  0
  6  7  1  6
  8  6  1  0
  8  9  2  0
 10  8  1  0
 11 12  1  1
 11 10  1  0
 13 12  1  0
 13 14  2  0
 15 14  1  0
 16 15  1  0
 17 16  2  0
 18 17  1  0
 19 18  2  0
 19 20  1  0
 20 21  2  0
 21 16  1  0
 21 13  1  0
 22 11  1  0
 23 22  2  0
 25 24  1  6
 26 25  1  0
 27 25  1  0
 27 28  1  1
 28 22  1  0
 29 27  1  0
 29 30  1  0
 31 29  2  0
M  END
$$$$
