QWV.pdb
     RDKit          3D

 31 32  0  0  1  0  0  0  0  0999 V2000
   29.0294  -17.6342  -14.8778 N   0  0  0  0  0  0  0  0  0  0  0  0
   29.2660  -18.2192  -16.1475 C   0  0  0  0  0  0  0  0  0  0  0  0
   30.1387  -17.7038  -16.8793 O   0  0  0  0  0  0  0  0  0  0  0  0
   28.5125  -19.3981  -16.5987 C   0  0  0  0  0  0  0  0  0  0  0  0
   27.6594  -20.0537  -15.5745 C   0  0  0  0  0  0  0  0  0  0  0  0
   28.3723  -20.9044  -14.5774 C   0  0  2  0  0  0  0  0  0  0  0  0
   28.7535  -22.1401  -15.2378 N   0  0  0  0  0  0  0  0  0  0  0  0
   27.5023  -21.2725  -13.4239 C   0  0  0  0  0  0  0  0  0  0  0  0
   26.4270  -21.8837  -13.6274 O   0  0  0  0  0  0  0  0  0  0  0  0
   27.8386  -20.9596  -12.0876 N   0  0  0  0  0  0  0  0  0  0  0  0
   27.0284  -21.1135  -10.9197 C   0  0  1  0  0  0  0  0  0  0  0  0
   27.7901  -20.9618   -9.5921 C   0  0  0  0  0  0  0  0  0  0  0  0
   26.9036  -20.7707   -8.4510 C   0  0  0  0  0  0  0  0  0  0  0  0
   25.5681  -21.0028   -8.3496 C   0  0  0  0  0  0  0  0  0  0  0  0
   25.1356  -20.6987   -7.0979 N   0  0  0  0  0  0  0  0  0  0  0  0
   26.1894  -20.2691   -6.3837 C   0  0  0  0  0  0  0  0  0  0  0  0
   26.2798  -19.8412   -5.0549 C   0  0  0  0  0  0  0  0  0  0  0  0
   27.5106  -19.4662   -4.6180 C   0  0  0  0  0  0  0  0  0  0  0  0
   28.6326  -19.4942   -5.4170 C   0  0  0  0  0  0  0  0  0  0  0  0
   28.5243  -19.9161   -6.7155 C   0  0  0  0  0  0  0  0  0  0  0  0
   27.2948  -20.3020   -7.1899 C   0  0  0  0  0  0  0  0  0  0  0  0
   25.8399  -20.2831  -10.8401 C   0  0  0  0  0  0  0  0  0  0  0  0
   25.9993  -19.0184  -10.8621 O   0  0  0  0  0  0  0  0  0  0  0  0
   23.3030  -21.3945  -13.4442 C   0  0  0  0  0  0  0  0  0  0  0  0
   23.4370  -20.0256  -12.8415 C   0  0  1  0  0  0  0  0  0  0  0  0
   22.2733  -19.1882  -13.3218 C   0  0  0  0  0  0  0  0  0  0  0  0
   23.3634  -20.1095  -11.3590 C   0  0  2  0  0  0  0  0  0  0  0  0
   24.5099  -20.7281  -10.7394 N   0  0  0  0  0  0  0  0  0  0  0  0
   22.1507  -20.8632  -10.9719 C   0  0  0  0  0  0  0  0  0  0  0  0
   20.9322  -20.2837  -10.6536 O   0  0  0  0  0  0  0  0  0  0  0  0
   22.1870  -22.1210  -10.9153 O   0  0  0  0  0  0  0  0  0  0  0  0
  2  1  1  0
  3  2  2  0
  4  2  1  0
  5  4  1  0
  6  5  1  0
  6  7  1  6
  8  6  1  0
  8  9  2  0
 10  8  1  0
 11 12  1  1
 11 10  1  0
 13 12  1  0
 13 14  2  0
 15 14  1  0
 16 15  1  0
 17 16  2  0
 18 17  1  0
 19 18  2  0
 19 20  1  0
 20 21  2  0
 21 16  1  0
 21 13  1  0
 22 11  1  0
 23 22  2  0
 25 24  1  6
 26 25  1  0
 27 25  1  0
 27 28  1  6
 28 22  1  0
 29 27  1  0
 29 30  1  0
 31 29  2  0
M  END
$$$$
