QWV.pdb
     RDKit          3D

 31 32  0  0  1  0  0  0  0  0999 V2000
   26.4484  -16.9814  -13.5645 N   0  0  0  0  0  0  0  0  0  0  0  0
   27.6103  -16.9198  -14.3747 C   0  0  0  0  0  0  0  0  0  0  0  0
   28.1293  -15.8002  -14.5747 O   0  0  0  0  0  0  0  0  0  0  0  0
   28.1955  -18.1318  -14.9662 C   0  0  0  0  0  0  0  0  0  0  0  0
   27.6194  -19.4213  -14.5058 C   0  0  0  0  0  0  0  0  0  0  0  0
   28.3610  -20.1151  -13.4128 C   0  0  2  0  0  0  0  0  0  0  0  0
   29.4391  -20.8758  -14.0191 N   0  0  0  0  0  0  0  0  0  0  0  0
   27.5017  -21.0834  -12.6731 C   0  0  0  0  0  0  0  0  0  0  0  0
   27.2035  -22.1797  -13.2029 O   0  0  0  0  0  0  0  0  0  0  0  0
   26.9982  -20.8192  -11.3796 N   0  0  0  0  0  0  0  0  0  0  0  0
   25.8693  -21.4177  -10.7381 C   0  0  1  0  0  0  0  0  0  0  0  0
   26.0427  -21.6454   -9.2269 C   0  0  0  0  0  0  0  0  0  0  0  0
   26.5231  -20.4596   -8.5285 C   0  0  0  0  0  0  0  0  0  0  0  0
   26.4365  -19.1524   -8.8911 C   0  0  0  0  0  0  0  0  0  0  0  0
   27.0067  -18.3661   -7.9409 N   0  0  0  0  0  0  0  0  0  0  0  0
   27.4643  -19.1609   -6.9590 C   0  0  0  0  0  0  0  0  0  0  0  0
   28.1224  -18.8512   -5.7642 C   0  0  0  0  0  0  0  0  0  0  0  0
   28.4587  -19.8974   -4.9649 C   0  0  0  0  0  0  0  0  0  0  0  0
   28.1803  -21.2080   -5.2854 C   0  0  0  0  0  0  0  0  0  0  0  0
   27.5352  -21.4917   -6.4599 C   0  0  0  0  0  0  0  0  0  0  0  0
   27.1811  -20.4580   -7.2916 C   0  0  0  0  0  0  0  0  0  0  0  0
   24.5875  -20.7658  -10.9385 C   0  0  0  0  0  0  0  0  0  0  0  0
   24.5391  -19.4998  -10.7968 O   0  0  0  0  0  0  0  0  0  0  0  0
   23.0262  -20.2712  -13.9562 C   0  0  0  0  0  0  0  0  0  0  0  0
   21.8842  -20.8318  -13.1583 C   0  0  1  0  0  0  0  0  0  0  0  0
   21.7561  -22.3003  -13.4948 C   0  0  0  0  0  0  0  0  0  0  0  0
   22.1700  -20.7156  -11.7040 C   0  0  2  0  0  0  0  0  0  0  0  0
   23.3729  -21.3880  -11.2775 N   0  0  0  0  0  0  0  0  0  0  0  0
   21.0267  -21.2566  -10.9367 C   0  0  0  0  0  0  0  0  0  0  0  0
   19.7968  -20.6296  -10.8098 O   0  0  0  0  0  0  0  0  0  0  0  0
   21.1387  -22.3614  -10.3422 O   0  0  0  0  0  0  0  0  0  0  0  0
  2  1  1  0
  3  2  2  0
  4  2  1  0
  5  4  1  0
  6  5  1  0
  6  7  1  6
  8  6  1  0
  8  9  2  0
 10  8  1  0
 11 12  1  1
 11 10  1  0
 13 12  1  0
 13 14  2  0
 15 14  1  0
 16 15  1  0
 17 16  2  0
 18 17  1  0
 19 18  2  0
 19 20  1  0
 20 21  2  0
 21 16  1  0
 21 13  1  0
 22 11  1  0
 23 22  2  0
 25 24  1  6
 26 25  1  0
 27 25  1  0
 27 28  1  6
 28 22  1  0
 29 27  1  0
 29 30  1  0
 31 29  2  0
M  END
$$$$
