QWV.pdb
     RDKit          3D

 31 32  0  0  1  0  0  0  0  0999 V2000
   30.8278  -24.2009  -15.4382 N   0  0  0  0  0  0  0  0  0  0  0  0
   30.6961  -23.1404  -16.3701 C   0  0  0  0  0  0  0  0  0  0  0  0
   31.5614  -23.0336  -17.2660 O   0  0  0  0  0  0  0  0  0  0  0  0
   29.5774  -22.1897  -16.2936 C   0  0  0  0  0  0  0  0  0  0  0  0
   28.6245  -22.3981  -15.1733 C   0  0  0  0  0  0  0  0  0  0  0  0
   27.4430  -21.4876  -15.1424 C   0  0  2  0  0  0  0  0  0  0  0  0
   27.9268  -20.1374  -14.9157 N   0  0  0  0  0  0  0  0  0  0  0  0
   26.5081  -21.8126  -14.0273 C   0  0  0  0  0  0  0  0  0  0  0  0
   25.9632  -22.9406  -13.9827 O   0  0  0  0  0  0  0  0  0  0  0  0
   26.2015  -20.8926  -12.9995 N   0  0  0  0  0  0  0  0  0  0  0  0
   25.2003  -21.0109  -11.9858 C   0  0  1  0  0  0  0  0  0  0  0  0
   25.5725  -20.3573  -10.6442 C   0  0  0  0  0  0  0  0  0  0  0  0
   26.8543  -20.8198  -10.1270 C   0  0  0  0  0  0  0  0  0  0  0  0
   27.7756  -21.6319  -10.7096 C   0  0  0  0  0  0  0  0  0  0  0  0
   28.8393  -21.8003   -9.8810 N   0  0  0  0  0  0  0  0  0  0  0  0
   28.6113  -21.0975   -8.7589 C   0  0  0  0  0  0  0  0  0  0  0  0
   29.3887  -20.9368   -7.6071 C   0  0  0  0  0  0  0  0  0  0  0  0
   28.8740  -20.1448   -6.6302 C   0  0  0  0  0  0  0  0  0  0  0  0
   27.6521  -19.5174   -6.7371 C   0  0  0  0  0  0  0  0  0  0  0  0
   26.9051  -19.6868   -7.8725 C   0  0  0  0  0  0  0  0  0  0  0  0
   27.3953  -20.4812   -8.8797 C   0  0  0  0  0  0  0  0  0  0  0  0
   23.8650  -20.5611  -12.3365 C   0  0  0  0  0  0  0  0  0  0  0  0
   23.7220  -19.3405  -12.6759 O   0  0  0  0  0  0  0  0  0  0  0  0
   21.7313  -21.1098  -15.1126 C   0  0  0  0  0  0  0  0  0  0  0  0
   20.8367  -21.4561  -13.9573 C   0  0  1  0  0  0  0  0  0  0  0  0
   20.8280  -22.9608  -13.8083 C   0  0  0  0  0  0  0  0  0  0  0  0
   21.3743  -20.8719  -12.7004 C   0  0  2  0  0  0  0  0  0  0  0  0
   22.6923  -21.3369  -12.3430 N   0  0  0  0  0  0  0  0  0  0  0  0
   20.4475  -21.1715  -11.5869 C   0  0  0  0  0  0  0  0  0  0  0  0
   19.2103  -20.5715  -11.4096 O   0  0  0  0  0  0  0  0  0  0  0  0
   20.7684  -22.0251  -10.7180 O   0  0  0  0  0  0  0  0  0  0  0  0
  2  1  1  0
  3  2  2  0
  4  2  1  0
  5  4  1  0
  6  5  1  0
  6  7  1  1
  8  6  1  0
  8  9  2  0
 10  8  1  0
 11 12  1  1
 11 10  1  0
 13 12  1  0
 13 14  2  0
 15 14  1  0
 16 15  1  0
 17 16  2  0
 18 17  1  0
 19 18  2  0
 19 20  1  0
 20 21  2  0
 21 16  1  0
 21 13  1  0
 22 11  1  0
 23 22  2  0
 25 24  1  6
 26 25  1  0
 27 25  1  0
 27 28  1  1
 28 22  1  0
 29 27  1  0
 29 30  1  0
 31 29  2  0
M  END
$$$$
