QWV.pdb
     RDKit          3D

 31 32  0  0  1  0  0  0  0  0999 V2000
   26.4949  -23.2005  -20.5285 N   0  0  0  0  0  0  0  0  0  0  0  0
   27.6583  -22.4052  -20.6844 C   0  0  0  0  0  0  0  0  0  0  0  0
   28.1588  -22.3123  -21.8263 O   0  0  0  0  0  0  0  0  0  0  0  0
   28.2653  -21.7058  -19.5427 C   0  0  0  0  0  0  0  0  0  0  0  0
   27.5385  -21.8184  -18.2521 C   0  0  0  0  0  0  0  0  0  0  0  0
   28.3875  -21.9797  -17.0359 C   0  0  2  0  0  0  0  0  0  0  0  0
   29.0893  -23.2460  -17.1472 N   0  0  0  0  0  0  0  0  0  0  0  0
   27.5780  -22.0342  -15.7849 C   0  0  0  0  0  0  0  0  0  0  0  0
   26.7253  -22.9409  -15.6361 O   0  0  0  0  0  0  0  0  0  0  0  0
   27.7294  -21.0953  -14.7398 N   0  0  0  0  0  0  0  0  0  0  0  0
   26.9550  -20.9815  -13.5434 C   0  0  1  0  0  0  0  0  0  0  0  0
   27.5879  -20.0949  -12.4575 C   0  0  0  0  0  0  0  0  0  0  0  0
   26.8248  -20.0913  -11.2157 C   0  0  0  0  0  0  0  0  0  0  0  0
   25.5009  -19.8536  -11.0191 C   0  0  0  0  0  0  0  0  0  0  0  0
   25.1986  -19.9622   -9.6988 N   0  0  0  0  0  0  0  0  0  0  0  0
   26.3254  -20.2712   -9.0353 C   0  0  0  0  0  0  0  0  0  0  0  0
   26.5523  -20.4934   -7.6730 C   0  0  0  0  0  0  0  0  0  0  0  0
   27.8259  -20.7965   -7.3089 C   0  0  0  0  0  0  0  0  0  0  0  0
   28.8637  -20.8883   -8.2104 C   0  0  0  0  0  0  0  0  0  0  0  0
   28.6221  -20.6672   -9.5403 C   0  0  0  0  0  0  0  0  0  0  0  0
   27.3461  -20.3582   -9.9429 C   0  0  0  0  0  0  0  0  0  0  0  0
   25.5739  -20.5618  -13.7014 C   0  0  0  0  0  0  0  0  0  0  0  0
   25.3599  -19.3967  -14.1724 O   0  0  0  0  0  0  0  0  0  0  0  0
   20.9518  -21.2794  -14.8348 C   0  0  0  0  0  0  0  0  0  0  0  0
   22.3670  -21.7512  -14.6618 C   0  0  1  0  0  0  0  0  0  0  0  0
   23.0823  -21.5750  -15.9821 C   0  0  0  0  0  0  0  0  0  0  0  0
   23.0635  -20.9189  -13.6458 C   0  0  2  0  0  0  0  0  0  0  0  0
   24.4271  -21.3121  -13.3866 N   0  0  0  0  0  0  0  0  0  0  0  0
   22.3072  -20.9643  -12.3752 C   0  0  0  0  0  0  0  0  0  0  0  0
   21.4673  -19.9583  -11.9229 O   0  0  0  0  0  0  0  0  0  0  0  0
   22.4066  -21.9699  -11.6232 O   0  0  0  0  0  0  0  0  0  0  0  0
  2  1  1  0
  3  2  2  0
  4  2  1  0
  5  4  1  0
  6  5  1  0
  6  7  1  6
  8  6  1  0
  8  9  2  0
 10  8  1  0
 11 12  1  1
 11 10  1  0
 13 12  1  0
 13 14  2  0
 15 14  1  0
 16 15  1  0
 17 16  2  0
 18 17  1  0
 19 18  2  0
 19 20  1  0
 20 21  2  0
 21 16  1  0
 21 13  1  0
 22 11  1  0
 23 22  2  0
 25 24  1  6
 26 25  1  0
 27 25  1  0
 27 28  1  1
 28 22  1  0
 29 27  1  0
 29 30  1  0
 31 29  2  0
M  END
$$$$
