QWV.pdb
     RDKit          3D

 31 32  0  0  1  0  0  0  0  0999 V2000
   26.3024  -24.6937  -19.8339 N   0  0  0  0  0  0  0  0  0  0  0  0
   27.1885  -23.6807  -20.2799 C   0  0  0  0  0  0  0  0  0  0  0  0
   27.7131  -23.8124  -21.4070 O   0  0  0  0  0  0  0  0  0  0  0  0
   27.4873  -22.5056  -19.4486 C   0  0  0  0  0  0  0  0  0  0  0  0
   26.7606  -22.4240  -18.1557 C   0  0  0  0  0  0  0  0  0  0  0  0
   27.5977  -22.5462  -16.9267 C   0  0  2  0  0  0  0  0  0  0  0  0
   28.1394  -23.8929  -16.8887 N   0  0  0  0  0  0  0  0  0  0  0  0
   26.8021  -22.3570  -15.6800 C   0  0  0  0  0  0  0  0  0  0  0  0
   26.2144  -23.3365  -15.1638 O   0  0  0  0  0  0  0  0  0  0  0  0
   26.6768  -21.1030  -15.0409 N   0  0  0  0  0  0  0  0  0  0  0  0
   25.9293  -20.7890  -13.8633 C   0  0  1  0  0  0  0  0  0  0  0  0
   26.5561  -19.6929  -12.9850 C   0  0  0  0  0  0  0  0  0  0  0  0
   26.6518  -20.0787  -11.5827 C   0  0  0  0  0  0  0  0  0  0  0  0
   25.6928  -20.0683  -10.6193 C   0  0  0  0  0  0  0  0  0  0  0  0
   26.2063  -20.5204   -9.4453 N   0  0  0  0  0  0  0  0  0  0  0  0
   27.4995  -20.8259   -9.6439 C   0  0  0  0  0  0  0  0  0  0  0  0
   28.4654  -21.3282   -8.7656 C   0  0  0  0  0  0  0  0  0  0  0  0
   29.7055  -21.5390   -9.2796 C   0  0  0  0  0  0  0  0  0  0  0  0
   30.0280  -21.2817  -10.5941 C   0  0  0  0  0  0  0  0  0  0  0  0
   29.0688  -20.7900  -11.4391 C   0  0  0  0  0  0  0  0  0  0  0  0
   27.8047  -20.5648  -10.9523 C   0  0  0  0  0  0  0  0  0  0  0  0
   24.5300  -20.4510  -14.0535 C   0  0  0  0  0  0  0  0  0  0  0  0
   24.2578  -19.4641  -14.8132 O   0  0  0  0  0  0  0  0  0  0  0  0
   21.8304  -22.0875  -15.7458 C   0  0  0  0  0  0  0  0  0  0  0  0
   21.2468  -21.8113  -14.3900 C   0  0  1  0  0  0  0  0  0  0  0  0
   21.3372  -23.0818  -13.5753 C   0  0  0  0  0  0  0  0  0  0  0  0
   22.0384  -20.7616  -13.6959 C   0  0  2  0  0  0  0  0  0  0  0  0
   23.4234  -21.1036  -13.4819 N   0  0  0  0  0  0  0  0  0  0  0  0
   21.4154  -20.4651  -12.3873 C   0  0  0  0  0  0  0  0  0  0  0  0
   20.2278  -19.7694  -12.2207 O   0  0  0  0  0  0  0  0  0  0  0  0
   21.9720  -20.8544  -11.3266 O   0  0  0  0  0  0  0  0  0  0  0  0
  2  1  1  0
  3  2  2  0
  4  2  1  0
  5  4  1  0
  6  5  1  0
  6  7  1  1
  8  6  1  0
  8  9  2  0
 10  8  1  0
 11 12  1  6
 11 10  1  0
 13 12  1  0
 13 14  2  0
 15 14  1  0
 16 15  1  0
 17 16  2  0
 18 17  1  0
 19 18  2  0
 19 20  1  0
 20 21  2  0
 21 16  1  0
 21 13  1  0
 22 11  1  0
 23 22  2  0
 25 24  1  6
 26 25  1  0
 27 25  1  0
 27 28  1  1
 28 22  1  0
 29 27  1  0
 29 30  1  0
 31 29  2  0
M  END
$$$$
