QWV.pdb
     RDKit          3D

 31 32  0  0  1  0  0  0  0  0999 V2000
   27.1880  -20.5382  -18.0305 N   0  0  0  0  0  0  0  0  0  0  0  0
   28.2636  -19.6764  -17.6981 C   0  0  0  0  0  0  0  0  0  0  0  0
   28.9572  -19.2147  -18.6302 O   0  0  0  0  0  0  0  0  0  0  0  0
   28.5620  -19.3292  -16.3011 C   0  0  0  0  0  0  0  0  0  0  0  0
   27.6572  -19.9159  -15.2796 C   0  0  0  0  0  0  0  0  0  0  0  0
   28.3217  -20.6343  -14.1533 C   0  0  2  0  0  0  0  0  0  0  0  0
   29.0442  -21.7641  -14.7101 N   0  0  0  0  0  0  0  0  0  0  0  0
   27.3394  -21.1804  -13.1735 C   0  0  0  0  0  0  0  0  0  0  0  0
   26.6960  -22.2194  -13.4526 O   0  0  0  0  0  0  0  0  0  0  0  0
   27.0948  -20.5712  -11.9222 N   0  0  0  0  0  0  0  0  0  0  0  0
   26.0311  -20.8436  -11.0066 C   0  0  1  0  0  0  0  0  0  0  0  0
   26.2432  -20.2692   -9.5956 C   0  0  0  0  0  0  0  0  0  0  0  0
   27.5113  -20.6776   -9.0043 C   0  0  0  0  0  0  0  0  0  0  0  0
   28.4734  -21.4945   -9.5090 C   0  0  0  0  0  0  0  0  0  0  0  0
   29.5042  -21.5996   -8.6300 N   0  0  0  0  0  0  0  0  0  0  0  0
   29.2140  -20.8508   -7.5529 C   0  0  0  0  0  0  0  0  0  0  0  0
   29.9382  -20.6188   -6.3788 C   0  0  0  0  0  0  0  0  0  0  0  0
   29.3659  -19.7943   -5.4627 C   0  0  0  0  0  0  0  0  0  0  0  0
   28.1367  -19.2009   -5.6498 C   0  0  0  0  0  0  0  0  0  0  0  0
   27.4424  -19.4400   -6.8059 C   0  0  0  0  0  0  0  0  0  0  0  0
   27.9915  -20.2690   -7.7531 C   0  0  0  0  0  0  0  0  0  0  0  0
   24.6946  -20.4710  -11.4347 C   0  0  0  0  0  0  0  0  0  0  0  0
   24.5012  -19.2600  -11.7832 O   0  0  0  0  0  0  0  0  0  0  0  0
   20.6931  -21.5827  -13.9205 C   0  0  0  0  0  0  0  0  0  0  0  0
   21.9606  -22.0078  -13.2366 C   0  0  1  0  0  0  0  0  0  0  0  0
   23.0617  -22.0397  -14.2723 C   0  0  0  0  0  0  0  0  0  0  0  0
   22.3371  -21.0169  -12.1942 C   0  0  2  0  0  0  0  0  0  0  0  0
   23.5711  -21.3133  -11.5082 N   0  0  0  0  0  0  0  0  0  0  0  0
   21.2501  -20.9218  -11.1952 C   0  0  0  0  0  0  0  0  0  0  0  0
   20.1796  -20.0449  -11.2781 O   0  0  0  0  0  0  0  0  0  0  0  0
   21.2621  -21.6727  -10.1840 O   0  0  0  0  0  0  0  0  0  0  0  0
  2  1  1  0
  3  2  2  0
  4  2  1  0
  5  4  1  0
  6  5  1  0
  6  7  1  6
  8  6  1  0
  8  9  2  0
 10  8  1  0
 11 12  1  1
 11 10  1  0
 13 12  1  0
 13 14  2  0
 15 14  1  0
 16 15  1  0
 17 16  2  0
 18 17  1  0
 19 18  2  0
 19 20  1  0
 20 21  2  0
 21 16  1  0
 21 13  1  0
 22 11  1  0
 23 22  2  0
 25 24  1  6
 26 25  1  0
 27 25  1  0
 27 28  1  1
 28 22  1  0
 29 27  1  0
 29 30  1  0
 31 29  2  0
M  END
$$$$
