MDM.pdb
     RDKit          3D

 25 24  0  0  1  0  0  0  0  0999 V2000
   16.5776  -10.9955  -21.5447 C   0  0  0  0  0  0  0  0  0  0  0  0
   16.1742  -12.6238  -20.8506 S   0  0  0  0  0  0  0  0  0  0  0  0
   17.1250  -12.9101  -19.3189 C   0  0  0  0  0  0  0  0  0  0  0  0
   16.8283  -11.7436  -18.3716 C   0  0  0  0  0  0  0  0  0  0  0  0
   17.7345  -11.9350  -17.1747 C   0  0  2  0  0  0  0  0  0  0  0  0
   17.1702  -12.9850  -16.3825 N   0  0  0  0  0  0  0  0  0  0  0  0
   17.9403  -10.6789  -16.4248 C   0  0  0  0  0  0  0  0  0  0  0  0
   16.9552  -10.2003  -15.7930 O   0  0  0  0  0  0  0  0  0  0  0  0
   19.1527   -9.9556  -16.3488 N   0  0  0  0  0  0  0  0  0  0  0  0
   19.3467   -8.7576  -15.5780 C   0  0  1  0  0  0  0  0  0  0  0  0
   20.6047   -8.8769  -14.7842 C   0  0  0  0  0  0  0  0  0  0  0  0
   20.8733   -7.7553  -13.8813 C   0  0  0  0  0  0  0  0  0  0  0  0
   20.1969   -6.7167  -13.9454 O   0  0  0  0  0  0  0  0  0  0  0  0
   19.3170   -7.5285  -16.4152 C   0  0  0  0  0  0  0  0  0  0  0  0
   19.8875   -7.5814  -17.5303 O   0  0  0  0  0  0  0  0  0  0  0  0
   21.8780   -7.7888  -12.9232 O   0  0  0  0  0  0  0  0  0  0  0  0
   16.2216   -2.5671  -20.9942 C   0  0  0  0  0  0  0  0  0  0  0  0
   16.3944   -4.1407  -20.0992 S   0  0  0  0  0  0  0  0  0  0  0  0
   17.5868   -3.9497  -18.7183 C   0  0  0  0  0  0  0  0  0  0  0  0
   17.6357   -5.2038  -17.8957 C   0  0  0  0  0  0  0  0  0  0  0  0
   18.6291   -5.1091  -16.8106 C   0  0  2  0  0  0  0  0  0  0  0  0
   18.6813   -6.3298  -16.0052 N   0  0  0  0  0  0  0  0  0  0  0  0
   18.5374   -3.9138  -15.9918 C   0  0  0  0  0  0  0  0  0  0  0  0
   18.8683   -2.6296  -16.3594 O   0  0  0  0  0  0  0  0  0  0  0  0
   18.1091   -4.0289  -14.7893 O   0  0  0  0  0  0  0  0  0  0  0  0
  2  1  1  0
  3  2  1  0
  3  4  1  0
  4  5  1  0
  5  7  1  0
  5  6  1  1
  7  8  2  0
  9 10  1  0
  9  7  1  0
 10 11  1  6
 12 11  1  0
 13 12  2  0
 14 15  2  0
 14 10  1  0
 16 12  1  0
 17 18  1  0
 19 18  1  0
 20 19  1  0
 21 22  1  0
 21 20  1  6
 22 14  1  0
 23 21  1  0
 24 23  1  0
 25 23  2  0
M  END
$$$$
