MDM.pdb
     RDKit          3D

 25 24  0  0  1  0  0  0  0  0999 V2000
   14.5400  -13.1700  -17.8088 C   0  0  0  0  0  0  0  0  0  0  0  0
   15.6598  -11.7927  -17.4286 S   0  0  0  0  0  0  0  0  0  0  0  0
   17.3924  -12.2902  -17.7160 C   0  0  0  0  0  0  0  0  0  0  0  0
   18.2812  -11.1156  -17.2957 C   0  0  0  0  0  0  0  0  0  0  0  0
   18.0659  -10.0350  -18.3333 C   0  0  2  0  0  0  0  0  0  0  0  0
   18.6502  -10.5006  -19.5540 N   0  0  0  0  0  0  0  0  0  0  0  0
   18.5906   -8.7263  -17.8923 C   0  0  0  0  0  0  0  0  0  0  0  0
   19.8384   -8.5357  -17.9650 O   0  0  0  0  0  0  0  0  0  0  0  0
   17.8150   -7.6558  -17.3910 N   0  0  0  0  0  0  0  0  0  0  0  0
   18.3494   -6.4156  -16.8979 C   0  0  1  0  0  0  0  0  0  0  0  0
   17.2315   -5.4612  -16.6409 C   0  0  0  0  0  0  0  0  0  0  0  0
   17.6465   -4.1343  -16.1797 C   0  0  0  0  0  0  0  0  0  0  0  0
   18.6452   -3.5805  -16.6658 O   0  0  0  0  0  0  0  0  0  0  0  0
   19.2224   -6.6025  -15.7082 C   0  0  0  0  0  0  0  0  0  0  0  0
   18.8281   -7.4046  -14.8291 O   0  0  0  0  0  0  0  0  0  0  0  0
   16.9618   -3.4356  -15.1942 O   0  0  0  0  0  0  0  0  0  0  0  0
   23.1644   -9.7251  -11.5614 C   0  0  0  0  0  0  0  0  0  0  0  0
   22.1414   -8.8914  -12.8125 S   0  0  0  0  0  0  0  0  0  0  0  0
   23.2069   -7.9319  -13.9567 C   0  0  0  0  0  0  0  0  0  0  0  0
   22.3814   -7.3317  -15.0568 C   0  0  0  0  0  0  0  0  0  0  0  0
   21.4691   -6.2899  -14.5514 C   0  0  2  0  0  0  0  0  0  0  0  0
   20.4542   -5.9217  -15.5393 N   0  0  0  0  0  0  0  0  0  0  0  0
   22.1187   -5.1282  -13.9716 C   0  0  0  0  0  0  0  0  0  0  0  0
   22.7147   -4.0881  -14.6473 O   0  0  0  0  0  0  0  0  0  0  0  0
   22.1643   -5.0280  -12.6946 O   0  0  0  0  0  0  0  0  0  0  0  0
  2  1  1  0
  3  2  1  0
  3  4  1  0
  4  5  1  0
  5  7  1  0
  5  6  1  6
  7  8  2  0
  9 10  1  0
  9  7  1  0
 10 11  1  1
 12 11  1  0
 13 12  2  0
 14 15  2  0
 14 10  1  0
 16 12  1  0
 17 18  1  0
 19 18  1  0
 20 19  1  0
 21 22  1  0
 21 20  1  6
 22 14  1  0
 23 21  1  0
 24 23  1  0
 25 23  2  0
M  END
$$$$
