MDM.pdb
     RDKit          3D

 25 24  0  0  1  0  0  0  0  0999 V2000
   15.0822  -17.0544  -16.3227 C   0  0  0  0  0  0  0  0  0  0  0  0
   15.9986  -15.8074  -15.3735 S   0  0  0  0  0  0  0  0  0  0  0  0
   16.3014  -14.3292  -16.4007 C   0  0  0  0  0  0  0  0  0  0  0  0
   17.0358  -13.3078  -15.5269 C   0  0  0  0  0  0  0  0  0  0  0  0
   17.4609  -12.1908  -16.4555 C   0  0  2  0  0  0  0  0  0  0  0  0
   18.4900  -12.7145  -17.3011 N   0  0  0  0  0  0  0  0  0  0  0  0
   17.8675  -10.9770  -15.7178 C   0  0  0  0  0  0  0  0  0  0  0  0
   17.0415  -10.4782  -14.9010 O   0  0  0  0  0  0  0  0  0  0  0  0
   19.1107  -10.3157  -15.8441 N   0  0  0  0  0  0  0  0  0  0  0  0
   19.4266   -9.0426  -15.2557 C   0  0  1  0  0  0  0  0  0  0  0  0
   20.9083   -8.8728  -15.2068 C   0  0  0  0  0  0  0  0  0  0  0  0
   21.3668   -7.6292  -14.5833 C   0  0  0  0  0  0  0  0  0  0  0  0
   21.0218   -7.3377  -13.4273 O   0  0  0  0  0  0  0  0  0  0  0  0
   18.7469   -7.9115  -15.9419 C   0  0  0  0  0  0  0  0  0  0  0  0
   18.8182   -7.8749  -17.1930 O   0  0  0  0  0  0  0  0  0  0  0  0
   22.1950   -6.7252  -15.2353 O   0  0  0  0  0  0  0  0  0  0  0  0
   12.5905   -3.2093  -16.5551 C   0  0  0  0  0  0  0  0  0  0  0  0
   13.5031   -4.4260  -15.5581 S   0  0  0  0  0  0  0  0  0  0  0  0
   15.2439   -4.5254  -16.1280 C   0  0  0  0  0  0  0  0  0  0  0  0
   15.9460   -5.6707  -15.4591 C   0  0  0  0  0  0  0  0  0  0  0  0
   17.3494   -5.7835  -15.8957 C   0  0  2  0  0  0  0  0  0  0  0  0
   18.0389   -6.8993  -15.2467 N   0  0  0  0  0  0  0  0  0  0  0  0
   18.1165   -4.5525  -15.8338 C   0  0  0  0  0  0  0  0  0  0  0  0
   17.9919   -3.4558  -16.6555 O   0  0  0  0  0  0  0  0  0  0  0  0
   19.0189   -4.4403  -14.9306 O   0  0  0  0  0  0  0  0  0  0  0  0
  2  1  1  0
  3  2  1  0
  3  4  1  0
  4  5  1  0
  5  7  1  0
  5  6  1  1
  7  8  2  0
  9 10  1  0
  9  7  1  0
 10 11  1  6
 12 11  1  0
 13 12  2  0
 14 15  2  0
 14 10  1  0
 16 12  1  0
 17 18  1  0
 19 18  1  0
 20 19  1  0
 21 22  1  0
 21 20  1  1
 22 14  1  0
 23 21  1  0
 24 23  1  0
 25 23  2  0
M  END
$$$$
