MDM.pdb
     RDKit          3D

 25 24  0  0  1  0  0  0  0  0999 V2000
   16.6742   -9.3203  -20.0320 C   0  0  0  0  0  0  0  0  0  0  0  0
   17.2356  -10.7597  -20.9853 S   0  0  0  0  0  0  0  0  0  0  0  0
   18.7340  -11.4741  -20.2261 C   0  0  0  0  0  0  0  0  0  0  0  0
   19.0302  -10.6713  -18.9557 C   0  0  0  0  0  0  0  0  0  0  0  0
   20.2700  -11.2911  -18.3480 C   0  0  2  0  0  0  0  0  0  0  0  0
   19.9291  -12.6278  -17.9665 N   0  0  0  0  0  0  0  0  0  0  0  0
   20.8097  -10.4822  -17.2358 C   0  0  0  0  0  0  0  0  0  0  0  0
   19.9966  -10.0587  -16.3651 O   0  0  0  0  0  0  0  0  0  0  0  0
   22.1682  -10.1351  -17.0551 N   0  0  0  0  0  0  0  0  0  0  0  0
   22.6802   -9.3715  -15.9498 C   0  0  1  0  0  0  0  0  0  0  0  0
   24.0977   -9.7603  -15.6927 C   0  0  0  0  0  0  0  0  0  0  0  0
   24.2918  -11.1552  -15.2901 C   0  0  0  0  0  0  0  0  0  0  0  0
   23.5087  -11.6979  -14.4949 O   0  0  0  0  0  0  0  0  0  0  0  0
   22.5189   -7.9057  -16.1446 C   0  0  0  0  0  0  0  0  0  0  0  0
   22.9442   -7.4208  -17.2195 O   0  0  0  0  0  0  0  0  0  0  0  0
   25.3398  -11.9331  -15.7645 O   0  0  0  0  0  0  0  0  0  0  0  0
   18.2828   -1.5003  -16.1721 C   0  0  0  0  0  0  0  0  0  0  0  0
   18.4416   -3.2849  -15.8610 S   0  0  0  0  0  0  0  0  0  0  0  0
   20.2080   -3.7293  -15.6428 C   0  0  0  0  0  0  0  0  0  0  0  0
   20.3538   -5.2126  -15.4678 C   0  0  0  0  0  0  0  0  0  0  0  0
   21.7663   -5.6124  -15.3336 C   0  0  2  0  0  0  0  0  0  0  0  0
   21.9155   -7.0601  -15.1801 N   0  0  0  0  0  0  0  0  0  0  0  0
   22.5259   -4.8733  -14.3414 C   0  0  0  0  0  0  0  0  0  0  0  0
   22.7985   -5.2597  -13.0492 O   0  0  0  0  0  0  0  0  0  0  0  0
   23.0076   -3.7312  -14.6677 O   0  0  0  0  0  0  0  0  0  0  0  0
  2  1  1  0
  3  2  1  0
  3  4  1  0
  4  5  1  0
  5  7  1  0
  5  6  1  1
  7  8  2  0
  9 10  1  0
  9  7  1  0
 10 11  1  6
 12 11  1  0
 13 12  2  0
 14 15  2  0
 14 10  1  0
 16 12  1  0
 17 18  1  0
 19 18  1  0
 20 19  1  0
 21 22  1  0
 21 20  1  1
 22 14  1  0
 23 21  1  0
 24 23  1  0
 25 23  2  0
M  END
$$$$
