MDM.pdb
     RDKit          3D

 25 24  0  0  1  0  0  0  0  0999 V2000
   27.1089  -19.0505   -6.3108 C   0  0  0  0  0  0  0  0  0  0  0  0
   28.6040  -20.0770   -6.2276 S   0  0  0  0  0  0  0  0  0  0  0  0
   28.7574  -21.0922   -7.7368 C   0  0  0  0  0  0  0  0  0  0  0  0
   27.8668  -20.4560   -8.8084 C   0  0  0  0  0  0  0  0  0  0  0  0
   27.9686  -21.3520  -10.0239 C   0  0  2  0  0  0  0  0  0  0  0  0
   29.3577  -21.4643  -10.3494 N   0  0  0  0  0  0  0  0  0  0  0  0
   27.1395  -20.8657  -11.1458 C   0  0  0  0  0  0  0  0  0  0  0  0
   27.5798  -19.8970  -11.8286 O   0  0  0  0  0  0  0  0  0  0  0  0
   25.8846  -21.3917  -11.5293 N   0  0  0  0  0  0  0  0  0  0  0  0
   25.1318  -20.9646  -12.6773 C   0  0  1  0  0  0  0  0  0  0  0  0
   25.5450  -21.7649  -13.8671 C   0  0  0  0  0  0  0  0  0  0  0  0
   24.8392  -21.4356  -15.1077 C   0  0  0  0  0  0  0  0  0  0  0  0
   25.1981  -20.4714  -15.8017 O   0  0  0  0  0  0  0  0  0  0  0  0
   23.6632  -21.0071  -12.4456 C   0  0  0  0  0  0  0  0  0  0  0  0
   23.2059  -22.0126  -11.8528 O   0  0  0  0  0  0  0  0  0  0  0  0
   23.7523  -22.1671  -15.5681 O   0  0  0  0  0  0  0  0  0  0  0  0
   17.1186  -19.6048  -10.5283 C   0  0  0  0  0  0  0  0  0  0  0  0
   18.9108  -19.3970  -10.7557 S   0  0  0  0  0  0  0  0  0  0  0  0
   19.2573  -18.7184  -12.4244 C   0  0  0  0  0  0  0  0  0  0  0  0
   20.7370  -18.6701  -12.6697 C   0  0  0  0  0  0  0  0  0  0  0  0
   21.3309  -20.0188  -12.7054 C   0  0  2  0  0  0  0  0  0  0  0  0
   22.7853  -19.9749  -12.8618 N   0  0  0  0  0  0  0  0  0  0  0  0
   20.7060  -20.9446  -13.6327 C   0  0  0  0  0  0  0  0  0  0  0  0
   19.6505  -21.7893  -13.3761 O   0  0  0  0  0  0  0  0  0  0  0  0
   21.1625  -21.0124  -14.8285 O   0  0  0  0  0  0  0  0  0  0  0  0
  2  1  1  0
  3  2  1  0
  3  4  1  0
  4  5  1  0
  5  7  1  0
  5  6  1  6
  7  8  2  0
  9 10  1  0
  9  7  1  0
 10 11  1  6
 12 11  1  0
 13 12  2  0
 14 15  2  0
 14 10  1  0
 16 12  1  0
 17 18  1  0
 19 18  1  0
 20 19  1  0
 21 22  1  0
 21 20  1  6
 22 14  1  0
 23 21  1  0
 24 23  1  0
 25 23  2  0
M  END
$$$$
