MDM.pdb
     RDKit          3D

 25 24  0  0  1  0  0  0  0  0999 V2000
   28.0756  -18.0088   -6.7891 C   0  0  0  0  0  0  0  0  0  0  0  0
   27.3379  -19.6039   -6.3338 S   0  0  0  0  0  0  0  0  0  0  0  0
   27.5078  -20.7931   -7.7082 C   0  0  0  0  0  0  0  0  0  0  0  0
   26.9166  -20.1346   -8.9584 C   0  0  0  0  0  0  0  0  0  0  0  0
   27.0748  -21.1417  -10.0770 C   0  0  2  0  0  0  0  0  0  0  0  0
   28.4792  -21.3305  -10.2784 N   0  0  0  0  0  0  0  0  0  0  0  0
   26.3554  -20.7330  -11.3009 C   0  0  0  0  0  0  0  0  0  0  0  0
   26.7504  -19.6907  -11.8977 O   0  0  0  0  0  0  0  0  0  0  0  0
   25.2530  -21.4097  -11.8716 N   0  0  0  0  0  0  0  0  0  0  0  0
   24.5879  -21.0180  -13.0845 C   0  0  1  0  0  0  0  0  0  0  0  0
   24.9347  -21.9784  -14.1726 C   0  0  0  0  0  0  0  0  0  0  0  0
   24.5189  -21.5661  -15.5153 C   0  0  0  0  0  0  0  0  0  0  0  0
   23.8940  -20.5075  -15.6858 O   0  0  0  0  0  0  0  0  0  0  0  0
   23.1190  -20.8659  -12.9070 C   0  0  0  0  0  0  0  0  0  0  0  0
   22.5018  -21.8280  -12.3922 O   0  0  0  0  0  0  0  0  0  0  0  0
   24.7938  -22.3193  -16.6491 O   0  0  0  0  0  0  0  0  0  0  0  0
   19.7885  -15.1910  -12.8680 C   0  0  0  0  0  0  0  0  0  0  0  0
   18.5268  -16.2912  -13.5784 S   0  0  0  0  0  0  0  0  0  0  0  0
   19.0236  -18.0428  -13.3546 C   0  0  0  0  0  0  0  0  0  0  0  0
   20.5185  -18.1687  -13.3910 C   0  0  0  0  0  0  0  0  0  0  0  0
   20.9541  -19.5698  -13.2496 C   0  0  2  0  0  0  0  0  0  0  0  0
   22.4113  -19.6991  -13.2905 N   0  0  0  0  0  0  0  0  0  0  0  0
   20.2935  -20.5142  -14.1323 C   0  0  0  0  0  0  0  0  0  0  0  0
   19.2107  -21.3095  -13.8346 O   0  0  0  0  0  0  0  0  0  0  0  0
   20.7419  -20.6515  -15.3251 O   0  0  0  0  0  0  0  0  0  0  0  0
  2  1  1  0
  3  2  1  0
  3  4  1  0
  4  5  1  0
  5  7  1  0
  5  6  1  6
  7  8  2  0
  9 10  1  0
  9  7  1  0
 10 11  1  6
 12 11  1  0
 13 12  2  0
 14 15  2  0
 14 10  1  0
 16 12  1  0
 17 18  1  0
 19 18  1  0
 20 19  1  0
 21 22  1  0
 21 20  1  6
 22 14  1  0
 23 21  1  0
 24 23  1  0
 25 23  2  0
M  END
$$$$
