MDM.pdb
     RDKit          3D

 25 24  0  0  1  0  0  0  0  0999 V2000
   22.8970  -18.2092    7.2102 C   0  0  0  0  0  0  0  0  0  0  0  0
   21.0941  -18.3875    7.3269 S   0  0  0  0  0  0  0  0  0  0  0  0
   20.6640  -20.0364    7.9816 C   0  0  0  0  0  0  0  0  0  0  0  0
   20.3644  -19.8716    9.4747 C   0  0  0  0  0  0  0  0  0  0  0  0
   20.1839  -21.2709   10.0226 C   0  0  2  0  0  0  0  0  0  0  0  0
   18.8292  -21.3757   10.4724 N   0  0  0  0  0  0  0  0  0  0  0  0
   21.1768  -21.5925   11.0682 C   0  0  0  0  0  0  0  0  0  0  0  0
   20.9706  -21.1497   12.2343 O   0  0  0  0  0  0  0  0  0  0  0  0
   22.3496  -22.3593   10.8806 N   0  0  0  0  0  0  0  0  0  0  0  0
   23.3477  -22.5925   11.8887 C   0  0  1  0  0  0  0  0  0  0  0  0
   24.1330  -23.8116   11.5365 C   0  0  0  0  0  0  0  0  0  0  0  0
   23.5625  -25.0729   12.0152 C   0  0  0  0  0  0  0  0  0  0  0  0
   22.3484  -25.3018   11.8978 O   0  0  0  0  0  0  0  0  0  0  0  0
   24.2136  -21.4056   12.1207 C   0  0  0  0  0  0  0  0  0  0  0  0
   24.5932  -20.7676   11.1105 O   0  0  0  0  0  0  0  0  0  0  0  0
   24.3301  -26.0627   12.6147 O   0  0  0  0  0  0  0  0  0  0  0  0
   26.5249  -15.7004   17.0919 C   0  0  0  0  0  0  0  0  0  0  0  0
   25.5602  -17.2204   16.8348 S   0  0  0  0  0  0  0  0  0  0  0  0
   25.9701  -17.9559   15.2051 C   0  0  0  0  0  0  0  0  0  0  0  0
   25.1905  -19.2206   14.9939 C   0  0  0  0  0  0  0  0  0  0  0  0
   25.4577  -19.8148   13.6716 C   0  0  2  0  0  0  0  0  0  0  0  0
   24.6139  -20.9821   13.4129 N   0  0  0  0  0  0  0  0  0  0  0  0
   26.8566  -20.0726   13.3814 C   0  0  0  0  0  0  0  0  0  0  0  0
   27.7382  -19.2343   12.7383 O   0  0  0  0  0  0  0  0  0  0  0  0
   27.3592  -21.1939   13.7461 O   0  0  0  0  0  0  0  0  0  0  0  0
  2  1  1  0
  3  2  1  0
  3  4  1  0
  4  5  1  0
  5  7  1  0
  5  6  1  1
  7  8  2  0
  9 10  1  0
  9  7  1  0
 10 11  1  6
 12 11  1  0
 13 12  2  0
 14 15  2  0
 14 10  1  0
 16 12  1  0
 17 18  1  0
 19 18  1  0
 20 19  1  0
 21 22  1  0
 21 20  1  1
 22 14  1  0
 23 21  1  0
 24 23  1  0
 25 23  2  0
M  END
$$$$
