CTK.pdb
     RDKit          3D

 23 22  0  0  1  0  0  0  0  0999 V2000
   10.5106  -15.4394   15.2305 N   0  0  0  0  0  0  0  0  0  0  0  0
    9.5623  -15.9109   16.1925 C   0  0  1  0  0  0  0  0  0  0  0  0
    9.4836  -17.4221   16.2209 C   0  0  0  0  0  0  0  0  0  0  0  0
    8.7808  -17.9790   14.6338 S   0  0  0  0  0  0  0  0  0  0  0  0
    9.8445  -15.3849   17.5625 C   0  0  0  0  0  0  0  0  0  0  0  0
   11.0410  -15.2209   17.9153 O   0  0  0  0  0  0  0  0  0  0  0  0
    7.7342  -12.6732   19.2339 C   0  0  0  0  0  0  0  0  0  0  0  0
    7.8792  -13.7962   20.2668 C   0  0  1  0  0  0  0  0  0  0  0  0
    6.7406  -14.5851   20.1436 O   0  0  0  0  0  0  0  0  0  0  0  0
    9.1075  -14.5967   19.8335 C   0  0  2  0  0  0  0  0  0  0  0  0
    8.8328  -15.0608   18.4859 N   0  0  0  0  0  0  0  0  0  0  0  0
    9.3687  -15.7217   20.7607 C   0  0  0  0  0  0  0  0  0  0  0  0
    9.0827  -16.8856   20.3775 O   0  0  0  0  0  0  0  0  0  0  0  0
    9.9263  -15.4911   22.0451 N   0  0  0  0  0  0  0  0  0  0  0  0
   10.1616  -16.5771   22.9681 C   0  0  1  0  0  0  0  0  0  0  0  0
   11.5697  -17.0078   22.8199 C   0  0  0  0  0  0  0  0  0  0  0  0
   12.0162  -18.1498   23.6513 C   0  0  0  0  0  0  0  0  0  0  0  0
   13.4824  -18.4926   23.4548 C   0  0  0  0  0  0  0  0  0  0  0  0
   13.8462  -19.7124   24.2925 C   0  0  0  0  0  0  0  0  0  0  0  0
   15.2334  -20.0233   24.0016 N   0  0  0  0  0  0  0  0  0  0  0  0
    9.7171  -16.1967   24.2907 C   0  0  0  0  0  0  0  0  0  0  0  0
    9.3227  -15.0554   24.6444 O   0  0  0  0  0  0  0  0  0  0  0  0
    9.7105  -17.1559   25.2952 O   0  0  0  0  0  0  0  0  0  0  0  0
  2  1  1  6
  2  3  1  0
  4  3  1  0
  5  2  1  0
  5  6  2  0
  8  7  1  6
  8 10  1  0
  9  8  1  0
 10 11  1  6
 10 12  1  0
 11  5  1  0
 12 14  1  0
 13 12  2  0
 14 15  1  0
 15 21  1  0
 16 17  1  0
 15 16  1  1
 18 19  1  0
 18 17  1  0
 20 19  1  0
 21 22  2  0
 21 23  1  0
M  END
$$$$
