CTK.pdb
     RDKit          3D

 23 22  0  0  1  0  0  0  0  0999 V2000
    5.5251  -13.8063   26.4893 N   0  0  0  0  0  0  0  0  0  0  0  0
    6.5100  -13.2454   25.6163 C   0  0  1  0  0  0  0  0  0  0  0  0
    7.6811  -12.6636   26.3784 C   0  0  0  0  0  0  0  0  0  0  0  0
    7.0743  -11.2400   27.3417 S   0  0  0  0  0  0  0  0  0  0  0  0
    6.9941  -14.2357   24.6072 C   0  0  0  0  0  0  0  0  0  0  0  0
    7.1190  -15.4398   24.9498 O   0  0  0  0  0  0  0  0  0  0  0  0
    8.7368  -12.9994   20.9946 C   0  0  0  0  0  0  0  0  0  0  0  0
    7.7363  -14.1596   20.9519 C   0  0  1  0  0  0  0  0  0  0  0  0
    8.1901  -15.0261   19.9634 O   0  0  0  0  0  0  0  0  0  0  0  0
    7.8380  -14.8401   22.3171 C   0  0  2  0  0  0  0  0  0  0  0  0
    7.3201  -13.8881   23.2828 N   0  0  0  0  0  0  0  0  0  0  0  0
    9.2350  -15.2274   22.6205 C   0  0  0  0  0  0  0  0  0  0  0  0
    9.9442  -14.4235   23.2795 O   0  0  0  0  0  0  0  0  0  0  0  0
    9.7570  -16.4710   22.1794 N   0  0  0  0  0  0  0  0  0  0  0  0
   11.0899  -16.8963   22.5389 C   0  0  1  0  0  0  0  0  0  0  0  0
   10.9766  -18.1484   23.3196 C   0  0  0  0  0  0  0  0  0  0  0  0
   11.9028  -18.3153   24.4638 C   0  0  0  0  0  0  0  0  0  0  0  0
   11.6214  -19.5639   25.2810 C   0  0  0  0  0  0  0  0  0  0  0  0
   12.6079  -19.6588   26.4385 C   0  0  0  0  0  0  0  0  0  0  0  0
   12.1576  -20.7471   27.2860 N   0  0  0  0  0  0  0  0  0  0  0  0
   11.9277  -16.9199   21.3603 C   0  0  0  0  0  0  0  0  0  0  0  0
   11.5628  -17.2149   20.1927 O   0  0  0  0  0  0  0  0  0  0  0  0
   13.2710  -16.5911   21.4885 O   0  0  0  0  0  0  0  0  0  0  0  0
  2  1  1  1
  2  3  1  0
  4  3  1  0
  5  2  1  0
  5  6  2  0
  8  7  1  1
  8 10  1  0
  9  8  1  0
 10 11  1  1
 10 12  1  0
 11  5  1  0
 12 14  1  0
 13 12  2  0
 14 15  1  0
 15 21  1  0
 16 17  1  0
 15 16  1  6
 18 19  1  0
 18 17  1  0
 20 19  1  0
 21 22  2  0
 21 23  1  0
M  END
$$$$
