CTK.pdb
     RDKit          3D

 23 22  0  0  1  0  0  0  0  0999 V2000
    8.4035  -17.1520   16.0465 N   0  0  0  0  0  0  0  0  0  0  0  0
    7.7239  -17.0704   17.3028 C   0  0  1  0  0  0  0  0  0  0  0  0
    7.2438  -18.4243   17.7794 C   0  0  0  0  0  0  0  0  0  0  0  0
    6.4228  -18.1949   19.3907 S   0  0  0  0  0  0  0  0  0  0  0  0
    8.5658  -16.4238   18.3547 C   0  0  0  0  0  0  0  0  0  0  0  0
    9.8145  -16.5704   18.3079 O   0  0  0  0  0  0  0  0  0  0  0  0
    7.9503  -12.9103   19.5359 C   0  0  0  0  0  0  0  0  0  0  0  0
    8.0954  -13.7365   20.8186 C   0  0  1  0  0  0  0  0  0  0  0  0
    6.8042  -14.0694   21.2131 O   0  0  0  0  0  0  0  0  0  0  0  0
    8.8492  -15.0019   20.4090 C   0  0  2  0  0  0  0  0  0  0  0  0
    8.0296  -15.6530   19.4034 N   0  0  0  0  0  0  0  0  0  0  0  0
    9.0929  -15.8821   21.5751 C   0  0  0  0  0  0  0  0  0  0  0  0
    8.1275  -16.5519   22.0252 O   0  0  0  0  0  0  0  0  0  0  0  0
   10.3800  -15.9660   22.1664 N   0  0  0  0  0  0  0  0  0  0  0  0
   10.6248  -16.8036   23.3176 C   0  0  1  0  0  0  0  0  0  0  0  0
   11.5707  -17.8689   22.9167 C   0  0  0  0  0  0  0  0  0  0  0  0
   11.0900  -18.8586   21.9247 C   0  0  0  0  0  0  0  0  0  0  0  0
   12.1663  -19.8378   21.4902 C   0  0  0  0  0  0  0  0  0  0  0  0
   11.6146  -20.7738   20.4217 C   0  0  0  0  0  0  0  0  0  0  0  0
   12.7164  -21.6129   19.9889 N   0  0  0  0  0  0  0  0  0  0  0  0
   10.9894  -15.9807   24.4496 C   0  0  0  0  0  0  0  0  0  0  0  0
   11.0863  -16.3597   25.6456 O   0  0  0  0  0  0  0  0  0  0  0  0
   11.2670  -14.6365   24.2369 O   0  0  0  0  0  0  0  0  0  0  0  0
  2  1  1  6
  2  3  1  0
  4  3  1  0
  5  2  1  0
  5  6  2  0
  8  7  1  6
  8 10  1  0
  9  8  1  0
 10 11  1  6
 10 12  1  0
 11  5  1  0
 12 14  1  0
 13 12  2  0
 14 15  1  0
 15 21  1  0
 16 17  1  0
 15 16  1  6
 18 19  1  0
 18 17  1  0
 20 19  1  0
 21 22  2  0
 21 23  1  0
M  END
$$$$
