CTK.pdb
     RDKit          3D

 23 22  0  0  1  0  0  0  0  0999 V2000
    7.8799  -16.9856   15.8576 N   0  0  0  0  0  0  0  0  0  0  0  0
    7.3204  -16.8845   17.1704 C   0  0  1  0  0  0  0  0  0  0  0  0
    6.7624  -18.2054   17.6547 C   0  0  0  0  0  0  0  0  0  0  0  0
    5.2053  -18.5203   16.7606 S   0  0  0  0  0  0  0  0  0  0  0  0
    8.3040  -16.3482   18.1595 C   0  0  0  0  0  0  0  0  0  0  0  0
    9.5234  -16.6200   18.0113 O   0  0  0  0  0  0  0  0  0  0  0  0
    7.9577  -12.8579   19.4164 C   0  0  0  0  0  0  0  0  0  0  0  0
    8.2797  -13.6666   20.6779 C   0  0  1  0  0  0  0  0  0  0  0  0
    7.0599  -13.9279   21.2923 O   0  0  0  0  0  0  0  0  0  0  0  0
    8.8949  -14.9749   20.1811 C   0  0  2  0  0  0  0  0  0  0  0  0
    7.9337  -15.5483   19.2569 N   0  0  0  0  0  0  0  0  0  0  0  0
    9.1895  -15.8906   21.3074 C   0  0  0  0  0  0  0  0  0  0  0  0
    8.4639  -16.9087   21.4503 O   0  0  0  0  0  0  0  0  0  0  0  0
   10.2608  -15.6252   22.1994 N   0  0  0  0  0  0  0  0  0  0  0  0
   10.5925  -16.5385   23.2682 C   0  0  1  0  0  0  0  0  0  0  0  0
   10.8723  -17.8627   22.6694 C   0  0  0  0  0  0  0  0  0  0  0  0
   11.2597  -18.9526   23.5950 C   0  0  0  0  0  0  0  0  0  0  0  0
   11.5462  -20.2639   22.8847 C   0  0  0  0  0  0  0  0  0  0  0  0
   12.0102  -21.3085   23.8925 C   0  0  0  0  0  0  0  0  0  0  0  0
   12.3645  -22.4945   23.1353 N   0  0  0  0  0  0  0  0  0  0  0  0
   11.6179  -15.9561   24.1055 C   0  0  0  0  0  0  0  0  0  0  0  0
   12.4527  -15.0802   23.7604 O   0  0  0  0  0  0  0  0  0  0  0  0
   11.7234  -16.3785   25.4244 O   0  0  0  0  0  0  0  0  0  0  0  0
  2  1  1  6
  2  3  1  0
  4  3  1  0
  5  2  1  0
  5  6  2  0
  8  7  1  6
  8 10  1  0
  9  8  1  0
 10 11  1  6
 10 12  1  0
 11  5  1  0
 12 14  1  0
 13 12  2  0
 14 15  1  0
 15 21  1  0
 16 17  1  0
 15 16  1  6
 18 19  1  0
 18 17  1  0
 20 19  1  0
 21 22  2  0
 21 23  1  0
M  END
$$$$
