CTK.pdb
     RDKit          3D

 23 22  0  0  1  0  0  0  0  0999 V2000
    8.1463  -14.0061   17.0947 N   0  0  0  0  0  0  0  0  0  0  0  0
    8.8344  -13.7605   18.3247 C   0  0  1  0  0  0  0  0  0  0  0  0
    7.8858  -13.6783   19.5012 C   0  0  0  0  0  0  0  0  0  0  0  0
    7.6815  -11.9202   19.9375 S   0  0  0  0  0  0  0  0  0  0  0  0
    9.8933  -14.7815   18.5884 C   0  0  0  0  0  0  0  0  0  0  0  0
    9.6107  -15.9994   18.4481 O   0  0  0  0  0  0  0  0  0  0  0  0
   12.7517  -15.2773   16.9135 C   0  0  0  0  0  0  0  0  0  0  0  0
   13.3667  -15.1794   18.3139 C   0  0  1  0  0  0  0  0  0  0  0  0
   13.8062  -13.8674   18.4531 O   0  0  0  0  0  0  0  0  0  0  0  0
   12.2169  -15.4414   19.2867 C   0  0  2  0  0  0  0  0  0  0  0  0
   11.2010  -14.4484   18.9887 N   0  0  0  0  0  0  0  0  0  0  0  0
   12.6743  -15.3563   20.6929 C   0  0  0  0  0  0  0  0  0  0  0  0
   12.7614  -14.2175   21.2209 O   0  0  0  0  0  0  0  0  0  0  0  0
   13.0045  -16.5279   21.4224 N   0  0  0  0  0  0  0  0  0  0  0  0
   13.4741  -16.4562   22.7865 C   0  0  1  0  0  0  0  0  0  0  0  0
   13.2596  -17.7786   23.4153 C   0  0  0  0  0  0  0  0  0  0  0  0
   11.8663  -18.2782   23.4755 C   0  0  0  0  0  0  0  0  0  0  0  0
   11.7548  -19.6596   24.0963 C   0  0  0  0  0  0  0  0  0  0  0  0
   10.3297  -20.1793   23.9516 C   0  0  0  0  0  0  0  0  0  0  0  0
   10.2913  -21.4828   24.5879 N   0  0  0  0  0  0  0  0  0  0  0  0
   14.8157  -15.9165   22.8117 C   0  0  0  0  0  0  0  0  0  0  0  0
   15.6418  -15.9297   21.8626 O   0  0  0  0  0  0  0  0  0  0  0  0
   15.2733  -15.3175   23.9782 O   0  0  0  0  0  0  0  0  0  0  0  0
  2  1  1  6
  2  3  1  0
  4  3  1  0
  5  2  1  0
  5  6  2  0
  8  7  1  6
  8 10  1  0
  9  8  1  0
 10 11  1  1
 10 12  1  0
 11  5  1  0
 12 14  1  0
 13 12  2  0
 14 15  1  0
 15 21  1  0
 16 17  1  0
 15 16  1  6
 18 19  1  0
 18 17  1  0
 20 19  1  0
 21 22  2  0
 21 23  1  0
M  END
$$$$
