CTK.pdb
     RDKit          3D

 23 22  0  0  1  0  0  0  0  0999 V2000
    8.0071  -14.5971   16.7475 N   0  0  0  0  0  0  0  0  0  0  0  0
    8.4653  -14.0905   18.0045 C   0  0  1  0  0  0  0  0  0  0  0  0
    7.7870  -12.7892   18.3752 C   0  0  0  0  0  0  0  0  0  0  0  0
    8.5611  -12.1665   19.9035 S   0  0  0  0  0  0  0  0  0  0  0  0
    8.3002  -15.0880   19.1050 C   0  0  0  0  0  0  0  0  0  0  0  0
    7.3801  -15.9416   19.0176 O   0  0  0  0  0  0  0  0  0  0  0  0
    8.0988  -17.4267   19.4483 C   0  0  0  0  0  0  0  0  0  0  0  0
    9.0858  -17.4751   20.6198 C   0  0  1  0  0  0  0  0  0  0  0  0
   10.3484  -17.6249   20.0566 O   0  0  0  0  0  0  0  0  0  0  0  0
    8.9853  -16.1088   21.2983 C   0  0  2  0  0  0  0  0  0  0  0  0
    9.1276  -15.1221   20.2432 N   0  0  0  0  0  0  0  0  0  0  0  0
   10.0234  -15.9513   22.3430 C   0  0  0  0  0  0  0  0  0  0  0  0
   11.1649  -15.5558   21.9909 O   0  0  0  0  0  0  0  0  0  0  0  0
    9.7363  -16.2389   23.7026 N   0  0  0  0  0  0  0  0  0  0  0  0
   10.7283  -16.0517   24.7359 C   0  0  1  0  0  0  0  0  0  0  0  0
   10.0384  -15.5634   25.9507 C   0  0  0  0  0  0  0  0  0  0  0  0
   10.8541  -15.4259   27.1797 C   0  0  0  0  0  0  0  0  0  0  0  0
   10.0399  -15.0087   28.3917 C   0  0  0  0  0  0  0  0  0  0  0  0
   10.9552  -14.8427   29.5987 C   0  0  0  0  0  0  0  0  0  0  0  0
   10.1080  -14.4913   30.7231 N   0  0  0  0  0  0  0  0  0  0  0  0
   11.5319  -17.2475   24.8615 C   0  0  0  0  0  0  0  0  0  0  0  0
   11.1177  -18.4338   24.7942 O   0  0  0  0  0  0  0  0  0  0  0  0
   12.8974  -17.1154   25.0782 O   0  0  0  0  0  0  0  0  0  0  0  0
  2  1  1  6
  2  3  1  0
  4  3  1  0
  5  2  1  0
  5  6  2  0
  8  7  1  6
  8 10  1  0
  9  8  1  0
 10 11  1  6
 10 12  1  0
 11  5  1  0
 12 14  1  0
 13 12  2  0
 14 15  1  0
 15 21  1  0
 16 17  1  0
 15 16  1  1
 18 19  1  0
 18 17  1  0
 20 19  1  0
 21 22  2  0
 21 23  1  0
M  END
$$$$
