CTK.pdb
     RDKit          3D

 23 22  0  0  1  0  0  0  0  0999 V2000
    4.9347  -12.7480   25.6819 N   0  0  0  0  0  0  0  0  0  0  0  0
    6.2780  -12.6240   25.2055 C   0  0  1  0  0  0  0  0  0  0  0  0
    7.1934  -12.0030   26.2385 C   0  0  0  0  0  0  0  0  0  0  0  0
    6.6287  -10.2956   26.5369 S   0  0  0  0  0  0  0  0  0  0  0  0
    6.8335  -13.9335   24.7472 C   0  0  0  0  0  0  0  0  0  0  0  0
    6.6773  -14.9474   25.4754 O   0  0  0  0  0  0  0  0  0  0  0  0
    7.0004  -14.5221   21.0531 C   0  0  0  0  0  0  0  0  0  0  0  0
    8.2540  -15.2352   21.5719 C   0  0  1  0  0  0  0  0  0  0  0  0
    9.3205  -14.3810   21.3132 O   0  0  0  0  0  0  0  0  0  0  0  0
    8.0564  -15.3667   23.0821 C   0  0  2  0  0  0  0  0  0  0  0  0
    7.5279  -14.0922   23.5331 N   0  0  0  0  0  0  0  0  0  0  0  0
    9.3277  -15.7071   23.7616 C   0  0  0  0  0  0  0  0  0  0  0  0
    9.9347  -14.7932   24.3778 O   0  0  0  0  0  0  0  0  0  0  0  0
    9.8449  -17.0278   23.7175 N   0  0  0  0  0  0  0  0  0  0  0  0
   11.0701  -17.3780   24.3980 C   0  0  1  0  0  0  0  0  0  0  0  0
   10.7708  -18.4747   25.3455 C   0  0  0  0  0  0  0  0  0  0  0  0
   11.9196  -19.0852   26.0543 C   0  0  0  0  0  0  0  0  0  0  0  0
   11.5206  -20.2497   26.9435 C   0  0  0  0  0  0  0  0  0  0  0  0
   12.7561  -20.8343   27.6173 C   0  0  0  0  0  0  0  0  0  0  0  0
   12.2861  -21.8140   28.5790 N   0  0  0  0  0  0  0  0  0  0  0  0
   12.1184  -17.6037   23.4276 C   0  0  0  0  0  0  0  0  0  0  0  0
   11.9708  -18.0592   22.2639 O   0  0  0  0  0  0  0  0  0  0  0  0
   13.4283  -17.3007   23.7761 O   0  0  0  0  0  0  0  0  0  0  0  0
  2  1  1  1
  2  3  1  0
  4  3  1  0
  5  2  1  0
  5  6  2  0
  8  7  1  6
  8 10  1  0
  9  8  1  0
 10 11  1  1
 10 12  1  0
 11  5  1  0
 12 14  1  0
 13 12  2  0
 14 15  1  0
 15 21  1  0
 16 17  1  0
 15 16  1  6
 18 19  1  0
 18 17  1  0
 20 19  1  0
 21 22  2  0
 21 23  1  0
M  END
$$$$
