PGQ.pdb
     RDKit          3D

 21 21  0  0  1  0  0  0  0  0999 V2000
   18.0311  -11.8188  -16.8451 N   0  0  0  0  0  0  0  0  0  0  0  0
   18.7941  -13.0482  -17.0174 C   0  0  0  0  0  0  0  0  0  0  0  0
   18.8873  -13.5533  -15.5926 C   0  0  0  0  0  0  0  0  0  0  0  0
   17.5435  -13.1476  -15.0240 C   0  0  0  0  0  0  0  0  0  0  0  0
   16.9132  -12.2595  -16.0555 C   0  0  1  0  0  0  0  0  0  0  0  0
   16.2315  -11.1368  -15.3636 C   0  0  0  0  0  0  0  0  0  0  0  0
   15.3419  -11.4414  -14.5278 O   0  0  0  0  0  0  0  0  0  0  0  0
   16.5212   -9.7844  -15.5882 N   0  0  0  0  0  0  0  0  0  0  0  0
   16.0204   -8.7754  -14.6765 C   0  0  0  0  0  0  0  0  0  0  0  0
   17.0676   -7.7128  -14.4659 C   0  0  0  0  0  0  0  0  0  0  0  0
   16.8205   -6.6894  -13.8044 O   0  0  0  0  0  0  0  0  0  0  0  0
   21.3197   -6.7101  -12.3699 N   0  0  0  0  0  0  0  0  0  0  0  0
   22.0253   -6.0231  -13.3890 C   0  0  0  0  0  0  0  0  0  0  0  0
   22.8494   -5.1135  -13.1164 O   0  0  0  0  0  0  0  0  0  0  0  0
   21.7742   -6.3971  -14.7934 C   0  0  0  0  0  0  0  0  0  0  0  0
   20.7292   -7.5180  -14.8570 C   0  0  0  0  0  0  0  0  0  0  0  0
   19.3808   -6.8367  -14.9763 C   0  0  2  0  0  0  0  0  0  0  0  0
   18.3608   -7.8805  -15.0318 N   0  0  0  0  0  0  0  0  0  0  0  0
   19.3410   -6.0376  -16.2305 C   0  0  0  0  0  0  0  0  0  0  0  0
   18.7443   -6.4694  -17.2261 O   0  0  0  0  0  0  0  0  0  0  0  0
   19.9781   -4.8098  -16.2678 O   0  0  0  0  0  0  0  0  0  0  0  0
  1  2  1  0
  1  5  1  0
  2  3  1  0
  3  4  1  0
  5  4  1  0
  5  6  1  1
  6  7  2  0
  8  6  1  0
  9 10  1  0
  9  8  1  0
 10 18  1  0
 11 10  2  0
 13 12  1  0
 13 14  2  0
 15 13  1  0
 16 15  1  0
 17 16  1  6
 17 19  1  0
 18 17  1  0
 19 20  2  0
 19 21  1  0
M  END
$$$$
