PGQ.pdb
     RDKit          3D

 21 21  0  0  1  0  0  0  0  0999 V2000
   16.1242  -19.3587    2.4241 N   0  0  0  0  0  0  0  0  0  0  0  0
   15.9635  -20.7711    2.1039 C   0  0  0  0  0  0  0  0  0  0  0  0
   15.6916  -21.3661    3.4699 C   0  0  0  0  0  0  0  0  0  0  0  0
   14.8772  -20.2755    4.1341 C   0  0  0  0  0  0  0  0  0  0  0  0
   14.9569  -19.0895    3.2193 C   0  0  1  0  0  0  0  0  0  0  0  0
   15.1037  -17.8630    4.0427 C   0  0  0  0  0  0  0  0  0  0  0  0
   14.1983  -17.6332    4.8854 O   0  0  0  0  0  0  0  0  0  0  0  0
   16.1756  -16.9671    3.9326 N   0  0  0  0  0  0  0  0  0  0  0  0
   16.2801  -15.8473    4.8465 C   0  0  0  0  0  0  0  0  0  0  0  0
   17.5562  -15.9540    5.6406 C   0  0  0  0  0  0  0  0  0  0  0  0
   18.2343  -16.9960    5.6301 O   0  0  0  0  0  0  0  0  0  0  0  0
   21.1678  -11.2954    6.1328 N   0  0  0  0  0  0  0  0  0  0  0  0
   19.8764  -11.1901    6.7067 C   0  0  0  0  0  0  0  0  0  0  0  0
   19.3190  -10.0744    6.8657 O   0  0  0  0  0  0  0  0  0  0  0  0
   19.1873  -12.4269    7.1201 C   0  0  0  0  0  0  0  0  0  0  0  0
   20.0467  -13.6472    6.7670 C   0  0  0  0  0  0  0  0  0  0  0  0
   19.2430  -14.8659    7.1736 C   0  0  2  0  0  0  0  0  0  0  0  0
   17.9947  -14.8459    6.4158 N   0  0  0  0  0  0  0  0  0  0  0  0
   18.9408  -14.7948    8.6285 C   0  0  0  0  0  0  0  0  0  0  0  0
   17.8159  -14.4504    9.0154 O   0  0  0  0  0  0  0  0  0  0  0  0
   19.9313  -15.1180    9.5391 O   0  0  0  0  0  0  0  0  0  0  0  0
  1  2  1  0
  1  5  1  0
  2  3  1  0
  3  4  1  0
  5  4  1  0
  5  6  1  1
  6  7  2  0
  8  6  1  0
  9 10  1  0
  9  8  1  0
 10 18  1  0
 11 10  2  0
 13 12  1  0
 13 14  2  0
 15 13  1  0
 16 15  1  0
 17 16  1  6
 17 19  1  0
 18 17  1  0
 19 20  2  0
 19 21  1  0
M  END
$$$$
