PGQ.pdb
     RDKit          3D

 21 21  0  0  1  0  0  0  0  0999 V2000
   27.2055  -21.8294  -14.7412 N   0  0  0  0  0  0  0  0  0  0  0  0
   27.5156  -21.4759  -16.1203 C   0  0  0  0  0  0  0  0  0  0  0  0
   26.9608  -20.0695  -16.2085 C   0  0  0  0  0  0  0  0  0  0  0  0
   27.2561  -19.5251  -14.8263 C   0  0  0  0  0  0  0  0  0  0  0  0
   27.7143  -20.6990  -14.0127 C   0  0  1  0  0  0  0  0  0  0  0  0
   27.1288  -20.5922  -12.6527 C   0  0  0  0  0  0  0  0  0  0  0  0
   27.4552  -19.5861  -11.9715 O   0  0  0  0  0  0  0  0  0  0  0  0
   26.2503  -21.5336  -12.0999 N   0  0  0  0  0  0  0  0  0  0  0  0
   25.5059  -21.2117  -10.8989 C   0  0  0  0  0  0  0  0  0  0  0  0
   24.1161  -20.7601  -11.2656 C   0  0  0  0  0  0  0  0  0  0  0  0
   23.2773  -20.4866  -10.3895 O   0  0  0  0  0  0  0  0  0  0  0  0
   22.3898  -18.2957  -16.7564 N   0  0  0  0  0  0  0  0  0  0  0  0
   21.1423  -18.4552  -16.1034 C   0  0  0  0  0  0  0  0  0  0  0  0
   20.0733  -18.0464  -16.6238 O   0  0  0  0  0  0  0  0  0  0  0  0
   21.1176  -19.1173  -14.7857 C   0  0  0  0  0  0  0  0  0  0  0  0
   22.5411  -19.5094  -14.3709 C   0  0  0  0  0  0  0  0  0  0  0  0
   22.4113  -20.2602  -13.0609 C   0  0  2  0  0  0  0  0  0  0  0  0
   23.7548  -20.6438  -12.6356 N   0  0  0  0  0  0  0  0  0  0  0  0
   21.5903  -21.4827  -13.2721 C   0  0  0  0  0  0  0  0  0  0  0  0
   22.0986  -22.4967  -13.7695 O   0  0  0  0  0  0  0  0  0  0  0  0
   20.2560  -21.4699  -12.9061 O   0  0  0  0  0  0  0  0  0  0  0  0
  1  2  1  0
  1  5  1  0
  2  3  1  0
  3  4  1  0
  5  4  1  0
  5  6  1  1
  6  7  2  0
  8  6  1  0
  9 10  1  0
  9  8  1  0
 10 18  1  0
 11 10  2  0
 13 12  1  0
 13 14  2  0
 15 13  1  0
 16 15  1  0
 17 16  1  6
 17 19  1  0
 18 17  1  0
 19 20  2  0
 19 21  1  0
M  END
$$$$
