PGQ.pdb
     RDKit          3D

 21 21  0  0  1  0  0  0  0  0999 V2000
   26.7866  -18.3525  -16.1697 N   0  0  0  0  0  0  0  0  0  0  0  0
   27.7347  -17.2467  -16.2057 C   0  0  0  0  0  0  0  0  0  0  0  0
   26.8105  -16.0483  -16.1471 C   0  0  0  0  0  0  0  0  0  0  0  0
   25.7098  -16.5416  -15.2311 C   0  0  0  0  0  0  0  0  0  0  0  0
   25.9574  -18.0094  -15.0462 C   0  0  1  0  0  0  0  0  0  0  0  0
   24.6530  -18.7180  -15.0683 C   0  0  0  0  0  0  0  0  0  0  0  0
   23.7737  -18.3138  -14.2646 O   0  0  0  0  0  0  0  0  0  0  0  0
   24.3566  -19.7907  -15.9198 N   0  0  0  0  0  0  0  0  0  0  0  0
   23.4251  -19.6098  -17.0151 C   0  0  0  0  0  0  0  0  0  0  0  0
   22.0229  -19.8990  -16.5456 C   0  0  0  0  0  0  0  0  0  0  0  0
   21.0549  -19.8120  -17.3210 O   0  0  0  0  0  0  0  0  0  0  0  0
   20.1988  -23.4242  -12.9096 N   0  0  0  0  0  0  0  0  0  0  0  0
   19.0557  -22.6283  -12.6482 C   0  0  0  0  0  0  0  0  0  0  0  0
   17.9381  -23.1481  -12.4005 O   0  0  0  0  0  0  0  0  0  0  0  0
   19.2000  -21.1607  -12.6717 C   0  0  0  0  0  0  0  0  0  0  0  0
   20.5980  -20.7808  -13.1754 C   0  0  0  0  0  0  0  0  0  0  0  0
   20.4655  -20.5523  -14.6676 C   0  0  2  0  0  0  0  0  0  0  0  0
   21.8000  -20.2780  -15.1936 N   0  0  0  0  0  0  0  0  0  0  0  0
   19.5857  -19.3774  -14.9106 C   0  0  0  0  0  0  0  0  0  0  0  0
   19.9829  -18.2353  -14.6427 O   0  0  0  0  0  0  0  0  0  0  0  0
   18.3225  -19.5790  -15.4381 O   0  0  0  0  0  0  0  0  0  0  0  0
  1  2  1  0
  1  5  1  0
  2  3  1  0
  3  4  1  0
  5  4  1  0
  5  6  1  6
  6  7  2  0
  8  6  1  0
  9 10  1  0
  9  8  1  0
 10 18  1  0
 11 10  2  0
 13 12  1  0
 13 14  2  0
 15 13  1  0
 16 15  1  0
 17 16  1  1
 17 19  1  0
 18 17  1  0
 19 20  2  0
 19 21  1  0
M  END
$$$$
