PGQ.pdb
     RDKit          3D

 21 21  0  0  1  0  0  0  0  0999 V2000
   27.0864  -21.0942  -11.5973 N   0  0  0  0  0  0  0  0  0  0  0  0
   28.1072  -20.8796  -10.5799 C   0  0  0  0  0  0  0  0  0  0  0  0
   29.3704  -20.8485  -11.4148 C   0  0  0  0  0  0  0  0  0  0  0  0
   28.8974  -20.1623  -12.6795 C   0  0  0  0  0  0  0  0  0  0  0  0
   27.4037  -20.0827  -12.5686 C   0  0  1  0  0  0  0  0  0  0  0  0
   26.8123  -20.3709  -13.8995 C   0  0  0  0  0  0  0  0  0  0  0  0
   26.9607  -19.4935  -14.7887 O   0  0  0  0  0  0  0  0  0  0  0  0
   26.1122  -21.5443  -14.2101 N   0  0  0  0  0  0  0  0  0  0  0  0
   25.5335  -21.7150  -15.5277 C   0  0  0  0  0  0  0  0  0  0  0  0
   24.0484  -21.4674  -15.4688 C   0  0  0  0  0  0  0  0  0  0  0  0
   23.3553  -21.4696  -16.5010 O   0  0  0  0  0  0  0  0  0  0  0  0
   19.0413  -22.9332  -13.3949 N   0  0  0  0  0  0  0  0  0  0  0  0
   19.5743  -22.2577  -12.2689 C   0  0  0  0  0  0  0  0  0  0  0  0
   19.5643  -22.7807  -11.1257 O   0  0  0  0  0  0  0  0  0  0  0  0
   20.1489  -20.9131  -12.4623 C   0  0  0  0  0  0  0  0  0  0  0  0
   21.6747  -21.0091  -12.5840 C   0  0  0  0  0  0  0  0  0  0  0  0
   21.9773  -21.1256  -14.0643 C   0  0  2  0  0  0  0  0  0  0  0  0
   23.4266  -21.2268  -14.2132 N   0  0  0  0  0  0  0  0  0  0  0  0
   21.4910  -19.9065  -14.7647 C   0  0  0  0  0  0  0  0  0  0  0  0
   22.2357  -18.9261  -14.8994 O   0  0  0  0  0  0  0  0  0  0  0  0
   20.1996  -19.8844  -15.2612 O   0  0  0  0  0  0  0  0  0  0  0  0
  1  2  1  0
  1  5  1  0
  2  3  1  0
  3  4  1  0
  5  4  1  0
  5  6  1  6
  6  7  2  0
  8  6  1  0
  9 10  1  0
  9  8  1  0
 10 18  1  0
 11 10  2  0
 13 12  1  0
 13 14  2  0
 15 13  1  0
 16 15  1  0
 17 16  1  1
 17 19  1  0
 18 17  1  0
 19 20  2  0
 19 21  1  0
M  END
$$$$
