PGQ.pdb
     RDKit          3D

 21 21  0  0  1  0  0  0  0  0999 V2000
   16.7655  -10.6968  -15.9444 N   0  0  0  0  0  0  0  0  0  0  0  0
   16.6944  -10.8246  -17.3941 C   0  0  0  0  0  0  0  0  0  0  0  0
   17.4717   -9.6065  -17.8478 C   0  0  0  0  0  0  0  0  0  0  0  0
   18.5518   -9.5081  -16.7905 C   0  0  0  0  0  0  0  0  0  0  0  0
   18.1711  -10.4907  -15.7230 C   0  0  1  0  0  0  0  0  0  0  0  0
   18.4524   -9.8848  -14.3972 C   0  0  0  0  0  0  0  0  0  0  0  0
   19.6477   -9.5751  -14.1565 O   0  0  0  0  0  0  0  0  0  0  0  0
   17.4764   -9.6451  -13.4207 N   0  0  0  0  0  0  0  0  0  0  0  0
   17.8200   -8.9134  -12.2179 C   0  0  0  0  0  0  0  0  0  0  0  0
   16.8763   -7.7524  -12.0396 C   0  0  0  0  0  0  0  0  0  0  0  0
   16.2391   -7.2888  -13.0013 O   0  0  0  0  0  0  0  0  0  0  0  0
   14.5408   -6.6500   -6.5038 N   0  0  0  0  0  0  0  0  0  0  0  0
   13.9916   -7.5342   -7.4655 C   0  0  0  0  0  0  0  0  0  0  0  0
   13.1562   -8.4166   -7.1427 O   0  0  0  0  0  0  0  0  0  0  0  0
   14.4216   -7.4011   -8.8701 C   0  0  0  0  0  0  0  0  0  0  0  0
   15.3638   -6.1999   -9.0167 C   0  0  0  0  0  0  0  0  0  0  0  0
   15.7316   -6.1240  -10.4849 C   0  0  2  0  0  0  0  0  0  0  0  0
   16.7097   -7.1754  -10.7511 N   0  0  0  0  0  0  0  0  0  0  0  0
   16.3393   -4.7971  -10.7734 C   0  0  0  0  0  0  0  0  0  0  0  0
   17.5668   -4.6461  -10.7076 O   0  0  0  0  0  0  0  0  0  0  0  0
   15.5160   -3.7387  -11.1148 O   0  0  0  0  0  0  0  0  0  0  0  0
  1  2  1  0
  1  5  1  0
  2  3  1  0
  3  4  1  0
  5  4  1  0
  5  6  1  1
  6  7  2  0
  8  6  1  0
  9 10  1  0
  9  8  1  0
 10 18  1  0
 11 10  2  0
 13 12  1  0
 13 14  2  0
 15 13  1  0
 16 15  1  0
 17 16  1  1
 17 19  1  0
 18 17  1  0
 19 20  2  0
 19 21  1  0
M  END
$$$$
