LCH.pdb
     RDKit          3D

 25 25  0  0  1  0  0  0  0  0999 V2000
   20.5247  -14.8182  -15.2964 C   0  0  0  0  0  0  0  0  0  0  0  0
   20.3215  -14.6656  -16.8044 C   0  0  2  0  0  0  0  0  0  0  0  0
   21.6922  -14.6388  -17.4285 C   0  0  0  0  0  0  0  0  0  0  0  0
   19.6767  -13.3166  -17.0624 C   0  0  0  0  0  0  0  0  0  0  0  0
   18.2923  -13.2325  -16.4319 C   0  0  2  0  0  0  0  0  0  0  0  0
   17.4081  -14.0240  -17.2710 N   0  0  0  0  0  0  0  0  0  0  0  0
   17.8765  -11.8114  -16.5024 C   0  0  0  0  0  0  0  0  0  0  0  0
   17.7026  -11.2801  -17.6259 O   0  0  0  0  0  0  0  0  0  0  0  0
   17.6592  -10.9999  -15.3529 N   0  0  0  0  0  0  0  0  0  0  0  0
   17.2433   -9.6316  -15.4608 C   0  0  1  0  0  0  0  0  0  0  0  0
   16.0444   -9.3827  -14.5478 C   0  0  0  0  0  0  0  0  0  0  0  0
   15.5340   -7.6463  -14.7681 S   0  0  0  0  0  0  0  0  0  0  0  0
   18.3180   -8.6772  -15.0707 C   0  0  0  0  0  0  0  0  0  0  0  0
   19.1506   -8.9369  -14.1840 O   0  0  0  0  0  0  0  0  0  0  0  0
   18.3375   -7.4508  -15.7710 N   0  0  0  0  0  0  0  0  0  0  0  0
   19.4388   -6.4634  -15.5778 C   0  0  1  0  0  0  0  0  0  0  0  0
   20.6434   -7.0980  -16.1483 C   0  0  0  0  0  0  0  0  0  0  0  0
   21.8496   -6.2946  -16.2885 C   0  0  0  0  0  0  0  0  0  0  0  0
   22.8918   -6.1067  -15.4404 C   0  0  0  0  0  0  0  0  0  0  0  0
   23.8204   -5.3077  -16.0605 N   0  0  0  0  0  0  0  0  0  0  0  0
   23.3258   -5.0314  -17.2623 C   0  0  0  0  0  0  0  0  0  0  0  0
   22.1475   -5.6125  -17.4191 N   0  0  0  0  0  0  0  0  0  0  0  0
   19.0131   -5.1976  -16.2364 C   0  0  0  0  0  0  0  0  0  0  0  0
   17.7869   -5.1907  -16.9202 O   0  0  0  0  0  0  0  0  0  0  0  0
   19.6673   -4.1508  -16.2198 O   0  0  0  0  0  0  0  0  0  0  0  0
  2  1  1  1
  2  3  1  0
  2  4  1  0
  5  4  1  0
  5  6  1  6
  5  7  1  0
  7  8  2  0
  9  7  1  0
  9 10  1  0
 10 13  1  0
 10 11  1  1
 12 11  1  0
 13 15  1  0
 13 14  2  0
 15 16  1  0
 16 23  1  0
 17 18  1  0
 16 17  1  6
 18 22  1  0
 18 19  2  0
 19 20  1  0
 21 20  1  0
 22 21  2  0
 23 25  2  0
 23 24  1  0
M  END
$$$$
