LCH.pdb
     RDKit          3D

 25 25  0  0  1  0  0  0  0  0999 V2000
   18.9013  -16.0916    1.3914 C   0  0  0  0  0  0  0  0  0  0  0  0
   18.5296  -17.3935    2.1023 C   0  0  2  0  0  0  0  0  0  0  0  0
   19.5648  -18.4153    1.7103 C   0  0  0  0  0  0  0  0  0  0  0  0
   17.1940  -17.8663    1.5593 C   0  0  0  0  0  0  0  0  0  0  0  0
   16.6962  -19.0990    2.3036 C   0  0  2  0  0  0  0  0  0  0  0  0
   15.4600  -19.5018    1.6541 N   0  0  0  0  0  0  0  0  0  0  0  0
   16.3925  -18.6677    3.6889 C   0  0  0  0  0  0  0  0  0  0  0  0
   15.3964  -17.9332    3.8963 O   0  0  0  0  0  0  0  0  0  0  0  0
   17.1763  -19.0431    4.8167 N   0  0  0  0  0  0  0  0  0  0  0  0
   16.8747  -18.5727    6.1376 C   0  0  1  0  0  0  0  0  0  0  0  0
   17.5329  -19.4828    7.1727 C   0  0  0  0  0  0  0  0  0  0  0  0
   17.0027  -21.1915    6.8218 S   0  0  0  0  0  0  0  0  0  0  0  0
   17.3642  -17.1862    6.3740 C   0  0  0  0  0  0  0  0  0  0  0  0
   18.0423  -16.5665    5.5353 O   0  0  0  0  0  0  0  0  0  0  0  0
   17.0116  -16.6109    7.6148 N   0  0  0  0  0  0  0  0  0  0  0  0
   17.3290  -15.1878    7.9294 C   0  0  1  0  0  0  0  0  0  0  0  0
   16.6237  -14.3900    6.9068 C   0  0  0  0  0  0  0  0  0  0  0  0
   17.4172  -13.6664    5.9235 C   0  0  0  0  0  0  0  0  0  0  0  0
   18.7548  -13.6608    5.6959 C   0  0  0  0  0  0  0  0  0  0  0  0
   19.0089  -12.8625    4.6081 N   0  0  0  0  0  0  0  0  0  0  0  0
   17.8292  -12.4058    4.2019 C   0  0  0  0  0  0  0  0  0  0  0  0
   16.8635  -12.8750    4.9752 N   0  0  0  0  0  0  0  0  0  0  0  0
   16.9011  -14.9436    9.3345 C   0  0  0  0  0  0  0  0  0  0  0  0
   16.1462  -15.9387    9.9757 O   0  0  0  0  0  0  0  0  0  0  0  0
   17.1679  -13.9228    9.9755 O   0  0  0  0  0  0  0  0  0  0  0  0
  2  1  1  6
  2  3  1  0
  2  4  1  0
  5  4  1  0
  5  6  1  6
  5  7  1  0
  7  8  2  0
  9  7  1  0
  9 10  1  0
 10 13  1  0
 10 11  1  1
 12 11  1  0
 13 15  1  0
 13 14  2  0
 15 16  1  0
 16 23  1  0
 17 18  1  0
 16 17  1  6
 18 22  1  0
 18 19  2  0
 19 20  1  0
 21 20  1  0
 22 21  2  0
 23 25  2  0
 23 24  1  0
M  END
$$$$
