LCH.pdb
     RDKit          3D

 25 25  0  0  1  0  0  0  0  0999 V2000
   21.1732  -14.1829  -21.5179 C   0  0  0  0  0  0  0  0  0  0  0  0
   21.6215  -14.7535  -20.1719 C   0  0  2  0  0  0  0  0  0  0  0  0
   20.6693  -15.8705  -19.8329 C   0  0  0  0  0  0  0  0  0  0  0  0
   21.4519  -13.6745  -19.1186 C   0  0  0  0  0  0  0  0  0  0  0  0
   22.3587  -12.4816  -19.3939 C   0  0  2  0  0  0  0  0  0  0  0  0
   23.7146  -13.0007  -19.4600 N   0  0  0  0  0  0  0  0  0  0  0  0
   22.2461  -11.5803  -18.2224 C   0  0  0  0  0  0  0  0  0  0  0  0
   21.1086  -11.3063  -17.7687 O   0  0  0  0  0  0  0  0  0  0  0  0
   23.3697  -10.9974  -17.5705 N   0  0  0  0  0  0  0  0  0  0  0  0
   23.2184  -10.0799  -16.4786 C   0  0  1  0  0  0  0  0  0  0  0  0
   24.5425   -9.9464  -15.7290 C   0  0  0  0  0  0  0  0  0  0  0  0
   24.9187  -11.5659  -14.9806 S   0  0  0  0  0  0  0  0  0  0  0  0
   22.8117   -8.7200  -16.9295 C   0  0  0  0  0  0  0  0  0  0  0  0
   23.1116   -8.2719  -18.0504 O   0  0  0  0  0  0  0  0  0  0  0  0
   22.0603   -7.9626  -16.0040 N   0  0  0  0  0  0  0  0  0  0  0  0
   21.4289   -6.6678  -16.3910 C   0  0  1  0  0  0  0  0  0  0  0  0
   20.4894   -6.9963  -17.4814 C   0  0  0  0  0  0  0  0  0  0  0  0
   19.6166   -5.9450  -17.9844 C   0  0  0  0  0  0  0  0  0  0  0  0
   19.5889   -4.6147  -17.7191 C   0  0  0  0  0  0  0  0  0  0  0  0
   18.6173   -4.0347  -18.4969 N   0  0  0  0  0  0  0  0  0  0  0  0
   18.0817   -5.0178  -19.2123 C   0  0  0  0  0  0  0  0  0  0  0  0
   18.6654   -6.1691  -18.9211 N   0  0  0  0  0  0  0  0  0  0  0  0
   20.8064   -6.0996  -15.1635 C   0  0  0  0  0  0  0  0  0  0  0  0
   20.6047   -6.9566  -14.0699 O   0  0  0  0  0  0  0  0  0  0  0  0
   20.4565   -4.9219  -15.0423 O   0  0  0  0  0  0  0  0  0  0  0  0
  2  1  1  6
  2  3  1  0
  2  4  1  0
  5  4  1  0
  5  6  1  1
  5  7  1  0
  7  8  2  0
  9  7  1  0
  9 10  1  0
 10 13  1  0
 10 11  1  6
 12 11  1  0
 13 15  1  0
 13 14  2  0
 15 16  1  0
 16 23  1  0
 17 18  1  0
 16 17  1  6
 18 22  1  0
 18 19  2  0
 19 20  1  0
 21 20  1  0
 22 21  2  0
 23 25  2  0
 23 24  1  0
M  END
$$$$
