LCH.pdb
     RDKit          3D

 25 25  0  0  1  0  0  0  0  0999 V2000
   25.2980  -15.7368  -17.1680 C   0  0  0  0  0  0  0  0  0  0  0  0
   26.4312  -15.0278  -16.4252 C   0  0  2  0  0  0  0  0  0  0  0  0
   26.8893  -15.9612  -15.3352 C   0  0  0  0  0  0  0  0  0  0  0  0
   25.8597  -13.7915  -15.7562 C   0  0  0  0  0  0  0  0  0  0  0  0
   25.2057  -12.8623  -16.7711 C   0  0  2  0  0  0  0  0  0  0  0  0
   26.2591  -12.4321  -17.6753 N   0  0  0  0  0  0  0  0  0  0  0  0
   24.7105  -11.6865  -16.0165 C   0  0  0  0  0  0  0  0  0  0  0  0
   23.8985  -11.8612  -15.0759 O   0  0  0  0  0  0  0  0  0  0  0  0
   25.1076  -10.3488  -16.2998 N   0  0  0  0  0  0  0  0  0  0  0  0
   24.4912   -9.2248  -15.6566 C   0  0  1  0  0  0  0  0  0  0  0  0
   25.4027   -8.0039  -15.7653 C   0  0  0  0  0  0  0  0  0  0  0  0
   25.6165   -7.6308  -17.5371 S   0  0  0  0  0  0  0  0  0  0  0  0
   23.1796   -8.8689  -16.2656 C   0  0  0  0  0  0  0  0  0  0  0  0
   22.9298   -9.0591  -17.4692 O   0  0  0  0  0  0  0  0  0  0  0  0
   22.2283   -8.2985  -15.3913 N   0  0  0  0  0  0  0  0  0  0  0  0
   20.8858   -7.8677  -15.8782 C   0  0  1  0  0  0  0  0  0  0  0  0
   19.9211   -8.7879  -15.2440 C   0  0  0  0  0  0  0  0  0  0  0  0
   19.8382  -10.1544  -15.7396 C   0  0  0  0  0  0  0  0  0  0  0  0
   20.1249  -10.6724  -16.9605 C   0  0  0  0  0  0  0  0  0  0  0  0
   19.9469  -12.0329  -16.9099 N   0  0  0  0  0  0  0  0  0  0  0  0
   19.5604  -12.3087  -15.6690 C   0  0  0  0  0  0  0  0  0  0  0  0
   19.4892  -11.1987  -14.9523 N   0  0  0  0  0  0  0  0  0  0  0  0
   20.7285   -6.4318  -15.5167 C   0  0  0  0  0  0  0  0  0  0  0  0
   19.5499   -5.7785  -15.9106 O   0  0  0  0  0  0  0  0  0  0  0  0
   21.5666   -5.7763  -14.8906 O   0  0  0  0  0  0  0  0  0  0  0  0
  2  1  1  1
  2  3  1  0
  2  4  1  0
  5  4  1  0
  5  6  1  6
  5  7  1  0
  7  8  2  0
  9  7  1  0
  9 10  1  0
 10 13  1  0
 10 11  1  6
 12 11  1  0
 13 15  1  0
 13 14  2  0
 15 16  1  0
 16 23  1  0
 17 18  1  0
 16 17  1  1
 18 22  1  0
 18 19  2  0
 19 20  1  0
 21 20  1  0
 22 21  2  0
 23 25  2  0
 23 24  1  0
M  END
$$$$
