LCH.pdb
     RDKit          3D

 25 25  0  0  1  0  0  0  0  0999 V2000
   18.4582  -27.9027  -12.0484 C   0  0  0  0  0  0  0  0  0  0  0  0
   19.7941  -27.1634  -11.9624 C   0  0  2  0  0  0  0  0  0  0  0  0
   20.8713  -28.1727  -12.2627 C   0  0  0  0  0  0  0  0  0  0  0  0
   19.9893  -26.7008  -10.5305 C   0  0  0  0  0  0  0  0  0  0  0  0
   18.9292  -25.6844  -10.1252 C   0  0  2  0  0  0  0  0  0  0  0  0
   19.2394  -24.4575  -10.8397 N   0  0  0  0  0  0  0  0  0  0  0  0
   19.0969  -25.4492   -8.6713 C   0  0  0  0  0  0  0  0  0  0  0  0
   20.1067  -24.8245   -8.2654 O   0  0  0  0  0  0  0  0  0  0  0  0
   18.1655  -25.8969   -7.6918 N   0  0  0  0  0  0  0  0  0  0  0  0
   18.3862  -25.6928   -6.2895 C   0  0  1  0  0  0  0  0  0  0  0  0
   17.9247  -24.2920   -5.8926 C   0  0  0  0  0  0  0  0  0  0  0  0
   16.2677  -24.0335   -6.6080 S   0  0  0  0  0  0  0  0  0  0  0  0
   17.6440  -26.6719   -5.4477 C   0  0  0  0  0  0  0  0  0  0  0  0
   16.4614  -26.9840   -5.6741 O   0  0  0  0  0  0  0  0  0  0  0  0
   18.3656  -27.2298   -4.3694 N   0  0  0  0  0  0  0  0  0  0  0  0
   17.7021  -28.1072   -3.3620 C   0  0  1  0  0  0  0  0  0  0  0  0
   18.6940  -29.1494   -3.0309 C   0  0  0  0  0  0  0  0  0  0  0  0
   18.3407  -30.1509   -2.0348 C   0  0  0  0  0  0  0  0  0  0  0  0
   17.1289  -30.6040   -1.6259 C   0  0  0  0  0  0  0  0  0  0  0  0
   17.3248  -31.6042   -0.7059 N   0  0  0  0  0  0  0  0  0  0  0  0
   18.6408  -31.7359   -0.5786 C   0  0  0  0  0  0  0  0  0  0  0  0
   19.2671  -30.8759   -1.3652 N   0  0  0  0  0  0  0  0  0  0  0  0
   17.2898  -27.2367   -2.2265 C   0  0  0  0  0  0  0  0  0  0  0  0
   16.2695  -27.6978   -1.3795 O   0  0  0  0  0  0  0  0  0  0  0  0
   17.7877  -26.1345   -1.9786 O   0  0  0  0  0  0  0  0  0  0  0  0
  2  1  1  1
  2  3  1  0
  2  4  1  0
  5  4  1  0
  5  6  1  6
  5  7  1  0
  7  8  2  0
  9  7  1  0
  9 10  1  0
 10 13  1  0
 10 11  1  1
 12 11  1  0
 13 15  1  0
 13 14  2  0
 15 16  1  0
 16 23  1  0
 17 18  1  0
 16 17  1  1
 18 22  1  0
 18 19  2  0
 19 20  1  0
 21 20  1  0
 22 21  2  0
 23 25  2  0
 23 24  1  0
M  END
$$$$
