LCH.pdb
     RDKit          3D

 25 25  0  0  1  0  0  0  0  0999 V2000
   23.4151  -30.5540  -15.5785 C   0  0  0  0  0  0  0  0  0  0  0  0
   22.3610  -31.5921  -15.1914 C   0  0  2  0  0  0  0  0  0  0  0  0
   21.2298  -30.8421  -14.5379 C   0  0  0  0  0  0  0  0  0  0  0  0
   22.9624  -32.5121  -14.1454 C   0  0  0  0  0  0  0  0  0  0  0  0
   24.1622  -33.2720  -14.6971 C   0  0  2  0  0  0  0  0  0  0  0  0
   23.6447  -34.1877  -15.7000 N   0  0  0  0  0  0  0  0  0  0  0  0
   24.7234  -34.0583  -13.5728 C   0  0  0  0  0  0  0  0  0  0  0  0
   24.0426  -34.9887  -13.0772 O   0  0  0  0  0  0  0  0  0  0  0  0
   26.0099  -33.8171  -13.0124 N   0  0  0  0  0  0  0  0  0  0  0  0
   26.5237  -34.6065  -11.9308 C   0  0  1  0  0  0  0  0  0  0  0  0
   27.9921  -34.9400  -12.1870 C   0  0  0  0  0  0  0  0  0  0  0  0
   28.0771  -35.9078  -13.7298 S   0  0  0  0  0  0  0  0  0  0  0  0
   26.4389  -33.9024  -10.6213 C   0  0  0  0  0  0  0  0  0  0  0  0
   26.1221  -32.7031  -10.5285 O   0  0  0  0  0  0  0  0  0  0  0  0
   26.7411  -34.6805   -9.4820 N   0  0  0  0  0  0  0  0  0  0  0  0
   26.5905  -34.1308   -8.1036 C   0  0  1  0  0  0  0  0  0  0  0  0
   25.2125  -33.6052   -8.0359 C   0  0  0  0  0  0  0  0  0  0  0  0
   24.6549  -33.2890   -6.7286 C   0  0  0  0  0  0  0  0  0  0  0  0
   25.2207  -33.3118   -5.4956 C   0  0  0  0  0  0  0  0  0  0  0  0
   24.2976  -32.8628   -4.5836 N   0  0  0  0  0  0  0  0  0  0  0  0
   23.2011  -32.5785   -5.2778 C   0  0  0  0  0  0  0  0  0  0  0  0
   23.3937  -32.8261   -6.5633 N   0  0  0  0  0  0  0  0  0  0  0  0
   26.8977  -35.2365   -7.1548 C   0  0  0  0  0  0  0  0  0  0  0  0
   27.5965  -34.9204   -5.9788 O   0  0  0  0  0  0  0  0  0  0  0  0
   26.5767  -36.4152   -7.3328 O   0  0  0  0  0  0  0  0  0  0  0  0
  2  1  1  1
  2  3  1  0
  2  4  1  0
  5  4  1  0
  5  6  1  6
  5  7  1  0
  7  8  2  0
  9  7  1  0
  9 10  1  0
 10 13  1  0
 10 11  1  6
 12 11  1  0
 13 15  1  0
 13 14  2  0
 15 16  1  0
 16 23  1  0
 17 18  1  0
 16 17  1  1
 18 22  1  0
 18 19  2  0
 19 20  1  0
 21 20  1  0
 22 21  2  0
 23 25  2  0
 23 24  1  0
M  END
$$$$
