LCH.pdb
     RDKit          3D

 25 25  0  0  1  0  0  0  0  0999 V2000
   29.1267  -11.4442  -16.2246 C   0  0  0  0  0  0  0  0  0  0  0  0
   28.5678  -11.6545  -17.6324 C   0  0  2  0  0  0  0  0  0  0  0  0
   29.2375  -10.6411  -18.5233 C   0  0  0  0  0  0  0  0  0  0  0  0
   27.0855  -11.3310  -17.6079 C   0  0  0  0  0  0  0  0  0  0  0  0
   26.3318  -12.2492  -16.6541 C   0  0  2  0  0  0  0  0  0  0  0  0
   26.5422  -13.6048  -17.1340 N   0  0  0  0  0  0  0  0  0  0  0  0
   24.8942  -11.9118  -16.7832 C   0  0  0  0  0  0  0  0  0  0  0  0
   24.1914  -12.5371  -17.6137 O   0  0  0  0  0  0  0  0  0  0  0  0
   24.2525  -10.9040  -16.0086 N   0  0  0  0  0  0  0  0  0  0  0  0
   22.8577  -10.6068  -16.1607 C   0  0  1  0  0  0  0  0  0  0  0  0
   22.0240  -11.8219  -15.7590 C   0  0  0  0  0  0  0  0  0  0  0  0
   20.2737  -11.4179  -16.0712 S   0  0  0  0  0  0  0  0  0  0  0  0
   22.4247   -9.4588  -15.3166 C   0  0  0  0  0  0  0  0  0  0  0  0
   22.9888   -9.1677  -14.2469 O   0  0  0  0  0  0  0  0  0  0  0  0
   21.3283   -8.7138  -15.8043 N   0  0  0  0  0  0  0  0  0  0  0  0
   20.9707   -7.3873  -15.2235 C   0  0  1  0  0  0  0  0  0  0  0  0
   22.1969   -6.5706  -15.3183 C   0  0  0  0  0  0  0  0  0  0  0  0
   22.1127   -5.1537  -14.9937 C   0  0  0  0  0  0  0  0  0  0  0  0
   21.6340   -4.5250  -13.8908 C   0  0  0  0  0  0  0  0  0  0  0  0
   21.8376   -3.1748  -14.0353 N   0  0  0  0  0  0  0  0  0  0  0  0
   22.4318   -3.0152  -15.2128 C   0  0  0  0  0  0  0  0  0  0  0  0
   22.6059   -4.1868  -15.8025 N   0  0  0  0  0  0  0  0  0  0  0  0
   19.8024   -6.8736  -15.9906 C   0  0  0  0  0  0  0  0  0  0  0  0
   18.9469   -5.9598  -15.3548 O   0  0  0  0  0  0  0  0  0  0  0  0
   19.5362   -7.1970  -17.1519 O   0  0  0  0  0  0  0  0  0  0  0  0
  2  1  1  1
  2  3  1  0
  2  4  1  0
  5  4  1  0
  5  6  1  6
  5  7  1  0
  7  8  2  0
  9  7  1  0
  9 10  1  0
 10 13  1  0
 10 11  1  1
 12 11  1  0
 13 15  1  0
 13 14  2  0
 15 16  1  0
 16 23  1  0
 17 18  1  0
 16 17  1  6
 18 22  1  0
 18 19  2  0
 19 20  1  0
 21 20  1  0
 22 21  2  0
 23 25  2  0
 23 24  1  0
M  END
$$$$
