LCH.pdb
     RDKit          3D

 25 25  0  0  1  0  0  0  0  0999 V2000
   25.6193  -19.8888   -7.0695 C   0  0  0  0  0  0  0  0  0  0  0  0
   26.9120  -20.3891   -7.7156 C   0  0  2  0  0  0  0  0  0  0  0  0
   28.0508  -19.8092   -6.9181 C   0  0  0  0  0  0  0  0  0  0  0  0
   26.9965  -19.8125   -9.1166 C   0  0  0  0  0  0  0  0  0  0  0  0
   25.8328  -20.2804   -9.9814 C   0  0  2  0  0  0  0  0  0  0  0  0
   25.7833  -21.7277   -9.8585 N   0  0  0  0  0  0  0  0  0  0  0  0
   26.1723  -19.9286  -11.3808 C   0  0  0  0  0  0  0  0  0  0  0  0
   26.7909  -18.8611  -11.6102 O   0  0  0  0  0  0  0  0  0  0  0  0
   25.8331  -20.7427  -12.4985 N   0  0  0  0  0  0  0  0  0  0  0  0
   26.1875  -20.3735  -13.8383 C   0  0  1  0  0  0  0  0  0  0  0  0
   27.7075  -20.3006  -13.9690 C   0  0  0  0  0  0  0  0  0  0  0  0
   28.4111  -21.6769  -13.0020 S   0  0  0  0  0  0  0  0  0  0  0  0
   25.6903  -21.3485  -14.8483 C   0  0  0  0  0  0  0  0  0  0  0  0
   26.0783  -22.5298  -14.8819 O   0  0  0  0  0  0  0  0  0  0  0  0
   24.7456  -20.8510  -15.7728 N   0  0  0  0  0  0  0  0  0  0  0  0
   23.3168  -21.2773  -15.7289 C   0  0  1  0  0  0  0  0  0  0  0  0
   22.8450  -20.9398  -14.3713 C   0  0  0  0  0  0  0  0  0  0  0  0
   21.4424  -21.1618  -14.0500 C   0  0  0  0  0  0  0  0  0  0  0  0
   20.4370  -21.6908  -14.7918 C   0  0  0  0  0  0  0  0  0  0  0  0
   19.3057  -21.7479  -14.0159 N   0  0  0  0  0  0  0  0  0  0  0  0
   19.6468  -21.2572  -12.8293 C   0  0  0  0  0  0  0  0  0  0  0  0
   20.9211  -20.9009  -12.8283 N   0  0  0  0  0  0  0  0  0  0  0  0
   22.6158  -20.5756  -16.8396 C   0  0  0  0  0  0  0  0  0  0  0  0
   22.9536  -19.2361  -17.0898 O   0  0  0  0  0  0  0  0  0  0  0  0
   21.7565  -21.0951  -17.5579 O   0  0  0  0  0  0  0  0  0  0  0  0
  2  1  1  1
  2  3  1  0
  2  4  1  0
  5  4  1  0
  5  6  1  6
  5  7  1  0
  7  8  2  0
  9  7  1  0
  9 10  1  0
 10 13  1  0
 10 11  1  1
 12 11  1  0
 13 15  1  0
 13 14  2  0
 15 16  1  0
 16 23  1  0
 17 18  1  0
 16 17  1  1
 18 22  1  0
 18 19  2  0
 19 20  1  0
 21 20  1  0
 22 21  2  0
 23 25  2  0
 23 24  1  0
M  END
$$$$
