LCH.pdb
     RDKit          3D

 25 25  0  0  1  0  0  0  0  0999 V2000
   28.2374  -18.5364  -17.8192 C   0  0  0  0  0  0  0  0  0  0  0  0
   28.9070  -19.7878  -17.2496 C   0  0  2  0  0  0  0  0  0  0  0  0
   29.3316  -20.6286  -18.4251 C   0  0  0  0  0  0  0  0  0  0  0  0
   27.8638  -20.5753  -16.4789 C   0  0  0  0  0  0  0  0  0  0  0  0
   27.2774  -19.7532  -15.3381 C   0  0  2  0  0  0  0  0  0  0  0  0
   28.3795  -19.4467  -14.4415 N   0  0  0  0  0  0  0  0  0  0  0  0
   26.3132  -20.6298  -14.6317 C   0  0  0  0  0  0  0  0  0  0  0  0
   25.4217  -21.2159  -15.2926 O   0  0  0  0  0  0  0  0  0  0  0  0
   26.3383  -20.8503  -13.2253 N   0  0  0  0  0  0  0  0  0  0  0  0
   25.2018  -21.3689  -12.5208 C   0  0  1  0  0  0  0  0  0  0  0  0
   25.5400  -21.5257  -11.0395 C   0  0  0  0  0  0  0  0  0  0  0  0
   25.9191  -19.8682  -10.3816 S   0  0  0  0  0  0  0  0  0  0  0  0
   24.0126  -20.4783  -12.6241 C   0  0  0  0  0  0  0  0  0  0  0  0
   24.1124  -19.2482  -12.7790 O   0  0  0  0  0  0  0  0  0  0  0  0
   22.7554  -21.1157  -12.5354 N   0  0  0  0  0  0  0  0  0  0  0  0
   21.5531  -20.5612  -13.2225 C   0  0  1  0  0  0  0  0  0  0  0  0
   21.9169  -20.4790  -14.6509 C   0  0  0  0  0  0  0  0  0  0  0  0
   21.6431  -19.2403  -15.3656 C   0  0  0  0  0  0  0  0  0  0  0  0
   20.4820  -18.5633  -15.5514 C   0  0  0  0  0  0  0  0  0  0  0  0
   20.7558  -17.4092  -16.2431 N   0  0  0  0  0  0  0  0  0  0  0  0
   22.0667  -17.4105  -16.4590 C   0  0  0  0  0  0  0  0  0  0  0  0
   22.6167  -18.4971  -15.9419 N   0  0  0  0  0  0  0  0  0  0  0  0
   20.4122  -21.4644  -12.9067 C   0  0  0  0  0  0  0  0  0  0  0  0
   20.6701  -22.8408  -12.8051 O   0  0  0  0  0  0  0  0  0  0  0  0
   19.2522  -21.0827  -12.7262 O   0  0  0  0  0  0  0  0  0  0  0  0
  2  1  1  6
  2  3  1  0
  2  4  1  0
  5  4  1  0
  5  6  1  1
  5  7  1  0
  7  8  2  0
  9  7  1  0
  9 10  1  0
 10 13  1  0
 10 11  1  1
 12 11  1  0
 13 15  1  0
 13 14  2  0
 15 16  1  0
 16 23  1  0
 17 18  1  0
 16 17  1  6
 18 22  1  0
 18 19  2  0
 19 20  1  0
 21 20  1  0
 22 21  2  0
 23 25  2  0
 23 24  1  0
M  END
$$$$
