CEY.pdb
     RDKit          3D

 28 28  0  0  1  0  0  0  0  0999 V2000
    6.3803  -15.8532   20.1714 N   0  0  0  0  0  0  0  0  0  0  0  0
    7.3090  -15.1312   20.9963 C   0  0  1  0  0  0  0  0  0  0  0  0
    6.6458  -13.9577   21.6725 C   0  0  0  0  0  0  0  0  0  0  0  0
    7.9111  -13.0187   22.5787 S   0  0  0  0  0  0  0  0  0  0  0  0
    8.0132  -15.9993   21.9830 C   0  0  0  0  0  0  0  0  0  0  0  0
    7.3316  -16.8567   22.5670 O   0  0  0  0  0  0  0  0  0  0  0  0
    9.3870  -15.8221   22.2110 N   0  0  0  0  0  0  0  0  0  0  0  0
   10.1447  -16.6781   23.0876 C   0  0  1  0  0  0  0  0  0  0  0  0
   11.3360  -17.2848   22.4344 C   0  0  0  0  0  0  0  0  0  0  0  0
   12.0499  -18.2913   23.2995 C   0  0  0  0  0  0  0  0  0  0  0  0
   13.2004  -18.8156   22.5077 C   0  0  0  0  0  0  0  0  0  0  0  0
   14.2551  -18.1610   22.3322 O   0  0  0  0  0  0  0  0  0  0  0  0
   10.3627  -16.1556   24.4486 C   0  0  0  0  0  0  0  0  0  0  0  0
   11.0795  -15.1884   24.7807 O   0  0  0  0  0  0  0  0  0  0  0  0
   13.1285  -20.0855   21.9255 O   0  0  0  0  0  0  0  0  0  0  0  0
    6.5782  -11.0335   25.8702 O   0  0  0  0  0  0  0  0  0  0  0  0
    7.0399  -12.2902   26.2583 C   0  0  0  0  0  0  0  0  0  0  0  0
    8.2317  -12.4045   26.9583 C   0  0  0  0  0  0  0  0  0  0  0  0
    8.7139  -13.6234   27.3548 C   0  0  0  0  0  0  0  0  0  0  0  0
    8.0182  -14.7955   27.0659 C   0  0  0  0  0  0  0  0  0  0  0  0
    8.5813  -16.0705   27.5014 C   0  0  0  0  0  0  0  0  0  0  0  0
    9.9271  -16.4091   26.9038 C   0  0  2  0  0  0  0  0  0  0  0  0
    9.6847  -16.8170   25.5268 N   0  0  0  0  0  0  0  0  0  0  0  0
   10.5062  -17.5466   27.6417 C   0  0  0  0  0  0  0  0  0  0  0  0
   10.6069  -18.6523   27.0722 O   0  0  0  0  0  0  0  0  0  0  0  0
    6.8439  -14.6839   26.3758 C   0  0  0  0  0  0  0  0  0  0  0  0
    6.3616  -13.4562   25.9786 C   0  0  0  0  0  0  0  0  0  0  0  0
   10.9520  -17.4527   28.9550 O   0  0  0  0  0  0  0  0  0  0  0  0
  2  5  1  0
  2  1  1  1
  3  2  1  0
  3  4  1  0
  5  6  2  0
  7  5  1  0
  7  8  1  0
  8 13  1  0
  8  9  1  6
 10  9  1  0
 10 11  1  0
 11 15  1  0
 11 12  2  0
 13 14  2  0
 16 17  1  0
 17 27  2  0
 18 17  1  0
 18 19  2  0
 19 20  1  0
 20 26  2  0
 20 21  1  0
 22 21  1  1
 22 23  1  0
 22 24  1  0
 23 13  1  0
 24 25  2  0
 24 28  1  0
 27 26  1  0
M  END
$$$$
