CEY.pdb
     RDKit          3D

 28 28  0  0  1  0  0  0  0  0999 V2000
    7.3173  -15.4136   17.5409 N   0  0  0  0  0  0  0  0  0  0  0  0
    8.2382  -14.8378   18.4814 C   0  0  1  0  0  0  0  0  0  0  0  0
    7.7915  -13.4650   18.9174 C   0  0  0  0  0  0  0  0  0  0  0  0
    8.9585  -12.8436   20.1647 S   0  0  0  0  0  0  0  0  0  0  0  0
    8.5056  -15.7193   19.6537 C   0  0  0  0  0  0  0  0  0  0  0  0
    7.5306  -16.3005   20.1560 O   0  0  0  0  0  0  0  0  0  0  0  0
    9.8167  -15.8586   20.1359 N   0  0  0  0  0  0  0  0  0  0  0  0
   10.1447  -16.6965   21.2609 C   0  0  1  0  0  0  0  0  0  0  0  0
   11.1405  -17.7538   20.9381 C   0  0  0  0  0  0  0  0  0  0  0  0
   12.4956  -17.2107   20.5641 C   0  0  0  0  0  0  0  0  0  0  0  0
   13.3608  -18.3785   20.2277 C   0  0  0  0  0  0  0  0  0  0  0  0
   14.1280  -18.9145   21.0618 O   0  0  0  0  0  0  0  0  0  0  0  0
   10.3597  -15.9881   22.5356 C   0  0  0  0  0  0  0  0  0  0  0  0
   11.0614  -14.9730   22.7267 O   0  0  0  0  0  0  0  0  0  0  0  0
   13.3366  -18.9189   18.9377 O   0  0  0  0  0  0  0  0  0  0  0  0
    5.7476  -11.2141   27.9169 O   0  0  0  0  0  0  0  0  0  0  0  0
    6.3957  -12.0557   27.0143 C   0  0  0  0  0  0  0  0  0  0  0  0
    5.6546  -12.8828   26.1837 C   0  0  0  0  0  0  0  0  0  0  0  0
    6.2593  -13.7215   25.2857 C   0  0  0  0  0  0  0  0  0  0  0  0
    7.6474  -13.7711   25.1769 C   0  0  0  0  0  0  0  0  0  0  0  0
    8.2426  -14.6907   24.2113 C   0  0  0  0  0  0  0  0  0  0  0  0
    9.3018  -15.6085   24.7759 C   0  0  2  0  0  0  0  0  0  0  0  0
    9.6977  -16.5057   23.6990 N   0  0  0  0  0  0  0  0  0  0  0  0
    8.7124  -16.4061   25.8667 C   0  0  0  0  0  0  0  0  0  0  0  0
    8.8659  -16.0295   27.0464 O   0  0  0  0  0  0  0  0  0  0  0  0
    8.3786  -12.9566   25.9951 C   0  0  0  0  0  0  0  0  0  0  0  0
    7.7671  -12.1140   26.8974 C   0  0  0  0  0  0  0  0  0  0  0  0
    7.9850  -17.5706   25.6493 O   0  0  0  0  0  0  0  0  0  0  0  0
  2  5  1  0
  2  1  1  6
  3  2  1  0
  3  4  1  0
  5  6  2  0
  7  5  1  0
  7  8  1  0
  8 13  1  0
  8  9  1  6
 10  9  1  0
 10 11  1  0
 11 15  1  0
 11 12  2  0
 13 14  2  0
 16 17  1  0
 17 27  2  0
 18 17  1  0
 18 19  2  0
 19 20  1  0
 20 26  2  0
 20 21  1  0
 22 21  1  6
 22 23  1  0
 22 24  1  0
 23 13  1  0
 24 25  2  0
 24 28  1  0
 27 26  1  0
M  END
$$$$
