CEY.pdb
     RDKit          3D

 28 28  0  0  1  0  0  0  0  0999 V2000
    7.2044  -14.4530   18.7309 N   0  0  0  0  0  0  0  0  0  0  0  0
    8.2146  -14.2779   19.7373 C   0  0  1  0  0  0  0  0  0  0  0  0
    8.0589  -12.9569   20.4480 C   0  0  0  0  0  0  0  0  0  0  0  0
    8.2935  -11.6176   19.2418 S   0  0  0  0  0  0  0  0  0  0  0  0
    8.2795  -15.4104   20.7049 C   0  0  0  0  0  0  0  0  0  0  0  0
    7.2464  -16.0810   20.8581 O   0  0  0  0  0  0  0  0  0  0  0  0
    9.4760  -15.6727   21.3910 N   0  0  0  0  0  0  0  0  0  0  0  0
    9.5926  -16.7181   22.3754 C   0  0  1  0  0  0  0  0  0  0  0  0
   10.4426  -17.8551   21.9300 C   0  0  0  0  0  0  0  0  0  0  0  0
   11.0185  -17.6718   20.5494 C   0  0  0  0  0  0  0  0  0  0  0  0
   11.9573  -18.8060   20.3094 C   0  0  0  0  0  0  0  0  0  0  0  0
   12.1184  -19.7368   21.1337 O   0  0  0  0  0  0  0  0  0  0  0  0
    9.8150  -16.2616   23.7592 C   0  0  0  0  0  0  0  0  0  0  0  0
   10.1913  -15.1301   24.1303 O   0  0  0  0  0  0  0  0  0  0  0  0
   12.7014  -18.8604   19.1261 O   0  0  0  0  0  0  0  0  0  0  0  0
    6.5320  -10.9491   26.9208 O   0  0  0  0  0  0  0  0  0  0  0  0
    6.7192  -12.2558   26.4730 C   0  0  0  0  0  0  0  0  0  0  0  0
    7.7847  -13.0052   26.9490 C   0  0  0  0  0  0  0  0  0  0  0  0
    7.9975  -14.2916   26.5303 C   0  0  0  0  0  0  0  0  0  0  0  0
    7.1452  -14.8928   25.6066 C   0  0  0  0  0  0  0  0  0  0  0  0
    7.4228  -16.2628   25.1845 C   0  0  0  0  0  0  0  0  0  0  0  0
    8.6103  -16.9085   25.8598 C   0  0  2  0  0  0  0  0  0  0  0  0
    9.5780  -17.2067   24.8129 N   0  0  0  0  0  0  0  0  0  0  0  0
    8.1781  -18.1733   26.4820 C   0  0  0  0  0  0  0  0  0  0  0  0
    7.4454  -18.1348   27.4913 O   0  0  0  0  0  0  0  0  0  0  0  0
    6.0952  -14.1550   25.1367 C   0  0  0  0  0  0  0  0  0  0  0  0
    5.8838  -12.8612   25.5601 C   0  0  0  0  0  0  0  0  0  0  0  0
    8.5476  -19.4231   25.9986 O   0  0  0  0  0  0  0  0  0  0  0  0
  2  5  1  0
  2  1  1  6
  3  2  1  0
  3  4  1  0
  5  6  2  0
  7  5  1  0
  7  8  1  0
  8 13  1  0
  8  9  1  6
 10  9  1  0
 10 11  1  0
 11 15  1  0
 11 12  2  0
 13 14  2  0
 16 17  1  0
 17 27  2  0
 18 17  1  0
 18 19  2  0
 19 20  1  0
 20 26  2  0
 20 21  1  0
 22 21  1  6
 22 23  1  0
 22 24  1  0
 23 13  1  0
 24 25  2  0
 24 28  1  0
 27 26  1  0
M  END
$$$$
