CEY.pdb
     RDKit          3D

 28 28  0  0  1  0  0  0  0  0999 V2000
    6.0085  -17.0747   20.2810 N   0  0  0  0  0  0  0  0  0  0  0  0
    6.9791  -16.1568   20.8098 C   0  0  1  0  0  0  0  0  0  0  0  0
    6.4096  -15.3523   21.9512 C   0  0  0  0  0  0  0  0  0  0  0  0
    7.6608  -14.1519   22.4966 S   0  0  0  0  0  0  0  0  0  0  0  0
    8.2590  -16.8165   21.1964 C   0  0  0  0  0  0  0  0  0  0  0  0
    8.1846  -17.9699   21.6489 O   0  0  0  0  0  0  0  0  0  0  0  0
    9.4727  -16.1286   21.0387 N   0  0  0  0  0  0  0  0  0  0  0  0
   10.7477  -16.7239   21.3476 C   0  0  1  0  0  0  0  0  0  0  0  0
   11.7542  -16.5567   20.2647 C   0  0  0  0  0  0  0  0  0  0  0  0
   13.0462  -17.2874   20.5253 C   0  0  0  0  0  0  0  0  0  0  0  0
   13.9868  -16.9253   19.4255 C   0  0  0  0  0  0  0  0  0  0  0  0
   13.9131  -17.4280   18.2794 O   0  0  0  0  0  0  0  0  0  0  0  0
   11.2409  -16.4875   22.7164 C   0  0  0  0  0  0  0  0  0  0  0  0
   12.3336  -16.8516   23.1991 O   0  0  0  0  0  0  0  0  0  0  0  0
   15.0022  -15.9902   19.6523 O   0  0  0  0  0  0  0  0  0  0  0  0
   10.2101  -15.2289   31.4054 O   0  0  0  0  0  0  0  0  0  0  0  0
   10.0388  -15.2313   30.0220 C   0  0  0  0  0  0  0  0  0  0  0  0
    9.7719  -16.4198   29.3591 C   0  0  0  0  0  0  0  0  0  0  0  0
    9.5981  -16.4576   28.0012 C   0  0  0  0  0  0  0  0  0  0  0  0
    9.6844  -15.2958   27.2371 C   0  0  0  0  0  0  0  0  0  0  0  0
    9.5022  -15.3922   25.7915 C   0  0  0  0  0  0  0  0  0  0  0  0
   10.7776  -15.5621   24.9992 C   0  0  2  0  0  0  0  0  0  0  0  0
   10.3862  -15.7594   23.6102 N   0  0  0  0  0  0  0  0  0  0  0  0
   11.4777  -16.7703   25.4720 C   0  0  0  0  0  0  0  0  0  0  0  0
   12.5323  -16.6445   26.1270 O   0  0  0  0  0  0  0  0  0  0  0  0
    9.9478  -14.1241   27.8893 C   0  0  0  0  0  0  0  0  0  0  0  0
   10.1219  -14.0896   29.2555 C   0  0  0  0  0  0  0  0  0  0  0  0
   11.0204  -18.0595   25.2244 O   0  0  0  0  0  0  0  0  0  0  0  0
  2  5  1  0
  2  1  1  1
  3  2  1  0
  3  4  1  0
  5  6  2  0
  7  5  1  0
  7  8  1  0
  8 13  1  0
  8  9  1  6
 10  9  1  0
 10 11  1  0
 11 15  1  0
 11 12  2  0
 13 14  2  0
 16 17  1  0
 17 27  2  0
 18 17  1  0
 18 19  2  0
 19 20  1  0
 20 26  2  0
 20 21  1  0
 22 21  1  1
 22 23  1  0
 22 24  1  0
 23 13  1  0
 24 25  2  0
 24 28  1  0
 27 26  1  0
M  END
$$$$
