HIE.pdb
     RDKit          3D

 28 28  0  0  1  0  0  0  0  0999 V2000
   21.2421  -14.2743  -17.5281 N   0  0  0  0  0  0  0  0  0  0  0  0
   21.4621  -13.0367  -18.1962 C   0  0  1  0  0  0  0  0  0  0  0  0
   20.2820  -12.6406  -19.0030 C   0  0  0  0  0  0  0  0  0  0  0  0
   20.0705  -13.6812  -20.0415 C   0  0  0  0  0  0  0  0  0  0  0  0
   19.1239  -14.6831  -20.1016 C   0  0  0  0  0  0  0  0  0  0  0  0
   19.3149  -15.3966  -21.2374 N   0  0  0  0  0  0  0  0  0  0  0  0
   20.3579  -14.8509  -21.8710 C   0  0  0  0  0  0  0  0  0  0  0  0
   20.8127  -13.8223  -21.1561 N   0  0  0  0  0  0  0  0  0  0  0  0
   21.8413  -11.9928  -17.1589 C   0  0  0  0  0  0  0  0  0  0  0  0
   21.0688  -11.8129  -16.1980 O   0  0  0  0  0  0  0  0  0  0  0  0
   26.9364  -11.7215  -15.4467 C   0  0  0  0  0  0  0  0  0  0  0  0
   25.4679  -11.6025  -15.6464 C   0  0  0  0  0  0  0  0  0  0  0  0
   24.9661  -10.2914  -16.1363 C   0  0  2  0  0  0  0  0  0  0  0  0
   25.2455   -9.1643  -15.1381 C   0  0  0  0  0  0  0  0  0  0  0  0
   23.5197  -10.2078  -16.4606 C   0  0  2  0  0  0  0  0  0  0  0  0
   23.0179  -11.2524  -17.2685 N   0  0  0  0  0  0  0  0  0  0  0  0
   22.9794   -8.8559  -16.6835 C   0  0  0  0  0  0  0  0  0  0  0  0
   23.2704   -8.2406  -17.7320 O   0  0  0  0  0  0  0  0  0  0  0  0
   22.1417   -8.1907  -15.7860 N   0  0  0  0  0  0  0  0  0  0  0  0
   21.5817   -6.8426  -16.0490 C   0  0  1  0  0  0  0  0  0  0  0  0
   20.1250   -6.9275  -15.7284 C   0  0  0  0  0  0  0  0  0  0  0  0
   19.4293   -5.6223  -15.9605 C   0  0  0  0  0  0  0  0  0  0  0  0
   17.9781   -5.6321  -15.7065 C   0  0  0  0  0  0  0  0  0  0  0  0
   17.3025   -6.6818  -15.6247 O   0  0  0  0  0  0  0  0  0  0  0  0
   22.3258   -5.8304  -15.2840 C   0  0  0  0  0  0  0  0  0  0  0  0
   22.3839   -4.6564  -15.7222 O   0  0  0  0  0  0  0  0  0  0  0  0
   17.2721   -4.4208  -15.5408 O   0  0  0  0  0  0  0  0  0  0  0  0
   22.9671   -6.1096  -14.0977 O   0  0  0  0  0  0  0  0  0  0  0  0
  2  1  1  1
  3  2  1  0
  4  5  2  0
  4  3  1  0
  6  5  1  0
  7  8  2  0
  7  6  1  0
  8  4  1  0
  9  2  1  0
 10  9  2  0
 12 11  1  0
 13 15  1  0
 13 12  1  0
 13 14  1  1
 15 16  1  6
 16  9  1  0
 17 15  1  0
 18 17  2  0
 19 17  1  0
 20 25  1  0
 20 19  1  0
 20 21  1  1
 22 21  1  0
 23 27  1  0
 23 22  1  0
 24 23  2  0
 25 28  1  0
 26 25  2  0
M  END
$$$$
