HIE.pdb
     RDKit          3D

 28 28  0  0  1  0  0  0  0  0999 V2000
   17.7323  -11.3227  -18.4240 N   0  0  0  0  0  0  0  0  0  0  0  0
   18.7156  -10.3181  -18.6484 C   0  0  1  0  0  0  0  0  0  0  0  0
   18.2249   -9.2821  -19.5899 C   0  0  0  0  0  0  0  0  0  0  0  0
   18.0480   -9.9217  -20.9188 C   0  0  0  0  0  0  0  0  0  0  0  0
   16.8938  -10.3524  -21.5400 C   0  0  0  0  0  0  0  0  0  0  0  0
   17.2170  -10.8748  -22.7477 N   0  0  0  0  0  0  0  0  0  0  0  0
   18.5437  -10.7717  -22.8757 C   0  0  0  0  0  0  0  0  0  0  0  0
   19.0442  -10.2006  -21.7805 N   0  0  0  0  0  0  0  0  0  0  0  0
   19.1275   -9.7418  -17.3039 C   0  0  0  0  0  0  0  0  0  0  0  0
   18.2314   -9.4777  -16.4795 O   0  0  0  0  0  0  0  0  0  0  0  0
   23.2607  -10.4954  -12.9882 C   0  0  0  0  0  0  0  0  0  0  0  0
   22.4886   -9.5012  -13.7795 C   0  0  0  0  0  0  0  0  0  0  0  0
   21.8786   -9.9863  -15.0457 C   0  0  2  0  0  0  0  0  0  0  0  0
   22.9340  -10.5114  -16.0231 C   0  0  0  0  0  0  0  0  0  0  0  0
   21.0567   -9.0128  -15.8080 C   0  0  2  0  0  0  0  0  0  0  0  0
   20.4667   -9.5120  -16.9906 N   0  0  0  0  0  0  0  0  0  0  0  0
   21.5422   -7.6225  -15.8244 C   0  0  0  0  0  0  0  0  0  0  0  0
   22.5812   -7.3396  -16.4593 O   0  0  0  0  0  0  0  0  0  0  0  0
   20.9106   -6.5656  -15.1656 N   0  0  0  0  0  0  0  0  0  0  0  0
   21.3665   -5.1581  -15.2716 C   0  0  1  0  0  0  0  0  0  0  0  0
   20.1551   -4.3533  -15.6136 C   0  0  0  0  0  0  0  0  0  0  0  0
   19.1789   -4.3115  -14.4793 C   0  0  0  0  0  0  0  0  0  0  0  0
   18.0154   -3.4317  -14.6863 C   0  0  0  0  0  0  0  0  0  0  0  0
   17.8074   -2.3985  -14.0126 O   0  0  0  0  0  0  0  0  0  0  0  0
   22.0477   -4.7548  -14.0320 C   0  0  0  0  0  0  0  0  0  0  0  0
   22.7764   -3.7337  -14.0416 O   0  0  0  0  0  0  0  0  0  0  0  0
   17.0610   -3.7296  -15.6831 O   0  0  0  0  0  0  0  0  0  0  0  0
   21.9231   -5.4484  -12.8488 O   0  0  0  0  0  0  0  0  0  0  0  0
  2  1  1  1
  3  2  1  0
  4  5  2  0
  4  3  1  0
  6  5  1  0
  7  8  2  0
  7  6  1  0
  8  4  1  0
  9  2  1  0
 10  9  2  0
 12 11  1  0
 13 15  1  0
 13 12  1  0
 13 14  1  6
 15 16  1  6
 16  9  1  0
 17 15  1  0
 18 17  2  0
 19 17  1  0
 20 25  1  0
 20 19  1  0
 20 21  1  1
 22 21  1  0
 23 27  1  0
 23 22  1  0
 24 23  2  0
 25 28  1  0
 26 25  2  0
M  END
$$$$
