HIE.pdb
     RDKit          3D

 28 28  0  0  1  0  0  0  0  0999 V2000
   25.4452  -20.4585  -16.8929 N   0  0  0  0  0  0  0  0  0  0  0  0
   24.7216  -19.5960  -16.0217 C   0  0  1  0  0  0  0  0  0  0  0  0
   23.7613  -18.7508  -16.7727 C   0  0  0  0  0  0  0  0  0  0  0  0
   24.5404  -17.8877  -17.6969 C   0  0  0  0  0  0  0  0  0  0  0  0
   24.7181  -17.9962  -19.0608 C   0  0  0  0  0  0  0  0  0  0  0  0
   25.5111  -16.9807  -19.4799 N   0  0  0  0  0  0  0  0  0  0  0  0
   25.8206  -16.2555  -18.4003 C   0  0  0  0  0  0  0  0  0  0  0  0
   25.2399  -16.7971  -17.3301 N   0  0  0  0  0  0  0  0  0  0  0  0
   24.0481  -20.4456  -14.9568 C   0  0  0  0  0  0  0  0  0  0  0  0
   23.3851  -21.4335  -15.3271 O   0  0  0  0  0  0  0  0  0  0  0  0
   26.4205  -20.6604  -10.0149 C   0  0  0  0  0  0  0  0  0  0  0  0
   25.5685  -21.0951  -11.1533 C   0  0  0  0  0  0  0  0  0  0  0  0
   24.1810  -20.5621  -11.1887 C   0  0  2  0  0  0  0  0  0  0  0  0
   23.2806  -21.2453  -10.1555 C   0  0  0  0  0  0  0  0  0  0  0  0
   23.4636  -20.6503  -12.4855 C   0  0  2  0  0  0  0  0  0  0  0  0
   24.1626  -20.1386  -13.6015 N   0  0  0  0  0  0  0  0  0  0  0  0
   22.0069  -20.4383  -12.4397 C   0  0  0  0  0  0  0  0  0  0  0  0
   21.5571  -19.2941  -12.2136 O   0  0  0  0  0  0  0  0  0  0  0  0
   21.0629  -21.4484  -12.6361 N   0  0  0  0  0  0  0  0  0  0  0  0
   19.6000  -21.2136  -12.5653 C   0  0  1  0  0  0  0  0  0  0  0  0
   19.0319  -21.7405  -13.8426 C   0  0  0  0  0  0  0  0  0  0  0  0
   19.4582  -20.9192  -15.0194 C   0  0  0  0  0  0  0  0  0  0  0  0
   18.9945  -21.4119  -16.3282 C   0  0  0  0  0  0  0  0  0  0  0  0
   18.8454  -22.6258  -16.5913 O   0  0  0  0  0  0  0  0  0  0  0  0
   19.0506  -21.8242  -11.3452 C   0  0  0  0  0  0  0  0  0  0  0  0
   17.8858  -21.5272  -10.9864 O   0  0  0  0  0  0  0  0  0  0  0  0
   18.6912  -20.5060  -17.3678 O   0  0  0  0  0  0  0  0  0  0  0  0
   19.7578  -22.7160  -10.5698 O   0  0  0  0  0  0  0  0  0  0  0  0
  2  1  1  6
  3  2  1  0
  4  5  2  0
  4  3  1  0
  6  5  1  0
  7  8  2  0
  7  6  1  0
  8  4  1  0
  9  2  1  0
 10  9  2  0
 12 11  1  0
 13 15  1  0
 13 12  1  0
 13 14  1  1
 15 16  1  6
 16  9  1  0
 17 15  1  0
 18 17  2  0
 19 17  1  0
 20 25  1  0
 20 19  1  0
 20 21  1  6
 22 21  1  0
 23 27  1  0
 23 22  1  0
 24 23  2  0
 25 28  1  0
 26 25  2  0
M  END
$$$$
