HIE.pdb
     RDKit          3D

 28 28  0  0  1  0  0  0  0  0999 V2000
   28.0762  -21.3413  -16.0306 N   0  0  0  0  0  0  0  0  0  0  0  0
   27.2736  -20.2719  -15.5424 C   0  0  1  0  0  0  0  0  0  0  0  0
   26.7162  -19.4631  -16.6540 C   0  0  0  0  0  0  0  0  0  0  0  0
   27.8395  -18.7284  -17.2902 C   0  0  0  0  0  0  0  0  0  0  0  0
   28.8865  -18.0463  -16.7054 C   0  0  0  0  0  0  0  0  0  0  0  0
   29.6715  -17.5309  -17.6821 N   0  0  0  0  0  0  0  0  0  0  0  0
   29.1251  -17.8844  -18.8499 C   0  0  0  0  0  0  0  0  0  0  0  0
   28.0267  -18.6024  -18.6176 N   0  0  0  0  0  0  0  0  0  0  0  0
   26.1963  -20.8534  -14.6420 C   0  0  0  0  0  0  0  0  0  0  0  0
   25.6847  -21.9421  -14.9670 O   0  0  0  0  0  0  0  0  0  0  0  0
   26.8856  -20.6521   -9.2947 C   0  0  0  0  0  0  0  0  0  0  0  0
   26.4234  -20.9874  -10.6675 C   0  0  0  0  0  0  0  0  0  0  0  0
   25.1586  -20.3495  -11.1191 C   0  0  2  0  0  0  0  0  0  0  0  0
   23.9559  -20.8219  -10.2972 C   0  0  0  0  0  0  0  0  0  0  0  0
   24.7859  -20.5383  -12.5438 C   0  0  2  0  0  0  0  0  0  0  0  0
   25.7851  -20.1971  -13.4824 N   0  0  0  0  0  0  0  0  0  0  0  0
   23.3887  -20.2351  -12.8972 C   0  0  0  0  0  0  0  0  0  0  0  0
   23.0029  -19.0463  -12.9219 O   0  0  0  0  0  0  0  0  0  0  0  0
   22.4349  -21.2037  -13.2166 N   0  0  0  0  0  0  0  0  0  0  0  0
   21.0318  -20.8731  -13.5665 C   0  0  1  0  0  0  0  0  0  0  0  0
   20.5541  -21.9750  -14.4552 C   0  0  0  0  0  0  0  0  0  0  0  0
   19.1245  -21.7835  -14.8560 C   0  0  0  0  0  0  0  0  0  0  0  0
   18.8279  -22.0639  -16.2717 C   0  0  0  0  0  0  0  0  0  0  0  0
   19.6788  -22.5007  -17.0780 O   0  0  0  0  0  0  0  0  0  0  0  0
   20.2402  -20.6782  -12.3423 C   0  0  0  0  0  0  0  0  0  0  0  0
   20.5111  -21.3620  -11.3261 O   0  0  0  0  0  0  0  0  0  0  0  0
   17.5329  -21.8439  -16.7891 O   0  0  0  0  0  0  0  0  0  0  0  0
   19.2068  -19.7721  -12.2545 O   0  0  0  0  0  0  0  0  0  0  0  0
  2  1  1  6
  3  2  1  0
  4  5  2  0
  4  3  1  0
  6  5  1  0
  7  8  2  0
  7  6  1  0
  8  4  1  0
  9  2  1  0
 10  9  2  0
 12 11  1  0
 13 15  1  0
 13 12  1  0
 13 14  1  1
 15 16  1  6
 16  9  1  0
 17 15  1  0
 18 17  2  0
 19 17  1  0
 20 25  1  0
 20 19  1  0
 20 21  1  1
 22 21  1  0
 23 27  1  0
 23 22  1  0
 24 23  2  0
 25 28  1  0
 26 25  2  0
M  END
$$$$
