HIE.pdb
     RDKit          3D

 28 28  0  0  1  0  0  0  0  0999 V2000
   24.2806  -15.6462  -17.8174 N   0  0  0  0  0  0  0  0  0  0  0  0
   23.7494  -14.4254  -18.3212 C   0  0  1  0  0  0  0  0  0  0  0  0
   22.3796  -14.6130  -18.8589 C   0  0  0  0  0  0  0  0  0  0  0  0
   22.4738  -15.5028  -20.0445 C   0  0  0  0  0  0  0  0  0  0  0  0
   23.0721  -15.2772  -21.2672 C   0  0  0  0  0  0  0  0  0  0  0  0
   22.9068  -16.3755  -22.0432 N   0  0  0  0  0  0  0  0  0  0  0  0
   22.2205  -17.2657  -21.3195 C   0  0  0  0  0  0  0  0  0  0  0  0
   21.9597  -16.7449  -20.1209 N   0  0  0  0  0  0  0  0  0  0  0  0
   23.8086  -13.3844  -17.2157 C   0  0  0  0  0  0  0  0  0  0  0  0
   23.2913  -13.6650  -16.1174 O   0  0  0  0  0  0  0  0  0  0  0  0
   28.2767   -9.9860  -16.6149 C   0  0  0  0  0  0  0  0  0  0  0  0
   26.8803  -10.2088  -17.0741 C   0  0  0  0  0  0  0  0  0  0  0  0
   25.9288  -10.7572  -16.0719 C   0  0  2  0  0  0  0  0  0  0  0  0
   26.4430  -12.0581  -15.4489 C   0  0  0  0  0  0  0  0  0  0  0  0
   24.5501  -11.0413  -16.5441 C   0  0  2  0  0  0  0  0  0  0  0  0
   24.4225  -12.1480  -17.4129 N   0  0  0  0  0  0  0  0  0  0  0  0
   23.6968   -9.8697  -16.8052 C   0  0  0  0  0  0  0  0  0  0  0  0
   23.5387   -9.4713  -17.9795 O   0  0  0  0  0  0  0  0  0  0  0  0
   23.0311   -9.1497  -15.8110 N   0  0  0  0  0  0  0  0  0  0  0  0
   22.1481   -7.9942  -16.1026 C   0  0  1  0  0  0  0  0  0  0  0  0
   20.9675   -8.5467  -16.8327 C   0  0  0  0  0  0  0  0  0  0  0  0
   19.9631   -9.1397  -15.8941 C   0  0  0  0  0  0  0  0  0  0  0  0
   18.7513   -9.6809  -16.5338 C   0  0  0  0  0  0  0  0  0  0  0  0
   17.9739  -10.4800  -15.9664 O   0  0  0  0  0  0  0  0  0  0  0  0
   21.8269   -7.2793  -14.8579 C   0  0  0  0  0  0  0  0  0  0  0  0
   21.2566   -6.1640  -14.9254 O   0  0  0  0  0  0  0  0  0  0  0  0
   18.4099   -9.3076  -17.8519 O   0  0  0  0  0  0  0  0  0  0  0  0
   22.1227   -7.7790  -13.6091 O   0  0  0  0  0  0  0  0  0  0  0  0
  2  1  1  1
  3  2  1  0
  4  5  2  0
  4  3  1  0
  6  5  1  0
  7  8  2  0
  7  6  1  0
  8  4  1  0
  9  2  1  0
 10  9  2  0
 12 11  1  0
 13 15  1  0
 13 12  1  0
 13 14  1  6
 15 16  1  6
 16  9  1  0
 17 15  1  0
 18 17  2  0
 19 17  1  0
 20 25  1  0
 20 19  1  0
 20 21  1  1
 22 21  1  0
 23 27  1  0
 23 22  1  0
 24 23  2  0
 25 28  1  0
 26 25  2  0
M  END
$$$$
