HIE.pdb
     RDKit          3D

 28 28  0  0  1  0  0  0  0  0999 V2000
   23.1856  -20.4485  -14.7980 N   0  0  0  0  0  0  0  0  0  0  0  0
   22.3197  -19.9055  -13.8072 C   0  0  1  0  0  0  0  0  0  0  0  0
   20.9826  -19.5946  -14.3694 C   0  0  0  0  0  0  0  0  0  0  0  0
   21.1551  -18.5335  -15.3943 C   0  0  0  0  0  0  0  0  0  0  0  0
   21.9394  -18.5273  -16.5294 C   0  0  0  0  0  0  0  0  0  0  0  0
   21.7790  -17.3413  -17.1644 N   0  0  0  0  0  0  0  0  0  0  0  0
   20.9136  -16.6243  -16.4404 C   0  0  0  0  0  0  0  0  0  0  0  0
   20.5381  -17.3368  -15.3787 N   0  0  0  0  0  0  0  0  0  0  0  0
   22.2547  -20.8788  -12.6419 C   0  0  0  0  0  0  0  0  0  0  0  0
   22.3139  -22.0981  -12.8919 O   0  0  0  0  0  0  0  0  0  0  0  0
   24.5336  -21.3743   -7.0749 C   0  0  0  0  0  0  0  0  0  0  0  0
   23.3662  -21.6486   -7.9538 C   0  0  0  0  0  0  0  0  0  0  0  0
   23.2350  -20.8040   -9.1704 C   0  0  2  0  0  0  0  0  0  0  0  0
   23.0430  -19.3256   -8.8208 C   0  0  0  0  0  0  0  0  0  0  0  0
   22.1407  -21.1522  -10.1114 C   0  0  2  0  0  0  0  0  0  0  0  0
   22.1336  -20.4318  -11.3266 N   0  0  0  0  0  0  0  0  0  0  0  0
   20.8383  -21.4756   -9.5047 C   0  0  0  0  0  0  0  0  0  0  0  0
   20.0325  -20.5552   -9.2471 O   0  0  0  0  0  0  0  0  0  0  0  0
   20.4233  -22.7705   -9.1870 N   0  0  0  0  0  0  0  0  0  0  0  0
   19.0801  -23.0778   -8.6379 C   0  0  1  0  0  0  0  0  0  0  0  0
   18.5847  -24.2682   -9.3926 C   0  0  0  0  0  0  0  0  0  0  0  0
   17.2184  -24.6815   -8.9412 C   0  0  0  0  0  0  0  0  0  0  0  0
   16.6898  -25.8998   -9.5792 C   0  0  0  0  0  0  0  0  0  0  0  0
   17.3492  -26.5952  -10.3831 O   0  0  0  0  0  0  0  0  0  0  0  0
   19.1614  -23.2590   -7.1805 C   0  0  0  0  0  0  0  0  0  0  0  0
   18.1206  -23.1332   -6.4918 O   0  0  0  0  0  0  0  0  0  0  0  0
   15.3787  -26.3430   -9.2998 O   0  0  0  0  0  0  0  0  0  0  0  0
   20.3350  -23.5644   -6.5278 O   0  0  0  0  0  0  0  0  0  0  0  0
  2  1  1  6
  3  2  1  0
  4  5  2  0
  4  3  1  0
  6  5  1  0
  7  8  2  0
  7  6  1  0
  8  4  1  0
  9  2  1  0
 10  9  2  0
 12 11  1  0
 13 15  1  0
 13 12  1  0
 13 14  1  1
 15 16  1  6
 16  9  1  0
 17 15  1  0
 18 17  2  0
 19 17  1  0
 20 25  1  0
 20 19  1  0
 20 21  1  6
 22 21  1  0
 23 27  1  0
 23 22  1  0
 24 23  2  0
 25 28  1  0
 26 25  2  0
M  END
$$$$
