HIE.pdb
     RDKit          3D

 28 28  0  0  1  0  0  0  0  0999 V2000
   17.7915  -12.3947  -17.1417 N   0  0  0  0  0  0  0  0  0  0  0  0
   18.4279  -11.1852  -17.5395 C   0  0  1  0  0  0  0  0  0  0  0  0
   17.4749  -10.2686  -18.2118 C   0  0  0  0  0  0  0  0  0  0  0  0
   16.9891  -10.9407  -19.4441 C   0  0  0  0  0  0  0  0  0  0  0  0
   15.7118  -11.3361  -19.7841 C   0  0  0  0  0  0  0  0  0  0  0  0
   15.7447  -11.9109  -21.0106 N   0  0  0  0  0  0  0  0  0  0  0  0
   17.0150  -11.8743  -21.4253 C   0  0  0  0  0  0  0  0  0  0  0  0
   17.7631  -11.2931  -20.4880 N   0  0  0  0  0  0  0  0  0  0  0  0
   19.0788  -10.5613  -16.3162 C   0  0  0  0  0  0  0  0  0  0  0  0
   18.3868  -10.4239  -15.2892 O   0  0  0  0  0  0  0  0  0  0  0  0
   24.1897  -11.8406  -14.9794 C   0  0  0  0  0  0  0  0  0  0  0  0
   22.7825  -11.3816  -15.1201 C   0  0  0  0  0  0  0  0  0  0  0  0
   22.5643   -9.9124  -15.1862 C   0  0  2  0  0  0  0  0  0  0  0  0
   23.0953   -9.1998  -13.9391 C   0  0  0  0  0  0  0  0  0  0  0  0
   21.1639   -9.4514  -15.3613 C   0  0  2  0  0  0  0  0  0  0  0  0
   20.4117  -10.1516  -16.3307 N   0  0  0  0  0  0  0  0  0  0  0  0
   20.9355   -8.0016  -15.2400 C   0  0  0  0  0  0  0  0  0  0  0  0
   21.3801   -7.3883  -14.2456 O   0  0  0  0  0  0  0  0  0  0  0  0
   20.2400   -7.2380  -16.1797 N   0  0  0  0  0  0  0  0  0  0  0  0
   19.9851   -5.7862  -16.0137 C   0  0  1  0  0  0  0  0  0  0  0  0
   20.3172   -5.1529  -17.3256 C   0  0  0  0  0  0  0  0  0  0  0  0
   20.0492   -3.6801  -17.3137 C   0  0  0  0  0  0  0  0  0  0  0  0
   20.3119   -2.9854  -18.5862 C   0  0  0  0  0  0  0  0  0  0  0  0
   20.8519   -1.8591  -18.6549 O   0  0  0  0  0  0  0  0  0  0  0  0
   18.6060   -5.5667  -15.5521 C   0  0  0  0  0  0  0  0  0  0  0  0
   18.3106   -4.4734  -15.0126 O   0  0  0  0  0  0  0  0  0  0  0  0
   19.9534   -3.5818  -19.8147 O   0  0  0  0  0  0  0  0  0  0  0  0
   17.6121   -6.5107  -15.6854 O   0  0  0  0  0  0  0  0  0  0  0  0
  2  1  1  1
  3  2  1  0
  4  5  2  0
  4  3  1  0
  6  5  1  0
  7  8  2  0
  7  6  1  0
  8  4  1  0
  9  2  1  0
 10  9  2  0
 12 11  1  0
 13 15  1  0
 13 12  1  0
 13 14  1  1
 15 16  1  6
 16  9  1  0
 17 15  1  0
 18 17  2  0
 19 17  1  0
 20 25  1  0
 20 19  1  0
 20 21  1  6
 22 21  1  0
 23 27  1  0
 23 22  1  0
 24 23  2  0
 25 28  1  0
 26 25  2  0
M  END
$$$$
