HIE.pdb
     RDKit          3D

 28 28  0  0  1  0  0  0  0  0999 V2000
   19.2632  -12.7622  -16.9554 N   0  0  0  0  0  0  0  0  0  0  0  0
   19.7327  -11.5612  -17.5582 C   0  0  1  0  0  0  0  0  0  0  0  0
   18.6171  -10.7783  -18.1440 C   0  0  0  0  0  0  0  0  0  0  0  0
   18.0326  -11.5772  -19.2513 C   0  0  0  0  0  0  0  0  0  0  0  0
   18.5528  -11.8664  -20.4960 C   0  0  0  0  0  0  0  0  0  0  0  0
   17.6628  -12.6302  -21.1744 N   0  0  0  0  0  0  0  0  0  0  0  0
   16.6111  -12.8127  -20.3697 C   0  0  0  0  0  0  0  0  0  0  0  0
   16.8303  -12.1824  -19.2161 N   0  0  0  0  0  0  0  0  0  0  0  0
   20.5171  -10.7779  -16.5186 C   0  0  0  0  0  0  0  0  0  0  0  0
   19.9815  -10.5710  -15.4128 O   0  0  0  0  0  0  0  0  0  0  0  0
   25.6250  -11.8307  -15.3301 C   0  0  0  0  0  0  0  0  0  0  0  0
   24.2233  -11.3599  -15.4861 C   0  0  0  0  0  0  0  0  0  0  0  0
   24.0373   -9.9317  -15.8551 C   0  0  2  0  0  0  0  0  0  0  0  0
   24.6898   -8.9900  -14.8391 C   0  0  0  0  0  0  0  0  0  0  0  0
   22.6391   -9.4597  -16.0182 C   0  0  2  0  0  0  0  0  0  0  0  0
   21.8004  -10.3007  -16.7830 N   0  0  0  0  0  0  0  0  0  0  0  0
   22.4549   -8.0053  -16.1590 C   0  0  0  0  0  0  0  0  0  0  0  0
   22.7781   -7.4434  -17.2279 O   0  0  0  0  0  0  0  0  0  0  0  0
   21.9306   -7.1829  -15.1597 N   0  0  0  0  0  0  0  0  0  0  0  0
   21.7565   -5.7192  -15.3250 C   0  0  1  0  0  0  0  0  0  0  0  0
   20.2831   -5.4717  -15.3142 C   0  0  0  0  0  0  0  0  0  0  0  0
   19.7661   -5.1439  -16.6805 C   0  0  0  0  0  0  0  0  0  0  0  0
   18.3291   -4.8259  -16.7467 C   0  0  0  0  0  0  0  0  0  0  0  0
   17.8815   -3.6586  -16.7034 O   0  0  0  0  0  0  0  0  0  0  0  0
   22.5120   -5.0019  -14.2867 C   0  0  0  0  0  0  0  0  0  0  0  0
   22.8518   -5.6155  -13.2467 O   0  0  0  0  0  0  0  0  0  0  0  0
   17.3723   -5.8573  -16.8651 O   0  0  0  0  0  0  0  0  0  0  0  0
   22.8701   -3.6770  -14.4012 O   0  0  0  0  0  0  0  0  0  0  0  0
  2  1  1  1
  3  2  1  0
  4  5  2  0
  4  3  1  0
  6  5  1  0
  7  8  2  0
  7  6  1  0
  8  4  1  0
  9  2  1  0
 10  9  2  0
 12 11  1  0
 13 15  1  0
 13 12  1  0
 13 14  1  1
 15 16  1  6
 16  9  1  0
 17 15  1  0
 18 17  2  0
 19 17  1  0
 20 25  1  0
 20 19  1  0
 20 21  1  1
 22 21  1  0
 23 27  1  0
 23 22  1  0
 24 23  2  0
 25 28  1  0
 26 25  2  0
M  END
$$$$
