FIT.pdb
     RDKit          3D

 27 27  0  0  1  0  0  0  0  0999 V2000
    5.8814  -17.8191   25.4277 N   0  0  0  0  0  0  0  0  0  0  0  0
    6.2945  -16.4448   25.2324 C   0  0  1  0  0  0  0  0  0  0  0  0
    7.1074  -16.0346   26.4417 C   0  0  0  0  0  0  0  0  0  0  0  0
    7.0249  -14.5567   26.5825 C   0  0  0  0  0  0  0  0  0  0  0  0
    5.8016  -13.9153   26.6670 C   0  0  0  0  0  0  0  0  0  0  0  0
    5.6964  -12.5461   26.7979 C   0  0  0  0  0  0  0  0  0  0  0  0
    6.8260  -11.7701   26.8486 C   0  0  0  0  0  0  0  0  0  0  0  0
    8.0422  -12.3915   26.7662 C   0  0  0  0  0  0  0  0  0  0  0  0
    8.1528  -13.7642   26.6348 C   0  0  0  0  0  0  0  0  0  0  0  0
    7.0951  -16.3427   23.9951 C   0  0  0  0  0  0  0  0  0  0  0  0
    7.8884  -17.2755   23.6738 O   0  0  0  0  0  0  0  0  0  0  0  0
    8.1310  -12.6655   19.1062 C   0  0  0  0  0  0  0  0  0  0  0  0
    8.4100  -13.9714   19.8116 C   0  0  0  0  0  0  0  0  0  0  0  0
    7.6775  -13.9390   21.1409 C   0  0  2  0  0  0  0  0  0  0  0  0
    8.1769  -12.8072   22.0064 C   0  0  0  0  0  0  0  0  0  0  0  0
    7.8065  -15.2239   21.8877 C   0  0  2  0  0  0  0  0  0  0  0  0
    7.0276  -15.2269   23.1157 N   0  0  0  0  0  0  0  0  0  0  0  0
    9.2654  -15.4428   22.2116 C   0  0  0  0  0  0  0  0  0  0  0  0
    9.8307  -14.7756   23.1069 O   0  0  0  0  0  0  0  0  0  0  0  0
   12.9975  -18.6781   22.2217 C   0  0  0  0  0  0  0  0  0  0  0  0
   11.5953  -18.2768   21.9089 C   0  0  1  0  0  0  0  0  0  0  0  0
   10.7618  -18.8436   22.8760 O   0  0  0  0  0  0  0  0  0  0  0  0
   11.3751  -16.8170   21.7913 C   0  0  2  0  0  0  0  0  0  0  0  0
   10.0283  -16.4106   21.5074 N   0  0  0  0  0  0  0  0  0  0  0  0
   12.4224  -16.0899   21.0127 C   0  0  0  0  0  0  0  0  0  0  0  0
   13.4908  -15.5490   21.6866 O   0  0  0  0  0  0  0  0  0  0  0  0
   12.3775  -15.9524   19.7806 O   0  0  0  0  0  0  0  0  0  0  0  0
  2  1  1  1
  3  2  1  0
  4  9  2  0
  4  3  1  0
  5  4  1  0
  6  7  1  0
  6  5  2  0
  7  8  2  0
  8  9  1  0
 10 17  1  0
 10  2  1  0
 11 10  2  0
 13 14  1  0
 13 12  1  0
 14 15  1  1
 16 14  1  0
 16 17  1  1
 18 16  1  0
 19 18  2  0
 21 20  1  1
 21 22  1  0
 21 23  1  0
 23 24  1  6
 24 18  1  0
 25 23  1  0
 25 26  1  0
 27 25  2  0
M  END
$$$$
