FIT.pdb
     RDKit          3D

 27 27  0  0  1  0  0  0  0  0999 V2000
    4.8457  -19.4117   24.1858 N   0  0  0  0  0  0  0  0  0  0  0  0
    5.8078  -18.7844   25.0681 C   0  0  1  0  0  0  0  0  0  0  0  0
    7.0029  -19.7076   25.1733 C   0  0  0  0  0  0  0  0  0  0  0  0
    6.7299  -20.7080   26.2389 C   0  0  0  0  0  0  0  0  0  0  0  0
    6.5998  -20.3236   27.5618 C   0  0  0  0  0  0  0  0  0  0  0  0
    6.3467  -21.2305   28.5699 C   0  0  0  0  0  0  0  0  0  0  0  0
    6.2149  -22.5644   28.2794 C   0  0  0  0  0  0  0  0  0  0  0  0
    6.3412  -22.9582   26.9752 C   0  0  0  0  0  0  0  0  0  0  0  0
    6.5950  -22.0523   25.9608 C   0  0  0  0  0  0  0  0  0  0  0  0
    6.1985  -17.4710   24.5160 C   0  0  0  0  0  0  0  0  0  0  0  0
    6.3638  -17.3306   23.2688 O   0  0  0  0  0  0  0  0  0  0  0  0
    7.2233  -11.5269   25.7996 C   0  0  0  0  0  0  0  0  0  0  0  0
    7.5277  -12.7186   24.9233 C   0  0  0  0  0  0  0  0  0  0  0  0
    6.9080  -13.9392   25.5796 C   0  0  2  0  0  0  0  0  0  0  0  0
    7.4387  -14.1283   26.9803 C   0  0  0  0  0  0  0  0  0  0  0  0
    7.1432  -15.1840   24.7918 C   0  0  2  0  0  0  0  0  0  0  0  0
    6.4067  -16.3192   25.3242 N   0  0  0  0  0  0  0  0  0  0  0  0
    8.6229  -15.4862   24.8080 C   0  0  0  0  0  0  0  0  0  0  0  0
    9.0773  -16.4297   25.4934 O   0  0  0  0  0  0  0  0  0  0  0  0
    9.7111  -17.4754   23.1859 C   0  0  0  0  0  0  0  0  0  0  0  0
   10.5085  -16.3968   22.5331 C   0  0  1  0  0  0  0  0  0  0  0  0
    9.9075  -16.1025   21.3070 O   0  0  0  0  0  0  0  0  0  0  0  0
   10.6965  -15.1770   23.3517 C   0  0  2  0  0  0  0  0  0  0  0  0
    9.5317  -14.7066   24.0459 N   0  0  0  0  0  0  0  0  0  0  0  0
   11.5061  -14.1059   22.6966 C   0  0  0  0  0  0  0  0  0  0  0  0
   12.7866  -14.3987   22.2933 O   0  0  0  0  0  0  0  0  0  0  0  0
   11.0765  -12.9600   22.4940 O   0  0  0  0  0  0  0  0  0  0  0  0
  2  1  1  6
  3  2  1  0
  4  9  2  0
  4  3  1  0
  5  4  1  0
  6  7  1  0
  6  5  2  0
  7  8  2  0
  8  9  1  0
 10 17  1  0
 10  2  1  0
 11 10  2  0
 13 14  1  0
 13 12  1  0
 14 15  1  1
 16 14  1  0
 16 17  1  1
 18 16  1  0
 19 18  2  0
 21 20  1  1
 21 22  1  0
 21 23  1  0
 23 24  1  6
 24 18  1  0
 25 23  1  0
 25 26  1  0
 27 25  2  0
M  END
$$$$
