FIT.pdb
     RDKit          3D

 27 27  0  0  1  0  0  0  0  0999 V2000
    5.4724  -17.7875   25.3710 N   0  0  0  0  0  0  0  0  0  0  0  0
    6.0637  -16.4681   25.2854 C   0  0  1  0  0  0  0  0  0  0  0  0
    6.6393  -16.1350   26.6452 C   0  0  0  0  0  0  0  0  0  0  0  0
    6.9683  -14.6853   26.6725 C   0  0  0  0  0  0  0  0  0  0  0  0
    5.9699  -13.7274   26.6913 C   0  0  0  0  0  0  0  0  0  0  0  0
    6.2470  -12.3763   26.7167 C   0  0  0  0  0  0  0  0  0  0  0  0
    7.5471  -11.9398   26.7241 C   0  0  0  0  0  0  0  0  0  0  0  0
    8.5443  -12.8764   26.7058 C   0  0  0  0  0  0  0  0  0  0  0  0
    8.2713  -14.2324   26.6803 C   0  0  0  0  0  0  0  0  0  0  0  0
    7.1160  -16.4668   24.2485 C   0  0  0  0  0  0  0  0  0  0  0  0
    7.8122  -17.5052   24.0496 O   0  0  0  0  0  0  0  0  0  0  0  0
    7.1509  -12.7367   20.0616 C   0  0  0  0  0  0  0  0  0  0  0  0
    7.0608  -13.9980   20.8874 C   0  0  0  0  0  0  0  0  0  0  0  0
    8.4272  -14.2404   21.5029 C   0  0  2  0  0  0  0  0  0  0  0  0
    9.4766  -14.4279   20.4339 C   0  0  0  0  0  0  0  0  0  0  0  0
    8.4345  -15.4225   22.4128 C   0  0  2  0  0  0  0  0  0  0  0  0
    7.4040  -15.3361   23.4351 N   0  0  0  0  0  0  0  0  0  0  0  0
    9.7926  -15.5120   23.0675 C   0  0  0  0  0  0  0  0  0  0  0  0
   10.2138  -14.5885   23.7997 O   0  0  0  0  0  0  0  0  0  0  0  0
   11.3272  -18.2185   25.3896 C   0  0  0  0  0  0  0  0  0  0  0  0
   12.1529  -18.0958   24.1533 C   0  0  1  0  0  0  0  0  0  0  0  0
   11.9160  -19.2253   23.3663 O   0  0  0  0  0  0  0  0  0  0  0  0
   11.9453  -16.8465   23.3855 C   0  0  2  0  0  0  0  0  0  0  0  0
   10.6222  -16.6461   22.8670 N   0  0  0  0  0  0  0  0  0  0  0  0
   13.0454  -16.5115   22.4319 C   0  0  0  0  0  0  0  0  0  0  0  0
   14.2845  -16.1978   22.9361 O   0  0  0  0  0  0  0  0  0  0  0  0
   12.8963  -16.5059   21.2004 O   0  0  0  0  0  0  0  0  0  0  0  0
  2  1  1  1
  3  2  1  0
  4  9  2  0
  4  3  1  0
  5  4  1  0
  6  7  1  0
  6  5  2  0
  7  8  2  0
  8  9  1  0
 10 17  1  0
 10  2  1  0
 11 10  2  0
 13 14  1  0
 13 12  1  0
 14 15  1  6
 16 14  1  0
 16 17  1  1
 18 16  1  0
 19 18  2  0
 21 20  1  1
 21 22  1  0
 21 23  1  0
 23 24  1  6
 24 18  1  0
 25 23  1  0
 25 26  1  0
 27 25  2  0
M  END
$$$$
