FIT.pdb
     RDKit          3D

 27 27  0  0  1  0  0  0  0  0999 V2000
    5.6698  -17.8910   25.3032 N   0  0  0  0  0  0  0  0  0  0  0  0
    6.1972  -16.5422   25.3037 C   0  0  1  0  0  0  0  0  0  0  0  0
    6.7501  -16.2670   26.6857 C   0  0  0  0  0  0  0  0  0  0  0  0
    6.9872  -14.8047   26.8130 C   0  0  0  0  0  0  0  0  0  0  0  0
    8.2679  -14.2991   26.9509 C   0  0  0  0  0  0  0  0  0  0  0  0
    8.5162  -12.9474   27.0710 C   0  0  0  0  0  0  0  0  0  0  0  0
    7.4773  -12.0522   27.0563 C   0  0  0  0  0  0  0  0  0  0  0  0
    6.2057  -12.5387   26.9205 C   0  0  0  0  0  0  0  0  0  0  0  0
    5.9518  -13.8933   26.7998 C   0  0  0  0  0  0  0  0  0  0  0  0
    7.2528  -16.4262   24.2767 C   0  0  0  0  0  0  0  0  0  0  0  0
    8.0699  -17.3761   24.0966 O   0  0  0  0  0  0  0  0  0  0  0  0
    6.9128  -12.7831   20.0164 C   0  0  0  0  0  0  0  0  0  0  0  0
    6.9741  -14.0488   20.8382 C   0  0  0  0  0  0  0  0  0  0  0  0
    8.3275  -14.0833   21.5249 C   0  0  2  0  0  0  0  0  0  0  0  0
    9.4471  -14.1168   20.5127 C   0  0  0  0  0  0  0  0  0  0  0  0
    8.4626  -15.2479   22.4473 C   0  0  2  0  0  0  0  0  0  0  0  0
    7.4125  -15.2779   23.4528 N   0  0  0  0  0  0  0  0  0  0  0  0
    9.8107  -15.1668   23.1235 C   0  0  0  0  0  0  0  0  0  0  0  0
    9.9323  -14.6343   24.2496 O   0  0  0  0  0  0  0  0  0  0  0  0
   11.2321  -18.2715   24.1143 C   0  0  0  0  0  0  0  0  0  0  0  0
   11.9575  -16.9899   24.3522 C   0  0  1  0  0  0  0  0  0  0  0  0
   13.1691  -17.2933   24.9776 O   0  0  0  0  0  0  0  0  0  0  0  0
   12.1637  -16.1561   23.1457 C   0  0  2  0  0  0  0  0  0  0  0  0
   10.9704  -15.6928   22.4967 N   0  0  0  0  0  0  0  0  0  0  0  0
   13.2239  -16.6538   22.2184 C   0  0  0  0  0  0  0  0  0  0  0  0
   14.5386  -16.5608   22.6068 O   0  0  0  0  0  0  0  0  0  0  0  0
   12.9751  -17.1532   21.1104 O   0  0  0  0  0  0  0  0  0  0  0  0
  2  1  1  1
  3  2  1  0
  4  9  2  0
  4  3  1  0
  5  4  1  0
  6  7  1  0
  6  5  2  0
  7  8  2  0
  8  9  1  0
 10 17  1  0
 10  2  1  0
 11 10  2  0
 13 14  1  0
 13 12  1  0
 14 15  1  6
 16 14  1  0
 16 17  1  1
 18 16  1  0
 19 18  2  0
 21 20  1  6
 21 22  1  0
 21 23  1  0
 23 24  1  6
 24 18  1  0
 25 23  1  0
 25 26  1  0
 27 25  2  0
M  END
$$$$
