FIT.pdb
     RDKit          3D

 27 27  0  0  1  0  0  0  0  0999 V2000
    5.7101  -17.4149   25.8193 N   0  0  0  0  0  0  0  0  0  0  0  0
    6.3139  -16.2313   25.2430 C   0  0  1  0  0  0  0  0  0  0  0  0
    7.3469  -15.7199   26.2243 C   0  0  0  0  0  0  0  0  0  0  0  0
    7.1468  -14.2566   26.3953 C   0  0  0  0  0  0  0  0  0  0  0  0
    5.9027  -13.6801   26.2090 C   0  0  0  0  0  0  0  0  0  0  0  0
    5.6892  -12.3258   26.3611 C   0  0  0  0  0  0  0  0  0  0  0  0
    6.7273  -11.4995   26.7083 C   0  0  0  0  0  0  0  0  0  0  0  0
    7.9628  -12.0564   26.8956 C   0  0  0  0  0  0  0  0  0  0  0  0
    8.1818  -13.4141   26.7442 C   0  0  0  0  0  0  0  0  0  0  0  0
    6.9365  -16.5770   23.9487 C   0  0  0  0  0  0  0  0  0  0  0  0
    6.2670  -17.1894   23.0659 O   0  0  0  0  0  0  0  0  0  0  0  0
    7.3500  -13.0479   20.0605 C   0  0  0  0  0  0  0  0  0  0  0  0
    8.1794  -14.2652   20.3937 C   0  0  0  0  0  0  0  0  0  0  0  0
    7.9211  -14.6104   21.8492 C   0  0  2  0  0  0  0  0  0  0  0  0
    8.3351  -13.4765   22.7560 C   0  0  0  0  0  0  0  0  0  0  0  0
    8.6255  -15.8572   22.2670 C   0  0  2  0  0  0  0  0  0  0  0  0
    8.2830  -16.2544   23.6233 N   0  0  0  0  0  0  0  0  0  0  0  0
   10.1138  -15.6201   22.1681 C   0  0  0  0  0  0  0  0  0  0  0  0
   10.6989  -14.8688   22.9803 O   0  0  0  0  0  0  0  0  0  0  0  0
   11.3193  -17.6243   23.7181 C   0  0  0  0  0  0  0  0  0  0  0  0
   11.7605  -18.1815   22.4066 C   0  0  1  0  0  0  0  0  0  0  0  0
   10.8401  -19.1610   22.0260 O   0  0  0  0  0  0  0  0  0  0  0  0
   11.9575  -17.1772   21.3361 C   0  0  2  0  0  0  0  0  0  0  0  0
   10.8827  -16.2442   21.1514 N   0  0  0  0  0  0  0  0  0  0  0  0
   12.5346  -17.7212   20.0701 C   0  0  0  0  0  0  0  0  0  0  0  0
   13.7738  -18.3135   20.1096 O   0  0  0  0  0  0  0  0  0  0  0  0
   11.9460  -17.6681   18.9794 O   0  0  0  0  0  0  0  0  0  0  0  0
  2  1  1  1
  3  2  1  0
  4  9  2  0
  4  3  1  0
  5  4  1  0
  6  7  1  0
  6  5  2  0
  7  8  2  0
  8  9  1  0
 10 17  1  0
 10  2  1  0
 11 10  2  0
 13 14  1  0
 13 12  1  0
 14 15  1  1
 16 14  1  0
 16 17  1  1
 18 16  1  0
 19 18  2  0
 21 20  1  1
 21 22  1  0
 21 23  1  0
 23 24  1  6
 24 18  1  0
 25 23  1  0
 25 26  1  0
 27 25  2  0
M  END
$$$$
