FIT.pdb
     RDKit          3D

 27 27  0  0  1  0  0  0  0  0999 V2000
    5.6258  -17.8226   25.1293 N   0  0  0  0  0  0  0  0  0  0  0  0
    6.0989  -16.4567   25.0391 C   0  0  1  0  0  0  0  0  0  0  0  0
    6.5685  -16.0426   26.4173 C   0  0  0  0  0  0  0  0  0  0  0  0
    6.6669  -14.5595   26.4529 C   0  0  0  0  0  0  0  0  0  0  0  0
    5.5391  -13.7666   26.3342 C   0  0  0  0  0  0  0  0  0  0  0  0
    5.6019  -12.3889   26.3638 C   0  0  0  0  0  0  0  0  0  0  0  0
    6.8100  -11.7575   26.5150 C   0  0  0  0  0  0  0  0  0  0  0  0
    7.9333  -12.5295   26.6336 C   0  0  0  0  0  0  0  0  0  0  0  0
    7.8753  -13.9115   26.6044 C   0  0  0  0  0  0  0  0  0  0  0  0
    7.2007  -16.3813   24.0579 C   0  0  0  0  0  0  0  0  0  0  0  0
    7.9794  -17.3670   23.9011 O   0  0  0  0  0  0  0  0  0  0  0  0
    7.1049  -12.6179   19.9283 C   0  0  0  0  0  0  0  0  0  0  0  0
    7.0843  -13.9115   20.7073 C   0  0  0  0  0  0  0  0  0  0  0  0
    8.4519  -14.0845   21.3431 C   0  0  2  0  0  0  0  0  0  0  0  0
    9.5249  -14.2209   20.2899 C   0  0  0  0  0  0  0  0  0  0  0  0
    8.5048  -15.2636   22.2555 C   0  0  2  0  0  0  0  0  0  0  0  0
    7.4481  -15.2344   23.2540 N   0  0  0  0  0  0  0  0  0  0  0  0
    9.8506  -15.2761   22.9410 C   0  0  0  0  0  0  0  0  0  0  0  0
   10.0127  -14.7113   24.0460 O   0  0  0  0  0  0  0  0  0  0  0  0
   10.8442  -16.6815   25.1927 C   0  0  0  0  0  0  0  0  0  0  0  0
   11.7810  -17.3150   24.2199 C   0  0  1  0  0  0  0  0  0  0  0  0
   11.2509  -18.5566   23.8613 O   0  0  0  0  0  0  0  0  0  0  0  0
   12.0925  -16.4935   23.0276 C   0  0  2  0  0  0  0  0  0  0  0  0
   10.9621  -15.9289   22.3470 N   0  0  0  0  0  0  0  0  0  0  0  0
   13.1361  -17.0714   22.1284 C   0  0  0  0  0  0  0  0  0  0  0  0
   14.4392  -17.1033   22.5631 O   0  0  0  0  0  0  0  0  0  0  0  0
   12.8832  -17.5301   21.0039 O   0  0  0  0  0  0  0  0  0  0  0  0
  2  1  1  1
  3  2  1  0
  4  9  2  0
  4  3  1  0
  5  4  1  0
  6  7  1  0
  6  5  2  0
  7  8  2  0
  8  9  1  0
 10 17  1  0
 10  2  1  0
 11 10  2  0
 13 14  1  0
 13 12  1  0
 14 15  1  6
 16 14  1  0
 16 17  1  1
 18 16  1  0
 19 18  2  0
 21 20  1  1
 21 22  1  0
 21 23  1  0
 23 24  1  6
 24 18  1  0
 25 23  1  0
 25 26  1  0
 27 25  2  0
M  END
$$$$
