FIT.pdb
     RDKit          3D

 27 27  0  0  1  0  0  0  0  0999 V2000
    5.7003  -18.0228   25.2616 N   0  0  0  0  0  0  0  0  0  0  0  0
    6.1570  -16.6522   25.1584 C   0  0  1  0  0  0  0  0  0  0  0  0
    6.6293  -16.2222   26.5307 C   0  0  0  0  0  0  0  0  0  0  0  0
    6.7305  -14.7389   26.5480 C   0  0  0  0  0  0  0  0  0  0  0  0
    5.6160  -13.9453   26.3409 C   0  0  0  0  0  0  0  0  0  0  0  0
    5.6818  -12.5674   26.3515 C   0  0  0  0  0  0  0  0  0  0  0  0
    6.8793  -11.9366   26.5725 C   0  0  0  0  0  0  0  0  0  0  0  0
    7.9893  -12.7093   26.7788 C   0  0  0  0  0  0  0  0  0  0  0  0
    7.9284  -14.0914   26.7690 C   0  0  0  0  0  0  0  0  0  0  0  0
    7.2524  -16.5716   24.1705 C   0  0  0  0  0  0  0  0  0  0  0  0
    7.9808  -17.5826   23.9468 O   0  0  0  0  0  0  0  0  0  0  0  0
    7.2359  -12.4468   20.4293 C   0  0  0  0  0  0  0  0  0  0  0  0
    7.1654  -13.8425   21.0019 C   0  0  0  0  0  0  0  0  0  0  0  0
    8.5388  -14.1806   21.5534 C   0  0  2  0  0  0  0  0  0  0  0  0
    9.5514  -14.3110   20.4412 C   0  0  0  0  0  0  0  0  0  0  0  0
    8.5295  -15.4351   22.3604 C   0  0  2  0  0  0  0  0  0  0  0  0
    7.5481  -15.3922   23.4327 N   0  0  0  0  0  0  0  0  0  0  0  0
    9.9084  -15.6381   22.9423 C   0  0  0  0  0  0  0  0  0  0  0  0
   10.4329  -14.7645   23.6689 O   0  0  0  0  0  0  0  0  0  0  0  0
   11.4600  -18.9769   24.6672 C   0  0  0  0  0  0  0  0  0  0  0  0
   12.2530  -18.5084   23.4938 C   0  0  1  0  0  0  0  0  0  0  0  0
   12.0341  -19.4036   22.4440 O   0  0  0  0  0  0  0  0  0  0  0  0
   11.9885  -17.1114   23.0792 C   0  0  2  0  0  0  0  0  0  0  0  0
   10.6407  -16.8249   22.6779 N   0  0  0  0  0  0  0  0  0  0  0  0
   13.0400  -16.5118   22.2037 C   0  0  0  0  0  0  0  0  0  0  0  0
   14.2955  -16.3077   22.7235 O   0  0  0  0  0  0  0  0  0  0  0  0
   12.8363  -16.1906   21.0229 O   0  0  0  0  0  0  0  0  0  0  0  0
  2  1  1  1
  3  2  1  0
  4  9  2  0
  4  3  1  0
  5  4  1  0
  6  7  1  0
  6  5  2  0
  7  8  2  0
  8  9  1  0
 10 17  1  0
 10  2  1  0
 11 10  2  0
 13 14  1  0
 13 12  1  0
 14 15  1  6
 16 14  1  0
 16 17  1  1
 18 16  1  0
 19 18  2  0
 21 20  1  1
 21 22  1  0
 21 23  1  0
 23 24  1  6
 24 18  1  0
 25 23  1  0
 25 26  1  0
 27 25  2  0
M  END
$$$$
