FIT.pdb
     RDKit          3D

 27 27  0  0  1  0  0  0  0  0999 V2000
    5.9514  -17.5275   25.9298 N   0  0  0  0  0  0  0  0  0  0  0  0
    6.2711  -16.2112   25.4173 C   0  0  1  0  0  0  0  0  0  0  0  0
    7.5105  -15.7272   26.1390 C   0  0  0  0  0  0  0  0  0  0  0  0
    7.3350  -14.2852   26.4563 C   0  0  0  0  0  0  0  0  0  0  0  0
    8.3550  -13.5538   27.0391 C   0  0  0  0  0  0  0  0  0  0  0  0
    8.2189  -12.2153   27.3439 C   0  0  0  0  0  0  0  0  0  0  0  0
    7.0440  -11.5626   27.0710 C   0  0  0  0  0  0  0  0  0  0  0  0
    6.0273  -12.2740   26.4949 C   0  0  0  0  0  0  0  0  0  0  0  0
    6.1590  -13.6164   26.1873 C   0  0  0  0  0  0  0  0  0  0  0  0
    6.5028  -16.2932   23.9606 C   0  0  0  0  0  0  0  0  0  0  0  0
    5.5208  -16.3131   23.1619 O   0  0  0  0  0  0  0  0  0  0  0  0
    7.2230  -12.6106   20.3017 C   0  0  0  0  0  0  0  0  0  0  0  0
    7.7298  -14.0310   20.3824 C   0  0  0  0  0  0  0  0  0  0  0  0
    7.6386  -14.4675   21.8335 C   0  0  2  0  0  0  0  0  0  0  0  0
    8.5186  -13.6115   22.7123 C   0  0  0  0  0  0  0  0  0  0  0  0
    8.0070  -15.9015   22.0156 C   0  0  2  0  0  0  0  0  0  0  0  0
    7.8010  -16.3531   23.3825 N   0  0  0  0  0  0  0  0  0  0  0  0
    9.4594  -16.0724   21.6381 C   0  0  0  0  0  0  0  0  0  0  0  0
    9.8770  -15.7108   20.5151 O   0  0  0  0  0  0  0  0  0  0  0  0
   12.3979  -15.6759   24.5617 C   0  0  0  0  0  0  0  0  0  0  0  0
   12.5985  -16.8216   23.6277 C   0  0  1  0  0  0  0  0  0  0  0  0
   12.3439  -17.9995   24.3341 O   0  0  0  0  0  0  0  0  0  0  0  0
   11.8046  -16.7556   22.3792 C   0  0  2  0  0  0  0  0  0  0  0  0
   10.3836  -16.6473   22.5491 N   0  0  0  0  0  0  0  0  0  0  0  0
   12.2337  -17.7143   21.3169 C   0  0  0  0  0  0  0  0  0  0  0  0
   11.2932  -18.5457   20.7578 O   0  0  0  0  0  0  0  0  0  0  0  0
   13.4024  -17.7953   20.9091 O   0  0  0  0  0  0  0  0  0  0  0  0
  2  1  1  1
  3  2  1  0
  4  9  2  0
  4  3  1  0
  5  4  1  0
  6  7  1  0
  6  5  2  0
  7  8  2  0
  8  9  1  0
 10 17  1  0
 10  2  1  0
 11 10  2  0
 13 14  1  0
 13 12  1  0
 14 15  1  1
 16 14  1  0
 16 17  1  1
 18 16  1  0
 19 18  2  0
 21 20  1  1
 21 22  1  0
 21 23  1  0
 23 24  1  1
 24 18  1  0
 25 23  1  0
 25 26  1  0
 27 25  2  0
M  END
$$$$
