FIT.pdb
     RDKit          3D

 27 27  0  0  1  0  0  0  0  0999 V2000
    5.6830  -17.8565   25.2410 N   0  0  0  0  0  0  0  0  0  0  0  0
    6.1796  -16.4992   25.1481 C   0  0  1  0  0  0  0  0  0  0  0  0
    6.6889  -16.1029   26.5174 C   0  0  0  0  0  0  0  0  0  0  0  0
    6.8351  -14.6237   26.5530 C   0  0  0  0  0  0  0  0  0  0  0  0
    8.0837  -14.0319   26.6273 C   0  0  0  0  0  0  0  0  0  0  0  0
    8.2480  -12.6627   26.6619 C   0  0  0  0  0  0  0  0  0  0  0  0
    7.1541  -11.8365   26.6225 C   0  0  0  0  0  0  0  0  0  0  0  0
    5.9134  -12.4085   26.5489 C   0  0  0  0  0  0  0  0  0  0  0  0
    5.7437  -13.7811   26.5141 C   0  0  0  0  0  0  0  0  0  0  0  0
    7.2596  -16.4382   24.1419 C   0  0  0  0  0  0  0  0  0  0  0  0
    8.0070  -17.4420   23.9515 O   0  0  0  0  0  0  0  0  0  0  0  0
    6.9965  -12.9143   19.8668 C   0  0  0  0  0  0  0  0  0  0  0  0
    7.0506  -14.1449   20.7407 C   0  0  0  0  0  0  0  0  0  0  0  0
    8.4374  -14.2090   21.3550 C   0  0  2  0  0  0  0  0  0  0  0  0
    9.4949  -14.3637   20.2887 C   0  0  0  0  0  0  0  0  0  0  0  0
    8.5667  -15.3205   22.3415 C   0  0  2  0  0  0  0  0  0  0  0  0
    7.5193  -15.2858   23.3497 N   0  0  0  0  0  0  0  0  0  0  0  0
    9.9172  -15.2114   23.0088 C   0  0  0  0  0  0  0  0  0  0  0  0
   10.0493  -14.6006   24.0931 O   0  0  0  0  0  0  0  0  0  0  0  0
   10.9298  -16.5893   25.2382 C   0  0  0  0  0  0  0  0  0  0  0  0
   11.9416  -17.1486   24.2955 C   0  0  1  0  0  0  0  0  0  0  0  0
   11.5232  -18.4299   23.9289 O   0  0  0  0  0  0  0  0  0  0  0  0
   12.2199  -16.3085   23.1079 C   0  0  2  0  0  0  0  0  0  0  0  0
   11.0674  -15.7993   22.4207 N   0  0  0  0  0  0  0  0  0  0  0  0
   13.2977  -16.8301   22.2147 C   0  0  0  0  0  0  0  0  0  0  0  0
   12.9607  -17.2613   20.9543 O   0  0  0  0  0  0  0  0  0  0  0  0
   14.4893  -16.8903   22.5544 O   0  0  0  0  0  0  0  0  0  0  0  0
  2  1  1  1
  3  2  1  0
  4  9  2  0
  4  3  1  0
  5  4  1  0
  6  7  1  0
  6  5  2  0
  7  8  2  0
  8  9  1  0
 10 17  1  0
 10  2  1  0
 11 10  2  0
 13 14  1  0
 13 12  1  0
 14 15  1  6
 16 14  1  0
 16 17  1  1
 18 16  1  0
 19 18  2  0
 21 20  1  6
 21 22  1  0
 21 23  1  0
 23 24  1  6
 24 18  1  0
 25 23  1  0
 25 26  1  0
 27 25  2  0
M  END
$$$$
