FIT.pdb
     RDKit          3D

 27 27  0  0  1  0  0  0  0  0999 V2000
    5.4886  -17.7333   25.1932 N   0  0  0  0  0  0  0  0  0  0  0  0
    6.1101  -16.4264   25.1374 C   0  0  1  0  0  0  0  0  0  0  0  0
    6.7466  -16.1639   26.4854 C   0  0  0  0  0  0  0  0  0  0  0  0
    6.9253  -14.6961   26.6415 C   0  0  0  0  0  0  0  0  0  0  0  0
    8.1826  -14.1450   26.8152 C   0  0  0  0  0  0  0  0  0  0  0  0
    8.3768  -12.7872   26.9625 C   0  0  0  0  0  0  0  0  0  0  0  0
    7.3052  -11.9316   26.9398 C   0  0  0  0  0  0  0  0  0  0  0  0
    6.0561  -12.4633   26.7687 C   0  0  0  0  0  0  0  0  0  0  0  0
    5.8565  -13.8242   26.6206 C   0  0  0  0  0  0  0  0  0  0  0  0
    7.1210  -16.4078   24.0602 C   0  0  0  0  0  0  0  0  0  0  0  0
    7.7994  -17.4465   23.8087 O   0  0  0  0  0  0  0  0  0  0  0  0
    7.0326  -12.4569   20.1275 C   0  0  0  0  0  0  0  0  0  0  0  0
    6.9703  -13.8027   20.8099 C   0  0  0  0  0  0  0  0  0  0  0  0
    8.3603  -14.1142   21.3348 C   0  0  2  0  0  0  0  0  0  0  0  0
    9.3386  -14.2983   20.1998 C   0  0  0  0  0  0  0  0  0  0  0  0
    8.3773  -15.3284   22.2013 C   0  0  2  0  0  0  0  0  0  0  0  0
    7.3871  -15.2596   23.2640 N   0  0  0  0  0  0  0  0  0  0  0  0
    9.7565  -15.4672   22.8009 C   0  0  0  0  0  0  0  0  0  0  0  0
   10.2201  -14.5823   23.5548 O   0  0  0  0  0  0  0  0  0  0  0  0
   11.3819  -18.6342   24.6382 C   0  0  0  0  0  0  0  0  0  0  0  0
   12.1879  -18.2080   23.4575 C   0  0  1  0  0  0  0  0  0  0  0  0
   12.0085  -19.1594   22.4506 O   0  0  0  0  0  0  0  0  0  0  0  0
   11.9023  -16.8397   22.9678 C   0  0  2  0  0  0  0  0  0  0  0  0
   10.5582  -16.6048   22.5227 N   0  0  0  0  0  0  0  0  0  0  0  0
   12.9604  -16.2599   22.0870 C   0  0  0  0  0  0  0  0  0  0  0  0
   14.1429  -15.8515   22.6553 O   0  0  0  0  0  0  0  0  0  0  0  0
   12.8257  -16.1313   20.8605 O   0  0  0  0  0  0  0  0  0  0  0  0
  2  1  1  1
  3  2  1  0
  4  9  2  0
  4  3  1  0
  5  4  1  0
  6  7  1  0
  6  5  2  0
  7  8  2  0
  8  9  1  0
 10 17  1  0
 10  2  1  0
 11 10  2  0
 13 14  1  0
 13 12  1  0
 14 15  1  6
 16 14  1  0
 16 17  1  1
 18 16  1  0
 19 18  2  0
 21 20  1  1
 21 22  1  0
 21 23  1  0
 23 24  1  6
 24 18  1  0
 25 23  1  0
 25 26  1  0
 27 25  2  0
M  END
$$$$
