WVQ.pdb
     RDKit          3D

 31 32  0  0  1  0  0  0  0  0999 V2000
   27.0220  -22.0186  -10.2576 N   0  0  0  0  0  0  0  0  0  0  0  0
   26.7720  -20.6272  -10.0460 C   0  0  1  0  0  0  0  0  0  0  0  0
   28.0076  -19.8643   -9.6900 C   0  0  0  0  0  0  0  0  0  0  0  0
   28.7473  -20.3684   -8.5212 C   0  0  0  0  0  0  0  0  0  0  0  0
   29.8402  -21.2549   -8.5398 C   0  0  0  0  0  0  0  0  0  0  0  0
   30.2713  -21.4693   -7.2889 N   0  0  0  0  0  0  0  0  0  0  0  0
   29.5242  -20.7715   -6.4148 C   0  0  0  0  0  0  0  0  0  0  0  0
   29.5796  -20.6785   -5.0379 C   0  0  0  0  0  0  0  0  0  0  0  0
   28.6742  -19.8864   -4.3714 C   0  0  0  0  0  0  0  0  0  0  0  0
   27.7333  -19.2055   -5.1015 C   0  0  0  0  0  0  0  0  0  0  0  0
   27.6941  -19.3107   -6.4745 C   0  0  0  0  0  0  0  0  0  0  0  0
   28.5803  -20.0906   -7.1830 C   0  0  0  0  0  0  0  0  0  0  0  0
   26.1168  -20.0240  -11.2560 C   0  0  0  0  0  0  0  0  0  0  0  0
   26.5075  -18.8798  -11.6390 O   0  0  0  0  0  0  0  0  0  0  0  0
   26.2675  -21.5248  -14.4150 C   0  0  0  0  0  0  0  0  0  0  0  0
   25.7195  -20.1232  -14.1705 C   0  0  2  0  0  0  0  0  0  0  0  0
   26.8431  -19.3276  -13.5796 C   0  0  0  0  0  0  0  0  0  0  0  0
   24.5732  -20.1715  -13.1702 C   0  0  2  0  0  0  0  0  0  0  0  0
   25.0962  -20.7602  -11.9082 N   0  0  0  0  0  0  0  0  0  0  0  0
   23.5854  -21.1587  -13.6905 C   0  0  0  0  0  0  0  0  0  0  0  0
   23.8081  -22.3975  -13.4091 O   0  0  0  0  0  0  0  0  0  0  0  0
   21.1623  -21.7844   -9.9804 N   0  0  0  0  0  0  0  0  0  0  0  0
   19.8347  -21.5264  -10.5173 C   0  0  0  0  0  0  0  0  0  0  0  0
   18.8776  -21.8308   -9.7878 O   0  0  0  0  0  0  0  0  0  0  0  0
   19.6896  -20.9485  -11.8430 C   0  0  0  0  0  0  0  0  0  0  0  0
   20.9547  -20.6554  -12.5613 C   0  0  0  0  0  0  0  0  0  0  0  0
   21.1134  -21.2794  -13.9289 C   0  0  2  0  0  0  0  0  0  0  0  0
   22.4469  -20.8525  -14.4479 N   0  0  0  0  0  0  0  0  0  0  0  0
   20.1240  -20.8973  -14.9332 C   0  0  0  0  0  0  0  0  0  0  0  0
   19.1470  -21.6653  -15.2284 O   0  0  0  0  0  0  0  0  0  0  0  0
   20.2092  -19.6956  -15.5969 O   0  0  0  0  0  0  0  0  0  0  0  0
  2  1  1  6
  2 13  1  0
  3  2  1  0
  4  5  2  0
  4  3  1  0
  6  5  1  0
  7 12  2  0
  7  6  1  0
  8  7  1  0
  9 10  1  0
  9  8  2  0
 10 11  2  0
 11 12  1  0
 12  4  1  0
 13 14  2  0
 16 18  1  0
 16 15  1  1
 16 17  1  0
 19 13  1  0
 18 19  1  1
 20 18  1  0
 20 21  2  0
 22 23  1  0
 23 25  1  0
 24 23  2  0
 25 26  1  0
 27 26  1  1
 27 29  1  0
 27 28  1  0
 28 20  1  0
 29 31  1  0
 30 29  2  0
M  END
$$$$
