WVQ.pdb
     RDKit          3D

 31 32  0  0  1  0  0  0  0  0999 V2000
   26.8237  -22.3880  -13.1774 N   0  0  0  0  0  0  0  0  0  0  0  0
   26.0581  -21.2372  -13.5418 C   0  0  1  0  0  0  0  0  0  0  0  0
   26.1380  -20.1430  -12.5260 C   0  0  0  0  0  0  0  0  0  0  0  0
   25.5987  -20.4737  -11.1966 C   0  0  0  0  0  0  0  0  0  0  0  0
   26.3393  -20.6592  -10.0144 C   0  0  0  0  0  0  0  0  0  0  0  0
   25.5087  -20.9234   -8.9960 N   0  0  0  0  0  0  0  0  0  0  0  0
   24.2343  -20.9280   -9.4260 C   0  0  0  0  0  0  0  0  0  0  0  0
   23.0470  -21.1551   -8.7580 C   0  0  0  0  0  0  0  0  0  0  0  0
   21.8578  -21.1105   -9.4476 C   0  0  0  0  0  0  0  0  0  0  0  0
   21.8869  -20.8393  -10.7920 C   0  0  0  0  0  0  0  0  0  0  0  0
   23.0813  -20.6152  -11.4408 C   0  0  0  0  0  0  0  0  0  0  0  0
   24.2946  -20.6491  -10.7911 C   0  0  0  0  0  0  0  0  0  0  0  0
   26.4862  -20.7300  -14.8897 C   0  0  0  0  0  0  0  0  0  0  0  0
   27.7285  -20.6170  -15.1186 O   0  0  0  0  0  0  0  0  0  0  0  0
   24.7630  -21.9930  -17.9745 C   0  0  0  0  0  0  0  0  0  0  0  0
   26.0497  -21.1807  -18.0700 C   0  0  2  0  0  0  0  0  0  0  0  0
   27.1487  -22.0710  -17.5760 C   0  0  0  0  0  0  0  0  0  0  0  0
   25.9686  -19.9555  -17.1703 C   0  0  2  0  0  0  0  0  0  0  0  0
   25.4839  -20.4026  -15.8369 N   0  0  0  0  0  0  0  0  0  0  0  0
   24.8873  -19.0877  -17.7164 C   0  0  0  0  0  0  0  0  0  0  0  0
   23.7046  -19.2719  -17.2359 O   0  0  0  0  0  0  0  0  0  0  0  0
   25.0159  -14.0290  -21.2427 N   0  0  0  0  0  0  0  0  0  0  0  0
   23.6385  -14.0074  -20.7741 C   0  0  0  0  0  0  0  0  0  0  0  0
   22.9037  -13.1365  -21.2664 O   0  0  0  0  0  0  0  0  0  0  0  0
   23.1975  -14.9698  -19.7781 C   0  0  0  0  0  0  0  0  0  0  0  0
   24.2378  -15.9009  -19.2753 C   0  0  0  0  0  0  0  0  0  0  0  0
   23.8426  -17.3555  -19.1624 C   0  0  2  0  0  0  0  0  0  0  0  0
   25.0510  -18.0978  -18.6947 N   0  0  0  0  0  0  0  0  0  0  0  0
   23.3964  -18.0023  -20.3937 C   0  0  0  0  0  0  0  0  0  0  0  0
   24.2150  -18.6255  -21.1506 O   0  0  0  0  0  0  0  0  0  0  0  0
   22.0774  -17.9634  -20.7820 O   0  0  0  0  0  0  0  0  0  0  0  0
  2  1  1  1
  2 13  1  0
  3  2  1  0
  4  5  2  0
  4  3  1  0
  6  5  1  0
  7 12  2  0
  7  6  1  0
  8  7  1  0
  9 10  1  0
  9  8  2  0
 10 11  2  0
 11 12  1  0
 12  4  1  0
 13 14  2  0
 16 18  1  0
 16 15  1  1
 16 17  1  0
 19 13  1  0
 18 19  1  1
 20 18  1  0
 20 21  2  0
 22 23  1  0
 23 25  1  0
 24 23  2  0
 25 26  1  0
 27 26  1  6
 27 29  1  0
 27 28  1  0
 28 20  1  0
 29 31  1  0
 30 29  2  0
M  END
$$$$
