WVQ.pdb
     RDKit          3D

 31 32  0  0  1  0  0  0  0  0999 V2000
   26.5174  -18.4498   -8.7416 N   0  0  0  0  0  0  0  0  0  0  0  0
   26.6023  -19.7962   -9.2137 C   0  0  1  0  0  0  0  0  0  0  0  0
   26.1159  -20.7932   -8.2113 C   0  0  0  0  0  0  0  0  0  0  0  0
   26.5768  -20.5774   -6.8298 C   0  0  0  0  0  0  0  0  0  0  0  0
   25.7695  -20.3005   -5.7108 C   0  0  0  0  0  0  0  0  0  0  0  0
   26.5348  -20.1902   -4.6159 N   0  0  0  0  0  0  0  0  0  0  0  0
   27.8283  -20.3780   -4.9332 C   0  0  0  0  0  0  0  0  0  0  0  0
   28.9707  -20.3538   -4.1575 C   0  0  0  0  0  0  0  0  0  0  0  0
   30.1963  -20.5718   -4.7423 C   0  0  0  0  0  0  0  0  0  0  0  0
   30.2479  -20.8090   -6.0925 C   0  0  0  0  0  0  0  0  0  0  0  0
   29.0973  -20.8295   -6.8496 C   0  0  0  0  0  0  0  0  0  0  0  0
   27.8499  -20.6175   -6.3069 C   0  0  0  0  0  0  0  0  0  0  0  0
   25.8498  -19.9456  -10.5055 C   0  0  0  0  0  0  0  0  0  0  0  0
   24.6647  -19.4975  -10.5619 O   0  0  0  0  0  0  0  0  0  0  0  0
   27.8917  -21.7006  -13.6683 C   0  0  0  0  0  0  0  0  0  0  0  0
   27.2653  -20.3281  -13.8887 C   0  0  2  0  0  0  0  0  0  0  0  0
   28.3228  -19.3221  -13.5511 C   0  0  0  0  0  0  0  0  0  0  0  0
   26.0826  -20.1307  -12.9510 C   0  0  2  0  0  0  0  0  0  0  0  0
   26.4986  -20.5789  -11.5949 N   0  0  0  0  0  0  0  0  0  0  0  0
   25.0249  -21.0888  -13.3799 C   0  0  0  0  0  0  0  0  0  0  0  0
   25.3631  -22.3323  -13.4332 O   0  0  0  0  0  0  0  0  0  0  0  0
   19.5321  -21.5923  -11.1519 N   0  0  0  0  0  0  0  0  0  0  0  0
   19.4552  -22.6094  -12.1897 C   0  0  0  0  0  0  0  0  0  0  0  0
   18.4279  -23.3058  -12.2023 O   0  0  0  0  0  0  0  0  0  0  0  0
   20.5506  -22.7662  -13.1321 C   0  0  0  0  0  0  0  0  0  0  0  0
   21.6925  -21.8352  -12.9553 C   0  0  0  0  0  0  0  0  0  0  0  0
   22.7516  -21.8552  -14.0336 C   0  0  2  0  0  0  0  0  0  0  0  0
   23.7084  -20.7519  -13.7218 N   0  0  0  0  0  0  0  0  0  0  0  0
   22.2864  -21.6407  -15.4015 C   0  0  0  0  0  0  0  0  0  0  0  0
   22.2203  -20.4683  -15.9041 O   0  0  0  0  0  0  0  0  0  0  0  0
   21.9032  -22.6947  -16.1978 O   0  0  0  0  0  0  0  0  0  0  0  0
  2  1  1  1
  2 13  1  0
  3  2  1  0
  4  5  2  0
  4  3  1  0
  6  5  1  0
  7 12  2  0
  7  6  1  0
  8  7  1  0
  9 10  1  0
  9  8  2  0
 10 11  2  0
 11 12  1  0
 12  4  1  0
 13 14  2  0
 16 18  1  0
 16 15  1  1
 16 17  1  0
 19 13  1  0
 18 19  1  1
 20 18  1  0
 20 21  2  0
 22 23  1  0
 23 25  1  0
 24 23  2  0
 25 26  1  0
 27 26  1  1
 27 29  1  0
 27 28  1  0
 28 20  1  0
 29 31  1  0
 30 29  2  0
M  END
$$$$
