WVQ.pdb
     RDKit          3D

 31 32  0  0  1  0  0  0  0  0999 V2000
   25.3749  -32.4376   -9.5479 N   0  0  0  0  0  0  0  0  0  0  0  0
   24.0614  -32.1660   -9.0539 C   0  0  1  0  0  0  0  0  0  0  0  0
   24.0402  -31.8936   -7.5840 C   0  0  0  0  0  0  0  0  0  0  0  0
   24.0744  -33.0848   -6.7195 C   0  0  0  0  0  0  0  0  0  0  0  0
   25.1938  -33.8952   -6.4534 C   0  0  0  0  0  0  0  0  0  0  0  0
   24.8534  -34.8734   -5.6027 N   0  0  0  0  0  0  0  0  0  0  0  0
   23.5531  -34.7709   -5.2743 C   0  0  0  0  0  0  0  0  0  0  0  0
   22.7570  -35.5410   -4.4494 C   0  0  0  0  0  0  0  0  0  0  0  0
   21.4291  -35.2201   -4.2902 C   0  0  0  0  0  0  0  0  0  0  0  0
   20.9299  -34.1336   -4.9626 C   0  0  0  0  0  0  0  0  0  0  0  0
   21.7398  -33.3772   -5.7809 C   0  0  0  0  0  0  0  0  0  0  0  0
   23.0738  -33.6608   -5.9693 C   0  0  0  0  0  0  0  0  0  0  0  0
   23.4468  -31.0196   -9.8059 C   0  0  0  0  0  0  0  0  0  0  0  0
   24.1639  -29.9972  -10.0270 O   0  0  0  0  0  0  0  0  0  0  0  0
   20.0903  -31.7127  -12.0299 C   0  0  0  0  0  0  0  0  0  0  0  0
   20.9749  -30.4984  -12.2892 C   0  0  2  0  0  0  0  0  0  0  0  0
   22.1007  -30.9734  -13.1560 C   0  0  0  0  0  0  0  0  0  0  0  0
   21.5501  -29.9750  -10.9806 C   0  0  2  0  0  0  0  0  0  0  0  0
   22.0993  -31.1357  -10.2296 N   0  0  0  0  0  0  0  0  0  0  0  0
   20.4015  -29.4829  -10.1686 C   0  0  0  0  0  0  0  0  0  0  0  0
   20.0145  -30.2426   -9.2008 O   0  0  0  0  0  0  0  0  0  0  0  0
   19.1223  -24.1159   -6.5776 N   0  0  0  0  0  0  0  0  0  0  0  0
   18.4828  -24.6907   -7.7514 C   0  0  0  0  0  0  0  0  0  0  0  0
   17.3051  -24.3561   -7.9555 O   0  0  0  0  0  0  0  0  0  0  0  0
   19.2229  -25.6066   -8.6035 C   0  0  0  0  0  0  0  0  0  0  0  0
   18.4055  -26.4342   -9.5249 C   0  0  0  0  0  0  0  0  0  0  0  0
   18.6010  -27.9306   -9.4398 C   0  0  2  0  0  0  0  0  0  0  0  0
   19.7196  -28.2749  -10.3672 N   0  0  0  0  0  0  0  0  0  0  0  0
   17.4591  -28.7554   -9.8262 C   0  0  0  0  0  0  0  0  0  0  0  0
   16.7063  -29.2996   -8.9495 O   0  0  0  0  0  0  0  0  0  0  0  0
   17.1534  -28.9750  -11.1492 O   0  0  0  0  0  0  0  0  0  0  0  0
  2  1  1  6
  2 13  1  0
  3  2  1  0
  4  5  2  0
  4  3  1  0
  6  5  1  0
  7 12  2  0
  7  6  1  0
  8  7  1  0
  9 10  1  0
  9  8  2  0
 10 11  2  0
 11 12  1  0
 12  4  1  0
 13 14  2  0
 16 18  1  0
 16 15  1  1
 16 17  1  0
 19 13  1  0
 18 19  1  1
 20 18  1  0
 20 21  2  0
 22 23  1  0
 23 25  1  0
 24 23  2  0
 25 26  1  0
 27 26  1  6
 27 29  1  0
 27 28  1  0
 28 20  1  0
 29 31  1  0
 30 29  2  0
M  END
$$$$
