WVQ.pdb
     RDKit          3D

 31 32  0  0  1  0  0  0  0  0999 V2000
   28.0710  -22.1529  -12.6258 N   0  0  0  0  0  0  0  0  0  0  0  0
   26.9510  -21.6208  -11.9149 C   0  0  1  0  0  0  0  0  0  0  0  0
   27.2939  -20.3984  -11.1251 C   0  0  0  0  0  0  0  0  0  0  0  0
   28.2615  -20.6012  -10.0342 C   0  0  0  0  0  0  0  0  0  0  0  0
   29.5925  -21.0393  -10.1654 C   0  0  0  0  0  0  0  0  0  0  0  0
   30.1768  -21.0813   -8.9598 N   0  0  0  0  0  0  0  0  0  0  0  0
   29.3079  -20.6931   -8.0094 C   0  0  0  0  0  0  0  0  0  0  0  0
   29.4439  -20.5815   -6.6395 C   0  0  0  0  0  0  0  0  0  0  0  0
   28.3763  -20.1624   -5.8805 C   0  0  0  0  0  0  0  0  0  0  0  0
   27.1960  -19.8646   -6.5133 C   0  0  0  0  0  0  0  0  0  0  0  0
   27.0798  -19.9818   -7.8809 C   0  0  0  0  0  0  0  0  0  0  0  0
   28.1215  -20.3965   -8.6798 C   0  0  0  0  0  0  0  0  0  0  0  0
   25.8210  -21.3303  -12.8615 C   0  0  0  0  0  0  0  0  0  0  0  0
   26.0577  -20.5936  -13.8663 O   0  0  0  0  0  0  0  0  0  0  0  0
   24.0251  -24.1935  -14.4444 C   0  0  0  0  0  0  0  0  0  0  0  0
   22.9823  -23.2494  -13.8563 C   0  0  2  0  0  0  0  0  0  0  0  0
   21.8562  -23.1967  -14.8430 C   0  0  0  0  0  0  0  0  0  0  0  0
   23.5640  -21.8515  -13.7001 C   0  0  2  0  0  0  0  0  0  0  0  0
   24.5489  -21.8914  -12.5860 N   0  0  0  0  0  0  0  0  0  0  0  0
   22.4588  -20.9730  -13.2231 C   0  0  0  0  0  0  0  0  0  0  0  0
   21.9638  -21.2497  -12.0646 O   0  0  0  0  0  0  0  0  0  0  0  0
   20.1272  -15.5969  -15.6811 N   0  0  0  0  0  0  0  0  0  0  0  0
   19.2387  -15.8510  -14.5570 C   0  0  0  0  0  0  0  0  0  0  0  0
   18.3083  -15.0449  -14.3981 O   0  0  0  0  0  0  0  0  0  0  0  0
   19.4740  -16.9957  -13.6928 C   0  0  0  0  0  0  0  0  0  0  0  0
   20.6409  -17.8418  -14.0455 C   0  0  0  0  0  0  0  0  0  0  0  0
   20.7485  -19.1718  -13.3352 C   0  0  2  0  0  0  0  0  0  0  0  0
   21.9237  -19.8824  -13.9215 N   0  0  0  0  0  0  0  0  0  0  0  0
   19.6023  -20.0682  -13.4632 C   0  0  0  0  0  0  0  0  0  0  0  0
   19.4337  -20.7855  -14.5065 O   0  0  0  0  0  0  0  0  0  0  0  0
   18.6633  -20.1720  -12.4635 O   0  0  0  0  0  0  0  0  0  0  0  0
  2  1  1  6
  2 13  1  0
  3  2  1  0
  4  5  2  0
  4  3  1  0
  6  5  1  0
  7 12  2  0
  7  6  1  0
  8  7  1  0
  9 10  1  0
  9  8  2  0
 10 11  2  0
 11 12  1  0
 12  4  1  0
 13 14  2  0
 16 18  1  0
 16 15  1  6
 16 17  1  0
 19 13  1  0
 18 19  1  1
 20 18  1  0
 20 21  2  0
 22 23  1  0
 23 25  1  0
 24 23  2  0
 25 26  1  0
 27 26  1  6
 27 29  1  0
 27 28  1  0
 28 20  1  0
 29 31  1  0
 30 29  2  0
M  END
$$$$
