WVQ.pdb
     RDKit          3D

 31 32  0  0  1  0  0  0  0  0999 V2000
   26.0866  -22.1904   -7.9481 N   0  0  0  0  0  0  0  0  0  0  0  0
   25.7890  -20.9708   -8.6316 C   0  0  1  0  0  0  0  0  0  0  0  0
   26.9862  -20.0898   -8.7922 C   0  0  0  0  0  0  0  0  0  0  0  0
   28.0342  -20.2547   -7.7714 C   0  0  0  0  0  0  0  0  0  0  0  0
   29.0330  -21.2458   -7.7485 C   0  0  0  0  0  0  0  0  0  0  0  0
   29.8243  -21.0673   -6.6814 N   0  0  0  0  0  0  0  0  0  0  0  0
   29.4135  -20.0007   -5.9725 C   0  0  0  0  0  0  0  0  0  0  0  0
   29.8988  -19.4368   -4.8089 C   0  0  0  0  0  0  0  0  0  0  0  0
   29.2764  -18.3323   -4.2757 C   0  0  0  0  0  0  0  0  0  0  0  0
   28.1809  -17.8186   -4.9220 C   0  0  0  0  0  0  0  0  0  0  0  0
   27.7117  -18.3949   -6.0820 C   0  0  0  0  0  0  0  0  0  0  0  0
   28.3031  -19.5000   -6.6516 C   0  0  0  0  0  0  0  0  0  0  0  0
   25.1702  -21.2593   -9.9700 C   0  0  0  0  0  0  0  0  0  0  0  0
   25.5797  -22.2739  -10.6114 O   0  0  0  0  0  0  0  0  0  0  0  0
   21.6584  -19.2935  -10.6830 C   0  0  0  0  0  0  0  0  0  0  0  0
   21.8861  -20.6913  -11.2478 C   0  0  2  0  0  0  0  0  0  0  0  0
   21.5130  -21.6520  -10.1604 C   0  0  0  0  0  0  0  0  0  0  0  0
   23.3553  -20.8880  -11.5939 C   0  0  2  0  0  0  0  0  0  0  0  0
   24.1625  -20.3857  -10.4498 N   0  0  0  0  0  0  0  0  0  0  0  0
   23.6597  -19.9713  -12.7287 C   0  0  0  0  0  0  0  0  0  0  0  0
   23.7274  -18.7139  -12.4496 O   0  0  0  0  0  0  0  0  0  0  0  0
   27.3282  -20.8224  -17.6431 N   0  0  0  0  0  0  0  0  0  0  0  0
   27.3689  -21.1543  -16.2270 C   0  0  0  0  0  0  0  0  0  0  0  0
   28.3205  -21.8587  -15.8542 O   0  0  0  0  0  0  0  0  0  0  0  0
   26.3252  -20.6689  -15.3394 C   0  0  0  0  0  0  0  0  0  0  0  0
   25.2501  -19.8729  -15.9819 C   0  0  0  0  0  0  0  0  0  0  0  0
   24.1922  -19.3043  -15.0640 C   0  0  2  0  0  0  0  0  0  0  0  0
   23.8791  -20.3612  -14.0566 N   0  0  0  0  0  0  0  0  0  0  0  0
   22.9280  -18.9257  -15.6901 C   0  0  0  0  0  0  0  0  0  0  0  0
   21.9499  -19.7443  -15.7591 O   0  0  0  0  0  0  0  0  0  0  0  0
   22.7458  -17.6729  -16.2278 O   0  0  0  0  0  0  0  0  0  0  0  0
  2  1  1  6
  2 13  1  0
  3  2  1  0
  4  5  2  0
  4  3  1  0
  6  5  1  0
  7 12  2  0
  7  6  1  0
  8  7  1  0
  9 10  1  0
  9  8  2  0
 10 11  2  0
 11 12  1  0
 12  4  1  0
 13 14  2  0
 16 18  1  0
 16 15  1  1
 16 17  1  0
 19 13  1  0
 18 19  1  1
 20 18  1  0
 20 21  2  0
 22 23  1  0
 23 25  1  0
 24 23  2  0
 25 26  1  0
 27 26  1  6
 27 29  1  0
 27 28  1  0
 28 20  1  0
 29 31  1  0
 30 29  2  0
M  END
$$$$
