WVQ.pdb
     RDKit          3D

 31 32  0  0  1  0  0  0  0  0999 V2000
   28.5906  -20.7283  -15.6972 N   0  0  0  0  0  0  0  0  0  0  0  0
   27.5911  -20.0106  -14.9699 C   0  0  1  0  0  0  0  0  0  0  0  0
   26.6492  -19.2659  -15.8608 C   0  0  0  0  0  0  0  0  0  0  0  0
   27.2248  -18.1054  -16.5605 C   0  0  0  0  0  0  0  0  0  0  0  0
   27.6354  -18.0571  -17.9057 C   0  0  0  0  0  0  0  0  0  0  0  0
   28.0851  -16.8288  -18.1985 N   0  0  0  0  0  0  0  0  0  0  0  0
   28.0020  -16.0342  -17.1165 C   0  0  0  0  0  0  0  0  0  0  0  0
   28.3468  -14.7101  -16.9284 C   0  0  0  0  0  0  0  0  0  0  0  0
   28.1664  -14.1274  -15.6957 C   0  0  0  0  0  0  0  0  0  0  0  0
   27.6440  -14.8866  -14.6795 C   0  0  0  0  0  0  0  0  0  0  0  0
   27.3058  -16.2058  -14.8866 C   0  0  0  0  0  0  0  0  0  0  0  0
   27.4684  -16.8298  -16.1030 C   0  0  0  0  0  0  0  0  0  0  0  0
   26.8307  -20.9417  -14.0688 C   0  0  0  0  0  0  0  0  0  0  0  0
   26.7015  -22.1504  -14.4306 O   0  0  0  0  0  0  0  0  0  0  0  0
   25.5195  -19.8602  -10.1126 C   0  0  0  0  0  0  0  0  0  0  0  0
   25.6970  -21.2711  -10.6624 C   0  0  2  0  0  0  0  0  0  0  0  0
   27.1489  -21.6056  -10.5061 C   0  0  0  0  0  0  0  0  0  0  0  0
   25.3408  -21.3100  -12.1418 C   0  0  2  0  0  0  0  0  0  0  0  0
   26.2955  -20.4255  -12.8621 N   0  0  0  0  0  0  0  0  0  0  0  0
   24.0086  -20.6575  -12.2840 C   0  0  0  0  0  0  0  0  0  0  0  0
   23.9795  -19.5472  -12.9398 O   0  0  0  0  0  0  0  0  0  0  0  0
   22.2534  -23.6931  -16.0346 N   0  0  0  0  0  0  0  0  0  0  0  0
   20.9363  -23.0998  -15.8600 C   0  0  0  0  0  0  0  0  0  0  0  0
   20.0830  -23.3944  -16.7118 O   0  0  0  0  0  0  0  0  0  0  0  0
   20.6855  -22.2119  -14.7369 C   0  0  0  0  0  0  0  0  0  0  0  0
   21.8074  -22.0497  -13.7792 C   0  0  0  0  0  0  0  0  0  0  0  0
   21.5848  -21.0845  -12.6374 C   0  0  2  0  0  0  0  0  0  0  0  0
   22.8002  -21.1489  -11.7723 N   0  0  0  0  0  0  0  0  0  0  0  0
   20.4356  -21.3542  -11.7770 C   0  0  0  0  0  0  0  0  0  0  0  0
   20.5109  -22.1849  -10.8097 O   0  0  0  0  0  0  0  0  0  0  0  0
   19.2306  -20.7221  -11.9779 O   0  0  0  0  0  0  0  0  0  0  0  0
  2  1  1  6
  2 13  1  0
  3  2  1  0
  4  5  2  0
  4  3  1  0
  6  5  1  0
  7 12  2  0
  7  6  1  0
  8  7  1  0
  9 10  1  0
  9  8  2  0
 10 11  2  0
 11 12  1  0
 12  4  1  0
 13 14  2  0
 16 18  1  0
 16 15  1  6
 16 17  1  0
 19 13  1  0
 18 19  1  6
 20 18  1  0
 20 21  2  0
 22 23  1  0
 23 25  1  0
 24 23  2  0
 25 26  1  0
 27 26  1  6
 27 29  1  0
 27 28  1  0
 28 20  1  0
 29 31  1  0
 30 29  2  0
M  END
$$$$
