WVQ.pdb
     RDKit          3D

 31 32  0  0  1  0  0  0  0  0999 V2000
   14.9962  -15.2940    4.3475 N   0  0  0  0  0  0  0  0  0  0  0  0
   16.1803  -16.0843    4.4748 C   0  0  1  0  0  0  0  0  0  0  0  0
   17.1259  -15.5496    5.5021 C   0  0  0  0  0  0  0  0  0  0  0  0
   17.7815  -14.2774    5.1569 C   0  0  0  0  0  0  0  0  0  0  0  0
   17.3199  -13.3203    4.2341 C   0  0  0  0  0  0  0  0  0  0  0  0
   18.1638  -12.2794    4.2003 N   0  0  0  0  0  0  0  0  0  0  0  0
   19.1817  -12.4795    5.0563 C   0  0  0  0  0  0  0  0  0  0  0  0
   20.2833  -11.7041    5.3610 C   0  0  0  0  0  0  0  0  0  0  0  0
   21.1985  -12.1532    6.2842 C   0  0  0  0  0  0  0  0  0  0  0  0
   20.9877  -13.3704    6.8808 C   0  0  0  0  0  0  0  0  0  0  0  0
   19.8827  -14.1294    6.5640 C   0  0  0  0  0  0  0  0  0  0  0  0
   18.9410  -13.7196    5.6471 C   0  0  0  0  0  0  0  0  0  0  0  0
   15.8258  -17.5111    4.7845 C   0  0  0  0  0  0  0  0  0  0  0  0
   14.8890  -17.7279    5.6115 O   0  0  0  0  0  0  0  0  0  0  0  0
   17.8160  -20.6310    2.7448 C   0  0  0  0  0  0  0  0  0  0  0  0
   16.3745  -20.7847    3.2169 C   0  0  2  0  0  0  0  0  0  0  0  0
   15.5093  -20.2777    2.1038 C   0  0  0  0  0  0  0  0  0  0  0  0
   16.1307  -19.9333    4.4549 C   0  0  2  0  0  0  0  0  0  0  0  0
   16.5537  -18.5424    4.1400 N   0  0  0  0  0  0  0  0  0  0  0  0
   17.0780  -20.4100    5.5020 C   0  0  0  0  0  0  0  0  0  0  0  0
   18.2319  -19.8350    5.5379 O   0  0  0  0  0  0  0  0  0  0  0  0
   19.2494  -21.0486   11.9505 N   0  0  0  0  0  0  0  0  0  0  0  0
   19.1654  -21.1180   10.4995 C   0  0  0  0  0  0  0  0  0  0  0  0
   19.8739  -20.3176    9.8687 O   0  0  0  0  0  0  0  0  0  0  0  0
   18.2803  -22.0845    9.8711 C   0  0  0  0  0  0  0  0  0  0  0  0
   17.4330  -21.5633    8.7700 C   0  0  0  0  0  0  0  0  0  0  0  0
   17.9172  -21.8293    7.3630 C   0  0  2  0  0  0  0  0  0  0  0  0
   16.8174  -21.4170    6.4409 N   0  0  0  0  0  0  0  0  0  0  0  0
   18.2433  -23.2167    7.0424 C   0  0  0  0  0  0  0  0  0  0  0  0
   17.4034  -23.9767    6.4522 O   0  0  0  0  0  0  0  0  0  0  0  0
   19.4677  -23.7540    7.3647 O   0  0  0  0  0  0  0  0  0  0  0  0
  2  1  1  1
  2 13  1  0
  3  2  1  0
  4  5  2  0
  4  3  1  0
  6  5  1  0
  7 12  2  0
  7  6  1  0
  8  7  1  0
  9 10  1  0
  9  8  2  0
 10 11  2  0
 11 12  1  0
 12  4  1  0
 13 14  2  0
 16 18  1  0
 16 15  1  6
 16 17  1  0
 19 13  1  0
 18 19  1  6
 20 18  1  0
 20 21  2  0
 22 23  1  0
 23 25  1  0
 24 23  2  0
 25 26  1  0
 27 26  1  1
 27 29  1  0
 27 28  1  0
 28 20  1  0
 29 31  1  0
 30 29  2  0
M  END
$$$$
