ISF.pdb
     RDKit          3D

 26 26  0  0  1  0  0  0  0  0999 V2000
    7.5287  -11.8330   19.6494 C   0  0  0  0  0  0  0  0  0  0  0  0
    7.6495  -13.2672   19.1967 C   0  0  0  0  0  0  0  0  0  0  0  0
    8.3267  -14.1412   20.2018 C   0  0  2  0  0  0  0  0  0  0  0  0
    9.6808  -13.5744   20.5106 C   0  0  0  0  0  0  0  0  0  0  0  0
    8.3930  -15.5879   19.7650 C   0  0  2  0  0  0  0  0  0  0  0  0
    7.0316  -15.9775   19.3784 N   0  0  0  0  0  0  0  0  0  0  0  0
    8.9163  -16.4690   20.8184 C   0  0  0  0  0  0  0  0  0  0  0  0
    8.2513  -16.5971   21.8871 O   0  0  0  0  0  0  0  0  0  0  0  0
   12.8750  -18.0242   21.0603 O   0  0  0  0  0  0  0  0  0  0  0  0
   11.7970  -18.8095   21.3902 C   0  0  0  0  0  0  0  0  0  0  0  0
   10.5796  -18.0082   21.7943 C   0  0  2  0  0  0  0  0  0  0  0  0
   10.1339  -17.1922   20.7095 N   0  0  0  0  0  0  0  0  0  0  0  0
   10.8391  -17.2231   23.0312 C   0  0  0  0  0  0  0  0  0  0  0  0
   11.2181  -16.0311   22.9036 O   0  0  0  0  0  0  0  0  0  0  0  0
   10.6819  -17.7469   24.3279 N   0  0  0  0  0  0  0  0  0  0  0  0
   10.8739  -16.9844   25.5525 C   0  0  1  0  0  0  0  0  0  0  0  0
   10.0243  -15.7556   25.5024 C   0  0  0  0  0  0  0  0  0  0  0  0
    9.9640  -14.9735   26.7471 C   0  0  0  0  0  0  0  0  0  0  0  0
    8.8369  -14.2748   27.1194 C   0  0  0  0  0  0  0  0  0  0  0  0
    8.7884  -13.5609   28.2936 C   0  0  0  0  0  0  0  0  0  0  0  0
    9.8662  -13.5123   29.1516 C   0  0  0  0  0  0  0  0  0  0  0  0
   10.9816  -14.2177   28.7597 C   0  0  0  0  0  0  0  0  0  0  0  0
   11.0544  -14.9401   27.5886 C   0  0  0  0  0  0  0  0  0  0  0  0
   10.5722  -17.7693   26.7505 C   0  0  0  0  0  0  0  0  0  0  0  0
    9.4315  -18.5456   26.9050 O   0  0  0  0  0  0  0  0  0  0  0  0
   11.3732  -17.7595   27.7108 O   0  0  0  0  0  0  0  0  0  0  0  0
  1  2  1  0
  2  3  1  0
  3  5  1  0
  3  4  1  6
  5  7  1  0
  5  6  1  1
  7  8  2  0
  9 10  1  0
 11 10  1  6
 12 11  1  0
 12  7  1  0
 13 11  1  0
 13 14  2  0
 15 13  1  0
 16 15  1  0
 16 24  1  0
 16 17  1  6
 18 19  2  0
 18 17  1  0
 20 19  1  0
 21 22  1  0
 21 20  2  0
 22 23  2  0
 23 18  1  0
 24 25  1  0
 26 24  2  0
M  END
$$$$
