ISF.pdb
     RDKit          3D

 26 26  0  0  1  0  0  0  0  0999 V2000
    7.2371  -11.6373   19.7446 C   0  0  0  0  0  0  0  0  0  0  0  0
    7.7603  -13.0079   19.3925 C   0  0  0  0  0  0  0  0  0  0  0  0
    7.8375  -13.9234   20.5709 C   0  0  2  0  0  0  0  0  0  0  0  0
    8.6699  -13.2779   21.6389 C   0  0  0  0  0  0  0  0  0  0  0  0
    8.3379  -15.3032   20.2048 C   0  0  2  0  0  0  0  0  0  0  0  0
    7.4511  -15.8106   19.1509 N   0  0  0  0  0  0  0  0  0  0  0  0
    8.3651  -16.2146   21.3574 C   0  0  0  0  0  0  0  0  0  0  0  0
    7.2664  -16.6278   21.8294 O   0  0  0  0  0  0  0  0  0  0  0  0
   11.8500  -18.0010   23.0466 O   0  0  0  0  0  0  0  0  0  0  0  0
   10.5905  -18.5479   23.0911 C   0  0  0  0  0  0  0  0  0  0  0  0
    9.4924  -17.5086   23.1303 C   0  0  2  0  0  0  0  0  0  0  0  0
    9.5602  -16.6642   21.9797 N   0  0  0  0  0  0  0  0  0  0  0  0
    9.5233  -16.7417   24.4049 C   0  0  0  0  0  0  0  0  0  0  0  0
    9.6749  -15.4953   24.3388 O   0  0  0  0  0  0  0  0  0  0  0  0
    9.3919  -17.3400   25.6718 N   0  0  0  0  0  0  0  0  0  0  0  0
    9.3788  -16.6089   26.9301 C   0  0  1  0  0  0  0  0  0  0  0  0
    8.0000  -16.0887   27.1796 C   0  0  0  0  0  0  0  0  0  0  0  0
    7.7353  -14.7280   26.6867 C   0  0  0  0  0  0  0  0  0  0  0  0
    8.5504  -13.6633   27.0014 C   0  0  0  0  0  0  0  0  0  0  0  0
    8.3007  -12.3994   26.5207 C   0  0  0  0  0  0  0  0  0  0  0  0
    7.2225  -12.1409   25.7015 C   0  0  0  0  0  0  0  0  0  0  0  0
    6.4216  -13.2193   25.4001 C   0  0  0  0  0  0  0  0  0  0  0  0
    6.6511  -14.4943   25.8693 C   0  0  0  0  0  0  0  0  0  0  0  0
    9.8303  -17.4288   28.0554 C   0  0  0  0  0  0  0  0  0  0  0  0
   10.3904  -16.9146   29.2171 O   0  0  0  0  0  0  0  0  0  0  0  0
    9.7170  -18.6727   27.9952 O   0  0  0  0  0  0  0  0  0  0  0  0
  1  2  1  0
  2  3  1  0
  3  5  1  0
  3  4  1  1
  5  7  1  0
  5  6  1  6
  7  8  2  0
  9 10  1  0
 11 10  1  1
 12 11  1  0
 12  7  1  0
 13 11  1  0
 13 14  2  0
 15 13  1  0
 16 15  1  0
 16 24  1  0
 16 17  1  1
 18 19  2  0
 18 17  1  0
 20 19  1  0
 21 22  1  0
 21 20  2  0
 22 23  2  0
 23 18  1  0
 24 25  1  0
 26 24  2  0
M  END
$$$$
