ISF.pdb
     RDKit          3D

 26 26  0  0  1  0  0  0  0  0999 V2000
    7.3855  -11.5286   19.3320 C   0  0  0  0  0  0  0  0  0  0  0  0
    7.8496  -12.9363   19.0499 C   0  0  0  0  0  0  0  0  0  0  0  0
    7.8874  -13.7942   20.2727 C   0  0  2  0  0  0  0  0  0  0  0  0
    8.7296  -13.1223   21.3166 C   0  0  0  0  0  0  0  0  0  0  0  0
    8.3481  -15.2050   19.9804 C   0  0  2  0  0  0  0  0  0  0  0  0
    7.4890  -15.7183   18.9067 N   0  0  0  0  0  0  0  0  0  0  0  0
    8.2885  -16.0720   21.1656 C   0  0  0  0  0  0  0  0  0  0  0  0
    7.1550  -16.3706   21.6417 O   0  0  0  0  0  0  0  0  0  0  0  0
   11.4192  -18.4610   22.5745 O   0  0  0  0  0  0  0  0  0  0  0  0
   10.0911  -18.6885   22.8421 C   0  0  0  0  0  0  0  0  0  0  0  0
    9.2859  -17.4156   22.9790 C   0  0  2  0  0  0  0  0  0  0  0  0
    9.4359  -16.6001   21.8154 N   0  0  0  0  0  0  0  0  0  0  0  0
    9.6323  -16.6927   24.2324 C   0  0  0  0  0  0  0  0  0  0  0  0
   10.5663  -15.8522   24.1887 O   0  0  0  0  0  0  0  0  0  0  0  0
    8.9694  -16.9029   25.4558 N   0  0  0  0  0  0  0  0  0  0  0  0
    9.3974  -16.3458   26.7304 C   0  0  1  0  0  0  0  0  0  0  0  0
    8.2248  -15.7108   27.4056 C   0  0  0  0  0  0  0  0  0  0  0  0
    7.7810  -14.4290   26.8359 C   0  0  0  0  0  0  0  0  0  0  0  0
    6.5353  -14.2711   26.2698 C   0  0  0  0  0  0  0  0  0  0  0  0
    6.1268  -13.0630   25.7555 C   0  0  0  0  0  0  0  0  0  0  0  0
    6.9462  -11.9548   25.7832 C   0  0  0  0  0  0  0  0  0  0  0  0
    8.1862  -12.1354   26.3534 C   0  0  0  0  0  0  0  0  0  0  0  0
    8.6180  -13.3354   26.8753 C   0  0  0  0  0  0  0  0  0  0  0  0
   10.0090  -17.3513   27.6005 C   0  0  0  0  0  0  0  0  0  0  0  0
   10.7071  -17.0531   28.7630 O   0  0  0  0  0  0  0  0  0  0  0  0
    9.9131  -18.5624   27.3040 O   0  0  0  0  0  0  0  0  0  0  0  0
  1  2  1  0
  2  3  1  0
  3  5  1  0
  3  4  1  1
  5  7  1  0
  5  6  1  6
  7  8  2  0
  9 10  1  0
 11 10  1  6
 12 11  1  0
 12  7  1  0
 13 11  1  0
 13 14  2  0
 15 13  1  0
 16 15  1  0
 16 24  1  0
 16 17  1  1
 18 19  2  0
 18 17  1  0
 20 19  1  0
 21 22  1  0
 21 20  2  0
 22 23  2  0
 23 18  1  0
 24 25  1  0
 26 24  2  0
M  END
$$$$
