ISF.pdb
     RDKit          3D

 26 26  0  0  1  0  0  0  0  0999 V2000
    6.7703  -12.3763   19.7664 C   0  0  0  0  0  0  0  0  0  0  0  0
    7.1451  -13.7757   20.1881 C   0  0  0  0  0  0  0  0  0  0  0  0
    8.5848  -14.0926   19.9444 C   0  0  2  0  0  0  0  0  0  0  0  0
    8.8960  -13.8730   18.4935 C   0  0  0  0  0  0  0  0  0  0  0  0
    8.9629  -15.4807   20.4116 C   0  0  2  0  0  0  0  0  0  0  0  0
    8.2038  -16.4278   19.5862 N   0  0  0  0  0  0  0  0  0  0  0  0
    8.6882  -15.6863   21.8406 C   0  0  0  0  0  0  0  0  0  0  0  0
    9.2842  -14.9550   22.6837 O   0  0  0  0  0  0  0  0  0  0  0  0
    7.3997  -19.2096   23.8973 O   0  0  0  0  0  0  0  0  0  0  0  0
    6.7334  -18.0170   24.0430 C   0  0  0  0  0  0  0  0  0  0  0  0
    7.5990  -16.8127   23.7468 C   0  0  2  0  0  0  0  0  0  0  0  0
    7.7865  -16.6646   22.3381 N   0  0  0  0  0  0  0  0  0  0  0  0
    8.8857  -16.8794   24.4909 C   0  0  0  0  0  0  0  0  0  0  0  0
    9.9518  -16.7525   23.8366 O   0  0  0  0  0  0  0  0  0  0  0  0
    8.9662  -17.0762   25.8820 N   0  0  0  0  0  0  0  0  0  0  0  0
   10.1878  -16.9469   26.6623 C   0  0  1  0  0  0  0  0  0  0  0  0
   10.7230  -15.5599   26.5077 C   0  0  0  0  0  0  0  0  0  0  0  0
    9.8247  -14.4798   26.9447 C   0  0  0  0  0  0  0  0  0  0  0  0
    9.9500  -13.8761   28.1763 C   0  0  0  0  0  0  0  0  0  0  0  0
    9.1137  -12.8563   28.5659 C   0  0  0  0  0  0  0  0  0  0  0  0
    8.1118  -12.3921   27.7408 C   0  0  0  0  0  0  0  0  0  0  0  0
    8.0049  -13.0097   26.5151 C   0  0  0  0  0  0  0  0  0  0  0  0
    8.8303  -14.0329   26.1022 C   0  0  0  0  0  0  0  0  0  0  0  0
    9.9816  -17.2635   28.0764 C   0  0  0  0  0  0  0  0  0  0  0  0
    8.7715  -17.6846   28.6108 O   0  0  0  0  0  0  0  0  0  0  0  0
   10.9367  -17.1573   28.8766 O   0  0  0  0  0  0  0  0  0  0  0  0
  1  2  1  0
  2  3  1  0
  3  5  1  0
  3  4  1  6
  5  7  1  0
  5  6  1  6
  7  8  2  0
  9 10  1  0
 11 10  1  6
 12 11  1  0
 12  7  1  0
 13 11  1  0
 13 14  2  0
 15 13  1  0
 16 15  1  0
 16 24  1  0
 16 17  1  1
 18 19  2  0
 18 17  1  0
 20 19  1  0
 21 22  1  0
 21 20  2  0
 22 23  2  0
 23 18  1  0
 24 25  1  0
 26 24  2  0
M  END
$$$$
