ISF.pdb
     RDKit          3D

 26 26  0  0  1  0  0  0  0  0999 V2000
    6.0591  -11.6584   27.0092 C   0  0  0  0  0  0  0  0  0  0  0  0
    5.6883  -12.7849   26.0765 C   0  0  0  0  0  0  0  0  0  0  0  0
    6.8610  -13.6184   25.6731 C   0  0  2  0  0  0  0  0  0  0  0  0
    7.8720  -12.7442   24.9920 C   0  0  0  0  0  0  0  0  0  0  0  0
    6.4660  -14.8094   24.8284 C   0  0  2  0  0  0  0  0  0  0  0  0
    5.4343  -15.5373   25.5769 N   0  0  0  0  0  0  0  0  0  0  0  0
    7.6080  -15.6809   24.5180 C   0  0  0  0  0  0  0  0  0  0  0  0
    8.0651  -16.4290   25.4301 O   0  0  0  0  0  0  0  0  0  0  0  0
    9.7883  -15.4801   20.9396 O   0  0  0  0  0  0  0  0  0  0  0  0
    9.6914  -16.6964   21.5709 C   0  0  0  0  0  0  0  0  0  0  0  0
    9.3726  -16.5774   23.0445 C   0  0  2  0  0  0  0  0  0  0  0  0
    8.2359  -15.7353   23.2450 N   0  0  0  0  0  0  0  0  0  0  0  0
   10.5616  -16.1266   23.8170 C   0  0  0  0  0  0  0  0  0  0  0  0
   10.8887  -14.9150   23.7408 O   0  0  0  0  0  0  0  0  0  0  0  0
   11.3320  -16.9850   24.6232 N   0  0  0  0  0  0  0  0  0  0  0  0
   12.6097  -16.6265   25.2207 C   0  0  1  0  0  0  0  0  0  0  0  0
   12.5062  -16.7473   26.7069 C   0  0  0  0  0  0  0  0  0  0  0  0
   11.5541  -15.8313   27.3541 C   0  0  0  0  0  0  0  0  0  0  0  0
   11.7723  -14.4728   27.4177 C   0  0  0  0  0  0  0  0  0  0  0  0
   10.8662  -13.6258   28.0114 C   0  0  0  0  0  0  0  0  0  0  0  0
    9.6979  -14.0984   28.5700 C   0  0  0  0  0  0  0  0  0  0  0  0
    9.5006  -15.4588   28.4951 C   0  0  0  0  0  0  0  0  0  0  0  0
   10.3931  -16.3275   27.9057 C   0  0  0  0  0  0  0  0  0  0  0  0
   13.7112  -17.4465   24.7139 C   0  0  0  0  0  0  0  0  0  0  0  0
   15.0438  -17.2541   25.0524 O   0  0  0  0  0  0  0  0  0  0  0  0
   13.4671  -18.3859   23.9255 O   0  0  0  0  0  0  0  0  0  0  0  0
  1  2  1  0
  2  3  1  0
  3  5  1  0
  3  4  1  6
  5  7  1  0
  5  6  1  1
  7  8  2  0
  9 10  1  0
 11 10  1  6
 12 11  1  0
 12  7  1  0
 13 11  1  0
 13 14  2  0
 15 13  1  0
 16 15  1  0
 16 24  1  0
 16 17  1  1
 18 19  2  0
 18 17  1  0
 20 19  1  0
 21 22  1  0
 21 20  2  0
 22 23  2  0
 23 18  1  0
 24 25  1  0
 26 24  2  0
M  END
$$$$
