ISF.pdb
     RDKit          3D

 26 26  0  0  1  0  0  0  0  0999 V2000
    8.4456  -11.8777   20.6519 C   0  0  0  0  0  0  0  0  0  0  0  0
    7.8799  -13.2640   20.8383 C   0  0  0  0  0  0  0  0  0  0  0  0
    8.4549  -14.2616   19.8860 C   0  0  2  0  0  0  0  0  0  0  0  0
    8.2519  -13.7725   18.4824 C   0  0  0  0  0  0  0  0  0  0  0  0
    7.9024  -15.6539   20.0970 C   0  0  2  0  0  0  0  0  0  0  0  0
    6.4605  -15.5832   19.8320 N   0  0  0  0  0  0  0  0  0  0  0  0
    8.1672  -16.1638   21.4497 C   0  0  0  0  0  0  0  0  0  0  0  0
    7.3928  -15.8200   22.3894 O   0  0  0  0  0  0  0  0  0  0  0  0
   11.4958  -18.6236   22.6681 O   0  0  0  0  0  0  0  0  0  0  0  0
   10.2047  -18.8040   23.1015 C   0  0  0  0  0  0  0  0  0  0  0  0
    9.3936  -17.5275   23.1003 C   0  0  2  0  0  0  0  0  0  0  0  0
    9.2489  -17.0268   21.7700 N   0  0  0  0  0  0  0  0  0  0  0  0
    9.9739  -16.5212   24.0300 C   0  0  0  0  0  0  0  0  0  0  0  0
   10.7143  -15.6286   23.5444 O   0  0  0  0  0  0  0  0  0  0  0  0
    9.7355  -16.5204   25.4169 N   0  0  0  0  0  0  0  0  0  0  0  0
   10.4383  -15.6772   26.3725 C   0  0  1  0  0  0  0  0  0  0  0  0
   10.1306  -14.2441   26.0798 C   0  0  0  0  0  0  0  0  0  0  0  0
    8.7469  -13.8233   26.3496 C   0  0  0  0  0  0  0  0  0  0  0  0
    7.7069  -14.1394   25.5036 C   0  0  0  0  0  0  0  0  0  0  0  0
    6.4154  -13.7537   25.7760 C   0  0  0  0  0  0  0  0  0  0  0  0
    6.1032  -13.0328   26.9087 C   0  0  0  0  0  0  0  0  0  0  0  0
    7.1577  -12.7281   27.7397 C   0  0  0  0  0  0  0  0  0  0  0  0
    8.4595  -13.1032   27.4885 C   0  0  0  0  0  0  0  0  0  0  0  0
   10.0985  -16.0031   27.7584 C   0  0  0  0  0  0  0  0  0  0  0  0
   10.6757  -15.3943   28.8646 O   0  0  0  0  0  0  0  0  0  0  0  0
    9.2383  -16.8804   27.9913 O   0  0  0  0  0  0  0  0  0  0  0  0
  1  2  1  0
  2  3  1  0
  3  5  1  0
  3  4  1  6
  5  7  1  0
  5  6  1  1
  7  8  2  0
  9 10  1  0
 11 10  1  6
 12 11  1  0
 12  7  1  0
 13 11  1  0
 13 14  2  0
 15 13  1  0
 16 15  1  0
 16 24  1  0
 16 17  1  6
 18 19  2  0
 18 17  1  0
 20 19  1  0
 21 22  1  0
 21 20  2  0
 22 23  2  0
 23 18  1  0
 24 25  1  0
 26 24  2  0
M  END
$$$$
