ISF.pdb
     RDKit          3D

 26 26  0  0  1  0  0  0  0  0999 V2000
    7.9524  -11.6531   19.4252 C   0  0  0  0  0  0  0  0  0  0  0  0
    8.0126  -13.1507   19.2520 C   0  0  0  0  0  0  0  0  0  0  0  0
    8.0677  -13.8865   20.5513 C   0  0  2  0  0  0  0  0  0  0  0  0
    9.2648  -13.4220   21.3269 C   0  0  0  0  0  0  0  0  0  0  0  0
    8.0442  -15.3883   20.3717 C   0  0  2  0  0  0  0  0  0  0  0  0
    6.8406  -15.7038   19.5929 N   0  0  0  0  0  0  0  0  0  0  0  0
    8.0483  -16.1071   21.6535 C   0  0  0  0  0  0  0  0  0  0  0  0
    7.0131  -16.0580   22.3793 O   0  0  0  0  0  0  0  0  0  0  0  0
   11.1046  -18.7442   22.9523 O   0  0  0  0  0  0  0  0  0  0  0  0
    9.7899  -18.8595   23.3337 C   0  0  0  0  0  0  0  0  0  0  0  0
    9.0690  -17.5312   23.3909 C   0  0  2  0  0  0  0  0  0  0  0  0
    9.1531  -16.8607   22.1321 N   0  0  0  0  0  0  0  0  0  0  0  0
    9.5676  -16.6970   24.5175 C   0  0  0  0  0  0  0  0  0  0  0  0
   10.4641  -15.8505   24.2718 O   0  0  0  0  0  0  0  0  0  0  0  0
    9.0874  -16.8092   25.8355 N   0  0  0  0  0  0  0  0  0  0  0  0
    9.6425  -16.0977   26.9773 C   0  0  1  0  0  0  0  0  0  0  0  0
    8.5312  -15.4476   27.7365 C   0  0  0  0  0  0  0  0  0  0  0  0
    7.8135  -14.3799   27.0227 C   0  0  0  0  0  0  0  0  0  0  0  0
    6.5828  -14.5873   26.4400 C   0  0  0  0  0  0  0  0  0  0  0  0
    5.9152  -13.5762   25.7896 C   0  0  0  0  0  0  0  0  0  0  0  0
    6.4481  -12.3086   25.6915 C   0  0  0  0  0  0  0  0  0  0  0  0
    7.6785  -12.1241   26.2808 C   0  0  0  0  0  0  0  0  0  0  0  0
    8.3665  -13.1209   26.9377 C   0  0  0  0  0  0  0  0  0  0  0  0
   10.4207  -16.9735   27.8546 C   0  0  0  0  0  0  0  0  0  0  0  0
   11.2272  -16.5199   28.8898 O   0  0  0  0  0  0  0  0  0  0  0  0
   10.3762  -18.2116   27.6851 O   0  0  0  0  0  0  0  0  0  0  0  0
  1  2  1  0
  2  3  1  0
  3  5  1  0
  3  4  1  6
  5  7  1  0
  5  6  1  1
  7  8  2  0
  9 10  1  0
 11 10  1  6
 12 11  1  0
 12  7  1  0
 13 11  1  0
 13 14  2  0
 15 13  1  0
 16 15  1  0
 16 24  1  0
 16 17  1  1
 18 19  2  0
 18 17  1  0
 20 19  1  0
 21 22  1  0
 21 20  2  0
 22 23  2  0
 23 18  1  0
 24 25  1  0
 26 24  2  0
M  END
$$$$
