ISF.pdb
     RDKit          3D

 26 26  0  0  1  0  0  0  0  0999 V2000
    7.6142  -11.5291   20.0121 C   0  0  0  0  0  0  0  0  0  0  0  0
    7.6641  -13.0250   19.8218 C   0  0  0  0  0  0  0  0  0  0  0  0
    7.8939  -13.7681   21.0976 C   0  0  2  0  0  0  0  0  0  0  0  0
    9.1757  -13.2942   21.7164 C   0  0  0  0  0  0  0  0  0  0  0  0
    7.8638  -15.2689   20.9111 C   0  0  2  0  0  0  0  0  0  0  0  0
    6.5998  -15.5876   20.2365 N   0  0  0  0  0  0  0  0  0  0  0  0
    7.9822  -15.9951   22.1833 C   0  0  0  0  0  0  0  0  0  0  0  0
    6.9905  -16.0073   22.9688 O   0  0  0  0  0  0  0  0  0  0  0  0
   11.4025  -18.2257   23.4546 O   0  0  0  0  0  0  0  0  0  0  0  0
   10.1083  -18.5973   23.7272 C   0  0  0  0  0  0  0  0  0  0  0  0
    9.1589  -17.4233   23.8154 C   0  0  2  0  0  0  0  0  0  0  0  0
    9.1524  -16.6907   22.5888 N   0  0  0  0  0  0  0  0  0  0  0  0
    9.4711  -16.5668   24.9913 C   0  0  0  0  0  0  0  0  0  0  0  0
    9.6556  -15.3390   24.7932 O   0  0  0  0  0  0  0  0  0  0  0  0
    9.5690  -17.0614   26.3051 N   0  0  0  0  0  0  0  0  0  0  0  0
    9.8604  -16.2434   27.4731 C   0  0  1  0  0  0  0  0  0  0  0  0
    8.5829  -15.6819   28.0085 C   0  0  0  0  0  0  0  0  0  0  0  0
    8.0278  -14.5418   27.2624 C   0  0  0  0  0  0  0  0  0  0  0  0
    8.6685  -13.3241   27.2018 C   0  0  0  0  0  0  0  0  0  0  0  0
    8.1467  -12.2715   26.4873 C   0  0  0  0  0  0  0  0  0  0  0  0
    6.9579  -12.3876   25.7990 C   0  0  0  0  0  0  0  0  0  0  0  0
    6.3349  -13.6131   25.8735 C   0  0  0  0  0  0  0  0  0  0  0  0
    6.8378  -14.6823   26.5824 C   0  0  0  0  0  0  0  0  0  0  0  0
   10.5695  -16.9901   28.5132 C   0  0  0  0  0  0  0  0  0  0  0  0
   10.8665  -18.3440   28.4335 O   0  0  0  0  0  0  0  0  0  0  0  0
   10.9433  -16.3983   29.5495 O   0  0  0  0  0  0  0  0  0  0  0  0
  1  2  1  0
  2  3  1  0
  3  5  1  0
  3  4  1  6
  5  7  1  0
  5  6  1  1
  7  8  2  0
  9 10  1  0
 11 10  1  6
 12 11  1  0
 12  7  1  0
 13 11  1  0
 13 14  2  0
 15 13  1  0
 16 15  1  0
 16 24  1  0
 16 17  1  1
 18 19  2  0
 18 17  1  0
 20 19  1  0
 21 22  1  0
 21 20  2  0
 22 23  2  0
 23 18  1  0
 24 25  1  0
 26 24  2  0
M  END
$$$$
