ISF.pdb
     RDKit          3D

 26 26  0  0  1  0  0  0  0  0999 V2000
    7.3598  -11.9538   19.4288 C   0  0  0  0  0  0  0  0  0  0  0  0
    7.6442  -13.4343   19.3672 C   0  0  0  0  0  0  0  0  0  0  0  0
    7.7651  -14.0619   20.7179 C   0  0  2  0  0  0  0  0  0  0  0  0
    8.8317  -13.3492   21.4954 C   0  0  0  0  0  0  0  0  0  0  0  0
    8.0023  -15.5541   20.6476 C   0  0  2  0  0  0  0  0  0  0  0  0
    6.8989  -16.1230   19.8644 N   0  0  0  0  0  0  0  0  0  0  0  0
    8.0806  -16.1734   21.9781 C   0  0  0  0  0  0  0  0  0  0  0  0
    7.0097  -16.3514   22.6278 O   0  0  0  0  0  0  0  0  0  0  0  0
   11.1520  -18.5757   24.5232 O   0  0  0  0  0  0  0  0  0  0  0  0
    9.9710  -18.5528   23.8217 C   0  0  0  0  0  0  0  0  0  0  0  0
    9.2763  -17.2102   23.8712 C   0  0  2  0  0  0  0  0  0  0  0  0
    9.2960  -16.5880   22.5852 N   0  0  0  0  0  0  0  0  0  0  0  0
    9.8548  -16.3446   24.9341 C   0  0  0  0  0  0  0  0  0  0  0  0
   10.8077  -15.5860   24.6222 O   0  0  0  0  0  0  0  0  0  0  0  0
    9.3898  -16.3341   26.2623 N   0  0  0  0  0  0  0  0  0  0  0  0
   10.0093  -15.5850   27.3454 C   0  0  1  0  0  0  0  0  0  0  0  0
    8.9500  -14.8463   28.0980 C   0  0  0  0  0  0  0  0  0  0  0  0
    8.2149  -13.8305   27.3285 C   0  0  0  0  0  0  0  0  0  0  0  0
    8.7562  -12.5977   27.0382 C   0  0  0  0  0  0  0  0  0  0  0  0
    8.0644  -11.6632   26.3039 C   0  0  0  0  0  0  0  0  0  0  0  0
    6.7972  -11.9184   25.8249 C   0  0  0  0  0  0  0  0  0  0  0  0
    6.2760  -13.1563   26.1269 C   0  0  0  0  0  0  0  0  0  0  0  0
    6.9493  -14.1088   26.8605 C   0  0  0  0  0  0  0  0  0  0  0  0
   10.7774  -16.4435   28.2484 C   0  0  0  0  0  0  0  0  0  0  0  0
   10.8318  -17.8271   28.1475 O   0  0  0  0  0  0  0  0  0  0  0  0
   11.4353  -15.9267   29.1778 O   0  0  0  0  0  0  0  0  0  0  0  0
  1  2  1  0
  2  3  1  0
  3  5  1  0
  3  4  1  6
  5  7  1  0
  5  6  1  6
  7  8  2  0
  9 10  1  0
 11 10  1  6
 12 11  1  0
 12  7  1  0
 13 11  1  0
 13 14  2  0
 15 13  1  0
 16 15  1  0
 16 24  1  0
 16 17  1  1
 18 19  2  0
 18 17  1  0
 20 19  1  0
 21 22  1  0
 21 20  2  0
 22 23  2  0
 23 18  1  0
 24 25  1  0
 26 24  2  0
M  END
$$$$
