ISF.pdb
     RDKit          3D

 26 26  0  0  1  0  0  0  0  0999 V2000
    7.3470  -11.9079   19.4713 C   0  0  0  0  0  0  0  0  0  0  0  0
    7.6582  -13.3765   19.3199 C   0  0  0  0  0  0  0  0  0  0  0  0
    7.8690  -14.0661   20.6286 C   0  0  2  0  0  0  0  0  0  0  0  0
    8.9536  -13.3587   21.3859 C   0  0  0  0  0  0  0  0  0  0  0  0
    8.1465  -15.5446   20.4698 C   0  0  2  0  0  0  0  0  0  0  0  0
    7.0580  -16.0956   19.6538 N   0  0  0  0  0  0  0  0  0  0  0  0
    8.2434  -16.2394   21.7612 C   0  0  0  0  0  0  0  0  0  0  0  0
    7.1972  -16.3663   22.4612 O   0  0  0  0  0  0  0  0  0  0  0  0
   11.5546  -18.4969   23.0400 O   0  0  0  0  0  0  0  0  0  0  0  0
   10.2759  -18.6967   23.5008 C   0  0  0  0  0  0  0  0  0  0  0  0
    9.4573  -17.4260   23.5520 C   0  0  2  0  0  0  0  0  0  0  0  0
    9.4507  -16.7823   22.2765 N   0  0  0  0  0  0  0  0  0  0  0  0
    9.9252  -16.5288   24.6428 C   0  0  0  0  0  0  0  0  0  0  0  0
   10.8529  -15.7208   24.3836 O   0  0  0  0  0  0  0  0  0  0  0  0
    9.3831  -16.5411   25.9414 N   0  0  0  0  0  0  0  0  0  0  0  0
    9.9488  -15.8269   27.0764 C   0  0  1  0  0  0  0  0  0  0  0  0
    8.8520  -15.1212   27.8066 C   0  0  0  0  0  0  0  0  0  0  0  0
    8.1972  -14.0297   27.0689 C   0  0  0  0  0  0  0  0  0  0  0  0
    7.8755  -14.1374   25.7340 C   0  0  0  0  0  0  0  0  0  0  0  0
    7.2487  -13.1155   25.0604 C   0  0  0  0  0  0  0  0  0  0  0  0
    6.9140  -11.9364   25.6912 C   0  0  0  0  0  0  0  0  0  0  0  0
    7.2448  -11.8506   27.0248 C   0  0  0  0  0  0  0  0  0  0  0  0
    7.8725  -12.8603   27.7212 C   0  0  0  0  0  0  0  0  0  0  0  0
   10.6825  -16.7122   27.9820 C   0  0  0  0  0  0  0  0  0  0  0  0
   11.4842  -16.2674   29.0245 O   0  0  0  0  0  0  0  0  0  0  0  0
   10.6013  -17.9510   27.8316 O   0  0  0  0  0  0  0  0  0  0  0  0
  1  2  1  0
  2  3  1  0
  3  5  1  0
  3  4  1  6
  5  7  1  0
  5  6  1  6
  7  8  2  0
  9 10  1  0
 11 10  1  6
 12 11  1  0
 12  7  1  0
 13 11  1  0
 13 14  2  0
 15 13  1  0
 16 15  1  0
 16 24  1  0
 16 17  1  1
 18 19  2  0
 18 17  1  0
 20 19  1  0
 21 22  1  0
 21 20  2  0
 22 23  2  0
 23 18  1  0
 24 25  1  0
 26 24  2  0
M  END
$$$$
