ANR.pdb
     RDKit          3D

 25 24  0  0  1  0  0  0  0  0999 V2000
   29.3917  -28.3278  -17.1409 C   0  0  0  0  0  0  0  0  0  0  0  0
   28.0786  -27.5982  -17.0054 C   0  0  2  0  0  0  0  0  0  0  0  0
   27.1946  -27.8762  -18.1277 N   0  0  0  0  0  0  0  0  0  0  0  0
   28.3324  -26.1296  -16.8965 C   0  0  0  0  0  0  0  0  0  0  0  0
   28.9995  -25.7082  -15.9176 O   0  0  0  0  0  0  0  0  0  0  0  0
   28.3881  -21.0190  -17.5509 N   0  0  0  0  0  0  0  0  0  0  0  0
   28.4794  -21.6256  -18.8215 C   0  0  0  0  0  0  0  0  0  0  0  0
   28.7822  -20.9296  -19.8101 O   0  0  0  0  0  0  0  0  0  0  0  0
   28.2203  -23.0549  -18.9691 C   0  0  0  0  0  0  0  0  0  0  0  0
   28.0260  -23.7718  -17.6589 C   0  0  2  0  0  0  0  0  0  0  0  0
   27.8594  -25.1991  -17.8383 N   0  0  0  0  0  0  0  0  0  0  0  0
   26.7813  -23.2207  -17.0480 C   0  0  0  0  0  0  0  0  0  0  0  0
   25.7255  -23.9142  -17.0685 O   0  0  0  0  0  0  0  0  0  0  0  0
   26.2220  -20.4509  -10.1362 N   0  0  0  0  0  0  0  0  0  0  0  0
   24.8296  -20.6562  -10.0473 C   0  0  0  0  0  0  0  0  0  0  0  0
   24.0883  -20.1125   -9.1365 N   0  0  0  0  0  0  0  0  0  0  0  0
   24.1727  -21.5062  -11.0011 N   0  0  0  0  0  0  0  0  0  0  0  0
   24.9768  -22.1931  -11.9780 C   0  0  0  0  0  0  0  0  0  0  0  0
   24.6364  -21.6514  -13.3617 C   0  0  0  0  0  0  0  0  0  0  0  0
   25.7516  -21.9722  -14.2909 C   0  0  0  0  0  0  0  0  0  0  0  0
   25.5160  -21.5287  -15.7028 C   0  0  2  0  0  0  0  0  0  0  0  0
   26.7154  -21.9588  -16.4438 N   0  0  0  0  0  0  0  0  0  0  0  0
   25.3762  -20.0726  -15.7634 C   0  0  0  0  0  0  0  0  0  0  0  0
   24.1598  -19.4379  -15.6837 O   0  0  0  0  0  0  0  0  0  0  0  0
   26.4071  -19.3294  -15.8979 O   0  0  0  0  0  0  0  0  0  0  0  0
  2  1  1  6
  2  3  1  0
  4  2  1  0
  5  4  2  0
  6  7  1  0
  7  9  1  0
  8  7  2  0
 10  9  1  6
 10 11  1  0
 11  4  1  0
 12 10  1  0
 12 22  1  0
 13 12  2  0
 15 16  2  0
 15 14  1  0
 17 15  1  0
 18 17  1  0
 19 18  1  0
 21 20  1  1
 20 19  1  0
 21 22  1  0
 21 23  1  0
 23 24  1  0
 25 23  2  0
M  END
$$$$
