ANR.pdb
     RDKit          3D

 25 24  0  0  1  0  0  0  0  0999 V2000
   29.1425  -21.8063  -18.2957 C   0  0  0  0  0  0  0  0  0  0  0  0
   28.4936  -22.3427  -17.0442 C   0  0  2  0  0  0  0  0  0  0  0  0
   27.4172  -23.2712  -17.3563 N   0  0  0  0  0  0  0  0  0  0  0  0
   27.9763  -21.2059  -16.2237 C   0  0  0  0  0  0  0  0  0  0  0  0
   28.7414  -20.2343  -15.9966 O   0  0  0  0  0  0  0  0  0  0  0  0
   25.9825  -16.4733  -16.0296 N   0  0  0  0  0  0  0  0  0  0  0  0
   25.2815  -17.6867  -15.8655 C   0  0  0  0  0  0  0  0  0  0  0  0
   24.1543  -17.6737  -15.3338 O   0  0  0  0  0  0  0  0  0  0  0  0
   25.8769  -18.9413  -16.3165 C   0  0  0  0  0  0  0  0  0  0  0  0
   26.0699  -19.9489  -15.2138 C   0  0  2  0  0  0  0  0  0  0  0  0
   26.6741  -21.1740  -15.6947 N   0  0  0  0  0  0  0  0  0  0  0  0
   24.7134  -20.2656  -14.6790 C   0  0  0  0  0  0  0  0  0  0  0  0
   23.8891  -20.8792  -15.4139 O   0  0  0  0  0  0  0  0  0  0  0  0
   27.5100  -19.9577  -11.8019 N   0  0  0  0  0  0  0  0  0  0  0  0
   27.6510  -20.7639  -10.6535 C   0  0  0  0  0  0  0  0  0  0  0  0
   28.7133  -21.4576  -10.3989 N   0  0  0  0  0  0  0  0  0  0  0  0
   26.5790  -20.8393   -9.7002 N   0  0  0  0  0  0  0  0  0  0  0  0
   25.3692  -20.1056   -9.9668 C   0  0  0  0  0  0  0  0  0  0  0  0
   24.3340  -21.0618  -10.5483 C   0  0  0  0  0  0  0  0  0  0  0  0
   23.3066  -20.2722  -11.2770 C   0  0  0  0  0  0  0  0  0  0  0  0
   23.1834  -20.6236  -12.7286 C   0  0  2  0  0  0  0  0  0  0  0  0
   24.2951  -19.9159  -13.3888 N   0  0  0  0  0  0  0  0  0  0  0  0
   21.8998  -20.1598  -13.2584 C   0  0  0  0  0  0  0  0  0  0  0  0
   21.7999  -19.1688  -14.2053 O   0  0  0  0  0  0  0  0  0  0  0  0
   20.8057  -20.6742  -12.8438 O   0  0  0  0  0  0  0  0  0  0  0  0
  2  1  1  6
  2  3  1  0
  4  2  1  0
  5  4  2  0
  6  7  1  0
  7  9  1  0
  8  7  2  0
 10  9  1  6
 10 11  1  0
 11  4  1  0
 12 10  1  0
 12 22  1  0
 13 12  2  0
 15 16  2  0
 15 14  1  0
 17 15  1  0
 18 17  1  0
 19 18  1  0
 21 20  1  1
 20 19  1  0
 21 22  1  0
 21 23  1  0
 23 24  1  0
 25 23  2  0
M  END
$$$$
