ANR.pdb
     RDKit          3D

 25 24  0  0  1  0  0  0  0  0999 V2000
   21.6443  -16.3826  -18.3061 C   0  0  0  0  0  0  0  0  0  0  0  0
   22.0445  -16.4790  -16.8550 C   0  0  2  0  0  0  0  0  0  0  0  0
   22.3181  -15.1669  -16.2879 N   0  0  0  0  0  0  0  0  0  0  0  0
   23.2443  -17.3605  -16.7256 C   0  0  0  0  0  0  0  0  0  0  0  0
   23.1074  -18.5927  -16.9349 O   0  0  0  0  0  0  0  0  0  0  0  0
   27.2409  -15.1665  -18.0217 N   0  0  0  0  0  0  0  0  0  0  0  0
   27.3403  -16.5302  -17.6740 C   0  0  0  0  0  0  0  0  0  0  0  0
   27.7493  -17.3481  -18.5209 O   0  0  0  0  0  0  0  0  0  0  0  0
   26.9661  -16.9717  -16.3334 C   0  0  0  0  0  0  0  0  0  0  0  0
   25.6730  -17.7428  -16.2906 C   0  0  2  0  0  0  0  0  0  0  0  0
   24.5176  -16.8745  -16.3809 N   0  0  0  0  0  0  0  0  0  0  0  0
   25.6367  -18.4480  -14.9762 C   0  0  0  0  0  0  0  0  0  0  0  0
   25.2012  -17.8359  -13.9603 O   0  0  0  0  0  0  0  0  0  0  0  0
   22.6252  -19.7690   -8.7772 N   0  0  0  0  0  0  0  0  0  0  0  0
   23.1989  -21.0532   -8.6739 C   0  0  0  0  0  0  0  0  0  0  0  0
   23.2496  -21.7213   -7.5669 N   0  0  0  0  0  0  0  0  0  0  0  0
   23.7632  -21.6769   -9.8385 N   0  0  0  0  0  0  0  0  0  0  0  0
   23.7736  -20.9406  -11.0757 C   0  0  0  0  0  0  0  0  0  0  0  0
   24.4062  -21.8086  -12.1575 C   0  0  0  0  0  0  0  0  0  0  0  0
   24.6303  -20.9780  -13.3699 C   0  0  0  0  0  0  0  0  0  0  0  0
   26.0167  -20.4196  -13.4790 C   0  0  2  0  0  0  0  0  0  0  0  0
   26.0643  -19.7703  -14.8013 N   0  0  0  0  0  0  0  0  0  0  0  0
   27.0071  -21.4953  -13.4052 C   0  0  0  0  0  0  0  0  0  0  0  0
   27.5809  -22.0563  -14.5209 O   0  0  0  0  0  0  0  0  0  0  0  0
   27.3752  -21.9583  -12.2723 O   0  0  0  0  0  0  0  0  0  0  0  0
  2  1  1  6
  2  3  1  0
  4  2  1  0
  5  4  2  0
  6  7  1  0
  7  9  1  0
  8  7  2  0
 10  9  1  1
 10 11  1  0
 11  4  1  0
 12 10  1  0
 12 22  1  0
 13 12  2  0
 15 16  2  0
 15 14  1  0
 17 15  1  0
 18 17  1  0
 19 18  1  0
 21 20  1  6
 20 19  1  0
 21 22  1  0
 21 23  1  0
 23 24  1  0
 25 23  2  0
M  END
$$$$
