ANR.pdb
     RDKit          3D

 25 24  0  0  1  0  0  0  0  0999 V2000
   24.4163  -16.3608  -19.4862 C   0  0  0  0  0  0  0  0  0  0  0  0
   24.4242  -17.4724  -18.4668 C   0  0  2  0  0  0  0  0  0  0  0  0
   24.4609  -18.7808  -19.1032 N   0  0  0  0  0  0  0  0  0  0  0  0
   23.2191  -17.3552  -17.5911 C   0  0  0  0  0  0  0  0  0  0  0  0
   23.0615  -16.2989  -16.9275 O   0  0  0  0  0  0  0  0  0  0  0  0
   18.8253  -18.0489  -15.0390 N   0  0  0  0  0  0  0  0  0  0  0  0
   18.6493  -18.1561  -16.4348 C   0  0  0  0  0  0  0  0  0  0  0  0
   17.4963  -18.1399  -16.9079 O   0  0  0  0  0  0  0  0  0  0  0  0
   19.8110  -18.2846  -17.3100 C   0  0  0  0  0  0  0  0  0  0  0  0
   21.1258  -18.2614  -16.5756 C   0  0  2  0  0  0  0  0  0  0  0  0
   22.2547  -18.3716  -17.4759 N   0  0  0  0  0  0  0  0  0  0  0  0
   21.1286  -19.4413  -15.6624 C   0  0  0  0  0  0  0  0  0  0  0  0
   21.0982  -20.6035  -16.1570 O   0  0  0  0  0  0  0  0  0  0  0  0
   25.4575  -20.5417   -8.5419 N   0  0  0  0  0  0  0  0  0  0  0  0
   26.1130  -20.8779   -9.7445 C   0  0  0  0  0  0  0  0  0  0  0  0
   27.2532  -21.4884   -9.7851 N   0  0  0  0  0  0  0  0  0  0  0  0
   25.5096  -20.5387  -11.0032 N   0  0  0  0  0  0  0  0  0  0  0  0
   24.1588  -20.0406  -11.0060 C   0  0  0  0  0  0  0  0  0  0  0  0
   23.4243  -20.6218  -12.2089 C   0  0  0  0  0  0  0  0  0  0  0  0
   22.0292  -20.1084  -12.2139 C   0  0  0  0  0  0  0  0  0  0  0  0
   21.2286  -20.5295  -13.4087 C   0  0  2  0  0  0  0  0  0  0  0  0
   21.1636  -19.3326  -14.2664 N   0  0  0  0  0  0  0  0  0  0  0  0
   19.8824  -20.9373  -13.0025 C   0  0  0  0  0  0  0  0  0  0  0  0
   19.5551  -22.2404  -12.7137 O   0  0  0  0  0  0  0  0  0  0  0  0
   18.9471  -20.0720  -12.9041 O   0  0  0  0  0  0  0  0  0  0  0  0
  2  1  1  6
  2  3  1  0
  4  2  1  0
  5  4  2  0
  6  7  1  0
  7  9  1  0
  8  7  2  0
 10  9  1  6
 10 11  1  0
 11  4  1  0
 12 10  1  0
 12 22  1  0
 13 12  2  0
 15 16  2  0
 15 14  1  0
 17 15  1  0
 18 17  1  0
 19 18  1  0
 21 20  1  1
 20 19  1  0
 21 22  1  0
 21 23  1  0
 23 24  1  0
 25 23  2  0
M  END
$$$$
