ANR.pdb
     RDKit          3D

 25 24  0  0  1  0  0  0  0  0999 V2000
   28.2016  -24.4673  -19.9677 C   0  0  0  0  0  0  0  0  0  0  0  0
   29.6624  -24.7251  -19.6943 C   0  0  2  0  0  0  0  0  0  0  0  0
   30.4467  -24.7068  -20.9202 N   0  0  0  0  0  0  0  0  0  0  0  0
   29.8160  -26.0394  -19.0000 C   0  0  0  0  0  0  0  0  0  0  0  0
   30.1928  -27.0321  -19.6735 O   0  0  0  0  0  0  0  0  0  0  0  0
   32.1671  -25.7412  -14.8762 N   0  0  0  0  0  0  0  0  0  0  0  0
   31.7585  -26.9109  -15.5510 C   0  0  0  0  0  0  0  0  0  0  0  0
   32.6122  -27.6140  -16.1259 O   0  0  0  0  0  0  0  0  0  0  0  0
   30.3480  -27.2878  -15.5716 C   0  0  0  0  0  0  0  0  0  0  0  0
   29.7939  -27.4777  -16.9591 C   0  0  2  0  0  0  0  0  0  0  0  0
   29.5584  -26.2157  -17.6292 N   0  0  0  0  0  0  0  0  0  0  0  0
   28.4896  -28.1864  -16.8076 C   0  0  0  0  0  0  0  0  0  0  0  0
   27.5161  -27.5791  -16.2787 O   0  0  0  0  0  0  0  0  0  0  0  0
   23.4131  -33.0762  -19.4462 N   0  0  0  0  0  0  0  0  0  0  0  0
   22.5773  -31.9980  -19.8035 C   0  0  0  0  0  0  0  0  0  0  0  0
   21.2863  -32.0801  -19.8343 N   0  0  0  0  0  0  0  0  0  0  0  0
   23.1589  -30.7326  -20.1560 N   0  0  0  0  0  0  0  0  0  0  0  0
   24.5883  -30.5845  -20.0673 C   0  0  0  0  0  0  0  0  0  0  0  0
   24.9833  -30.5116  -18.5967 C   0  0  0  0  0  0  0  0  0  0  0  0
   26.4448  -30.2555  -18.5041 C   0  0  0  0  0  0  0  0  0  0  0  0
   26.9571  -30.1458  -17.1000 C   0  0  2  0  0  0  0  0  0  0  0  0
   28.2795  -29.5070  -17.2245 N   0  0  0  0  0  0  0  0  0  0  0  0
   27.0891  -31.4747  -16.5000 C   0  0  0  0  0  0  0  0  0  0  0  0
   26.0204  -32.1672  -15.9832 O   0  0  0  0  0  0  0  0  0  0  0  0
   28.2314  -32.0439  -16.4351 O   0  0  0  0  0  0  0  0  0  0  0  0
  2  1  1  6
  2  3  1  0
  4  2  1  0
  5  4  2  0
  6  7  1  0
  7  9  1  0
  8  7  2  0
 10  9  1  1
 10 11  1  0
 11  4  1  0
 12 10  1  0
 12 22  1  0
 13 12  2  0
 15 16  2  0
 15 14  1  0
 17 15  1  0
 18 17  1  0
 19 18  1  0
 21 20  1  6
 20 19  1  0
 21 22  1  0
 21 23  1  0
 23 24  1  0
 25 23  2  0
M  END
$$$$
