ANR.pdb
     RDKit          3D

 25 24  0  0  1  0  0  0  0  0999 V2000
   18.9007  -21.3335  -11.0594 C   0  0  0  0  0  0  0  0  0  0  0  0
   18.5325  -22.4793  -11.9686 C   0  0  2  0  0  0  0  0  0  0  0  0
   17.5944  -22.0626  -13.0003 N   0  0  0  0  0  0  0  0  0  0  0  0
   17.9516  -23.5926  -11.1585 C   0  0  0  0  0  0  0  0  0  0  0  0
   16.7061  -23.6232  -10.9889 O   0  0  0  0  0  0  0  0  0  0  0  0
   17.4966  -28.9645   -9.7304 N   0  0  0  0  0  0  0  0  0  0  0  0
   18.3629  -28.0437   -9.1039 C   0  0  0  0  0  0  0  0  0  0  0  0
   18.6277  -28.1806   -7.8936 O   0  0  0  0  0  0  0  0  0  0  0  0
   18.9397  -26.9441   -9.8720 C   0  0  0  0  0  0  0  0  0  0  0  0
   18.1518  -25.6638   -9.7786 C   0  0  2  0  0  0  0  0  0  0  0  0
   18.7342  -24.6062  -10.5782 N   0  0  0  0  0  0  0  0  0  0  0  0
   18.1780  -25.2468   -8.3462 C   0  0  0  0  0  0  0  0  0  0  0  0
   19.1601  -24.5778   -7.9171 O   0  0  0  0  0  0  0  0  0  0  0  0
   14.7257  -23.6857   -1.7665 N   0  0  0  0  0  0  0  0  0  0  0  0
   14.2053  -22.4852   -2.2926 C   0  0  0  0  0  0  0  0  0  0  0  0
   14.0310  -21.4162   -1.5846 N   0  0  0  0  0  0  0  0  0  0  0  0
   13.8412  -22.4147   -3.6805 N   0  0  0  0  0  0  0  0  0  0  0  0
   14.0542  -23.5744   -4.5067 C   0  0  0  0  0  0  0  0  0  0  0  0
   15.5541  -23.7807   -4.6849 C   0  0  0  0  0  0  0  0  0  0  0  0
   15.7751  -24.8920   -5.6473 C   0  0  0  0  0  0  0  0  0  0  0  0
   17.2082  -25.0803   -6.0430 C   0  0  2  0  0  0  0  0  0  0  0  0
   17.1603  -25.5593   -7.4360 N   0  0  0  0  0  0  0  0  0  0  0  0
   17.8476  -26.0787   -5.1839 C   0  0  0  0  0  0  0  0  0  0  0  0
   18.6338  -25.7410   -4.1085 O   0  0  0  0  0  0  0  0  0  0  0  0
   17.6916  -27.3257   -5.4158 O   0  0  0  0  0  0  0  0  0  0  0  0
  2  1  1  1
  2  3  1  0
  4  2  1  0
  5  4  2  0
  6  7  1  0
  7  9  1  0
  8  7  2  0
 10  9  1  1
 10 11  1  0
 11  4  1  0
 12 10  1  0
 12 22  1  0
 13 12  2  0
 15 16  2  0
 15 14  1  0
 17 15  1  0
 18 17  1  0
 19 18  1  0
 21 20  1  1
 20 19  1  0
 21 22  1  0
 21 23  1  0
 23 24  1  0
 25 23  2  0
M  END
$$$$
