ANR.pdb
     RDKit          3D

 25 24  0  0  1  0  0  0  0  0999 V2000
   29.4045  -19.9042  -19.8752 C   0  0  0  0  0  0  0  0  0  0  0  0
   28.7070  -20.7810  -18.8653 C   0  0  2  0  0  0  0  0  0  0  0  0
   28.2550  -22.0287  -19.4628 N   0  0  0  0  0  0  0  0  0  0  0  0
   27.5514  -20.0402  -18.2747 C   0  0  0  0  0  0  0  0  0  0  0  0
   27.7733  -18.9438  -17.7005 O   0  0  0  0  0  0  0  0  0  0  0  0
   25.6228  -17.6438  -19.3005 N   0  0  0  0  0  0  0  0  0  0  0  0
   24.3845  -18.2995  -19.4655 C   0  0  0  0  0  0  0  0  0  0  0  0
   23.5900  -17.8940  -20.3361 O   0  0  0  0  0  0  0  0  0  0  0  0
   24.0440  -19.4411  -18.6212 C   0  0  0  0  0  0  0  0  0  0  0  0
   25.1393  -19.8323  -17.6642 C   0  0  2  0  0  0  0  0  0  0  0  0
   26.2288  -20.5134  -18.3322 N   0  0  0  0  0  0  0  0  0  0  0  0
   24.5303  -20.7669  -16.6732 C   0  0  0  0  0  0  0  0  0  0  0  0
   25.0001  -21.9340  -16.5574 O   0  0  0  0  0  0  0  0  0  0  0  0
   24.0942  -20.5806   -9.3453 N   0  0  0  0  0  0  0  0  0  0  0  0
   25.4624  -20.9209   -9.3117 C   0  0  0  0  0  0  0  0  0  0  0  0
   26.0828  -21.2626   -8.2287 N   0  0  0  0  0  0  0  0  0  0  0  0
   26.2323  -20.8962  -10.5242 N   0  0  0  0  0  0  0  0  0  0  0  0
   25.7416  -20.1220  -11.6345 C   0  0  0  0  0  0  0  0  0  0  0  0
   25.1111  -21.0673  -12.6508 C   0  0  0  0  0  0  0  0  0  0  0  0
   24.5813  -20.2677  -13.7865 C   0  0  0  0  0  0  0  0  0  0  0  0
   23.3811  -20.8715  -14.4503 C   0  0  2  0  0  0  0  0  0  0  0  0
   23.4509  -20.4189  -15.8512 N   0  0  0  0  0  0  0  0  0  0  0  0
   22.1518  -20.3864  -13.8202 C   0  0  0  0  0  0  0  0  0  0  0  0
   21.4468  -21.1236  -12.8992 O   0  0  0  0  0  0  0  0  0  0  0  0
   21.6844  -19.2346  -14.1171 O   0  0  0  0  0  0  0  0  0  0  0  0
  2  1  1  6
  2  3  1  0
  4  2  1  0
  5  4  2  0
  6  7  1  0
  7  9  1  0
  8  7  2  0
 10  9  1  6
 10 11  1  0
 11  4  1  0
 12 10  1  0
 12 22  1  0
 13 12  2  0
 15 16  2  0
 15 14  1  0
 17 15  1  0
 18 17  1  0
 19 18  1  0
 21 20  1  1
 20 19  1  0
 21 22  1  0
 21 23  1  0
 23 24  1  0
 25 23  2  0
M  END
$$$$
