ANR.pdb
     RDKit          3D

 25 24  0  0  1  0  0  0  0  0999 V2000
   29.0664  -19.3476  -19.2196 C   0  0  0  0  0  0  0  0  0  0  0  0
   27.5780  -19.1786  -19.0429 C   0  0  2  0  0  0  0  0  0  0  0  0
   27.2073  -17.7745  -18.9471 N   0  0  0  0  0  0  0  0  0  0  0  0
   27.1332  -19.9170  -17.8222 C   0  0  0  0  0  0  0  0  0  0  0  0
   27.9634  -20.6548  -17.2329 O   0  0  0  0  0  0  0  0  0  0  0  0
   28.6990  -19.4344  -14.5125 N   0  0  0  0  0  0  0  0  0  0  0  0
   27.4729  -20.1305  -14.4595 C   0  0  0  0  0  0  0  0  0  0  0  0
   27.4520  -21.2981  -14.0237 O   0  0  0  0  0  0  0  0  0  0  0  0
   26.2449  -19.4832  -14.9123 C   0  0  0  0  0  0  0  0  0  0  0  0
   25.5025  -20.2652  -15.9638 C   0  0  2  0  0  0  0  0  0  0  0  0
   25.8298  -19.8237  -17.3036 N   0  0  0  0  0  0  0  0  0  0  0  0
   24.0482  -20.0297  -15.7273 C   0  0  0  0  0  0  0  0  0  0  0  0
   23.5190  -18.9647  -16.1539 O   0  0  0  0  0  0  0  0  0  0  0  0
   18.0757  -23.9139  -10.7646 N   0  0  0  0  0  0  0  0  0  0  0  0
   17.2772  -23.2401  -11.7118 C   0  0  0  0  0  0  0  0  0  0  0  0
   15.9939  -23.1169  -11.5997 N   0  0  0  0  0  0  0  0  0  0  0  0
   17.8903  -22.6504  -12.8694 N   0  0  0  0  0  0  0  0  0  0  0  0
   19.3262  -22.6713  -12.9727 C   0  0  0  0  0  0  0  0  0  0  0  0
   19.7340  -21.9936  -14.2759 C   0  0  0  0  0  0  0  0  0  0  0  0
   21.2179  -21.9702  -14.3613 C   0  0  0  0  0  0  0  0  0  0  0  0
   21.7778  -20.6887  -14.8999 C   0  0  2  0  0  0  0  0  0  0  0  0
   23.2232  -20.9358  -15.0489 N   0  0  0  0  0  0  0  0  0  0  0  0
   21.5441  -19.5937  -13.9566 C   0  0  0  0  0  0  0  0  0  0  0  0
   20.4708  -18.7413  -14.0571 O   0  0  0  0  0  0  0  0  0  0  0  0
   22.3530  -19.3912  -12.9882 O   0  0  0  0  0  0  0  0  0  0  0  0
  2  1  1  1
  2  3  1  0
  4  2  1  0
  5  4  2  0
  6  7  1  0
  7  9  1  0
  8  7  2  0
 10  9  1  1
 10 11  1  0
 11  4  1  0
 12 10  1  0
 12 22  1  0
 13 12  2  0
 15 16  2  0
 15 14  1  0
 17 15  1  0
 18 17  1  0
 19 18  1  0
 21 20  1  1
 20 19  1  0
 21 22  1  0
 21 23  1  0
 23 24  1  0
 25 23  2  0
M  END
$$$$
