NSV.pdb
     RDKit          3D

 22 21  0  0  1  0  0  0  0  0999 V2000
   13.4578  -14.3686   19.6996 N   0  0  0  0  0  0  0  0  0  0  0  0
   12.2030  -14.7460   20.2209 C   0  0  0  0  0  0  0  0  0  0  0  0
   12.0680  -15.7216   21.0090 O   0  0  0  0  0  0  0  0  0  0  0  0
   10.9856  -13.9689   19.8315 C   0  0  0  0  0  0  0  0  0  0  0  0
    9.9371  -14.8905   19.2434 C   0  0  2  0  0  0  0  0  0  0  0  0
    9.5863  -14.5288   17.9000 N   0  0  0  0  0  0  0  0  0  0  0  0
    8.7401  -14.8289   20.1548 C   0  0  0  0  0  0  0  0  0  0  0  0
    7.5681  -14.7563   19.6990 O   0  0  0  0  0  0  0  0  0  0  0  0
    7.7035  -17.2916   22.9023 O   0  0  0  0  0  0  0  0  0  0  0  0
    7.0785  -16.2566   22.2126 C   0  0  0  0  0  0  0  0  0  0  0  0
    7.7741  -14.9436   22.4955 C   0  0  2  0  0  0  0  0  0  0  0  0
    8.8836  -14.8500   21.5628 N   0  0  0  0  0  0  0  0  0  0  0  0
    8.2149  -14.8013   23.8921 C   0  0  0  0  0  0  0  0  0  0  0  0
    9.3350  -15.3073   24.2101 O   0  0  0  0  0  0  0  0  0  0  0  0
    5.8774  -12.9923   26.8629 C   0  0  0  0  0  0  0  0  0  0  0  0
    7.3450  -12.6653   26.8038 C   0  0  2  0  0  0  0  0  0  0  0  0
    7.4933  -11.4683   25.8778 C   0  0  0  0  0  0  0  0  0  0  0  0
    8.0934  -13.8155   26.1832 C   0  0  2  0  0  0  0  0  0  0  0  0
    7.4834  -14.1466   24.8905 N   0  0  0  0  0  0  0  0  0  0  0  0
    8.0929  -15.0033   27.0769 C   0  0  0  0  0  0  0  0  0  0  0  0
    7.4401  -16.1706   26.7147 O   0  0  0  0  0  0  0  0  0  0  0  0
    8.6803  -14.9841   28.1798 O   0  0  0  0  0  0  0  0  0  0  0  0
  2  1  1  0
  2  4  1  0
  3  2  2  0
  5  4  1  0
  5  6  1  6
  7  8  2  0
  7  5  1  0
  9 10  1  0
 11 10  1  1
 11 12  1  0
 12  7  1  0
 13 14  2  0
 13 11  1  0
 16 15  1  6
 17 16  1  0
 18 16  1  0
 18 19  1  6
 19 13  1  0
 20 18  1  0
 21 20  1  0
 22 20  2  0
M  END
$$$$
