NSV.pdb
     RDKit          3D

 22 21  0  0  1  0  0  0  0  0999 V2000
   10.9116  -12.8450   11.3430 N   0  0  0  0  0  0  0  0  0  0  0  0
   10.7565  -13.9821   12.1626 C   0  0  0  0  0  0  0  0  0  0  0  0
   11.5248  -14.9792   12.0817 O   0  0  0  0  0  0  0  0  0  0  0  0
    9.6463  -14.0155   13.1645 C   0  0  0  0  0  0  0  0  0  0  0  0
    9.0750  -15.4142   13.2726 C   0  0  2  0  0  0  0  0  0  0  0  0
    8.2311  -15.7450   12.1604 N   0  0  0  0  0  0  0  0  0  0  0  0
    8.3153  -15.4772   14.5711 C   0  0  0  0  0  0  0  0  0  0  0  0
    7.2406  -14.8415   14.7370 O   0  0  0  0  0  0  0  0  0  0  0  0
    9.1409  -18.4891   17.3145 O   0  0  0  0  0  0  0  0  0  0  0  0
    7.9003  -17.8766   17.1614 C   0  0  0  0  0  0  0  0  0  0  0  0
    8.0745  -16.3932   16.9222 C   0  0  2  0  0  0  0  0  0  0  0  0
    8.7787  -16.2542   15.6595 N   0  0  0  0  0  0  0  0  0  0  0  0
    8.7674  -15.6988   18.0189 C   0  0  0  0  0  0  0  0  0  0  0  0
   10.0291  -15.5826   17.9377 O   0  0  0  0  0  0  0  0  0  0  0  0
    6.8031  -14.0620   21.4203 C   0  0  0  0  0  0  0  0  0  0  0  0
    8.1141  -13.5153   20.9235 C   0  0  2  0  0  0  0  0  0  0  0  0
    7.7858  -12.4843   19.8551 C   0  0  0  0  0  0  0  0  0  0  0  0
    8.9028  -14.6167   20.2653 C   0  0  2  0  0  0  0  0  0  0  0  0
    8.1296  -15.1590   19.1424 N   0  0  0  0  0  0  0  0  0  0  0  0
    9.2362  -15.6935   21.2342 C   0  0  0  0  0  0  0  0  0  0  0  0
   10.1995  -15.5026   22.2119 O   0  0  0  0  0  0  0  0  0  0  0  0
    8.6586  -16.8010   21.1957 O   0  0  0  0  0  0  0  0  0  0  0  0
  2  1  1  0
  2  4  1  0
  3  2  2  0
  5  4  1  0
  5  6  1  6
  7  8  2  0
  7  5  1  0
  9 10  1  0
 11 10  1  1
 11 12  1  0
 12  7  1  0
 13 14  2  0
 13 11  1  0
 16 15  1  6
 17 16  1  0
 18 16  1  0
 18 19  1  6
 19 13  1  0
 20 18  1  0
 21 20  1  0
 22 20  2  0
M  END
$$$$
