NSV.pdb
     RDKit          3D

 22 21  0  0  1  0  0  0  0  0999 V2000
   10.9014  -17.3967   18.2060 N   0  0  0  0  0  0  0  0  0  0  0  0
    9.5132  -17.6111   18.0809 C   0  0  0  0  0  0  0  0  0  0  0  0
    8.9860  -17.9891   16.9990 O   0  0  0  0  0  0  0  0  0  0  0  0
    8.6286  -17.3851   19.2657 C   0  0  0  0  0  0  0  0  0  0  0  0
    9.4535  -16.9852   20.4715 C   0  0  2  0  0  0  0  0  0  0  0  0
   10.1524  -18.0986   21.0463 N   0  0  0  0  0  0  0  0  0  0  0  0
    8.5056  -16.3653   21.4637 C   0  0  0  0  0  0  0  0  0  0  0  0
    7.8858  -15.2996   21.2055 O   0  0  0  0  0  0  0  0  0  0  0  0
    7.7677  -18.1515   25.3116 O   0  0  0  0  0  0  0  0  0  0  0  0
    6.8062  -17.5481   24.5060 C   0  0  0  0  0  0  0  0  0  0  0  0
    7.4107  -16.3860   23.7497 C   0  0  2  0  0  0  0  0  0  0  0  0
    8.2723  -16.9559   22.7287 N   0  0  0  0  0  0  0  0  0  0  0  0
    8.1316  -15.4357   24.6113 C   0  0  0  0  0  0  0  0  0  0  0  0
    9.3934  -15.5521   24.6889 O   0  0  0  0  0  0  0  0  0  0  0  0
    6.2067  -12.5017   26.9917 C   0  0  0  0  0  0  0  0  0  0  0  0
    7.5822  -12.2495   26.4364 C   0  0  2  0  0  0  0  0  0  0  0  0
    7.3957  -11.6309   25.0598 C   0  0  0  0  0  0  0  0  0  0  0  0
    8.2998  -13.5608   26.2520 C   0  0  2  0  0  0  0  0  0  0  0  0
    7.5201  -14.4146   25.3488 N   0  0  0  0  0  0  0  0  0  0  0  0
    8.5166  -14.2439   27.5542 C   0  0  0  0  0  0  0  0  0  0  0  0
    9.4349  -13.7593   28.4718 O   0  0  0  0  0  0  0  0  0  0  0  0
    7.8781  -15.2738   27.8595 O   0  0  0  0  0  0  0  0  0  0  0  0
  2  1  1  0
  2  4  1  0
  3  2  2  0
  5  4  1  0
  5  6  1  1
  7  8  2  0
  7  5  1  0
  9 10  1  0
 11 10  1  1
 11 12  1  0
 12  7  1  0
 13 14  2  0
 13 11  1  0
 16 15  1  6
 17 16  1  0
 18 16  1  0
 18 19  1  6
 19 13  1  0
 20 18  1  0
 21 20  1  0
 22 20  2  0
M  END
$$$$
