NSV.pdb
     RDKit          3D

 22 21  0  0  1  0  0  0  0  0999 V2000
    8.5906  -16.3800   16.7422 N   0  0  0  0  0  0  0  0  0  0  0  0
    8.4087  -17.3009   17.7946 C   0  0  0  0  0  0  0  0  0  0  0  0
    8.8274  -18.4890   17.7286 O   0  0  0  0  0  0  0  0  0  0  0  0
    7.6962  -16.8628   19.0347 C   0  0  0  0  0  0  0  0  0  0  0  0
    8.6124  -16.9717   20.2361 C   0  0  2  0  0  0  0  0  0  0  0  0
    8.9135  -18.3343   20.5693 N   0  0  0  0  0  0  0  0  0  0  0  0
    7.9230  -16.2710   21.3767 C   0  0  0  0  0  0  0  0  0  0  0  0
    7.5604  -15.0679   21.2882 O   0  0  0  0  0  0  0  0  0  0  0  0
    7.3786  -18.1507   25.1993 O   0  0  0  0  0  0  0  0  0  0  0  0
    6.3629  -17.4867   24.5172 C   0  0  0  0  0  0  0  0  0  0  0  0
    6.9350  -16.3427   23.7099 C   0  0  2  0  0  0  0  0  0  0  0  0
    7.6541  -16.9367   22.5965 N   0  0  0  0  0  0  0  0  0  0  0  0
    7.7877  -15.4375   24.4964 C   0  0  0  0  0  0  0  0  0  0  0  0
    9.0455  -15.5726   24.3891 O   0  0  0  0  0  0  0  0  0  0  0  0
    6.3127  -12.6875   27.3767 C   0  0  0  0  0  0  0  0  0  0  0  0
    7.5044  -12.3309   26.5299 C   0  0  2  0  0  0  0  0  0  0  0  0
    6.9681  -11.6729   25.2683 C   0  0  0  0  0  0  0  0  0  0  0  0
    8.2235  -13.5879   26.1165 C   0  0  2  0  0  0  0  0  0  0  0  0
    7.3054  -14.4399   25.3523 N   0  0  0  0  0  0  0  0  0  0  0  0
    8.7500  -14.3206   27.2978 C   0  0  0  0  0  0  0  0  0  0  0  0
    8.2940  -15.5905   27.6133 O   0  0  0  0  0  0  0  0  0  0  0  0
    9.6180  -13.8136   28.0403 O   0  0  0  0  0  0  0  0  0  0  0  0
  2  1  1  0
  2  4  1  0
  3  2  2  0
  5  4  1  0
  5  6  1  1
  7  8  2  0
  7  5  1  0
  9 10  1  0
 11 10  1  1
 11 12  1  0
 12  7  1  0
 13 14  2  0
 13 11  1  0
 16 15  1  1
 17 16  1  0
 18 16  1  0
 18 19  1  1
 19 13  1  0
 20 18  1  0
 21 20  1  0
 22 20  2  0
M  END
$$$$
