NSV.pdb
     RDKit          3D

 22 21  0  0  1  0  0  0  0  0999 V2000
    9.1213  -14.6375   17.2593 N   0  0  0  0  0  0  0  0  0  0  0  0
    7.9814  -13.8127   17.3553 C   0  0  0  0  0  0  0  0  0  0  0  0
    7.1746  -13.6664   16.3968 O   0  0  0  0  0  0  0  0  0  0  0  0
    7.7123  -13.0830   18.6330 C   0  0  0  0  0  0  0  0  0  0  0  0
    8.7147  -13.4888   19.6937 C   0  0  2  0  0  0  0  0  0  0  0  0
    9.5300  -14.5937   19.2777 N   0  0  0  0  0  0  0  0  0  0  0  0
    7.9281  -13.8274   20.9321 C   0  0  0  0  0  0  0  0  0  0  0  0
    7.1328  -13.0015   21.4537 O   0  0  0  0  0  0  0  0  0  0  0  0
    6.7905  -17.3906   24.0506 O   0  0  0  0  0  0  0  0  0  0  0  0
    7.3236  -16.9595   22.8392 C   0  0  0  0  0  0  0  0  0  0  0  0
    7.3930  -15.4489   22.8055 C   0  0  2  0  0  0  0  0  0  0  0  0
    8.0507  -15.0893   21.5614 N   0  0  0  0  0  0  0  0  0  0  0  0
    8.0693  -14.8656   23.9749 C   0  0  0  0  0  0  0  0  0  0  0  0
    9.3388  -14.8777   23.9871 O   0  0  0  0  0  0  0  0  0  0  0  0
    5.9992  -12.9767   27.1084 C   0  0  0  0  0  0  0  0  0  0  0  0
    7.3947  -12.5468   26.7452 C   0  0  2  0  0  0  0  0  0  0  0  0
    7.2642  -11.5204   25.6309 C   0  0  0  0  0  0  0  0  0  0  0  0
    8.1570  -13.7226   26.1933 C   0  0  2  0  0  0  0  0  0  0  0  0
    7.4078  -14.2996   25.0714 N   0  0  0  0  0  0  0  0  0  0  0  0
    8.3959  -14.7495   27.2411 C   0  0  0  0  0  0  0  0  0  0  0  0
    9.2493  -14.5013   28.3042 O   0  0  0  0  0  0  0  0  0  0  0  0
    7.8350  -15.8653   27.1942 O   0  0  0  0  0  0  0  0  0  0  0  0
  2  1  1  0
  2  4  1  0
  3  2  2  0
  5  4  1  0
  5  6  1  6
  7  8  2  0
  7  5  1  0
  9 10  1  0
 11 10  1  1
 11 12  1  0
 12  7  1  0
 13 14  2  0
 13 11  1  0
 16 15  1  6
 17 16  1  0
 18 16  1  0
 18 19  1  6
 19 13  1  0
 20 18  1  0
 21 20  1  0
 22 20  2  0
M  END
$$$$
