NSV.pdb
     RDKit          3D

 22 21  0  0  1  0  0  0  0  0999 V2000
   12.4338  -21.0607    6.7684 N   0  0  0  0  0  0  0  0  0  0  0  0
   12.4000  -19.7507    7.2896 C   0  0  0  0  0  0  0  0  0  0  0  0
   12.4008  -18.7312    6.5468 O   0  0  0  0  0  0  0  0  0  0  0  0
   12.3616  -19.5542    8.7719 C   0  0  0  0  0  0  0  0  0  0  0  0
   12.2670  -18.0799    9.1065 C   0  0  2  0  0  0  0  0  0  0  0  0
   13.3903  -17.3365    8.6123 N   0  0  0  0  0  0  0  0  0  0  0  0
   12.1622  -17.9774   10.6051 C   0  0  0  0  0  0  0  0  0  0  0  0
   13.0819  -17.4644   11.2962 O   0  0  0  0  0  0  0  0  0  0  0  0
    8.7659  -17.2299   12.6994 O   0  0  0  0  0  0  0  0  0  0  0  0
    9.3677  -18.4470   13.0061 C   0  0  0  0  0  0  0  0  0  0  0  0
   10.8550  -18.3779   12.7395 C   0  0  2  0  0  0  0  0  0  0  0  0
   11.0244  -18.4540   11.2990 N   0  0  0  0  0  0  0  0  0  0  0  0
   11.6263  -19.4164   13.4406 C   0  0  0  0  0  0  0  0  0  0  0  0
   11.7595  -20.5400   12.8647 O   0  0  0  0  0  0  0  0  0  0  0  0
   14.7264  -18.7950   15.9634 C   0  0  0  0  0  0  0  0  0  0  0  0
   13.7492  -19.8093   16.4927 C   0  0  2  0  0  0  0  0  0  0  0  0
   14.5689  -20.9590   17.0572 C   0  0  0  0  0  0  0  0  0  0  0  0
   12.9234  -20.3544   15.3572 C   0  0  2  0  0  0  0  0  0  0  0  0
   12.2215  -19.2480   14.6967 N   0  0  0  0  0  0  0  0  0  0  0  0
   11.9525  -21.3723   15.8375 C   0  0  0  0  0  0  0  0  0  0  0  0
   12.2299  -22.7265   15.7414 O   0  0  0  0  0  0  0  0  0  0  0  0
   10.8590  -21.0373   16.3413 O   0  0  0  0  0  0  0  0  0  0  0  0
  2  1  1  0
  2  4  1  0
  3  2  2  0
  5  4  1  0
  5  6  1  1
  7  8  2  0
  7  5  1  0
  9 10  1  0
 11 10  1  6
 11 12  1  0
 12  7  1  0
 13 14  2  0
 13 11  1  0
 16 15  1  6
 17 16  1  0
 18 16  1  0
 18 19  1  1
 19 13  1  0
 20 18  1  0
 21 20  1  0
 22 20  2  0
M  END
$$$$
