NSV.pdb
     RDKit          3D

 22 21  0  0  1  0  0  0  0  0999 V2000
   13.7971  -15.7635   19.1836 N   0  0  0  0  0  0  0  0  0  0  0  0
   13.4114  -14.5052   19.6902 C   0  0  0  0  0  0  0  0  0  0  0  0
   14.2109  -13.5315   19.7527 O   0  0  0  0  0  0  0  0  0  0  0  0
   12.0088  -14.3096   20.1721 C   0  0  0  0  0  0  0  0  0  0  0  0
   11.1830  -15.5523   19.9108 C   0  0  2  0  0  0  0  0  0  0  0  0
   10.8413  -15.6972   18.5249 N   0  0  0  0  0  0  0  0  0  0  0  0
    9.9497  -15.4460   20.7681 C   0  0  0  0  0  0  0  0  0  0  0  0
    8.9516  -14.7685   20.4054 O   0  0  0  0  0  0  0  0  0  0  0  0
    8.0563  -18.2813   21.9737 O   0  0  0  0  0  0  0  0  0  0  0  0
    8.3926  -17.6008   23.1405 C   0  0  0  0  0  0  0  0  0  0  0  0
    8.6633  -16.1438   22.8377 C   0  0  2  0  0  0  0  0  0  0  0  0
    9.8618  -16.1039   22.0182 N   0  0  0  0  0  0  0  0  0  0  0  0
    8.7908  -15.3074   24.0415 C   0  0  0  0  0  0  0  0  0  0  0  0
    9.9546  -15.1383   24.5200 O   0  0  0  0  0  0  0  0  0  0  0  0
    6.4405  -12.1369   25.1061 C   0  0  0  0  0  0  0  0  0  0  0  0
    6.6799  -13.1186   26.2211 C   0  0  2  0  0  0  0  0  0  0  0  0
    6.9479  -12.3036   27.4766 C   0  0  0  0  0  0  0  0  0  0  0  0
    7.9194  -13.9223   25.9277 C   0  0  2  0  0  0  0  0  0  0  0  0
    7.7172  -14.6873   24.6921 N   0  0  0  0  0  0  0  0  0  0  0  0
    8.2496  -14.8337   27.0546 C   0  0  0  0  0  0  0  0  0  0  0  0
    9.1002  -14.4332   28.0726 O   0  0  0  0  0  0  0  0  0  0  0  0
    7.7706  -15.9862   27.1171 O   0  0  0  0  0  0  0  0  0  0  0  0
  2  1  1  0
  2  4  1  0
  3  2  2  0
  5  4  1  0
  5  6  1  6
  7  8  2  0
  7  5  1  0
  9 10  1  0
 11 10  1  1
 11 12  1  0
 12  7  1  0
 13 14  2  0
 13 11  1  0
 16 15  1  6
 17 16  1  0
 18 16  1  0
 18 19  1  6
 19 13  1  0
 20 18  1  0
 21 20  1  0
 22 20  2  0
M  END
$$$$
