NSV.pdb
     RDKit          3D

 22 21  0  0  1  0  0  0  0  0999 V2000
    8.7597  -12.6582   16.9201 N   0  0  0  0  0  0  0  0  0  0  0  0
    8.0294  -13.7850   17.3508 C   0  0  0  0  0  0  0  0  0  0  0  0
    7.8168  -14.7760   16.5998 O   0  0  0  0  0  0  0  0  0  0  0  0
    7.4846  -13.8148   18.7436 C   0  0  0  0  0  0  0  0  0  0  0  0
    8.5902  -14.1090   19.7365 C   0  0  2  0  0  0  0  0  0  0  0  0
    9.3782  -15.2449   19.3526 N   0  0  0  0  0  0  0  0  0  0  0  0
    7.9311  -14.3290   21.0723 C   0  0  0  0  0  0  0  0  0  0  0  0
    7.1723  -13.4630   21.5831 O   0  0  0  0  0  0  0  0  0  0  0  0
    9.1736  -17.5039   23.5627 O   0  0  0  0  0  0  0  0  0  0  0  0
    7.8152  -17.2292   23.4317 C   0  0  0  0  0  0  0  0  0  0  0  0
    7.6038  -15.7605   23.1384 C   0  0  2  0  0  0  0  0  0  0  0  0
    8.1378  -15.5195   21.8094 N   0  0  0  0  0  0  0  0  0  0  0  0
    8.2035  -14.8685   24.1432 C   0  0  0  0  0  0  0  0  0  0  0  0
    9.3759  -14.4351   23.9204 O   0  0  0  0  0  0  0  0  0  0  0  0
    6.0319  -13.0744   27.2460 C   0  0  0  0  0  0  0  0  0  0  0  0
    7.2886  -12.4744   26.6761 C   0  0  2  0  0  0  0  0  0  0  0  0
    6.8889  -11.7334   25.4099 C   0  0  0  0  0  0  0  0  0  0  0  0
    8.2374  -13.5745   26.2787 C   0  0  2  0  0  0  0  0  0  0  0  0
    7.5689  -14.4669   25.3250 N   0  0  0  0  0  0  0  0  0  0  0  0
    8.7037  -14.3384   27.4655 C   0  0  0  0  0  0  0  0  0  0  0  0
    8.4623  -15.6980   27.5809 O   0  0  0  0  0  0  0  0  0  0  0  0
    9.3264  -13.7779   28.3927 O   0  0  0  0  0  0  0  0  0  0  0  0
  2  1  1  0
  2  4  1  0
  3  2  2  0
  5  4  1  0
  5  6  1  6
  7  8  2  0
  7  5  1  0
  9 10  1  0
 11 10  1  1
 11 12  1  0
 12  7  1  0
 13 14  2  0
 13 11  1  0
 16 15  1  6
 17 16  1  0
 18 16  1  0
 18 19  1  6
 19 13  1  0
 20 18  1  0
 21 20  1  0
 22 20  2  0
M  END
$$$$
