NSV.pdb
     RDKit          3D

 22 21  0  0  1  0  0  0  0  0999 V2000
    7.5958  -25.1266   16.7098 N   0  0  0  0  0  0  0  0  0  0  0  0
    6.6947  -24.2221   16.1107 C   0  0  0  0  0  0  0  0  0  0  0  0
    6.8157  -22.9724   16.2324 O   0  0  0  0  0  0  0  0  0  0  0  0
    5.5541  -24.7537   15.3021 C   0  0  0  0  0  0  0  0  0  0  0  0
    4.7393  -23.6141   14.7261 C   0  0  2  0  0  0  0  0  0  0  0  0
    5.5364  -22.4479   14.4746 N   0  0  0  0  0  0  0  0  0  0  0  0
    3.6396  -23.3207   15.7119 C   0  0  0  0  0  0  0  0  0  0  0  0
    3.8692  -23.2302   16.9471 O   0  0  0  0  0  0  0  0  0  0  0  0
   -0.8981  -21.6511   16.0975 O   0  0  0  0  0  0  0  0  0  0  0  0
    0.1985  -22.0233   15.3250 C   0  0  0  0  0  0  0  0  0  0  0  0
    1.2112  -22.7596   16.1734 C   0  0  2  0  0  0  0  0  0  0  0  0
    2.3015  -23.1346   15.2900 N   0  0  0  0  0  0  0  0  0  0  0  0
    0.6509  -23.9217   16.8810 C   0  0  0  0  0  0  0  0  0  0  0  0
    0.5275  -25.0042   16.2291 O   0  0  0  0  0  0  0  0  0  0  0  0
    1.6005  -25.3709   20.4191 C   0  0  0  0  0  0  0  0  0  0  0  0
    0.1184  -25.1342   20.3110 C   0  0  2  0  0  0  0  0  0  0  0  0
   -0.5672  -26.3216   20.9685 C   0  0  0  0  0  0  0  0  0  0  0  0
   -0.2859  -25.1219   18.8603 C   0  0  2  0  0  0  0  0  0  0  0  0
    0.2463  -23.9130   18.2214 N   0  0  0  0  0  0  0  0  0  0  0  0
   -1.7638  -25.1797   18.7125 C   0  0  0  0  0  0  0  0  0  0  0  0
   -2.4326  -26.3929   18.6826 O   0  0  0  0  0  0  0  0  0  0  0  0
   -2.4457  -24.1374   18.6109 O   0  0  0  0  0  0  0  0  0  0  0  0
  2  1  1  0
  2  4  1  0
  3  2  2  0
  5  4  1  0
  5  6  1  1
  7  8  2  0
  7  5  1  0
  9 10  1  0
 11 10  1  6
 11 12  1  0
 12  7  1  0
 13 14  2  0
 13 11  1  0
 16 15  1  6
 17 16  1  0
 18 16  1  0
 18 19  1  1
 19 13  1  0
 20 18  1  0
 21 20  1  0
 22 20  2  0
M  END
$$$$
