NSV.pdb
     RDKit          3D

 22 21  0  0  1  0  0  0  0  0999 V2000
    7.1072  -12.7070   18.3213 N   0  0  0  0  0  0  0  0  0  0  0  0
    7.8726  -13.6971   18.9715 C   0  0  0  0  0  0  0  0  0  0  0  0
    8.6907  -14.4300   18.3512 O   0  0  0  0  0  0  0  0  0  0  0  0
    7.7154  -13.8917   20.4463 C   0  0  0  0  0  0  0  0  0  0  0  0
    8.9139  -14.6250   21.0125 C   0  0  2  0  0  0  0  0  0  0  0  0
    9.2339  -15.8055   20.2624 N   0  0  0  0  0  0  0  0  0  0  0  0
    8.5855  -14.9604   22.4432 C   0  0  0  0  0  0  0  0  0  0  0  0
    8.1574  -14.0865   23.2430 O   0  0  0  0  0  0  0  0  0  0  0  0
    9.6874  -18.7107   24.0509 O   0  0  0  0  0  0  0  0  0  0  0  0
    8.4512  -18.1565   24.3711 C   0  0  0  0  0  0  0  0  0  0  0  0
    8.5291  -16.6464   24.3350 C   0  0  2  0  0  0  0  0  0  0  0  0
    8.7449  -16.2730   22.9481 N   0  0  0  0  0  0  0  0  0  0  0  0
    9.5624  -16.0901   25.2226 C   0  0  0  0  0  0  0  0  0  0  0  0
   10.7135  -15.8834   24.7285 O   0  0  0  0  0  0  0  0  0  0  0  0
    8.9086  -14.1123   28.8280 C   0  0  0  0  0  0  0  0  0  0  0  0
   10.1964  -14.0468   28.0523 C   0  0  2  0  0  0  0  0  0  0  0  0
    9.9780  -13.0587   26.9173 C   0  0  0  0  0  0  0  0  0  0  0  0
   10.4828  -15.3908   27.4361 C   0  0  2  0  0  0  0  0  0  0  0  0
    9.3609  -15.7742   26.5717 N   0  0  0  0  0  0  0  0  0  0  0  0
   10.7109  -16.4243   28.4798 C   0  0  0  0  0  0  0  0  0  0  0  0
    9.8401  -17.4914   28.6320 O   0  0  0  0  0  0  0  0  0  0  0  0
   11.6932  -16.3614   29.2497 O   0  0  0  0  0  0  0  0  0  0  0  0
  2  1  1  0
  2  4  1  0
  3  2  2  0
  5  4  1  0
  5  6  1  6
  7  8  2  0
  7  5  1  0
  9 10  1  0
 11 10  1  6
 11 12  1  0
 12  7  1  0
 13 14  2  0
 13 11  1  0
 16 15  1  1
 17 16  1  0
 18 16  1  0
 18 19  1  1
 19 13  1  0
 20 18  1  0
 21 20  1  0
 22 20  2  0
M  END
$$$$
