GHF.pdb
     RDKit          3D

 26 27  0  0  1  0  0  0  0  0999 V2000
   36.5964  -25.6037  -17.8582 N   0  0  0  0  0  0  0  0  0  0  0  0
   36.3719  -27.0157  -18.0778 C   0  0  0  0  0  0  0  0  0  0  0  0
   35.2614  -27.2493  -19.0480 C   0  0  0  0  0  0  0  0  0  0  0  0
   34.6968  -26.2112  -19.4982 O   0  0  0  0  0  0  0  0  0  0  0  0
   34.8613  -28.5521  -19.4429 N   0  0  0  0  0  0  0  0  0  0  0  0
   33.7967  -28.7040  -20.3800 C   0  0  1  0  0  0  0  0  0  0  0  0
   33.8748  -29.8724  -21.2902 C   0  0  0  0  0  0  0  0  0  0  0  0
   32.7807  -30.0191  -22.2618 C   0  0  0  0  0  0  0  0  0  0  0  0
   31.7464  -30.8953  -22.3692 C   0  0  0  0  0  0  0  0  0  0  0  0
   31.0358  -30.5646  -23.4834 N   0  0  0  0  0  0  0  0  0  0  0  0
   31.6110  -29.5141  -24.0525 C   0  0  0  0  0  0  0  0  0  0  0  0
   32.6602  -29.1713  -23.3345 N   0  0  0  0  0  0  0  0  0  0  0  0
   32.5275  -28.9073  -19.5739 C   0  0  0  0  0  0  0  0  0  0  0  0
   32.5557  -29.7595  -18.6578 O   0  0  0  0  0  0  0  0  0  0  0  0
   31.3603  -28.1664  -19.8439 N   0  0  0  0  0  0  0  0  0  0  0  0
   30.1597  -28.4458  -19.0648 C   0  0  1  0  0  0  0  0  0  0  0  0
   29.9189  -27.2864  -18.1390 C   0  0  0  0  0  0  0  0  0  0  0  0
   28.6297  -27.3606  -17.4316 C   0  0  0  0  0  0  0  0  0  0  0  0
   27.5475  -26.5764  -17.8028 C   0  0  0  0  0  0  0  0  0  0  0  0
   26.3388  -26.6419  -17.1513 C   0  0  0  0  0  0  0  0  0  0  0  0
   26.1846  -27.5096  -16.0949 C   0  0  0  0  0  0  0  0  0  0  0  0
   27.2577  -28.3112  -15.6995 C   0  0  0  0  0  0  0  0  0  0  0  0
   28.4586  -28.2360  -16.3583 C   0  0  0  0  0  0  0  0  0  0  0  0
   29.0016  -28.6722  -19.9547 C   0  0  0  0  0  0  0  0  0  0  0  0
   27.9955  -29.5645  -19.6666 O   0  0  0  0  0  0  0  0  0  0  0  0
   28.8836  -28.0390  -21.0495 O   0  0  0  0  0  0  0  0  0  0  0  0
  2  1  1  0
  3  2  1  0
  3  4  2  0
  5  3  1  0
  6  5  1  0
  6 13  1  0
  6  7  1  6
  8  7  1  0
  9  8  2  0
 10 11  1  0
 10  9  1  0
 11 12  2  0
 12  8  1  0
 13 15  1  0
 13 14  2  0
 15 16  1  0
 16 17  1  1
 16 24  1  0
 18 17  1  0
 19 18  2  0
 20 19  1  0
 21 20  2  0
 21 22  1  0
 22 23  2  0
 23 18  1  0
 24 26  2  0
 24 25  1  0
M  END
$$$$
