GHF.pdb
     RDKit          3D

 26 27  0  0  1  0  0  0  0  0999 V2000
   21.3147  -13.5604  -21.0307 N   0  0  0  0  0  0  0  0  0  0  0  0
   21.4175  -12.1176  -21.0237 C   0  0  0  0  0  0  0  0  0  0  0  0
   20.6178  -11.5169  -19.9153 C   0  0  0  0  0  0  0  0  0  0  0  0
   19.9860  -10.4599  -20.2031 O   0  0  0  0  0  0  0  0  0  0  0  0
   20.5667  -12.0921  -18.6192 N   0  0  0  0  0  0  0  0  0  0  0  0
   19.7629  -11.4800  -17.6124 C   0  0  1  0  0  0  0  0  0  0  0  0
   19.3501  -12.3411  -16.4775 C   0  0  0  0  0  0  0  0  0  0  0  0
   18.2413  -11.8446  -15.6490 C   0  0  0  0  0  0  0  0  0  0  0  0
   17.5621  -10.6669  -15.6169 C   0  0  0  0  0  0  0  0  0  0  0  0
   16.6267  -10.7537  -14.6304 N   0  0  0  0  0  0  0  0  0  0  0  0
   16.7211  -11.9496  -14.0654 C   0  0  0  0  0  0  0  0  0  0  0  0
   17.6846  -12.6197  -14.6625 N   0  0  0  0  0  0  0  0  0  0  0  0
   20.5990  -10.3750  -16.9943 C   0  0  0  0  0  0  0  0  0  0  0  0
   21.8411  -10.4463  -17.1298 O   0  0  0  0  0  0  0  0  0  0  0  0
   20.0026   -9.3081  -16.2941 N   0  0  0  0  0  0  0  0  0  0  0  0
   20.8509   -8.2171  -15.8285 C   0  0  1  0  0  0  0  0  0  0  0  0
   21.4698   -7.5570  -17.0288 C   0  0  0  0  0  0  0  0  0  0  0  0
   22.2590   -6.3594  -16.6958 C   0  0  0  0  0  0  0  0  0  0  0  0
   23.5595   -6.4509  -16.2225 C   0  0  0  0  0  0  0  0  0  0  0  0
   24.3056   -5.3384  -15.9132 C   0  0  0  0  0  0  0  0  0  0  0  0
   23.7556   -4.0877  -16.0738 C   0  0  0  0  0  0  0  0  0  0  0  0
   22.4478   -3.9659  -16.5486 C   0  0  0  0  0  0  0  0  0  0  0  0
   21.7143   -5.0843  -16.8536 C   0  0  0  0  0  0  0  0  0  0  0  0
   20.0676   -7.2523  -15.0289 C   0  0  0  0  0  0  0  0  0  0  0  0
   18.6996   -7.1394  -15.1160 O   0  0  0  0  0  0  0  0  0  0  0  0
   20.6370   -6.4667  -14.2091 O   0  0  0  0  0  0  0  0  0  0  0  0
  2  1  1  0
  3  2  1  0
  3  4  2  0
  5  3  1  0
  6  5  1  0
  6 13  1  0
  6  7  1  1
  8  7  1  0
  9  8  2  0
 10 11  1  0
 10  9  1  0
 11 12  2  0
 12  8  1  0
 13 15  1  0
 13 14  2  0
 15 16  1  0
 16 17  1  6
 16 24  1  0
 18 17  1  0
 19 18  2  0
 20 19  1  0
 21 20  2  0
 21 22  1  0
 22 23  2  0
 23 18  1  0
 24 26  2  0
 24 25  1  0
M  END
$$$$
