GHF.pdb
     RDKit          3D

 26 27  0  0  1  0  0  0  0  0999 V2000
   22.8229  -21.2535   -9.6791 N   0  0  0  0  0  0  0  0  0  0  0  0
   22.2525  -21.6741  -10.9401 C   0  0  0  0  0  0  0  0  0  0  0  0
   22.4523  -20.6443  -12.0023 C   0  0  0  0  0  0  0  0  0  0  0  0
   23.0987  -19.6142  -11.6552 O   0  0  0  0  0  0  0  0  0  0  0  0
   21.9504  -20.8065  -13.3196 N   0  0  0  0  0  0  0  0  0  0  0  0
   22.2798  -19.8429  -14.3183 C   0  0  1  0  0  0  0  0  0  0  0  0
   23.0674  -20.3299  -15.4769 C   0  0  0  0  0  0  0  0  0  0  0  0
   24.3308  -21.0158  -15.1672 C   0  0  0  0  0  0  0  0  0  0  0  0
   24.6576  -22.3242  -14.9926 C   0  0  0  0  0  0  0  0  0  0  0  0
   25.9894  -22.3860  -14.7132 N   0  0  0  0  0  0  0  0  0  0  0  0
   26.4768  -21.1528  -14.7139 C   0  0  0  0  0  0  0  0  0  0  0  0
   25.4970  -20.3156  -14.9843 N   0  0  0  0  0  0  0  0  0  0  0  0
   20.9691  -19.3503  -14.9026 C   0  0  0  0  0  0  0  0  0  0  0  0
   20.0300  -20.1730  -14.9889 O   0  0  0  0  0  0  0  0  0  0  0  0
   20.8123  -18.0179  -15.3324 N   0  0  0  0  0  0  0  0  0  0  0  0
   19.4965  -17.5797  -15.7833 C   0  0  1  0  0  0  0  0  0  0  0  0
   18.9731  -16.5719  -14.7986 C   0  0  0  0  0  0  0  0  0  0  0  0
   18.6848  -17.1443  -13.4730 C   0  0  0  0  0  0  0  0  0  0  0  0
   17.4466  -17.6892  -13.1670 C   0  0  0  0  0  0  0  0  0  0  0  0
   17.1696  -18.2298  -11.9338 C   0  0  0  0  0  0  0  0  0  0  0  0
   18.1439  -18.2364  -10.9626 C   0  0  0  0  0  0  0  0  0  0  0  0
   19.4000  -17.6941  -11.2431 C   0  0  0  0  0  0  0  0  0  0  0  0
   19.6633  -17.1579  -12.4780 C   0  0  0  0  0  0  0  0  0  0  0  0
   19.5748  -17.0102  -17.1447 C   0  0  0  0  0  0  0  0  0  0  0  0
   18.4645  -16.6976  -17.8938 O   0  0  0  0  0  0  0  0  0  0  0  0
   20.6965  -16.7810  -17.6950 O   0  0  0  0  0  0  0  0  0  0  0  0
  2  1  1  0
  3  2  1  0
  3  4  2  0
  5  3  1  0
  6  5  1  0
  6 13  1  0
  6  7  1  6
  8  7  1  0
  9  8  2  0
 10 11  1  0
 10  9  1  0
 11 12  2  0
 12  8  1  0
 13 15  1  0
 13 14  2  0
 15 16  1  0
 16 17  1  1
 16 24  1  0
 18 17  1  0
 19 18  2  0
 20 19  1  0
 21 20  2  0
 21 22  1  0
 22 23  2  0
 23 18  1  0
 24 26  2  0
 24 25  1  0
M  END
$$$$
