GHF.pdb
     RDKit          3D

 26 27  0  0  1  0  0  0  0  0999 V2000
   32.1763  -31.0932  -17.5619 N   0  0  0  0  0  0  0  0  0  0  0  0
   31.7545  -31.9012  -16.4387 C   0  0  0  0  0  0  0  0  0  0  0  0
   30.2663  -31.9676  -16.3398 C   0  0  0  0  0  0  0  0  0  0  0  0
   29.6297  -31.5995  -17.3687 O   0  0  0  0  0  0  0  0  0  0  0  0
   29.6035  -32.4147  -15.1676 N   0  0  0  0  0  0  0  0  0  0  0  0
   28.2174  -32.7455  -15.2295 C   0  0  1  0  0  0  0  0  0  0  0  0
   27.8340  -33.8264  -16.1699 C   0  0  0  0  0  0  0  0  0  0  0  0
   26.3933  -34.0753  -16.3283 C   0  0  0  0  0  0  0  0  0  0  0  0
   25.2915  -33.5737  -15.7090 C   0  0  0  0  0  0  0  0  0  0  0  0
   24.1980  -34.1734  -16.2569 N   0  0  0  0  0  0  0  0  0  0  0  0
   24.6071  -35.0229  -17.1891 C   0  0  0  0  0  0  0  0  0  0  0  0
   25.9219  -34.9790  -17.2475 N   0  0  0  0  0  0  0  0  0  0  0  0
   27.8248  -33.2520  -13.8543 C   0  0  0  0  0  0  0  0  0  0  0  0
   28.5080  -34.1787  -13.3636 O   0  0  0  0  0  0  0  0  0  0  0  0
   26.7334  -32.7020  -13.1539 N   0  0  0  0  0  0  0  0  0  0  0  0
   26.4209  -33.2218  -11.8278 C   0  0  1  0  0  0  0  0  0  0  0  0
   26.3719  -32.0656  -10.8685 C   0  0  0  0  0  0  0  0  0  0  0  0
   26.0161  -32.4595   -9.4952 C   0  0  0  0  0  0  0  0  0  0  0  0
   24.7266  -32.3147   -9.0053 C   0  0  0  0  0  0  0  0  0  0  0  0
   24.3840  -32.6837   -7.7262 C   0  0  0  0  0  0  0  0  0  0  0  0
   25.3425  -33.2153   -6.8947 C   0  0  0  0  0  0  0  0  0  0  0  0
   26.6493  -33.3724   -7.3616 C   0  0  0  0  0  0  0  0  0  0  0  0
   26.9778  -33.0001   -8.6404 C   0  0  0  0  0  0  0  0  0  0  0  0
   25.1406  -33.9598  -11.8454 C   0  0  0  0  0  0  0  0  0  0  0  0
   24.9330  -35.1216  -11.1392 O   0  0  0  0  0  0  0  0  0  0  0  0
   24.1548  -33.5443  -12.5303 O   0  0  0  0  0  0  0  0  0  0  0  0
  2  1  1  0
  3  2  1  0
  3  4  2  0
  5  3  1  0
  6  5  1  0
  6 13  1  0
  6  7  1  6
  8  7  1  0
  9  8  2  0
 10 11  1  0
 10  9  1  0
 11 12  2  0
 12  8  1  0
 13 15  1  0
 13 14  2  0
 15 16  1  0
 16 17  1  1
 16 24  1  0
 18 17  1  0
 19 18  2  0
 20 19  1  0
 21 20  2  0
 21 22  1  0
 22 23  2  0
 23 18  1  0
 24 26  2  0
 24 25  1  0
M  END
$$$$
