GHF.pdb
     RDKit          3D

 26 27  0  0  1  0  0  0  0  0999 V2000
   22.3527  -27.5253  -16.9276 N   0  0  0  0  0  0  0  0  0  0  0  0
   23.2041  -26.3893  -16.6500 C   0  0  0  0  0  0  0  0  0  0  0  0
   22.4409  -25.2755  -16.0129 C   0  0  0  0  0  0  0  0  0  0  0  0
   23.1251  -24.2737  -15.6558 O   0  0  0  0  0  0  0  0  0  0  0  0
   21.0365  -25.3329  -15.8182 N   0  0  0  0  0  0  0  0  0  0  0  0
   20.3761  -24.2542  -15.1588 C   0  0  1  0  0  0  0  0  0  0  0  0
   19.2886  -23.5822  -15.9107 C   0  0  0  0  0  0  0  0  0  0  0  0
   19.7006  -22.5549  -16.8790 C   0  0  0  0  0  0  0  0  0  0  0  0
   20.9085  -22.0291  -17.2165 C   0  0  0  0  0  0  0  0  0  0  0  0
   20.6982  -21.0914  -18.1819 N   0  0  0  0  0  0  0  0  0  0  0  0
   19.3983  -21.0352  -18.4375 C   0  0  0  0  0  0  0  0  0  0  0  0
   18.7819  -21.9061  -17.6657 N   0  0  0  0  0  0  0  0  0  0  0  0
   19.7114  -24.8348  -13.9247 C   0  0  0  0  0  0  0  0  0  0  0  0
   19.2316  -25.9871  -14.0154 O   0  0  0  0  0  0  0  0  0  0  0  0
   19.6357  -24.1068  -12.7211 N   0  0  0  0  0  0  0  0  0  0  0  0
   18.9232  -24.6949  -11.5927 C   0  0  1  0  0  0  0  0  0  0  0  0
   19.8577  -24.7367  -10.4161 C   0  0  0  0  0  0  0  0  0  0  0  0
   19.2150  -25.1995   -9.1748 C   0  0  0  0  0  0  0  0  0  0  0  0
   18.8587  -24.3179   -8.1650 C   0  0  0  0  0  0  0  0  0  0  0  0
   18.2544  -24.7401   -7.0047 C   0  0  0  0  0  0  0  0  0  0  0  0
   17.9890  -26.0783   -6.8270 C   0  0  0  0  0  0  0  0  0  0  0  0
   18.3371  -26.9884   -7.8275 C   0  0  0  0  0  0  0  0  0  0  0  0
   18.9397  -26.5538   -8.9807 C   0  0  0  0  0  0  0  0  0  0  0  0
   17.7045  -23.9181  -11.2836 C   0  0  0  0  0  0  0  0  0  0  0  0
   17.6567  -22.5444  -11.3305 O   0  0  0  0  0  0  0  0  0  0  0  0
   16.6245  -24.4989  -10.9525 O   0  0  0  0  0  0  0  0  0  0  0  0
  2  1  1  0
  3  2  1  0
  3  4  2  0
  5  3  1  0
  6  5  1  0
  6 13  1  0
  6  7  1  6
  8  7  1  0
  9  8  2  0
 10 11  1  0
 10  9  1  0
 11 12  2  0
 12  8  1  0
 13 15  1  0
 13 14  2  0
 15 16  1  0
 16 17  1  1
 16 24  1  0
 18 17  1  0
 19 18  2  0
 20 19  1  0
 21 20  2  0
 21 22  1  0
 22 23  2  0
 23 18  1  0
 24 26  2  0
 24 25  1  0
M  END
$$$$
