GHF.pdb
     RDKit          3D

 26 27  0  0  1  0  0  0  0  0999 V2000
   28.1808  -25.6195  -16.4373 N   0  0  0  0  0  0  0  0  0  0  0  0
   26.8060  -25.1701  -16.4277 C   0  0  0  0  0  0  0  0  0  0  0  0
   26.6896  -23.7739  -15.9118 C   0  0  0  0  0  0  0  0  0  0  0  0
   27.7645  -23.1085  -15.8785 O   0  0  0  0  0  0  0  0  0  0  0  0
   25.4533  -23.2240  -15.4848 N   0  0  0  0  0  0  0  0  0  0  0  0
   25.3971  -21.8575  -15.0796 C   0  0  1  0  0  0  0  0  0  0  0  0
   24.1690  -21.1080  -15.4397 C   0  0  0  0  0  0  0  0  0  0  0  0
   24.0709  -20.6424  -16.8311 C   0  0  0  0  0  0  0  0  0  0  0  0
   24.9323  -20.6738  -17.8829 C   0  0  0  0  0  0  0  0  0  0  0  0
   24.3131  -20.0863  -18.9445 N   0  0  0  0  0  0  0  0  0  0  0  0
   23.1026  -19.7006  -18.5647 C   0  0  0  0  0  0  0  0  0  0  0  0
   22.9378  -20.0252  -17.2992 N   0  0  0  0  0  0  0  0  0  0  0  0
   25.4438  -21.8467  -13.5631 C   0  0  0  0  0  0  0  0  0  0  0  0
   24.7223  -22.6705  -12.9574 O   0  0  0  0  0  0  0  0  0  0  0  0
   26.2672  -20.9449  -12.8609 N   0  0  0  0  0  0  0  0  0  0  0  0
   26.3129  -21.0285  -11.4058 C   0  0  1  0  0  0  0  0  0  0  0  0
   27.4930  -20.2312  -10.9253 C   0  0  0  0  0  0  0  0  0  0  0  0
   27.6424  -20.2323   -9.4605 C   0  0  0  0  0  0  0  0  0  0  0  0
   28.4580  -21.1469   -8.8108 C   0  0  0  0  0  0  0  0  0  0  0  0
   28.6071  -21.1528   -7.4442 C   0  0  0  0  0  0  0  0  0  0  0  0
   27.9306  -20.2264   -6.6848 C   0  0  0  0  0  0  0  0  0  0  0  0
   27.1022  -19.2935   -7.3127 C   0  0  0  0  0  0  0  0  0  0  0  0
   26.9623  -19.2986   -8.6773 C   0  0  0  0  0  0  0  0  0  0  0  0
   25.0525  -20.5319  -10.8151 C   0  0  0  0  0  0  0  0  0  0  0  0
   24.2914  -19.5416  -11.3911 O   0  0  0  0  0  0  0  0  0  0  0  0
   24.6084  -21.0080   -9.7245 O   0  0  0  0  0  0  0  0  0  0  0  0
  2  1  1  0
  3  2  1  0
  3  4  2  0
  5  3  1  0
  6  5  1  0
  6 13  1  0
  6  7  1  1
  8  7  1  0
  9  8  2  0
 10 11  1  0
 10  9  1  0
 11 12  2  0
 12  8  1  0
 13 15  1  0
 13 14  2  0
 15 16  1  0
 16 17  1  1
 16 24  1  0
 18 17  1  0
 19 18  2  0
 20 19  1  0
 21 20  2  0
 21 22  1  0
 22 23  2  0
 23 18  1  0
 24 26  2  0
 24 25  1  0
M  END
$$$$
