GHF.pdb
     RDKit          3D

 26 27  0  0  1  0  0  0  0  0999 V2000
   27.0485  -17.0783  -15.4431 N   0  0  0  0  0  0  0  0  0  0  0  0
   27.4224  -18.3703  -14.9110 C   0  0  0  0  0  0  0  0  0  0  0  0
   26.4898  -19.4422  -15.3693 C   0  0  0  0  0  0  0  0  0  0  0  0
   25.9365  -19.2479  -16.4898 O   0  0  0  0  0  0  0  0  0  0  0  0
   26.2370  -20.6073  -14.5998 N   0  0  0  0  0  0  0  0  0  0  0  0
   25.3441  -21.5991  -15.1032 C   0  0  1  0  0  0  0  0  0  0  0  0
   25.9005  -22.9614  -15.2878 C   0  0  0  0  0  0  0  0  0  0  0  0
   27.1016  -23.0690  -16.1296 C   0  0  0  0  0  0  0  0  0  0  0  0
   27.7895  -22.1707  -16.8839 C   0  0  0  0  0  0  0  0  0  0  0  0
   28.8318  -22.8278  -17.4647 N   0  0  0  0  0  0  0  0  0  0  0  0
   28.7936  -24.0972  -17.0834 C   0  0  0  0  0  0  0  0  0  0  0  0
   27.7622  -24.2625  -16.2815 N   0  0  0  0  0  0  0  0  0  0  0  0
   24.2363  -21.7537  -14.0780 C   0  0  0  0  0  0  0  0  0  0  0  0
   24.2960  -22.7379  -13.3074 O   0  0  0  0  0  0  0  0  0  0  0  0
   23.1794  -20.8261  -13.9945 N   0  0  0  0  0  0  0  0  0  0  0  0
   22.2362  -20.9396  -12.8881 C   0  0  1  0  0  0  0  0  0  0  0  0
   22.4703  -19.7887  -11.9500 C   0  0  0  0  0  0  0  0  0  0  0  0
   23.5782  -20.0181  -11.0078 C   0  0  0  0  0  0  0  0  0  0  0  0
   23.3509  -20.3784   -9.6878 C   0  0  0  0  0  0  0  0  0  0  0  0
   24.3788  -20.5989   -8.8021 C   0  0  0  0  0  0  0  0  0  0  0  0
   25.6802  -20.4607   -9.2264 C   0  0  0  0  0  0  0  0  0  0  0  0
   25.9384  -20.0986  -10.5503 C   0  0  0  0  0  0  0  0  0  0  0  0
   24.9033  -19.8816  -11.4240 C   0  0  0  0  0  0  0  0  0  0  0  0
   20.8454  -20.9512  -13.3877 C   0  0  0  0  0  0  0  0  0  0  0  0
   19.7711  -21.3194  -12.6119 O   0  0  0  0  0  0  0  0  0  0  0  0
   20.5763  -20.6153  -14.5828 O   0  0  0  0  0  0  0  0  0  0  0  0
  2  1  1  0
  3  2  1  0
  3  4  2  0
  5  3  1  0
  6  5  1  0
  6 13  1  0
  6  7  1  1
  8  7  1  0
  9  8  2  0
 10 11  1  0
 10  9  1  0
 11 12  2  0
 12  8  1  0
 13 15  1  0
 13 14  2  0
 15 16  1  0
 16 17  1  1
 16 24  1  0
 18 17  1  0
 19 18  2  0
 20 19  1  0
 21 20  2  0
 21 22  1  0
 22 23  2  0
 23 18  1  0
 24 26  2  0
 24 25  1  0
M  END
$$$$
