GHF.pdb
     RDKit          3D

 26 27  0  0  1  0  0  0  0  0999 V2000
   12.5137  -16.6143    5.5743 N   0  0  0  0  0  0  0  0  0  0  0  0
   13.7029  -15.7968    5.6731 C   0  0  0  0  0  0  0  0  0  0  0  0
   14.8233  -16.5365    6.3261 C   0  0  0  0  0  0  0  0  0  0  0  0
   15.0643  -16.2217    7.5270 O   0  0  0  0  0  0  0  0  0  0  0  0
   15.5734  -17.5308    5.6462 N   0  0  0  0  0  0  0  0  0  0  0  0
   16.4899  -18.3408    6.3800 C   0  0  1  0  0  0  0  0  0  0  0  0
   16.7901  -19.6799    5.8176 C   0  0  0  0  0  0  0  0  0  0  0  0
   15.8014  -20.7364    6.0799 C   0  0  0  0  0  0  0  0  0  0  0  0
   14.6331  -20.7618    6.7753 C   0  0  0  0  0  0  0  0  0  0  0  0
   14.1274  -22.0240    6.6918 N   0  0  0  0  0  0  0  0  0  0  0  0
   14.9563  -22.7619    5.9662 C   0  0  0  0  0  0  0  0  0  0  0  0
   15.9676  -22.0075    5.5894 N   0  0  0  0  0  0  0  0  0  0  0  0
   17.8160  -17.6037    6.3912 C   0  0  0  0  0  0  0  0  0  0  0  0
   18.1143  -16.9364    5.3754 O   0  0  0  0  0  0  0  0  0  0  0  0
   18.6807  -17.6663    7.5015 N   0  0  0  0  0  0  0  0  0  0  0  0
   19.8848  -16.8436    7.4963 C   0  0  1  0  0  0  0  0  0  0  0  0
   19.6017  -15.5899    8.2757 C   0  0  0  0  0  0  0  0  0  0  0  0
   20.7471  -14.6666    8.3346 C   0  0  0  0  0  0  0  0  0  0  0  0
   20.9332  -13.6733    7.3847 C   0  0  0  0  0  0  0  0  0  0  0  0
   21.9970  -12.8038    7.4339 C   0  0  0  0  0  0  0  0  0  0  0  0
   22.9140  -12.9123    8.4537 C   0  0  0  0  0  0  0  0  0  0  0  0
   22.7514  -13.9035    9.4240 C   0  0  0  0  0  0  0  0  0  0  0  0
   21.6853  -14.7646    9.3631 C   0  0  0  0  0  0  0  0  0  0  0  0
   21.0263  -17.5866    8.0699 C   0  0  0  0  0  0  0  0  0  0  0  0
   22.3294  -17.3791    7.6821 O   0  0  0  0  0  0  0  0  0  0  0  0
   20.8490  -18.4700    8.9653 O   0  0  0  0  0  0  0  0  0  0  0  0
  2  1  1  0
  3  2  1  0
  3  4  2  0
  5  3  1  0
  6  5  1  0
  6 13  1  0
  6  7  1  6
  8  7  1  0
  9  8  2  0
 10 11  1  0
 10  9  1  0
 11 12  2  0
 12  8  1  0
 13 15  1  0
 13 14  2  0
 15 16  1  0
 16 17  1  1
 16 24  1  0
 18 17  1  0
 19 18  2  0
 20 19  1  0
 21 20  2  0
 21 22  1  0
 22 23  2  0
 23 18  1  0
 24 26  2  0
 24 25  1  0
M  END
$$$$
