TNC.pdb
     RDKit          3D

 22 21  0  0  1  0  0  0  0  0999 V2000
   22.3035  -11.7802  -17.1671 C   0  0  0  0  0  0  0  0  0  0  0  0
   21.0388  -12.3432  -17.7740 C   0  0  1  0  0  0  0  0  0  0  0  0
   21.2417  -13.6944  -18.0107 O   0  0  0  0  0  0  0  0  0  0  0  0
   19.8877  -12.0977  -16.7985 C   0  0  2  0  0  0  0  0  0  0  0  0
   18.7382  -12.8706  -17.1568 N   0  0  0  0  0  0  0  0  0  0  0  0
   19.6180  -10.6742  -16.6055 C   0  0  0  0  0  0  0  0  0  0  0  0
   19.6734   -9.9092  -17.6020 O   0  0  0  0  0  0  0  0  0  0  0  0
   16.4294   -9.2169  -16.0299 N   0  0  0  0  0  0  0  0  0  0  0  0
   16.5760   -8.7540  -14.7047 C   0  0  0  0  0  0  0  0  0  0  0  0
   15.5452   -8.5276  -14.0268 O   0  0  0  0  0  0  0  0  0  0  0  0
   17.9174   -8.5468  -14.1370 C   0  0  0  0  0  0  0  0  0  0  0  0
   19.0530   -8.7727  -15.0964 C   0  0  2  0  0  0  0  0  0  0  0  0
   19.3010  -10.1686  -15.3210 N   0  0  0  0  0  0  0  0  0  0  0  0
   20.2381   -8.0165  -14.7018 C   0  0  0  0  0  0  0  0  0  0  0  0
   20.9773   -8.4283  -13.7847 O   0  0  0  0  0  0  0  0  0  0  0  0
   20.6371   -6.7846  -15.3108 N   0  0  0  0  0  0  0  0  0  0  0  0
   21.8700   -6.1229  -14.9558 C   0  0  1  0  0  0  0  0  0  0  0  0
   22.4999   -5.4152  -16.1390 C   0  0  0  0  0  0  0  0  0  0  0  0
   24.0292   -4.6305  -15.5080 S   0  0  0  0  0  0  0  0  0  0  0  0
   21.6502   -5.1241  -13.8875 C   0  0  0  0  0  0  0  0  0  0  0  0
   20.3978   -4.6590  -13.5651 O   0  0  0  0  0  0  0  0  0  0  0  0
   22.6433   -4.6931  -13.2611 O   0  0  0  0  0  0  0  0  0  0  0  0
  2  1  1  1
  2  3  1  0
  4  2  1  0
  4  6  1  0
  4  5  1  6
  6  7  2  0
  6 13  1  0
  9 11  1  0
  9  8  1  0
 10  9  2  0
 12 11  1  1
 12 14  1  0
 13 12  1  0
 14 16  1  0
 14 15  2  0
 16 17  1  0
 17 20  1  0
 17 18  1  6
 18 19  1  0
 20 21  1  0
 22 20  2  0
M  END
$$$$
