TNC.pdb
     RDKit          3D

 22 21  0  0  1  0  0  0  0  0999 V2000
   16.6279  -11.2281  -10.9214 C   0  0  0  0  0  0  0  0  0  0  0  0
   15.1226  -11.3576  -10.9663 C   0  0  1  0  0  0  0  0  0  0  0  0
   14.7973  -12.6764  -10.6872 O   0  0  0  0  0  0  0  0  0  0  0  0
   14.5269  -10.3905   -9.9431 C   0  0  2  0  0  0  0  0  0  0  0  0
   13.1175  -10.5945   -9.8046 N   0  0  0  0  0  0  0  0  0  0  0  0
   14.9105   -9.0040  -10.2013 C   0  0  0  0  0  0  0  0  0  0  0  0
   14.4084   -8.4135  -11.1916 O   0  0  0  0  0  0  0  0  0  0  0  0
   16.7782   -4.2496   -9.9682 N   0  0  0  0  0  0  0  0  0  0  0  0
   16.2616   -4.6549   -8.7190 C   0  0  0  0  0  0  0  0  0  0  0  0
   16.0556   -3.7843   -7.8397 O   0  0  0  0  0  0  0  0  0  0  0  0
   15.9703   -6.0741   -8.4634 C   0  0  0  0  0  0  0  0  0  0  0  0
   16.2680   -6.9985   -9.6115 C   0  0  2  0  0  0  0  0  0  0  0  0
   15.8298   -8.3406   -9.3522 N   0  0  0  0  0  0  0  0  0  0  0  0
   17.6659   -6.9005  -10.0216 C   0  0  0  0  0  0  0  0  0  0  0  0
   18.5742   -6.8335   -9.1686 O   0  0  0  0  0  0  0  0  0  0  0  0
   18.0965   -6.8739  -11.3861 N   0  0  0  0  0  0  0  0  0  0  0  0
   19.4921   -6.7816  -11.7432 C   0  0  1  0  0  0  0  0  0  0  0  0
   19.9078   -7.8725  -12.7100 C   0  0  0  0  0  0  0  0  0  0  0  0
   19.7108   -9.4541  -11.8087 S   0  0  0  0  0  0  0  0  0  0  0  0
   19.7974   -5.4755  -12.3663 C   0  0  0  0  0  0  0  0  0  0  0  0
   21.0860   -5.0550  -12.5937 O   0  0  0  0  0  0  0  0  0  0  0  0
   18.8448   -4.7344  -12.6942 O   0  0  0  0  0  0  0  0  0  0  0  0
  2  1  1  1
  2  3  1  0
  4  2  1  0
  4  6  1  0
  4  5  1  6
  6  7  2  0
  6 13  1  0
  9 11  1  0
  9  8  1  0
 10  9  2  0
 12 11  1  1
 12 14  1  0
 13 12  1  0
 14 16  1  0
 14 15  2  0
 16 17  1  0
 17 20  1  0
 17 18  1  6
 18 19  1  0
 20 21  1  0
 22 20  2  0
M  END
$$$$
