TNC.pdb
     RDKit          3D

 22 21  0  0  1  0  0  0  0  0999 V2000
   15.5600  -12.1337  -11.3152 C   0  0  0  0  0  0  0  0  0  0  0  0
   14.0596  -11.9860  -11.2073 C   0  0  1  0  0  0  0  0  0  0  0  0
   13.5260  -13.2324  -10.9161 O   0  0  0  0  0  0  0  0  0  0  0  0
   13.7556  -10.9616  -10.1140 C   0  0  2  0  0  0  0  0  0  0  0  0
   12.3494  -10.8830   -9.8617 N   0  0  0  0  0  0  0  0  0  0  0  0
   14.3928   -9.6714  -10.3698 C   0  0  0  0  0  0  0  0  0  0  0  0
   14.0063   -8.9924  -11.3551 O   0  0  0  0  0  0  0  0  0  0  0  0
   14.7809   -5.4196   -9.8327 N   0  0  0  0  0  0  0  0  0  0  0  0
   15.3603   -5.8078   -8.6058 C   0  0  0  0  0  0  0  0  0  0  0  0
   15.2435   -5.0468   -7.6155 O   0  0  0  0  0  0  0  0  0  0  0  0
   16.0834   -7.0846   -8.4995 C   0  0  0  0  0  0  0  0  0  0  0  0
   16.0621   -7.9299   -9.7430 C   0  0  2  0  0  0  0  0  0  0  0  0
   15.4252   -9.1974   -9.5238 N   0  0  0  0  0  0  0  0  0  0  0  0
   17.3917   -8.0300  -10.3382 C   0  0  0  0  0  0  0  0  0  0  0  0
   18.1576   -8.9646  -10.0266 O   0  0  0  0  0  0  0  0  0  0  0  0
   17.9097   -7.0991  -11.2937 N   0  0  0  0  0  0  0  0  0  0  0  0
   19.1155   -7.3656  -12.0412 C   0  0  1  0  0  0  0  0  0  0  0  0
   18.9744   -8.5781  -12.9398 C   0  0  0  0  0  0  0  0  0  0  0  0
   20.5495   -8.7134  -13.8637 S   0  0  0  0  0  0  0  0  0  0  0  0
   19.4854   -6.2092  -12.8857 C   0  0  0  0  0  0  0  0  0  0  0  0
   20.7822   -5.7676  -12.9968 O   0  0  0  0  0  0  0  0  0  0  0  0
   18.5813   -5.6185  -13.5165 O   0  0  0  0  0  0  0  0  0  0  0  0
  2  1  1  1
  2  3  1  0
  4  2  1  0
  4  6  1  0
  4  5  1  6
  6  7  2  0
  6 13  1  0
  9 11  1  0
  9  8  1  0
 10  9  2  0
 12 11  1  1
 12 14  1  0
 13 12  1  0
 14 16  1  0
 14 15  2  0
 16 17  1  0
 17 20  1  0
 17 18  1  6
 18 19  1  0
 20 21  1  0
 22 20  2  0
M  END
$$$$
