TNC.pdb
     RDKit          3D

 22 21  0  0  1  0  0  0  0  0999 V2000
   26.1878  -10.6209  -15.7509 C   0  0  0  0  0  0  0  0  0  0  0  0
   25.9127  -11.7402  -16.7288 C   0  0  1  0  0  0  0  0  0  0  0  0
   26.7333  -12.8085  -16.3996 O   0  0  0  0  0  0  0  0  0  0  0  0
   24.4309  -12.1048  -16.6366 C   0  0  2  0  0  0  0  0  0  0  0  0
   24.1545  -13.3127  -17.3520 N   0  0  0  0  0  0  0  0  0  0  0  0
   23.5609  -10.9848  -16.9903 C   0  0  0  0  0  0  0  0  0  0  0  0
   23.3454  -10.7491  -18.2065 O   0  0  0  0  0  0  0  0  0  0  0  0
   19.1649  -10.0504  -17.7034 N   0  0  0  0  0  0  0  0  0  0  0  0
   20.0183  -10.3606  -16.6229 C   0  0  0  0  0  0  0  0  0  0  0  0
   20.1764  -11.5636  -16.3047 O   0  0  0  0  0  0  0  0  0  0  0  0
   20.7076   -9.2861  -15.8917 C   0  0  0  0  0  0  0  0  0  0  0  0
   22.1374   -9.0594  -16.2984 C   0  0  2  0  0  0  0  0  0  0  0  0
   22.9738  -10.1821  -15.9818 N   0  0  0  0  0  0  0  0  0  0  0  0
   22.6375   -7.7857  -15.7887 C   0  0  0  0  0  0  0  0  0  0  0  0
   23.0178   -7.6815  -14.6048 O   0  0  0  0  0  0  0  0  0  0  0  0
   22.7300   -6.5935  -16.5747 N   0  0  0  0  0  0  0  0  0  0  0  0
   23.1280   -5.3305  -15.9999 C   0  0  1  0  0  0  0  0  0  0  0  0
   23.3624   -4.2700  -17.0572 C   0  0  0  0  0  0  0  0  0  0  0  0
   24.0173   -2.8060  -16.1738 S   0  0  0  0  0  0  0  0  0  0  0  0
   22.1020   -4.8249  -15.0623 C   0  0  0  0  0  0  0  0  0  0  0  0
   22.4144   -4.3992  -13.7934 O   0  0  0  0  0  0  0  0  0  0  0  0
   20.9119   -4.7870  -15.4451 O   0  0  0  0  0  0  0  0  0  0  0  0
  2  1  1  1
  2  3  1  0
  4  2  1  0
  4  6  1  0
  4  5  1  6
  6  7  2  0
  6 13  1  0
  9 11  1  0
  9  8  1  0
 10  9  2  0
 12 11  1  1
 12 14  1  0
 13 12  1  0
 14 16  1  0
 14 15  2  0
 16 17  1  0
 17 20  1  0
 17 18  1  6
 18 19  1  0
 20 21  1  0
 22 20  2  0
M  END
$$$$
