TNC.pdb
     RDKit          3D

 22 21  0  0  1  0  0  0  0  0999 V2000
   16.0493  -12.2760  -10.8277 C   0  0  0  0  0  0  0  0  0  0  0  0
   16.3310  -10.7960  -10.9498 C   0  0  1  0  0  0  0  0  0  0  0  0
   16.7180  -10.5397  -12.2566 O   0  0  0  0  0  0  0  0  0  0  0  0
   15.0631  -10.0328  -10.5664 C   0  0  2  0  0  0  0  0  0  0  0  0
   13.9547  -10.4415  -11.3736 N   0  0  0  0  0  0  0  0  0  0  0  0
   15.2762   -8.5874  -10.5265 C   0  0  0  0  0  0  0  0  0  0  0  0
   14.8555   -7.8889  -11.4838 O   0  0  0  0  0  0  0  0  0  0  0  0
   13.8734   -4.4159   -7.4854 N   0  0  0  0  0  0  0  0  0  0  0  0
   14.3141   -5.6180   -8.0791 C   0  0  0  0  0  0  0  0  0  0  0  0
   13.4623   -6.3943   -8.5745 O   0  0  0  0  0  0  0  0  0  0  0  0
   15.7482   -5.9443   -8.1141 C   0  0  0  0  0  0  0  0  0  0  0  0
   16.2222   -6.5798   -9.3919 C   0  0  2  0  0  0  0  0  0  0  0  0
   15.9439   -7.9874   -9.4309 N   0  0  0  0  0  0  0  0  0  0  0  0
   17.6166   -6.2438   -9.6651 C   0  0  0  0  0  0  0  0  0  0  0  0
   18.4950   -6.4268   -8.7978 O   0  0  0  0  0  0  0  0  0  0  0  0
   18.0767   -5.6963  -10.9046 N   0  0  0  0  0  0  0  0  0  0  0  0
   19.4779   -5.6646  -11.2505 C   0  0  1  0  0  0  0  0  0  0  0  0
   20.0701   -7.0553  -11.3636 C   0  0  0  0  0  0  0  0  0  0  0  0
   21.8177   -6.8259  -11.8598 S   0  0  0  0  0  0  0  0  0  0  0  0
   19.6934   -4.9679  -12.5371 C   0  0  0  0  0  0  0  0  0  0  0  0
   20.7775   -4.1521  -12.7565 O   0  0  0  0  0  0  0  0  0  0  0  0
   18.8558   -5.1321  -13.4513 O   0  0  0  0  0  0  0  0  0  0  0  0
  2  1  1  6
  2  3  1  0
  4  2  1  0
  4  6  1  0
  4  5  1  6
  6  7  2  0
  6 13  1  0
  9 11  1  0
  9  8  1  0
 10  9  2  0
 12 11  1  1
 12 14  1  0
 13 12  1  0
 14 16  1  0
 14 15  2  0
 16 17  1  0
 17 20  1  0
 17 18  1  6
 18 19  1  0
 20 21  1  0
 22 20  2  0
M  END
$$$$
