TNC.pdb
     RDKit          3D

 22 21  0  0  1  0  0  0  0  0999 V2000
   20.9048   -9.0250  -20.1612 C   0  0  0  0  0  0  0  0  0  0  0  0
   20.5341  -10.2542  -19.3634 C   0  0  1  0  0  0  0  0  0  0  0  0
   20.6097  -11.3519  -20.2073 O   0  0  0  0  0  0  0  0  0  0  0  0
   21.4992  -10.3696  -18.1834 C   0  0  2  0  0  0  0  0  0  0  0  0
   21.3399  -11.6226  -17.5113 N   0  0  0  0  0  0  0  0  0  0  0  0
   21.4411   -9.2043  -17.3031 C   0  0  0  0  0  0  0  0  0  0  0  0
   20.4043   -9.0183  -16.6161 O   0  0  0  0  0  0  0  0  0  0  0  0
   22.6779   -4.6997  -14.9750 N   0  0  0  0  0  0  0  0  0  0  0  0
   23.8824   -5.3515  -15.3158 C   0  0  0  0  0  0  0  0  0  0  0  0
   24.9654   -4.8754  -14.8987 O   0  0  0  0  0  0  0  0  0  0  0  0
   23.8576   -6.5680  -16.1428 C   0  0  0  0  0  0  0  0  0  0  0  0
   22.4868   -7.1275  -16.4054 C   0  0  2  0  0  0  0  0  0  0  0  0
   22.5315   -8.3036  -17.2271 N   0  0  0  0  0  0  0  0  0  0  0  0
   21.5787   -6.0953  -16.8973 C   0  0  0  0  0  0  0  0  0  0  0  0
   21.6847   -5.6594  -18.0617 O   0  0  0  0  0  0  0  0  0  0  0  0
   20.5293   -5.5176  -16.1144 N   0  0  0  0  0  0  0  0  0  0  0  0
   19.6617   -4.4913  -16.6415 C   0  0  1  0  0  0  0  0  0  0  0  0
   18.3685   -5.0619  -17.1889 C   0  0  0  0  0  0  0  0  0  0  0  0
   17.5280   -5.8666  -15.7752 S   0  0  0  0  0  0  0  0  0  0  0  0
   19.3204   -3.4964  -15.6017 C   0  0  0  0  0  0  0  0  0  0  0  0
   18.5417   -2.3956  -15.8678 O   0  0  0  0  0  0  0  0  0  0  0  0
   19.7596   -3.6702  -14.4436 O   0  0  0  0  0  0  0  0  0  0  0  0
  2  1  1  6
  2  3  1  0
  4  2  1  0
  4  6  1  0
  4  5  1  1
  6  7  2  0
  6 13  1  0
  9 11  1  0
  9  8  1  0
 10  9  2  0
 12 11  1  6
 12 14  1  0
 13 12  1  0
 14 16  1  0
 14 15  2  0
 16 17  1  0
 17 20  1  0
 17 18  1  1
 18 19  1  0
 20 21  1  0
 22 20  2  0
M  END
$$$$
