TNC.pdb
     RDKit          3D

 22 21  0  0  1  0  0  0  0  0999 V2000
   21.8534  -10.9983  -16.1927 C   0  0  0  0  0  0  0  0  0  0  0  0
   21.1116  -11.8520  -17.1955 C   0  0  1  0  0  0  0  0  0  0  0  0
   21.8383  -13.0175  -17.3870 O   0  0  0  0  0  0  0  0  0  0  0  0
   19.7126  -12.1315  -16.6461 C   0  0  2  0  0  0  0  0  0  0  0  0
   19.0351  -13.1089  -17.4416 N   0  0  0  0  0  0  0  0  0  0  0  0
   18.9493  -10.9054  -16.4224 C   0  0  0  0  0  0  0  0  0  0  0  0
   18.5849  -10.2312  -17.4194 O   0  0  0  0  0  0  0  0  0  0  0  0
   14.6137   -9.4613  -15.0574 N   0  0  0  0  0  0  0  0  0  0  0  0
   15.7030  -10.1188  -14.4467 C   0  0  0  0  0  0  0  0  0  0  0  0
   15.6860  -11.3707  -14.3691 O   0  0  0  0  0  0  0  0  0  0  0  0
   16.8342   -9.3417  -13.9168 C   0  0  0  0  0  0  0  0  0  0  0  0
   18.0088   -9.2178  -14.8474 C   0  0  2  0  0  0  0  0  0  0  0  0
   18.6278  -10.4864  -15.1081 N   0  0  0  0  0  0  0  0  0  0  0  0
   18.9382   -8.1874  -14.3931 C   0  0  0  0  0  0  0  0  0  0  0  0
   19.3055   -8.1451  -13.2013 O   0  0  0  0  0  0  0  0  0  0  0  0
   19.4860   -7.1762  -15.2447 N   0  0  0  0  0  0  0  0  0  0  0  0
   20.4558   -6.2199  -14.7662 C   0  0  1  0  0  0  0  0  0  0  0  0
   21.7624   -6.3002  -15.5303 C   0  0  0  0  0  0  0  0  0  0  0  0
   22.4233   -7.9819  -15.2338 S   0  0  0  0  0  0  0  0  0  0  0  0
   19.9420   -4.8377  -14.8798 C   0  0  0  0  0  0  0  0  0  0  0  0
   20.5696   -3.7708  -14.2825 O   0  0  0  0  0  0  0  0  0  0  0  0
   18.9002   -4.6418  -15.5436 O   0  0  0  0  0  0  0  0  0  0  0  0
  2  1  1  1
  2  3  1  0
  4  2  1  0
  4  6  1  0
  4  5  1  6
  6  7  2  0
  6 13  1  0
  9 11  1  0
  9  8  1  0
 10  9  2  0
 12 11  1  1
 12 14  1  0
 13 12  1  0
 14 16  1  0
 14 15  2  0
 16 17  1  0
 17 20  1  0
 17 18  1  6
 18 19  1  0
 20 21  1  0
 22 20  2  0
M  END
$$$$
