TNC.pdb
     RDKit          3D

 22 21  0  0  1  0  0  0  0  0999 V2000
   23.8910  -23.4065  -14.5242 C   0  0  0  0  0  0  0  0  0  0  0  0
   24.4004  -23.1269  -13.1288 C   0  0  1  0  0  0  0  0  0  0  0  0
   25.3201  -24.1122  -12.8028 O   0  0  0  0  0  0  0  0  0  0  0  0
   25.0251  -21.7317  -13.1166 C   0  0  2  0  0  0  0  0  0  0  0  0
   25.6862  -21.4767  -11.8735 N   0  0  0  0  0  0  0  0  0  0  0  0
   24.0752  -20.6949  -13.5152 C   0  0  0  0  0  0  0  0  0  0  0  0
   23.4740  -20.0503  -12.6183 O   0  0  0  0  0  0  0  0  0  0  0  0
   25.5182  -18.9646  -17.7312 N   0  0  0  0  0  0  0  0  0  0  0  0
   24.5754  -18.3294  -16.8949 C   0  0  0  0  0  0  0  0  0  0  0  0
   24.8989  -17.2608  -16.3231 O   0  0  0  0  0  0  0  0  0  0  0  0
   23.2395  -18.9159  -16.7059 C   0  0  0  0  0  0  0  0  0  0  0  0
   22.9445  -19.3821  -15.3070 C   0  0  2  0  0  0  0  0  0  0  0  0
   23.8376  -20.4235  -14.8849 N   0  0  0  0  0  0  0  0  0  0  0  0
   21.5313  -19.7120  -15.1456 C   0  0  0  0  0  0  0  0  0  0  0  0
   21.0019  -20.5964  -15.8489 O   0  0  0  0  0  0  0  0  0  0  0  0
   20.6660  -19.0725  -14.2021 N   0  0  0  0  0  0  0  0  0  0  0  0
   19.2996  -19.4973  -14.0112 C   0  0  1  0  0  0  0  0  0  0  0  0
   18.9370  -19.6131  -12.5440 C   0  0  0  0  0  0  0  0  0  0  0  0
   19.3522  -17.9981  -11.7877 S   0  0  0  0  0  0  0  0  0  0  0  0
   18.3545  -18.5523  -14.6443 C   0  0  0  0  0  0  0  0  0  0  0  0
   18.7761  -17.4088  -15.2796 O   0  0  0  0  0  0  0  0  0  0  0  0
   17.1315  -18.8100  -14.5954 O   0  0  0  0  0  0  0  0  0  0  0  0
  2  1  1  6
  2  3  1  0
  4  2  1  0
  4  6  1  0
  4  5  1  1
  6  7  2  0
  6 13  1  0
  9 11  1  0
  9  8  1  0
 10  9  2  0
 12 11  1  6
 12 14  1  0
 13 12  1  0
 14 16  1  0
 14 15  2  0
 16 17  1  0
 17 20  1  0
 17 18  1  1
 18 19  1  0
 20 21  1  0
 22 20  2  0
M  END
$$$$
