TNC.pdb
     RDKit          3D

 22 21  0  0  1  0  0  0  0  0999 V2000
   16.8965  -13.8841  -15.1378 C   0  0  0  0  0  0  0  0  0  0  0  0
   17.7492  -12.7815  -15.7225 C   0  0  1  0  0  0  0  0  0  0  0  0
   17.5530  -12.7701  -17.0953 O   0  0  0  0  0  0  0  0  0  0  0  0
   17.3375  -11.4604  -15.0727 C   0  0  2  0  0  0  0  0  0  0  0  0
   15.9405  -11.2119  -15.2568 N   0  0  0  0  0  0  0  0  0  0  0  0
   18.2024  -10.3522  -15.4725 C   0  0  0  0  0  0  0  0  0  0  0  0
   19.4477  -10.5275  -15.4701 O   0  0  0  0  0  0  0  0  0  0  0  0
   15.3391   -6.4178  -17.3229 N   0  0  0  0  0  0  0  0  0  0  0  0
   16.5967   -6.3906  -16.6831 C   0  0  0  0  0  0  0  0  0  0  0  0
   16.7179   -5.7404  -15.6172 O   0  0  0  0  0  0  0  0  0  0  0  0
   17.7377   -7.1170  -17.2618 C   0  0  0  0  0  0  0  0  0  0  0  0
   18.4673   -8.0172  -16.3034 C   0  0  2  0  0  0  0  0  0  0  0  0
   17.6472   -9.1064  -15.8544 N   0  0  0  0  0  0  0  0  0  0  0  0
   19.0811   -7.2526  -15.2215 C   0  0  0  0  0  0  0  0  0  0  0  0
   18.5344   -7.1865  -14.1017 O   0  0  0  0  0  0  0  0  0  0  0  0
   20.3158   -6.5406  -15.3492 N   0  0  0  0  0  0  0  0  0  0  0  0
   20.8779   -5.7868  -14.2538 C   0  0  1  0  0  0  0  0  0  0  0  0
   22.1277   -6.4370  -13.6946 C   0  0  0  0  0  0  0  0  0  0  0  0
   22.7118   -5.3432  -12.3473 S   0  0  0  0  0  0  0  0  0  0  0  0
   21.2250   -4.4124  -14.6755 C   0  0  0  0  0  0  0  0  0  0  0  0
   21.5003   -3.4153  -13.7705 O   0  0  0  0  0  0  0  0  0  0  0  0
   21.2670   -4.1572  -15.8992 O   0  0  0  0  0  0  0  0  0  0  0  0
  2  1  1  1
  2  3  1  0
  4  2  1  0
  4  6  1  0
  4  5  1  6
  6  7  2  0
  6 13  1  0
  9 11  1  0
  9  8  1  0
 10  9  2  0
 12 11  1  1
 12 14  1  0
 13 12  1  0
 14 16  1  0
 14 15  2  0
 16 17  1  0
 17 20  1  0
 17 18  1  6
 18 19  1  0
 20 21  1  0
 22 20  2  0
M  END
$$$$
