NCK.pdb
     RDKit          3D

 24 23  0  0  1  0  0  0  0  0999 V2000
   11.1305  -17.2164   13.4993 N   0  0  0  0  0  0  0  0  0  0  0  0
    9.9526  -16.9027   14.2426 C   0  0  0  0  0  0  0  0  0  0  0  0
    8.8447  -17.2412   13.7670 O   0  0  0  0  0  0  0  0  0  0  0  0
   10.0885  -16.2020   15.5216 C   0  0  0  0  0  0  0  0  0  0  0  0
    9.6091  -17.0145   16.6930 C   0  0  2  0  0  0  0  0  0  0  0  0
    8.1604  -17.1727   16.5811 N   0  0  0  0  0  0  0  0  0  0  0  0
    9.8838  -16.2564   17.9707 C   0  0  0  0  0  0  0  0  0  0  0  0
   11.0582  -16.1736   18.4258 O   0  0  0  0  0  0  0  0  0  0  0  0
    8.8075  -15.6413   18.6497 N   0  0  0  0  0  0  0  0  0  0  0  0
    8.9502  -14.9085   19.8932 C   0  0  1  0  0  0  0  0  0  0  0  0
    7.6799  -14.1564   20.2413 C   0  0  0  0  0  0  0  0  0  0  0  0
    7.3818  -12.8018   19.0818 S   0  0  0  0  0  0  0  0  0  0  0  0
    9.3272  -15.8287   20.9867 C   0  0  0  0  0  0  0  0  0  0  0  0
    8.6794  -16.9066   21.1344 O   0  0  0  0  0  0  0  0  0  0  0  0
   10.3803  -15.5852   21.8975 N   0  0  0  0  0  0  0  0  0  0  0  0
   10.7673  -16.5320   22.9115 C   0  0  1  0  0  0  0  0  0  0  0  0
   12.1705  -17.0546   22.7163 C   0  0  0  0  0  0  0  0  0  0  0  0
   12.2181  -18.4036   22.0668 C   0  0  0  0  0  0  0  0  0  0  0  0
   13.6761  -18.7586   21.8717 C   0  0  0  0  0  0  0  0  0  0  0  0
   13.8623  -20.1114   21.2393 C   0  0  0  0  0  0  0  0  0  0  0  0
   15.2729  -20.4071   21.0874 N   0  0  0  0  0  0  0  0  0  0  0  0
   10.5354  -16.0292   24.2726 C   0  0  0  0  0  0  0  0  0  0  0  0
   10.3587  -14.8051   24.4951 O   0  0  0  0  0  0  0  0  0  0  0  0
   10.5083  -16.9023   25.3338 O   0  0  0  0  0  0  0  0  0  0  0  0
  2  4  1  0
  2  1  1  0
  3  2  2  0
  4  5  1  0
  5  7  1  0
  5  6  1  6
  7  9  1  0
  7  8  2  0
  9 10  1  0
 10 13  1  0
 10 11  1  1
 12 11  1  0
 13 15  1  0
 13 14  2  0
 15 16  1  0
 16 22  1  0
 16 17  1  1
 18 17  1  0
 19 18  1  0
 20 19  1  0
 21 20  1  0
 22 24  1  0
 23 22  2  0
M  END
$$$$
