NCK.pdb
     RDKit          3D

 24 23  0  0  1  0  0  0  0  0999 V2000
    7.6138  -13.9990   15.1101 N   0  0  0  0  0  0  0  0  0  0  0  0
    8.7251  -14.3191   15.9472 C   0  0  0  0  0  0  0  0  0  0  0  0
    9.6655  -14.9835   15.4546 O   0  0  0  0  0  0  0  0  0  0  0  0
    8.7184  -13.8607   17.3382 C   0  0  0  0  0  0  0  0  0  0  0  0
    9.0461  -14.9517   18.3203 C   0  0  2  0  0  0  0  0  0  0  0  0
    8.2777  -16.1415   17.9597 N   0  0  0  0  0  0  0  0  0  0  0  0
    8.6027  -14.5284   19.7012 C   0  0  0  0  0  0  0  0  0  0  0  0
    9.1036  -13.5078   20.2494 O   0  0  0  0  0  0  0  0  0  0  0  0
    7.6192  -15.2914   20.3710 N   0  0  0  0  0  0  0  0  0  0  0  0
    7.1546  -15.0083   21.7155 C   0  0  1  0  0  0  0  0  0  0  0  0
    5.7945  -15.6282   21.9731 C   0  0  0  0  0  0  0  0  0  0  0  0
    5.9337  -17.4007   22.3004 S   0  0  0  0  0  0  0  0  0  0  0  0
    8.1413  -15.4860   22.7069 C   0  0  0  0  0  0  0  0  0  0  0  0
    9.1310  -16.1688   22.3099 O   0  0  0  0  0  0  0  0  0  0  0  0
    8.0559  -15.2299   24.0944 N   0  0  0  0  0  0  0  0  0  0  0  0
    9.0148  -15.7393   25.0407 C   0  0  1  0  0  0  0  0  0  0  0  0
    9.0751  -14.9205   26.3079 C   0  0  0  0  0  0  0  0  0  0  0  0
   10.0455  -15.4549   27.3162 C   0  0  0  0  0  0  0  0  0  0  0  0
    9.9961  -14.5384   28.5192 C   0  0  0  0  0  0  0  0  0  0  0  0
   10.9717  -14.9395   29.5924 C   0  0  0  0  0  0  0  0  0  0  0  0
   10.9687  -13.9662   30.6661 N   0  0  0  0  0  0  0  0  0  0  0  0
    8.8429  -17.1748   25.3026 C   0  0  0  0  0  0  0  0  0  0  0  0
    9.8010  -17.8857   25.6975 O   0  0  0  0  0  0  0  0  0  0  0  0
    7.6163  -17.7666   25.1170 O   0  0  0  0  0  0  0  0  0  0  0  0
  2  4  1  0
  2  1  1  0
  3  2  2  0
  4  5  1  0
  5  7  1  0
  5  6  1  6
  7  9  1  0
  7  8  2  0
  9 10  1  0
 10 13  1  0
 10 11  1  1
 12 11  1  0
 13 15  1  0
 13 14  2  0
 15 16  1  0
 16 22  1  0
 16 17  1  1
 18 17  1  0
 19 18  1  0
 20 19  1  0
 21 20  1  0
 22 24  1  0
 23 22  2  0
M  END
$$$$
