NCK.pdb
     RDKit          3D

 24 23  0  0  1  0  0  0  0  0999 V2000
    4.6889  -23.2358   20.0120 N   0  0  0  0  0  0  0  0  0  0  0  0
    5.1429  -22.7163   21.2618 C   0  0  0  0  0  0  0  0  0  0  0  0
    4.8479  -23.3424   22.3055 O   0  0  0  0  0  0  0  0  0  0  0  0
    5.9290  -21.4805   21.2710 C   0  0  0  0  0  0  0  0  0  0  0  0
    5.6400  -20.6065   22.4604 C   0  0  2  0  0  0  0  0  0  0  0  0
    4.5515  -19.6966   22.1093 N   0  0  0  0  0  0  0  0  0  0  0  0
    6.8551  -19.7617   22.7647 C   0  0  0  0  0  0  0  0  0  0  0  0
    7.2459  -18.8843   21.9458 O   0  0  0  0  0  0  0  0  0  0  0  0
    7.5485  -19.9676   23.9790 N   0  0  0  0  0  0  0  0  0  0  0  0
    8.6464  -19.1357   24.4331 C   0  0  1  0  0  0  0  0  0  0  0  0
    8.2039  -17.6999   24.6403 C   0  0  0  0  0  0  0  0  0  0  0  0
    6.7924  -17.6051   25.7659 S   0  0  0  0  0  0  0  0  0  0  0  0
    9.2237  -19.6878   25.6769 C   0  0  0  0  0  0  0  0  0  0  0  0
    8.4550  -20.2331   26.5225 O   0  0  0  0  0  0  0  0  0  0  0  0
   10.6002  -19.6485   25.9953 N   0  0  0  0  0  0  0  0  0  0  0  0
   11.1449  -20.2720   27.1739 C   0  0  1  0  0  0  0  0  0  0  0  0
   12.4930  -20.9060   26.9281 C   0  0  0  0  0  0  0  0  0  0  0  0
   12.5260  -21.7823   25.7136 C   0  0  0  0  0  0  0  0  0  0  0  0
   13.9037  -22.4044   25.6440 C   0  0  0  0  0  0  0  0  0  0  0  0
   14.0843  -23.2754   24.4302 C   0  0  0  0  0  0  0  0  0  0  0  0
   15.4101  -23.8606   24.4223 N   0  0  0  0  0  0  0  0  0  0  0  0
   11.1452  -19.3762   28.3386 C   0  0  0  0  0  0  0  0  0  0  0  0
   10.9223  -18.1455   28.2158 O   0  0  0  0  0  0  0  0  0  0  0  0
   11.3923  -19.8788   29.5938 O   0  0  0  0  0  0  0  0  0  0  0  0
  2  4  1  0
  2  1  1  0
  3  2  2  0
  4  5  1  0
  5  7  1  0
  5  6  1  6
  7  9  1  0
  7  8  2  0
  9 10  1  0
 10 13  1  0
 10 11  1  1
 12 11  1  0
 13 15  1  0
 13 14  2  0
 15 16  1  0
 16 22  1  0
 16 17  1  6
 18 17  1  0
 19 18  1  0
 20 19  1  0
 21 20  1  0
 22 24  1  0
 23 22  2  0
M  END
$$$$
