NCK.pdb
     RDKit          3D

 24 23  0  0  1  0  0  0  0  0999 V2000
    7.5787  -15.6022   15.8786 N   0  0  0  0  0  0  0  0  0  0  0  0
    8.3180  -14.5262   16.4565 C   0  0  0  0  0  0  0  0  0  0  0  0
    9.5685  -14.5723   16.4055 O   0  0  0  0  0  0  0  0  0  0  0  0
    7.5877  -13.4209   17.0812 C   0  0  0  0  0  0  0  0  0  0  0  0
    8.1604  -13.0124   18.4106 C   0  0  2  0  0  0  0  0  0  0  0  0
    9.5788  -12.7109   18.2275 N   0  0  0  0  0  0  0  0  0  0  0  0
    8.0655  -14.1740   19.3720 C   0  0  0  0  0  0  0  0  0  0  0  0
    6.9575  -14.7399   19.5845 O   0  0  0  0  0  0  0  0  0  0  0  0
    9.2346  -14.6182   20.0305 N   0  0  0  0  0  0  0  0  0  0  0  0
    9.2568  -15.7034   20.9926 C   0  0  1  0  0  0  0  0  0  0  0  0
   10.3972  -16.6645   20.7167 C   0  0  0  0  0  0  0  0  0  0  0  0
   10.5504  -17.8946   22.0326 S   0  0  0  0  0  0  0  0  0  0  0  0
    9.3497  -15.1650   22.3661 C   0  0  0  0  0  0  0  0  0  0  0  0
   10.2246  -14.2870   22.6247 O   0  0  0  0  0  0  0  0  0  0  0  0
    8.5145  -15.5696   23.4322 N   0  0  0  0  0  0  0  0  0  0  0  0
    8.5621  -14.9562   24.7345 C   0  0  1  0  0  0  0  0  0  0  0  0
    7.3839  -14.0486   24.9950 C   0  0  0  0  0  0  0  0  0  0  0  0
    7.4555  -13.3445   26.3153 C   0  0  0  0  0  0  0  0  0  0  0  0
    6.2182  -12.4815   26.4336 C   0  0  0  0  0  0  0  0  0  0  0  0
    6.2309  -11.6180   27.6660 C   0  0  0  0  0  0  0  0  0  0  0  0
    5.0245  -10.8179   27.7336 N   0  0  0  0  0  0  0  0  0  0  0  0
    8.7728  -15.9327   25.8121 C   0  0  0  0  0  0  0  0  0  0  0  0
    8.5851  -17.1612   25.6257 O   0  0  0  0  0  0  0  0  0  0  0  0
    9.1832  -15.5099   27.0539 O   0  0  0  0  0  0  0  0  0  0  0  0
  2  4  1  0
  2  1  1  0
  3  2  2  0
  4  5  1  0
  5  7  1  0
  5  6  1  6
  7  9  1  0
  7  8  2  0
  9 10  1  0
 10 13  1  0
 10 11  1  6
 12 11  1  0
 13 15  1  0
 13 14  2  0
 15 16  1  0
 16 22  1  0
 16 17  1  1
 18 17  1  0
 19 18  1  0
 20 19  1  0
 21 20  1  0
 22 24  1  0
 23 22  2  0
M  END
$$$$
