NCK.pdb
     RDKit          3D

 24 23  0  0  1  0  0  0  0  0999 V2000
    8.2631  -18.6918   14.2536 N   0  0  0  0  0  0  0  0  0  0  0  0
    7.9929  -17.2900   14.2528 C   0  0  0  0  0  0  0  0  0  0  0  0
    7.4090  -16.8000   13.2591 O   0  0  0  0  0  0  0  0  0  0  0  0
    8.4079  -16.4886   15.4065 C   0  0  0  0  0  0  0  0  0  0  0  0
    8.0859  -17.1398   16.7234 C   0  0  2  0  0  0  0  0  0  0  0  0
    6.6332  -17.1628   16.8824 N   0  0  0  0  0  0  0  0  0  0  0  0
    8.6503  -16.3002   17.8454 C   0  0  0  0  0  0  0  0  0  0  0  0
    9.8985  -16.1746   17.9853 O   0  0  0  0  0  0  0  0  0  0  0  0
    7.7614  -15.6574   18.7368 N   0  0  0  0  0  0  0  0  0  0  0  0
    8.1827  -14.9738   19.9446 C   0  0  1  0  0  0  0  0  0  0  0  0
    7.0482  -14.1693   20.5496 C   0  0  0  0  0  0  0  0  0  0  0  0
    7.4207  -13.6889   22.2522 S   0  0  0  0  0  0  0  0  0  0  0  0
    8.7110  -15.9473   20.9234 C   0  0  0  0  0  0  0  0  0  0  0  0
    7.9975  -16.9417   21.2483 O   0  0  0  0  0  0  0  0  0  0  0  0
    9.9813  -15.8442   21.5346 N   0  0  0  0  0  0  0  0  0  0  0  0
   10.4784  -16.8228   22.4672 C   0  0  1  0  0  0  0  0  0  0  0  0
   11.3921  -17.8350   21.8187 C   0  0  0  0  0  0  0  0  0  0  0  0
   11.7728  -18.9622   22.7289 C   0  0  0  0  0  0  0  0  0  0  0  0
   12.6793  -19.8870   21.9461 C   0  0  0  0  0  0  0  0  0  0  0  0
   12.9949  -21.1553   22.6920 C   0  0  0  0  0  0  0  0  0  0  0  0
   13.8024  -22.0354   21.8713 N   0  0  0  0  0  0  0  0  0  0  0  0
   11.0706  -16.2122   23.6654 C   0  0  0  0  0  0  0  0  0  0  0  0
   11.4636  -15.0186   23.6636 O   0  0  0  0  0  0  0  0  0  0  0  0
   11.2042  -16.9480   24.8186 O   0  0  0  0  0  0  0  0  0  0  0  0
  2  4  1  0
  2  1  1  0
  3  2  2  0
  4  5  1  0
  5  7  1  0
  5  6  1  1
  7  9  1  0
  7  8  2  0
  9 10  1  0
 10 13  1  0
 10 11  1  1
 12 11  1  0
 13 15  1  0
 13 14  2  0
 15 16  1  0
 16 22  1  0
 16 17  1  6
 18 17  1  0
 19 18  1  0
 20 19  1  0
 21 20  1  0
 22 24  1  0
 23 22  2  0
M  END
$$$$
