NCK.pdb
     RDKit          3D

 24 23  0  0  1  0  0  0  0  0999 V2000
    7.1790  -16.4736   18.5430 N   0  0  0  0  0  0  0  0  0  0  0  0
    8.2504  -16.7228   19.4530 C   0  0  0  0  0  0  0  0  0  0  0  0
    8.8219  -17.8361   19.4042 O   0  0  0  0  0  0  0  0  0  0  0  0
    8.6334  -15.6730   20.3998 C   0  0  0  0  0  0  0  0  0  0  0  0
    8.7111  -16.1600   21.8207 C   0  0  2  0  0  0  0  0  0  0  0  0
    7.4656  -16.8560   22.1374 N   0  0  0  0  0  0  0  0  0  0  0  0
    8.8144  -14.9727   22.7493 C   0  0  0  0  0  0  0  0  0  0  0  0
    9.7641  -14.1495   22.6324 O   0  0  0  0  0  0  0  0  0  0  0  0
    7.8328  -14.7964   23.7510 N   0  0  0  0  0  0  0  0  0  0  0  0
    7.8782  -13.7460   24.7501 C   0  0  1  0  0  0  0  0  0  0  0  0
    6.5248  -13.5463   25.4050 C   0  0  0  0  0  0  0  0  0  0  0  0
    6.6314  -12.3896   26.7902 S   0  0  0  0  0  0  0  0  0  0  0  0
    8.9082  -14.0523   25.7652 C   0  0  0  0  0  0  0  0  0  0  0  0
    9.1941  -13.1773   26.6347 O   0  0  0  0  0  0  0  0  0  0  0  0
    9.6106  -15.2769   25.8345 N   0  0  0  0  0  0  0  0  0  0  0  0
   10.6538  -15.5226   26.7967 C   0  0  1  0  0  0  0  0  0  0  0  0
   10.1421  -16.1777   28.0572 C   0  0  0  0  0  0  0  0  0  0  0  0
   11.2203  -16.4733   29.0542 C   0  0  0  0  0  0  0  0  0  0  0  0
   10.5602  -17.1160   30.2547 C   0  0  0  0  0  0  0  0  0  0  0  0
   11.5237  -17.3547   31.3857 C   0  0  0  0  0  0  0  0  0  0  0  0
   10.8199  -17.8503   32.5516 N   0  0  0  0  0  0  0  0  0  0  0  0
   11.8022  -16.2324   26.2167 C   0  0  0  0  0  0  0  0  0  0  0  0
   12.8558  -16.4182   26.8760 O   0  0  0  0  0  0  0  0  0  0  0  0
   11.7383  -16.7088   24.9289 O   0  0  0  0  0  0  0  0  0  0  0  0
  2  4  1  0
  2  1  1  0
  3  2  2  0
  4  5  1  0
  5  7  1  0
  5  6  1  1
  7  9  1  0
  7  8  2  0
  9 10  1  0
 10 13  1  0
 10 11  1  1
 12 11  1  0
 13 15  1  0
 13 14  2  0
 15 16  1  0
 16 22  1  0
 16 17  1  1
 18 17  1  0
 19 18  1  0
 20 19  1  0
 21 20  1  0
 22 24  1  0
 23 22  2  0
M  END
$$$$
