NCK.pdb
     RDKit          3D

 24 23  0  0  1  0  0  0  0  0999 V2000
    9.4517  -14.4369   15.4925 N   0  0  0  0  0  0  0  0  0  0  0  0
    8.2179  -13.9196   15.9907 C   0  0  0  0  0  0  0  0  0  0  0  0
    7.5894  -13.1012   15.2812 O   0  0  0  0  0  0  0  0  0  0  0  0
    7.7424  -14.3645   17.3027 C   0  0  0  0  0  0  0  0  0  0  0  0
    8.6830  -15.3256   17.9761 C   0  0  2  0  0  0  0  0  0  0  0  0
    8.8045  -16.5155   17.1360 N   0  0  0  0  0  0  0  0  0  0  0  0
    8.0891  -15.7621   19.2950 C   0  0  0  0  0  0  0  0  0  0  0  0
    6.9062  -16.1990   19.3509 O   0  0  0  0  0  0  0  0  0  0  0  0
    8.8763  -15.6742   20.4657 N   0  0  0  0  0  0  0  0  0  0  0  0
    8.5683  -16.3706   21.7001 C   0  0  1  0  0  0  0  0  0  0  0  0
    8.6020  -17.8750   21.5102 C   0  0  0  0  0  0  0  0  0  0  0  0
   10.1940  -18.4160   20.8460 S   0  0  0  0  0  0  0  0  0  0  0  0
    9.5065  -15.9586   22.7655 C   0  0  0  0  0  0  0  0  0  0  0  0
   10.4822  -15.2079   22.4693 O   0  0  0  0  0  0  0  0  0  0  0  0
    9.3891  -16.3519   24.1180 N   0  0  0  0  0  0  0  0  0  0  0  0
    9.2529  -15.4053   25.1951 C   0  0  1  0  0  0  0  0  0  0  0  0
    8.0381  -14.5212   25.0442 C   0  0  0  0  0  0  0  0  0  0  0  0
    7.9321  -13.4693   26.1054 C   0  0  0  0  0  0  0  0  0  0  0  0
    6.6457  -12.7108   25.8613 C   0  0  0  0  0  0  0  0  0  0  0  0
    6.4236  -11.6108   26.8640 C   0  0  0  0  0  0  0  0  0  0  0  0
    5.1517  -10.9592   26.6242 N   0  0  0  0  0  0  0  0  0  0  0  0
    9.3298  -16.0394   26.5183 C   0  0  0  0  0  0  0  0  0  0  0  0
    8.9458  -17.2223   26.6987 O   0  0  0  0  0  0  0  0  0  0  0  0
    9.8292  -15.3383   27.5899 O   0  0  0  0  0  0  0  0  0  0  0  0
  2  4  1  0
  2  1  1  0
  3  2  2  0
  4  5  1  0
  5  7  1  0
  5  6  1  6
  7  9  1  0
  7  8  2  0
  9 10  1  0
 10 13  1  0
 10 11  1  6
 12 11  1  0
 13 15  1  0
 13 14  2  0
 15 16  1  0
 16 22  1  0
 16 17  1  6
 18 17  1  0
 19 18  1  0
 20 19  1  0
 21 20  1  0
 22 24  1  0
 23 22  2  0
M  END
$$$$
