PVL.pdb
     RDKit          3D

 23 23  0  0  1  0  0  0  0  0999 V2000
   26.9011  -19.0453  -16.2839 N   0  0  0  0  0  0  0  0  0  0  0  0
   28.1622  -18.4440  -16.5210 C   0  0  0  0  0  0  0  0  0  0  0  0
   29.0117  -18.8932  -15.3505 C   0  0  0  0  0  0  0  0  0  0  0  0
   28.5414  -20.3363  -15.1831 C   0  0  0  0  0  0  0  0  0  0  0  0
   27.0317  -20.1431  -15.3495 C   0  0  1  0  0  0  0  0  0  0  0  0
   26.5192  -19.6993  -14.0387 C   0  0  0  0  0  0  0  0  0  0  0  0
   26.5026  -18.4763  -13.7340 O   0  0  0  0  0  0  0  0  0  0  0  0
   23.2972  -19.8129  -13.0664 C   0  0  0  0  0  0  0  0  0  0  0  0
   23.8880  -20.5759  -11.9042 C   0  0  1  0  0  0  0  0  0  0  0  0
   23.7044  -22.0649  -12.0952 C   0  0  0  0  0  0  0  0  0  0  0  0
   25.3808  -20.2261  -11.8689 C   0  0  2  0  0  0  0  0  0  0  0  0
   26.0301  -20.6424  -13.0928 N   0  0  0  0  0  0  0  0  0  0  0  0
   25.9715  -20.7785  -10.6419 C   0  0  0  0  0  0  0  0  0  0  0  0
   26.1474  -22.0400  -10.5292 O   0  0  0  0  0  0  0  0  0  0  0  0
   27.9270  -18.5438   -5.1507 C   0  0  0  0  0  0  0  0  0  0  0  0
   27.6658  -19.7424   -6.0126 C   0  0  2  0  0  0  0  0  0  0  0  0
   28.9450  -20.5191   -6.2064 C   0  0  0  0  0  0  0  0  0  0  0  0
   27.1623  -19.3545   -7.3622 C   0  0  0  0  0  0  0  0  0  0  0  0
   26.7282  -20.5293   -8.2246 C   0  0  2  0  0  0  0  0  0  0  0  0
   26.3745  -19.9966   -9.5349 N   0  0  0  0  0  0  0  0  0  0  0  0
   25.5159  -21.0829   -7.5766 C   0  0  0  0  0  0  0  0  0  0  0  0
   24.3669  -20.5968   -7.7201 O   0  0  0  0  0  0  0  0  0  0  0  0
   25.6790  -22.2157   -6.7613 O   0  0  0  0  0  0  0  0  0  0  0  0
  2  3  1  0
  2  1  1  0
  3  4  1  0
  4  5  1  0
  5  1  1  0
  5  6  1  1
  6 12  1  0
  6  7  2  0
  9  8  1  6
  9 11  1  0
  9 10  1  0
 11 13  1  0
 11 12  1  6
 13 14  2  0
 16 18  1  0
 16 15  1  1
 17 16  1  0
 19 18  1  1
 19 21  1  0
 20 19  1  0
 20 13  1  0
 21 23  1  0
 22 21  2  0
M  END
$$$$
