PVL.pdb
     RDKit          3D

 23 23  0  0  1  0  0  0  0  0999 V2000
   27.0510  -19.5108  -16.3201 N   0  0  0  0  0  0  0  0  0  0  0  0
   28.4189  -19.2109  -16.5373 C   0  0  0  0  0  0  0  0  0  0  0  0
   29.1255  -19.8254  -15.3471 C   0  0  0  0  0  0  0  0  0  0  0  0
   28.3401  -21.1239  -15.1776 C   0  0  0  0  0  0  0  0  0  0  0  0
   26.9156  -20.5986  -15.3747 C   0  0  1  0  0  0  0  0  0  0  0  0
   26.4935  -20.0353  -14.0776 C   0  0  0  0  0  0  0  0  0  0  0  0
   26.7006  -18.8225  -13.8040 O   0  0  0  0  0  0  0  0  0  0  0  0
   23.2287  -19.6878  -13.0914 C   0  0  0  0  0  0  0  0  0  0  0  0
   23.7475  -20.4560  -11.8986 C   0  0  1  0  0  0  0  0  0  0  0  0
   23.3818  -21.9195  -12.0067 C   0  0  0  0  0  0  0  0  0  0  0  0
   25.2720  -20.2888  -11.9038 C   0  0  2  0  0  0  0  0  0  0  0  0
   25.8412  -20.8489  -13.1101 N   0  0  0  0  0  0  0  0  0  0  0  0
   25.8168  -20.8392  -10.6549 C   0  0  0  0  0  0  0  0  0  0  0  0
   26.0316  -22.0954  -10.5503 O   0  0  0  0  0  0  0  0  0  0  0  0
   27.9273  -18.6076   -5.2315 C   0  0  0  0  0  0  0  0  0  0  0  0
   27.5521  -19.8111   -6.0431 C   0  0  2  0  0  0  0  0  0  0  0  0
   28.7459  -20.7235   -6.1834 C   0  0  0  0  0  0  0  0  0  0  0  0
   27.1051  -19.4355   -7.4158 C   0  0  0  0  0  0  0  0  0  0  0  0
   26.5745  -20.6002   -8.2368 C   0  0  2  0  0  0  0  0  0  0  0  0
   26.1328  -20.0610   -9.5174 N   0  0  0  0  0  0  0  0  0  0  0  0
   25.4029  -21.1209   -7.4935 C   0  0  0  0  0  0  0  0  0  0  0  0
   25.4897  -21.9281   -6.5354 O   0  0  0  0  0  0  0  0  0  0  0  0
   24.1324  -20.6747   -7.8951 O   0  0  0  0  0  0  0  0  0  0  0  0
  2  3  1  0
  2  1  1  0
  3  4  1  0
  4  5  1  0
  5  1  1  0
  5  6  1  1
  6 12  1  0
  6  7  2  0
  9  8  1  6
  9 11  1  0
  9 10  1  0
 11 13  1  0
 11 12  1  6
 13 14  2  0
 16 18  1  0
 16 15  1  1
 17 16  1  0
 19 18  1  1
 19 21  1  0
 20 19  1  0
 20 13  1  0
 21 23  1  0
 22 21  2  0
M  END
$$$$
