PVL.pdb
     RDKit          3D

 23 23  0  0  1  0  0  0  0  0999 V2000
   26.7629  -19.0401  -16.3104 N   0  0  0  0  0  0  0  0  0  0  0  0
   27.5460  -17.9719  -16.8143 C   0  0  0  0  0  0  0  0  0  0  0  0
   28.4880  -17.6359  -15.6772 C   0  0  0  0  0  0  0  0  0  0  0  0
   28.8151  -19.0294  -15.1452 C   0  0  0  0  0  0  0  0  0  0  0  0
   27.4198  -19.6590  -15.1787 C   0  0  1  0  0  0  0  0  0  0  0  0
   26.7330  -19.2212  -13.9481 C   0  0  0  0  0  0  0  0  0  0  0  0
   26.0140  -18.1859  -13.9451 O   0  0  0  0  0  0  0  0  0  0  0  0
   24.1787  -19.7493  -13.5526 C   0  0  0  0  0  0  0  0  0  0  0  0
   24.5327  -20.6077  -12.3610 C   0  0  1  0  0  0  0  0  0  0  0  0
   24.7816  -22.0369  -12.7885 C   0  0  0  0  0  0  0  0  0  0  0  0
   25.8067  -20.0060  -11.7554 C   0  0  2  0  0  0  0  0  0  0  0  0
   26.8657  -19.9603  -12.7400 N   0  0  0  0  0  0  0  0  0  0  0  0
   26.1425  -20.7378  -10.5260 C   0  0  0  0  0  0  0  0  0  0  0  0
   26.3996  -21.9894  -10.5774 O   0  0  0  0  0  0  0  0  0  0  0  0
   28.8472  -20.6095   -6.4982 C   0  0  0  0  0  0  0  0  0  0  0  0
   27.9381  -19.4526   -6.7859 C   0  0  2  0  0  0  0  0  0  0  0  0
   28.0403  -18.4357   -5.6757 C   0  0  0  0  0  0  0  0  0  0  0  0
   26.5118  -19.8794   -6.8796 C   0  0  0  0  0  0  0  0  0  0  0  0
   26.2355  -20.8844   -7.9868 C   0  0  2  0  0  0  0  0  0  0  0  0
   26.2049  -20.1459   -9.2435 N   0  0  0  0  0  0  0  0  0  0  0  0
   24.8881  -21.4351   -7.7086 C   0  0  0  0  0  0  0  0  0  0  0  0
   24.6778  -22.4014   -6.9344 O   0  0  0  0  0  0  0  0  0  0  0  0
   23.7965  -20.8295   -8.3537 O   0  0  0  0  0  0  0  0  0  0  0  0
  2  3  1  0
  2  1  1  0
  3  4  1  0
  4  5  1  0
  5  1  1  0
  5  6  1  1
  6 12  1  0
  6  7  2  0
  9  8  1  6
  9 11  1  0
  9 10  1  0
 11 13  1  0
 11 12  1  6
 13 14  2  0
 16 18  1  0
 16 15  1  1
 17 16  1  0
 19 18  1  1
 19 21  1  0
 20 19  1  0
 20 13  1  0
 21 23  1  0
 22 21  2  0
M  END
$$$$
