PVL.pdb
     RDKit          3D

 23 23  0  0  1  0  0  0  0  0999 V2000
   27.2885  -20.5825  -17.0349 N   0  0  0  0  0  0  0  0  0  0  0  0
   28.6817  -20.5529  -17.2922 C   0  0  0  0  0  0  0  0  0  0  0  0
   29.3009  -21.1444  -16.0431 C   0  0  0  0  0  0  0  0  0  0  0  0
   28.3069  -22.2582  -15.7219 C   0  0  0  0  0  0  0  0  0  0  0  0
   26.9904  -21.5171  -15.9705 C   0  0  1  0  0  0  0  0  0  0  0  0
   26.7051  -20.7471  -14.7443 C   0  0  0  0  0  0  0  0  0  0  0  0
   27.1255  -19.5661  -14.6127 O   0  0  0  0  0  0  0  0  0  0  0  0
   23.9740  -19.3923  -14.2580 C   0  0  0  0  0  0  0  0  0  0  0  0
   23.9432  -20.1249  -12.9372 C   0  0  1  0  0  0  0  0  0  0  0  0
   23.0801  -21.3630  -13.0340 C   0  0  0  0  0  0  0  0  0  0  0  0
   25.3930  -20.5127  -12.6217 C   0  0  2  0  0  0  0  0  0  0  0  0
   25.9468  -21.3208  -13.6863 N   0  0  0  0  0  0  0  0  0  0  0  0
   25.4422  -21.1334  -11.2906 C   0  0  0  0  0  0  0  0  0  0  0  0
   25.2339  -22.3885  -11.1628 O   0  0  0  0  0  0  0  0  0  0  0  0
   28.5947  -21.0232   -7.8883 C   0  0  0  0  0  0  0  0  0  0  0  0
   27.7797  -19.7827   -8.1001 C   0  0  2  0  0  0  0  0  0  0  0  0
   28.2594  -18.6933   -7.1726 C   0  0  0  0  0  0  0  0  0  0  0  0
   26.3338  -20.0153   -7.8165 C   0  0  0  0  0  0  0  0  0  0  0  0
   25.6673  -21.0055   -8.7586 C   0  0  2  0  0  0  0  0  0  0  0  0
   25.7103  -20.4263  -10.0959 N   0  0  0  0  0  0  0  0  0  0  0  0
   24.2577  -21.1051   -8.3124 C   0  0  0  0  0  0  0  0  0  0  0  0
   23.3056  -20.5124   -8.8775 O   0  0  0  0  0  0  0  0  0  0  0  0
   23.9892  -21.9132   -7.1946 O   0  0  0  0  0  0  0  0  0  0  0  0
  2  3  1  0
  2  1  1  0
  3  4  1  0
  4  5  1  0
  5  1  1  0
  5  6  1  1
  6 12  1  0
  6  7  2  0
  9  8  1  6
  9 11  1  0
  9 10  1  0
 11 13  1  0
 11 12  1  6
 13 14  2  0
 16 18  1  0
 16 15  1  1
 17 16  1  0
 19 18  1  1
 19 21  1  0
 20 19  1  0
 20 13  1  0
 21 23  1  0
 22 21  2  0
M  END
$$$$
