NTW.pdb
     RDKit          3D

 30 31  0  0  1  0  0  0  0  0999 V2000
   29.6669  -25.3039  -16.7197 N   0  0  0  0  0  0  0  0  0  0  0  0
   29.1042  -24.7317  -17.8863 C   0  0  0  0  0  0  0  0  0  0  0  0
   29.8268  -24.0489  -18.6377 O   0  0  0  0  0  0  0  0  0  0  0  0
   27.6983  -24.9496  -18.1871 C   0  0  0  0  0  0  0  0  0  0  0  0
   26.7908  -23.7804  -18.1014 C   0  0  2  0  0  0  0  0  0  0  0  0
   27.0563  -23.1066  -16.8242 N   0  0  0  0  0  0  0  0  0  0  0  0
   25.3632  -24.0289  -18.3003 C   0  0  0  0  0  0  0  0  0  0  0  0
   24.8809  -25.0084  -18.9226 O   0  0  0  0  0  0  0  0  0  0  0  0
   23.4132  -25.8603  -17.6616 C   0  0  0  0  0  0  0  0  0  0  0  0
   22.6422  -24.6885  -17.1504 C   0  0  1  0  0  0  0  0  0  0  0  0
   22.8926  -24.5764  -15.7721 O   0  0  0  0  0  0  0  0  0  0  0  0
   22.9426  -23.3999  -17.8554 C   0  0  2  0  0  0  0  0  0  0  0  0
   24.3447  -23.1416  -17.7826 N   0  0  0  0  0  0  0  0  0  0  0  0
   22.0955  -22.3128  -17.3274 C   0  0  0  0  0  0  0  0  0  0  0  0
   22.6201  -21.5150  -16.5071 O   0  0  0  0  0  0  0  0  0  0  0  0
   20.7435  -22.0889  -17.6628 N   0  0  0  0  0  0  0  0  0  0  0  0
   19.9871  -20.9325  -17.1601 C   0  0  1  0  0  0  0  0  0  0  0  0
   20.4804  -19.6701  -17.7375 C   0  0  0  0  0  0  0  0  0  0  0  0
   20.1968  -19.5590  -19.1736 C   0  0  0  0  0  0  0  0  0  0  0  0
   18.9294  -19.3847  -19.7579 C   0  0  0  0  0  0  0  0  0  0  0  0
   19.0432  -19.3713  -21.0965 N   0  0  0  0  0  0  0  0  0  0  0  0
   20.3276  -19.5275  -21.4469 C   0  0  0  0  0  0  0  0  0  0  0  0
   20.9346  -19.5592  -22.6931 C   0  0  0  0  0  0  0  0  0  0  0  0
   22.2959  -19.7081  -22.8022 C   0  0  0  0  0  0  0  0  0  0  0  0
   23.0042  -19.8214  -21.6272 C   0  0  0  0  0  0  0  0  0  0  0  0
   22.4149  -19.7920  -20.3861 C   0  0  0  0  0  0  0  0  0  0  0  0
   21.0425  -19.6429  -20.2711 C   0  0  0  0  0  0  0  0  0  0  0  0
   18.5689  -21.1967  -17.3651 C   0  0  0  0  0  0  0  0  0  0  0  0
   18.1024  -22.1722  -18.0008 O   0  0  0  0  0  0  0  0  0  0  0  0
   17.5930  -20.3282  -16.8338 O   0  0  0  0  0  0  0  0  0  0  0  0
  1  2  1  0
  2  3  2  0
  4  5  1  0
  4  2  1  0
  5  7  1  0
  5  6  1  1
  7  8  2  0
 10  9  1  6
 10 11  1  0
 10 12  1  0
 12 13  1  1
 13  7  1  0
 14 15  2  0
 14 12  1  0
 16 14  1  0
 17 16  1  0
 17 28  1  0
 17 18  1  6
 19 27  1  0
 19 18  1  0
 20 19  2  0
 21 20  1  0
 21 22  1  0
 22 27  2  0
 23 22  1  0
 23 24  2  0
 24 25  1  0
 25 26  2  0
 27 26  1  0
 28 29  2  0
 28 30  1  0
M  END
$$$$
