NTW.pdb
     RDKit          3D

 30 31  0  0  1  0  0  0  0  0999 V2000
   31.7228  -18.2272  -18.5295 N   0  0  0  0  0  0  0  0  0  0  0  0
   30.6997  -19.0365  -17.9788 C   0  0  0  0  0  0  0  0  0  0  0  0
   30.7020  -20.2609  -18.2108 O   0  0  0  0  0  0  0  0  0  0  0  0
   29.6674  -18.4279  -17.1549 C   0  0  0  0  0  0  0  0  0  0  0  0
   28.7237  -19.3352  -16.4591 C   0  0  2  0  0  0  0  0  0  0  0  0
   27.7241  -19.7725  -17.4418 N   0  0  0  0  0  0  0  0  0  0  0  0
   28.1011  -18.8362  -15.2333 C   0  0  0  0  0  0  0  0  0  0  0  0
   27.6827  -17.6637  -15.0618 O   0  0  0  0  0  0  0  0  0  0  0  0
   25.6581  -17.9867  -14.6037 C   0  0  0  0  0  0  0  0  0  0  0  0
   25.6596  -19.0507  -13.5564 C   0  0  1  0  0  0  0  0  0  0  0  0
   25.0695  -20.2001  -14.1094 O   0  0  0  0  0  0  0  0  0  0  0  0
   27.0156  -19.3615  -12.9975 C   0  0  2  0  0  0  0  0  0  0  0  0
   27.9045  -19.6735  -14.0701 N   0  0  0  0  0  0  0  0  0  0  0  0
   26.9198  -20.4091  -11.9624 C   0  0  0  0  0  0  0  0  0  0  0  0
   27.0362  -21.6057  -12.3357 O   0  0  0  0  0  0  0  0  0  0  0  0
   26.7078  -20.1860  -10.5855 N   0  0  0  0  0  0  0  0  0  0  0  0
   26.5378  -21.2863   -9.6251 C   0  0  1  0  0  0  0  0  0  0  0  0
   27.6463  -21.3357   -8.6561 C   0  0  0  0  0  0  0  0  0  0  0  0
   27.5254  -20.3133   -7.6095 C   0  0  0  0  0  0  0  0  0  0  0  0
   26.7253  -19.1581   -7.6667 C   0  0  0  0  0  0  0  0  0  0  0  0
   26.8986  -18.4287   -6.5519 N   0  0  0  0  0  0  0  0  0  0  0  0
   27.7775  -19.0353   -5.7416 C   0  0  0  0  0  0  0  0  0  0  0  0
   28.2555  -18.6825   -4.4889 C   0  0  0  0  0  0  0  0  0  0  0  0
   29.1498  -19.4913   -3.8305 C   0  0  0  0  0  0  0  0  0  0  0  0
   29.5335  -20.6459   -4.4747 C   0  0  0  0  0  0  0  0  0  0  0  0
   29.0678  -21.0067   -5.7161 C   0  0  0  0  0  0  0  0  0  0  0  0
   28.1667  -20.1940   -6.3843 C   0  0  0  0  0  0  0  0  0  0  0  0
   25.2073  -21.1747   -9.0413 C   0  0  0  0  0  0  0  0  0  0  0  0
   24.3873  -20.2580   -9.2874 O   0  0  0  0  0  0  0  0  0  0  0  0
   24.7437  -22.1388   -8.1222 O   0  0  0  0  0  0  0  0  0  0  0  0
  1  2  1  0
  2  3  2  0
  4  5  1  0
  4  2  1  0
  5  7  1  0
  5  6  1  6
  7  8  2  0
 10  9  1  6
 10 11  1  0
 10 12  1  0
 12 13  1  6
 13  7  1  0
 14 15  2  0
 14 12  1  0
 16 14  1  0
 17 16  1  0
 17 28  1  0
 17 18  1  1
 19 27  1  0
 19 18  1  0
 20 19  2  0
 21 20  1  0
 21 22  1  0
 22 27  2  0
 23 22  1  0
 23 24  2  0
 24 25  1  0
 25 26  2  0
 27 26  1  0
 28 29  2  0
 28 30  1  0
M  END
$$$$
