NTW.pdb
     RDKit          3D

 30 31  0  0  1  0  0  0  0  0999 V2000
   29.1857  -18.4766  -19.4346 N   0  0  0  0  0  0  0  0  0  0  0  0
   29.2625  -17.9328  -18.1295 C   0  0  0  0  0  0  0  0  0  0  0  0
   30.3239  -17.3977  -17.7554 O   0  0  0  0  0  0  0  0  0  0  0  0
   28.1062  -18.0075  -17.2508 C   0  0  0  0  0  0  0  0  0  0  0  0
   28.3122  -18.5698  -15.8946 C   0  0  2  0  0  0  0  0  0  0  0  0
   29.0878  -19.8078  -16.0418 N   0  0  0  0  0  0  0  0  0  0  0  0
   27.1223  -18.7670  -15.0672 C   0  0  0  0  0  0  0  0  0  0  0  0
   26.1441  -17.9801  -15.0104 O   0  0  0  0  0  0  0  0  0  0  0  0
   24.6764  -21.1634  -15.5249 C   0  0  0  0  0  0  0  0  0  0  0  0
   25.0737  -21.3805  -14.1022 C   0  0  1  0  0  0  0  0  0  0  0  0
   25.8776  -22.5321  -14.0505 O   0  0  0  0  0  0  0  0  0  0  0  0
   25.7716  -20.2121  -13.4735 C   0  0  2  0  0  0  0  0  0  0  0  0
   26.9583  -19.9221  -14.2120 N   0  0  0  0  0  0  0  0  0  0  0  0
   25.9945  -20.4567  -12.0352 C   0  0  0  0  0  0  0  0  0  0  0  0
   27.1783  -20.6594  -11.6580 O   0  0  0  0  0  0  0  0  0  0  0  0
   24.9928  -20.4837  -11.0420 N   0  0  0  0  0  0  0  0  0  0  0  0
   25.2803  -20.8232   -9.6406 C   0  0  1  0  0  0  0  0  0  0  0  0
   26.3850  -20.0108   -9.1021 C   0  0  0  0  0  0  0  0  0  0  0  0
   26.6175  -20.2532   -7.6730 C   0  0  0  0  0  0  0  0  0  0  0  0
   25.8921  -21.1353   -6.8523 C   0  0  0  0  0  0  0  0  0  0  0  0
   26.3507  -21.0653   -5.5915 N   0  0  0  0  0  0  0  0  0  0  0  0
   27.3531  -20.1781   -5.5190 C   0  0  0  0  0  0  0  0  0  0  0  0
   28.1435  -19.7819   -4.4511 C   0  0  0  0  0  0  0  0  0  0  0  0
   29.1442  -18.8577   -4.6293 C   0  0  0  0  0  0  0  0  0  0  0  0
   29.3106  -18.3605   -5.9022 C   0  0  0  0  0  0  0  0  0  0  0  0
   28.5340  -18.7445   -6.9689 C   0  0  0  0  0  0  0  0  0  0  0  0
   27.5231  -19.6753   -6.7939 C   0  0  0  0  0  0  0  0  0  0  0  0
   24.0322  -20.7480   -8.8924 C   0  0  0  0  0  0  0  0  0  0  0  0
   23.0613  -20.0090   -9.1834 O   0  0  0  0  0  0  0  0  0  0  0  0
   23.8357  -21.5411   -7.7429 O   0  0  0  0  0  0  0  0  0  0  0  0
  1  2  1  0
  2  3  2  0
  4  5  1  0
  4  2  1  0
  5  7  1  0
  5  6  1  6
  7  8  2  0
 10  9  1  6
 10 11  1  0
 10 12  1  0
 12 13  1  6
 13  7  1  0
 14 15  2  0
 14 12  1  0
 16 14  1  0
 17 16  1  0
 17 28  1  0
 17 18  1  1
 19 27  1  0
 19 18  1  0
 20 19  2  0
 21 20  1  0
 21 22  1  0
 22 27  2  0
 23 22  1  0
 23 24  2  0
 24 25  1  0
 25 26  2  0
 27 26  1  0
 28 29  2  0
 28 30  1  0
M  END
$$$$
