NTW.pdb
     RDKit          3D

 30 31  0  0  1  0  0  0  0  0999 V2000
   21.6767  -14.4768  -18.5406 N   0  0  0  0  0  0  0  0  0  0  0  0
   21.6046  -14.1487  -17.1650 C   0  0  0  0  0  0  0  0  0  0  0  0
   21.7940  -12.9690  -16.8108 O   0  0  0  0  0  0  0  0  0  0  0  0
   21.3119  -15.1895  -16.1925 C   0  0  0  0  0  0  0  0  0  0  0  0
   21.0800  -16.5606  -16.7062 C   0  0  2  0  0  0  0  0  0  0  0  0
   19.7169  -16.6050  -17.2500 N   0  0  0  0  0  0  0  0  0  0  0  0
   21.3365  -17.6689  -15.7868 C   0  0  0  0  0  0  0  0  0  0  0  0
   20.7847  -17.8211  -14.6679 O   0  0  0  0  0  0  0  0  0  0  0  0
   20.7743  -21.2123  -16.5741 C   0  0  0  0  0  0  0  0  0  0  0  0
   22.1869  -21.1075  -16.1023 C   0  0  1  0  0  0  0  0  0  0  0  0
   23.0229  -21.1622  -17.2305 O   0  0  0  0  0  0  0  0  0  0  0  0
   22.4725  -19.8846  -15.2834 C   0  0  2  0  0  0  0  0  0  0  0  0
   22.2784  -18.7237  -16.0913 N   0  0  0  0  0  0  0  0  0  0  0  0
   23.8087  -19.9783  -14.6640 C   0  0  0  0  0  0  0  0  0  0  0  0
   24.7134  -19.2316  -15.1207 O   0  0  0  0  0  0  0  0  0  0  0  0
   24.1625  -20.8356  -13.6008 N   0  0  0  0  0  0  0  0  0  0  0  0
   25.5389  -20.9367  -13.0934 C   0  0  1  0  0  0  0  0  0  0  0  0
   25.8534  -19.8425  -12.1586 C   0  0  0  0  0  0  0  0  0  0  0  0
   27.0381  -20.1251  -11.3390 C   0  0  0  0  0  0  0  0  0  0  0  0
   28.3335  -20.3914  -11.8173 C   0  0  0  0  0  0  0  0  0  0  0  0
   29.1552  -20.6504  -10.7865 N   0  0  0  0  0  0  0  0  0  0  0  0
   28.4782  -20.5714   -9.6322 C   0  0  0  0  0  0  0  0  0  0  0  0
   28.8933  -20.7353   -8.3196 C   0  0  0  0  0  0  0  0  0  0  0  0
   28.0061  -20.5773   -7.2827 C   0  0  0  0  0  0  0  0  0  0  0  0
   26.7106  -20.2542   -7.6179 C   0  0  0  0  0  0  0  0  0  0  0  0
   26.2863  -20.0894   -8.9145 C   0  0  0  0  0  0  0  0  0  0  0  0
   27.1770  -20.2485   -9.9634 C   0  0  0  0  0  0  0  0  0  0  0  0
   25.7269  -22.2805  -12.5623 C   0  0  0  0  0  0  0  0  0  0  0  0
   24.8101  -23.0183  -12.1283 O   0  0  0  0  0  0  0  0  0  0  0  0
   27.0134  -22.8556  -12.5040 O   0  0  0  0  0  0  0  0  0  0  0  0
  1  2  1  0
  2  3  2  0
  4  5  1  0
  4  2  1  0
  5  7  1  0
  5  6  1  1
  7  8  2  0
 10  9  1  6
 10 11  1  0
 10 12  1  0
 12 13  1  6
 13  7  1  0
 14 15  2  0
 14 12  1  0
 16 14  1  0
 17 16  1  0
 17 28  1  0
 17 18  1  1
 19 27  1  0
 19 18  1  0
 20 19  2  0
 21 20  1  0
 21 22  1  0
 22 27  2  0
 23 22  1  0
 23 24  2  0
 24 25  1  0
 25 26  2  0
 27 26  1  0
 28 29  2  0
 28 30  1  0
M  END
$$$$
