NTW.pdb
     RDKit          3D

 30 31  0  0  1  0  0  0  0  0999 V2000
   25.9991  -24.4325  -18.0346 N   0  0  0  0  0  0  0  0  0  0  0  0
   27.1846  -24.7037  -17.3093 C   0  0  0  0  0  0  0  0  0  0  0  0
   27.5180  -25.8879  -17.1103 O   0  0  0  0  0  0  0  0  0  0  0  0
   27.9901  -23.6004  -16.8106 C   0  0  0  0  0  0  0  0  0  0  0  0
   27.4985  -22.2249  -17.0637 C   0  0  2  0  0  0  0  0  0  0  0  0
   28.0314  -21.7964  -18.3631 N   0  0  0  0  0  0  0  0  0  0  0  0
   27.7396  -21.2286  -16.0203 C   0  0  0  0  0  0  0  0  0  0  0  0
   28.4505  -20.2010  -16.1540 O   0  0  0  0  0  0  0  0  0  0  0  0
   25.3354  -19.1212  -14.4680 C   0  0  0  0  0  0  0  0  0  0  0  0
   26.7785  -19.0650  -14.0897 C   0  0  1  0  0  0  0  0  0  0  0  0
   26.9216  -18.0989  -13.0792 O   0  0  0  0  0  0  0  0  0  0  0  0
   27.3525  -20.3807  -13.6573 C   0  0  2  0  0  0  0  0  0  0  0  0
   27.1635  -21.3394  -14.6980 N   0  0  0  0  0  0  0  0  0  0  0  0
   26.7954  -20.7828  -12.3512 C   0  0  0  0  0  0  0  0  0  0  0  0
   25.6751  -21.3570  -12.3504 O   0  0  0  0  0  0  0  0  0  0  0  0
   27.4108  -20.5787  -11.0981 N   0  0  0  0  0  0  0  0  0  0  0  0
   26.8688  -21.1407   -9.8521 C   0  0  1  0  0  0  0  0  0  0  0  0
   27.9322  -21.3946   -8.8647 C   0  0  0  0  0  0  0  0  0  0  0  0
   27.8572  -20.4898   -7.7111 C   0  0  0  0  0  0  0  0  0  0  0  0
   27.0749  -19.3246   -7.6201 C   0  0  0  0  0  0  0  0  0  0  0  0
   27.2910  -18.7223   -6.4388 N   0  0  0  0  0  0  0  0  0  0  0  0
   28.1819  -19.4245   -5.7247 C   0  0  0  0  0  0  0  0  0  0  0  0
   28.7001  -19.2156   -4.4558 C   0  0  0  0  0  0  0  0  0  0  0  0
   29.5989  -20.1027   -3.9148 C   0  0  0  0  0  0  0  0  0  0  0  0
   29.9457  -21.1858   -4.6905 C   0  0  0  0  0  0  0  0  0  0  0  0
   29.4398  -21.4042   -5.9494 C   0  0  0  0  0  0  0  0  0  0  0  0
   28.5340  -20.5121   -6.4994 C   0  0  0  0  0  0  0  0  0  0  0  0
   25.7921  -20.2715   -9.3955 C   0  0  0  0  0  0  0  0  0  0  0  0
   25.7008  -19.0457   -9.6452 O   0  0  0  0  0  0  0  0  0  0  0  0
   24.7401  -20.7850   -8.6089 O   0  0  0  0  0  0  0  0  0  0  0  0
  1  2  1  0
  2  3  2  0
  4  5  1  0
  4  2  1  0
  5  7  1  0
  5  6  1  6
  7  8  2  0
 10  9  1  1
 10 11  1  0
 10 12  1  0
 12 13  1  6
 13  7  1  0
 14 15  2  0
 14 12  1  0
 16 14  1  0
 17 16  1  0
 17 28  1  0
 17 18  1  1
 19 27  1  0
 19 18  1  0
 20 19  2  0
 21 20  1  0
 21 22  1  0
 22 27  2  0
 23 22  1  0
 23 24  2  0
 24 25  1  0
 25 26  2  0
 27 26  1  0
 28 29  2  0
 28 30  1  0
M  END
$$$$
