NTW.pdb
     RDKit          3D

 30 31  0  0  1  0  0  0  0  0999 V2000
   24.4144  -15.0792  -14.7149 N   0  0  0  0  0  0  0  0  0  0  0  0
   25.1791  -13.9522  -15.1024 C   0  0  0  0  0  0  0  0  0  0  0  0
   26.4046  -13.9422  -14.8761 O   0  0  0  0  0  0  0  0  0  0  0  0
   24.5246  -12.8298  -15.7554 C   0  0  0  0  0  0  0  0  0  0  0  0
   23.0485  -12.8789  -15.8844 C   0  0  2  0  0  0  0  0  0  0  0  0
   22.7197  -13.9896  -16.7867 N   0  0  0  0  0  0  0  0  0  0  0  0
   22.3722  -11.6418  -16.2737 C   0  0  0  0  0  0  0  0  0  0  0  0
   22.2004  -11.2545  -17.4568 O   0  0  0  0  0  0  0  0  0  0  0  0
   19.0719   -8.2001  -15.0330 C   0  0  0  0  0  0  0  0  0  0  0  0
   19.8739   -9.4386  -14.8053 C   0  0  1  0  0  0  0  0  0  0  0  0
   19.0366  -10.5430  -15.0387 O   0  0  0  0  0  0  0  0  0  0  0  0
   21.1190   -9.5262  -15.6358 C   0  0  2  0  0  0  0  0  0  0  0  0
   21.8224  -10.7226  -15.3013 N   0  0  0  0  0  0  0  0  0  0  0  0
   21.9179   -8.2927  -15.5004 C   0  0  0  0  0  0  0  0  0  0  0  0
   22.3722   -8.0183  -14.3589 O   0  0  0  0  0  0  0  0  0  0  0  0
   22.2177   -7.3901  -16.5426 N   0  0  0  0  0  0  0  0  0  0  0  0
   23.0283   -6.1818  -16.3309 C   0  0  1  0  0  0  0  0  0  0  0  0
   23.3916   -5.5426  -17.6074 C   0  0  0  0  0  0  0  0  0  0  0  0
   24.1880   -4.3236  -17.4204 C   0  0  0  0  0  0  0  0  0  0  0  0
   25.5817   -4.2625  -17.2422 C   0  0  0  0  0  0  0  0  0  0  0  0
   25.9612   -2.9874  -17.0551 N   0  0  0  0  0  0  0  0  0  0  0  0
   24.8909   -2.1816  -17.0987 C   0  0  0  0  0  0  0  0  0  0  0  0
   24.7820   -0.8045  -16.9804 C   0  0  0  0  0  0  0  0  0  0  0  0
   23.5578   -0.1901  -17.0863 C   0  0  0  0  0  0  0  0  0  0  0  0
   22.4715   -1.0052  -17.3115 C   0  0  0  0  0  0  0  0  0  0  0  0
   22.5658   -2.3710  -17.4302 C   0  0  0  0  0  0  0  0  0  0  0  0
   23.7978   -2.9951  -17.3233 C   0  0  0  0  0  0  0  0  0  0  0  0
   22.3237   -5.3252  -15.3859 C   0  0  0  0  0  0  0  0  0  0  0  0
   22.8502   -4.7520  -14.4022 O   0  0  0  0  0  0  0  0  0  0  0  0
   20.9425   -5.0799  -15.5314 O   0  0  0  0  0  0  0  0  0  0  0  0
  1  2  1  0
  2  3  2  0
  4  5  1  0
  4  2  1  0
  5  7  1  0
  5  6  1  6
  7  8  2  0
 10  9  1  6
 10 11  1  0
 10 12  1  0
 12 13  1  1
 13  7  1  0
 14 15  2  0
 14 12  1  0
 16 14  1  0
 17 16  1  0
 17 28  1  0
 17 18  1  6
 19 27  1  0
 19 18  1  0
 20 19  2  0
 21 20  1  0
 21 22  1  0
 22 27  2  0
 23 22  1  0
 23 24  2  0
 24 25  1  0
 25 26  2  0
 27 26  1  0
 28 29  2  0
 28 30  1  0
M  END
$$$$
