KKY.pdb
     RDKit          3D

 31 31  0  0  1  0  0  0  0  0999 V2000
    6.5520  -16.9784   19.8844 N   0  0  0  0  0  0  0  0  0  0  0  0
    7.5941  -16.3711   20.6591 C   0  0  1  0  0  0  0  0  0  0  0  0
    7.3004  -14.9229   20.8915 C   0  0  0  0  0  0  0  0  0  0  0  0
    7.3711  -14.0903   19.6532 C   0  0  0  0  0  0  0  0  0  0  0  0
    8.1624  -12.8159   19.8490 C   0  0  0  0  0  0  0  0  0  0  0  0
    8.2303  -12.0608   18.5387 C   0  0  0  0  0  0  0  0  0  0  0  0
    9.5511  -11.5978   18.2238 N   0  0  0  0  0  0  0  0  0  0  0  0
    7.7057  -17.0332   22.0040 C   0  0  0  0  0  0  0  0  0  0  0  0
    6.7032  -17.1652   22.7505 O   0  0  0  0  0  0  0  0  0  0  0  0
    8.9524  -17.5346   22.4798 N   0  0  0  0  0  0  0  0  0  0  0  0
    9.1116  -18.1869   23.7490 C   0  0  1  0  0  0  0  0  0  0  0  0
    9.8586  -19.4789   23.6908 C   0  0  0  0  0  0  0  0  0  0  0  0
    9.5872  -20.3734   24.8775 C   0  0  0  0  0  0  0  0  0  0  0  0
    9.0599  -21.6937   24.3001 C   0  0  0  0  0  0  0  0  0  0  0  0
    8.7653  -22.6772   25.4126 C   0  0  0  0  0  0  0  0  0  0  0  0
    8.3464  -23.9140   24.7782 N   0  0  0  0  0  0  0  0  0  0  0  0
    9.6622  -17.2614   24.7850 C   0  0  0  0  0  0  0  0  0  0  0  0
   10.6848  -16.5662   24.5546 O   0  0  0  0  0  0  0  0  0  0  0  0
    6.5069  -11.0407   25.0911 O   0  0  0  0  0  0  0  0  0  0  0  0
    7.0074  -12.1441   25.7506 C   0  0  0  0  0  0  0  0  0  0  0  0
    6.2005  -13.1687   26.2081 C   0  0  0  0  0  0  0  0  0  0  0  0
    6.7113  -14.2677   26.8665 C   0  0  0  0  0  0  0  0  0  0  0  0
    8.0829  -14.3768   27.0926 C   0  0  0  0  0  0  0  0  0  0  0  0
    8.5586  -15.5771   27.8091 C   0  0  0  0  0  0  0  0  0  0  0  0
    9.6785  -16.2941   27.1078 C   0  0  2  0  0  0  0  0  0  0  0  0
    9.0619  -17.1256   26.0649 N   0  0  0  0  0  0  0  0  0  0  0  0
   10.3752  -17.2022   28.0411 C   0  0  0  0  0  0  0  0  0  0  0  0
   10.3493  -18.5648   27.8471 O   0  0  0  0  0  0  0  0  0  0  0  0
    8.8844  -13.3631   26.6405 C   0  0  0  0  0  0  0  0  0  0  0  0
    8.3570  -12.2525   25.9738 C   0  0  0  0  0  0  0  0  0  0  0  0
   11.0182  -16.7806   29.0463 O   0  0  0  0  0  0  0  0  0  0  0  0
  2  3  1  0
  2  1  1  6
  3  4  1  0
  4  5  1  0
  5  6  1  0
  7  6  1  0
  8  2  1  0
  9  8  2  0
 10  8  1  0
 11 17  1  0
 11 10  1  0
 11 12  1  6
 13 12  1  0
 13 14  1  0
 15 14  1  0
 15 16  1  0
 17 26  1  0
 18 17  2  0
 19 20  1  0
 20 30  2  0
 21 20  1  0
 21 22  2  0
 22 23  1  0
 23 29  2  0
 23 24  1  0
 25 27  1  0
 25 24  1  1
 26 25  1  0
 27 31  2  0
 27 28  1  0
 30 29  1  0
M  END
$$$$
