KKY.pdb
     RDKit          3D

 31 31  0  0  1  0  0  0  0  0999 V2000
    8.9781  -19.1027   19.8608 N   0  0  0  0  0  0  0  0  0  0  0  0
   10.3639  -18.7853   20.0450 C   0  0  1  0  0  0  0  0  0  0  0  0
   11.0840  -18.7942   18.7340 C   0  0  0  0  0  0  0  0  0  0  0  0
   10.3197  -19.4562   17.6344 C   0  0  0  0  0  0  0  0  0  0  0  0
   11.0898  -19.5048   16.3331 C   0  0  0  0  0  0  0  0  0  0  0  0
   10.2446  -20.1807   15.2746 C   0  0  0  0  0  0  0  0  0  0  0  0
   10.8837  -20.2302   13.9912 N   0  0  0  0  0  0  0  0  0  0  0  0
   10.5162  -17.4122   20.6374 C   0  0  0  0  0  0  0  0  0  0  0  0
   11.6455  -16.9609   20.9547 O   0  0  0  0  0  0  0  0  0  0  0  0
    9.3851  -16.5737   20.8601 N   0  0  0  0  0  0  0  0  0  0  0  0
    9.4838  -15.2099   21.2983 C   0  0  1  0  0  0  0  0  0  0  0  0
    8.4426  -14.3015   20.7315 C   0  0  0  0  0  0  0  0  0  0  0  0
    8.3833  -14.3378   19.2224 C   0  0  0  0  0  0  0  0  0  0  0  0
    7.1875  -13.4622   18.8249 C   0  0  0  0  0  0  0  0  0  0  0  0
    7.0250  -13.4405   17.3200 C   0  0  0  0  0  0  0  0  0  0  0  0
    5.7555  -12.7922   17.0451 N   0  0  0  0  0  0  0  0  0  0  0  0
    9.5734  -15.1086   22.7864 C   0  0  0  0  0  0  0  0  0  0  0  0
    8.9527  -14.2117   23.4129 O   0  0  0  0  0  0  0  0  0  0  0  0
   10.8428  -14.4204   31.1978 O   0  0  0  0  0  0  0  0  0  0  0  0
   10.5534  -14.6422   29.8674 C   0  0  0  0  0  0  0  0  0  0  0  0
   10.5615  -13.6320   28.9243 C   0  0  0  0  0  0  0  0  0  0  0  0
   10.2707  -13.8647   27.5962 C   0  0  0  0  0  0  0  0  0  0  0  0
    9.9545  -15.1511   27.1609 C   0  0  0  0  0  0  0  0  0  0  0  0
    9.6479  -15.3254   25.7271 C   0  0  0  0  0  0  0  0  0  0  0  0
   10.8535  -15.6409   24.8863 C   0  0  2  0  0  0  0  0  0  0  0  0
   10.3558  -16.0114   23.5542 N   0  0  0  0  0  0  0  0  0  0  0  0
   11.5708  -16.8116   25.4302 C   0  0  0  0  0  0  0  0  0  0  0  0
   11.4122  -18.0575   24.8667 O   0  0  0  0  0  0  0  0  0  0  0  0
    9.9456  -16.1536   28.0933 C   0  0  0  0  0  0  0  0  0  0  0  0
   10.2420  -15.9077   29.4379 C   0  0  0  0  0  0  0  0  0  0  0  0
   12.3520  -16.7289   26.4224 O   0  0  0  0  0  0  0  0  0  0  0  0
  2  3  1  0
  2  1  1  6
  3  4  1  0
  4  5  1  0
  5  6  1  0
  7  6  1  0
  8  2  1  0
  9  8  2  0
 10  8  1  0
 11 17  1  0
 11 10  1  0
 11 12  1  1
 13 12  1  0
 13 14  1  0
 15 14  1  0
 15 16  1  0
 17 26  1  0
 18 17  2  0
 19 20  1  0
 20 30  2  0
 21 20  1  0
 21 22  2  0
 22 23  1  0
 23 29  2  0
 23 24  1  0
 25 27  1  0
 25 24  1  1
 26 25  1  0
 27 31  2  0
 27 28  1  0
 30 29  1  0
M  END
$$$$
