KKY.pdb
     RDKit          3D

 31 31  0  0  1  0  0  0  0  0999 V2000
   10.1934  -15.0840   19.7481 N   0  0  0  0  0  0  0  0  0  0  0  0
    9.1400  -14.5215   20.5412 C   0  0  1  0  0  0  0  0  0  0  0  0
    7.8582  -14.4959   19.7707 C   0  0  0  0  0  0  0  0  0  0  0  0
    8.0412  -14.6553   18.2967 C   0  0  0  0  0  0  0  0  0  0  0  0
    7.4945  -13.4851   17.5090 C   0  0  0  0  0  0  0  0  0  0  0  0
    7.6350  -13.7671   16.0283 C   0  0  0  0  0  0  0  0  0  0  0  0
    7.1466  -12.6998   15.2034 N   0  0  0  0  0  0  0  0  0  0  0  0
    8.9111  -15.3475   21.7761 C   0  0  0  0  0  0  0  0  0  0  0  0
    7.9948  -15.0647   22.5886 O   0  0  0  0  0  0  0  0  0  0  0  0
    9.7251  -16.4805   22.0689 N   0  0  0  0  0  0  0  0  0  0  0  0
    9.6119  -17.2461   23.2783 C   0  0  1  0  0  0  0  0  0  0  0  0
   10.3189  -18.5613   23.2460 C   0  0  0  0  0  0  0  0  0  0  0  0
   10.0971  -19.3834   24.4938 C   0  0  0  0  0  0  0  0  0  0  0  0
   10.8489  -20.7022   24.2706 C   0  0  0  0  0  0  0  0  0  0  0  0
   10.6121  -21.6485   25.4283 C   0  0  0  0  0  0  0  0  0  0  0  0
   11.4370  -22.8188   25.1882 N   0  0  0  0  0  0  0  0  0  0  0  0
    9.9726  -16.4395   24.4834 C   0  0  0  0  0  0  0  0  0  0  0  0
   10.9807  -15.6872   24.4810 O   0  0  0  0  0  0  0  0  0  0  0  0
    5.7652  -10.7386   25.0016 O   0  0  0  0  0  0  0  0  0  0  0  0
    6.3695  -11.8267   25.5965 C   0  0  0  0  0  0  0  0  0  0  0  0
    5.7273  -13.0397   25.7589 C   0  0  0  0  0  0  0  0  0  0  0  0
    6.3409  -14.1215   26.3551 C   0  0  0  0  0  0  0  0  0  0  0  0
    7.6517  -14.0183   26.8193 C   0  0  0  0  0  0  0  0  0  0  0  0
    8.2428  -15.2140   27.4525 C   0  0  0  0  0  0  0  0  0  0  0  0
    9.5424  -15.6454   26.8319 C   0  0  2  0  0  0  0  0  0  0  0  0
    9.2014  -16.4848   25.6750 N   0  0  0  0  0  0  0  0  0  0  0  0
   10.3116  -16.4836   27.7735 C   0  0  0  0  0  0  0  0  0  0  0  0
   10.5748  -17.8038   27.4858 O   0  0  0  0  0  0  0  0  0  0  0  0
    8.2899  -12.8176   26.6598 C   0  0  0  0  0  0  0  0  0  0  0  0
    7.6593  -11.7262   26.0538 C   0  0  0  0  0  0  0  0  0  0  0  0
   10.7583  -16.0382   28.8705 O   0  0  0  0  0  0  0  0  0  0  0  0
  2  3  1  0
  2  1  1  6
  3  4  1  0
  4  5  1  0
  5  6  1  0
  7  6  1  0
  8  2  1  0
  9  8  2  0
 10  8  1  0
 11 17  1  0
 11 10  1  0
 11 12  1  6
 13 12  1  0
 13 14  1  0
 15 14  1  0
 15 16  1  0
 17 26  1  0
 18 17  2  0
 19 20  1  0
 20 30  2  0
 21 20  1  0
 21 22  2  0
 22 23  1  0
 23 29  2  0
 23 24  1  0
 25 27  1  0
 25 24  1  1
 26 25  1  0
 27 31  2  0
 27 28  1  0
 30 29  1  0
M  END
$$$$
