KKY.pdb
     RDKit          3D

 31 31  0  0  1  0  0  0  0  0999 V2000
    9.1779  -15.0821   18.2378 N   0  0  0  0  0  0  0  0  0  0  0  0
    8.6676  -14.1182   19.1681 C   0  0  1  0  0  0  0  0  0  0  0  0
    7.6540  -13.2373   18.5092 C   0  0  0  0  0  0  0  0  0  0  0  0
    8.0260  -12.8288   17.1213 C   0  0  0  0  0  0  0  0  0  0  0  0
    7.7579  -13.9126   16.1004 C   0  0  0  0  0  0  0  0  0  0  0  0
    8.0869  -13.3921   14.7175 C   0  0  0  0  0  0  0  0  0  0  0  0
    7.9553  -14.3895   13.6948 N   0  0  0  0  0  0  0  0  0  0  0  0
    7.9911  -14.8051   20.3214 C   0  0  0  0  0  0  0  0  0  0  0  0
    7.5051  -14.1486   21.2766 O   0  0  0  0  0  0  0  0  0  0  0  0
    7.8770  -16.2251   20.3721 N   0  0  0  0  0  0  0  0  0  0  0  0
    7.3769  -16.9396   21.5127 C   0  0  1  0  0  0  0  0  0  0  0  0
    7.0198  -18.3643   21.2420 C   0  0  0  0  0  0  0  0  0  0  0  0
    6.5685  -19.1065   22.4780 C   0  0  0  0  0  0  0  0  0  0  0  0
    6.2191  -20.5269   22.0144 C   0  0  0  0  0  0  0  0  0  0  0  0
    5.6950  -21.3476   23.1735 C   0  0  0  0  0  0  0  0  0  0  0  0
    5.3657  -22.6584   22.6435 N   0  0  0  0  0  0  0  0  0  0  0  0
    8.2770  -16.7973   22.6970 C   0  0  0  0  0  0  0  0  0  0  0  0
    9.4898  -17.1245   22.6316 O   0  0  0  0  0  0  0  0  0  0  0  0
   11.3319  -14.2828   30.6001 O   0  0  0  0  0  0  0  0  0  0  0  0
   10.6522  -14.4216   29.4077 C   0  0  0  0  0  0  0  0  0  0  0  0
   11.2238  -14.9909   28.2856 C   0  0  0  0  0  0  0  0  0  0  0  0
   10.5351  -15.1250   27.0981 C   0  0  0  0  0  0  0  0  0  0  0  0
    9.2174  -14.6807   26.9959 C   0  0  0  0  0  0  0  0  0  0  0  0
    8.5439  -14.8503   25.6929 C   0  0  0  0  0  0  0  0  0  0  0  0
    8.6895  -16.2299   25.1134 C   0  0  2  0  0  0  0  0  0  0  0  0
    7.8090  -16.2911   23.9386 N   0  0  0  0  0  0  0  0  0  0  0  0
    8.2146  -17.2464   26.0737 C   0  0  0  0  0  0  0  0  0  0  0  0
    9.1053  -17.9380   26.8632 O   0  0  0  0  0  0  0  0  0  0  0  0
    8.6489  -14.1161   28.1060 C   0  0  0  0  0  0  0  0  0  0  0  0
    9.3553  -13.9846   29.3059 C   0  0  0  0  0  0  0  0  0  0  0  0
    6.9887  -17.5267   26.2155 O   0  0  0  0  0  0  0  0  0  0  0  0
  2  3  1  0
  2  1  1  6
  3  4  1  0
  4  5  1  0
  5  6  1  0
  7  6  1  0
  8  2  1  0
  9  8  2  0
 10  8  1  0
 11 17  1  0
 11 10  1  0
 11 12  1  6
 13 12  1  0
 13 14  1  0
 15 14  1  0
 15 16  1  0
 17 26  1  0
 18 17  2  0
 19 20  1  0
 20 30  2  0
 21 20  1  0
 21 22  2  0
 22 23  1  0
 23 29  2  0
 23 24  1  0
 25 27  1  0
 25 24  1  1
 26 25  1  0
 27 31  2  0
 27 28  1  0
 30 29  1  0
M  END
$$$$
