KKY.pdb
     RDKit          3D

 31 31  0  0  1  0  0  0  0  0999 V2000
    7.4308  -16.7449   19.1441 N   0  0  0  0  0  0  0  0  0  0  0  0
    7.8436  -17.8638   19.9395 C   0  0  1  0  0  0  0  0  0  0  0  0
    7.8391  -19.1181   19.1245 C   0  0  0  0  0  0  0  0  0  0  0  0
    8.2737  -18.9157   17.7097 C   0  0  0  0  0  0  0  0  0  0  0  0
    8.2411  -20.1925   16.8989 C   0  0  0  0  0  0  0  0  0  0  0  0
    8.6677  -19.8953   15.4771 C   0  0  0  0  0  0  0  0  0  0  0  0
    8.6231  -21.0476   14.6237 N   0  0  0  0  0  0  0  0  0  0  0  0
    9.2421  -17.6598   20.4512 C   0  0  0  0  0  0  0  0  0  0  0  0
    9.8172  -18.5371   21.1435 O   0  0  0  0  0  0  0  0  0  0  0  0
    9.9653  -16.4641   20.1693 N   0  0  0  0  0  0  0  0  0  0  0  0
   11.2839  -16.1985   20.6716 C   0  0  1  0  0  0  0  0  0  0  0  0
   12.1064  -15.3017   19.8056 C   0  0  0  0  0  0  0  0  0  0  0  0
   13.5621  -15.2629   20.2076 C   0  0  0  0  0  0  0  0  0  0  0  0
   14.2655  -14.3842   19.1647 C   0  0  0  0  0  0  0  0  0  0  0  0
   15.7548  -14.3356   19.4320 C   0  0  0  0  0  0  0  0  0  0  0  0
   16.3220  -13.4031   18.4749 N   0  0  0  0  0  0  0  0  0  0  0  0
   11.2560  -15.7415   22.0939 C   0  0  0  0  0  0  0  0  0  0  0  0
   10.4260  -14.8791   22.4808 O   0  0  0  0  0  0  0  0  0  0  0  0
   10.3721  -15.1068   30.5844 O   0  0  0  0  0  0  0  0  0  0  0  0
   10.4707  -15.3361   29.2278 C   0  0  0  0  0  0  0  0  0  0  0  0
   10.8357  -16.5617   28.7034 C   0  0  0  0  0  0  0  0  0  0  0  0
   10.9311  -16.7803   27.3449 C   0  0  0  0  0  0  0  0  0  0  0  0
   10.6564  -15.7502   26.4462 C   0  0  0  0  0  0  0  0  0  0  0  0
   10.7850  -16.0539   25.0070 C   0  0  0  0  0  0  0  0  0  0  0  0
   12.1478  -15.7554   24.4468 C   0  0  2  0  0  0  0  0  0  0  0  0
   12.1565  -16.2547   23.0648 N   0  0  0  0  0  0  0  0  0  0  0  0
   13.1859  -16.4973   25.1902 C   0  0  0  0  0  0  0  0  0  0  0  0
   13.8944  -15.8909   26.2028 O   0  0  0  0  0  0  0  0  0  0  0  0
   10.2947  -14.5351   26.9631 C   0  0  0  0  0  0  0  0  0  0  0  0
   10.2006  -14.3231   28.3424 C   0  0  0  0  0  0  0  0  0  0  0  0
   13.4703  -17.7044   24.9379 O   0  0  0  0  0  0  0  0  0  0  0  0
  2  3  1  0
  2  1  1  6
  3  4  1  0
  4  5  1  0
  5  6  1  0
  7  6  1  0
  8  2  1  0
  9  8  2  0
 10  8  1  0
 11 17  1  0
 11 10  1  0
 11 12  1  6
 13 12  1  0
 13 14  1  0
 15 14  1  0
 15 16  1  0
 17 26  1  0
 18 17  2  0
 19 20  1  0
 20 30  2  0
 21 20  1  0
 21 22  2  0
 22 23  1  0
 23 29  2  0
 23 24  1  0
 25 27  1  0
 25 24  1  1
 26 25  1  0
 27 31  2  0
 27 28  1  0
 30 29  1  0
M  END
$$$$
