KKY.pdb
     RDKit          3D

 31 31  0  0  1  0  0  0  0  0999 V2000
    8.8328  -16.1963   19.7026 N   0  0  0  0  0  0  0  0  0  0  0  0
    8.1945  -15.2382   20.5569 C   0  0  1  0  0  0  0  0  0  0  0  0
    7.0293  -14.6083   19.8619 C   0  0  0  0  0  0  0  0  0  0  0  0
    7.1689  -14.5661   18.3752 C   0  0  0  0  0  0  0  0  0  0  0  0
    7.8011  -13.2829   17.8827 C   0  0  0  0  0  0  0  0  0  0  0  0
    7.9999  -13.3642   16.3842 C   0  0  0  0  0  0  0  0  0  0  0  0
    7.9372  -12.0848   15.7381 N   0  0  0  0  0  0  0  0  0  0  0  0
    7.6757  -15.9038   21.8008 C   0  0  0  0  0  0  0  0  0  0  0  0
    7.0630  -15.2502   22.6824 O   0  0  0  0  0  0  0  0  0  0  0  0
    7.8603  -17.2995   22.0241 N   0  0  0  0  0  0  0  0  0  0  0  0
    7.4801  -17.9647   23.2385 C   0  0  1  0  0  0  0  0  0  0  0  0
    7.4772  -19.4557   23.1519 C   0  0  0  0  0  0  0  0  0  0  0  0
    6.9562  -20.1204   24.4045 C   0  0  0  0  0  0  0  0  0  0  0  0
    6.9814  -21.6289   24.1247 C   0  0  0  0  0  0  0  0  0  0  0  0
    6.8467  -22.4085   25.4153 C   0  0  0  0  0  0  0  0  0  0  0  0
    5.4884  -22.9191   25.4564 N   0  0  0  0  0  0  0  0  0  0  0  0
    8.2595  -17.4679   24.4126 C   0  0  0  0  0  0  0  0  0  0  0  0
    9.4948  -17.2483   24.3238 O   0  0  0  0  0  0  0  0  0  0  0  0
    7.1752  -10.5615   25.4209 O   0  0  0  0  0  0  0  0  0  0  0  0
    7.2681  -11.8345   25.9441 C   0  0  0  0  0  0  0  0  0  0  0  0
    6.1583  -12.5754   26.3040 C   0  0  0  0  0  0  0  0  0  0  0  0
    6.2624  -13.8477   26.8263 C   0  0  0  0  0  0  0  0  0  0  0  0
    7.5151  -14.4322   27.0090 C   0  0  0  0  0  0  0  0  0  0  0  0
    7.5513  -15.7939   27.5787 C   0  0  0  0  0  0  0  0  0  0  0  0
    8.4325  -16.7438   26.8162 C   0  0  2  0  0  0  0  0  0  0  0  0
    7.6472  -17.2232   25.6704 N   0  0  0  0  0  0  0  0  0  0  0  0
    8.7647  -17.9194   27.6458 C   0  0  0  0  0  0  0  0  0  0  0  0
    9.6212  -17.8044   28.7174 O   0  0  0  0  0  0  0  0  0  0  0  0
    8.6161  -13.7002   26.6535 C   0  0  0  0  0  0  0  0  0  0  0  0
    8.5004  -12.4107   26.1245 C   0  0  0  0  0  0  0  0  0  0  0  0
    8.2876  -19.0690   27.4170 O   0  0  0  0  0  0  0  0  0  0  0  0
  2  3  1  0
  2  1  1  6
  3  4  1  0
  4  5  1  0
  5  6  1  0
  7  6  1  0
  8  2  1  0
  9  8  2  0
 10  8  1  0
 11 17  1  0
 11 10  1  0
 11 12  1  6
 13 12  1  0
 13 14  1  0
 15 14  1  0
 15 16  1  0
 17 26  1  0
 18 17  2  0
 19 20  1  0
 20 30  2  0
 21 20  1  0
 21 22  2  0
 22 23  1  0
 23 29  2  0
 23 24  1  0
 25 27  1  0
 25 24  1  1
 26 25  1  0
 27 31  2  0
 27 28  1  0
 30 29  1  0
M  END
$$$$
