KKY.pdb
     RDKit          3D

 31 31  0  0  1  0  0  0  0  0999 V2000
    9.6529  -15.3151   17.7172 N   0  0  0  0  0  0  0  0  0  0  0  0
    8.9404  -14.3575   18.5111 C   0  0  1  0  0  0  0  0  0  0  0  0
    7.7340  -13.8614   17.7792 C   0  0  0  0  0  0  0  0  0  0  0  0
    7.8957  -13.8507   16.2941 C   0  0  0  0  0  0  0  0  0  0  0  0
    6.7050  -13.2502   15.5799 C   0  0  0  0  0  0  0  0  0  0  0  0
    6.9900  -13.1873   14.0945 C   0  0  0  0  0  0  0  0  0  0  0  0
    5.9152  -12.6105   13.3392 N   0  0  0  0  0  0  0  0  0  0  0  0
    8.4680  -14.9829   19.7938 C   0  0  0  0  0  0  0  0  0  0  0  0
    7.8696  -14.3057   20.6673 O   0  0  0  0  0  0  0  0  0  0  0  0
    8.6823  -16.3660   20.0645 N   0  0  0  0  0  0  0  0  0  0  0  0
    8.2545  -17.0123   21.2732 C   0  0  1  0  0  0  0  0  0  0  0  0
    8.0537  -18.4869   21.1482 C   0  0  0  0  0  0  0  0  0  0  0  0
    6.7072  -18.8539   20.5698 C   0  0  0  0  0  0  0  0  0  0  0  0
    6.9347  -20.1266   19.7432 C   0  0  0  0  0  0  0  0  0  0  0  0
    5.6333  -20.5990   19.1308 C   0  0  0  0  0  0  0  0  0  0  0  0
    5.9692  -21.6647   18.2039 N   0  0  0  0  0  0  0  0  0  0  0  0
    9.1270  -16.6567   22.4331 C   0  0  0  0  0  0  0  0  0  0  0  0
    9.8521  -15.6291   22.4069 O   0  0  0  0  0  0  0  0  0  0  0  0
   10.7426  -13.4237   30.1535 O   0  0  0  0  0  0  0  0  0  0  0  0
   10.3499  -13.9767   28.9523 C   0  0  0  0  0  0  0  0  0  0  0  0
   10.3613  -13.2676   27.7661 C   0  0  0  0  0  0  0  0  0  0  0  0
    9.9666  -13.8303   26.5702 C   0  0  0  0  0  0  0  0  0  0  0  0
    9.5371  -15.1560   26.5251 C   0  0  0  0  0  0  0  0  0  0  0  0
    9.1233  -15.6904   25.2123 C   0  0  0  0  0  0  0  0  0  0  0  0
    9.8252  -16.9640   24.8309 C   0  0  2  0  0  0  0  0  0  0  0  0
    9.1771  -17.4546   23.6068 N   0  0  0  0  0  0  0  0  0  0  0  0
    9.6334  -17.9919   25.8737 C   0  0  0  0  0  0  0  0  0  0  0  0
    8.7653  -19.0416   25.6749 O   0  0  0  0  0  0  0  0  0  0  0  0
    9.5247  -15.8606   27.6990 C   0  0  0  0  0  0  0  0  0  0  0  0
    9.9269  -15.2813   28.9068 C   0  0  0  0  0  0  0  0  0  0  0  0
   10.2460  -17.9593   26.9806 O   0  0  0  0  0  0  0  0  0  0  0  0
  2  3  1  0
  2  1  1  6
  3  4  1  0
  4  5  1  0
  5  6  1  0
  7  6  1  0
  8  2  1  0
  9  8  2  0
 10  8  1  0
 11 17  1  0
 11 10  1  0
 11 12  1  6
 13 12  1  0
 13 14  1  0
 15 14  1  0
 15 16  1  0
 17 26  1  0
 18 17  2  0
 19 20  1  0
 20 30  2  0
 21 20  1  0
 21 22  2  0
 22 23  1  0
 23 29  2  0
 23 24  1  0
 25 27  1  0
 25 24  1  1
 26 25  1  0
 27 31  2  0
 27 28  1  0
 30 29  1  0
M  END
$$$$
