KKY.pdb
     RDKit          3D

 31 31  0  0  1  0  0  0  0  0999 V2000
   10.5079  -20.5223   20.2750 N   0  0  0  0  0  0  0  0  0  0  0  0
   11.6984  -19.7565   20.0486 C   0  0  1  0  0  0  0  0  0  0  0  0
   12.1928  -19.9544   18.6507 C   0  0  0  0  0  0  0  0  0  0  0  0
   11.8038  -21.2690   18.0574 C   0  0  0  0  0  0  0  0  0  0  0  0
   10.4623  -21.2224   17.3596 C   0  0  0  0  0  0  0  0  0  0  0  0
   10.1774  -22.5689   16.7292 C   0  0  0  0  0  0  0  0  0  0  0  0
    8.8825  -22.6402   16.1157 N   0  0  0  0  0  0  0  0  0  0  0  0
   11.4244  -18.2897   20.2299 C   0  0  0  0  0  0  0  0  0  0  0  0
   12.3321  -17.4336   20.0781 O   0  0  0  0  0  0  0  0  0  0  0  0
   10.1257  -17.8182   20.5805 N   0  0  0  0  0  0  0  0  0  0  0  0
    9.8228  -16.4352   20.8201 C   0  0  1  0  0  0  0  0  0  0  0  0
    8.3956  -16.0647   20.5826 C   0  0  0  0  0  0  0  0  0  0  0  0
    8.1081  -14.6079   20.8608 C   0  0  0  0  0  0  0  0  0  0  0  0
    7.9856  -13.9315   19.4889 C   0  0  0  0  0  0  0  0  0  0  0  0
    7.6336  -12.4681   19.6504 C   0  0  0  0  0  0  0  0  0  0  0  0
    7.6530  -11.8835   18.3217 N   0  0  0  0  0  0  0  0  0  0  0  0
   10.3093  -15.9829   22.1586 C   0  0  0  0  0  0  0  0  0  0  0  0
   10.2733  -14.7684   22.4841 O   0  0  0  0  0  0  0  0  0  0  0  0
    9.7783  -13.6073   30.0268 O   0  0  0  0  0  0  0  0  0  0  0  0
    9.8767  -14.4038   28.9048 C   0  0  0  0  0  0  0  0  0  0  0  0
   10.5863  -15.5897   28.8922 C   0  0  0  0  0  0  0  0  0  0  0  0
   10.6782  -16.3787   27.7647 C   0  0  0  0  0  0  0  0  0  0  0  0
   10.0450  -15.9934   26.5836 C   0  0  0  0  0  0  0  0  0  0  0  0
   10.1914  -16.8831   25.4144 C   0  0  0  0  0  0  0  0  0  0  0  0
   11.2523  -16.4381   24.4466 C   0  0  2  0  0  0  0  0  0  0  0  0
   10.8295  -16.8944   23.1153 N   0  0  0  0  0  0  0  0  0  0  0  0
   12.5384  -17.0972   24.7507 C   0  0  0  0  0  0  0  0  0  0  0  0
   13.4632  -16.4899   25.5698 O   0  0  0  0  0  0  0  0  0  0  0  0
    9.3416  -14.8188   26.5934 C   0  0  0  0  0  0  0  0  0  0  0  0
    9.2541  -14.0254   27.7419 C   0  0  0  0  0  0  0  0  0  0  0  0
   12.8481  -18.2313   24.2823 O   0  0  0  0  0  0  0  0  0  0  0  0
  2  3  1  0
  2  1  1  6
  3  4  1  0
  4  5  1  0
  5  6  1  0
  7  6  1  0
  8  2  1  0
  9  8  2  0
 10  8  1  0
 11 17  1  0
 11 10  1  0
 11 12  1  1
 13 12  1  0
 13 14  1  0
 15 14  1  0
 15 16  1  0
 17 26  1  0
 18 17  2  0
 19 20  1  0
 20 30  2  0
 21 20  1  0
 21 22  2  0
 22 23  1  0
 23 29  2  0
 23 24  1  0
 25 27  1  0
 25 24  1  1
 26 25  1  0
 27 31  2  0
 27 28  1  0
 30 29  1  0
M  END
$$$$
