KKY.pdb
     RDKit          3D

 31 31  0  0  1  0  0  0  0  0999 V2000
    6.1482  -15.8693   19.0344 N   0  0  0  0  0  0  0  0  0  0  0  0
    7.5173  -15.5184   19.2738 C   0  0  1  0  0  0  0  0  0  0  0  0
    7.6392  -14.0608   19.5873 C   0  0  0  0  0  0  0  0  0  0  0  0
    7.3436  -13.1705   18.4247 C   0  0  0  0  0  0  0  0  0  0  0  0
    8.1396  -13.5349   17.1910 C   0  0  0  0  0  0  0  0  0  0  0  0
    7.8466  -12.5364   16.0915 C   0  0  0  0  0  0  0  0  0  0  0  0
    8.5043  -12.8508   14.8559 N   0  0  0  0  0  0  0  0  0  0  0  0
    8.0598  -16.2825   20.4491 C   0  0  0  0  0  0  0  0  0  0  0  0
    7.3844  -16.4293   21.4989 O   0  0  0  0  0  0  0  0  0  0  0  0
    9.3593  -16.8674   20.4143 N   0  0  0  0  0  0  0  0  0  0  0  0
    9.8800  -17.7037   21.4589 C   0  0  1  0  0  0  0  0  0  0  0  0
   10.8869  -18.7080   21.0028 C   0  0  0  0  0  0  0  0  0  0  0  0
   11.3611  -19.6168   22.1126 C   0  0  0  0  0  0  0  0  0  0  0  0
   12.2631  -20.6637   21.4456 C   0  0  0  0  0  0  0  0  0  0  0  0
   12.7838  -21.6452   22.4738 C   0  0  0  0  0  0  0  0  0  0  0  0
   13.6129  -22.5994   21.7597 N   0  0  0  0  0  0  0  0  0  0  0  0
   10.3673  -16.9024   22.6223 C   0  0  0  0  0  0  0  0  0  0  0  0
   11.3335  -16.1062   22.5010 O   0  0  0  0  0  0  0  0  0  0  0  0
   10.8699  -14.0531   31.0676 O   0  0  0  0  0  0  0  0  0  0  0  0
   10.4713  -14.5882   29.8603 C   0  0  0  0  0  0  0  0  0  0  0  0
    9.8941  -13.8269   28.8617 C   0  0  0  0  0  0  0  0  0  0  0  0
    9.4992  -14.3720   27.6578 C   0  0  0  0  0  0  0  0  0  0  0  0
    9.6752  -15.7330   27.4111 C   0  0  0  0  0  0  0  0  0  0  0  0
    9.2234  -16.2490   26.1036 C   0  0  0  0  0  0  0  0  0  0  0  0
   10.2969  -16.2486   25.0511 C   0  0  2  0  0  0  0  0  0  0  0  0
    9.7677  -17.0020   23.9058 N   0  0  0  0  0  0  0  0  0  0  0  0
   11.4946  -16.9648   25.5344 C   0  0  0  0  0  0  0  0  0  0  0  0
   11.5146  -18.3398   25.5956 O   0  0  0  0  0  0  0  0  0  0  0  0
   10.2466  -16.4895   28.3989 C   0  0  0  0  0  0  0  0  0  0  0  0
   10.6440  -15.9275   29.6164 C   0  0  0  0  0  0  0  0  0  0  0  0
   12.5420  -16.3612   25.9090 O   0  0  0  0  0  0  0  0  0  0  0  0
  2  3  1  0
  2  1  1  1
  3  4  1  0
  4  5  1  0
  5  6  1  0
  7  6  1  0
  8  2  1  0
  9  8  2  0
 10  8  1  0
 11 17  1  0
 11 10  1  0
 11 12  1  6
 13 12  1  0
 13 14  1  0
 15 14  1  0
 15 16  1  0
 17 26  1  0
 18 17  2  0
 19 20  1  0
 20 30  2  0
 21 20  1  0
 21 22  2  0
 22 23  1  0
 23 29  2  0
 23 24  1  0
 25 27  1  0
 25 24  1  1
 26 25  1  0
 27 31  2  0
 27 28  1  0
 30 29  1  0
M  END
$$$$
