CHT.pdb
     RDKit          3D

 24 24  0  0  1  0  0  0  0  0999 V2000
   28.1675  -20.8354   -8.8172 N   0  0  0  0  0  0  0  0  0  0  0  0
   26.7606  -20.6359   -9.0920 C   0  0  1  0  0  0  0  0  0  0  0  0
   26.3347  -19.3406   -8.4615 C   0  0  0  0  0  0  0  0  0  0  0  0
   26.4437  -19.5773   -6.6465 S   0  0  0  0  0  0  0  0  0  0  0  0
   26.4846  -20.7099  -10.5300 C   0  0  0  0  0  0  0  0  0  0  0  0
   27.1687  -19.9927  -11.3117 O   0  0  0  0  0  0  0  0  0  0  0  0
   25.5013  -21.5302  -11.1228 N   0  0  0  0  0  0  0  0  0  0  0  0
   25.2936  -21.6679  -12.5317 C   0  0  1  0  0  0  0  0  0  0  0  0
   25.0798  -23.1419  -12.9032 C   0  0  0  0  0  0  0  0  0  0  0  0
   24.8932  -23.3057  -14.3647 C   0  0  0  0  0  0  0  0  0  0  0  0
   24.8112  -22.2684  -15.2987 C   0  0  0  0  0  0  0  0  0  0  0  0
   24.6419  -22.7926  -16.5257 N   0  0  0  0  0  0  0  0  0  0  0  0
   24.6139  -24.1490  -16.3942 C   0  0  0  0  0  0  0  0  0  0  0  0
   24.7665  -24.4295  -15.0898 N   0  0  0  0  0  0  0  0  0  0  0  0
   24.0985  -20.9368  -13.0169 C   0  0  0  0  0  0  0  0  0  0  0  0
   23.0915  -20.9331  -12.2505 O   0  0  0  0  0  0  0  0  0  0  0  0
   23.5237  -19.2626  -16.9770 C   0  0  0  0  0  0  0  0  0  0  0  0
   23.0556  -18.5703  -15.7360 C   0  0  1  0  0  0  0  0  0  0  0  0
   21.9545  -17.7457  -15.9575 O   0  0  0  0  0  0  0  0  0  0  0  0
   22.8339  -19.5276  -14.5866 C   0  0  2  0  0  0  0  0  0  0  0  0
   24.0185  -20.2656  -14.2438 N   0  0  0  0  0  0  0  0  0  0  0  0
   21.7050  -20.4361  -14.9239 C   0  0  0  0  0  0  0  0  0  0  0  0
   20.3998  -19.9291  -14.8664 O   0  0  0  0  0  0  0  0  0  0  0  0
   21.9515  -21.6200  -15.2473 O   0  0  0  0  0  0  0  0  0  0  0  0
  2  5  1  0
  2  1  1  6
  3  2  1  0
  4  3  1  0
  5  6  2  0
  7  8  1  0
  7  5  1  0
  9 10  1  0
  8  9  1  1
 10 14  1  0
 11 12  1  0
 11 10  2  0
 12 13  1  0
 13 14  2  0
 15  8  1  0
 15 21  1  0
 16 15  2  0
 18 17  1  6
 19 18  1  0
 20 21  1  6
 20 18  1  0
 22 20  1  0
 23 22  1  0
 24 22  2  0
M  END
$$$$
