CHT.pdb
     RDKit          3D

 24 24  0  0  1  0  0  0  0  0999 V2000
   23.7234   -9.6582  -20.6543 N   0  0  0  0  0  0  0  0  0  0  0  0
   22.3895   -9.9529  -20.1761 C   0  0  1  0  0  0  0  0  0  0  0  0
   22.0568  -11.3702  -20.5465 C   0  0  0  0  0  0  0  0  0  0  0  0
   22.4544  -11.5566  -22.3267 S   0  0  0  0  0  0  0  0  0  0  0  0
   22.2657   -9.6741  -18.7420 C   0  0  0  0  0  0  0  0  0  0  0  0
   21.1461   -9.8559  -18.1882 O   0  0  0  0  0  0  0  0  0  0  0  0
   23.3118   -9.2116  -17.9157 N   0  0  0  0  0  0  0  0  0  0  0  0
   23.1873   -8.9376  -16.5169 C   0  0  1  0  0  0  0  0  0  0  0  0
   24.4397   -9.4055  -15.7627 C   0  0  0  0  0  0  0  0  0  0  0  0
   24.5729  -10.8813  -15.8065 C   0  0  0  0  0  0  0  0  0  0  0  0
   23.7180  -11.7587  -16.4805 C   0  0  0  0  0  0  0  0  0  0  0  0
   24.1482  -13.0199  -16.2985 N   0  0  0  0  0  0  0  0  0  0  0  0
   25.2651  -12.9661  -15.5190 C   0  0  0  0  0  0  0  0  0  0  0  0
   25.4974  -11.6735  -15.2385 N   0  0  0  0  0  0  0  0  0  0  0  0
   23.0351   -7.4932  -16.2191 C   0  0  0  0  0  0  0  0  0  0  0  0
   23.8555   -6.7127  -16.7840 O   0  0  0  0  0  0  0  0  0  0  0  0
   20.3799   -5.1230  -17.1138 C   0  0  0  0  0  0  0  0  0  0  0  0
   20.6045   -4.9947  -15.6401 C   0  0  1  0  0  0  0  0  0  0  0  0
   19.5605   -5.5239  -14.8843 O   0  0  0  0  0  0  0  0  0  0  0  0
   21.9524   -5.5287  -15.2103 C   0  0  2  0  0  0  0  0  0  0  0  0
   22.0607   -6.9528  -15.3701 N   0  0  0  0  0  0  0  0  0  0  0  0
   22.2102   -5.1174  -13.8040 C   0  0  0  0  0  0  0  0  0  0  0  0
   22.4402   -3.7612  -13.5363 O   0  0  0  0  0  0  0  0  0  0  0  0
   22.2143   -5.9890  -12.9054 O   0  0  0  0  0  0  0  0  0  0  0  0
  2  5  1  0
  2  1  1  1
  3  2  1  0
  4  3  1  0
  5  6  2  0
  7  8  1  0
  7  5  1  0
  9 10  1  0
  8  9  1  1
 10 14  1  0
 11 12  1  0
 11 10  2  0
 12 13  1  0
 13 14  2  0
 15  8  1  0
 15 21  1  0
 16 15  2  0
 18 17  1  6
 19 18  1  0
 20 21  1  1
 20 18  1  0
 22 20  1  0
 23 22  1  0
 24 22  2  0
M  END
$$$$
