CHT.pdb
     RDKit          3D

 24 24  0  0  1  0  0  0  0  0999 V2000
   22.7992   -9.7370  -15.7938 N   0  0  0  0  0  0  0  0  0  0  0  0
   22.0636   -8.8693  -14.8989 C   0  0  1  0  0  0  0  0  0  0  0  0
   22.9114   -7.6644  -14.6055 C   0  0  0  0  0  0  0  0  0  0  0  0
   22.4151   -7.0624  -12.9462 S   0  0  0  0  0  0  0  0  0  0  0  0
   20.7424   -8.5415  -15.4436 C   0  0  0  0  0  0  0  0  0  0  0  0
   20.6307   -8.3709  -16.6894 O   0  0  0  0  0  0  0  0  0  0  0  0
   19.5657   -8.3986  -14.6782 N   0  0  0  0  0  0  0  0  0  0  0  0
   18.2795   -8.0693  -15.2115 C   0  0  1  0  0  0  0  0  0  0  0  0
   17.2152   -9.0469  -14.6939 C   0  0  0  0  0  0  0  0  0  0  0  0
   17.2763  -10.3395  -15.4172 C   0  0  0  0  0  0  0  0  0  0  0  0
   18.1539  -10.6509  -16.4603 C   0  0  0  0  0  0  0  0  0  0  0  0
   17.9213  -11.9103  -16.8708 N   0  0  0  0  0  0  0  0  0  0  0  0
   16.9089  -12.4121  -16.1082 C   0  0  0  0  0  0  0  0  0  0  0  0
   16.5411  -11.4508  -15.2457 N   0  0  0  0  0  0  0  0  0  0  0  0
   17.8220   -6.7120  -14.8286 C   0  0  0  0  0  0  0  0  0  0  0  0
   18.1273   -6.3230  -13.6637 O   0  0  0  0  0  0  0  0  0  0  0  0
   18.6188   -3.2239  -16.4040 C   0  0  0  0  0  0  0  0  0  0  0  0
   17.1492   -3.4860  -16.3043 C   0  0  1  0  0  0  0  0  0  0  0  0
   16.5682   -3.7917  -17.5333 O   0  0  0  0  0  0  0  0  0  0  0  0
   16.8131   -4.5072  -15.2407 C   0  0  2  0  0  0  0  0  0  0  0  0
   17.0893   -5.8541  -15.6589 N   0  0  0  0  0  0  0  0  0  0  0  0
   15.3890   -4.3416  -14.8432 C   0  0  0  0  0  0  0  0  0  0  0  0
   15.0274   -3.2006  -14.1143 O   0  0  0  0  0  0  0  0  0  0  0  0
   14.5594   -5.2207  -15.1691 O   0  0  0  0  0  0  0  0  0  0  0  0
  2  5  1  0
  2  1  1  6
  3  2  1  0
  4  3  1  0
  5  6  2  0
  7  8  1  0
  7  5  1  0
  9 10  1  0
  8  9  1  1
 10 14  1  0
 11 12  1  0
 11 10  2  0
 12 13  1  0
 13 14  2  0
 15  8  1  0
 15 21  1  0
 16 15  2  0
 18 17  1  6
 19 18  1  0
 20 21  1  6
 20 18  1  0
 22 20  1  0
 23 22  1  0
 24 22  2  0
M  END
$$$$
