CHT.pdb
     RDKit          3D

 24 24  0  0  1  0  0  0  0  0999 V2000
   28.2371  -12.6911  -18.2706 N   0  0  0  0  0  0  0  0  0  0  0  0
   27.9085  -11.3483  -17.8421 C   0  0  1  0  0  0  0  0  0  0  0  0
   28.3563  -10.3890  -18.9079 C   0  0  0  0  0  0  0  0  0  0  0  0
   30.1766  -10.5639  -19.0429 S   0  0  0  0  0  0  0  0  0  0  0  0
   26.4867  -11.2316  -17.5041 C   0  0  0  0  0  0  0  0  0  0  0  0
   25.6451  -11.8347  -18.2262 O   0  0  0  0  0  0  0  0  0  0  0  0
   25.9722  -10.4887  -16.4204 N   0  0  0  0  0  0  0  0  0  0  0  0
   24.5839  -10.3772  -16.0925 C   0  0  1  0  0  0  0  0  0  0  0  0
   24.3393  -10.7934  -14.6354 C   0  0  0  0  0  0  0  0  0  0  0  0
   22.8907  -10.8269  -14.3224 C   0  0  0  0  0  0  0  0  0  0  0  0
   22.2244   -9.9647  -13.4463 C   0  0  0  0  0  0  0  0  0  0  0  0
   20.9203  -10.2921  -13.4125 N   0  0  0  0  0  0  0  0  0  0  0  0
   20.7390  -11.3501  -14.2526 C   0  0  0  0  0  0  0  0  0  0  0  0
   21.9350  -11.6503  -14.7845 N   0  0  0  0  0  0  0  0  0  0  0  0
   24.0649   -8.9948  -16.2253 C   0  0  0  0  0  0  0  0  0  0  0  0
   24.8316   -8.0660  -15.8368 O   0  0  0  0  0  0  0  0  0  0  0  0
   23.0908   -6.9123  -19.2999 C   0  0  0  0  0  0  0  0  0  0  0  0
   21.9651   -6.9760  -18.3165 C   0  0  1  0  0  0  0  0  0  0  0  0
   20.9353   -7.8210  -18.7250 O   0  0  0  0  0  0  0  0  0  0  0  0
   22.4376   -7.2837  -16.9133 C   0  0  2  0  0  0  0  0  0  0  0  0
   22.8063   -8.6622  -16.7427 N   0  0  0  0  0  0  0  0  0  0  0  0
   21.3813   -6.8791  -15.9469 C   0  0  0  0  0  0  0  0  0  0  0  0
   21.1909   -5.5129  -15.6990 O   0  0  0  0  0  0  0  0  0  0  0  0
   20.6968   -7.7647  -15.3863 O   0  0  0  0  0  0  0  0  0  0  0  0
  2  5  1  0
  2  1  1  6
  3  2  1  0
  4  3  1  0
  5  6  2  0
  7  8  1  0
  7  5  1  0
  9 10  1  0
  8  9  1  1
 10 14  1  0
 11 12  1  0
 11 10  2  0
 12 13  1  0
 13 14  2  0
 15  8  1  0
 15 21  1  0
 16 15  2  0
 18 17  1  6
 19 18  1  0
 20 21  1  6
 20 18  1  0
 22 20  1  0
 23 22  1  0
 24 22  2  0
M  END
$$$$
