CHT.pdb
     RDKit          3D

 24 24  0  0  1  0  0  0  0  0999 V2000
   18.3740  -12.4465  -15.8277 N   0  0  0  0  0  0  0  0  0  0  0  0
   17.9762  -11.2392  -16.5198 C   0  0  1  0  0  0  0  0  0  0  0  0
   16.4851  -11.2671  -16.7002 C   0  0  0  0  0  0  0  0  0  0  0  0
   16.1072  -12.7312  -17.7373 S   0  0  0  0  0  0  0  0  0  0  0  0
   18.4634  -10.0436  -15.8251 C   0  0  0  0  0  0  0  0  0  0  0  0
   18.2297   -9.9283  -14.5899 O   0  0  0  0  0  0  0  0  0  0  0  0
   19.1839   -8.9935  -16.4326 N   0  0  0  0  0  0  0  0  0  0  0  0
   19.7161   -7.8604  -15.7397 C   0  0  1  0  0  0  0  0  0  0  0  0
   21.2197   -7.7186  -16.0139 C   0  0  0  0  0  0  0  0  0  0  0  0
   21.9961   -8.7618  -15.3022 C   0  0  0  0  0  0  0  0  0  0  0  0
   21.4729   -9.7034  -14.4107 C   0  0  0  0  0  0  0  0  0  0  0  0
   22.4699  -10.4861  -13.9611 N   0  0  0  0  0  0  0  0  0  0  0  0
   23.6241  -10.0622  -14.5494 C   0  0  0  0  0  0  0  0  0  0  0  0
   23.3120   -9.0284  -15.3477 N   0  0  0  0  0  0  0  0  0  0  0  0
   19.0929   -6.5806  -16.1543 C   0  0  0  0  0  0  0  0  0  0  0  0
   19.1236   -6.3144  -17.3911 O   0  0  0  0  0  0  0  0  0  0  0  0
   15.4922   -5.4896  -16.0916 C   0  0  0  0  0  0  0  0  0  0  0  0
   16.3357   -4.4883  -15.3674 C   0  0  1  0  0  0  0  0  0  0  0  0
   16.1953   -4.5610  -13.9830 O   0  0  0  0  0  0  0  0  0  0  0  0
   17.7840   -4.5286  -15.8004 C   0  0  2  0  0  0  0  0  0  0  0  0
   18.4862   -5.6695  -15.2801 N   0  0  0  0  0  0  0  0  0  0  0  0
   18.4438   -3.2556  -15.4034 C   0  0  0  0  0  0  0  0  0  0  0  0
   18.0317   -2.0682  -16.0233 O   0  0  0  0  0  0  0  0  0  0  0  0
   19.3426   -3.2811  -14.5324 O   0  0  0  0  0  0  0  0  0  0  0  0
  2  5  1  0
  2  1  1  1
  3  2  1  0
  4  3  1  0
  5  6  2  0
  7  8  1  0
  7  5  1  0
  9 10  1  0
  8  9  1  6
 10 14  1  0
 11 12  1  0
 11 10  2  0
 12 13  1  0
 13 14  2  0
 15  8  1  0
 15 21  1  0
 16 15  2  0
 18 17  1  6
 19 18  1  0
 20 21  1  1
 20 18  1  0
 22 20  1  0
 23 22  1  0
 24 22  2  0
M  END
$$$$
