CHT.pdb
     RDKit          3D

 24 24  0  0  1  0  0  0  0  0999 V2000
   20.7901  -15.5575  -17.7709 N   0  0  0  0  0  0  0  0  0  0  0  0
   20.3496  -14.1815  -17.8562 C   0  0  1  0  0  0  0  0  0  0  0  0
   18.8515  -14.1570  -17.7477 C   0  0  0  0  0  0  0  0  0  0  0  0
   18.1989  -14.8767  -19.3027 S   0  0  0  0  0  0  0  0  0  0  0  0
   21.0262  -13.3445  -16.8605 C   0  0  0  0  0  0  0  0  0  0  0  0
   20.7345  -13.5034  -15.6427 O   0  0  0  0  0  0  0  0  0  0  0  0
   21.9927  -12.3597  -17.1554 N   0  0  0  0  0  0  0  0  0  0  0  0
   22.6535  -11.5463  -16.1813 C   0  0  1  0  0  0  0  0  0  0  0  0
   24.1729  -11.5741  -16.3975 C   0  0  0  0  0  0  0  0  0  0  0  0
   24.7328  -12.9149  -16.1032 C   0  0  0  0  0  0  0  0  0  0  0  0
   25.2218  -13.8212  -17.0490 C   0  0  0  0  0  0  0  0  0  0  0  0
   25.6473  -14.9300  -16.4179 N   0  0  0  0  0  0  0  0  0  0  0  0
   25.4394  -14.7500  -15.0828 C   0  0  0  0  0  0  0  0  0  0  0  0
   24.8907  -13.5349  -14.9219 N   0  0  0  0  0  0  0  0  0  0  0  0
   22.2484  -10.1214  -16.2429 C   0  0  0  0  0  0  0  0  0  0  0  0
   22.5852   -9.4851  -17.2835 O   0  0  0  0  0  0  0  0  0  0  0  0
   19.1517   -8.5617  -16.9252 C   0  0  0  0  0  0  0  0  0  0  0  0
   19.6166   -7.9672  -15.6333 C   0  0  1  0  0  0  0  0  0  0  0  0
   18.9013   -8.4345  -14.5327 O   0  0  0  0  0  0  0  0  0  0  0  0
   21.1114   -8.0930  -15.4419 C   0  0  2  0  0  0  0  0  0  0  0  0
   21.5319   -9.4525  -15.2421 N   0  0  0  0  0  0  0  0  0  0  0  0
   21.5298   -7.2218  -14.3107 C   0  0  0  0  0  0  0  0  0  0  0  0
   21.3802   -5.8349  -14.4452 O   0  0  0  0  0  0  0  0  0  0  0  0
   22.0004   -7.7490  -13.2775 O   0  0  0  0  0  0  0  0  0  0  0  0
  2  5  1  0
  2  1  1  1
  3  2  1  0
  4  3  1  0
  5  6  2  0
  7  8  1  0
  7  5  1  0
  9 10  1  0
  8  9  1  6
 10 14  1  0
 11 12  1  0
 11 10  2  0
 12 13  1  0
 13 14  2  0
 15  8  1  0
 15 21  1  0
 16 15  2  0
 18 17  1  6
 19 18  1  0
 20 21  1  1
 20 18  1  0
 22 20  1  0
 23 22  1  0
 24 22  2  0
M  END
$$$$
