CHT.pdb
     RDKit          3D

 24 24  0  0  1  0  0  0  0  0999 V2000
   17.6565  -14.5864  -18.0614 N   0  0  0  0  0  0  0  0  0  0  0  0
   17.3143  -13.3416  -17.4071 C   0  0  1  0  0  0  0  0  0  0  0  0
   16.8177  -13.6551  -16.0244 C   0  0  0  0  0  0  0  0  0  0  0  0
   15.1308  -14.3481  -16.2150 S   0  0  0  0  0  0  0  0  0  0  0  0
   18.4400  -12.4025  -17.4300 C   0  0  0  0  0  0  0  0  0  0  0  0
   19.6025  -12.8518  -17.2297 O   0  0  0  0  0  0  0  0  0  0  0  0
   18.3300  -11.0149  -17.6612 N   0  0  0  0  0  0  0  0  0  0  0  0
   19.4373  -10.1180  -17.7892 C   0  0  1  0  0  0  0  0  0  0  0  0
   19.4463   -9.4681  -19.1798 C   0  0  0  0  0  0  0  0  0  0  0  0
   19.8434  -10.4416  -20.2249 C   0  0  0  0  0  0  0  0  0  0  0  0
   19.0012  -10.9778  -21.2038 C   0  0  0  0  0  0  0  0  0  0  0  0
   19.7057  -11.8242  -21.9759 N   0  0  0  0  0  0  0  0  0  0  0  0
   20.9861  -11.8399  -21.5085 C   0  0  0  0  0  0  0  0  0  0  0  0
   21.0411  -11.0031  -20.4595 N   0  0  0  0  0  0  0  0  0  0  0  0
   19.4011   -9.0066  -16.8085 C   0  0  0  0  0  0  0  0  0  0  0  0
   18.2894   -8.4194  -16.6642 O   0  0  0  0  0  0  0  0  0  0  0  0
   19.9092   -9.0521  -13.0783 C   0  0  0  0  0  0  0  0  0  0  0  0
   20.7989   -8.0105  -13.6799 C   0  0  1  0  0  0  0  0  0  0  0  0
   22.1427   -8.3788  -13.6790 O   0  0  0  0  0  0  0  0  0  0  0  0
   20.3272   -7.5635  -15.0453 C   0  0  2  0  0  0  0  0  0  0  0  0
   20.4975   -8.5771  -16.0497 N   0  0  0  0  0  0  0  0  0  0  0  0
   21.0337   -6.3072  -15.4144 C   0  0  0  0  0  0  0  0  0  0  0  0
   20.7814   -5.1530  -14.6607 O   0  0  0  0  0  0  0  0  0  0  0  0
   21.8285   -6.3168  -16.3816 O   0  0  0  0  0  0  0  0  0  0  0  0
  2  5  1  0
  2  1  1  1
  3  2  1  0
  4  3  1  0
  5  6  2  0
  7  8  1  0
  7  5  1  0
  9 10  1  0
  8  9  1  6
 10 14  1  0
 11 12  1  0
 11 10  2  0
 12 13  1  0
 13 14  2  0
 15  8  1  0
 15 21  1  0
 16 15  2  0
 18 17  1  6
 19 18  1  0
 20 21  1  6
 20 18  1  0
 22 20  1  0
 23 22  1  0
 24 22  2  0
M  END
$$$$
