NFA.pdb
     RDKit          3D

 25 25  0  0  1  0  0  0  0  0999 V2000
   21.1054  -13.0976  -21.4971 N   0  0  0  0  0  0  0  0  0  0  0  0
   19.8029  -12.5563  -21.3725 C   0  0  0  0  0  0  0  0  0  0  0  0
   19.0588  -12.5414  -22.3770 O   0  0  0  0  0  0  0  0  0  0  0  0
   19.3635  -12.0331  -20.0858 C   0  0  0  0  0  0  0  0  0  0  0  0
   20.4085  -12.0992  -19.0114 C   0  0  2  0  0  0  0  0  0  0  0  0
   20.4446  -13.3987  -18.4315 N   0  0  0  0  0  0  0  0  0  0  0  0
   20.2216  -11.0517  -17.9740 C   0  0  0  0  0  0  0  0  0  0  0  0
   19.1924  -11.0210  -17.2474 O   0  0  0  0  0  0  0  0  0  0  0  0
   21.1818  -10.0280  -17.7374 N   0  0  0  0  0  0  0  0  0  0  0  0
   21.0462   -9.0247  -16.7013 C   0  0  1  0  0  0  0  0  0  0  0  0
   22.2953   -8.8098  -15.9289 C   0  0  0  0  0  0  0  0  0  0  0  0
   22.2161   -7.8141  -14.8486 C   0  0  0  0  0  0  0  0  0  0  0  0
   21.7769   -8.1415  -13.5850 C   0  0  0  0  0  0  0  0  0  0  0  0
   21.7080   -7.2011  -12.5857 C   0  0  0  0  0  0  0  0  0  0  0  0
   22.0722   -5.8941  -12.7973 C   0  0  0  0  0  0  0  0  0  0  0  0
   22.5149   -5.5486  -14.0581 C   0  0  0  0  0  0  0  0  0  0  0  0
   22.5862   -6.4838  -15.0618 C   0  0  0  0  0  0  0  0  0  0  0  0
   20.4614   -7.7680  -17.1979 C   0  0  0  0  0  0  0  0  0  0  0  0
   21.0320   -7.1871  -18.1437 O   0  0  0  0  0  0  0  0  0  0  0  0
   17.2476   -5.9804  -17.3371 C   0  0  0  0  0  0  0  0  0  0  0  0
   18.7541   -5.9284  -17.1585 C   0  0  2  0  0  0  0  0  0  0  0  0
   19.2860   -7.1763  -16.6651 N   0  0  0  0  0  0  0  0  0  0  0  0
   19.1542   -4.7716  -16.3454 C   0  0  0  0  0  0  0  0  0  0  0  0
   18.8778   -3.6135  -16.7215 O   0  0  0  0  0  0  0  0  0  0  0  0
   19.8370   -4.9463  -15.1614 O   0  0  0  0  0  0  0  0  0  0  0  0
  2  1  1  0
  2  3  2  0
  4  2  1  0
  5  4  1  0
  5  7  1  0
  5  6  1  1
  7  8  2  0
  9  7  1  0
  9 10  1  0
 10 11  1  6
 11 12  1  0
 12 17  2  0
 13 12  1  0
 13 14  2  0
 14 15  1  0
 15 16  2  0
 17 16  1  0
 18 10  1  0
 18 19  2  0
 21 20  1  1
 21 22  1  0
 21 23  1  0
 22 18  1  0
 23 25  1  0
 24 23  2  0
M  END
$$$$
