NFA.pdb
     RDKit          3D

 25 25  0  0  1  0  0  0  0  0999 V2000
   23.1357  -20.2190  -13.5887 N   0  0  0  0  0  0  0  0  0  0  0  0
   24.0355  -21.3111  -13.5360 C   0  0  0  0  0  0  0  0  0  0  0  0
   24.2174  -21.9913  -14.5691 O   0  0  0  0  0  0  0  0  0  0  0  0
   24.7234  -21.6145  -12.2881 C   0  0  0  0  0  0  0  0  0  0  0  0
   25.3619  -20.4225  -11.6382 C   0  0  2  0  0  0  0  0  0  0  0  0
   26.2461  -19.7746  -12.5463 N   0  0  0  0  0  0  0  0  0  0  0  0
   26.0533  -20.7713  -10.3699 C   0  0  0  0  0  0  0  0  0  0  0  0
   26.4626  -21.9415  -10.1435 O   0  0  0  0  0  0  0  0  0  0  0  0
   26.2947  -19.8171   -9.3416 N   0  0  0  0  0  0  0  0  0  0  0  0
   26.8887  -20.1488   -8.0627 C   0  0  1  0  0  0  0  0  0  0  0  0
   27.6690  -19.0321   -7.4737 C   0  0  0  0  0  0  0  0  0  0  0  0
   28.3745  -19.3366   -6.2189 C   0  0  0  0  0  0  0  0  0  0  0  0
   28.1542  -18.6180   -5.0649 C   0  0  0  0  0  0  0  0  0  0  0  0
   28.8205  -18.9134   -3.9001 C   0  0  0  0  0  0  0  0  0  0  0  0
   29.7349  -19.9354   -3.8303 C   0  0  0  0  0  0  0  0  0  0  0  0
   29.9680  -20.6659   -4.9779 C   0  0  0  0  0  0  0  0  0  0  0  0
   29.3053  -20.3759   -6.1457 C   0  0  0  0  0  0  0  0  0  0  0  0
   25.9194  -20.7262   -7.1166 C   0  0  0  0  0  0  0  0  0  0  0  0
   24.8217  -20.1499   -6.9741 O   0  0  0  0  0  0  0  0  0  0  0  0
   25.6854  -23.6938   -4.7439 C   0  0  0  0  0  0  0  0  0  0  0  0
   25.2152  -22.4002   -5.3839 C   0  0  2  0  0  0  0  0  0  0  0  0
   26.1585  -21.9007   -6.3556 N   0  0  0  0  0  0  0  0  0  0  0  0
   24.8558  -21.4028   -4.3664 C   0  0  0  0  0  0  0  0  0  0  0  0
   25.7292  -20.6478   -3.8905 O   0  0  0  0  0  0  0  0  0  0  0  0
   23.5561  -21.2858   -3.9241 O   0  0  0  0  0  0  0  0  0  0  0  0
  2  1  1  0
  2  3  2  0
  4  2  1  0
  5  4  1  0
  5  7  1  0
  5  6  1  6
  7  8  2  0
  9  7  1  0
  9 10  1  0
 10 11  1  1
 11 12  1  0
 12 17  2  0
 13 12  1  0
 13 14  2  0
 14 15  1  0
 15 16  2  0
 17 16  1  0
 18 10  1  0
 18 19  2  0
 21 20  1  1
 21 22  1  0
 21 23  1  0
 22 18  1  0
 23 25  1  0
 24 23  2  0
M  END
$$$$
