NFA.pdb
     RDKit          3D

 25 25  0  0  1  0  0  0  0  0999 V2000
   25.7074  -23.4088  -18.4276 N   0  0  0  0  0  0  0  0  0  0  0  0
   25.0491  -22.2554  -17.9362 C   0  0  0  0  0  0  0  0  0  0  0  0
   24.2312  -21.6677  -18.6769 O   0  0  0  0  0  0  0  0  0  0  0  0
   25.3382  -21.7837  -16.5884 C   0  0  0  0  0  0  0  0  0  0  0  0
   26.2755  -22.6684  -15.8205 C   0  0  2  0  0  0  0  0  0  0  0  0
   26.1374  -24.0219  -16.2390 N   0  0  0  0  0  0  0  0  0  0  0  0
   26.1004  -22.5388  -14.3506 C   0  0  0  0  0  0  0  0  0  0  0  0
   25.4335  -23.3800  -13.6903 O   0  0  0  0  0  0  0  0  0  0  0  0
   26.6681  -21.4689  -13.6028 N   0  0  0  0  0  0  0  0  0  0  0  0
   26.4609  -21.2852  -12.1809 C   0  0  1  0  0  0  0  0  0  0  0  0
   27.5348  -20.4928  -11.5315 C   0  0  0  0  0  0  0  0  0  0  0  0
   27.4379  -20.3616  -10.0693 C   0  0  0  0  0  0  0  0  0  0  0  0
   28.1636  -21.1620   -9.2151 C   0  0  0  0  0  0  0  0  0  0  0  0
   28.0630  -21.0284   -7.8512 C   0  0  0  0  0  0  0  0  0  0  0  0
   27.2373  -20.0941   -7.2759 C   0  0  0  0  0  0  0  0  0  0  0  0
   26.5027  -19.2835   -8.1175 C   0  0  0  0  0  0  0  0  0  0  0  0
   26.5985  -19.4117   -9.4818 C   0  0  0  0  0  0  0  0  0  0  0  0
   25.1132  -20.7857  -11.8612 C   0  0  0  0  0  0  0  0  0  0  0  0
   24.7391  -19.7206  -12.3933 O   0  0  0  0  0  0  0  0  0  0  0  0
   22.9173  -19.8628   -9.6187 C   0  0  0  0  0  0  0  0  0  0  0  0
   22.8937  -20.9301  -10.6978 C   0  0  2  0  0  0  0  0  0  0  0  0
   24.2123  -21.4435  -10.9830 N   0  0  0  0  0  0  0  0  0  0  0  0
   22.1888  -20.4583  -11.8977 C   0  0  0  0  0  0  0  0  0  0  0  0
   22.8342  -20.0668  -12.8924 O   0  0  0  0  0  0  0  0  0  0  0  0
   20.8118  -20.4409  -11.9435 O   0  0  0  0  0  0  0  0  0  0  0  0
  2  1  1  0
  2  3  2  0
  4  2  1  0
  5  4  1  0
  5  7  1  0
  5  6  1  6
  7  8  2  0
  9  7  1  0
  9 10  1  0
 10 11  1  6
 11 12  1  0
 12 17  2  0
 13 12  1  0
 13 14  2  0
 14 15  1  0
 15 16  2  0
 17 16  1  0
 18 10  1  0
 18 19  2  0
 21 20  1  1
 21 22  1  0
 21 23  1  0
 22 18  1  0
 23 25  1  0
 24 23  2  0
M  END
$$$$
