NFA.pdb
     RDKit          3D

 25 25  0  0  1  0  0  0  0  0999 V2000
   16.4222  -14.1652  -17.1309 N   0  0  0  0  0  0  0  0  0  0  0  0
   16.6293  -14.1367  -15.7304 C   0  0  0  0  0  0  0  0  0  0  0  0
   16.1554  -15.0598  -15.0331 O   0  0  0  0  0  0  0  0  0  0  0  0
   17.3845  -13.0401  -15.1389 C   0  0  0  0  0  0  0  0  0  0  0  0
   17.9061  -12.0500  -16.1381 C   0  0  2  0  0  0  0  0  0  0  0  0
   18.9909  -12.6077  -16.8718 N   0  0  0  0  0  0  0  0  0  0  0  0
   18.2884  -10.7588  -15.5097 C   0  0  0  0  0  0  0  0  0  0  0  0
   17.5583  -10.2065  -14.6436 O   0  0  0  0  0  0  0  0  0  0  0  0
   19.4897  -10.0712  -15.8418 N   0  0  0  0  0  0  0  0  0  0  0  0
   19.8421   -8.7700  -15.3116 C   0  0  1  0  0  0  0  0  0  0  0  0
   21.2857   -8.6412  -14.9913 C   0  0  0  0  0  0  0  0  0  0  0  0
   21.7544   -7.2801  -14.6867 C   0  0  0  0  0  0  0  0  0  0  0  0
   21.6167   -6.7240  -13.4343 C   0  0  0  0  0  0  0  0  0  0  0  0
   22.0589   -5.4515  -13.1642 C   0  0  0  0  0  0  0  0  0  0  0  0
   22.6574   -4.6754  -14.1260 C   0  0  0  0  0  0  0  0  0  0  0  0
   22.8034   -5.2172  -15.3869 C   0  0  0  0  0  0  0  0  0  0  0  0
   22.3635   -6.4888  -15.6638 C   0  0  0  0  0  0  0  0  0  0  0  0
   19.3429   -7.6617  -16.1424 C   0  0  0  0  0  0  0  0  0  0  0  0
   19.6171   -7.6694  -17.3598 O   0  0  0  0  0  0  0  0  0  0  0  0
   16.5958   -5.3621  -16.4532 C   0  0  0  0  0  0  0  0  0  0  0  0
   18.1069   -5.5035  -16.4816 C   0  0  2  0  0  0  0  0  0  0  0  0
   18.5674   -6.5832  -15.6414 N   0  0  0  0  0  0  0  0  0  0  0  0
   18.7669   -4.2241  -16.1866 C   0  0  0  0  0  0  0  0  0  0  0  0
   18.8507   -3.8172  -15.0091 O   0  0  0  0  0  0  0  0  0  0  0  0
   19.3008   -3.4579  -17.1997 O   0  0  0  0  0  0  0  0  0  0  0  0
  2  1  1  0
  2  3  2  0
  4  2  1  0
  5  4  1  0
  5  7  1  0
  5  6  1  1
  7  8  2  0
  9  7  1  0
  9 10  1  0
 10 11  1  6
 11 12  1  0
 12 17  2  0
 13 12  1  0
 13 14  2  0
 14 15  1  0
 15 16  2  0
 17 16  1  0
 18 10  1  0
 18 19  2  0
 21 20  1  1
 21 22  1  0
 21 23  1  0
 22 18  1  0
 23 25  1  0
 24 23  2  0
M  END
$$$$
