NFA.pdb
     RDKit          3D

 25 25  0  0  1  0  0  0  0  0999 V2000
   16.0040  -12.5942  -21.1410 N   0  0  0  0  0  0  0  0  0  0  0  0
   17.0864  -11.8120  -20.6703 C   0  0  0  0  0  0  0  0  0  0  0  0
   17.9830  -11.4787  -21.4754 O   0  0  0  0  0  0  0  0  0  0  0  0
   17.1298  -11.4166  -19.2687 C   0  0  0  0  0  0  0  0  0  0  0  0
   18.4781  -11.5780  -18.6309 C   0  0  2  0  0  0  0  0  0  0  0  0
   18.6626  -12.9186  -18.1895 N   0  0  0  0  0  0  0  0  0  0  0  0
   18.7007  -10.6113  -17.5244 C   0  0  0  0  0  0  0  0  0  0  0  0
   17.9769  -10.6135  -16.4927 O   0  0  0  0  0  0  0  0  0  0  0  0
   19.7336   -9.6325  -17.5585 N   0  0  0  0  0  0  0  0  0  0  0  0
   19.9437   -8.6510  -16.5140 C   0  0  1  0  0  0  0  0  0  0  0  0
   21.3376   -8.6290  -16.0047 C   0  0  0  0  0  0  0  0  0  0  0  0
   21.6171   -7.6442  -14.9479 C   0  0  0  0  0  0  0  0  0  0  0  0
   22.1873   -6.4209  -15.2226 C   0  0  0  0  0  0  0  0  0  0  0  0
   22.4429   -5.5109  -14.2254 C   0  0  0  0  0  0  0  0  0  0  0  0
   22.1435   -5.7757  -12.9117 C   0  0  0  0  0  0  0  0  0  0  0  0
   21.5716   -6.9971  -12.6186 C   0  0  0  0  0  0  0  0  0  0  0  0
   21.3133   -7.9115  -13.6107 C   0  0  0  0  0  0  0  0  0  0  0  0
   19.4516   -7.3129  -16.8820 C   0  0  0  0  0  0  0  0  0  0  0  0
   19.9001   -6.7864  -17.9207 O   0  0  0  0  0  0  0  0  0  0  0  0
   16.5868   -5.0384  -16.1139 C   0  0  0  0  0  0  0  0  0  0  0  0
   18.0305   -5.2761  -16.5184 C   0  0  2  0  0  0  0  0  0  0  0  0
   18.4963   -6.5845  -16.1253 N   0  0  0  0  0  0  0  0  0  0  0  0
   18.9012   -4.1904  -16.0468 C   0  0  0  0  0  0  0  0  0  0  0  0
   18.9877   -3.1273  -16.6959 O   0  0  0  0  0  0  0  0  0  0  0  0
   19.6319   -4.3283  -14.8867 O   0  0  0  0  0  0  0  0  0  0  0  0
  2  1  1  0
  2  3  2  0
  4  2  1  0
  5  4  1  0
  5  7  1  0
  5  6  1  1
  7  8  2  0
  9  7  1  0
  9 10  1  0
 10 11  1  6
 11 12  1  0
 12 17  2  0
 13 12  1  0
 13 14  2  0
 14 15  1  0
 15 16  2  0
 17 16  1  0
 18 10  1  0
 18 19  2  0
 21 20  1  1
 21 22  1  0
 21 23  1  0
 22 18  1  0
 23 25  1  0
 24 23  2  0
M  END
$$$$
