NFA.pdb
     RDKit          3D

 25 25  0  0  1  0  0  0  0  0999 V2000
   27.1161  -19.5905  -21.8936 N   0  0  0  0  0  0  0  0  0  0  0  0
   27.0393  -19.0817  -20.5744 C   0  0  0  0  0  0  0  0  0  0  0  0
   27.1542  -17.8496  -20.3969 O   0  0  0  0  0  0  0  0  0  0  0  0
   26.8296  -19.9995  -19.4625 C   0  0  0  0  0  0  0  0  0  0  0  0
   27.7551  -19.7748  -18.3033 C   0  0  2  0  0  0  0  0  0  0  0  0
   29.0671  -20.2277  -18.6189 N   0  0  0  0  0  0  0  0  0  0  0  0
   27.2564  -20.4000  -17.0508 C   0  0  0  0  0  0  0  0  0  0  0  0
   27.1535  -21.6508  -16.9350 O   0  0  0  0  0  0  0  0  0  0  0  0
   26.8677  -19.6353  -15.9150 N   0  0  0  0  0  0  0  0  0  0  0  0
   26.3736  -20.2199  -14.6850 C   0  0  1  0  0  0  0  0  0  0  0  0
   26.8209  -19.4921  -13.4713 C   0  0  0  0  0  0  0  0  0  0  0  0
   26.3835  -20.0608  -12.1868 C   0  0  0  0  0  0  0  0  0  0  0  0
   27.1309  -21.0009  -11.5126 C   0  0  0  0  0  0  0  0  0  0  0  0
   26.7099  -21.5236  -10.3136 C   0  0  0  0  0  0  0  0  0  0  0  0
   25.5282  -21.1357   -9.7316 C   0  0  0  0  0  0  0  0  0  0  0  0
   24.7667  -20.1943  -10.3939 C   0  0  0  0  0  0  0  0  0  0  0  0
   25.1816  -19.6676  -11.5928 C   0  0  0  0  0  0  0  0  0  0  0  0
   24.9193  -20.4491  -14.7069 C   0  0  0  0  0  0  0  0  0  0  0  0
   24.1763  -19.4867  -14.9885 O   0  0  0  0  0  0  0  0  0  0  0  0
   22.4948  -23.3397  -14.6586 C   0  0  0  0  0  0  0  0  0  0  0  0
   22.8791  -21.8871  -14.4426 C   0  0  2  0  0  0  0  0  0  0  0  0
   24.3104  -21.7005  -14.4265 N   0  0  0  0  0  0  0  0  0  0  0  0
   22.2137  -21.3313  -13.2562 C   0  0  0  0  0  0  0  0  0  0  0  0
   22.8769  -21.0575  -12.2342 O   0  0  0  0  0  0  0  0  0  0  0  0
   20.8546  -21.1047  -13.2532 O   0  0  0  0  0  0  0  0  0  0  0  0
  2  1  1  0
  2  3  2  0
  4  2  1  0
  5  4  1  0
  5  7  1  0
  5  6  1  6
  7  8  2  0
  9  7  1  0
  9 10  1  0
 10 11  1  1
 11 12  1  0
 12 17  2  0
 13 12  1  0
 13 14  2  0
 14 15  1  0
 15 16  2  0
 17 16  1  0
 18 10  1  0
 18 19  2  0
 21 20  1  1
 21 22  1  0
 21 23  1  0
 22 18  1  0
 23 25  1  0
 24 23  2  0
M  END
$$$$
