PRT.pdb
     RDKit          3D

 26 26  0  0  1  0  0  0  0  0999 V2000
   23.8983  -11.6193  -15.2997 N   0  0  0  0  0  0  0  0  0  0  0  0
   24.9155  -12.6812  -15.3419 C   0  0  0  0  0  0  0  0  0  0  0  0
   25.0177  -13.0525  -16.8161 C   0  0  0  0  0  0  0  0  0  0  0  0
   24.3237  -11.9201  -17.5445 C   0  0  0  0  0  0  0  0  0  0  0  0
   24.2429  -10.8626  -16.4765 C   0  0  1  0  0  0  0  0  0  0  0  0
   23.2237   -9.8168  -16.7815 C   0  0  0  0  0  0  0  0  0  0  0  0
   23.3922   -9.1033  -17.7727 O   0  0  0  0  0  0  0  0  0  0  0  0
   15.6693  -12.8028  -15.9030 N   0  0  0  0  0  0  0  0  0  0  0  0
   16.8825  -13.5082  -15.6916 C   0  0  0  0  0  0  0  0  0  0  0  0
   16.8575  -14.7858  -15.5258 N   0  0  0  0  0  0  0  0  0  0  0  0
   18.1241  -12.8283  -15.6602 N   0  0  0  0  0  0  0  0  0  0  0  0
   18.1977  -11.3994  -15.8898 C   0  0  0  0  0  0  0  0  0  0  0  0
   19.6244  -10.8944  -15.7569 C   0  0  0  0  0  0  0  0  0  0  0  0
   19.6286   -9.4290  -16.1006 C   0  0  0  0  0  0  0  0  0  0  0  0
   20.9945   -8.7982  -16.0495 C   0  0  2  0  0  0  0  0  0  0  0  0
   22.1132   -9.6551  -15.9643 N   0  0  0  0  0  0  0  0  0  0  0  0
   21.0041   -7.6080  -15.2077 C   0  0  0  0  0  0  0  0  0  0  0  0
   21.1254   -7.7331  -13.9282 O   0  0  0  0  0  0  0  0  0  0  0  0
   17.7397  -15.3189  -15.3810 C   0  0  0  0  0  0  0  0  0  0  0  0
   23.3680   -4.7287  -15.1653 C   0  0  2  0  0  0  0  0  0  0  0  0
   21.9757   -4.1776  -15.2637 O   0  0  0  0  0  0  0  0  0  0  0  0
   21.6783   -3.9245  -16.6136 C   0  0  2  0  0  0  0  0  0  0  0  0
   20.9645   -5.1714  -14.7336 N   0  0  0  0  0  0  0  0  0  0  0  0
   20.8908   -6.2920  -15.6788 C   0  0  0  0  0  0  0  0  0  0  0  0
   19.6175   -4.5718  -14.6642 O   0  0  0  0  0  0  0  0  0  0  0  0
   19.4457   -3.5413  -13.7358 O   0  0  0  0  0  0  0  0  0  0  0  0
  2  1  1  0
  3  2  1  0
  4  3  1  0
  4  5  1  0
  5  6  1  6
  5  1  1  0
  6  7  2  0
  9  8  1  0
 10  9  2  0
 11  9  1  0
 12 11  1  0
 13 12  1  0
 13 14  1  0
 15 14  1  1
 16 15  1  0
 16  6  1  0
 17 15  1  0
 18 17  2  0
 20 19  1  1
 20 22  1  0
 21 20  1  0
 22 24  1  0
 22 23  1  1
 23 17  1  0
 24 25  1  0
 26 24  2  0
M  END
$$$$
