PRT.pdb
     RDKit          3D

 26 26  0  0  1  0  0  0  0  0999 V2000
   30.0127  -20.8213   -9.7994 N   0  0  0  0  0  0  0  0  0  0  0  0
   31.3006  -21.1565   -9.1725 C   0  0  0  0  0  0  0  0  0  0  0  0
   31.7087  -22.4736   -9.8209 C   0  0  0  0  0  0  0  0  0  0  0  0
   30.8079  -22.5984  -11.0323 C   0  0  0  0  0  0  0  0  0  0  0  0
   30.2661  -21.2006  -11.1662 C   0  0  1  0  0  0  0  0  0  0  0  0
   29.0280  -21.1429  -11.9964 C   0  0  0  0  0  0  0  0  0  0  0  0
   29.0757  -21.5667  -13.1532 O   0  0  0  0  0  0  0  0  0  0  0  0
   21.9975  -21.5940   -7.4729 N   0  0  0  0  0  0  0  0  0  0  0  0
   22.0938  -21.6891   -8.8856 C   0  0  0  0  0  0  0  0  0  0  0  0
   21.0325  -21.9014   -9.5849 N   0  0  0  0  0  0  0  0  0  0  0  0
   23.3415  -21.5538   -9.5412 N   0  0  0  0  0  0  0  0  0  0  0  0
   24.4851  -20.9844   -8.8571 C   0  0  0  0  0  0  0  0  0  0  0  0
   25.7350  -21.0636   -9.7171 C   0  0  0  0  0  0  0  0  0  0  0  0
   25.3842  -20.5524  -11.0886 C   0  0  0  0  0  0  0  0  0  0  0  0
   26.5612  -20.4669  -12.0233 C   0  0  2  0  0  0  0  0  0  0  0  0
   27.8520  -20.6228  -11.4732 N   0  0  0  0  0  0  0  0  0  0  0  0
   26.3842  -19.4111  -13.0129 C   0  0  0  0  0  0  0  0  0  0  0  0
   26.3292  -18.1796  -12.6284 O   0  0  0  0  0  0  0  0  0  0  0  0
   21.0932  -22.0225  -10.6169 C   0  0  0  0  0  0  0  0  0  0  0  0
   28.6043  -18.0638  -15.4939 C   0  0  2  0  0  0  0  0  0  0  0  0
   27.3628  -18.4890  -16.2217 O   0  0  0  0  0  0  0  0  0  0  0  0
   27.5343  -19.8029  -16.6898 C   0  0  2  0  0  0  0  0  0  0  0  0
   26.1635  -18.4674  -15.2985 N   0  0  0  0  0  0  0  0  0  0  0  0
   26.2654  -19.6194  -14.3946 C   0  0  0  0  0  0  0  0  0  0  0  0
   24.9068  -18.6201  -16.0576 O   0  0  0  0  0  0  0  0  0  0  0  0
   24.6166  -17.6141  -16.9834 O   0  0  0  0  0  0  0  0  0  0  0  0
  2  1  1  0
  3  2  1  0
  4  3  1  0
  4  5  1  0
  5  6  1  6
  5  1  1  0
  6  7  2  0
  9  8  1  0
 10  9  2  0
 11  9  1  0
 12 11  1  0
 13 12  1  0
 13 14  1  0
 15 14  1  1
 16 15  1  0
 16  6  1  0
 17 15  1  0
 18 17  2  0
 20 19  1  6
 20 22  1  0
 21 20  1  0
 22 24  1  0
 22 23  1  6
 23 17  1  0
 24 25  1  0
 26 24  2  0
M  END
$$$$
