PRT.pdb
     RDKit          3D

 26 26  0  0  1  0  0  0  0  0999 V2000
   19.2449  -12.2883  -15.2635 N   0  0  0  0  0  0  0  0  0  0  0  0
   19.2350  -13.6332  -15.8595 C   0  0  0  0  0  0  0  0  0  0  0  0
   18.7082  -13.4196  -17.2732 C   0  0  0  0  0  0  0  0  0  0  0  0
   18.8096  -11.9249  -17.4971 C   0  0  0  0  0  0  0  0  0  0  0  0
   19.7164  -11.4999  -16.3735 C   0  0  1  0  0  0  0  0  0  0  0  0
   19.6319  -10.0376  -16.0906 C   0  0  0  0  0  0  0  0  0  0  0  0
   20.2320   -9.2593  -16.8350 O   0  0  0  0  0  0  0  0  0  0  0  0
   12.1735   -8.3691  -12.5918 N   0  0  0  0  0  0  0  0  0  0  0  0
   12.3950   -9.1712  -13.7414 C   0  0  0  0  0  0  0  0  0  0  0  0
   11.4340   -9.8871  -14.2149 N   0  0  0  0  0  0  0  0  0  0  0  0
   13.6592   -9.1971  -14.3787 N   0  0  0  0  0  0  0  0  0  0  0  0
   14.8111   -8.5570  -13.7761 C   0  0  0  0  0  0  0  0  0  0  0  0
   16.0613   -8.7777  -14.6105 C   0  0  0  0  0  0  0  0  0  0  0  0
   17.2056   -8.0872  -13.9181 C   0  0  0  0  0  0  0  0  0  0  0  0
   18.5301   -8.2658  -14.6109 C   0  0  2  0  0  0  0  0  0  0  0  0
   18.8931   -9.5697  -15.0125 N   0  0  0  0  0  0  0  0  0  0  0  0
   19.5693   -7.4457  -14.0002 C   0  0  0  0  0  0  0  0  0  0  0  0
   19.9144   -7.6622  -12.7748 O   0  0  0  0  0  0  0  0  0  0  0  0
   11.5811  -10.4820  -15.0563 C   0  0  0  0  0  0  0  0  0  0  0  0
   23.0533   -7.3673  -14.8694 C   0  0  2  0  0  0  0  0  0  0  0  0
   22.6101   -5.9337  -14.8557 O   0  0  0  0  0  0  0  0  0  0  0  0
   22.2742   -5.5462  -16.1641 C   0  0  2  0  0  0  0  0  0  0  0  0
   21.3882   -5.7562  -13.9802 N   0  0  0  0  0  0  0  0  0  0  0  0
   20.2537   -6.4064  -14.6469 C   0  0  0  0  0  0  0  0  0  0  0  0
   21.0451   -4.3283  -13.8313 O   0  0  0  0  0  0  0  0  0  0  0  0
   19.8112   -3.9305  -14.3535 O   0  0  0  0  0  0  0  0  0  0  0  0
  2  1  1  0
  3  2  1  0
  4  3  1  0
  4  5  1  0
  5  6  1  1
  5  1  1  0
  6  7  2  0
  9  8  1  0
 10  9  2  0
 11  9  1  0
 12 11  1  0
 13 12  1  0
 13 14  1  0
 15 14  1  1
 16 15  1  0
 16  6  1  0
 17 15  1  0
 18 17  2  0
 20 19  1  6
 20 22  1  0
 21 20  1  0
 22 24  1  0
 22 23  1  1
 23 17  1  0
 24 25  1  0
 26 24  2  0
M  END
$$$$
