PRT.pdb
     RDKit          3D

 26 26  0  0  1  0  0  0  0  0999 V2000
   28.1268  -21.8178  -16.3457 N   0  0  0  0  0  0  0  0  0  0  0  0
   29.3725  -22.1682  -17.0454 C   0  0  0  0  0  0  0  0  0  0  0  0
   28.9115  -22.8877  -18.3069 C   0  0  0  0  0  0  0  0  0  0  0  0
   27.4351  -22.5653  -18.4129 C   0  0  0  0  0  0  0  0  0  0  0  0
   27.2949  -21.4159  -17.4514 C   0  0  1  0  0  0  0  0  0  0  0  0
   25.8819  -21.1910  -17.0292 C   0  0  0  0  0  0  0  0  0  0  0  0
   25.0579  -20.8625  -17.8854 O   0  0  0  0  0  0  0  0  0  0  0  0
   26.4251  -20.8683   -9.7474 N   0  0  0  0  0  0  0  0  0  0  0  0
   25.0127  -20.9427   -9.8634 C   0  0  0  0  0  0  0  0  0  0  0  0
   24.2708  -20.2013   -9.1150 N   0  0  0  0  0  0  0  0  0  0  0  0
   24.4036  -21.8214  -10.7918 N   0  0  0  0  0  0  0  0  0  0  0  0
   25.2034  -22.6938  -11.6279 C   0  0  0  0  0  0  0  0  0  0  0  0
   25.4657  -22.0646  -12.9856 C   0  0  0  0  0  0  0  0  0  0  0  0
   24.1426  -21.9135  -13.6872 C   0  0  0  0  0  0  0  0  0  0  0  0
   24.2508  -21.3111  -15.0625 C   0  0  2  0  0  0  0  0  0  0  0  0
   25.5092  -21.3492  -15.7013 N   0  0  0  0  0  0  0  0  0  0  0  0
   23.4909  -20.0713  -15.1659 C   0  0  0  0  0  0  0  0  0  0  0  0
   23.7612  -19.0897  -14.3715 O   0  0  0  0  0  0  0  0  0  0  0  0
   23.2368  -20.1946   -9.2340 C   0  0  0  0  0  0  0  0  0  0  0  0
   22.6701  -17.8670  -18.3059 C   0  0  2  0  0  0  0  0  0  0  0  0
   21.4305  -18.2032  -17.5299 O   0  0  0  0  0  0  0  0  0  0  0  0
   20.8154  -19.3239  -18.1135 C   0  0  2  0  0  0  0  0  0  0  0  0
   21.7693  -18.5423  -16.0942 N   0  0  0  0  0  0  0  0  0  0  0  0
   22.4566  -19.8392  -16.0841 C   0  0  0  0  0  0  0  0  0  0  0  0
   20.5462  -18.6920  -15.2815 O   0  0  0  0  0  0  0  0  0  0  0  0
   19.7768  -17.5391  -15.1027 O   0  0  0  0  0  0  0  0  0  0  0  0
  2  1  1  0
  3  2  1  0
  4  3  1  0
  4  5  1  0
  5  6  1  1
  5  1  1  0
  6  7  2  0
  9  8  1  0
 10  9  2  0
 11  9  1  0
 12 11  1  0
 13 12  1  0
 13 14  1  0
 15 14  1  1
 16 15  1  0
 16  6  1  0
 17 15  1  0
 18 17  2  0
 20 19  1  6
 20 22  1  0
 21 20  1  0
 22 24  1  0
 22 23  1  1
 23 17  1  0
 24 25  1  0
 26 24  2  0
M  END
$$$$
