PRT.pdb
     RDKit          3D

 26 26  0  0  1  0  0  0  0  0999 V2000
   27.7960  -17.9996  -17.0243 N   0  0  0  0  0  0  0  0  0  0  0  0
   28.7480  -17.5554  -18.0541 C   0  0  0  0  0  0  0  0  0  0  0  0
   29.3735  -18.8432  -18.5756 C   0  0  0  0  0  0  0  0  0  0  0  0
   28.4645  -19.9430  -18.0668 C   0  0  0  0  0  0  0  0  0  0  0  0
   27.2405  -19.1717  -17.6517 C   0  0  1  0  0  0  0  0  0  0  0  0
   26.3684  -19.9405  -16.7168 C   0  0  0  0  0  0  0  0  0  0  0  0
   25.7309  -20.8979  -17.1608 O   0  0  0  0  0  0  0  0  0  0  0  0
   23.2960  -19.9591  -10.1697 N   0  0  0  0  0  0  0  0  0  0  0  0
   23.9584  -20.8188   -9.2552 C   0  0  0  0  0  0  0  0  0  0  0  0
   23.3305  -21.2513   -8.2165 N   0  0  0  0  0  0  0  0  0  0  0  0
   25.3026  -21.2103   -9.4669 N   0  0  0  0  0  0  0  0  0  0  0  0
   26.0777  -20.6550  -10.5581 C   0  0  0  0  0  0  0  0  0  0  0  0
   25.3093  -20.7207  -11.8670 C   0  0  0  0  0  0  0  0  0  0  0  0
   26.1813  -20.1325  -12.9436 C   0  0  0  0  0  0  0  0  0  0  0  0
   25.5372  -20.1163  -14.3041 C   0  0  2  0  0  0  0  0  0  0  0  0
   26.2805  -19.5816  -15.3787 N   0  0  0  0  0  0  0  0  0  0  0  0
   24.1277  -19.7523  -14.2256 C   0  0  0  0  0  0  0  0  0  0  0  0
   23.7820  -18.6700  -13.6119 O   0  0  0  0  0  0  0  0  0  0  0  0
   23.8018  -21.8842   -7.5376 C   0  0  0  0  0  0  0  0  0  0  0  0
   21.7611  -19.4015  -17.2313 C   0  0  2  0  0  0  0  0  0  0  0  0
   21.1177  -20.2351  -16.1623 O   0  0  0  0  0  0  0  0  0  0  0  0
   21.3361  -21.5936  -16.4481 C   0  0  2  0  0  0  0  0  0  0  0  0
   21.7210  -19.9326  -14.8074 N   0  0  0  0  0  0  0  0  0  0  0  0
   23.0755  -20.4974  -14.7773 C   0  0  0  0  0  0  0  0  0  0  0  0
   20.9540  -20.5843  -13.7277 O   0  0  0  0  0  0  0  0  0  0  0  0
   19.6528  -20.1171  -13.5237 O   0  0  0  0  0  0  0  0  0  0  0  0
  2  1  1  0
  3  2  1  0
  4  3  1  0
  4  5  1  0
  5  6  1  1
  5  1  1  0
  6  7  2  0
  9  8  1  0
 10  9  2  0
 11  9  1  0
 12 11  1  0
 13 12  1  0
 13 14  1  0
 15 14  1  1
 16 15  1  0
 16  6  1  0
 17 15  1  0
 18 17  2  0
 20 19  1  6
 20 22  1  0
 21 20  1  0
 22 24  1  0
 22 23  1  1
 23 17  1  0
 24 25  1  0
 26 24  2  0
M  END
$$$$
