PRT.pdb
     RDKit          3D

 26 26  0  0  1  0  0  0  0  0999 V2000
   18.9453  -18.8730  -14.9683 N   0  0  0  0  0  0  0  0  0  0  0  0
   17.5639  -19.0491  -14.4939 C   0  0  0  0  0  0  0  0  0  0  0  0
   17.5871  -18.5431  -13.0569 C   0  0  0  0  0  0  0  0  0  0  0  0
   18.8876  -17.7747  -12.9432 C   0  0  0  0  0  0  0  0  0  0  0  0
   19.2742  -17.5964  -14.3868 C   0  0  1  0  0  0  0  0  0  0  0  0
   20.7189  -17.2654  -14.5565 C   0  0  0  0  0  0  0  0  0  0  0  0
   21.1470  -16.2255  -14.0511 O   0  0  0  0  0  0  0  0  0  0  0  0
   27.5052  -22.8645  -16.0657 N   0  0  0  0  0  0  0  0  0  0  0  0
   28.0133  -21.5950  -16.4455 C   0  0  0  0  0  0  0  0  0  0  0  0
   29.2182  -21.4971  -16.8914 N   0  0  0  0  0  0  0  0  0  0  0  0
   27.2146  -20.4304  -16.3421 N   0  0  0  0  0  0  0  0  0  0  0  0
   25.7866  -20.5235  -16.1143 C   0  0  0  0  0  0  0  0  0  0  0  0
   25.1552  -19.1454  -16.0137 C   0  0  0  0  0  0  0  0  0  0  0  0
   23.6833  -19.3299  -15.7593 C   0  0  0  0  0  0  0  0  0  0  0  0
   22.9322  -18.0377  -15.5800 C   0  0  2  0  0  0  0  0  0  0  0  0
   21.5573  -18.1125  -15.2682 N   0  0  0  0  0  0  0  0  0  0  0  0
   23.3365  -17.0417  -16.5649 C   0  0  0  0  0  0  0  0  0  0  0  0
   23.0956  -17.2484  -17.8166 O   0  0  0  0  0  0  0  0  0  0  0  0
   29.5990  -20.5762  -17.1921 C   0  0  0  0  0  0  0  0  0  0  0  0
   22.4753  -13.2623  -16.5871 C   0  0  2  0  0  0  0  0  0  0  0  0
   23.9494  -13.4764  -16.7694 O   0  0  0  0  0  0  0  0  0  0  0  0
   24.5846  -13.3725  -15.5203 C   0  0  2  0  0  0  0  0  0  0  0  0
   24.2280  -14.8546  -17.3299 N   0  0  0  0  0  0  0  0  0  0  0  0
   23.9856  -15.8353  -16.2650 C   0  0  0  0  0  0  0  0  0  0  0  0
   25.6423  -14.9885  -17.7306 O   0  0  0  0  0  0  0  0  0  0  0  0
   26.0470  -14.2333  -18.8348 O   0  0  0  0  0  0  0  0  0  0  0  0
  2  1  1  0
  3  2  1  0
  4  3  1  0
  4  5  1  0
  5  6  1  1
  5  1  1  0
  6  7  2  0
  9  8  1  0
 10  9  2  0
 11  9  1  0
 12 11  1  0
 13 12  1  0
 13 14  1  0
 15 14  1  6
 16 15  1  0
 16  6  1  0
 17 15  1  0
 18 17  2  0
 20 19  1  6
 20 22  1  0
 21 20  1  0
 22 24  1  0
 22 23  1  6
 23 17  1  0
 24 25  1  0
 26 24  2  0
M  END
$$$$
