PRT.pdb
     RDKit          3D

 26 26  0  0  1  0  0  0  0  0999 V2000
   27.2599  -18.4023  -17.4500 N   0  0  0  0  0  0  0  0  0  0  0  0
   28.1327  -18.0615  -18.5841 C   0  0  0  0  0  0  0  0  0  0  0  0
   28.6756  -19.4021  -19.0634 C   0  0  0  0  0  0  0  0  0  0  0  0
   27.7830  -20.4335  -18.4045 C   0  0  0  0  0  0  0  0  0  0  0  0
   26.6207  -19.5951  -17.9447 C   0  0  1  0  0  0  0  0  0  0  0  0
   25.8104  -20.2687  -16.8887 C   0  0  0  0  0  0  0  0  0  0  0  0
   25.0820  -21.2079  -17.2164 O   0  0  0  0  0  0  0  0  0  0  0  0
   23.7923  -19.4655   -9.6687 N   0  0  0  0  0  0  0  0  0  0  0  0
   24.3241  -20.6153   -9.0290 C   0  0  0  0  0  0  0  0  0  0  0  0
   23.7561  -21.0754   -7.9678 N   0  0  0  0  0  0  0  0  0  0  0  0
   25.4723  -21.2674   -9.5401 N   0  0  0  0  0  0  0  0  0  0  0  0
   26.1474  -20.7709  -10.7222 C   0  0  0  0  0  0  0  0  0  0  0  0
   25.2177  -20.7641  -11.9237 C   0  0  0  0  0  0  0  0  0  0  0  0
   26.0006  -20.2686  -13.1099 C   0  0  0  0  0  0  0  0  0  0  0  0
   25.2236  -20.2851  -14.3991 C   0  0  2  0  0  0  0  0  0  0  0  0
   25.8789  -19.8435  -15.5690 N   0  0  0  0  0  0  0  0  0  0  0  0
   23.8482  -19.8438  -14.2016 C   0  0  0  0  0  0  0  0  0  0  0  0
   23.6134  -18.7781  -13.5113 O   0  0  0  0  0  0  0  0  0  0  0  0
   24.1179  -21.9333   -7.5025 C   0  0  0  0  0  0  0  0  0  0  0  0
   21.3044  -18.6274  -16.5993 C   0  0  2  0  0  0  0  0  0  0  0  0
   20.7050  -19.7673  -15.8291 O   0  0  0  0  0  0  0  0  0  0  0  0
   20.8869  -20.9562  -16.5558 C   0  0  2  0  0  0  0  0  0  0  0  0
   21.3831  -19.9246  -14.4851 N   0  0  0  0  0  0  0  0  0  0  0  0
   22.7163  -20.4948  -14.7132 C   0  0  0  0  0  0  0  0  0  0  0  0
   20.6459  -20.8723  -13.6265 O   0  0  0  0  0  0  0  0  0  0  0  0
   19.3544  -20.4921  -13.2515 O   0  0  0  0  0  0  0  0  0  0  0  0
  2  1  1  0
  3  2  1  0
  4  3  1  0
  4  5  1  0
  5  6  1  1
  5  1  1  0
  6  7  2  0
  9  8  1  0
 10  9  2  0
 11  9  1  0
 12 11  1  0
 13 12  1  0
 13 14  1  0
 15 14  1  1
 16 15  1  0
 16  6  1  0
 17 15  1  0
 18 17  2  0
 20 19  1  6
 20 22  1  0
 21 20  1  0
 22 24  1  0
 22 23  1  1
 23 17  1  0
 24 25  1  0
 26 24  2  0
M  END
$$$$
