TVK.pdb
     RDKit          3D

 24 23  0  0  1  0  0  0  0  0999 V2000
    6.2701  -16.9785   20.8142 C   0  0  0  0  0  0  0  0  0  0  0  0
    7.0288  -16.3336   21.9284 C   0  0  1  0  0  0  0  0  0  0  0  0
    8.2907  -16.8983   22.1181 O   0  0  0  0  0  0  0  0  0  0  0  0
    7.2378  -14.8472   21.7060 C   0  0  2  0  0  0  0  0  0  0  0  0
    7.9879  -14.6179   20.4948 N   0  0  0  0  0  0  0  0  0  0  0  0
    7.9411  -14.3232   22.9057 C   0  0  0  0  0  0  0  0  0  0  0  0
    9.1925  -14.2384   22.8474 O   0  0  0  0  0  0  0  0  0  0  0  0
    6.4900  -11.5750   25.5184 C   0  0  0  0  0  0  0  0  0  0  0  0
    6.9260  -12.8513   26.1316 C   0  0  2  0  0  0  0  0  0  0  0  0
    7.4117  -12.6211   27.5481 C   0  0  0  0  0  0  0  0  0  0  0  0
    7.9742  -13.6170   25.3479 C   0  0  2  0  0  0  0  0  0  0  0  0
    7.2944  -13.9255   24.0779 N   0  0  0  0  0  0  0  0  0  0  0  0
    8.3231  -14.8416   26.0547 C   0  0  0  0  0  0  0  0  0  0  0  0
    7.4403  -15.7564   26.1869 O   0  0  0  0  0  0  0  0  0  0  0  0
    9.5917  -15.0831   26.6044 N   0  0  0  0  0  0  0  0  0  0  0  0
    9.9261  -16.3349   27.3072 C   0  0  1  0  0  0  0  0  0  0  0  0
   10.8590  -17.1274   26.4668 C   0  0  0  0  0  0  0  0  0  0  0  0
   11.2935  -18.4485   26.9903 C   0  0  0  0  0  0  0  0  0  0  0  0
   12.2553  -19.2189   26.1541 C   0  0  0  0  0  0  0  0  0  0  0  0
   12.4452  -20.5759   26.8429 C   0  0  0  0  0  0  0  0  0  0  0  0
   13.4361  -21.3530   26.1329 N   0  0  0  0  0  0  0  0  0  0  0  0
   10.3345  -16.1101   28.6978 C   0  0  0  0  0  0  0  0  0  0  0  0
   10.6942  -14.9968   29.1272 O   0  0  0  0  0  0  0  0  0  0  0  0
   10.3201  -17.1823   29.5735 O   0  0  0  0  0  0  0  0  0  0  0  0
  2  1  1  6
  3  2  1  0
  4  2  1  0
  4  5  1  6
  6  4  1  0
  7  6  2  0
  9  8  1  6
  9 11  1  0
 10  9  1  0
 11 12  1  6
 12  6  1  0
 13 11  1  0
 13 15  1  0
 14 13  2  0
 16 17  1  6
 16 15  1  0
 16 22  1  0
 18 17  1  0
 19 18  1  0
 20 21  1  0
 20 19  1  0
 22 24  1  0
 23 22  2  0
M  END
$$$$
