TVK.pdb
     RDKit          3D

 24 23  0  0  1  0  0  0  0  0999 V2000
    7.2298  -19.1051   19.3588 C   0  0  0  0  0  0  0  0  0  0  0  0
    7.6361  -18.9249   17.9322 C   0  0  1  0  0  0  0  0  0  0  0  0
    6.9855  -19.8098   17.0713 O   0  0  0  0  0  0  0  0  0  0  0  0
    7.3573  -17.5238   17.4204 C   0  0  2  0  0  0  0  0  0  0  0  0
    7.7375  -17.4076   16.0332 N   0  0  0  0  0  0  0  0  0  0  0  0
    8.1162  -16.5856   18.2877 C   0  0  0  0  0  0  0  0  0  0  0  0
    9.3438  -16.4556   18.0582 O   0  0  0  0  0  0  0  0  0  0  0  0
    6.7856  -13.0569   19.7287 C   0  0  0  0  0  0  0  0  0  0  0  0
    7.2680  -14.0088   20.7564 C   0  0  2  0  0  0  0  0  0  0  0  0
    7.8016  -13.2627   21.9623 C   0  0  0  0  0  0  0  0  0  0  0  0
    8.3004  -15.0088   20.2737 C   0  0  2  0  0  0  0  0  0  0  0  0
    7.5457  -15.8510   19.3295 N   0  0  0  0  0  0  0  0  0  0  0  0
    8.7836  -15.8012   21.3959 C   0  0  0  0  0  0  0  0  0  0  0  0
    7.9383  -16.4041   22.1413 O   0  0  0  0  0  0  0  0  0  0  0  0
   10.1435  -15.9483   21.7106 N   0  0  0  0  0  0  0  0  0  0  0  0
   10.6082  -16.7158   22.8802 C   0  0  1  0  0  0  0  0  0  0  0  0
   11.5676  -17.7546   22.4273 C   0  0  0  0  0  0  0  0  0  0  0  0
   11.0874  -18.7318   21.4161 C   0  0  0  0  0  0  0  0  0  0  0  0
   12.0590  -19.7681   20.9693 C   0  0  0  0  0  0  0  0  0  0  0  0
   11.3485  -20.6003   19.8948 C   0  0  0  0  0  0  0  0  0  0  0  0
   12.2806  -21.5294   19.2966 N   0  0  0  0  0  0  0  0  0  0  0  0
   11.0538  -15.8541   23.9803 C   0  0  0  0  0  0  0  0  0  0  0  0
   11.3253  -14.6472   23.8289 O   0  0  0  0  0  0  0  0  0  0  0  0
   11.1787  -16.4055   25.2441 O   0  0  0  0  0  0  0  0  0  0  0  0
  2  1  1  1
  3  2  1  0
  4  2  1  0
  4  5  1  6
  6  4  1  0
  7  6  2  0
  9  8  1  6
  9 11  1  0
 10  9  1  0
 11 12  1  6
 12  6  1  0
 13 11  1  0
 13 15  1  0
 14 13  2  0
 16 17  1  6
 16 15  1  0
 16 22  1  0
 18 17  1  0
 19 18  1  0
 20 21  1  0
 20 19  1  0
 22 24  1  0
 23 22  2  0
M  END
$$$$
