TVK.pdb
     RDKit          3D

 24 23  0  0  1  0  0  0  0  0999 V2000
    6.9994  -18.9437   19.5484 C   0  0  0  0  0  0  0  0  0  0  0  0
    7.6703  -18.9184   18.2134 C   0  0  1  0  0  0  0  0  0  0  0  0
    7.0711  -19.7797   17.2934 O   0  0  0  0  0  0  0  0  0  0  0  0
    7.6718  -17.5353   17.5892 C   0  0  2  0  0  0  0  0  0  0  0  0
    8.2466  -17.5785   16.2663 N   0  0  0  0  0  0  0  0  0  0  0  0
    8.4380  -16.6476   18.5020 C   0  0  0  0  0  0  0  0  0  0  0  0
    9.6871  -16.7752   18.5138 O   0  0  0  0  0  0  0  0  0  0  0  0
    7.2272  -12.8891   19.5102 C   0  0  0  0  0  0  0  0  0  0  0  0
    7.6032  -13.7621   20.6467 C   0  0  2  0  0  0  0  0  0  0  0  0
    8.1365  -12.9344   21.7982 C   0  0  0  0  0  0  0  0  0  0  0  0
    8.5852  -14.8678   20.3117 C   0  0  2  0  0  0  0  0  0  0  0  0
    7.8521  -15.6924   19.3356 N   0  0  0  0  0  0  0  0  0  0  0  0
    8.8896  -15.6382   21.5095 C   0  0  0  0  0  0  0  0  0  0  0  0
    7.9306  -16.1627   22.1720 O   0  0  0  0  0  0  0  0  0  0  0  0
   10.1935  -15.8460   21.9852 N   0  0  0  0  0  0  0  0  0  0  0  0
   10.4811  -16.6571   23.1821 C   0  0  1  0  0  0  0  0  0  0  0  0
   11.0346  -17.9676   22.7570 C   0  0  0  0  0  0  0  0  0  0  0  0
   11.2809  -18.9798   23.8168 C   0  0  0  0  0  0  0  0  0  0  0  0
   11.8468  -20.2860   23.3794 C   0  0  0  0  0  0  0  0  0  0  0  0
   11.9086  -21.1761   24.6267 C   0  0  0  0  0  0  0  0  0  0  0  0
   12.2586  -22.5271   24.2495 N   0  0  0  0  0  0  0  0  0  0  0  0
   11.2514  -15.9219   24.1907 C   0  0  0  0  0  0  0  0  0  0  0  0
   12.0907  -15.0481   23.8988 O   0  0  0  0  0  0  0  0  0  0  0  0
   11.0372  -16.2111   25.5276 O   0  0  0  0  0  0  0  0  0  0  0  0
  2  1  1  1
  3  2  1  0
  4  2  1  0
  4  5  1  6
  6  4  1  0
  7  6  2  0
  9  8  1  6
  9 11  1  0
 10  9  1  0
 11 12  1  6
 12  6  1  0
 13 11  1  0
 13 15  1  0
 14 13  2  0
 16 17  1  6
 16 15  1  0
 16 22  1  0
 18 17  1  0
 19 18  1  0
 20 21  1  0
 20 19  1  0
 22 24  1  0
 23 22  2  0
M  END
$$$$
