TVK.pdb
     RDKit          3D

 24 23  0  0  1  0  0  0  0  0999 V2000
    0.1001  -23.7383   25.6064 C   0  0  0  0  0  0  0  0  0  0  0  0
   -1.0866  -24.3402   24.9265 C   0  0  1  0  0  0  0  0  0  0  0  0
   -2.1396  -24.5946   25.8062 O   0  0  0  0  0  0  0  0  0  0  0  0
   -1.6358  -23.4552   23.8229 C   0  0  2  0  0  0  0  0  0  0  0  0
   -2.7427  -24.1017   23.1604 N   0  0  0  0  0  0  0  0  0  0  0  0
   -0.5128  -23.1764   22.8905 C   0  0  0  0  0  0  0  0  0  0  0  0
   -0.1097  -24.1266   22.1754 O   0  0  0  0  0  0  0  0  0  0  0  0
   -0.2759  -20.7372   20.1469 C   0  0  0  0  0  0  0  0  0  0  0  0
    0.8405  -20.4708   21.0837 C   0  0  2  0  0  0  0  0  0  0  0  0
    2.0303  -19.8963   20.3422 C   0  0  0  0  0  0  0  0  0  0  0  0
    1.2800  -21.6595   21.9161 C   0  0  2  0  0  0  0  0  0  0  0  0
    0.1096  -21.9321   22.7682 N   0  0  0  0  0  0  0  0  0  0  0  0
    2.4329  -21.2954   22.7279 C   0  0  0  0  0  0  0  0  0  0  0  0
    2.3456  -20.2954   23.5190 O   0  0  0  0  0  0  0  0  0  0  0  0
    3.6520  -21.9901   22.6961 N   0  0  0  0  0  0  0  0  0  0  0  0
    4.8168  -21.5849   23.5036 C   0  0  1  0  0  0  0  0  0  0  0  0
    5.2292  -22.7230   24.3635 C   0  0  0  0  0  0  0  0  0  0  0  0
    6.4057  -22.5182   25.2478 C   0  0  0  0  0  0  0  0  0  0  0  0
    6.9315  -23.7188   25.9547 C   0  0  0  0  0  0  0  0  0  0  0  0
    8.0595  -23.2285   26.8708 C   0  0  0  0  0  0  0  0  0  0  0  0
    8.6578  -24.3510   27.5576 N   0  0  0  0  0  0  0  0  0  0  0  0
    5.8728  -20.9619   22.6986 C   0  0  0  0  0  0  0  0  0  0  0  0
    6.0983  -21.2781   21.5144 O   0  0  0  0  0  0  0  0  0  0  0  0
    6.6547  -19.9782   23.2797 O   0  0  0  0  0  0  0  0  0  0  0  0
  2  1  1  1
  3  2  1  0
  4  2  1  0
  4  5  1  6
  6  4  1  0
  7  6  2  0
  9  8  1  6
  9 11  1  0
 10  9  1  0
 11 12  1  1
 12  6  1  0
 13 11  1  0
 13 15  1  0
 14 13  2  0
 16 17  1  6
 16 15  1  0
 16 22  1  0
 18 17  1  0
 19 18  1  0
 20 21  1  0
 20 19  1  0
 22 24  1  0
 23 22  2  0
M  END
$$$$
