TVK.pdb
     RDKit          3D

 24 23  0  0  1  0  0  0  0  0999 V2000
    7.1073  -16.7214   21.7910 C   0  0  0  0  0  0  0  0  0  0  0  0
    7.7918  -15.7155   20.9235 C   0  0  1  0  0  0  0  0  0  0  0  0
    7.4778  -15.8673   19.5723 O   0  0  0  0  0  0  0  0  0  0  0  0
    7.4428  -14.2879   21.3014 C   0  0  2  0  0  0  0  0  0  0  0  0
    7.9142  -13.3688   20.2938 N   0  0  0  0  0  0  0  0  0  0  0  0
    8.0598  -14.0265   22.6278 C   0  0  0  0  0  0  0  0  0  0  0  0
    9.2967  -13.8119   22.6544 O   0  0  0  0  0  0  0  0  0  0  0  0
    6.2402  -11.8871   25.4249 C   0  0  0  0  0  0  0  0  0  0  0  0
    6.7858  -13.1624   25.9454 C   0  0  2  0  0  0  0  0  0  0  0  0
    7.1860  -13.0146   27.3992 C   0  0  0  0  0  0  0  0  0  0  0  0
    7.9411  -13.7401   25.1514 C   0  0  2  0  0  0  0  0  0  0  0  0
    7.3483  -14.0069   23.8295 N   0  0  0  0  0  0  0  0  0  0  0  0
    8.3961  -14.9776   25.7697 C   0  0  0  0  0  0  0  0  0  0  0  0
    7.5437  -15.8948   26.0261 O   0  0  0  0  0  0  0  0  0  0  0  0
    9.7362  -15.2291   26.1025 N   0  0  0  0  0  0  0  0  0  0  0  0
   10.1702  -16.4774   26.7556 C   0  0  1  0  0  0  0  0  0  0  0  0
   11.5778  -16.7584   26.3756 C   0  0  0  0  0  0  0  0  0  0  0  0
   12.2344  -17.9305   27.0106 C   0  0  0  0  0  0  0  0  0  0  0  0
   13.6425  -18.2082   26.6133 C   0  0  0  0  0  0  0  0  0  0  0  0
   14.0313  -19.5349   27.2772 C   0  0  0  0  0  0  0  0  0  0  0  0
   15.3489  -19.9363   26.8385 N   0  0  0  0  0  0  0  0  0  0  0  0
    9.8671  -16.4989   28.1905 C   0  0  0  0  0  0  0  0  0  0  0  0
    9.9737  -15.4948   28.9211 O   0  0  0  0  0  0  0  0  0  0  0  0
    9.4436  -17.6877   28.7598 O   0  0  0  0  0  0  0  0  0  0  0  0
  2  1  1  1
  3  2  1  0
  4  2  1  0
  4  5  1  6
  6  4  1  0
  7  6  2  0
  9  8  1  6
  9 11  1  0
 10  9  1  0
 11 12  1  6
 12  6  1  0
 13 11  1  0
 13 15  1  0
 14 13  2  0
 16 17  1  1
 16 15  1  0
 16 22  1  0
 18 17  1  0
 19 18  1  0
 20 21  1  0
 20 19  1  0
 22 24  1  0
 23 22  2  0
M  END
$$$$
