TVK.pdb
     RDKit          3D

 24 23  0  0  1  0  0  0  0  0999 V2000
    6.4581  -16.8559   20.4274 C   0  0  0  0  0  0  0  0  0  0  0  0
    7.2056  -16.3885   21.6338 C   0  0  1  0  0  0  0  0  0  0  0  0
    8.3712  -17.1210   21.8623 O   0  0  0  0  0  0  0  0  0  0  0  0
    7.6113  -14.9295   21.5378 C   0  0  2  0  0  0  0  0  0  0  0  0
    8.5730  -14.7410   20.4786 N   0  0  0  0  0  0  0  0  0  0  0  0
    8.1586  -14.5426   22.8641 C   0  0  0  0  0  0  0  0  0  0  0  0
    9.4066  -14.5672   23.0005 O   0  0  0  0  0  0  0  0  0  0  0  0
    6.5952  -11.6618   25.0574 C   0  0  0  0  0  0  0  0  0  0  0  0
    6.8391  -12.8884   25.8518 C   0  0  2  0  0  0  0  0  0  0  0  0
    7.1825  -12.5336   27.2841 C   0  0  0  0  0  0  0  0  0  0  0  0
    7.8924  -13.8218   25.2877 C   0  0  2  0  0  0  0  0  0  0  0  0
    7.3711  -14.1586   23.9517 N   0  0  0  0  0  0  0  0  0  0  0  0
    7.9906  -15.0151   26.1168 C   0  0  0  0  0  0  0  0  0  0  0  0
    7.1977  -15.9928   25.8958 O   0  0  0  0  0  0  0  0  0  0  0  0
    8.9209  -15.1596   27.1577 N   0  0  0  0  0  0  0  0  0  0  0  0
    9.7495  -16.3682   27.3184 C   0  0  1  0  0  0  0  0  0  0  0  0
   10.4474  -16.6502   26.0385 C   0  0  0  0  0  0  0  0  0  0  0  0
   11.3349  -17.8413   25.9940 C   0  0  0  0  0  0  0  0  0  0  0  0
   10.7004  -19.1382   25.6294 C   0  0  0  0  0  0  0  0  0  0  0  0
   11.8222  -20.1837   25.6076 C   0  0  0  0  0  0  0  0  0  0  0  0
   11.2838  -21.4747   25.2426 N   0  0  0  0  0  0  0  0  0  0  0  0
   10.5886  -16.3218   28.5204 C   0  0  0  0  0  0  0  0  0  0  0  0
   11.3358  -15.3612   28.7890 O   0  0  0  0  0  0  0  0  0  0  0  0
   10.5496  -17.3930   29.3967 O   0  0  0  0  0  0  0  0  0  0  0  0
  2  1  1  6
  3  2  1  0
  4  2  1  0
  4  5  1  6
  6  4  1  0
  7  6  2  0
  9  8  1  6
  9 11  1  0
 10  9  1  0
 11 12  1  6
 12  6  1  0
 13 11  1  0
 13 15  1  0
 14 13  2  0
 16 17  1  6
 16 15  1  0
 16 22  1  0
 18 17  1  0
 19 18  1  0
 20 21  1  0
 20 19  1  0
 22 24  1  0
 23 22  2  0
M  END
$$$$
