TVK.pdb
     RDKit          3D

 24 23  0  0  1  0  0  0  0  0999 V2000
    7.3352  -18.9919   18.7556 C   0  0  0  0  0  0  0  0  0  0  0  0
    8.1156  -18.7199   17.5107 C   0  0  1  0  0  0  0  0  0  0  0  0
    7.6847  -19.4861   16.4269 O   0  0  0  0  0  0  0  0  0  0  0  0
    8.0402  -17.2660   17.0828 C   0  0  2  0  0  0  0  0  0  0  0  0
    8.7006  -17.0778   15.8136 N   0  0  0  0  0  0  0  0  0  0  0  0
    8.6682  -16.4620   18.1634 C   0  0  0  0  0  0  0  0  0  0  0  0
    9.9164  -16.5319   18.2808 O   0  0  0  0  0  0  0  0  0  0  0  0
    7.0202  -12.9649   19.6244 C   0  0  0  0  0  0  0  0  0  0  0  0
    7.4304  -13.9852   20.6172 C   0  0  2  0  0  0  0  0  0  0  0  0
    7.8009  -13.3284   21.9313 C   0  0  0  0  0  0  0  0  0  0  0  0
    8.5496  -14.9052   20.1700 C   0  0  2  0  0  0  0  0  0  0  0  0
    7.9551  -15.6445   19.0430 N   0  0  0  0  0  0  0  0  0  0  0  0
    8.9039  -15.8144   21.2511 C   0  0  0  0  0  0  0  0  0  0  0  0
    8.0386  -16.6615   21.6601 O   0  0  0  0  0  0  0  0  0  0  0  0
   10.1596  -15.8189   21.8780 N   0  0  0  0  0  0  0  0  0  0  0  0
   10.5151  -16.7838   22.9342 C   0  0  1  0  0  0  0  0  0  0  0  0
   11.6932  -17.5725   22.4927 C   0  0  0  0  0  0  0  0  0  0  0  0
   12.2108  -18.6058   23.4267 C   0  0  0  0  0  0  0  0  0  0  0  0
   13.3697  -19.4149   22.9577 C   0  0  0  0  0  0  0  0  0  0  0  0
   13.6149  -20.4884   24.0252 C   0  0  0  0  0  0  0  0  0  0  0  0
   14.6616  -21.3851   23.5890 N   0  0  0  0  0  0  0  0  0  0  0  0
   10.6082  -16.1619   24.2592 C   0  0  0  0  0  0  0  0  0  0  0  0
   10.8903  -14.9594   24.4254 O   0  0  0  0  0  0  0  0  0  0  0  0
   10.3721  -16.9452   25.3761 O   0  0  0  0  0  0  0  0  0  0  0  0
  2  1  1  1
  3  2  1  0
  4  2  1  0
  4  5  1  6
  6  4  1  0
  7  6  2  0
  9  8  1  6
  9 11  1  0
 10  9  1  0
 11 12  1  6
 12  6  1  0
 13 11  1  0
 13 15  1  0
 14 13  2  0
 16 17  1  6
 16 15  1  0
 16 22  1  0
 18 17  1  0
 19 18  1  0
 20 21  1  0
 20 19  1  0
 22 24  1  0
 23 22  2  0
M  END
$$$$
