QWV.pdb
     RDKit          3D

 31 32  0  0  1  0  0  0  0  0999 V2000
    8.7750  -12.4969   18.1370 N   0  0  0  0  0  0  0  0  0  0  0  0
    7.8505  -13.4553   17.6501 C   0  0  0  0  0  0  0  0  0  0  0  0
    7.6684  -13.5226   16.4151 O   0  0  0  0  0  0  0  0  0  0  0  0
    7.1230  -14.3489   18.5631 C   0  0  0  0  0  0  0  0  0  0  0  0
    7.4225  -14.1829   20.0086 C   0  0  0  0  0  0  0  0  0  0  0  0
    7.7215  -15.4355   20.7620 C   0  0  2  0  0  0  0  0  0  0  0  0
    6.4614  -16.1053   21.0307 N   0  0  0  0  0  0  0  0  0  0  0  0
    8.3641  -15.1628   22.0795 C   0  0  0  0  0  0  0  0  0  0  0  0
    8.6184  -13.9816   22.4136 O   0  0  0  0  0  0  0  0  0  0  0  0
    8.7063  -16.1913   22.9859 N   0  0  0  0  0  0  0  0  0  0  0  0
    9.5411  -16.0993   24.1430 C   0  0  1  0  0  0  0  0  0  0  0  0
    8.8088  -16.3285   25.4760 C   0  0  0  0  0  0  0  0  0  0  0  0
    7.6654  -15.4418   25.6520 C   0  0  0  0  0  0  0  0  0  0  0  0
    6.3414  -15.7003   25.4849 C   0  0  0  0  0  0  0  0  0  0  0  0
    5.6103  -14.5901   25.7664 N   0  0  0  0  0  0  0  0  0  0  0  0
    6.4579  -13.6085   26.1174 C   0  0  0  0  0  0  0  0  0  0  0  0
    6.2157  -12.2847   26.4991 C   0  0  0  0  0  0  0  0  0  0  0  0
    7.3037  -11.5292   26.8022 C   0  0  0  0  0  0  0  0  0  0  0  0
    8.5929  -12.0117   26.7467 C   0  0  0  0  0  0  0  0  0  0  0  0
    8.8103  -13.3107   26.3707 C   0  0  0  0  0  0  0  0  0  0  0  0
    7.7329  -14.1022   26.0570 C   0  0  0  0  0  0  0  0  0  0  0  0
   10.7338  -16.9275   24.1506 C   0  0  0  0  0  0  0  0  0  0  0  0
   10.6097  -18.1465   23.7985 O   0  0  0  0  0  0  0  0  0  0  0  0
   15.6193  -17.5686   24.0531 C   0  0  0  0  0  0  0  0  0  0  0  0
   14.4751  -16.6086   24.2093 C   0  0  1  0  0  0  0  0  0  0  0  0
   14.3171  -15.8551   22.9080 C   0  0  0  0  0  0  0  0  0  0  0  0
   13.2141  -17.3526   24.4669 C   0  0  2  0  0  0  0  0  0  0  0  0
   12.0326  -16.5260   24.5099 N   0  0  0  0  0  0  0  0  0  0  0  0
   13.3300  -18.0812   25.7492 C   0  0  0  0  0  0  0  0  0  0  0  0
   13.9269  -19.3236   25.8972 O   0  0  0  0  0  0  0  0  0  0  0  0
   12.8658  -17.5710   26.8032 O   0  0  0  0  0  0  0  0  0  0  0  0
  2  1  1  0
  3  2  2  0
  4  2  1  0
  5  4  1  0
  6  5  1  0
  6  7  1  1
  8  6  1  0
  8  9  2  0
 10  8  1  0
 11 12  1  1
 11 10  1  0
 13 12  1  0
 13 14  2  0
 15 14  1  0
 16 15  1  0
 17 16  2  0
 18 17  1  0
 19 18  2  0
 19 20  1  0
 20 21  2  0
 21 16  1  0
 21 13  1  0
 22 11  1  0
 23 22  2  0
 25 24  1  6
 26 25  1  0
 27 25  1  0
 27 28  1  1
 28 22  1  0
 29 27  1  0
 29 30  1  0
 31 29  2  0
M  END
$$$$
