QWV.pdb
     RDKit          3D

 31 32  0  0  1  0  0  0  0  0999 V2000
   10.1054  -14.4210   15.6597 N   0  0  0  0  0  0  0  0  0  0  0  0
    8.7118  -14.4986   15.4105 C   0  0  0  0  0  0  0  0  0  0  0  0
    8.3362  -14.7890   14.2540 O   0  0  0  0  0  0  0  0  0  0  0  0
    7.7294  -14.2475   16.4750 C   0  0  0  0  0  0  0  0  0  0  0  0
    8.2846  -14.0691   17.8411 C   0  0  0  0  0  0  0  0  0  0  0  0
    8.6359  -15.3212   18.5724 C   0  0  2  0  0  0  0  0  0  0  0  0
    7.5303  -16.2503   18.4216 N   0  0  0  0  0  0  0  0  0  0  0  0
    8.8193  -15.0895   20.0339 C   0  0  0  0  0  0  0  0  0  0  0  0
    9.7831  -14.3965   20.4366 O   0  0  0  0  0  0  0  0  0  0  0  0
    7.9420  -15.6236   21.0043 N   0  0  0  0  0  0  0  0  0  0  0  0
    8.0510  -15.5387   22.4274 C   0  0  1  0  0  0  0  0  0  0  0  0
    6.7042  -15.5429   23.1702 C   0  0  0  0  0  0  0  0  0  0  0  0
    6.8456  -15.2826   24.5974 C   0  0  0  0  0  0  0  0  0  0  0  0
    6.8202  -16.1559   25.6387 C   0  0  0  0  0  0  0  0  0  0  0  0
    7.0026  -15.4910   26.8096 N   0  0  0  0  0  0  0  0  0  0  0  0
    7.1472  -14.1846   26.5310 C   0  0  0  0  0  0  0  0  0  0  0  0
    7.3606  -13.0885   27.3735 C   0  0  0  0  0  0  0  0  0  0  0  0
    7.4703  -11.8730   26.7760 C   0  0  0  0  0  0  0  0  0  0  0  0
    7.3807  -11.6948   25.4128 C   0  0  0  0  0  0  0  0  0  0  0  0
    7.1715  -12.7801   24.6040 C   0  0  0  0  0  0  0  0  0  0  0  0
    7.0555  -14.0235   25.1750 C   0  0  0  0  0  0  0  0  0  0  0  0
    8.9098  -16.5160   23.0722 C   0  0  0  0  0  0  0  0  0  0  0  0
    8.6709  -17.7491   22.8536 O   0  0  0  0  0  0  0  0  0  0  0  0
   13.3158  -17.8617   24.6598 C   0  0  0  0  0  0  0  0  0  0  0  0
   12.3833  -16.7998   24.1518 C   0  0  1  0  0  0  0  0  0  0  0  0
   12.5991  -16.6632   22.6615 C   0  0  0  0  0  0  0  0  0  0  0  0
   10.9716  -17.2076   24.3774 C   0  0  2  0  0  0  0  0  0  0  0  0
    9.9944  -16.2472   23.9257 N   0  0  0  0  0  0  0  0  0  0  0  0
   10.7597  -17.4571   25.8201 C   0  0  0  0  0  0  0  0  0  0  0  0
   11.0901  -18.6352   26.4718 O   0  0  0  0  0  0  0  0  0  0  0  0
   10.2452  -16.5616   26.5412 O   0  0  0  0  0  0  0  0  0  0  0  0
  2  1  1  0
  3  2  2  0
  4  2  1  0
  5  4  1  0
  6  5  1  0
  6  7  1  1
  8  6  1  0
  8  9  2  0
 10  8  1  0
 11 12  1  1
 11 10  1  0
 13 12  1  0
 13 14  2  0
 15 14  1  0
 16 15  1  0
 17 16  2  0
 18 17  1  0
 19 18  2  0
 19 20  1  0
 20 21  2  0
 21 16  1  0
 21 13  1  0
 22 11  1  0
 23 22  2  0
 25 24  1  6
 26 25  1  0
 27 25  1  0
 27 28  1  1
 28 22  1  0
 29 27  1  0
 29 30  1  0
 31 29  2  0
M  END
$$$$
