QWV.pdb
     RDKit          3D

 31 32  0  0  1  0  0  0  0  0999 V2000
   10.3233  -18.2612   16.8637 N   0  0  0  0  0  0  0  0  0  0  0  0
   11.4177  -17.4309   17.2148 C   0  0  0  0  0  0  0  0  0  0  0  0
   12.2819  -17.1965   16.3424 O   0  0  0  0  0  0  0  0  0  0  0  0
   11.5408  -16.8572   18.5627 C   0  0  0  0  0  0  0  0  0  0  0  0
   10.5865  -17.3736   19.5772 C   0  0  0  0  0  0  0  0  0  0  0  0
   11.1804  -17.7886   20.8814 C   0  0  2  0  0  0  0  0  0  0  0  0
   10.6188  -19.0800   21.2358 N   0  0  0  0  0  0  0  0  0  0  0  0
   10.8399  -16.8438   21.9835 C   0  0  0  0  0  0  0  0  0  0  0  0
   11.4224  -15.7361   22.0539 O   0  0  0  0  0  0  0  0  0  0  0  0
    9.8739  -17.1432   22.9704 N   0  0  0  0  0  0  0  0  0  0  0  0
    9.4366  -16.3144   24.0502 C   0  0  1  0  0  0  0  0  0  0  0  0
    7.9139  -16.3026   24.2671 C   0  0  0  0  0  0  0  0  0  0  0  0
    7.3111  -15.0091   23.9706 C   0  0  0  0  0  0  0  0  0  0  0  0
    6.8738  -14.5150   22.7821 C   0  0  0  0  0  0  0  0  0  0  0  0
    6.3672  -13.2660   22.9544 N   0  0  0  0  0  0  0  0  0  0  0  0
    6.4739  -12.9466   24.2551 C   0  0  0  0  0  0  0  0  0  0  0  0
    6.1009  -11.7887   24.9457 C   0  0  0  0  0  0  0  0  0  0  0  0
    6.3419  -11.7724   26.2829 C   0  0  0  0  0  0  0  0  0  0  0  0
    6.9223  -12.8258   26.9549 C   0  0  0  0  0  0  0  0  0  0  0  0
    7.2810  -13.9513   26.2616 C   0  0  0  0  0  0  0  0  0  0  0  0
    7.0520  -14.0011   24.9086 C   0  0  0  0  0  0  0  0  0  0  0  0
   10.0610  -16.5460   25.3405 C   0  0  0  0  0  0  0  0  0  0  0  0
   10.6493  -17.6625   25.5210 O   0  0  0  0  0  0  0  0  0  0  0  0
   11.2386  -15.1623   29.9799 C   0  0  0  0  0  0  0  0  0  0  0  0
   10.4171  -14.8998   28.7504 C   0  0  1  0  0  0  0  0  0  0  0  0
   10.7828  -13.5286   28.2288 C   0  0  0  0  0  0  0  0  0  0  0  0
   10.7418  -15.8957   27.6955 C   0  0  2  0  0  0  0  0  0  0  0  0
   10.0884  -15.6592   26.4313 N   0  0  0  0  0  0  0  0  0  0  0  0
   10.3778  -17.2482   28.1718 C   0  0  0  0  0  0  0  0  0  0  0  0
   11.2670  -18.1495   28.7364 O   0  0  0  0  0  0  0  0  0  0  0  0
    9.1867  -17.6463   28.0748 O   0  0  0  0  0  0  0  0  0  0  0  0
  2  1  1  0
  3  2  2  0
  4  2  1  0
  5  4  1  0
  6  5  1  0
  6  7  1  1
  8  6  1  0
  8  9  2  0
 10  8  1  0
 11 12  1  1
 11 10  1  0
 13 12  1  0
 13 14  2  0
 15 14  1  0
 16 15  1  0
 17 16  2  0
 18 17  1  0
 19 18  2  0
 19 20  1  0
 20 21  2  0
 21 16  1  0
 21 13  1  0
 22 11  1  0
 23 22  2  0
 25 24  1  1
 26 25  1  0
 27 25  1  0
 27 28  1  6
 28 22  1  0
 29 27  1  0
 29 30  1  0
 31 29  2  0
M  END
$$$$
