QWV.pdb
     RDKit          3D

 31 32  0  0  1  0  0  0  0  0999 V2000
    9.0180  -12.6112   18.2487 N   0  0  0  0  0  0  0  0  0  0  0  0
    8.6270  -13.9204   17.8700 C   0  0  0  0  0  0  0  0  0  0  0  0
    8.4440  -14.1516   16.6551 O   0  0  0  0  0  0  0  0  0  0  0  0
    8.4404  -14.9821   18.8697 C   0  0  0  0  0  0  0  0  0  0  0  0
    8.7098  -14.6000   20.2796 C   0  0  0  0  0  0  0  0  0  0  0  0
    9.4448  -15.6061   21.1003 C   0  0  2  0  0  0  0  0  0  0  0  0
    8.7078  -16.8557   21.0382 N   0  0  0  0  0  0  0  0  0  0  0  0
    9.5249  -15.2140   22.5366 C   0  0  0  0  0  0  0  0  0  0  0  0
   10.0852  -14.1392   22.8565 O   0  0  0  0  0  0  0  0  0  0  0  0
    8.9894  -16.0109   23.5733 N   0  0  0  0  0  0  0  0  0  0  0  0
    8.9831  -15.7370   24.9766 C   0  0  1  0  0  0  0  0  0  0  0  0
    7.6753  -16.1146   25.6928 C   0  0  0  0  0  0  0  0  0  0  0  0
    6.5813  -15.2002   25.3903 C   0  0  0  0  0  0  0  0  0  0  0  0
    5.3593  -15.4659   24.8575 C   0  0  0  0  0  0  0  0  0  0  0  0
    4.6370  -14.3197   24.7528 N   0  0  0  0  0  0  0  0  0  0  0  0
    5.3882  -13.3075   25.2177 C   0  0  0  0  0  0  0  0  0  0  0  0
    5.1118  -11.9409   25.3306 C   0  0  0  0  0  0  0  0  0  0  0  0
    6.0943  -11.1617   25.8542 C   0  0  0  0  0  0  0  0  0  0  0  0
    7.3118  -11.6606   26.2627 C   0  0  0  0  0  0  0  0  0  0  0  0
    7.5642  -13.0015   26.1443 C   0  0  0  0  0  0  0  0  0  0  0  0
    6.5931  -13.8179   25.6188 C   0  0  0  0  0  0  0  0  0  0  0  0
   10.0811  -16.2879   25.7506 C   0  0  0  0  0  0  0  0  0  0  0  0
   10.9038  -17.0534   25.1484 O   0  0  0  0  0  0  0  0  0  0  0  0
   11.8116  -14.5058   29.0210 C   0  0  0  0  0  0  0  0  0  0  0  0
   11.6659  -15.9910   29.1889 C   0  0  1  0  0  0  0  0  0  0  0  0
   10.4544  -16.2459   30.0569 C   0  0  0  0  0  0  0  0  0  0  0  0
   11.4311  -16.6348   27.8695 C   0  0  2  0  0  0  0  0  0  0  0  0
   10.3412  -16.0663   27.1146 N   0  0  0  0  0  0  0  0  0  0  0  0
   11.1681  -18.0768   28.0695 C   0  0  0  0  0  0  0  0  0  0  0  0
   12.1098  -18.9950   28.5077 O   0  0  0  0  0  0  0  0  0  0  0  0
   10.0213  -18.5422   27.8357 O   0  0  0  0  0  0  0  0  0  0  0  0
  2  1  1  0
  3  2  2  0
  4  2  1  0
  5  4  1  0
  6  5  1  0
  6  7  1  1
  8  6  1  0
  8  9  2  0
 10  8  1  0
 11 12  1  1
 11 10  1  0
 13 12  1  0
 13 14  2  0
 15 14  1  0
 16 15  1  0
 17 16  2  0
 18 17  1  0
 19 18  2  0
 19 20  1  0
 20 21  2  0
 21 16  1  0
 21 13  1  0
 22 11  1  0
 23 22  2  0
 25 24  1  6
 26 25  1  0
 27 25  1  0
 27 28  1  1
 28 22  1  0
 29 27  1  0
 29 30  1  0
 31 29  2  0
M  END
$$$$
