QWV.pdb
     RDKit          3D

 31 32  0  0  1  0  0  0  0  0999 V2000
    6.8764  -21.9657   19.4485 N   0  0  0  0  0  0  0  0  0  0  0  0
    7.8744  -20.9624   19.3618 C   0  0  0  0  0  0  0  0  0  0  0  0
    9.0425  -21.3163   19.0909 O   0  0  0  0  0  0  0  0  0  0  0  0
    7.5545  -19.5444   19.5816 C   0  0  0  0  0  0  0  0  0  0  0  0
    7.2454  -19.1588   20.9824 C   0  0  0  0  0  0  0  0  0  0  0  0
    6.9367  -17.7170   21.2103 C   0  0  2  0  0  0  0  0  0  0  0  0
    6.8531  -17.0689   19.9136 N   0  0  0  0  0  0  0  0  0  0  0  0
    8.0096  -17.0242   21.9798 C   0  0  0  0  0  0  0  0  0  0  0  0
    8.8597  -16.3309   21.3732 O   0  0  0  0  0  0  0  0  0  0  0  0
    8.1155  -17.1136   23.3860 N   0  0  0  0  0  0  0  0  0  0  0  0
    9.1364  -16.5688   24.2255 C   0  0  1  0  0  0  0  0  0  0  0  0
    8.6871  -16.2789   25.6677 C   0  0  0  0  0  0  0  0  0  0  0  0
    7.5850  -15.3274   25.7354 C   0  0  0  0  0  0  0  0  0  0  0  0
    6.2475  -15.5506   25.6403 C   0  0  0  0  0  0  0  0  0  0  0  0
    5.5691  -14.3803   25.7691 N   0  0  0  0  0  0  0  0  0  0  0  0
    6.4645  -13.3949   25.9486 C   0  0  0  0  0  0  0  0  0  0  0  0
    6.2858  -12.0198   26.1328 C   0  0  0  0  0  0  0  0  0  0  0  0
    7.4111  -11.2751   26.2933 C   0  0  0  0  0  0  0  0  0  0  0  0
    8.6782  -11.8157   26.2804 C   0  0  0  0  0  0  0  0  0  0  0  0
    8.8333  -13.1644   26.0987 C   0  0  0  0  0  0  0  0  0  0  0  0
    7.7169  -13.9466   25.9330 C   0  0  0  0  0  0  0  0  0  0  0  0
   10.3832  -17.3098   24.2959 C   0  0  0  0  0  0  0  0  0  0  0  0
   10.3125  -18.5732   24.4508 O   0  0  0  0  0  0  0  0  0  0  0  0
   15.2635  -17.6933   23.5032 C   0  0  0  0  0  0  0  0  0  0  0  0
   14.0750  -16.7843   23.6304 C   0  0  1  0  0  0  0  0  0  0  0  0
   13.7295  -16.2719   22.2505 C   0  0  0  0  0  0  0  0  0  0  0  0
   12.9045  -17.5412   24.1472 C   0  0  2  0  0  0  0  0  0  0  0  0
   11.6820  -16.7779   24.2107 N   0  0  0  0  0  0  0  0  0  0  0  0
   13.2134  -18.0551   25.4996 C   0  0  0  0  0  0  0  0  0  0  0  0
   13.8470  -19.2609   25.7575 O   0  0  0  0  0  0  0  0  0  0  0  0
   12.8943  -17.3797   26.5138 O   0  0  0  0  0  0  0  0  0  0  0  0
  2  1  1  0
  3  2  2  0
  4  2  1  0
  5  4  1  0
  6  5  1  0
  6  7  1  6
  8  6  1  0
  8  9  2  0
 10  8  1  0
 11 12  1  1
 11 10  1  0
 13 12  1  0
 13 14  2  0
 15 14  1  0
 16 15  1  0
 17 16  2  0
 18 17  1  0
 19 18  2  0
 19 20  1  0
 20 21  2  0
 21 16  1  0
 21 13  1  0
 22 11  1  0
 23 22  2  0
 25 24  1  6
 26 25  1  0
 27 25  1  0
 27 28  1  1
 28 22  1  0
 29 27  1  0
 29 30  1  0
 31 29  2  0
M  END
$$$$
