QWV.pdb
     RDKit          3D

 31 32  0  0  1  0  0  0  0  0999 V2000
    8.0498  -13.0017   17.0819 N   0  0  0  0  0  0  0  0  0  0  0  0
    8.7534  -14.1622   16.6715 C   0  0  0  0  0  0  0  0  0  0  0  0
    8.7688  -14.4406   15.4528 O   0  0  0  0  0  0  0  0  0  0  0  0
    9.4482  -15.0190   17.6433 C   0  0  0  0  0  0  0  0  0  0  0  0
    9.3128  -14.6246   19.0690 C   0  0  0  0  0  0  0  0  0  0  0  0
   10.0040  -15.5019   20.0582 C   0  0  2  0  0  0  0  0  0  0  0  0
    9.4847  -16.8486   19.8986 N   0  0  0  0  0  0  0  0  0  0  0  0
    9.7327  -15.0901   21.4653 C   0  0  0  0  0  0  0  0  0  0  0  0
   10.1569  -13.9866   21.8820 O   0  0  0  0  0  0  0  0  0  0  0  0
    9.0069  -15.8994   22.3679 N   0  0  0  0  0  0  0  0  0  0  0  0
    8.6395  -15.5982   23.7164 C   0  0  1  0  0  0  0  0  0  0  0  0
    7.3421  -16.2757   24.1891 C   0  0  0  0  0  0  0  0  0  0  0  0
    6.5755  -15.4468   25.1109 C   0  0  0  0  0  0  0  0  0  0  0  0
    5.4715  -15.7626   25.8384 C   0  0  0  0  0  0  0  0  0  0  0  0
    5.0807  -14.6936   26.5807 N   0  0  0  0  0  0  0  0  0  0  0  0
    5.9304  -13.6817   26.3373 C   0  0  0  0  0  0  0  0  0  0  0  0
    5.9700  -12.3791   26.8456 C   0  0  0  0  0  0  0  0  0  0  0  0
    6.9746  -11.5808   26.3982 C   0  0  0  0  0  0  0  0  0  0  0  0
    7.9219  -12.0020   25.4909 C   0  0  0  0  0  0  0  0  0  0  0  0
    7.8667  -13.2810   25.0043 C   0  0  0  0  0  0  0  0  0  0  0  0
    6.8640  -14.1146   25.4350 C   0  0  0  0  0  0  0  0  0  0  0  0
    9.6505  -15.8312   24.7322 C   0  0  0  0  0  0  0  0  0  0  0  0
   10.6123  -16.6156   24.4406 O   0  0  0  0  0  0  0  0  0  0  0  0
   11.4012  -15.3638   29.3747 C   0  0  0  0  0  0  0  0  0  0  0  0
   10.3719  -14.9432   28.3654 C   0  0  1  0  0  0  0  0  0  0  0  0
   10.5287  -13.4579   28.1300 C   0  0  0  0  0  0  0  0  0  0  0  0
   10.6060  -15.6415   27.0740 C   0  0  2  0  0  0  0  0  0  0  0  0
    9.6858  -15.2775   26.0243 N   0  0  0  0  0  0  0  0  0  0  0  0
   10.5274  -17.1033   27.2878 C   0  0  0  0  0  0  0  0  0  0  0  0
   11.6220  -17.9282   27.4959 O   0  0  0  0  0  0  0  0  0  0  0  0
    9.4057  -17.6764   27.2872 O   0  0  0  0  0  0  0  0  0  0  0  0
  2  1  1  0
  3  2  2  0
  4  2  1  0
  5  4  1  0
  6  5  1  0
  6  7  1  1
  8  6  1  0
  8  9  2  0
 10  8  1  0
 11 12  1  1
 11 10  1  0
 13 12  1  0
 13 14  2  0
 15 14  1  0
 16 15  1  0
 17 16  2  0
 18 17  1  0
 19 18  2  0
 19 20  1  0
 20 21  2  0
 21 16  1  0
 21 13  1  0
 22 11  1  0
 23 22  2  0
 25 24  1  1
 26 25  1  0
 27 25  1  0
 27 28  1  6
 28 22  1  0
 29 27  1  0
 29 30  1  0
 31 29  2  0
M  END
$$$$
