QWV.pdb
     RDKit          3D

 31 32  0  0  1  0  0  0  0  0999 V2000
   14.1790  -20.1815   22.0647 N   0  0  0  0  0  0  0  0  0  0  0  0
   14.5874  -18.8971   21.6248 C   0  0  0  0  0  0  0  0  0  0  0  0
   15.7980  -18.6000   21.7199 O   0  0  0  0  0  0  0  0  0  0  0  0
   13.6228  -17.9360   21.0706 C   0  0  0  0  0  0  0  0  0  0  0  0
   12.2093  -18.3902   21.0228 C   0  0  0  0  0  0  0  0  0  0  0  0
   11.2246  -17.4063   20.4856 C   0  0  2  0  0  0  0  0  0  0  0  0
   11.9083  -16.5817   19.5053 N   0  0  0  0  0  0  0  0  0  0  0  0
   10.7047  -16.4925   21.5429 C   0  0  0  0  0  0  0  0  0  0  0  0
   11.2906  -15.4077   21.7690 O   0  0  0  0  0  0  0  0  0  0  0  0
    9.5619  -16.7968   22.3161 N   0  0  0  0  0  0  0  0  0  0  0  0
    9.0063  -16.0417   23.3956 C   0  0  1  0  0  0  0  0  0  0  0  0
    7.4770  -16.1449   23.5236 C   0  0  0  0  0  0  0  0  0  0  0  0
    6.9458  -15.3378   24.6149 C   0  0  0  0  0  0  0  0  0  0  0  0
    6.2422  -15.7274   25.7108 C   0  0  0  0  0  0  0  0  0  0  0  0
    5.9506  -14.6496   26.4852 N   0  0  0  0  0  0  0  0  0  0  0  0
    6.4646  -13.5580   25.8941 C   0  0  0  0  0  0  0  0  0  0  0  0
    6.4447  -12.2139   26.2813 C   0  0  0  0  0  0  0  0  0  0  0  0
    7.0682  -11.3328   25.4558 C   0  0  0  0  0  0  0  0  0  0  0  0
    7.6973  -11.7110   24.2900 C   0  0  0  0  0  0  0  0  0  0  0  0
    7.7062  -13.0317   23.9273 C   0  0  0  0  0  0  0  0  0  0  0  0
    7.0849  -13.9491   24.7386 C   0  0  0  0  0  0  0  0  0  0  0  0
    9.5727  -16.2771   24.7117 C   0  0  0  0  0  0  0  0  0  0  0  0
    9.9319  -17.4666   24.9970 O   0  0  0  0  0  0  0  0  0  0  0  0
   10.5947  -14.8667   29.3665 C   0  0  0  0  0  0  0  0  0  0  0  0
    9.8871  -14.5886   28.0714 C   0  0  1  0  0  0  0  0  0  0  0  0
   10.3142  -13.2201   27.5908 C   0  0  0  0  0  0  0  0  0  0  0  0
   10.2901  -15.5843   27.0437 C   0  0  2  0  0  0  0  0  0  0  0  0
    9.7719  -15.3211   25.7234 N   0  0  0  0  0  0  0  0  0  0  0  0
    9.8467  -16.9306   27.4675 C   0  0  0  0  0  0  0  0  0  0  0  0
   10.6224  -17.8230   28.1911 O   0  0  0  0  0  0  0  0  0  0  0  0
    8.6905  -17.3315   27.1691 O   0  0  0  0  0  0  0  0  0  0  0  0
  2  1  1  0
  3  2  2  0
  4  2  1  0
  5  4  1  0
  6  5  1  0
  6  7  1  6
  8  6  1  0
  8  9  2  0
 10  8  1  0
 11 12  1  1
 11 10  1  0
 13 12  1  0
 13 14  2  0
 15 14  1  0
 16 15  1  0
 17 16  2  0
 18 17  1  0
 19 18  2  0
 19 20  1  0
 20 21  2  0
 21 16  1  0
 21 13  1  0
 22 11  1  0
 23 22  2  0
 25 24  1  1
 26 25  1  0
 27 25  1  0
 27 28  1  6
 28 22  1  0
 29 27  1  0
 29 30  1  0
 31 29  2  0
M  END
$$$$
