QWV.pdb
     RDKit          3D

 31 32  0  0  1  0  0  0  0  0999 V2000
    9.1500  -17.2656   16.1759 N   0  0  0  0  0  0  0  0  0  0  0  0
    8.2641  -17.9053   17.0793 C   0  0  0  0  0  0  0  0  0  0  0  0
    8.1164  -19.1429   16.9815 O   0  0  0  0  0  0  0  0  0  0  0  0
    7.5365  -17.1441   18.1052 C   0  0  0  0  0  0  0  0  0  0  0  0
    8.2388  -16.9680   19.4021 C   0  0  0  0  0  0  0  0  0  0  0  0
    7.4459  -16.3304   20.4934 C   0  0  2  0  0  0  0  0  0  0  0  0
    6.8011  -15.1507   19.9447 N   0  0  0  0  0  0  0  0  0  0  0  0
    8.3046  -15.8761   21.6245 C   0  0  0  0  0  0  0  0  0  0  0  0
    8.9925  -14.8352   21.5027 O   0  0  0  0  0  0  0  0  0  0  0  0
    8.3812  -16.5758   22.8497 N   0  0  0  0  0  0  0  0  0  0  0  0
    9.2184  -16.2897   23.9728 C   0  0  1  0  0  0  0  0  0  0  0  0
    8.5070  -16.3712   25.3340 C   0  0  0  0  0  0  0  0  0  0  0  0
    7.4080  -15.4214   25.4547 C   0  0  0  0  0  0  0  0  0  0  0  0
    6.0700  -15.6335   25.3417 C   0  0  0  0  0  0  0  0  0  0  0  0
    5.3952  -14.4706   25.5379 N   0  0  0  0  0  0  0  0  0  0  0  0
    6.2934  -13.5009   25.7792 C   0  0  0  0  0  0  0  0  0  0  0  0
    6.1187  -12.1387   26.0448 C   0  0  0  0  0  0  0  0  0  0  0  0
    7.2460  -11.4092   26.2536 C   0  0  0  0  0  0  0  0  0  0  0  0
    8.5113  -11.9527   26.2129 C   0  0  0  0  0  0  0  0  0  0  0  0
    8.6624  -13.2886   25.9513 C   0  0  0  0  0  0  0  0  0  0  0  0
    7.5439  -14.0554   25.7351 C   0  0  0  0  0  0  0  0  0  0  0  0
   10.4496  -17.0525   24.0758 C   0  0  0  0  0  0  0  0  0  0  0  0
   10.3662  -18.3227   24.0047 O   0  0  0  0  0  0  0  0  0  0  0  0
   15.3966  -17.4364   24.4158 C   0  0  0  0  0  0  0  0  0  0  0  0
   14.2069  -16.5245   24.3256 C   0  0  1  0  0  0  0  0  0  0  0  0
   14.2399  -15.8465   22.9745 C   0  0  0  0  0  0  0  0  0  0  0  0
   12.9496  -17.3128   24.4149 C   0  0  2  0  0  0  0  0  0  0  0  0
   11.7457  -16.5355   24.2484 N   0  0  0  0  0  0  0  0  0  0  0  0
   12.8945  -17.9977   25.7250 C   0  0  0  0  0  0  0  0  0  0  0  0
   12.4700  -17.4065   26.9049 O   0  0  0  0  0  0  0  0  0  0  0  0
   13.2502  -19.2026   25.8167 O   0  0  0  0  0  0  0  0  0  0  0  0
  2  1  1  0
  3  2  2  0
  4  2  1  0
  5  4  1  0
  6  5  1  0
  6  7  1  6
  8  6  1  0
  8  9  2  0
 10  8  1  0
 11 12  1  1
 11 10  1  0
 13 12  1  0
 13 14  2  0
 15 14  1  0
 16 15  1  0
 17 16  2  0
 18 17  1  0
 19 18  2  0
 19 20  1  0
 20 21  2  0
 21 16  1  0
 21 13  1  0
 22 11  1  0
 23 22  2  0
 25 24  1  6
 26 25  1  0
 27 25  1  0
 27 28  1  1
 28 22  1  0
 29 27  1  0
 29 30  1  0
 31 29  2  0
M  END
$$$$
