WVS.pdb
     RDKit          3D

 28 29  0  0  1  0  0  0  0  0999 V2000
    6.3238  -16.8270   24.9639 N   0  0  0  0  0  0  0  0  0  0  0  0
    7.0017  -15.7130   24.3485 C   0  0  1  0  0  0  0  0  0  0  0  0
    8.2668  -15.3920   25.0519 C   0  0  0  0  0  0  0  0  0  0  0  0
    8.0741  -14.6889   26.3420 C   0  0  0  0  0  0  0  0  0  0  0  0
    8.3756  -15.1477   27.6115 C   0  0  0  0  0  0  0  0  0  0  0  0
    8.0291  -14.2460   28.5357 N   0  0  0  0  0  0  0  0  0  0  0  0
    7.5031  -13.2016   27.8619 C   0  0  0  0  0  0  0  0  0  0  0  0
    6.9889  -11.9867   28.3182 C   0  0  0  0  0  0  0  0  0  0  0  0
    6.5013  -11.0349   27.4512 C   0  0  0  0  0  0  0  0  0  0  0  0
    6.5285  -11.3031   26.0957 C   0  0  0  0  0  0  0  0  0  0  0  0
    7.0256  -12.4847   25.6115 C   0  0  0  0  0  0  0  0  0  0  0  0
    7.5075  -13.4226   26.5045 C   0  0  0  0  0  0  0  0  0  0  0  0
    7.0985  -15.8817   22.8876 C   0  0  0  0  0  0  0  0  0  0  0  0
    6.9541  -17.0439   22.4282 O   0  0  0  0  0  0  0  0  0  0  0  0
    7.3554  -13.8990   18.3377 C   0  0  0  0  0  0  0  0  0  0  0  0
    7.2531  -13.8213   19.8288 C   0  0  2  0  0  0  0  0  0  0  0  0
    8.0885  -12.6976   20.4122 C   0  0  0  0  0  0  0  0  0  0  0  0
    7.5399  -15.1110   20.5454 C   0  0  2  0  0  0  0  0  0  0  0  0
    7.3364  -14.8540   21.9558 N   0  0  0  0  0  0  0  0  0  0  0  0
    8.8176  -15.7190   20.2552 C   0  0  0  0  0  0  0  0  0  0  0  0
    9.8069  -15.2149   20.9067 O   0  0  0  0  0  0  0  0  0  0  0  0
    9.4907  -19.3876   18.8523 O   0  0  0  0  0  0  0  0  0  0  0  0
   10.5909  -18.7383   19.4043 C   0  0  0  0  0  0  0  0  0  0  0  0
   10.4945  -17.2360   19.2422 C   0  0  2  0  0  0  0  0  0  0  0  0
    9.1370  -16.7634   19.3824 N   0  0  0  0  0  0  0  0  0  0  0  0
   11.0387  -16.9016   17.9207 C   0  0  0  0  0  0  0  0  0  0  0  0
   12.3051  -17.1835   17.4835 O   0  0  0  0  0  0  0  0  0  0  0  0
   10.2677  -16.2974   17.1092 O   0  0  0  0  0  0  0  0  0  0  0  0
  2 13  1  0
  2  1  1  1
  3  4  1  0
  3  2  1  0
  4  5  2  0
  4 12  1  0
  5  6  1  0
  6  7  1  0
  7  8  2  0
  8  9  1  0
 10  9  2  0
 11 10  1  0
 12 11  2  0
 12  7  1  0
 13 14  2  0
 16 18  1  0
 16 15  1  6
 17 16  1  0
 19 13  1  0
 18 19  1  1
 20 18  1  0
 20 21  2  0
 22 23  1  0
 24 23  1  6
 24 25  1  0
 24 26  1  0
 25 20  1  0
 26 27  1  0
 28 26  2  0
M  END
$$$$
