WVS.pdb
     RDKit          3D

 28 29  0  0  1  0  0  0  0  0999 V2000
    6.2752  -17.3559   24.0647 N   0  0  0  0  0  0  0  0  0  0  0  0
    6.9826  -16.1545   23.6966 C   0  0  1  0  0  0  0  0  0  0  0  0
    7.9853  -15.7794   24.7226 C   0  0  0  0  0  0  0  0  0  0  0  0
    7.4089  -15.0896   25.9006 C   0  0  0  0  0  0  0  0  0  0  0  0
    6.6804  -15.6453   26.9367 C   0  0  0  0  0  0  0  0  0  0  0  0
    6.2968  -14.7033   27.8043 N   0  0  0  0  0  0  0  0  0  0  0  0
    6.7791  -13.5362   27.3283 C   0  0  0  0  0  0  0  0  0  0  0  0
    6.6875  -12.2375   27.8319 C   0  0  0  0  0  0  0  0  0  0  0  0
    7.2682  -11.1681   27.1882 C   0  0  0  0  0  0  0  0  0  0  0  0
    7.9574  -11.4018   26.0133 C   0  0  0  0  0  0  0  0  0  0  0  0
    8.0678  -12.6630   25.4891 C   0  0  0  0  0  0  0  0  0  0  0  0
    7.4741  -13.7178   26.1556 C   0  0  0  0  0  0  0  0  0  0  0  0
    7.4718  -16.2214   22.3080 C   0  0  0  0  0  0  0  0  0  0  0  0
    7.7194  -17.3608   21.8357 O   0  0  0  0  0  0  0  0  0  0  0  0
    8.9673  -12.8770   19.8552 C   0  0  0  0  0  0  0  0  0  0  0  0
    7.9896  -13.9297   19.4361 C   0  0  2  0  0  0  0  0  0  0  0  0
    6.5491  -13.4731   19.5693 C   0  0  0  0  0  0  0  0  0  0  0  0
    8.1782  -15.2629   20.1042 C   0  0  2  0  0  0  0  0  0  0  0  0
    7.6850  -15.1199   21.4581 N   0  0  0  0  0  0  0  0  0  0  0  0
    9.5116  -15.8142   20.0384 C   0  0  0  0  0  0  0  0  0  0  0  0
   10.3231  -15.3511   20.9239 O   0  0  0  0  0  0  0  0  0  0  0  0
   10.8988  -19.1071   20.5174 O   0  0  0  0  0  0  0  0  0  0  0  0
   11.6108  -18.6392   19.4170 C   0  0  0  0  0  0  0  0  0  0  0  0
   11.4388  -17.1464   19.2317 C   0  0  2  0  0  0  0  0  0  0  0  0
   10.0469  -16.7669   19.1663 N   0  0  0  0  0  0  0  0  0  0  0  0
   12.1488  -16.7724   18.0027 C   0  0  0  0  0  0  0  0  0  0  0  0
   13.4815  -16.9692   17.7585 O   0  0  0  0  0  0  0  0  0  0  0  0
   11.4682  -16.2169   17.0829 O   0  0  0  0  0  0  0  0  0  0  0  0
  2 13  1  0
  2  1  1  1
  3  4  1  0
  3  2  1  0
  4  5  2  0
  4 12  1  0
  5  6  1  0
  6  7  1  0
  7  8  2  0
  8  9  1  0
 10  9  2  0
 11 10  1  0
 12 11  2  0
 12  7  1  0
 13 14  2  0
 16 18  1  0
 16 15  1  1
 17 16  1  0
 19 13  1  0
 18 19  1  1
 20 18  1  0
 20 21  2  0
 22 23  1  0
 24 23  1  6
 24 25  1  0
 24 26  1  0
 25 20  1  0
 26 27  1  0
 28 26  2  0
M  END
$$$$
