WVS.pdb
     RDKit          3D

 28 29  0  0  1  0  0  0  0  0999 V2000
    6.0797  -17.5793   24.0966 N   0  0  0  0  0  0  0  0  0  0  0  0
    6.7476  -16.3214   23.8711 C   0  0  1  0  0  0  0  0  0  0  0  0
    7.5937  -15.9413   25.0280 C   0  0  0  0  0  0  0  0  0  0  0  0
    6.9320  -15.0147   25.9763 C   0  0  0  0  0  0  0  0  0  0  0  0
    5.8934  -15.2908   26.8469 C   0  0  0  0  0  0  0  0  0  0  0  0
    5.5366  -14.1933   27.5218 N   0  0  0  0  0  0  0  0  0  0  0  0
    6.3472  -13.2057   27.0869 C   0  0  0  0  0  0  0  0  0  0  0  0
    6.4239  -11.8605   27.4520 C   0  0  0  0  0  0  0  0  0  0  0  0
    7.3443  -11.0074   26.8859 C   0  0  0  0  0  0  0  0  0  0  0  0
    8.2091  -11.5104   25.9324 C   0  0  0  0  0  0  0  0  0  0  0  0
    8.1627  -12.8251   25.5490 C   0  0  0  0  0  0  0  0  0  0  0  0
    7.2281  -13.6587   26.1329 C   0  0  0  0  0  0  0  0  0  0  0  0
    7.4032  -16.2885   22.5516 C   0  0  0  0  0  0  0  0  0  0  0  0
    7.6902  -17.3919   22.0200 O   0  0  0  0  0  0  0  0  0  0  0  0
    6.8793  -13.2450   19.9074 C   0  0  0  0  0  0  0  0  0  0  0  0
    8.2710  -13.7939   19.9488 C   0  0  2  0  0  0  0  0  0  0  0  0
    8.9602  -13.7366   18.5987 C   0  0  0  0  0  0  0  0  0  0  0  0
    8.3840  -15.1737   20.5342 C   0  0  2  0  0  0  0  0  0  0  0  0
    7.7359  -15.1278   21.8282 N   0  0  0  0  0  0  0  0  0  0  0  0
    9.7175  -15.7266   20.5836 C   0  0  0  0  0  0  0  0  0  0  0  0
   10.4929  -15.1691   21.4469 O   0  0  0  0  0  0  0  0  0  0  0  0
   11.1377  -19.1545   21.2235 O   0  0  0  0  0  0  0  0  0  0  0  0
   11.8382  -18.6428   20.1353 C   0  0  0  0  0  0  0  0  0  0  0  0
   11.6695  -17.1429   20.0152 C   0  0  2  0  0  0  0  0  0  0  0  0
   10.2859  -16.7669   19.8425 N   0  0  0  0  0  0  0  0  0  0  0  0
   12.4855  -16.6994   18.8786 C   0  0  0  0  0  0  0  0  0  0  0  0
   13.8457  -16.8172   18.7774 O   0  0  0  0  0  0  0  0  0  0  0  0
   11.8775  -16.1584   17.9011 O   0  0  0  0  0  0  0  0  0  0  0  0
  2 13  1  0
  2  1  1  1
  3  4  1  0
  3  2  1  0
  4  5  2  0
  4 12  1  0
  5  6  1  0
  6  7  1  0
  7  8  2  0
  8  9  1  0
 10  9  2  0
 11 10  1  0
 12 11  2  0
 12  7  1  0
 13 14  2  0
 16 18  1  0
 16 15  1  6
 17 16  1  0
 19 13  1  0
 18 19  1  1
 20 18  1  0
 20 21  2  0
 22 23  1  0
 24 23  1  6
 24 25  1  0
 24 26  1  0
 25 20  1  0
 26 27  1  0
 28 26  2  0
M  END
$$$$
