WVS.pdb
     RDKit          3D

 28 29  0  0  1  0  0  0  0  0999 V2000
    6.8025  -17.2858   24.9256 N   0  0  0  0  0  0  0  0  0  0  0  0
    7.2505  -16.0221   24.3950 C   0  0  1  0  0  0  0  0  0  0  0  0
    8.3360  -15.4409   25.2211 C   0  0  0  0  0  0  0  0  0  0  0  0
    7.8567  -14.7479   26.4401 C   0  0  0  0  0  0  0  0  0  0  0  0
    7.6773  -15.2807   27.7037 C   0  0  0  0  0  0  0  0  0  0  0  0
    7.1967  -14.3578   28.5430 N   0  0  0  0  0  0  0  0  0  0  0  0
    7.0658  -13.2256   27.8203 C   0  0  0  0  0  0  0  0  0  0  0  0
    6.6191  -11.9549   28.1873 C   0  0  0  0  0  0  0  0  0  0  0  0
    6.5709  -10.9155   27.2858 C   0  0  0  0  0  0  0  0  0  0  0  0
    6.9789  -11.1511   25.9866 C   0  0  0  0  0  0  0  0  0  0  0  0
    7.4230  -12.3854   25.5903 C   0  0  0  0  0  0  0  0  0  0  0  0
    7.4599  -13.4108   26.5157 C   0  0  0  0  0  0  0  0  0  0  0  0
    7.5147  -16.1088   22.9477 C   0  0  0  0  0  0  0  0  0  0  0  0
    7.8091  -17.2387   22.4796 O   0  0  0  0  0  0  0  0  0  0  0  0
    7.6333  -13.9475   18.4700 C   0  0  0  0  0  0  0  0  0  0  0  0
    7.4691  -13.9097   19.9571 C   0  0  2  0  0  0  0  0  0  0  0  0
    8.0987  -12.6789   20.5815 C   0  0  0  0  0  0  0  0  0  0  0  0
    7.9288  -15.1500   20.6709 C   0  0  2  0  0  0  0  0  0  0  0  0
    7.4640  -15.0363   22.0375 N   0  0  0  0  0  0  0  0  0  0  0  0
    9.3393  -15.4448   20.5709 C   0  0  0  0  0  0  0  0  0  0  0  0
   10.0551  -14.9478   21.5185 O   0  0  0  0  0  0  0  0  0  0  0  0
   11.9297  -18.8251   21.3303 O   0  0  0  0  0  0  0  0  0  0  0  0
   10.8317  -18.0329   21.0086 C   0  0  0  0  0  0  0  0  0  0  0  0
   11.1783  -16.9912   19.9660 C   0  0  2  0  0  0  0  0  0  0  0  0
   10.0361  -16.1826   19.6094 N   0  0  0  0  0  0  0  0  0  0  0  0
   11.7114  -17.7010   18.7971 C   0  0  0  0  0  0  0  0  0  0  0  0
   13.0373  -17.8614   18.4959 O   0  0  0  0  0  0  0  0  0  0  0  0
   10.8695  -18.2129   17.9926 O   0  0  0  0  0  0  0  0  0  0  0  0
  2 13  1  0
  2  1  1  1
  3  4  1  0
  3  2  1  0
  4  5  2  0
  4 12  1  0
  5  6  1  0
  6  7  1  0
  7  8  2  0
  8  9  1  0
 10  9  2  0
 11 10  1  0
 12 11  2  0
 12  7  1  0
 13 14  2  0
 16 18  1  0
 16 15  1  6
 17 16  1  0
 19 13  1  0
 18 19  1  1
 20 18  1  0
 20 21  2  0
 22 23  1  0
 24 23  1  1
 24 25  1  0
 24 26  1  0
 25 20  1  0
 26 27  1  0
 28 26  2  0
M  END
$$$$
