WVS.pdb
     RDKit          3D

 28 29  0  0  1  0  0  0  0  0999 V2000
    5.8688  -18.1376   24.5560 N   0  0  0  0  0  0  0  0  0  0  0  0
    6.5078  -16.8636   24.3373 C   0  0  1  0  0  0  0  0  0  0  0  0
    7.2271  -16.4023   25.5491 C   0  0  0  0  0  0  0  0  0  0  0  0
    6.6292  -15.2030   26.1815 C   0  0  0  0  0  0  0  0  0  0  0  0
    5.3593  -15.0679   26.7124 C   0  0  0  0  0  0  0  0  0  0  0  0
    5.1651  -13.8252   27.1655 N   0  0  0  0  0  0  0  0  0  0  0  0
    6.3125  -13.1557   26.9274 C   0  0  0  0  0  0  0  0  0  0  0  0
    6.6719  -11.8347   27.2002 C   0  0  0  0  0  0  0  0  0  0  0  0
    7.9170  -11.3419   26.8808 C   0  0  0  0  0  0  0  0  0  0  0  0
    8.8250  -12.1892   26.2746 C   0  0  0  0  0  0  0  0  0  0  0  0
    8.5073  -13.4917   25.9915 C   0  0  0  0  0  0  0  0  0  0  0  0
    7.2499  -13.9596   26.3221 C   0  0  0  0  0  0  0  0  0  0  0  0
    7.2824  -16.8576   23.0835 C   0  0  0  0  0  0  0  0  0  0  0  0
    7.7283  -17.9600   22.6732 O   0  0  0  0  0  0  0  0  0  0  0  0
    8.6072  -13.3047   20.8942 C   0  0  0  0  0  0  0  0  0  0  0  0
    7.9874  -14.5305   20.2999 C   0  0  2  0  0  0  0  0  0  0  0  0
    6.4939  -14.3806   20.0810 C   0  0  0  0  0  0  0  0  0  0  0  0
    8.2807  -15.8045   21.0417 C   0  0  2  0  0  0  0  0  0  0  0  0
    7.5668  -15.7242   22.2989 N   0  0  0  0  0  0  0  0  0  0  0  0
    9.6790  -16.1305   21.1998 C   0  0  0  0  0  0  0  0  0  0  0  0
   10.2473  -15.5624   22.2055 O   0  0  0  0  0  0  0  0  0  0  0  0
   11.4443  -19.4539   21.4662 O   0  0  0  0  0  0  0  0  0  0  0  0
   12.2625  -18.6493   20.6788 C   0  0  0  0  0  0  0  0  0  0  0  0
   11.8811  -17.1879   20.7851 C   0  0  2  0  0  0  0  0  0  0  0  0
   10.4988  -16.9632   20.4323 N   0  0  0  0  0  0  0  0  0  0  0  0
   12.7823  -16.4343   19.9052 C   0  0  0  0  0  0  0  0  0  0  0  0
   14.1440  -16.3638   20.0275 O   0  0  0  0  0  0  0  0  0  0  0  0
   12.2538  -15.7901   18.9442 O   0  0  0  0  0  0  0  0  0  0  0  0
  2 13  1  0
  2  1  1  1
  3  4  1  0
  3  2  1  0
  4  5  2  0
  4 12  1  0
  5  6  1  0
  6  7  1  0
  7  8  2  0
  8  9  1  0
 10  9  2  0
 11 10  1  0
 12 11  2  0
 12  7  1  0
 13 14  2  0
 16 18  1  0
 16 15  1  1
 17 16  1  0
 19 13  1  0
 18 19  1  1
 20 18  1  0
 20 21  2  0
 22 23  1  0
 24 23  1  6
 24 25  1  0
 24 26  1  0
 25 20  1  0
 26 27  1  0
 28 26  2  0
M  END
$$$$
