WVS.pdb
     RDKit          3D

 28 29  0  0  1  0  0  0  0  0999 V2000
    6.2459  -17.5802   24.5536 N   0  0  0  0  0  0  0  0  0  0  0  0
    6.9019  -16.3263   24.2766 C   0  0  1  0  0  0  0  0  0  0  0  0
    7.7930  -15.9225   25.3907 C   0  0  0  0  0  0  0  0  0  0  0  0
    7.1584  -15.0018   26.3630 C   0  0  0  0  0  0  0  0  0  0  0  0
    6.2918  -15.3210   27.3926 C   0  0  0  0  0  0  0  0  0  0  0  0
    5.8980  -14.2191   28.0390 N   0  0  0  0  0  0  0  0  0  0  0  0
    6.5121  -13.1852   27.4263 C   0  0  0  0  0  0  0  0  0  0  0  0
    6.4709  -11.8145   27.6873 C   0  0  0  0  0  0  0  0  0  0  0  0
    7.1917  -10.9123   26.9378 C   0  0  0  0  0  0  0  0  0  0  0  0
    7.9727  -11.3909   25.9030 C   0  0  0  0  0  0  0  0  0  0  0  0
    8.0375  -12.7295   25.6175 C   0  0  0  0  0  0  0  0  0  0  0  0
    7.3027  -13.6127   26.3853 C   0  0  0  0  0  0  0  0  0  0  0  0
    7.5038  -16.3189   22.9314 C   0  0  0  0  0  0  0  0  0  0  0  0
    7.8087  -17.4305   22.4274 O   0  0  0  0  0  0  0  0  0  0  0  0
    6.7285  -13.4616   20.1251 C   0  0  0  0  0  0  0  0  0  0  0  0
    8.1571  -13.9013   20.1997 C   0  0  2  0  0  0  0  0  0  0  0  0
    8.8552  -13.8438   18.8542 C   0  0  0  0  0  0  0  0  0  0  0  0
    8.3674  -15.2450   20.8396 C   0  0  2  0  0  0  0  0  0  0  0  0
    7.7668  -15.1745   22.1553 N   0  0  0  0  0  0  0  0  0  0  0  0
    9.7300  -15.7236   20.8598 C   0  0  0  0  0  0  0  0  0  0  0  0
   10.5289  -15.0240   21.5874 O   0  0  0  0  0  0  0  0  0  0  0  0
   11.0230  -19.4106   19.8955 O   0  0  0  0  0  0  0  0  0  0  0  0
   11.8976  -18.6357   20.6514 C   0  0  0  0  0  0  0  0  0  0  0  0
   11.6981  -17.1564   20.3978 C   0  0  2  0  0  0  0  0  0  0  0  0
   10.3050  -16.8227   20.2147 N   0  0  0  0  0  0  0  0  0  0  0  0
   12.4882  -16.8043   19.2120 C   0  0  0  0  0  0  0  0  0  0  0  0
   13.8455  -16.9341   19.0889 O   0  0  0  0  0  0  0  0  0  0  0  0
   11.8585  -16.3380   18.2100 O   0  0  0  0  0  0  0  0  0  0  0  0
  2 13  1  0
  2  1  1  1
  3  4  1  0
  3  2  1  0
  4  5  2  0
  4 12  1  0
  5  6  1  0
  6  7  1  0
  7  8  2  0
  8  9  1  0
 10  9  2  0
 11 10  1  0
 12 11  2  0
 12  7  1  0
 13 14  2  0
 16 18  1  0
 16 15  1  6
 17 16  1  0
 19 13  1  0
 18 19  1  1
 20 18  1  0
 20 21  2  0
 22 23  1  0
 24 23  1  6
 24 25  1  0
 24 26  1  0
 25 20  1  0
 26 27  1  0
 28 26  2  0
M  END
$$$$
