WVS.pdb
     RDKit          3D

 28 29  0  0  1  0  0  0  0  0999 V2000
    6.0322  -17.7258   23.9490 N   0  0  0  0  0  0  0  0  0  0  0  0
    6.6490  -16.4450   23.7075 C   0  0  1  0  0  0  0  0  0  0  0  0
    7.5947  -16.0853   24.7914 C   0  0  0  0  0  0  0  0  0  0  0  0
    7.0432  -15.1228   25.7738 C   0  0  0  0  0  0  0  0  0  0  0  0
    6.0311  -15.3343   26.6925 C   0  0  0  0  0  0  0  0  0  0  0  0
    5.7819  -14.2199   27.3876 N   0  0  0  0  0  0  0  0  0  0  0  0
    6.6354  -13.2861   26.9176 C   0  0  0  0  0  0  0  0  0  0  0  0
    6.8200  -11.9515   27.2833 C   0  0  0  0  0  0  0  0  0  0  0  0
    7.7677  -11.1585   26.6766 C   0  0  0  0  0  0  0  0  0  0  0  0
    8.5500  -11.7119   25.6807 C   0  0  0  0  0  0  0  0  0  0  0  0
    8.3969  -13.0179   25.2954 C   0  0  0  0  0  0  0  0  0  0  0  0
    7.4371  -13.7908   25.9206 C   0  0  0  0  0  0  0  0  0  0  0  0
    7.1734  -16.3502   22.3334 C   0  0  0  0  0  0  0  0  0  0  0  0
    7.5727  -17.4129   21.7915 O   0  0  0  0  0  0  0  0  0  0  0  0
    7.9999  -13.5701   18.2719 C   0  0  0  0  0  0  0  0  0  0  0  0
    7.6376  -13.7532   19.7123 C   0  0  2  0  0  0  0  0  0  0  0  0
    8.3298  -12.7531   20.6188 C   0  0  0  0  0  0  0  0  0  0  0  0
    7.8280  -15.1497   20.2346 C   0  0  2  0  0  0  0  0  0  0  0  0
    7.2653  -15.1722   21.5686 N   0  0  0  0  0  0  0  0  0  0  0  0
    9.1770  -15.6626   20.1761 C   0  0  0  0  0  0  0  0  0  0  0  0
    9.9740  -15.1650   21.0560 O   0  0  0  0  0  0  0  0  0  0  0  0
   10.4968  -19.2395   19.6099 O   0  0  0  0  0  0  0  0  0  0  0  0
   11.3922  -18.2684   20.0480 C   0  0  0  0  0  0  0  0  0  0  0  0
   11.1465  -16.9348   19.3747 C   0  0  2  0  0  0  0  0  0  0  0  0
    9.7405  -16.6100   19.3161 N   0  0  0  0  0  0  0  0  0  0  0  0
   11.7303  -17.0083   18.0300 C   0  0  0  0  0  0  0  0  0  0  0  0
   11.0656  -16.7733   16.8564 O   0  0  0  0  0  0  0  0  0  0  0  0
   12.9614  -17.3168   17.9456 O   0  0  0  0  0  0  0  0  0  0  0  0
  2 13  1  0
  2  1  1  1
  3  4  1  0
  3  2  1  0
  4  5  2  0
  4 12  1  0
  5  6  1  0
  6  7  1  0
  7  8  2  0
  8  9  1  0
 10  9  2  0
 11 10  1  0
 12 11  2  0
 12  7  1  0
 13 14  2  0
 16 18  1  0
 16 15  1  6
 17 16  1  0
 19 13  1  0
 18 19  1  1
 20 18  1  0
 20 21  2  0
 22 23  1  0
 24 23  1  6
 24 25  1  0
 24 26  1  0
 25 20  1  0
 26 27  1  0
 28 26  2  0
M  END
$$$$
