DCP.pdb
     RDKit          3D

 22 22  0  0  1  0  0  0  0  0999 V2000
    9.4612  -15.6914   20.3703 N   0  0  0  0  0  0  0  0  0  0  0  0
    9.3492  -16.5038   21.6056 C   0  0  1  0  0  0  0  0  0  0  0  0
   10.5023  -17.4380   21.5534 C   0  0  0  0  0  0  0  0  0  0  0  0
   10.5404  -18.3900   20.4486 C   0  0  0  0  0  0  0  0  0  0  0  0
   11.5502  -18.4210   19.7055 O   0  0  0  0  0  0  0  0  0  0  0  0
    9.2326  -15.6415   22.7721 C   0  0  0  0  0  0  0  0  0  0  0  0
   10.2452  -14.9752   23.1502 O   0  0  0  0  0  0  0  0  0  0  0  0
    9.5164  -19.2776   20.1618 O   0  0  0  0  0  0  0  0  0  0  0  0
    8.0562  -15.4706   23.5453 N   0  0  0  0  0  0  0  0  0  0  0  0
    8.0960  -14.7576   24.8332 C   0  0  1  0  0  0  0  0  0  0  0  0
    6.6454  -14.5150   25.2100 C   0  0  0  0  0  0  0  0  0  0  0  0
    6.5171  -13.9093   26.9095 S   0  0  0  0  0  0  0  0  0  0  0  0
    8.7502  -15.5554   25.8964 C   0  0  0  0  0  0  0  0  0  0  0  0
    8.8514  -16.8090   25.6645 O   0  0  0  0  0  0  0  0  0  0  0  0
    9.2377  -14.9887   27.0951 N   0  0  0  0  0  0  0  0  0  0  0  0
    8.8741  -13.7460   27.7338 C   0  0  0  0  0  0  0  0  0  0  0  0
   10.1004  -13.3190   28.5103 C   0  0  0  0  0  0  0  0  0  0  0  0
   11.1120  -14.4190   28.3724 C   0  0  0  0  0  0  0  0  0  0  0  0
   10.2468  -15.5938   27.9370 C   0  0  1  0  0  0  0  0  0  0  0  0
    9.6072  -16.2097   29.1150 C   0  0  0  0  0  0  0  0  0  0  0  0
   10.2678  -16.7804   30.0193 O   0  0  0  0  0  0  0  0  0  0  0  0
    8.2171  -16.1957   29.2978 O   0  0  0  0  0  0  0  0  0  0  0  0
  2  1  1  6
  2  3  1  0
  3  4  1  0
  4  8  1  0
  5  4  2  0
  6  2  1  0
  7  6  2  0
  9  6  1  0
 10 13  1  0
 10  9  1  0
 11 12  1  0
 10 11  1  1
 13 15  1  0
 14 13  2  0
 15 16  1  0
 15 19  1  0
 16 17  1  0
 17 18  1  0
 19 20  1  1
 19 18  1  0
 20 22  1  0
 21 20  2  0
M  END
$$$$
