DCP.pdb
     RDKit          3D

 22 22  0  0  1  0  0  0  0  0999 V2000
    5.2669  -20.2645   21.2471 N   0  0  0  0  0  0  0  0  0  0  0  0
    6.3158  -19.5638   20.4677 C   0  0  1  0  0  0  0  0  0  0  0  0
    6.0078  -19.8746   19.0488 C   0  0  0  0  0  0  0  0  0  0  0  0
    6.3013  -21.2255   18.5825 C   0  0  0  0  0  0  0  0  0  0  0  0
    7.4051  -21.7444   18.8740 O   0  0  0  0  0  0  0  0  0  0  0  0
    6.3826  -18.1616   20.8515 C   0  0  0  0  0  0  0  0  0  0  0  0
    5.5649  -17.3406   20.3324 O   0  0  0  0  0  0  0  0  0  0  0  0
    5.4250  -21.9857   17.8254 O   0  0  0  0  0  0  0  0  0  0  0  0
    7.3024  -17.6139   21.7815 N   0  0  0  0  0  0  0  0  0  0  0  0
    7.5680  -16.1659   21.8172 C   0  0  1  0  0  0  0  0  0  0  0  0
    8.0493  -15.8742   23.2274 C   0  0  0  0  0  0  0  0  0  0  0  0
    6.6950  -16.0412   24.4146 S   0  0  0  0  0  0  0  0  0  0  0  0
    8.6158  -15.7633   20.8503 C   0  0  0  0  0  0  0  0  0  0  0  0
    9.2931  -16.7197   20.3383 O   0  0  0  0  0  0  0  0  0  0  0  0
    8.8667  -14.4174   20.5021 N   0  0  0  0  0  0  0  0  0  0  0  0
    8.3123  -13.2084   21.0638 C   0  0  0  0  0  0  0  0  0  0  0  0
    8.3536  -12.1897   19.9459 C   0  0  0  0  0  0  0  0  0  0  0  0
    9.0504  -12.8393   18.7862 C   0  0  0  0  0  0  0  0  0  0  0  0
    9.7764  -13.9964   19.4588 C   0  0  1  0  0  0  0  0  0  0  0  0
   11.0351  -13.5171   20.0605 C   0  0  0  0  0  0  0  0  0  0  0  0
   12.0332  -13.1947   19.3679 O   0  0  0  0  0  0  0  0  0  0  0  0
   11.1948  -13.3920   21.4479 O   0  0  0  0  0  0  0  0  0  0  0  0
  2  1  1  1
  2  3  1  0
  3  4  1  0
  4  8  1  0
  5  4  2  0
  6  2  1  0
  7  6  2  0
  9  6  1  0
 10 13  1  0
 10  9  1  0
 11 12  1  0
 10 11  1  1
 13 15  1  0
 14 13  2  0
 15 16  1  0
 15 19  1  0
 16 17  1  0
 17 18  1  0
 19 20  1  1
 19 18  1  0
 20 22  1  0
 21 20  2  0
M  END
$$$$
