DCP.pdb
     RDKit          3D

 22 22  0  0  1  0  0  0  0  0999 V2000
    9.0334  -17.2635   21.1108 N   0  0  0  0  0  0  0  0  0  0  0  0
   10.2333  -16.6586   21.7377 C   0  0  1  0  0  0  0  0  0  0  0  0
   11.0017  -16.0776   20.6077 C   0  0  0  0  0  0  0  0  0  0  0  0
   11.3995  -16.9834   19.5354 C   0  0  0  0  0  0  0  0  0  0  0  0
   11.7008  -16.5066   18.4153 O   0  0  0  0  0  0  0  0  0  0  0  0
    9.8459  -15.7653   22.8193 C   0  0  0  0  0  0  0  0  0  0  0  0
   10.6814  -14.9060   23.2385 O   0  0  0  0  0  0  0  0  0  0  0  0
   11.4673  -18.3598   19.6761 O   0  0  0  0  0  0  0  0  0  0  0  0
    8.5829  -15.7655   23.4640 N   0  0  0  0  0  0  0  0  0  0  0  0
    8.3884  -15.0637   24.7440 C   0  0  1  0  0  0  0  0  0  0  0  0
    6.8977  -15.1315   25.0238 C   0  0  0  0  0  0  0  0  0  0  0  0
    6.5324  -14.5516   26.6977 S   0  0  0  0  0  0  0  0  0  0  0  0
    9.1241  -15.7099   25.8558 C   0  0  0  0  0  0  0  0  0  0  0  0
    9.4562  -16.9300   25.6643 O   0  0  0  0  0  0  0  0  0  0  0  0
    9.4482  -15.0405   27.0569 N   0  0  0  0  0  0  0  0  0  0  0  0
    8.8204  -13.8890   27.6607 C   0  0  0  0  0  0  0  0  0  0  0  0
    9.9094  -13.2122   28.4639 C   0  0  0  0  0  0  0  0  0  0  0  0
   11.1265  -14.0860   28.3764 C   0  0  0  0  0  0  0  0  0  0  0  0
   10.5312  -15.4175   27.9390 C   0  0  1  0  0  0  0  0  0  0  0  0
    9.9919  -16.1348   29.1098 C   0  0  0  0  0  0  0  0  0  0  0  0
   10.7223  -16.5303   30.0532 O   0  0  0  0  0  0  0  0  0  0  0  0
    8.6254  -16.4201   29.2414 O   0  0  0  0  0  0  0  0  0  0  0  0
  2  1  1  6
  2  3  1  0
  3  4  1  0
  4  8  1  0
  5  4  2  0
  6  2  1  0
  7  6  2  0
  9  6  1  0
 10 13  1  0
 10  9  1  0
 11 12  1  0
 10 11  1  1
 13 15  1  0
 14 13  2  0
 15 16  1  0
 15 19  1  0
 16 17  1  0
 17 18  1  0
 19 20  1  1
 19 18  1  0
 20 22  1  0
 21 20  2  0
M  END
$$$$
