DCP.pdb
     RDKit          3D

 22 22  0  0  1  0  0  0  0  0999 V2000
    9.4841  -15.3005   20.3796 N   0  0  0  0  0  0  0  0  0  0  0  0
    8.9652  -16.0967   21.5178 C   0  0  1  0  0  0  0  0  0  0  0  0
    9.7591  -17.3514   21.4984 C   0  0  0  0  0  0  0  0  0  0  0  0
    9.3953  -18.3562   20.5052 C   0  0  0  0  0  0  0  0  0  0  0  0
   10.2921  -19.0869   20.0209 O   0  0  0  0  0  0  0  0  0  0  0  0
    8.9822  -15.3070   22.7401 C   0  0  0  0  0  0  0  0  0  0  0  0
   10.0604  -14.7344   23.0893 O   0  0  0  0  0  0  0  0  0  0  0  0
    8.1015  -18.5594   20.0541 O   0  0  0  0  0  0  0  0  0  0  0  0
    7.8715  -15.1109   23.5995 N   0  0  0  0  0  0  0  0  0  0  0  0
    8.0359  -14.4569   24.9086 C   0  0  1  0  0  0  0  0  0  0  0  0
    6.6341  -14.0843   25.3573 C   0  0  0  0  0  0  0  0  0  0  0  0
    6.6300  -13.5774   27.0936 S   0  0  0  0  0  0  0  0  0  0  0  0
    8.6472  -15.3578   25.9133 C   0  0  0  0  0  0  0  0  0  0  0  0
    8.5839  -16.6072   25.6474 O   0  0  0  0  0  0  0  0  0  0  0  0
    9.2651  -14.8888   27.0940 N   0  0  0  0  0  0  0  0  0  0  0  0
    9.0646  -13.6453   27.7996 C   0  0  0  0  0  0  0  0  0  0  0  0
   10.3748  -13.3661   28.5028 C   0  0  0  0  0  0  0  0  0  0  0  0
   11.2657  -14.5483   28.2559 C   0  0  0  0  0  0  0  0  0  0  0  0
   10.2657  -15.6190   27.8414 C   0  0  1  0  0  0  0  0  0  0  0  0
    9.6502  -16.2214   29.0391 C   0  0  0  0  0  0  0  0  0  0  0  0
    8.4394  -16.0529   29.3317 O   0  0  0  0  0  0  0  0  0  0  0  0
   10.3821  -17.0218   29.9276 O   0  0  0  0  0  0  0  0  0  0  0  0
  2  1  1  6
  2  3  1  0
  3  4  1  0
  4  8  1  0
  5  4  2  0
  6  2  1  0
  7  6  2  0
  9  6  1  0
 10 13  1  0
 10  9  1  0
 11 12  1  0
 10 11  1  1
 13 15  1  0
 14 13  2  0
 15 16  1  0
 15 19  1  0
 16 17  1  0
 17 18  1  0
 19 20  1  1
 19 18  1  0
 20 22  1  0
 21 20  2  0
M  END
$$$$
