DCP.pdb
     RDKit          3D

 22 22  0  0  1  0  0  0  0  0999 V2000
    8.7875  -17.0494   21.1038 N   0  0  0  0  0  0  0  0  0  0  0  0
   10.0260  -16.4181   21.6199 C   0  0  1  0  0  0  0  0  0  0  0  0
   10.6485  -15.7754   20.4348 C   0  0  0  0  0  0  0  0  0  0  0  0
   11.1042  -16.6527   19.3620 C   0  0  0  0  0  0  0  0  0  0  0  0
   10.4624  -16.6825   18.2851 O   0  0  0  0  0  0  0  0  0  0  0  0
    9.7259  -15.5724   22.7656 C   0  0  0  0  0  0  0  0  0  0  0  0
   10.6258  -14.7951   23.2108 O   0  0  0  0  0  0  0  0  0  0  0  0
   12.2192  -17.4693   19.4569 O   0  0  0  0  0  0  0  0  0  0  0  0
    8.4832  -15.5344   23.4477 N   0  0  0  0  0  0  0  0  0  0  0  0
    8.3626  -14.8798   24.7612 C   0  0  1  0  0  0  0  0  0  0  0  0
    6.8763  -14.8568   25.0705 C   0  0  0  0  0  0  0  0  0  0  0  0
    6.5872  -14.3959   26.7955 S   0  0  0  0  0  0  0  0  0  0  0  0
    9.0719  -15.6252   25.8271 C   0  0  0  0  0  0  0  0  0  0  0  0
    9.2842  -16.8637   25.5888 O   0  0  0  0  0  0  0  0  0  0  0  0
    9.4952  -15.0268   27.0348 N   0  0  0  0  0  0  0  0  0  0  0  0
    8.9902  -13.8480   27.6979 C   0  0  0  0  0  0  0  0  0  0  0  0
   10.1614  -13.2928   28.4785 C   0  0  0  0  0  0  0  0  0  0  0  0
   11.2955  -14.2622   28.3165 C   0  0  0  0  0  0  0  0  0  0  0  0
   10.5735  -15.5232   27.8618 C   0  0  1  0  0  0  0  0  0  0  0  0
   10.0179  -16.2322   29.0300 C   0  0  0  0  0  0  0  0  0  0  0  0
    8.7814  -16.3649   29.2125 O   0  0  0  0  0  0  0  0  0  0  0  0
   10.8396  -16.8035   30.0120 O   0  0  0  0  0  0  0  0  0  0  0  0
  2  1  1  6
  2  3  1  0
  3  4  1  0
  4  8  1  0
  5  4  2  0
  6  2  1  0
  7  6  2  0
  9  6  1  0
 10 13  1  0
 10  9  1  0
 11 12  1  0
 10 11  1  1
 13 15  1  0
 14 13  2  0
 15 16  1  0
 15 19  1  0
 16 17  1  0
 17 18  1  0
 19 20  1  1
 19 18  1  0
 20 22  1  0
 21 20  2  0
M  END
$$$$
