DCP.pdb
     RDKit          3D

 22 22  0  0  1  0  0  0  0  0999 V2000
    9.4131  -16.6297   19.6287 N   0  0  0  0  0  0  0  0  0  0  0  0
   10.0226  -16.7500   20.9751 C   0  0  1  0  0  0  0  0  0  0  0  0
   11.3650  -16.1292   20.8426 C   0  0  0  0  0  0  0  0  0  0  0  0
   12.3604  -16.8523   20.0585 C   0  0  0  0  0  0  0  0  0  0  0  0
   12.2005  -18.0791   19.8531 O   0  0  0  0  0  0  0  0  0  0  0  0
    9.1276  -16.2109   21.9881 C   0  0  0  0  0  0  0  0  0  0  0  0
    8.7900  -14.9884   21.9251 O   0  0  0  0  0  0  0  0  0  0  0  0
   13.4903  -16.2621   19.5165 O   0  0  0  0  0  0  0  0  0  0  0  0
    8.5803  -16.9486   23.0684 N   0  0  0  0  0  0  0  0  0  0  0  0
    7.7352  -16.2919   24.0799 C   0  0  1  0  0  0  0  0  0  0  0  0
    6.8959  -17.3994   24.6915 C   0  0  0  0  0  0  0  0  0  0  0  0
    6.2695  -16.9070   26.3154 S   0  0  0  0  0  0  0  0  0  0  0  0
    8.5357  -15.6413   25.1434 C   0  0  0  0  0  0  0  0  0  0  0  0
    9.7367  -16.0627   25.2680 O   0  0  0  0  0  0  0  0  0  0  0  0
    8.0255  -14.6204   25.9761 N   0  0  0  0  0  0  0  0  0  0  0  0
    6.6725  -14.1326   26.1013 C   0  0  0  0  0  0  0  0  0  0  0  0
    6.8039  -12.6907   26.5406 C   0  0  0  0  0  0  0  0  0  0  0  0
    8.2653  -12.4314   26.7629 C   0  0  0  0  0  0  0  0  0  0  0  0
    8.8213  -13.8421   26.9002 C   0  0  1  0  0  0  0  0  0  0  0  0
    8.6092  -14.3335   28.2749 C   0  0  0  0  0  0  0  0  0  0  0  0
    9.1637  -13.8064   29.2721 O   0  0  0  0  0  0  0  0  0  0  0  0
    7.7722  -15.4234   28.5532 O   0  0  0  0  0  0  0  0  0  0  0  0
  2  1  1  6
  2  3  1  0
  3  4  1  0
  4  8  1  0
  5  4  2  0
  6  2  1  0
  7  6  2  0
  9  6  1  0
 10 13  1  0
 10  9  1  0
 11 12  1  0
 10 11  1  1
 13 15  1  0
 14 13  2  0
 15 16  1  0
 15 19  1  0
 16 17  1  0
 17 18  1  0
 19 20  1  1
 19 18  1  0
 20 22  1  0
 21 20  2  0
M  END
$$$$
