DCP.pdb
     RDKit          3D

 22 22  0  0  1  0  0  0  0  0999 V2000
    9.2821  -15.1391   20.1061 N   0  0  0  0  0  0  0  0  0  0  0  0
    9.4260  -16.0428   21.2729 C   0  0  1  0  0  0  0  0  0  0  0  0
   10.7018  -16.7659   21.0399 C   0  0  0  0  0  0  0  0  0  0  0  0
   10.6145  -18.1097   20.4786 C   0  0  0  0  0  0  0  0  0  0  0  0
    9.5185  -18.5070   20.0164 O   0  0  0  0  0  0  0  0  0  0  0  0
    9.2918  -15.2952   22.5142 C   0  0  0  0  0  0  0  0  0  0  0  0
   10.1211  -14.3678   22.7683 O   0  0  0  0  0  0  0  0  0  0  0  0
   11.6818  -18.9909   20.4219 O   0  0  0  0  0  0  0  0  0  0  0  0
    8.2886  -15.5126   23.4925 N   0  0  0  0  0  0  0  0  0  0  0  0
    8.2956  -14.7640   24.7606 C   0  0  1  0  0  0  0  0  0  0  0  0
    6.8352  -14.5699   25.1277 C   0  0  0  0  0  0  0  0  0  0  0  0
    6.6685  -14.0928   26.8644 S   0  0  0  0  0  0  0  0  0  0  0  0
    8.9779  -15.5058   25.8465 C   0  0  0  0  0  0  0  0  0  0  0  0
    9.1720  -16.7510   25.6289 O   0  0  0  0  0  0  0  0  0  0  0  0
    9.3954  -14.8971   27.0511 N   0  0  0  0  0  0  0  0  0  0  0  0
    8.8852  -13.7145   27.7034 C   0  0  0  0  0  0  0  0  0  0  0  0
   10.0522  -13.1504   28.4838 C   0  0  0  0  0  0  0  0  0  0  0  0
   11.1893  -14.1183   28.3333 C   0  0  0  0  0  0  0  0  0  0  0  0
   10.4719  -15.3845   27.8857 C   0  0  1  0  0  0  0  0  0  0  0  0
    9.9139  -16.0859   29.0573 C   0  0  0  0  0  0  0  0  0  0  0  0
    8.6769  -16.2115   29.2416 O   0  0  0  0  0  0  0  0  0  0  0  0
   10.7337  -16.6574   30.0409 O   0  0  0  0  0  0  0  0  0  0  0  0
  2  1  1  6
  2  3  1  0
  3  4  1  0
  4  8  1  0
  5  4  2  0
  6  2  1  0
  7  6  2  0
  9  6  1  0
 10 13  1  0
 10  9  1  0
 11 12  1  0
 10 11  1  1
 13 15  1  0
 14 13  2  0
 15 16  1  0
 15 19  1  0
 16 17  1  0
 17 18  1  0
 19 20  1  1
 19 18  1  0
 20 22  1  0
 21 20  2  0
M  END
$$$$
