DCP.pdb
     RDKit          3D

 22 22  0  0  1  0  0  0  0  0999 V2000
    9.8752  -18.2442   21.3305 N   0  0  0  0  0  0  0  0  0  0  0  0
    9.9118  -16.8071   20.9672 C   0  0  1  0  0  0  0  0  0  0  0  0
    9.6292  -16.7751   19.5098 C   0  0  0  0  0  0  0  0  0  0  0  0
   10.7360  -17.0764   18.6084 C   0  0  0  0  0  0  0  0  0  0  0  0
   11.8635  -17.3346   19.0930 O   0  0  0  0  0  0  0  0  0  0  0  0
    9.0366  -16.0397   21.8406 C   0  0  0  0  0  0  0  0  0  0  0  0
    8.9833  -14.7782   21.7062 O   0  0  0  0  0  0  0  0  0  0  0  0
   10.6209  -17.0965   17.2281 O   0  0  0  0  0  0  0  0  0  0  0  0
    8.2120  -16.5888   22.8552 N   0  0  0  0  0  0  0  0  0  0  0  0
    7.4319  -15.7162   23.7488 C   0  0  1  0  0  0  0  0  0  0  0  0
    6.3477  -16.6007   24.3381 C   0  0  0  0  0  0  0  0  0  0  0  0
    6.9744  -17.5195   25.7645 S   0  0  0  0  0  0  0  0  0  0  0  0
    8.2553  -15.1561   24.8457 C   0  0  0  0  0  0  0  0  0  0  0  0
    9.4740  -15.5428   24.8758 O   0  0  0  0  0  0  0  0  0  0  0  0
    7.7479  -14.2525   25.8058 N   0  0  0  0  0  0  0  0  0  0  0  0
    6.3835  -13.8495   26.0516 C   0  0  0  0  0  0  0  0  0  0  0  0
    6.4742  -12.4550   26.6314 C   0  0  0  0  0  0  0  0  0  0  0  0
    7.9327  -12.1454   26.8030 C   0  0  0  0  0  0  0  0  0  0  0  0
    8.5591  -13.5326   26.7633 C   0  0  1  0  0  0  0  0  0  0  0  0
    8.4483  -14.1713   28.0884 C   0  0  0  0  0  0  0  0  0  0  0  0
    7.6152  -15.0809   28.3306 O   0  0  0  0  0  0  0  0  0  0  0  0
    9.2693  -13.8004   29.1628 O   0  0  0  0  0  0  0  0  0  0  0  0
  2  1  1  1
  2  3  1  0
  3  4  1  0
  4  8  1  0
  5  4  2  0
  6  2  1  0
  7  6  2  0
  9  6  1  0
 10 13  1  0
 10  9  1  0
 11 12  1  0
 10 11  1  1
 13 15  1  0
 14 13  2  0
 15 16  1  0
 15 19  1  0
 16 17  1  0
 17 18  1  0
 19 20  1  1
 19 18  1  0
 20 22  1  0
 21 20  2  0
M  END
$$$$
