DCP.pdb
     RDKit          3D

 22 22  0  0  1  0  0  0  0  0999 V2000
    8.3972  -16.6364   20.9949 N   0  0  0  0  0  0  0  0  0  0  0  0
    9.6378  -16.4269   21.7794 C   0  0  1  0  0  0  0  0  0  0  0  0
   10.6870  -16.1486   20.7661 C   0  0  0  0  0  0  0  0  0  0  0  0
   10.9854  -17.2061   19.8065 C   0  0  0  0  0  0  0  0  0  0  0  0
   10.3869  -18.3038   19.9036 O   0  0  0  0  0  0  0  0  0  0  0  0
    9.4209  -15.4294   22.8166 C   0  0  0  0  0  0  0  0  0  0  0  0
   10.3866  -14.6825   23.1655 O   0  0  0  0  0  0  0  0  0  0  0  0
   11.9027  -17.0746   18.7768 O   0  0  0  0  0  0  0  0  0  0  0  0
    8.1929  -15.2075   23.4902 N   0  0  0  0  0  0  0  0  0  0  0  0
    8.1631  -14.5581   24.8115 C   0  0  1  0  0  0  0  0  0  0  0  0
    6.6970  -14.2913   25.1019 C   0  0  0  0  0  0  0  0  0  0  0  0
    6.4599  -13.8305   26.8348 S   0  0  0  0  0  0  0  0  0  0  0  0
    8.7221  -15.4244   25.8754 C   0  0  0  0  0  0  0  0  0  0  0  0
    8.7096  -16.6796   25.6305 O   0  0  0  0  0  0  0  0  0  0  0  0
    9.2403  -14.9181   27.0882 N   0  0  0  0  0  0  0  0  0  0  0  0
    8.8380  -13.7526   27.8394 C   0  0  0  0  0  0  0  0  0  0  0  0
   10.0775  -13.3060   28.5833 C   0  0  0  0  0  0  0  0  0  0  0  0
   11.1448  -14.3248   28.3088 C   0  0  0  0  0  0  0  0  0  0  0  0
   10.3297  -15.5176   27.8279 C   0  0  1  0  0  0  0  0  0  0  0  0
    9.7954  -16.2597   28.9855 C   0  0  0  0  0  0  0  0  0  0  0  0
   10.5403  -16.8035   29.8395 O   0  0  0  0  0  0  0  0  0  0  0  0
    8.4179  -16.4039   29.2038 O   0  0  0  0  0  0  0  0  0  0  0  0
  2  1  1  6
  2  3  1  0
  3  4  1  0
  4  8  1  0
  5  4  2  0
  6  2  1  0
  7  6  2  0
  9  6  1  0
 10 13  1  0
 10  9  1  0
 11 12  1  0
 10 11  1  1
 13 15  1  0
 14 13  2  0
 15 16  1  0
 15 19  1  0
 16 17  1  0
 17 18  1  0
 19 20  1  1
 19 18  1  0
 20 22  1  0
 21 20  2  0
M  END
$$$$
