DFK.pdb
     RDKit          3D

 29 29  0  0  1  0  0  0  0  0999 V2000
   10.0889  -16.1691   19.1164 N   0  0  0  0  0  0  0  0  0  0  0  0
    8.9860  -16.7181   19.9780 C   0  0  1  0  0  0  0  0  0  0  0  0
    9.3098  -18.1770   20.0498 C   0  0  0  0  0  0  0  0  0  0  0  0
    9.0158  -19.0044   18.8988 C   0  0  0  0  0  0  0  0  0  0  0  0
    7.9709  -19.5866   18.5837 O   0  0  0  0  0  0  0  0  0  0  0  0
    9.1485  -15.9885   21.2580 C   0  0  0  0  0  0  0  0  0  0  0  0
   10.3103  -15.8854   21.7867 O   0  0  0  0  0  0  0  0  0  0  0  0
   10.1006  -19.1726   17.9891 O   0  0  0  0  0  0  0  0  0  0  0  0
    8.0470  -15.4006   21.9057 N   0  0  0  0  0  0  0  0  0  0  0  0
    8.1780  -14.7129   23.1805 C   0  0  1  0  0  0  0  0  0  0  0  0
    6.9872  -13.8381   23.4598 C   0  0  0  0  0  0  0  0  0  0  0  0
    6.9988  -13.2633   24.8100 C   0  0  0  0  0  0  0  0  0  0  0  0
    6.1925  -13.7551   25.8085 C   0  0  0  0  0  0  0  0  0  0  0  0
    6.2083  -13.2028   27.0949 C   0  0  0  0  0  0  0  0  0  0  0  0
    7.0489  -12.1437   27.3686 C   0  0  0  0  0  0  0  0  0  0  0  0
    7.8573  -11.6483   26.3731 C   0  0  0  0  0  0  0  0  0  0  0  0
    7.8310  -12.2061   25.1019 C   0  0  0  0  0  0  0  0  0  0  0  0
    8.3491  -15.6939   24.2833 C   0  0  0  0  0  0  0  0  0  0  0  0
    7.4961  -16.6087   24.4084 O   0  0  0  0  0  0  0  0  0  0  0  0
    9.4200  -15.6532   25.1990 N   0  0  0  0  0  0  0  0  0  0  0  0
    9.8496  -16.7864   26.0180 C   0  0  1  0  0  0  0  0  0  0  0  0
   11.0493  -17.4463   25.4408 C   0  0  0  0  0  0  0  0  0  0  0  0
   11.4576  -18.6355   26.2598 C   0  0  0  0  0  0  0  0  0  0  0  0
   12.6437  -19.3629   25.6928 C   0  0  0  0  0  0  0  0  0  0  0  0
   13.0095  -20.5344   26.5602 C   0  0  0  0  0  0  0  0  0  0  0  0
   14.1683  -21.1981   25.9630 N   0  0  0  0  0  0  0  0  0  0  0  0
   10.0247  -16.3894   27.4182 C   0  0  0  0  0  0  0  0  0  0  0  0
   10.2589  -17.3328   28.2616 O   0  0  0  0  0  0  0  0  0  0  0  0
    9.9746  -15.1374   27.9557 O   0  0  0  0  0  0  0  0  0  0  0  0
  2  1  1  6
  3  2  1  0
  4  3  1  0
  5  4  2  0
  6  2  1  0
  6  7  2  0
  8  4  1  0
  9  6  1  0
 10  9  1  0
 11 12  1  0
 10 11  1  1
 12 13  2  0
 12 17  1  0
 13 14  1  0
 14 15  2  0
 16 15  1  0
 17 16  2  0
 18 19  2  0
 18 10  1  0
 20 18  1  0
 21 20  1  0
 21 22  1  6
 23 22  1  0
 24 23  1  0
 25 24  1  0
 25 26  1  0
 27 21  1  0
 28 27  2  0
 29 27  1  0
M  END
$$$$
