DFK.pdb
     RDKit          3D

 29 29  0  0  1  0  0  0  0  0999 V2000
    9.1404  -16.6272   19.8442 N   0  0  0  0  0  0  0  0  0  0  0  0
   10.0902  -17.2035   20.8570 C   0  0  1  0  0  0  0  0  0  0  0  0
   11.3989  -17.1987   20.1318 C   0  0  0  0  0  0  0  0  0  0  0  0
   11.4790  -17.8721   18.8527 C   0  0  0  0  0  0  0  0  0  0  0  0
   10.6447  -18.5758   18.2706 O   0  0  0  0  0  0  0  0  0  0  0  0
   10.0114  -16.2504   21.9896 C   0  0  0  0  0  0  0  0  0  0  0  0
   11.0884  -15.8093   22.5238 O   0  0  0  0  0  0  0  0  0  0  0  0
   12.7116  -17.6951   18.1586 O   0  0  0  0  0  0  0  0  0  0  0  0
    8.7709  -15.8155   22.4900 N   0  0  0  0  0  0  0  0  0  0  0  0
    8.6650  -15.0081   23.6950 C   0  0  1  0  0  0  0  0  0  0  0  0
    7.3469  -14.2874   23.7615 C   0  0  0  0  0  0  0  0  0  0  0  0
    7.1868  -13.4910   24.9837 C   0  0  0  0  0  0  0  0  0  0  0  0
    7.9138  -12.3440   25.1956 C   0  0  0  0  0  0  0  0  0  0  0  0
    7.7564  -11.5882   26.3635 C   0  0  0  0  0  0  0  0  0  0  0  0
    6.8543  -12.0004   27.3225 C   0  0  0  0  0  0  0  0  0  0  0  0
    6.1249  -13.1470   27.1150 C   0  0  0  0  0  0  0  0  0  0  0  0
    6.2915  -13.8867   25.9518 C   0  0  0  0  0  0  0  0  0  0  0  0
    8.8342  -15.8561   24.9034 C   0  0  0  0  0  0  0  0  0  0  0  0
    8.0115  -16.7855   25.1025 O   0  0  0  0  0  0  0  0  0  0  0  0
    9.8709  -15.6733   25.8409 N   0  0  0  0  0  0  0  0  0  0  0  0
   10.1752  -16.6041   26.9274 C   0  0  1  0  0  0  0  0  0  0  0  0
   11.3523  -17.4501   26.6006 C   0  0  0  0  0  0  0  0  0  0  0  0
   10.9294  -18.8370   26.2144 C   0  0  0  0  0  0  0  0  0  0  0  0
   12.0878  -19.7401   25.8983 C   0  0  0  0  0  0  0  0  0  0  0  0
   11.6139  -21.1483   25.6721 C   0  0  0  0  0  0  0  0  0  0  0  0
   12.7750  -21.9692   25.3289 N   0  0  0  0  0  0  0  0  0  0  0  0
   10.3065  -15.8985   28.2056 C   0  0  0  0  0  0  0  0  0  0  0  0
   10.5111  -14.6293   28.1470 O   0  0  0  0  0  0  0  0  0  0  0  0
   10.2376  -16.4119   29.4668 O   0  0  0  0  0  0  0  0  0  0  0  0
  2  1  1  6
  3  2  1  0
  4  3  1  0
  5  4  2  0
  6  2  1  0
  6  7  2  0
  8  4  1  0
  9  6  1  0
 10  9  1  0
 11 12  1  0
 10 11  1  1
 12 13  2  0
 12 17  1  0
 13 14  1  0
 14 15  2  0
 16 15  1  0
 17 16  2  0
 18 19  2  0
 18 10  1  0
 20 18  1  0
 21 20  1  0
 21 22  1  6
 23 22  1  0
 24 23  1  0
 25 24  1  0
 25 26  1  0
 27 21  1  0
 28 27  2  0
 29 27  1  0
M  END
$$$$
