DFK.pdb
     RDKit          3D

 29 29  0  0  1  0  0  0  0  0999 V2000
   10.0205  -16.3569   19.1433 N   0  0  0  0  0  0  0  0  0  0  0  0
    9.2224  -17.1347   20.1523 C   0  0  1  0  0  0  0  0  0  0  0  0
    9.8823  -18.4775   20.1403 C   0  0  0  0  0  0  0  0  0  0  0  0
    9.9290  -19.2099   18.8924 C   0  0  0  0  0  0  0  0  0  0  0  0
   10.8724  -19.7982   18.3502 O   0  0  0  0  0  0  0  0  0  0  0  0
    9.4086  -16.3693   21.4079 C   0  0  0  0  0  0  0  0  0  0  0  0
   10.5888  -16.1844   21.8693 O   0  0  0  0  0  0  0  0  0  0  0  0
    8.6951  -19.2590   18.1800 O   0  0  0  0  0  0  0  0  0  0  0  0
    8.3097  -15.8359   22.1052 N   0  0  0  0  0  0  0  0  0  0  0  0
    8.4710  -15.0720   23.3321 C   0  0  1  0  0  0  0  0  0  0  0  0
    7.2467  -14.2538   23.6371 C   0  0  0  0  0  0  0  0  0  0  0  0
    7.3811  -13.4485   24.8566 C   0  0  0  0  0  0  0  0  0  0  0  0
    8.4278  -12.5750   25.0304 C   0  0  0  0  0  0  0  0  0  0  0  0
    8.5505  -11.8091   26.1959 C   0  0  0  0  0  0  0  0  0  0  0  0
    7.6032  -11.9314   27.1914 C   0  0  0  0  0  0  0  0  0  0  0  0
    6.5543  -12.8038   27.0220 C   0  0  0  0  0  0  0  0  0  0  0  0
    6.4456  -13.5571   25.8607 C   0  0  0  0  0  0  0  0  0  0  0  0
    8.7649  -15.9785   24.4722 C   0  0  0  0  0  0  0  0  0  0  0  0
    7.9144  -16.8527   24.7765 O   0  0  0  0  0  0  0  0  0  0  0  0
    9.9500  -15.9103   25.2324 N   0  0  0  0  0  0  0  0  0  0  0  0
   10.3341  -16.8859   26.2523 C   0  0  1  0  0  0  0  0  0  0  0  0
   11.7524  -17.3005   26.0967 C   0  0  0  0  0  0  0  0  0  0  0  0
   12.1350  -18.3150   27.1340 C   0  0  0  0  0  0  0  0  0  0  0  0
   12.9029  -19.4760   26.5686 C   0  0  0  0  0  0  0  0  0  0  0  0
   13.2182  -20.4760   27.6452 C   0  0  0  0  0  0  0  0  0  0  0  0
   14.0415  -21.5326   27.0574 N   0  0  0  0  0  0  0  0  0  0  0  0
   10.0185  -16.3955   27.5972 C   0  0  0  0  0  0  0  0  0  0  0  0
    9.4096  -17.2132   28.3826 O   0  0  0  0  0  0  0  0  0  0  0  0
   10.2888  -15.1733   28.1376 O   0  0  0  0  0  0  0  0  0  0  0  0
  2  1  1  6
  3  2  1  0
  4  3  1  0
  5  4  2  0
  6  2  1  0
  6  7  2  0
  8  4  1  0
  9  6  1  0
 10  9  1  0
 11 12  1  0
 10 11  1  1
 12 13  2  0
 12 17  1  0
 13 14  1  0
 14 15  2  0
 16 15  1  0
 17 16  2  0
 18 19  2  0
 18 10  1  0
 20 18  1  0
 21 20  1  0
 21 22  1  1
 23 22  1  0
 24 23  1  0
 25 24  1  0
 25 26  1  0
 27 21  1  0
 28 27  2  0
 29 27  1  0
M  END
$$$$
