DFK.pdb
     RDKit          3D

 29 29  0  0  1  0  0  0  0  0999 V2000
    9.7927  -16.2776   18.9398 N   0  0  0  0  0  0  0  0  0  0  0  0
    8.8770  -16.9307   19.9373 C   0  0  1  0  0  0  0  0  0  0  0  0
    9.4072  -18.3275   20.0165 C   0  0  0  0  0  0  0  0  0  0  0  0
    9.1309  -19.2313   18.9198 C   0  0  0  0  0  0  0  0  0  0  0  0
    8.2586  -19.1768   18.0446 O   0  0  0  0  0  0  0  0  0  0  0  0
    9.0736  -16.1277   21.1677 C   0  0  0  0  0  0  0  0  0  0  0  0
   10.2531  -15.7584   21.5029 O   0  0  0  0  0  0  0  0  0  0  0  0
   10.0007  -20.3580   18.8384 O   0  0  0  0  0  0  0  0  0  0  0  0
    7.9845  -15.7581   21.9775 N   0  0  0  0  0  0  0  0  0  0  0  0
    8.1616  -15.0299   23.2239 C   0  0  1  0  0  0  0  0  0  0  0  0
    6.8836  -14.3701   23.6632 C   0  0  0  0  0  0  0  0  0  0  0  0
    7.0249  -13.6168   24.9146 C   0  0  0  0  0  0  0  0  0  0  0  0
    6.5587  -14.1117   26.1091 C   0  0  0  0  0  0  0  0  0  0  0  0
    6.6968  -13.3885   27.2999 C   0  0  0  0  0  0  0  0  0  0  0  0
    7.3126  -12.1542   27.2769 C   0  0  0  0  0  0  0  0  0  0  0  0
    7.7805  -11.6550   26.0846 C   0  0  0  0  0  0  0  0  0  0  0  0
    7.6366  -12.3834   24.9113 C   0  0  0  0  0  0  0  0  0  0  0  0
    8.6481  -15.9412   24.2919 C   0  0  0  0  0  0  0  0  0  0  0  0
    7.9645  -16.9596   24.5670 O   0  0  0  0  0  0  0  0  0  0  0  0
    9.8386  -15.7240   25.0147 N   0  0  0  0  0  0  0  0  0  0  0  0
   10.4292  -16.6886   25.9421 C   0  0  1  0  0  0  0  0  0  0  0  0
   11.8909  -16.8306   25.7161 C   0  0  0  0  0  0  0  0  0  0  0  0
   12.4707  -17.9025   26.5915 C   0  0  0  0  0  0  0  0  0  0  0  0
   13.9489  -18.0879   26.3963 C   0  0  0  0  0  0  0  0  0  0  0  0
   14.4562  -19.2201   27.2445 C   0  0  0  0  0  0  0  0  0  0  0  0
   15.8949  -19.3513   27.0145 N   0  0  0  0  0  0  0  0  0  0  0  0
   10.0869  -16.3641   27.3301 C   0  0  0  0  0  0  0  0  0  0  0  0
   10.2399  -17.3022   28.1977 O   0  0  0  0  0  0  0  0  0  0  0  0
    9.6239  -15.1850   27.8341 O   0  0  0  0  0  0  0  0  0  0  0  0
  2  1  1  6
  3  2  1  0
  4  3  1  0
  5  4  2  0
  6  2  1  0
  6  7  2  0
  8  4  1  0
  9  6  1  0
 10  9  1  0
 11 12  1  0
 10 11  1  1
 12 13  2  0
 12 17  1  0
 13 14  1  0
 14 15  2  0
 16 15  1  0
 17 16  2  0
 18 19  2  0
 18 10  1  0
 20 18  1  0
 21 20  1  0
 21 22  1  1
 23 22  1  0
 24 23  1  0
 25 24  1  0
 25 26  1  0
 27 21  1  0
 28 27  2  0
 29 27  1  0
M  END
$$$$
