AYR.pdb
     RDKit          3D

 29 29  0  0  1  0  0  0  0  0999 V2000
    9.8651  -17.3048   17.5752 C   0  0  0  0  0  0  0  0  0  0  0  0
   10.1097  -18.0310   18.8807 C   0  0  2  0  0  0  0  0  0  0  0  0
    9.0127  -18.9288   19.1039 N   0  0  0  0  0  0  0  0  0  0  0  0
   10.2154  -17.0129   19.9621 C   0  0  0  0  0  0  0  0  0  0  0  0
   11.1785  -16.1902   20.0050 O   0  0  0  0  0  0  0  0  0  0  0  0
    6.6691  -12.1100   17.7795 O   0  0  0  0  0  0  0  0  0  0  0  0
    7.0300  -12.8637   18.8935 C   0  0  0  0  0  0  0  0  0  0  0  0
    6.5026  -14.1212   19.1136 C   0  0  0  0  0  0  0  0  0  0  0  0
    6.8742  -14.8697   20.2381 C   0  0  0  0  0  0  0  0  0  0  0  0
    7.7729  -14.3735   21.1528 C   0  0  0  0  0  0  0  0  0  0  0  0
    8.1518  -15.1680   22.3258 C   0  0  0  0  0  0  0  0  0  0  0  0
    9.4004  -15.9418   22.1041 C   0  0  2  0  0  0  0  0  0  0  0  0
    9.2628  -16.8917   21.0045 N   0  0  0  0  0  0  0  0  0  0  0  0
    9.8755  -16.6313   23.3332 C   0  0  0  0  0  0  0  0  0  0  0  0
    9.3556  -17.6963   23.7447 O   0  0  0  0  0  0  0  0  0  0  0  0
    8.2760  -13.1184   20.8994 C   0  0  0  0  0  0  0  0  0  0  0  0
    7.9255  -12.3708   19.8058 C   0  0  0  0  0  0  0  0  0  0  0  0
   18.6770  -16.0085   23.5344 N   0  0  0  0  0  0  0  0  0  0  0  0
   18.3253  -17.2550   24.1022 C   0  0  0  0  0  0  0  0  0  0  0  0
   19.2093  -18.1421   24.2932 N   0  0  0  0  0  0  0  0  0  0  0  0
   16.9707  -17.4922   24.4517 N   0  0  0  0  0  0  0  0  0  0  0  0
   15.9117  -16.5814   23.9835 C   0  0  0  0  0  0  0  0  0  0  0  0
   14.6045  -17.1571   24.3992 C   0  0  0  0  0  0  0  0  0  0  0  0
   13.3922  -16.4097   23.9857 C   0  0  0  0  0  0  0  0  0  0  0  0
   12.0936  -16.9137   24.4985 C   0  0  2  0  0  0  0  0  0  0  0  0
   10.9524  -16.1143   24.1112 N   0  0  0  0  0  0  0  0  0  0  0  0
   12.0335  -17.1160   25.9637 C   0  0  0  0  0  0  0  0  0  0  0  0
   12.8583  -17.8789   26.5208 O   0  0  0  0  0  0  0  0  0  0  0  0
   11.0855  -16.4870   26.7544 O   0  0  0  0  0  0  0  0  0  0  0  0
  2  1  1  6
  2  3  1  0
  4  2  1  0
  4  5  2  0
  7  8  2  0
  7  6  1  0
  9  8  1  0
 10  9  2  0
 11 10  1  0
 12 11  1  1
 12 13  1  0
 13  4  1  0
 14 12  1  0
 15 14  2  0
 16 10  1  0
 16 17  2  0
 17  7  1  0
 19 18  1  0
 19 21  1  0
 20 19  2  0
 21 22  1  0
 22 23  1  0
 23 24  1  0
 25 24  1  1
 25 26  1  0
 25 27  1  0
 26 14  1  0
 27 28  2  0
 27 29  1  0
M  END
$$$$
