AYR.pdb
     RDKit          3D

 29 29  0  0  1  0  0  0  0  0999 V2000
    7.7673  -13.1020   18.2049 C   0  0  0  0  0  0  0  0  0  0  0  0
    8.6245  -14.1594   18.8671 C   0  0  2  0  0  0  0  0  0  0  0  0
    8.0048  -15.4355   18.6511 N   0  0  0  0  0  0  0  0  0  0  0  0
    8.7210  -13.8336   20.3169 C   0  0  0  0  0  0  0  0  0  0  0  0
    9.4538  -12.8881   20.7357 O   0  0  0  0  0  0  0  0  0  0  0  0
    6.8787  -12.5593   28.7956 O   0  0  0  0  0  0  0  0  0  0  0  0
    6.8399  -12.8773   27.4403 C   0  0  0  0  0  0  0  0  0  0  0  0
    6.3469  -14.0899   26.9992 C   0  0  0  0  0  0  0  0  0  0  0  0
    6.3130  -14.3977   25.6328 C   0  0  0  0  0  0  0  0  0  0  0  0
    6.7694  -13.5024   24.6944 C   0  0  0  0  0  0  0  0  0  0  0  0
    6.7285  -13.8388   23.2676 C   0  0  0  0  0  0  0  0  0  0  0  0
    8.0676  -14.1973   22.7336 C   0  0  2  0  0  0  0  0  0  0  0  0
    8.0123  -14.5450   21.3171 N   0  0  0  0  0  0  0  0  0  0  0  0
    8.7258  -15.2805   23.5116 C   0  0  0  0  0  0  0  0  0  0  0  0
    8.8141  -15.2452   24.7624 O   0  0  0  0  0  0  0  0  0  0  0  0
    7.2527  -12.3063   25.1722 C   0  0  0  0  0  0  0  0  0  0  0  0
    7.2942  -11.9863   26.5039 C   0  0  0  0  0  0  0  0  0  0  0  0
   15.2177  -14.1513   18.4473 N   0  0  0  0  0  0  0  0  0  0  0  0
   15.7643  -14.9989   19.4385 C   0  0  0  0  0  0  0  0  0  0  0  0
   17.0034  -15.2629   19.4408 N   0  0  0  0  0  0  0  0  0  0  0  0
   14.9032  -15.5457   20.4250 N   0  0  0  0  0  0  0  0  0  0  0  0
   13.4618  -15.2420   20.4044 C   0  0  0  0  0  0  0  0  0  0  0  0
   12.8366  -15.9406   21.5594 C   0  0  0  0  0  0  0  0  0  0  0  0
   11.3641  -15.8185   21.6868 C   0  0  0  0  0  0  0  0  0  0  0  0
   10.7203  -16.6244   22.7542 C   0  0  2  0  0  0  0  0  0  0  0  0
    9.2934  -16.4211   22.8720 N   0  0  0  0  0  0  0  0  0  0  0  0
   11.3160  -16.4723   24.1008 C   0  0  0  0  0  0  0  0  0  0  0  0
   10.8749  -15.5949   24.8809 O   0  0  0  0  0  0  0  0  0  0  0  0
   12.3588  -17.2727   24.5381 O   0  0  0  0  0  0  0  0  0  0  0  0
  2  1  1  6
  2  3  1  0
  4  2  1  0
  4  5  2  0
  7  8  2  0
  7  6  1  0
  9  8  1  0
 10  9  2  0
 11 10  1  0
 12 11  1  1
 12 13  1  0
 13  4  1  0
 14 12  1  0
 15 14  2  0
 16 10  1  0
 16 17  2  0
 17  7  1  0
 19 18  1  0
 19 21  1  0
 20 19  2  0
 21 22  1  0
 22 23  1  0
 23 24  1  0
 25 24  1  6
 25 26  1  0
 25 27  1  0
 26 14  1  0
 27 28  2  0
 27 29  1  0
M  END
$$$$
