AYR.pdb
     RDKit          3D

 29 29  0  0  1  0  0  0  0  0999 V2000
    8.1128  -14.4955   18.8751 C   0  0  0  0  0  0  0  0  0  0  0  0
    7.9728  -13.3060   19.8009 C   0  0  2  0  0  0  0  0  0  0  0  0
    8.6473  -12.1912   19.1998 N   0  0  0  0  0  0  0  0  0  0  0  0
    8.5746  -13.6699   21.1134 C   0  0  0  0  0  0  0  0  0  0  0  0
    9.7758  -13.3793   21.3945 O   0  0  0  0  0  0  0  0  0  0  0  0
    5.5457  -10.6291   27.0870 O   0  0  0  0  0  0  0  0  0  0  0  0
    6.0197  -11.7557   26.4196 C   0  0  0  0  0  0  0  0  0  0  0  0
    5.3111  -12.3292   25.3819 C   0  0  0  0  0  0  0  0  0  0  0  0
    5.7991  -13.4624   24.7182 C   0  0  0  0  0  0  0  0  0  0  0  0
    6.9954  -14.0346   25.0814 C   0  0  0  0  0  0  0  0  0  0  0  0
    7.4933  -15.2213   24.3782 C   0  0  0  0  0  0  0  0  0  0  0  0
    8.4926  -14.8804   23.3333 C   0  0  2  0  0  0  0  0  0  0  0  0
    7.8600  -14.3562   22.1269 N   0  0  0  0  0  0  0  0  0  0  0  0
    9.3878  -16.0203   23.0000 C   0  0  0  0  0  0  0  0  0  0  0  0
    9.0240  -16.9580   22.2502 O   0  0  0  0  0  0  0  0  0  0  0  0
    7.6718  -13.4353   26.1188 C   0  0  0  0  0  0  0  0  0  0  0  0
    7.2117  -12.3270   26.7802 C   0  0  0  0  0  0  0  0  0  0  0  0
   16.2235  -14.6298   19.4560 N   0  0  0  0  0  0  0  0  0  0  0  0
   14.9780  -15.0970   18.9762 C   0  0  0  0  0  0  0  0  0  0  0  0
   14.3690  -14.4671   18.0611 N   0  0  0  0  0  0  0  0  0  0  0  0
   14.4260  -16.2781   19.5363 N   0  0  0  0  0  0  0  0  0  0  0  0
   14.8765  -16.7565   20.8548 C   0  0  0  0  0  0  0  0  0  0  0  0
   13.7065  -17.3735   21.5354 C   0  0  0  0  0  0  0  0  0  0  0  0
   12.7413  -16.4405   22.1656 C   0  0  0  0  0  0  0  0  0  0  0  0
   11.6901  -17.0483   23.0194 C   0  0  2  0  0  0  0  0  0  0  0  0
   10.7130  -16.1062   23.5184 N   0  0  0  0  0  0  0  0  0  0  0  0
   12.1923  -17.8367   24.1672 C   0  0  0  0  0  0  0  0  0  0  0  0
   13.0251  -18.7544   23.9750 O   0  0  0  0  0  0  0  0  0  0  0  0
   11.7696  -17.5972   25.4647 O   0  0  0  0  0  0  0  0  0  0  0  0
  2  1  1  6
  2  3  1  0
  4  2  1  0
  4  5  2  0
  7  8  2  0
  7  6  1  0
  9  8  1  0
 10  9  2  0
 11 10  1  0
 12 11  1  1
 12 13  1  0
 13  4  1  0
 14 12  1  0
 15 14  2  0
 16 10  1  0
 16 17  2  0
 17  7  1  0
 19 18  1  0
 19 21  1  0
 20 19  2  0
 21 22  1  0
 22 23  1  0
 23 24  1  0
 25 24  1  1
 25 26  1  0
 25 27  1  0
 26 14  1  0
 27 28  2  0
 27 29  1  0
M  END
$$$$
