AYR.pdb
     RDKit          3D

 29 29  0  0  1  0  0  0  0  0999 V2000
    9.7561  -18.8237   27.6826 C   0  0  0  0  0  0  0  0  0  0  0  0
    9.0948  -17.5016   28.0087 C   0  0  2  0  0  0  0  0  0  0  0  0
    8.2584  -17.6930   29.1588 N   0  0  0  0  0  0  0  0  0  0  0  0
    8.3060  -17.0749   26.8201 C   0  0  0  0  0  0  0  0  0  0  0  0
    7.1532  -17.5469   26.5863 O   0  0  0  0  0  0  0  0  0  0  0  0
    5.6458  -11.3087   28.5870 O   0  0  0  0  0  0  0  0  0  0  0  0
    6.2479  -12.0405   27.5666 C   0  0  0  0  0  0  0  0  0  0  0  0
    7.6185  -12.0430   27.3944 C   0  0  0  0  0  0  0  0  0  0  0  0
    8.2120  -12.7839   26.3641 C   0  0  0  0  0  0  0  0  0  0  0  0
    7.4476  -13.5278   25.4966 C   0  0  0  0  0  0  0  0  0  0  0  0
    8.0828  -14.2976   24.4221 C   0  0  0  0  0  0  0  0  0  0  0  0
    8.0401  -15.7609   24.6748 C   0  0  2  0  0  0  0  0  0  0  0  0
    8.7788  -16.1260   25.8795 N   0  0  0  0  0  0  0  0  0  0  0  0
    8.5109  -16.5593   23.5117 C   0  0  0  0  0  0  0  0  0  0  0  0
    9.7249  -16.8135   23.3239 O   0  0  0  0  0  0  0  0  0  0  0  0
    6.0872  -13.5001   25.6999 C   0  0  0  0  0  0  0  0  0  0  0  0
    5.4876  -12.7824   26.7013 C   0  0  0  0  0  0  0  0  0  0  0  0
    8.3170  -13.6108   16.0406 N   0  0  0  0  0  0  0  0  0  0  0  0
    8.9364  -13.3365   17.2819 C   0  0  0  0  0  0  0  0  0  0  0  0
    9.3172  -12.1606   17.5598 N   0  0  0  0  0  0  0  0  0  0  0  0
    9.1228  -14.3977   18.2053 N   0  0  0  0  0  0  0  0  0  0  0  0
    8.6404  -15.7529   17.8876 C   0  0  0  0  0  0  0  0  0  0  0  0
    8.9895  -16.6365   19.0322 C   0  0  0  0  0  0  0  0  0  0  0  0
    8.3610  -16.3092   20.3350 C   0  0  0  0  0  0  0  0  0  0  0  0
    8.0081  -17.4556   21.2093 C   0  0  2  0  0  0  0  0  0  0  0  0
    7.6014  -17.0797   22.5452 N   0  0  0  0  0  0  0  0  0  0  0  0
    9.0508  -18.4999   21.3261 C   0  0  0  0  0  0  0  0  0  0  0  0
    9.7209  -18.5947   22.3819 O   0  0  0  0  0  0  0  0  0  0  0  0
    9.3199  -19.3884   20.2977 O   0  0  0  0  0  0  0  0  0  0  0  0
  2  1  1  6
  2  3  1  0
  4  2  1  0
  4  5  2  0
  7  8  2  0
  7  6  1  0
  9  8  1  0
 10  9  2  0
 11 10  1  0
 12 11  1  6
 12 13  1  0
 13  4  1  0
 14 12  1  0
 15 14  2  0
 16 10  1  0
 16 17  2  0
 17  7  1  0
 19 18  1  0
 19 21  1  0
 20 19  2  0
 21 22  1  0
 22 23  1  0
 23 24  1  0
 25 24  1  1
 25 26  1  0
 25 27  1  0
 26 14  1  0
 27 28  2  0
 27 29  1  0
M  END
$$$$
