AYR.pdb
     RDKit          3D

 29 29  0  0  1  0  0  0  0  0999 V2000
    6.8133  -14.5876   19.9219 C   0  0  0  0  0  0  0  0  0  0  0  0
    7.0757  -13.2656   20.6110 C   0  0  2  0  0  0  0  0  0  0  0  0
    7.7120  -12.3901   19.6687 N   0  0  0  0  0  0  0  0  0  0  0  0
    7.9437  -13.5257   21.7926 C   0  0  0  0  0  0  0  0  0  0  0  0
    9.2073  -13.5411   21.6955 O   0  0  0  0  0  0  0  0  0  0  0  0
   10.8221  -15.2153   29.9859 O   0  0  0  0  0  0  0  0  0  0  0  0
   10.0207  -14.9042   28.8903 C   0  0  0  0  0  0  0  0  0  0  0  0
    9.8886  -13.6048   28.4407 C   0  0  0  0  0  0  0  0  0  0  0  0
    9.0794  -13.3049   27.3370 C   0  0  0  0  0  0  0  0  0  0  0  0
    8.3949  -14.2946   26.6720 C   0  0  0  0  0  0  0  0  0  0  0  0
    7.5508  -13.9656   25.5188 C   0  0  0  0  0  0  0  0  0  0  0  0
    8.2708  -14.1231   24.2289 C   0  0  2  0  0  0  0  0  0  0  0  0
    7.4287  -13.7707   23.0901 N   0  0  0  0  0  0  0  0  0  0  0  0
    8.8442  -15.4840   24.0528 C   0  0  0  0  0  0  0  0  0  0  0  0
    8.1419  -16.4652   23.7100 O   0  0  0  0  0  0  0  0  0  0  0  0
    8.5514  -15.5754   27.1492 C   0  0  0  0  0  0  0  0  0  0  0  0
    9.3379  -15.8892   28.2264 C   0  0  0  0  0  0  0  0  0  0  0  0
   15.9425  -19.7805   21.3748 N   0  0  0  0  0  0  0  0  0  0  0  0
   14.7682  -20.3121   20.7932 C   0  0  0  0  0  0  0  0  0  0  0  0
   14.8086  -21.4096   20.1615 N   0  0  0  0  0  0  0  0  0  0  0  0
   13.5504  -19.5967   20.9294 N   0  0  0  0  0  0  0  0  0  0  0  0
   13.5452  -18.2408   21.5052 C   0  0  0  0  0  0  0  0  0  0  0  0
   12.6067  -18.2438   22.6594 C   0  0  0  0  0  0  0  0  0  0  0  0
   11.8174  -17.0064   22.8722 C   0  0  0  0  0  0  0  0  0  0  0  0
   10.8376  -17.0266   23.9870 C   0  0  2  0  0  0  0  0  0  0  0  0
   10.2296  -15.7445   24.2657 N   0  0  0  0  0  0  0  0  0  0  0  0
   11.3497  -17.5762   25.2625 C   0  0  0  0  0  0  0  0  0  0  0  0
   11.2894  -18.8104   25.4771 O   0  0  0  0  0  0  0  0  0  0  0  0
   11.8993  -16.7670   26.2437 O   0  0  0  0  0  0  0  0  0  0  0  0
  2  1  1  6
  2  3  1  0
  4  2  1  0
  4  5  2  0
  7  8  2  0
  7  6  1  0
  9  8  1  0
 10  9  2  0
 11 10  1  0
 12 11  1  1
 12 13  1  0
 13  4  1  0
 14 12  1  0
 15 14  2  0
 16 10  1  0
 16 17  2  0
 17  7  1  0
 19 18  1  0
 19 21  1  0
 20 19  2  0
 21 22  1  0
 22 23  1  0
 23 24  1  0
 25 24  1  6
 25 26  1  0
 25 27  1  0
 26 14  1  0
 27 28  2  0
 27 29  1  0
M  END
$$$$
