VTA.pdb
     RDKit          3D

 20 19  0  0  1  0  0  0  0  0999 V2000
   -0.9430  -20.9431   24.1571 C   0  0  0  0  0  0  0  0  0  0  0  0
   -2.1668  -21.6483   24.6628 C   0  0  1  0  0  0  0  0  0  0  0  0
   -2.9986  -22.2387   23.5727 C   0  0  0  0  0  0  0  0  0  0  0  0
   -1.8658  -22.6285   25.7783 C   0  0  2  0  0  0  0  0  0  0  0  0
   -1.0020  -23.6490   25.1602 N   0  0  0  0  0  0  0  0  0  0  0  0
   -3.0404  -23.3035   26.3171 C   0  0  0  0  0  0  0  0  0  0  0  0
   -3.2874  -24.5272   26.0331 O   0  0  0  0  0  0  0  0  0  0  0  0
   -3.6738  -25.3818   28.1579 C   0  0  0  0  0  0  0  0  0  0  0  0
   -4.5349  -24.3424   28.8498 C   0  0  1  0  0  0  0  0  0  0  0  0
   -3.7791  -23.5928   29.7493 O   0  0  0  0  0  0  0  0  0  0  0  0
   -5.1173  -23.4360   27.7559 C   0  0  2  0  0  0  0  0  0  0  0  0
   -4.0072  -22.7180   27.1800 N   0  0  0  0  0  0  0  0  0  0  0  0
   -6.0782  -22.5362   28.4511 C   0  0  0  0  0  0  0  0  0  0  0  0
   -5.8225  -21.3730   28.8090 O   0  0  0  0  0  0  0  0  0  0  0  0
   -9.7145  -23.1589   29.4006 C   0  0  0  0  0  0  0  0  0  0  0  0
   -8.4347  -22.3401   29.3336 C   0  0  2  0  0  0  0  0  0  0  0  0
   -7.3698  -23.0784   28.7075 N   0  0  0  0  0  0  0  0  0  0  0  0
   -8.0345  -22.0875   30.7616 C   0  0  0  0  0  0  0  0  0  0  0  0
   -7.2307  -22.8179   31.3754 O   0  0  0  0  0  0  0  0  0  0  0  0
   -8.5669  -21.0012   31.4527 O   0  0  0  0  0  0  0  0  0  0  0  0
  2  1  1  6
  2  4  1  0
  3  2  1  0
  4  5  1  6
  6  4  1  0
  7  6  2  0
  9  8  1  6
  9 11  1  0
 10  9  1  0
 11 12  1  1
 11 13  1  0
 12  6  1  0
 13 17  1  0
 14 13  2  0
 16 18  1  0
 16 15  1  1
 17 16  1  0
 18 20  1  0
 19 18  2  0
M  END
$$$$
