VTA.pdb
     RDKit          3D

 20 19  0  0  1  0  0  0  0  0999 V2000
    8.9992  -12.7319   18.5873 C   0  0  0  0  0  0  0  0  0  0  0  0
    8.6483  -13.1932   19.9711 C   0  0  1  0  0  0  0  0  0  0  0  0
    7.3085  -12.7185   20.4276 C   0  0  0  0  0  0  0  0  0  0  0  0
    8.8501  -14.6820   20.1670 C   0  0  2  0  0  0  0  0  0  0  0  0
    7.9649  -15.3159   19.1750 N   0  0  0  0  0  0  0  0  0  0  0  0
    8.4666  -15.1711   21.4859 C   0  0  0  0  0  0  0  0  0  0  0  0
    7.2348  -15.2878   21.8146 O   0  0  0  0  0  0  0  0  0  0  0  0
    8.3287  -18.1456   23.1444 C   0  0  0  0  0  0  0  0  0  0  0  0
    9.2582  -17.3764   24.0637 C   0  0  1  0  0  0  0  0  0  0  0  0
   10.5909  -17.6503   23.7620 O   0  0  0  0  0  0  0  0  0  0  0  0
    8.9606  -15.8836   23.8627 C   0  0  2  0  0  0  0  0  0  0  0  0
    9.3654  -15.5593   22.5172 N   0  0  0  0  0  0  0  0  0  0  0  0
    9.7716  -15.1720   24.8884 C   0  0  0  0  0  0  0  0  0  0  0  0
   10.9796  -14.9018   24.7691 O   0  0  0  0  0  0  0  0  0  0  0  0
    8.7670  -13.2767   27.9713 C   0  0  0  0  0  0  0  0  0  0  0  0
    9.7265  -14.1753   27.2068 C   0  0  2  0  0  0  0  0  0  0  0  0
    9.0837  -14.7896   26.0752 N   0  0  0  0  0  0  0  0  0  0  0  0
   10.1104  -15.2720   28.1623 C   0  0  0  0  0  0  0  0  0  0  0  0
    9.7015  -16.4445   28.0417 O   0  0  0  0  0  0  0  0  0  0  0  0
   10.9556  -14.9971   29.2353 O   0  0  0  0  0  0  0  0  0  0  0  0
  2  1  1  6
  2  4  1  0
  3  2  1  0
  4  5  1  6
  6  4  1  0
  7  6  2  0
  9  8  1  6
  9 11  1  0
 10  9  1  0
 11 12  1  6
 11 13  1  0
 12  6  1  0
 13 17  1  0
 14 13  2  0
 16 18  1  0
 16 15  1  1
 17 16  1  0
 18 20  1  0
 19 18  2  0
M  END
$$$$
