VTA.pdb
     RDKit          3D

 20 19  0  0  1  0  0  0  0  0999 V2000
    8.4513  -12.7137   19.1718 C   0  0  0  0  0  0  0  0  0  0  0  0
    8.3452  -13.2692   20.5614 C   0  0  1  0  0  0  0  0  0  0  0  0
    7.0638  -12.9149   21.2405 C   0  0  0  0  0  0  0  0  0  0  0  0
    8.6671  -14.7480   20.6332 C   0  0  2  0  0  0  0  0  0  0  0  0
    7.7018  -15.3883   19.7234 N   0  0  0  0  0  0  0  0  0  0  0  0
    8.4933  -15.3364   21.9558 C   0  0  0  0  0  0  0  0  0  0  0  0
    7.3263  -15.5154   22.4509 O   0  0  0  0  0  0  0  0  0  0  0  0
    9.2919  -18.5152   23.3174 C   0  0  0  0  0  0  0  0  0  0  0  0
   10.0142  -17.5907   24.2787 C   0  0  1  0  0  0  0  0  0  0  0  0
   11.3668  -17.4995   23.9558 O   0  0  0  0  0  0  0  0  0  0  0  0
    9.3450  -16.2130   24.1710 C   0  0  2  0  0  0  0  0  0  0  0  0
    9.5428  -15.7626   22.8154 N   0  0  0  0  0  0  0  0  0  0  0  0
   10.0415  -15.3508   25.1648 C   0  0  0  0  0  0  0  0  0  0  0  0
   10.7903  -14.4018   24.8728 O   0  0  0  0  0  0  0  0  0  0  0  0
    9.3343  -13.8117   28.0607 C   0  0  0  0  0  0  0  0  0  0  0  0
   10.3248  -14.8817   27.6285 C   0  0  2  0  0  0  0  0  0  0  0  0
    9.8111  -15.6634   26.5348 N   0  0  0  0  0  0  0  0  0  0  0  0
   10.4785  -15.7994   28.8106 C   0  0  0  0  0  0  0  0  0  0  0  0
   10.9681  -15.4248   29.8952 O   0  0  0  0  0  0  0  0  0  0  0  0
   10.0663  -17.1272   28.7201 O   0  0  0  0  0  0  0  0  0  0  0  0
  2  1  1  6
  2  4  1  0
  3  2  1  0
  4  5  1  6
  6  4  1  0
  7  6  2  0
  9  8  1  6
  9 11  1  0
 10  9  1  0
 11 12  1  6
 11 13  1  0
 12  6  1  0
 13 17  1  0
 14 13  2  0
 16 18  1  0
 16 15  1  1
 17 16  1  0
 18 20  1  0
 19 18  2  0
M  END
$$$$
