VTA.pdb
     RDKit          3D

 20 19  0  0  1  0  0  0  0  0999 V2000
    8.5420  -11.7162   19.2734 C   0  0  0  0  0  0  0  0  0  0  0  0
    8.7113  -13.0886   19.8555 C   0  0  1  0  0  0  0  0  0  0  0  0
    7.5173  -13.5545   20.6210 C   0  0  0  0  0  0  0  0  0  0  0  0
    9.2020  -14.1037   18.8434 C   0  0  2  0  0  0  0  0  0  0  0  0
    8.1030  -14.2275   17.8707 N   0  0  0  0  0  0  0  0  0  0  0  0
    9.4599  -15.4273   19.3978 C   0  0  0  0  0  0  0  0  0  0  0  0
    8.5171  -16.2834   19.5296 O   0  0  0  0  0  0  0  0  0  0  0  0
   10.9923  -18.3658   18.4318 C   0  0  0  0  0  0  0  0  0  0  0  0
   11.7948  -18.0363   19.6760 C   0  0  1  0  0  0  0  0  0  0  0  0
   12.9761  -17.3764   19.3428 O   0  0  0  0  0  0  0  0  0  0  0  0
   10.9136  -17.1415   20.5594 C   0  0  2  0  0  0  0  0  0  0  0  0
   10.7240  -15.9074   19.8380 N   0  0  0  0  0  0  0  0  0  0  0  0
   11.6768  -16.9507   21.8233 C   0  0  0  0  0  0  0  0  0  0  0  0
   12.4634  -16.0115   22.0370 O   0  0  0  0  0  0  0  0  0  0  0  0
   11.4310  -18.8490   25.1021 C   0  0  0  0  0  0  0  0  0  0  0  0
   12.0967  -17.8892   24.1283 C   0  0  2  0  0  0  0  0  0  0  0  0
   11.4667  -17.9305   22.8351 N   0  0  0  0  0  0  0  0  0  0  0  0
   13.5071  -18.3856   23.9631 C   0  0  0  0  0  0  0  0  0  0  0  0
   13.8775  -19.0448   22.9708 O   0  0  0  0  0  0  0  0  0  0  0  0
   14.4607  -18.1135   24.9418 O   0  0  0  0  0  0  0  0  0  0  0  0
  2  1  1  6
  2  4  1  0
  3  2  1  0
  4  5  1  6
  6  4  1  0
  7  6  2  0
  9  8  1  6
  9 11  1  0
 10  9  1  0
 11 12  1  6
 11 13  1  0
 12  6  1  0
 13 17  1  0
 14 13  2  0
 16 18  1  0
 16 15  1  1
 17 16  1  0
 18 20  1  0
 19 18  2  0
M  END
$$$$
