VTA.pdb
     RDKit          3D

 20 19  0  0  1  0  0  0  0  0999 V2000
   11.2285  -19.5415   19.8975 C   0  0  0  0  0  0  0  0  0  0  0  0
   11.1140  -18.9718   18.5143 C   0  0  1  0  0  0  0  0  0  0  0  0
   11.2597  -19.9989   17.4408 C   0  0  0  0  0  0  0  0  0  0  0  0
    9.8918  -18.0942   18.3357 C   0  0  2  0  0  0  0  0  0  0  0  0
   10.0769  -17.4533   17.0225 N   0  0  0  0  0  0  0  0  0  0  0  0
    9.7595  -17.0394   19.3336 C   0  0  0  0  0  0  0  0  0  0  0  0
   10.5876  -16.0640   19.3774 O   0  0  0  0  0  0  0  0  0  0  0  0
    6.9492  -14.6936   20.1374 C   0  0  0  0  0  0  0  0  0  0  0  0
    7.2236  -15.4758   21.4076 C   0  0  1  0  0  0  0  0  0  0  0  0
    6.3676  -16.5709   21.5092 O   0  0  0  0  0  0  0  0  0  0  0  0
    8.6846  -15.9436   21.3447 C   0  0  2  0  0  0  0  0  0  0  0  0
    8.7476  -16.9661   20.3299 N   0  0  0  0  0  0  0  0  0  0  0  0
    8.9957  -16.4689   22.7024 C   0  0  0  0  0  0  0  0  0  0  0  0
    9.1180  -17.6747   22.9809 O   0  0  0  0  0  0  0  0  0  0  0  0
    9.5455  -14.5870   25.9666 C   0  0  0  0  0  0  0  0  0  0  0  0
    9.6106  -15.8051   25.0586 C   0  0  2  0  0  0  0  0  0  0  0  0
    9.1578  -15.4946   23.7283 N   0  0  0  0  0  0  0  0  0  0  0  0
    8.6505  -16.8045   25.6441 C   0  0  0  0  0  0  0  0  0  0  0  0
    7.4817  -16.9389   25.2292 O   0  0  0  0  0  0  0  0  0  0  0  0
    9.0549  -17.6272   26.6933 O   0  0  0  0  0  0  0  0  0  0  0  0
  2  1  1  1
  2  4  1  0
  3  2  1  0
  4  5  1  6
  6  4  1  0
  7  6  2  0
  9  8  1  6
  9 11  1  0
 10  9  1  0
 11 12  1  6
 11 13  1  0
 12  6  1  0
 13 17  1  0
 14 13  2  0
 16 18  1  0
 16 15  1  1
 17 16  1  0
 18 20  1  0
 19 18  2  0
M  END
$$$$
