VTA.pdb
     RDKit          3D

 20 19  0  0  1  0  0  0  0  0999 V2000
    7.3782  -19.3190   18.7750 C   0  0  0  0  0  0  0  0  0  0  0  0
    8.1173  -18.9274   17.5295 C   0  0  1  0  0  0  0  0  0  0  0  0
    7.5966  -19.5970   16.3010 C   0  0  0  0  0  0  0  0  0  0  0  0
    8.2601  -17.4270   17.3737 C   0  0  2  0  0  0  0  0  0  0  0  0
    9.1569  -17.2519   16.2185 N   0  0  0  0  0  0  0  0  0  0  0  0
    8.8696  -16.7603   18.5182 C   0  0  0  0  0  0  0  0  0  0  0  0
   10.0788  -17.0064   18.8591 O   0  0  0  0  0  0  0  0  0  0  0  0
    7.8600  -13.0682   19.8844 C   0  0  0  0  0  0  0  0  0  0  0  0
    7.9013  -14.0999   20.9955 C   0  0  1  0  0  0  0  0  0  0  0  0
    6.6265  -14.5996   21.2546 O   0  0  0  0  0  0  0  0  0  0  0  0
    8.8334  -15.2282   20.5313 C   0  0  2  0  0  0  0  0  0  0  0  0
    8.2308  -15.8040   19.3545 N   0  0  0  0  0  0  0  0  0  0  0  0
    8.8960  -16.1887   21.6669 C   0  0  0  0  0  0  0  0  0  0  0  0
    8.1502  -17.1752   21.7979 O   0  0  0  0  0  0  0  0  0  0  0  0
   10.8135  -18.1249   23.2082 C   0  0  0  0  0  0  0  0  0  0  0  0
   10.2033  -16.8325   23.7276 C   0  0  2  0  0  0  0  0  0  0  0  0
    9.8906  -15.9286   22.6523 N   0  0  0  0  0  0  0  0  0  0  0  0
   11.2689  -16.1857   24.5699 C   0  0  0  0  0  0  0  0  0  0  0  0
   11.8445  -15.1307   24.2350 O   0  0  0  0  0  0  0  0  0  0  0  0
   11.6495  -16.7656   25.7782 O   0  0  0  0  0  0  0  0  0  0  0  0
  2  1  1  1
  2  4  1  0
  3  2  1  0
  4  5  1  6
  6  4  1  0
  7  6  2  0
  9  8  1  6
  9 11  1  0
 10  9  1  0
 11 12  1  6
 11 13  1  0
 12  6  1  0
 13 17  1  0
 14 13  2  0
 16 18  1  0
 16 15  1  6
 17 16  1  0
 18 20  1  0
 19 18  2  0
M  END
$$$$
