VTA.pdb
     RDKit          3D

 20 19  0  0  1  0  0  0  0  0999 V2000
    8.9269  -12.9103   18.7335 C   0  0  0  0  0  0  0  0  0  0  0  0
    8.5462  -13.2900   20.1341 C   0  0  1  0  0  0  0  0  0  0  0  0
    7.2718  -12.6594   20.5891 C   0  0  0  0  0  0  0  0  0  0  0  0
    8.5882  -14.7856   20.3734 C   0  0  2  0  0  0  0  0  0  0  0  0
    7.6321  -15.3490   19.4049 N   0  0  0  0  0  0  0  0  0  0  0  0
    8.1646  -15.1918   21.7081 C   0  0  0  0  0  0  0  0  0  0  0  0
    6.9262  -15.2065   22.0322 O   0  0  0  0  0  0  0  0  0  0  0  0
    7.5047  -17.9115   23.4118 C   0  0  0  0  0  0  0  0  0  0  0  0
    8.5787  -17.3501   24.3239 C   0  0  1  0  0  0  0  0  0  0  0  0
    9.8235  -17.8966   24.0177 O   0  0  0  0  0  0  0  0  0  0  0  0
    8.5977  -15.8287   24.1181 C   0  0  2  0  0  0  0  0  0  0  0  0
    9.0286  -15.6009   22.7609 N   0  0  0  0  0  0  0  0  0  0  0  0
    9.5655  -15.3013   25.1188 C   0  0  0  0  0  0  0  0  0  0  0  0
   10.7925  -15.2148   24.9355 O   0  0  0  0  0  0  0  0  0  0  0  0
    8.9865  -13.3505   28.2726 C   0  0  0  0  0  0  0  0  0  0  0  0
    9.7958  -14.3298   27.4368 C   0  0  2  0  0  0  0  0  0  0  0  0
    9.0124  -14.8756   26.3601 N   0  0  0  0  0  0  0  0  0  0  0  0
   10.1498  -15.4626   28.3613 C   0  0  0  0  0  0  0  0  0  0  0  0
    9.6329  -16.5943   28.2689 O   0  0  0  0  0  0  0  0  0  0  0  0
   11.0898  -15.2698   29.3714 O   0  0  0  0  0  0  0  0  0  0  0  0
  2  1  1  6
  2  4  1  0
  3  2  1  0
  4  5  1  6
  6  4  1  0
  7  6  2  0
  9  8  1  6
  9 11  1  0
 10  9  1  0
 11 12  1  6
 11 13  1  0
 12  6  1  0
 13 17  1  0
 14 13  2  0
 16 18  1  0
 16 15  1  1
 17 16  1  0
 18 20  1  0
 19 18  2  0
M  END
$$$$
