VTA.pdb
     RDKit          3D

 20 19  0  0  1  0  0  0  0  0999 V2000
    8.3076  -11.6668   19.5484 C   0  0  0  0  0  0  0  0  0  0  0  0
    8.6070  -13.0168   20.1303 C   0  0  1  0  0  0  0  0  0  0  0  0
    7.4444  -13.6198   20.8469 C   0  0  0  0  0  0  0  0  0  0  0  0
    9.2463  -13.9619   19.1334 C   0  0  2  0  0  0  0  0  0  0  0  0
    8.2117  -14.1851   18.1090 N   0  0  0  0  0  0  0  0  0  0  0  0
    9.6144  -15.2593   19.6874 C   0  0  0  0  0  0  0  0  0  0  0  0
    9.2028  -16.3470   19.1521 O   0  0  0  0  0  0  0  0  0  0  0  0
   13.0398  -16.3138   20.3651 C   0  0  0  0  0  0  0  0  0  0  0  0
   11.8880  -17.3007   20.3518 C   0  0  1  0  0  0  0  0  0  0  0  0
   12.3156  -18.5658   20.7502 O   0  0  0  0  0  0  0  0  0  0  0  0
   10.8232  -16.7668   21.3206 C   0  0  2  0  0  0  0  0  0  0  0  0
   10.4335  -15.4676   20.8310 N   0  0  0  0  0  0  0  0  0  0  0  0
   11.4897  -16.6979   22.6499 C   0  0  0  0  0  0  0  0  0  0  0  0
   12.3794  -15.8829   22.9511 O   0  0  0  0  0  0  0  0  0  0  0  0
   10.2495  -18.2233   25.8559 C   0  0  0  0  0  0  0  0  0  0  0  0
   11.3172  -17.5250   25.0282 C   0  0  2  0  0  0  0  0  0  0  0  0
   11.0532  -17.6459   23.6187 N   0  0  0  0  0  0  0  0  0  0  0  0
   12.6007  -18.2554   25.3148 C   0  0  0  0  0  0  0  0  0  0  0  0
   13.1107  -19.0622   24.5113 O   0  0  0  0  0  0  0  0  0  0  0  0
   13.2699  -18.0426   26.5182 O   0  0  0  0  0  0  0  0  0  0  0  0
  2  1  1  6
  2  4  1  0
  3  2  1  0
  4  5  1  6
  6  4  1  0
  7  6  2  0
  9  8  1  1
  9 11  1  0
 10  9  1  0
 11 12  1  6
 11 13  1  0
 12  6  1  0
 13 17  1  0
 14 13  2  0
 16 18  1  0
 16 15  1  1
 17 16  1  0
 18 20  1  0
 19 18  2  0
M  END
$$$$
