VTA.pdb
     RDKit          3D

 20 19  0  0  1  0  0  0  0  0999 V2000
    8.1501  -12.4780   21.2598 C   0  0  0  0  0  0  0  0  0  0  0  0
    7.9293  -13.4495   20.1381 C   0  0  1  0  0  0  0  0  0  0  0  0
    8.1830  -12.8599   18.7903 C   0  0  0  0  0  0  0  0  0  0  0  0
    8.6390  -14.7710   20.3522 C   0  0  2  0  0  0  0  0  0  0  0  0
    8.0856  -15.6670   19.3224 N   0  0  0  0  0  0  0  0  0  0  0  0
    8.3933  -15.3800   21.6539 C   0  0  0  0  0  0  0  0  0  0  0  0
    7.3864  -16.1473   21.8447 O   0  0  0  0  0  0  0  0  0  0  0  0
    8.1698  -17.8279   22.8674 C   0  0  0  0  0  0  0  0  0  0  0  0
    9.1775  -17.3388   23.8901 C   0  0  1  0  0  0  0  0  0  0  0  0
   10.4800  -17.5658   23.4494 O   0  0  0  0  0  0  0  0  0  0  0  0
    8.9332  -15.8353   24.0834 C   0  0  2  0  0  0  0  0  0  0  0  0
    9.1989  -15.2070   22.8129 N   0  0  0  0  0  0  0  0  0  0  0  0
    9.8890  -15.4071   25.1413 C   0  0  0  0  0  0  0  0  0  0  0  0
   11.1205  -15.3265   24.9882 O   0  0  0  0  0  0  0  0  0  0  0  0
    9.2705  -13.4578   28.2383 C   0  0  0  0  0  0  0  0  0  0  0  0
   10.0700  -14.5175   27.4963 C   0  0  2  0  0  0  0  0  0  0  0  0
    9.3182  -15.0743   26.4028 N   0  0  0  0  0  0  0  0  0  0  0  0
   10.3109  -15.6203   28.4907 C   0  0  0  0  0  0  0  0  0  0  0  0
    9.7121  -16.7137   28.4425 O   0  0  0  0  0  0  0  0  0  0  0  0
   11.2345  -15.4422   29.5186 O   0  0  0  0  0  0  0  0  0  0  0  0
  2  1  1  1
  2  4  1  0
  3  2  1  0
  4  5  1  6
  6  4  1  0
  7  6  2  0
  9  8  1  6
  9 11  1  0
 10  9  1  0
 11 12  1  6
 11 13  1  0
 12  6  1  0
 13 17  1  0
 14 13  2  0
 16 18  1  0
 16 15  1  1
 17 16  1  0
 18 20  1  0
 19 18  2  0
M  END
$$$$
