VTA.pdb
     RDKit          3D

 20 19  0  0  1  0  0  0  0  0999 V2000
   14.7496  -19.6182   21.8332 C   0  0  0  0  0  0  0  0  0  0  0  0
   14.0513  -18.5497   22.6215 C   0  0  1  0  0  0  0  0  0  0  0  0
   14.9683  -17.4677   23.0873 C   0  0  0  0  0  0  0  0  0  0  0  0
   12.8104  -18.0212   21.9311 C   0  0  2  0  0  0  0  0  0  0  0  0
   13.2919  -17.4928   20.6433 N   0  0  0  0  0  0  0  0  0  0  0  0
   12.1460  -16.9343   22.6404 C   0  0  0  0  0  0  0  0  0  0  0  0
   12.5616  -15.7277   22.5382 O   0  0  0  0  0  0  0  0  0  0  0  0
    8.5368  -15.7631   22.7572 C   0  0  0  0  0  0  0  0  0  0  0  0
    8.9287  -16.1294   24.1760 C   0  0  1  0  0  0  0  0  0  0  0  0
    8.5346  -17.4316   24.4779 O   0  0  0  0  0  0  0  0  0  0  0  0
   10.4553  -15.9971   24.2726 C   0  0  2  0  0  0  0  0  0  0  0  0
   11.0134  -17.0714   23.4891 N   0  0  0  0  0  0  0  0  0  0  0  0
   10.7772  -16.1217   25.7207 C   0  0  0  0  0  0  0  0  0  0  0  0
   11.3131  -17.1161   26.2408 O   0  0  0  0  0  0  0  0  0  0  0  0
   10.0803  -13.6942   28.5706 C   0  0  0  0  0  0  0  0  0  0  0  0
   10.6779  -14.9490   27.9534 C   0  0  2  0  0  0  0  0  0  0  0  0
   10.4338  -15.0060   26.5363 N   0  0  0  0  0  0  0  0  0  0  0  0
    9.9509  -16.1036   28.5869 C   0  0  0  0  0  0  0  0  0  0  0  0
    9.0076  -16.6959   28.0250 O   0  0  0  0  0  0  0  0  0  0  0  0
   10.3239  -16.5520   29.8522 O   0  0  0  0  0  0  0  0  0  0  0  0
  2  1  1  6
  2  4  1  0
  3  2  1  0
  4  5  1  6
  6  4  1  0
  7  6  2  0
  9  8  1  6
  9 11  1  0
 10  9  1  0
 11 12  1  6
 11 13  1  0
 12  6  1  0
 13 17  1  0
 14 13  2  0
 16 18  1  0
 16 15  1  1
 17 16  1  0
 18 20  1  0
 19 18  2  0
M  END
$$$$
