VTA.pdb
     RDKit          3D

 20 19  0  0  1  0  0  0  0  0999 V2000
    8.1942  -12.7205   20.8787 C   0  0  0  0  0  0  0  0  0  0  0  0
    8.0189  -13.2092   19.4711 C   0  0  1  0  0  0  0  0  0  0  0  0
    8.3623  -12.1815   18.4442 C   0  0  0  0  0  0  0  0  0  0  0  0
    8.6877  -14.5457   19.2217 C   0  0  2  0  0  0  0  0  0  0  0  0
    8.2308  -14.9513   17.8814 N   0  0  0  0  0  0  0  0  0  0  0  0
    8.3044  -15.5930   20.1609 C   0  0  0  0  0  0  0  0  0  0  0  0
    7.0819  -15.9518   20.2872 O   0  0  0  0  0  0  0  0  0  0  0  0
    8.9365  -19.1102   20.5573 C   0  0  0  0  0  0  0  0  0  0  0  0
    9.4782  -18.5269   21.8484 C   0  0  1  0  0  0  0  0  0  0  0  0
   10.8565  -18.3379   21.7662 O   0  0  0  0  0  0  0  0  0  0  0  0
    8.7672  -17.1846   22.0723 C   0  0  2  0  0  0  0  0  0  0  0  0
    9.1934  -16.3090   21.0088 N   0  0  0  0  0  0  0  0  0  0  0  0
    9.2142  -16.7132   23.4117 C   0  0  0  0  0  0  0  0  0  0  0  0
   10.2430  -16.0453   23.6169 O   0  0  0  0  0  0  0  0  0  0  0  0
    7.3163  -16.3314   26.5849 C   0  0  0  0  0  0  0  0  0  0  0  0
    8.6188  -16.6398   25.8633 C   0  0  2  0  0  0  0  0  0  0  0  0
    8.3819  -17.0702   24.5106 N   0  0  0  0  0  0  0  0  0  0  0  0
    9.2358  -17.7934   26.6061 C   0  0  0  0  0  0  0  0  0  0  0  0
    9.2740  -18.9506   26.1417 O   0  0  0  0  0  0  0  0  0  0  0  0
    9.7951  -17.5916   27.8661 O   0  0  0  0  0  0  0  0  0  0  0  0
  2  1  1  1
  2  4  1  0
  3  2  1  0
  4  5  1  6
  6  4  1  0
  7  6  2  0
  9  8  1  6
  9 11  1  0
 10  9  1  0
 11 12  1  6
 11 13  1  0
 12  6  1  0
 13 17  1  0
 14 13  2  0
 16 18  1  0
 16 15  1  1
 17 16  1  0
 18 20  1  0
 19 18  2  0
M  END
$$$$
