CRP.pdb
     RDKit          3D

 25 25  0  0  1  0  0  0  0  0999 V2000
    8.2411  -13.0964   18.9874 N   0  0  0  0  0  0  0  0  0  0  0  0
    8.7557  -14.2202   19.7041 C   0  0  1  0  0  0  0  0  0  0  0  0
   10.2680  -14.2425   19.7555 C   0  0  0  0  0  0  0  0  0  0  0  0
   10.8568  -12.6858   20.4848 S   0  0  0  0  0  0  0  0  0  0  0  0
    8.2654  -14.3546   21.0796 C   0  0  0  0  0  0  0  0  0  0  0  0
    7.9599  -13.2929   21.6816 O   0  0  0  0  0  0  0  0  0  0  0  0
    4.9187  -21.7603   23.3037 N   0  0  0  0  0  0  0  0  0  0  0  0
    5.8442  -20.9020   23.9763 C   0  0  0  0  0  0  0  0  0  0  0  0
    6.7080  -21.4183   24.7873 N   0  0  0  0  0  0  0  0  0  0  0  0
    5.8520  -19.5003   23.7864 N   0  0  0  0  0  0  0  0  0  0  0  0
    5.9779  -18.9461   22.4724 C   0  0  0  0  0  0  0  0  0  0  0  0
    5.8777  -17.4084   22.5077 C   0  0  0  0  0  0  0  0  0  0  0  0
    6.9898  -16.9559   23.3966 C   0  0  0  0  0  0  0  0  0  0  0  0
    7.5496  -15.5820   23.0919 C   0  0  2  0  0  0  0  0  0  0  0  0
    8.1098  -15.5727   21.7788 N   0  0  0  0  0  0  0  0  0  0  0  0
    8.3991  -15.0249   24.1568 C   0  0  0  0  0  0  0  0  0  0  0  0
    9.6826  -15.2035   24.0660 O   0  0  0  0  0  0  0  0  0  0  0  0
    7.3592  -20.7991   25.3159 N   0  0  0  0  0  0  0  0  0  0  0  0
    7.9984  -14.3022   25.2970 C   0  0  0  0  0  0  0  0  0  0  0  0
    6.5957  -13.9336   25.5572 C   0  0  0  0  0  0  0  0  0  0  0  0
    6.5908  -13.1610   26.8376 C   0  0  0  0  0  0  0  0  0  0  0  0
    7.9857  -12.5980   26.9239 C   0  0  2  0  0  0  0  0  0  0  0  0
    8.7833  -13.7923   26.3778 C   0  0  0  0  0  0  0  0  0  0  0  0
    8.8826  -14.7401   27.5128 O   0  0  0  0  0  0  0  0  0  0  0  0
    8.2229  -15.9517   27.4813 O   0  0  0  0  0  0  0  0  0  0  0  0
  2  5  1  0
  2  1  1  1
  3  2  1  0
  4  3  1  0
  5  6  2  0
  7  8  1  0
  8 10  1  0
  8  9  2  0
 10 11  1  0
 11 12  1  0
 14 13  1  1
 13 12  1  0
 15 14  1  0
 15  5  1  0
 16 17  2  0
 16 14  1  0
 18 16  1  0
 19 18  1  0
 20 21  1  0
 20 19  1  0
 21 22  1  0
 22 18  1  0
 22 23  1  1
 24 23  1  0
 25 23  2  0
M  END
$$$$
