CRP.pdb
     RDKit          3D

 25 25  0  0  1  0  0  0  0  0999 V2000
    7.9555  -17.1901   14.0892 N   0  0  0  0  0  0  0  0  0  0  0  0
    8.3860  -17.7166   15.3457 C   0  0  1  0  0  0  0  0  0  0  0  0
    9.8862  -17.8994   15.4237 C   0  0  0  0  0  0  0  0  0  0  0  0
   10.2970  -18.7523   16.9747 S   0  0  0  0  0  0  0  0  0  0  0  0
    7.9750  -16.9363   16.5174 C   0  0  0  0  0  0  0  0  0  0  0  0
    8.3567  -15.7386   16.5665 O   0  0  0  0  0  0  0  0  0  0  0  0
    3.8705  -20.1853   20.8860 N   0  0  0  0  0  0  0  0  0  0  0  0
    4.8910  -20.0193   21.8742 C   0  0  0  0  0  0  0  0  0  0  0  0
    5.2662  -21.0412   22.5709 N   0  0  0  0  0  0  0  0  0  0  0  0
    5.5109  -18.7718   22.1200 N   0  0  0  0  0  0  0  0  0  0  0  0
    4.8428  -17.5505   21.7861 C   0  0  0  0  0  0  0  0  0  0  0  0
    5.7682  -16.6142   20.9843 C   0  0  0  0  0  0  0  0  0  0  0  0
    6.0389  -17.3250   19.6986 C   0  0  0  0  0  0  0  0  0  0  0  0
    6.9431  -16.5943   18.7279 C   0  0  2  0  0  0  0  0  0  0  0  0
    7.1899  -17.4186   17.5888 N   0  0  0  0  0  0  0  0  0  0  0  0
    8.1298  -15.9838   19.3486 C   0  0  0  0  0  0  0  0  0  0  0  0
    9.1948  -16.7171   19.4740 O   0  0  0  0  0  0  0  0  0  0  0  0
    6.0202  -20.9359   23.2832 N   0  0  0  0  0  0  0  0  0  0  0  0
    8.2733  -14.6725   19.8412 C   0  0  0  0  0  0  0  0  0  0  0  0
    7.1773  -13.6879   19.8231 C   0  0  0  0  0  0  0  0  0  0  0  0
    7.7316  -12.4257   20.4029 C   0  0  0  0  0  0  0  0  0  0  0  0
    9.2134  -12.5346   20.1523 C   0  0  2  0  0  0  0  0  0  0  0  0
    9.4138  -14.0341   20.4207 C   0  0  0  0  0  0  0  0  0  0  0  0
    9.4537  -14.1588   21.8970 O   0  0  0  0  0  0  0  0  0  0  0  0
   10.5548  -13.7347   22.6124 O   0  0  0  0  0  0  0  0  0  0  0  0
  2  5  1  0
  2  1  1  6
  3  2  1  0
  4  3  1  0
  5  6  2  0
  7  8  1  0
  8 10  1  0
  8  9  2  0
 10 11  1  0
 11 12  1  0
 14 13  1  1
 13 12  1  0
 15 14  1  0
 15  5  1  0
 16 17  2  0
 16 14  1  0
 18 16  1  0
 19 18  1  0
 20 21  1  0
 20 19  1  0
 21 22  1  0
 22 18  1  0
 22 23  1  1
 24 23  1  0
 25 23  2  0
M  END
$$$$
