CRP.pdb
     RDKit          3D

 25 25  0  0  1  0  0  0  0  0999 V2000
    6.8832  -17.0588   27.3965 N   0  0  0  0  0  0  0  0  0  0  0  0
    7.3689  -15.8981   26.7195 C   0  0  1  0  0  0  0  0  0  0  0  0
    8.6056  -15.3140   27.3671 C   0  0  0  0  0  0  0  0  0  0  0  0
    8.3101  -13.5575   27.7265 S   0  0  0  0  0  0  0  0  0  0  0  0
    7.6649  -16.0901   25.2961 C   0  0  0  0  0  0  0  0  0  0  0  0
    8.0441  -17.2365   24.9429 O   0  0  0  0  0  0  0  0  0  0  0  0
    6.9797  -14.1084   17.3816 N   0  0  0  0  0  0  0  0  0  0  0  0
    8.2852  -13.6357   17.7246 C   0  0  0  0  0  0  0  0  0  0  0  0
    9.3056  -14.0597   17.0542 N   0  0  0  0  0  0  0  0  0  0  0  0
    8.5050  -12.7148   18.7757 N   0  0  0  0  0  0  0  0  0  0  0  0
    7.8646  -12.8937   20.0436 C   0  0  0  0  0  0  0  0  0  0  0  0
    8.4661  -14.0921   20.8038 C   0  0  0  0  0  0  0  0  0  0  0  0
    7.6766  -14.2007   22.0673 C   0  0  0  0  0  0  0  0  0  0  0  0
    8.0685  -15.3403   22.9846 C   0  0  2  0  0  0  0  0  0  0  0  0
    7.5594  -15.0974   24.2960 N   0  0  0  0  0  0  0  0  0  0  0  0
    9.4886  -15.7190   22.9066 C   0  0  0  0  0  0  0  0  0  0  0  0
   10.3441  -15.0105   23.5802 O   0  0  0  0  0  0  0  0  0  0  0  0
   10.2667  -13.7606   17.3260 N   0  0  0  0  0  0  0  0  0  0  0  0
   10.0653  -16.7773   22.1784 C   0  0  0  0  0  0  0  0  0  0  0  0
    9.2896  -17.6345   21.2648 C   0  0  0  0  0  0  0  0  0  0  0  0
   10.2473  -18.6416   20.7126 C   0  0  0  0  0  0  0  0  0  0  0  0
   11.3293  -18.7208   21.7583 C   0  0  2  0  0  0  0  0  0  0  0  0
   11.4183  -17.2389   22.1543 C   0  0  0  0  0  0  0  0  0  0  0  0
   12.2234  -16.6025   21.0851 O   0  0  0  0  0  0  0  0  0  0  0  0
   13.5875  -16.7989   21.0159 O   0  0  0  0  0  0  0  0  0  0  0  0
  2  5  1  0
  2  1  1  1
  3  2  1  0
  4  3  1  0
  5  6  2  0
  7  8  1  0
  8 10  1  0
  8  9  2  0
 10 11  1  0
 11 12  1  0
 14 13  1  6
 13 12  1  0
 15 14  1  0
 15  5  1  0
 16 17  2  0
 16 14  1  0
 18 16  1  0
 19 18  1  0
 20 21  1  0
 20 19  1  0
 21 22  1  0
 22 18  1  0
 22 23  1  6
 24 23  1  0
 25 23  2  0
M  END
$$$$
