CRP.pdb
     RDKit          3D

 25 25  0  0  1  0  0  0  0  0999 V2000
    7.4383  -15.0778   18.8364 N   0  0  0  0  0  0  0  0  0  0  0  0
    8.0983  -14.3547   19.8771 C   0  0  1  0  0  0  0  0  0  0  0  0
    8.0445  -12.8557   19.6769 C   0  0  0  0  0  0  0  0  0  0  0  0
    9.1065  -12.4093   18.2717 S   0  0  0  0  0  0  0  0  0  0  0  0
    7.6119  -14.6369   21.2315 C   0  0  0  0  0  0  0  0  0  0  0  0
    6.4088  -14.3599   21.4738 O   0  0  0  0  0  0  0  0  0  0  0  0
    7.1400  -20.5161   28.5459 N   0  0  0  0  0  0  0  0  0  0  0  0
    7.5362  -19.9289   27.3034 C   0  0  0  0  0  0  0  0  0  0  0  0
    8.7719  -20.0100   26.9334 N   0  0  0  0  0  0  0  0  0  0  0  0
    6.6219  -19.2590   26.4571 N   0  0  0  0  0  0  0  0  0  0  0  0
    7.0401  -18.7706   25.1780 C   0  0  0  0  0  0  0  0  0  0  0  0
    7.2523  -17.2443   25.2102 C   0  0  0  0  0  0  0  0  0  0  0  0
    7.5194  -16.8481   23.7948 C   0  0  0  0  0  0  0  0  0  0  0  0
    7.8060  -15.3776   23.5728 C   0  0  2  0  0  0  0  0  0  0  0  0
    8.3810  -15.1909   22.2795 N   0  0  0  0  0  0  0  0  0  0  0  0
    8.5075  -14.7225   24.6885 C   0  0  0  0  0  0  0  0  0  0  0  0
    9.7792  -14.9506   24.8241 O   0  0  0  0  0  0  0  0  0  0  0  0
    9.0585  -19.6517   25.9972 N   0  0  0  0  0  0  0  0  0  0  0  0
    7.9720  -13.8554   25.6602 C   0  0  0  0  0  0  0  0  0  0  0  0
    6.5570  -13.4447   25.6716 C   0  0  0  0  0  0  0  0  0  0  0  0
    6.3952  -12.5133   26.8305 C   0  0  0  0  0  0  0  0  0  0  0  0
    7.7791  -11.9555   27.0402 C   0  0  2  0  0  0  0  0  0  0  0  0
    8.6128  -13.2169   26.7674 C   0  0  0  0  0  0  0  0  0  0  0  0
    8.5289  -14.0111   28.0159 O   0  0  0  0  0  0  0  0  0  0  0  0
    9.2353  -13.6365   29.1404 O   0  0  0  0  0  0  0  0  0  0  0  0
  2  5  1  0
  2  1  1  6
  3  2  1  0
  4  3  1  0
  5  6  2  0
  7  8  1  0
  8 10  1  0
  8  9  2  0
 10 11  1  0
 11 12  1  0
 14 13  1  1
 13 12  1  0
 15 14  1  0
 15  5  1  0
 16 17  2  0
 16 14  1  0
 18 16  1  0
 19 18  1  0
 20 21  1  0
 20 19  1  0
 21 22  1  0
 22 18  1  0
 22 23  1  1
 24 23  1  0
 25 23  2  0
M  END
$$$$
