CRP.pdb
     RDKit          3D

 25 25  0  0  1  0  0  0  0  0999 V2000
   11.7967  -21.5585   18.9596 N   0  0  0  0  0  0  0  0  0  0  0  0
   10.9672  -21.5000   20.1214 C   0  0  1  0  0  0  0  0  0  0  0  0
   11.5101  -22.3174   21.2733 C   0  0  0  0  0  0  0  0  0  0  0  0
   10.8663  -24.0121   21.1496 S   0  0  0  0  0  0  0  0  0  0  0  0
   10.7023  -20.1485   20.6255 C   0  0  0  0  0  0  0  0  0  0  0  0
   11.6865  -19.5037   21.0709 O   0  0  0  0  0  0  0  0  0  0  0  0
    9.3057  -12.4796   19.1586 N   0  0  0  0  0  0  0  0  0  0  0  0
    8.0848  -12.8501   19.8050 C   0  0  0  0  0  0  0  0  0  0  0  0
    7.0097  -12.1777   19.5549 N   0  0  0  0  0  0  0  0  0  0  0  0
    8.0070  -13.9320   20.7130 N   0  0  0  0  0  0  0  0  0  0  0  0
    7.7670  -15.2615   20.2396 C   0  0  0  0  0  0  0  0  0  0  0  0
    7.6959  -16.2619   21.4101 C   0  0  0  0  0  0  0  0  0  0  0  0
    7.9978  -17.5975   20.8130 C   0  0  0  0  0  0  0  0  0  0  0  0
    9.2818  -18.2473   21.2854 C   0  0  2  0  0  0  0  0  0  0  0  0
    9.4386  -19.5166   20.6513 N   0  0  0  0  0  0  0  0  0  0  0  0
    9.4667  -18.2311   22.7454 C   0  0  0  0  0  0  0  0  0  0  0  0
    8.8967  -19.1692   23.4403 O   0  0  0  0  0  0  0  0  0  0  0  0
    6.1041  -12.4680   19.9822 N   0  0  0  0  0  0  0  0  0  0  0  0
   10.1995  -17.3087   23.5167 C   0  0  0  0  0  0  0  0  0  0  0  0
   10.8531  -16.1227   22.9360 C   0  0  0  0  0  0  0  0  0  0  0  0
   11.5403  -15.4220   24.0644 C   0  0  0  0  0  0  0  0  0  0  0  0
   11.7780  -16.5141   25.0750 C   0  0  2  0  0  0  0  0  0  0  0  0
   10.4678  -17.3016   24.9211 C   0  0  0  0  0  0  0  0  0  0  0  0
    9.4636  -16.5328   25.6939 O   0  0  0  0  0  0  0  0  0  0  0  0
    8.4694  -15.8236   25.0516 O   0  0  0  0  0  0  0  0  0  0  0  0
  2  5  1  0
  2  1  1  6
  3  2  1  0
  4  3  1  0
  5  6  2  0
  7  8  1  0
  8 10  1  0
  8  9  2  0
 10 11  1  0
 11 12  1  0
 14 13  1  1
 13 12  1  0
 15 14  1  0
 15  5  1  0
 16 17  2  0
 16 14  1  0
 18 16  1  0
 19 18  1  0
 20 21  1  0
 20 19  1  0
 21 22  1  0
 22 18  1  0
 22 23  1  1
 24 23  1  0
 25 23  2  0
M  END
$$$$
