PMD.pdb
     RDKit          3D

 24 24  0  0  1  0  0  0  0  0999 V2000
    7.2921  -15.0321   19.6762 N   0  0  0  0  0  0  0  0  0  0  0  0
    6.3972  -13.9061   19.5003 C   0  0  0  0  0  0  0  0  0  0  0  0
    7.2122  -12.6578   19.4272 C   0  0  0  0  0  0  0  0  0  0  0  0
    8.6129  -13.1527   19.2332 C   0  0  0  0  0  0  0  0  0  0  0  0
    8.5979  -14.4699   19.9517 C   0  0  1  0  0  0  0  0  0  0  0  0
    8.8847  -14.3824   21.3877 C   0  0  0  0  0  0  0  0  0  0  0  0
    9.9859  -13.8655   21.7309 O   0  0  0  0  0  0  0  0  0  0  0  0
    7.2977  -11.7777   28.0558 C   0  0  0  0  0  0  0  0  0  0  0  0
    7.0120  -12.1756   26.3259 S   0  0  0  0  0  0  0  0  0  0  0  0
    7.2740  -13.9627   25.9953 C   0  0  0  0  0  0  0  0  0  0  0  0
    7.1040  -14.1998   24.5270 C   0  0  0  0  0  0  0  0  0  0  0  0
    8.3216  -14.7092   23.8223 C   0  0  2  0  0  0  0  0  0  0  0  0
    8.0243  -14.8316   22.4062 N   0  0  0  0  0  0  0  0  0  0  0  0
    8.8690  -15.9654   24.3729 C   0  0  0  0  0  0  0  0  0  0  0  0
    8.2270  -17.0169   24.3053 O   0  0  0  0  0  0  0  0  0  0  0  0
   10.1272  -15.9717   24.9824 N   0  0  0  0  0  0  0  0  0  0  0  0
   10.8004  -17.0879   25.5566 C   0  0  1  0  0  0  0  0  0  0  0  0
   12.2852  -17.0699   25.5354 C   0  0  0  0  0  0  0  0  0  0  0  0
   12.9059  -16.6672   24.2687 C   0  0  0  0  0  0  0  0  0  0  0  0
   12.5946  -17.1328   23.1463 O   0  0  0  0  0  0  0  0  0  0  0  0
   10.3699  -17.3776   26.9428 C   0  0  0  0  0  0  0  0  0  0  0  0
   10.8361  -18.4696   27.6456 O   0  0  0  0  0  0  0  0  0  0  0  0
   13.9088  -15.7077   24.2842 O   0  0  0  0  0  0  0  0  0  0  0  0
    9.5555  -16.6043   27.4933 O   0  0  0  0  0  0  0  0  0  0  0  0
  2  1  1  0
  2  3  1  0
  3  4  1  0
  5  1  1  0
  5  6  1  1
  5  4  1  0
  6  7  2  0
  8  9  1  0
  9 10  1  0
 10 11  1  0
 12 11  1  1
 12 14  1  0
 13 12  1  0
 13  6  1  0
 14 15  2  0
 14 16  1  0
 16 17  1  0
 17 21  1  0
 17 18  1  1
 19 18  1  0
 20 19  2  0
 21 24  2  0
 21 22  1  0
 23 19  1  0
M  END
$$$$
