PMD.pdb
     RDKit          3D

 24 24  0  0  1  0  0  0  0  0999 V2000
    7.1144  -14.8685   20.2014 N   0  0  0  0  0  0  0  0  0  0  0  0
    6.4737  -13.5908   19.9639 C   0  0  0  0  0  0  0  0  0  0  0  0
    7.5322  -12.5545   19.7811 C   0  0  0  0  0  0  0  0  0  0  0  0
    8.7871  -13.3507   19.5922 C   0  0  0  0  0  0  0  0  0  0  0  0
    8.5194  -14.5829   20.4054 C   0  0  1  0  0  0  0  0  0  0  0  0
    8.8724  -14.4635   21.8242 C   0  0  0  0  0  0  0  0  0  0  0  0
   10.0843  -14.2404   22.1058 O   0  0  0  0  0  0  0  0  0  0  0  0
    6.9062  -11.6708   27.6196 C   0  0  0  0  0  0  0  0  0  0  0  0
    5.9763  -11.9354   26.1037 S   0  0  0  0  0  0  0  0  0  0  0  0
    7.0327  -12.6519   24.7837 C   0  0  0  0  0  0  0  0  0  0  0  0
    7.3474  -14.0690   25.1496 C   0  0  0  0  0  0  0  0  0  0  0  0
    8.3615  -14.7385   24.2767 C   0  0  2  0  0  0  0  0  0  0  0  0
    7.9612  -14.5795   22.8899 N   0  0  0  0  0  0  0  0  0  0  0  0
    8.6183  -16.1544   24.6088 C   0  0  0  0  0  0  0  0  0  0  0  0
    7.8472  -17.0410   24.2325 O   0  0  0  0  0  0  0  0  0  0  0  0
    9.7443  -16.5027   25.3609 N   0  0  0  0  0  0  0  0  0  0  0  0
   10.1782  -17.8152   25.7042 C   0  0  1  0  0  0  0  0  0  0  0  0
   10.9873  -18.5481   24.6973 C   0  0  0  0  0  0  0  0  0  0  0  0
   12.1911  -17.8617   24.2159 C   0  0  0  0  0  0  0  0  0  0  0  0
   12.6054  -16.7627   24.6564 O   0  0  0  0  0  0  0  0  0  0  0  0
   10.9011  -17.8707   26.9947 C   0  0  0  0  0  0  0  0  0  0  0  0
   11.2612  -16.7325   27.6865 O   0  0  0  0  0  0  0  0  0  0  0  0
   12.9414  -18.4457   23.2047 O   0  0  0  0  0  0  0  0  0  0  0  0
   11.1942  -18.9890   27.4718 O   0  0  0  0  0  0  0  0  0  0  0  0
  2  1  1  0
  2  3  1  0
  3  4  1  0
  5  1  1  0
  5  6  1  1
  5  4  1  0
  6  7  2  0
  8  9  1  0
  9 10  1  0
 10 11  1  0
 12 11  1  1
 12 14  1  0
 13 12  1  0
 13  6  1  0
 14 15  2  0
 14 16  1  0
 16 17  1  0
 17 21  1  0
 17 18  1  6
 19 18  1  0
 20 19  2  0
 21 24  2  0
 21 22  1  0
 23 19  1  0
M  END
$$$$
