PMD.pdb
     RDKit          3D

 24 24  0  0  1  0  0  0  0  0999 V2000
    7.1958  -15.1853   19.9247 N   0  0  0  0  0  0  0  0  0  0  0  0
    6.3682  -14.0345   19.6240 C   0  0  0  0  0  0  0  0  0  0  0  0
    7.2573  -12.8861   19.2799 C   0  0  0  0  0  0  0  0  0  0  0  0
    8.5994  -13.5188   19.0728 C   0  0  0  0  0  0  0  0  0  0  0  0
    8.5556  -14.6937   20.0051 C   0  0  1  0  0  0  0  0  0  0  0  0
    8.9686  -14.3942   21.3805 C   0  0  0  0  0  0  0  0  0  0  0  0
   10.1196  -13.8993   21.5480 O   0  0  0  0  0  0  0  0  0  0  0  0
    6.3335  -11.6174   28.1811 C   0  0  0  0  0  0  0  0  0  0  0  0
    6.0759  -12.4022   26.5841 S   0  0  0  0  0  0  0  0  0  0  0  0
    7.6194  -13.1754   25.9585 C   0  0  0  0  0  0  0  0  0  0  0  0
    7.3639  -13.6830   24.5734 C   0  0  0  0  0  0  0  0  0  0  0  0
    8.5673  -14.2163   23.8622 C   0  0  2  0  0  0  0  0  0  0  0  0
    8.1775  -14.6179   22.5222 N   0  0  0  0  0  0  0  0  0  0  0  0
    9.2683  -15.3045   24.5729 C   0  0  0  0  0  0  0  0  0  0  0  0
    9.6197  -15.1676   25.7477 O   0  0  0  0  0  0  0  0  0  0  0  0
    9.5440  -16.5062   23.9135 N   0  0  0  0  0  0  0  0  0  0  0  0
   10.3354  -17.5893   24.3922 C   0  0  1  0  0  0  0  0  0  0  0  0
   11.7878  -17.5573   24.0838 C   0  0  0  0  0  0  0  0  0  0  0  0
   12.5902  -18.6467   24.6507 C   0  0  0  0  0  0  0  0  0  0  0  0
   12.5220  -19.8440   24.2829 O   0  0  0  0  0  0  0  0  0  0  0  0
   10.1854  -17.8221   25.8463 C   0  0  0  0  0  0  0  0  0  0  0  0
   10.8618  -18.8285   26.5045 O   0  0  0  0  0  0  0  0  0  0  0  0
   13.4942  -18.3613   25.6646 O   0  0  0  0  0  0  0  0  0  0  0  0
    9.4185  -17.0795   26.4979 O   0  0  0  0  0  0  0  0  0  0  0  0
  2  1  1  0
  2  3  1  0
  3  4  1  0
  5  1  1  0
  5  6  1  1
  5  4  1  0
  6  7  2  0
  8  9  1  0
  9 10  1  0
 10 11  1  0
 12 11  1  1
 12 14  1  0
 13 12  1  0
 13  6  1  0
 14 15  2  0
 14 16  1  0
 16 17  1  0
 17 21  1  0
 17 18  1  1
 19 18  1  0
 20 19  2  0
 21 24  2  0
 21 22  1  0
 23 19  1  0
M  END
$$$$
