PMD.pdb
     RDKit          3D

 24 24  0  0  1  0  0  0  0  0999 V2000
    6.9304  -15.0742   19.5479 N   0  0  0  0  0  0  0  0  0  0  0  0
    6.2904  -13.8077   19.2545 C   0  0  0  0  0  0  0  0  0  0  0  0
    7.3468  -12.7639   19.1060 C   0  0  0  0  0  0  0  0  0  0  0  0
    8.6173  -13.5503   18.9954 C   0  0  0  0  0  0  0  0  0  0  0  0
    8.3206  -14.7702   19.8170 C   0  0  1  0  0  0  0  0  0  0  0  0
    8.6002  -14.6214   21.2493 C   0  0  0  0  0  0  0  0  0  0  0  0
    9.7920  -14.3694   21.5866 O   0  0  0  0  0  0  0  0  0  0  0  0
    6.9802  -11.9715   28.0125 C   0  0  0  0  0  0  0  0  0  0  0  0
    6.7786  -12.3094   26.2581 S   0  0  0  0  0  0  0  0  0  0  0  0
    6.8712  -14.1090   25.9054 C   0  0  0  0  0  0  0  0  0  0  0  0
    6.6976  -14.3096   24.4320 C   0  0  0  0  0  0  0  0  0  0  0  0
    7.9523  -14.6351   23.6848 C   0  0  2  0  0  0  0  0  0  0  0  0
    7.6395  -14.7390   22.2705 N   0  0  0  0  0  0  0  0  0  0  0  0
    8.6641  -15.8334   24.1730 C   0  0  0  0  0  0  0  0  0  0  0  0
    8.1278  -16.9441   24.1385 O   0  0  0  0  0  0  0  0  0  0  0  0
    9.9599  -15.7165   24.6849 N   0  0  0  0  0  0  0  0  0  0  0  0
   10.8110  -16.7712   25.1230 C   0  0  1  0  0  0  0  0  0  0  0  0
   12.2712  -16.5010   25.1444 C   0  0  0  0  0  0  0  0  0  0  0  0
   13.1272  -17.6218   25.5482 C   0  0  0  0  0  0  0  0  0  0  0  0
   13.3953  -17.9176   26.7374 O   0  0  0  0  0  0  0  0  0  0  0  0
   10.4308  -17.3148   26.4462 C   0  0  0  0  0  0  0  0  0  0  0  0
   10.9532  -18.4945   26.9353 O   0  0  0  0  0  0  0  0  0  0  0  0
   13.6921  -18.4261   24.5680 O   0  0  0  0  0  0  0  0  0  0  0  0
    9.6076  -16.6810   27.1424 O   0  0  0  0  0  0  0  0  0  0  0  0
  2  1  1  0
  2  3  1  0
  3  4  1  0
  5  1  1  0
  5  6  1  1
  5  4  1  0
  6  7  2  0
  8  9  1  0
  9 10  1  0
 10 11  1  0
 12 11  1  1
 12 14  1  0
 13 12  1  0
 13  6  1  0
 14 15  2  0
 14 16  1  0
 16 17  1  0
 17 21  1  0
 17 18  1  1
 19 18  1  0
 20 19  2  0
 21 24  2  0
 21 22  1  0
 23 19  1  0
M  END
$$$$
