PMD.pdb
     RDKit          3D

 24 24  0  0  1  0  0  0  0  0999 V2000
    7.3667  -15.0946   19.7826 N   0  0  0  0  0  0  0  0  0  0  0  0
    6.4737  -13.9825   19.5264 C   0  0  0  0  0  0  0  0  0  0  0  0
    7.2888  -12.7396   19.3900 C   0  0  0  0  0  0  0  0  0  0  0  0
    8.6925  -13.2432   19.2463 C   0  0  0  0  0  0  0  0  0  0  0  0
    8.6680  -14.5147   20.0425 C   0  0  1  0  0  0  0  0  0  0  0  0
    8.9341  -14.3405   21.4746 C   0  0  0  0  0  0  0  0  0  0  0  0
   10.0640  -13.8804   21.8050 O   0  0  0  0  0  0  0  0  0  0  0  0
    6.4984  -11.1424   26.9758 C   0  0  0  0  0  0  0  0  0  0  0  0
    5.9858  -12.8561   26.7941 S   0  0  0  0  0  0  0  0  0  0  0  0
    7.3456  -13.8979   26.1330 C   0  0  0  0  0  0  0  0  0  0  0  0
    7.1702  -14.0163   24.6509 C   0  0  0  0  0  0  0  0  0  0  0  0
    8.3501  -14.5691   23.9155 C   0  0  2  0  0  0  0  0  0  0  0  0
    8.0241  -14.6482   22.5026 N   0  0  0  0  0  0  0  0  0  0  0  0
    8.8449  -15.8612   24.4318 C   0  0  0  0  0  0  0  0  0  0  0  0
    8.0854  -16.8264   24.5500 O   0  0  0  0  0  0  0  0  0  0  0  0
   10.1875  -16.0002   24.7964 N   0  0  0  0  0  0  0  0  0  0  0  0
   10.7991  -17.1271   25.4166 C   0  0  1  0  0  0  0  0  0  0  0  0
   12.2809  -17.2107   25.3630 C   0  0  0  0  0  0  0  0  0  0  0  0
   12.8981  -16.8782   24.0744 C   0  0  0  0  0  0  0  0  0  0  0  0
   12.5671  -17.3871   22.9767 O   0  0  0  0  0  0  0  0  0  0  0  0
   10.3849  -17.3127   26.8255 C   0  0  0  0  0  0  0  0  0  0  0  0
    9.7169  -16.3336   27.5316 O   0  0  0  0  0  0  0  0  0  0  0  0
   13.9203  -15.9398   24.0384 O   0  0  0  0  0  0  0  0  0  0  0  0
   10.6510  -18.3953   27.3925 O   0  0  0  0  0  0  0  0  0  0  0  0
  2  1  1  0
  2  3  1  0
  3  4  1  0
  5  1  1  0
  5  6  1  1
  5  4  1  0
  6  7  2  0
  8  9  1  0
  9 10  1  0
 10 11  1  0
 12 11  1  1
 12 14  1  0
 13 12  1  0
 13  6  1  0
 14 15  2  0
 14 16  1  0
 16 17  1  0
 17 21  1  0
 17 18  1  1
 19 18  1  0
 20 19  2  0
 21 24  2  0
 21 22  1  0
 23 19  1  0
M  END
$$$$
