WAK.pdb
     RDKit          3D

 29 30  0  0  1  0  0  0  0  0999 V2000
   27.1874  -22.4688  -14.5640 N   0  0  0  0  0  0  0  0  0  0  0  0
   26.2190  -21.8336  -13.7182 C   0  0  1  0  0  0  0  0  0  0  0  0
   26.6698  -20.4739  -13.2365 C   0  0  0  0  0  0  0  0  0  0  0  0
   27.6539  -20.5359  -12.1436 C   0  0  0  0  0  0  0  0  0  0  0  0
   29.0310  -20.5915  -12.1989 C   0  0  0  0  0  0  0  0  0  0  0  0
   29.5138  -20.6345  -10.9516 N   0  0  0  0  0  0  0  0  0  0  0  0
   28.5162  -20.6102  -10.0529 C   0  0  0  0  0  0  0  0  0  0  0  0
   28.4930  -20.6348   -8.6743 C   0  0  0  0  0  0  0  0  0  0  0  0
   27.2718  -20.5965   -8.0366 C   0  0  0  0  0  0  0  0  0  0  0  0
   26.1045  -20.5353   -8.7451 C   0  0  0  0  0  0  0  0  0  0  0  0
   26.1535  -20.5117  -10.1270 C   0  0  0  0  0  0  0  0  0  0  0  0
   27.3461  -20.5485  -10.7845 C   0  0  0  0  0  0  0  0  0  0  0  0
   24.9306  -21.6358  -14.4321 C   0  0  0  0  0  0  0  0  0  0  0  0
   24.8842  -21.1407  -15.5964 O   0  0  0  0  0  0  0  0  0  0  0  0
   21.5835  -23.1468  -14.0420 C   0  0  0  0  0  0  0  0  0  0  0  0
   22.4244  -21.9669  -14.4999 C   0  0  2  0  0  0  0  0  0  0  0  0
   23.7070  -21.9935  -13.8371 N   0  0  0  0  0  0  0  0  0  0  0  0
   21.6954  -20.7136  -14.2886 C   0  0  0  0  0  0  0  0  0  0  0  0
   21.7697  -20.1493  -13.1676 O   0  0  0  0  0  0  0  0  0  0  0  0
   20.9021  -20.0903  -15.2818 N   0  0  0  0  0  0  0  0  0  0  0  0
   20.1447  -18.8571  -15.0639 C   0  0  1  0  0  0  0  0  0  0  0  0
   20.0037  -18.1852  -16.3929 C   0  0  0  0  0  0  0  0  0  0  0  0
   19.3330  -16.8582  -16.3862 C   0  0  0  0  0  0  0  0  0  0  0  0
   19.3390  -16.2057  -17.7468 C   0  0  0  0  0  0  0  0  0  0  0  0
   18.7022  -14.8342  -17.7219 C   0  0  0  0  0  0  0  0  0  0  0  0
   18.6035  -14.2250  -19.0118 N   0  0  0  0  0  0  0  0  0  0  0  0
   18.8821  -19.1308  -14.3608 C   0  0  0  0  0  0  0  0  0  0  0  0
   18.3933  -18.2243  -13.4427 O   0  0  0  0  0  0  0  0  0  0  0  0
   18.2096  -20.1943  -14.5702 O   0  0  0  0  0  0  0  0  0  0  0  0
  2  1  1  6
  2 13  1  0
  3  2  1  0
  3  4  1  0
  4 12  1  0
  5  4  2  0
  5  6  1  0
  6  7  1  0
  7  8  1  0
  8  9  2  0
 10  9  1  0
 11 10  2  0
 12  7  2  0
 12 11  1  0
 13 17  1  0
 13 14  2  0
 16 15  1  1
 16 18  1  0
 17 16  1  0
 18 19  2  0
 20 21  1  0
 20 18  1  0
 22 23  1  0
 21 22  1  6
 24 23  1  0
 25 24  1  0
 26 25  1  0
 27 28  1  0
 27 21  1  0
 29 27  2  0
M  END
$$$$
