WAK.pdb
     RDKit          3D

 29 30  0  0  1  0  0  0  0  0999 V2000
   26.3966  -19.5854  -11.9895 N   0  0  0  0  0  0  0  0  0  0  0  0
   26.0630  -20.9702  -11.8233 C   0  0  1  0  0  0  0  0  0  0  0  0
   25.5117  -21.2752  -10.4496 C   0  0  0  0  0  0  0  0  0  0  0  0
   26.3738  -20.8030   -9.3540 C   0  0  0  0  0  0  0  0  0  0  0  0
   26.0466  -20.0922   -8.2181 C   0  0  0  0  0  0  0  0  0  0  0  0
   27.1575  -19.8842   -7.5016 N   0  0  0  0  0  0  0  0  0  0  0  0
   28.2253  -20.4270   -8.1087 C   0  0  0  0  0  0  0  0  0  0  0  0
   29.5638  -20.4838   -7.7817 C   0  0  0  0  0  0  0  0  0  0  0  0
   30.4235  -21.1332   -8.6411 C   0  0  0  0  0  0  0  0  0  0  0  0
   29.9700  -21.7112   -9.7937 C   0  0  0  0  0  0  0  0  0  0  0  0
   28.6231  -21.6411  -10.1001 C   0  0  0  0  0  0  0  0  0  0  0  0
   27.7500  -21.0056   -9.2695 C   0  0  0  0  0  0  0  0  0  0  0  0
   25.0347  -21.3965  -12.8081 C   0  0  0  0  0  0  0  0  0  0  0  0
   24.0569  -20.6523  -13.1133 O   0  0  0  0  0  0  0  0  0  0  0  0
   24.7070  -24.4395  -15.0282 C   0  0  0  0  0  0  0  0  0  0  0  0
   24.2226  -23.1053  -14.4860 C   0  0  2  0  0  0  0  0  0  0  0  0
   25.1099  -22.6503  -13.4416 N   0  0  0  0  0  0  0  0  0  0  0  0
   22.8285  -23.2131  -14.0479 C   0  0  0  0  0  0  0  0  0  0  0  0
   22.5877  -23.6215  -12.8835 O   0  0  0  0  0  0  0  0  0  0  0  0
   21.7213  -22.8812  -14.8653 N   0  0  0  0  0  0  0  0  0  0  0  0
   20.3325  -22.9038  -14.4039 C   0  0  1  0  0  0  0  0  0  0  0  0
   19.5358  -22.0763  -15.3619 C   0  0  0  0  0  0  0  0  0  0  0  0
   18.0728  -22.0071  -15.1054 C   0  0  0  0  0  0  0  0  0  0  0  0
   17.3309  -21.2892  -16.2060 C   0  0  0  0  0  0  0  0  0  0  0  0
   15.8399  -21.2530  -15.9563 C   0  0  0  0  0  0  0  0  0  0  0  0
   15.1100  -20.5286  -16.9498 N   0  0  0  0  0  0  0  0  0  0  0  0
   19.8597  -24.2847  -14.2219 C   0  0  0  0  0  0  0  0  0  0  0  0
   20.4086  -25.3060  -14.9697 O   0  0  0  0  0  0  0  0  0  0  0  0
   18.9437  -24.5798  -13.3846 O   0  0  0  0  0  0  0  0  0  0  0  0
  2  1  1  1
  2 13  1  0
  3  2  1  0
  3  4  1  0
  4 12  1  0
  5  4  2  0
  5  6  1  0
  6  7  1  0
  7  8  1  0
  8  9  2  0
 10  9  1  0
 11 10  2  0
 12  7  2  0
 12 11  1  0
 13 17  1  0
 13 14  2  0
 16 15  1  1
 16 18  1  0
 17 16  1  0
 18 19  2  0
 20 21  1  0
 20 18  1  0
 22 23  1  0
 21 22  1  6
 24 23  1  0
 25 24  1  0
 26 25  1  0
 27 28  1  0
 27 21  1  0
 29 27  2  0
M  END
$$$$
