WAK.pdb
     RDKit          3D

 29 30  0  0  1  0  0  0  0  0999 V2000
   24.9416  -19.5104  -12.1656 N   0  0  0  0  0  0  0  0  0  0  0  0
   26.0371  -20.4301  -12.2696 C   0  0  1  0  0  0  0  0  0  0  0  0
   25.9946  -21.5080  -11.2112 C   0  0  0  0  0  0  0  0  0  0  0  0
   26.2299  -21.0017   -9.8493 C   0  0  0  0  0  0  0  0  0  0  0  0
   25.3261  -20.7042   -8.8506 C   0  0  0  0  0  0  0  0  0  0  0  0
   25.9949  -20.2727   -7.7748 N   0  0  0  0  0  0  0  0  0  0  0  0
   27.3177  -20.2662   -8.0065 C   0  0  0  0  0  0  0  0  0  0  0  0
   28.4050  -19.9153   -7.2341 C   0  0  0  0  0  0  0  0  0  0  0  0
   29.6644  -20.0269   -7.7825 C   0  0  0  0  0  0  0  0  0  0  0  0
   29.8427  -20.4741   -9.0618 C   0  0  0  0  0  0  0  0  0  0  0  0
   28.7368  -20.8202   -9.8168 C   0  0  0  0  0  0  0  0  0  0  0  0
   27.4797  -20.7201   -9.3010 C   0  0  0  0  0  0  0  0  0  0  0  0
   26.0383  -21.1163  -13.5880 C   0  0  0  0  0  0  0  0  0  0  0  0
   24.9663  -21.5123  -14.1329 O   0  0  0  0  0  0  0  0  0  0  0  0
   28.7861  -22.0307  -16.0228 C   0  0  0  0  0  0  0  0  0  0  0  0
   27.3343  -21.9890  -15.5764 C   0  0  2  0  0  0  0  0  0  0  0  0
   27.2379  -21.3528  -14.2838 N   0  0  0  0  0  0  0  0  0  0  0  0
   26.7595  -23.3366  -15.5969 C   0  0  0  0  0  0  0  0  0  0  0  0
   27.0288  -24.1260  -14.6562 O   0  0  0  0  0  0  0  0  0  0  0  0
   25.9085  -23.8111  -16.6239 N   0  0  0  0  0  0  0  0  0  0  0  0
   25.2133  -25.0981  -16.5759 C   0  0  1  0  0  0  0  0  0  0  0  0
   23.7565  -24.8203  -16.7707 C   0  0  0  0  0  0  0  0  0  0  0  0
   22.8604  -26.0068  -16.7776 C   0  0  0  0  0  0  0  0  0  0  0  0
   21.4099  -25.6290  -16.9531 C   0  0  0  0  0  0  0  0  0  0  0  0
   20.5121  -26.8434  -17.0315 C   0  0  0  0  0  0  0  0  0  0  0  0
   19.1255  -26.5226  -17.1696 N   0  0  0  0  0  0  0  0  0  0  0  0
   25.8039  -26.0524  -17.5268 C   0  0  0  0  0  0  0  0  0  0  0  0
   25.8498  -25.7473  -18.8716 O   0  0  0  0  0  0  0  0  0  0  0  0
   26.2833  -27.1725  -17.1492 O   0  0  0  0  0  0  0  0  0  0  0  0
  2  1  1  6
  2 13  1  0
  3  2  1  0
  3  4  1  0
  4 12  1  0
  5  4  2  0
  5  6  1  0
  6  7  1  0
  7  8  1  0
  8  9  2  0
 10  9  1  0
 11 10  2  0
 12  7  2  0
 12 11  1  0
 13 17  1  0
 13 14  2  0
 16 15  1  1
 16 18  1  0
 17 16  1  0
 18 19  2  0
 20 21  1  0
 20 18  1  0
 22 23  1  0
 21 22  1  6
 24 23  1  0
 25 24  1  0
 26 25  1  0
 27 28  1  0
 27 21  1  0
 29 27  2  0
M  END
$$$$
