WAK.pdb
     RDKit          3D

 29 30  0  0  1  0  0  0  0  0999 V2000
   28.1661  -22.1998  -12.2097 N   0  0  0  0  0  0  0  0  0  0  0  0
   26.9558  -21.7843  -11.5622 C   0  0  1  0  0  0  0  0  0  0  0  0
   27.1397  -20.5361  -10.7303 C   0  0  0  0  0  0  0  0  0  0  0  0
   28.0965  -20.7047   -9.6244 C   0  0  0  0  0  0  0  0  0  0  0  0
   29.3772  -21.2169   -9.6366 C   0  0  0  0  0  0  0  0  0  0  0  0
   29.8732  -21.1742   -8.3945 N   0  0  0  0  0  0  0  0  0  0  0  0
   28.9774  -20.6527   -7.5408 C   0  0  0  0  0  0  0  0  0  0  0  0
   29.0069  -20.4024   -6.1850 C   0  0  0  0  0  0  0  0  0  0  0  0
   27.8932  -19.8450   -5.5949 C   0  0  0  0  0  0  0  0  0  0  0  0
   26.7795  -19.5434   -6.3278 C   0  0  0  0  0  0  0  0  0  0  0  0
   26.7738  -19.8036   -7.6861 C   0  0  0  0  0  0  0  0  0  0  0  0
   27.8603  -20.3541   -8.2965 C   0  0  0  0  0  0  0  0  0  0  0  0
   25.8896  -21.4908  -12.5552 C   0  0  0  0  0  0  0  0  0  0  0  0
   25.9429  -20.4740  -13.3077 O   0  0  0  0  0  0  0  0  0  0  0  0
   23.1047  -23.4986  -14.0170 C   0  0  0  0  0  0  0  0  0  0  0  0
   23.7117  -22.1530  -13.6567 C   0  0  2  0  0  0  0  0  0  0  0  0
   24.7746  -22.3369  -12.6968 N   0  0  0  0  0  0  0  0  0  0  0  0
   22.6687  -21.2361  -13.1892 C   0  0  0  0  0  0  0  0  0  0  0  0
   22.2776  -21.3183  -11.9971 O   0  0  0  0  0  0  0  0  0  0  0  0
   22.0662  -20.2504  -14.0074 N   0  0  0  0  0  0  0  0  0  0  0  0
   20.9383  -19.4191  -13.5845 C   0  0  1  0  0  0  0  0  0  0  0  0
   20.9223  -18.2136  -14.4699 C   0  0  0  0  0  0  0  0  0  0  0  0
   21.0330  -18.4737  -15.9297 C   0  0  0  0  0  0  0  0  0  0  0  0
   20.8052  -17.2296  -16.7529 C   0  0  0  0  0  0  0  0  0  0  0  0
   20.9547  -17.4935  -18.2344 C   0  0  0  0  0  0  0  0  0  0  0  0
   19.8310  -18.1619  -18.8134 N   0  0  0  0  0  0  0  0  0  0  0  0
   19.6902  -20.1969  -13.5589 C   0  0  0  0  0  0  0  0  0  0  0  0
   18.6253  -19.7673  -12.7941 O   0  0  0  0  0  0  0  0  0  0  0  0
   19.5522  -21.2740  -14.2281 O   0  0  0  0  0  0  0  0  0  0  0  0
  2  1  1  6
  2 13  1  0
  3  2  1  0
  3  4  1  0
  4 12  1  0
  5  4  2  0
  5  6  1  0
  6  7  1  0
  7  8  1  0
  8  9  2  0
 10  9  1  0
 11 10  2  0
 12  7  2  0
 12 11  1  0
 13 17  1  0
 13 14  2  0
 16 15  1  1
 16 18  1  0
 17 16  1  0
 18 19  2  0
 20 21  1  0
 20 18  1  0
 22 23  1  0
 21 22  1  6
 24 23  1  0
 25 24  1  0
 26 25  1  0
 27 28  1  0
 27 21  1  0
 29 27  2  0
M  END
$$$$
