WAK.pdb
     RDKit          3D

 29 30  0  0  1  0  0  0  0  0999 V2000
   26.4614  -22.6972  -12.0359 N   0  0  0  0  0  0  0  0  0  0  0  0
   25.7609  -21.6341  -11.3756 C   0  0  1  0  0  0  0  0  0  0  0  0
   26.6264  -20.4147  -11.1569 C   0  0  0  0  0  0  0  0  0  0  0  0
   27.8447  -20.6926  -10.3791 C   0  0  0  0  0  0  0  0  0  0  0  0
   29.0238  -21.2918  -10.7710 C   0  0  0  0  0  0  0  0  0  0  0  0
   29.8581  -21.3325   -9.7256 N   0  0  0  0  0  0  0  0  0  0  0  0
   29.2893  -20.7839   -8.6398 C   0  0  0  0  0  0  0  0  0  0  0  0
   29.7273  -20.5897   -7.3466 C   0  0  0  0  0  0  0  0  0  0  0  0
   28.8774  -19.9799   -6.4493 C   0  0  0  0  0  0  0  0  0  0  0  0
   27.6270  -19.5730   -6.8224 C   0  0  0  0  0  0  0  0  0  0  0  0
   27.2103  -19.7786   -8.1251 C   0  0  0  0  0  0  0  0  0  0  0  0
   28.0288  -20.3789   -9.0338 C   0  0  0  0  0  0  0  0  0  0  0  0
   24.5833  -21.1939  -12.1683 C   0  0  0  0  0  0  0  0  0  0  0  0
   23.7200  -20.3996  -11.6921 O   0  0  0  0  0  0  0  0  0  0  0  0
   23.5765  -21.4781  -15.7662 C   0  0  0  0  0  0  0  0  0  0  0  0
   23.2225  -21.3542  -14.2937 C   0  0  2  0  0  0  0  0  0  0  0  0
   24.3827  -21.6461  -13.4852 N   0  0  0  0  0  0  0  0  0  0  0  0
   22.0730  -22.2056  -13.9762 C   0  0  0  0  0  0  0  0  0  0  0  0
   22.2630  -23.4317  -13.7736 O   0  0  0  0  0  0  0  0  0  0  0  0
   20.7441  -21.7266  -13.8822 N   0  0  0  0  0  0  0  0  0  0  0  0
   19.5876  -22.5814  -13.6104 C   0  0  1  0  0  0  0  0  0  0  0  0
   18.5630  -21.7331  -12.9264 C   0  0  0  0  0  0  0  0  0  0  0  0
   17.2875  -22.4091  -12.5699 C   0  0  0  0  0  0  0  0  0  0  0  0
   16.3246  -21.4836  -11.8674 C   0  0  0  0  0  0  0  0  0  0  0  0
   14.9911  -22.1458  -11.6025 C   0  0  0  0  0  0  0  0  0  0  0  0
   14.0453  -21.2904  -10.9555 N   0  0  0  0  0  0  0  0  0  0  0  0
   19.1300  -23.2547  -14.8355 C   0  0  0  0  0  0  0  0  0  0  0  0
   19.2385  -22.6176  -16.0544 O   0  0  0  0  0  0  0  0  0  0  0  0
   18.6263  -24.4265  -14.8138 O   0  0  0  0  0  0  0  0  0  0  0  0
  2  1  1  6
  2 13  1  0
  3  2  1  0
  3  4  1  0
  4 12  1  0
  5  4  2  0
  5  6  1  0
  6  7  1  0
  7  8  1  0
  8  9  2  0
 10  9  1  0
 11 10  2  0
 12  7  2  0
 12 11  1  0
 13 17  1  0
 13 14  2  0
 16 15  1  6
 16 18  1  0
 17 16  1  0
 18 19  2  0
 20 21  1  0
 20 18  1  0
 22 23  1  0
 21 22  1  6
 24 23  1  0
 25 24  1  0
 26 25  1  0
 27 28  1  0
 27 21  1  0
 29 27  2  0
M  END
$$$$
