WAK.pdb
     RDKit          3D

 29 30  0  0  1  0  0  0  0  0999 V2000
   27.1882  -15.0499  -20.0467 N   0  0  0  0  0  0  0  0  0  0  0  0
   27.2172  -15.3202  -18.6386 C   0  0  1  0  0  0  0  0  0  0  0  0
   26.9236  -14.0946  -17.8046 C   0  0  0  0  0  0  0  0  0  0  0  0
   27.8882  -13.0017  -18.0093 C   0  0  0  0  0  0  0  0  0  0  0  0
   27.6654  -11.6710  -18.2960 C   0  0  0  0  0  0  0  0  0  0  0  0
   28.8442  -11.0453  -18.3948 N   0  0  0  0  0  0  0  0  0  0  0  0
   29.8576  -11.9015  -18.1861 C   0  0  0  0  0  0  0  0  0  0  0  0
   31.2284  -11.7509  -18.1795 C   0  0  0  0  0  0  0  0  0  0  0  0
   32.0100  -12.8569  -17.9246 C   0  0  0  0  0  0  0  0  0  0  0  0
   31.4493  -14.0798  -17.6825 C   0  0  0  0  0  0  0  0  0  0  0  0
   30.0721  -14.2058  -17.6945 C   0  0  0  0  0  0  0  0  0  0  0  0
   29.2743  -13.1299  -17.9435 C   0  0  0  0  0  0  0  0  0  0  0  0
   26.2095  -16.3483  -18.2688 C   0  0  0  0  0  0  0  0  0  0  0  0
   25.0822  -16.4113  -18.8416 O   0  0  0  0  0  0  0  0  0  0  0  0
   26.2910  -19.3424  -15.9749 C   0  0  0  0  0  0  0  0  0  0  0  0
   25.5584  -18.3301  -16.8393 C   0  0  2  0  0  0  0  0  0  0  0  0
   26.4724  -17.2953  -17.2623 N   0  0  0  0  0  0  0  0  0  0  0  0
   24.3900  -17.8072  -16.1262 C   0  0  0  0  0  0  0  0  0  0  0  0
   24.5577  -16.9106  -15.2610 O   0  0  0  0  0  0  0  0  0  0  0  0
   23.0665  -18.2548  -16.3544 N   0  0  0  0  0  0  0  0  0  0  0  0
   21.8955  -17.7256  -15.6537 C   0  0  1  0  0  0  0  0  0  0  0  0
   20.8841  -17.3647  -16.6949 C   0  0  0  0  0  0  0  0  0  0  0  0
   20.9051  -15.9542  -17.1649 C   0  0  0  0  0  0  0  0  0  0  0  0
   19.8133  -15.6670  -18.1662 C   0  0  0  0  0  0  0  0  0  0  0  0
   19.9233  -14.2732  -18.7425 C   0  0  0  0  0  0  0  0  0  0  0  0
   18.9534  -13.9940  -19.7555 N   0  0  0  0  0  0  0  0  0  0  0  0
   21.4287  -18.6651  -14.6227 C   0  0  0  0  0  0  0  0  0  0  0  0
   20.6043  -18.2226  -13.6087 O   0  0  0  0  0  0  0  0  0  0  0  0
   21.7637  -19.8959  -14.6294 O   0  0  0  0  0  0  0  0  0  0  0  0
  2  1  1  6
  2 13  1  0
  3  2  1  0
  3  4  1  0
  4 12  1  0
  5  4  2  0
  5  6  1  0
  6  7  1  0
  7  8  1  0
  8  9  2  0
 10  9  1  0
 11 10  2  0
 12  7  2  0
 12 11  1  0
 13 17  1  0
 13 14  2  0
 16 15  1  1
 16 18  1  0
 17 16  1  0
 18 19  2  0
 20 21  1  0
 20 18  1  0
 22 23  1  0
 21 22  1  6
 24 23  1  0
 25 24  1  0
 26 25  1  0
 27 28  1  0
 27 21  1  0
 29 27  2  0
M  END
$$$$
