WAK.pdb
     RDKit          3D

 29 30  0  0  1  0  0  0  0  0999 V2000
   24.7566  -19.0641   -9.1508 N   0  0  0  0  0  0  0  0  0  0  0  0
   25.9817  -19.7125   -9.5189 C   0  0  1  0  0  0  0  0  0  0  0  0
   26.1741  -21.0359   -8.8148 C   0  0  0  0  0  0  0  0  0  0  0  0
   26.2054  -20.9201   -7.3478 C   0  0  0  0  0  0  0  0  0  0  0  0
   25.2234  -21.1986   -6.4200 C   0  0  0  0  0  0  0  0  0  0  0  0
   25.6995  -20.9455   -5.1953 N   0  0  0  0  0  0  0  0  0  0  0  0
   26.9669  -20.5059   -5.2576 C   0  0  0  0  0  0  0  0  0  0  0  0
   27.8757  -20.1198   -4.2950 C   0  0  0  0  0  0  0  0  0  0  0  0
   29.1276  -19.7098   -4.6997 C   0  0  0  0  0  0  0  0  0  0  0  0
   29.4708  -19.6829   -6.0224 C   0  0  0  0  0  0  0  0  0  0  0  0
   28.5422  -20.0749   -6.9694 C   0  0  0  0  0  0  0  0  0  0  0  0
   27.2970  -20.4849   -6.5988 C   0  0  0  0  0  0  0  0  0  0  0  0
   26.0258  -19.9872  -10.9788 C   0  0  0  0  0  0  0  0  0  0  0  0
   24.9691  -20.1387  -11.6596 O   0  0  0  0  0  0  0  0  0  0  0  0
   28.8740  -20.0816  -13.4646 C   0  0  0  0  0  0  0  0  0  0  0  0
   27.3992  -20.1010  -13.0992 C   0  0  2  0  0  0  0  0  0  0  0  0
   27.2508  -20.0899  -11.6629 N   0  0  0  0  0  0  0  0  0  0  0  0
   26.7350  -21.2414  -13.7358 C   0  0  0  0  0  0  0  0  0  0  0  0
   26.5663  -22.2948  -13.0705 O   0  0  0  0  0  0  0  0  0  0  0  0
   26.2652  -21.2304  -15.0712 N   0  0  0  0  0  0  0  0  0  0  0  0
   24.9705  -21.7743  -15.4836 C   0  0  1  0  0  0  0  0  0  0  0  0
   23.9394  -21.2072  -14.5604 C   0  0  0  0  0  0  0  0  0  0  0  0
   22.5403  -21.6553  -14.7893 C   0  0  0  0  0  0  0  0  0  0  0  0
   21.9755  -22.4003  -13.6048 C   0  0  0  0  0  0  0  0  0  0  0  0
   20.5550  -22.8593  -13.8470 C   0  0  0  0  0  0  0  0  0  0  0  0
   20.3972  -24.2799  -13.8058 N   0  0  0  0  0  0  0  0  0  0  0  0
   24.7309  -21.5373  -16.9154 C   0  0  0  0  0  0  0  0  0  0  0  0
   24.9689  -20.2911  -17.4576 O   0  0  0  0  0  0  0  0  0  0  0  0
   24.3024  -22.4563  -17.6893 O   0  0  0  0  0  0  0  0  0  0  0  0
  2  1  1  6
  2 13  1  0
  3  2  1  0
  3  4  1  0
  4 12  1  0
  5  4  2  0
  5  6  1  0
  6  7  1  0
  7  8  1  0
  8  9  2  0
 10  9  1  0
 11 10  2  0
 12  7  2  0
 12 11  1  0
 13 17  1  0
 13 14  2  0
 16 15  1  1
 16 18  1  0
 17 16  1  0
 18 19  2  0
 20 21  1  0
 20 18  1  0
 22 23  1  0
 21 22  1  1
 24 23  1  0
 25 24  1  0
 26 25  1  0
 27 28  1  0
 27 21  1  0
 29 27  2  0
M  END
$$$$
