WAK.pdb
     RDKit          3D

 29 30  0  0  1  0  0  0  0  0999 V2000
   26.1643  -22.9963  -11.8255 N   0  0  0  0  0  0  0  0  0  0  0  0
   25.5448  -21.8227  -11.2817 C   0  0  1  0  0  0  0  0  0  0  0  0
   26.4310  -20.6019  -11.3723 C   0  0  0  0  0  0  0  0  0  0  0  0
   27.6105  -20.6675  -10.4942 C   0  0  0  0  0  0  0  0  0  0  0  0
   28.9223  -20.9647  -10.8001 C   0  0  0  0  0  0  0  0  0  0  0  0
   29.6533  -20.9032   -9.6809 N   0  0  0  0  0  0  0  0  0  0  0  0
   28.8868  -20.5758   -8.6279 C   0  0  0  0  0  0  0  0  0  0  0  0
   29.1595  -20.3906   -7.2889 C   0  0  0  0  0  0  0  0  0  0  0  0
   28.1224  -20.0501   -6.4477 C   0  0  0  0  0  0  0  0  0  0  0  0
   26.8488  -19.8969   -6.9197 C   0  0  0  0  0  0  0  0  0  0  0  0
   26.6000  -20.0879   -8.2667 C   0  0  0  0  0  0  0  0  0  0  0  0
   27.6056  -20.4250   -9.1219 C   0  0  0  0  0  0  0  0  0  0  0  0
   24.2850  -21.4988  -12.0008 C   0  0  0  0  0  0  0  0  0  0  0  0
   24.1317  -21.7676  -13.2285 O   0  0  0  0  0  0  0  0  0  0  0  0
   20.9905  -20.0166  -10.8756 C   0  0  0  0  0  0  0  0  0  0  0  0
   21.8768  -20.7370  -11.8778 C   0  0  2  0  0  0  0  0  0  0  0  0
   23.2095  -20.8777  -11.3401 N   0  0  0  0  0  0  0  0  0  0  0  0
   21.8491  -20.0434  -13.1682 C   0  0  0  0  0  0  0  0  0  0  0  0
   22.5296  -18.9957  -13.3093 O   0  0  0  0  0  0  0  0  0  0  0  0
   21.0936  -20.4858  -14.2807 N   0  0  0  0  0  0  0  0  0  0  0  0
   21.1228  -19.8401  -15.5938 C   0  0  1  0  0  0  0  0  0  0  0  0
   20.6431  -20.8463  -16.5911 C   0  0  0  0  0  0  0  0  0  0  0  0
   20.4721  -20.3552  -17.9842 C   0  0  0  0  0  0  0  0  0  0  0  0
   21.5198  -20.9071  -18.9195 C   0  0  0  0  0  0  0  0  0  0  0  0
   21.3820  -20.3505  -20.3188 C   0  0  0  0  0  0  0  0  0  0  0  0
   22.3672  -20.8430  -21.2308 N   0  0  0  0  0  0  0  0  0  0  0  0
   20.3797  -18.5708  -15.5740 C   0  0  0  0  0  0  0  0  0  0  0  0
   20.7213  -17.5579  -16.4463 O   0  0  0  0  0  0  0  0  0  0  0  0
   19.4145  -18.3663  -14.7656 O   0  0  0  0  0  0  0  0  0  0  0  0
  2  1  1  6
  2 13  1  0
  3  2  1  0
  3  4  1  0
  4 12  1  0
  5  4  2  0
  5  6  1  0
  6  7  1  0
  7  8  1  0
  8  9  2  0
 10  9  1  0
 11 10  2  0
 12  7  2  0
 12 11  1  0
 13 17  1  0
 13 14  2  0
 16 15  1  1
 16 18  1  0
 17 16  1  0
 18 19  2  0
 20 21  1  0
 20 18  1  0
 22 23  1  0
 21 22  1  6
 24 23  1  0
 25 24  1  0
 26 25  1  0
 27 28  1  0
 27 21  1  0
 29 27  2  0
M  END
$$$$
