WAK.pdb
     RDKit          3D

 29 30  0  0  1  0  0  0  0  0999 V2000
   28.1061  -21.4091   -9.0958 N   0  0  0  0  0  0  0  0  0  0  0  0
   26.6725  -21.4442   -9.1161 C   0  0  1  0  0  0  0  0  0  0  0  0
   26.0548  -20.6346   -7.9994 C   0  0  0  0  0  0  0  0  0  0  0  0
   26.9956  -19.6963   -7.3661 C   0  0  0  0  0  0  0  0  0  0  0  0
   27.4319  -18.4603   -7.7959 C   0  0  0  0  0  0  0  0  0  0  0  0
   28.2872  -17.9646   -6.8940 N   0  0  0  0  0  0  0  0  0  0  0  0
   28.4474  -18.8177   -5.8693 C   0  0  0  0  0  0  0  0  0  0  0  0
   29.2041  -18.7708   -4.7173 C   0  0  0  0  0  0  0  0  0  0  0  0
   29.1437  -19.8378   -3.8472 C   0  0  0  0  0  0  0  0  0  0  0  0
   28.3550  -20.9226   -4.1106 C   0  0  0  0  0  0  0  0  0  0  0  0
   27.6051  -20.9466   -5.2725 C   0  0  0  0  0  0  0  0  0  0  0  0
   27.6450  -19.9062   -6.1511 C   0  0  0  0  0  0  0  0  0  0  0  0
   26.1405  -20.8995  -10.3925 C   0  0  0  0  0  0  0  0  0  0  0  0
   25.9735  -19.6567  -10.5673 O   0  0  0  0  0  0  0  0  0  0  0  0
   25.6314  -22.4389  -13.7795 C   0  0  0  0  0  0  0  0  0  0  0  0
   25.4283  -21.3089  -12.7842 C   0  0  2  0  0  0  0  0  0  0  0  0
   25.8006  -21.7497  -11.4606 N   0  0  0  0  0  0  0  0  0  0  0  0
   24.0521  -20.8113  -12.8573 C   0  0  0  0  0  0  0  0  0  0  0  0
   23.2012  -21.2574  -12.0464 O   0  0  0  0  0  0  0  0  0  0  0  0
   23.6154  -19.8465  -13.7969 N   0  0  0  0  0  0  0  0  0  0  0  0
   22.2246  -19.4107  -13.9302 C   0  0  1  0  0  0  0  0  0  0  0  0
   22.2162  -18.2408  -14.8622 C   0  0  0  0  0  0  0  0  0  0  0  0
   20.9038  -17.5695  -15.0561 C   0  0  0  0  0  0  0  0  0  0  0  0
   20.9937  -16.3963  -16.0011 C   0  0  0  0  0  0  0  0  0  0  0  0
   19.6721  -15.6741  -16.1374 C   0  0  0  0  0  0  0  0  0  0  0  0
   19.7423  -14.4997  -16.9501 N   0  0  0  0  0  0  0  0  0  0  0  0
   21.3558  -20.5316  -14.3205 C   0  0  0  0  0  0  0  0  0  0  0  0
   20.0917  -20.6454  -13.7794 O   0  0  0  0  0  0  0  0  0  0  0  0
   21.7334  -21.4198  -15.1546 O   0  0  0  0  0  0  0  0  0  0  0  0
  2  1  1  6
  2 13  1  0
  3  2  1  0
  3  4  1  0
  4 12  1  0
  5  4  2  0
  5  6  1  0
  6  7  1  0
  7  8  1  0
  8  9  2  0
 10  9  1  0
 11 10  2  0
 12  7  2  0
 12 11  1  0
 13 17  1  0
 13 14  2  0
 16 15  1  6
 16 18  1  0
 17 16  1  0
 18 19  2  0
 20 21  1  0
 20 18  1  0
 22 23  1  0
 21 22  1  6
 24 23  1  0
 25 24  1  0
 26 25  1  0
 27 28  1  0
 27 21  1  0
 29 27  2  0
M  END
$$$$
