WAK.pdb
     RDKit          3D

 29 30  0  0  1  0  0  0  0  0999 V2000
   26.6413  -22.3103  -14.7288 N   0  0  0  0  0  0  0  0  0  0  0  0
   26.4810  -21.6033  -13.4914 C   0  0  1  0  0  0  0  0  0  0  0  0
   26.9301  -20.1631  -13.5816 C   0  0  0  0  0  0  0  0  0  0  0  0
   28.3738  -19.9843  -13.3569 C   0  0  0  0  0  0  0  0  0  0  0  0
   29.3082  -19.3128  -14.1176 C   0  0  0  0  0  0  0  0  0  0  0  0
   30.5034  -19.4128  -13.5242 N   0  0  0  0  0  0  0  0  0  0  0  0
   30.4148  -20.1269  -12.3903 C   0  0  0  0  0  0  0  0  0  0  0  0
   31.3427  -20.5032  -11.4421 C   0  0  0  0  0  0  0  0  0  0  0  0
   30.9174  -21.2546  -10.3680 C   0  0  0  0  0  0  0  0  0  0  0  0
   29.6080  -21.6238  -10.2361 C   0  0  0  0  0  0  0  0  0  0  0  0
   28.6959  -21.2343  -11.2000 C   0  0  0  0  0  0  0  0  0  0  0  0
   29.0875  -20.4912  -12.2726 C   0  0  0  0  0  0  0  0  0  0  0  0
   25.0580  -21.5881  -13.0626 C   0  0  0  0  0  0  0  0  0  0  0  0
   24.1173  -21.8484  -13.8690 O   0  0  0  0  0  0  0  0  0  0  0  0
   23.3485  -20.6439   -9.8277 C   0  0  0  0  0  0  0  0  0  0  0  0
   23.3475  -21.2047  -11.2399 C   0  0  2  0  0  0  0  0  0  0  0  0
   24.7011  -21.2819  -11.7368 N   0  0  0  0  0  0  0  0  0  0  0  0
   22.4654  -20.4106  -12.0991 C   0  0  0  0  0  0  0  0  0  0  0  0
   22.7940  -19.2303  -12.3813 O   0  0  0  0  0  0  0  0  0  0  0  0
   21.2500  -20.8965  -12.6384 N   0  0  0  0  0  0  0  0  0  0  0  0
   20.3757  -20.1128  -13.5123 C   0  0  1  0  0  0  0  0  0  0  0  0
   19.6665  -21.0784  -14.4077 C   0  0  0  0  0  0  0  0  0  0  0  0
   18.6080  -20.5042  -15.2799 C   0  0  0  0  0  0  0  0  0  0  0  0
   17.9952  -21.5368  -16.1938 C   0  0  0  0  0  0  0  0  0  0  0  0
   19.0446  -22.3796  -16.8833 C   0  0  0  0  0  0  0  0  0  0  0  0
   18.4994  -23.3706  -17.7582 N   0  0  0  0  0  0  0  0  0  0  0  0
   19.5033  -19.2259  -12.7275 C   0  0  0  0  0  0  0  0  0  0  0  0
   18.9222  -18.1258  -13.3238 O   0  0  0  0  0  0  0  0  0  0  0  0
   19.2596  -19.4381  -11.4935 O   0  0  0  0  0  0  0  0  0  0  0  0
  2  1  1  6
  2 13  1  0
  3  2  1  0
  3  4  1  0
  4 12  1  0
  5  4  2  0
  5  6  1  0
  6  7  1  0
  7  8  1  0
  8  9  2  0
 10  9  1  0
 11 10  2  0
 12  7  2  0
 12 11  1  0
 13 17  1  0
 13 14  2  0
 16 15  1  1
 16 18  1  0
 17 16  1  0
 18 19  2  0
 20 21  1  0
 20 18  1  0
 22 23  1  0
 21 22  1  1
 24 23  1  0
 25 24  1  0
 26 25  1  0
 27 28  1  0
 27 21  1  0
 29 27  2  0
M  END
$$$$
