FNC.pdb
     RDKit          3D

 26 26  0  0  1  0  0  0  0  0999 V2000
    7.4072  -14.5157   20.6284 N   0  0  0  0  0  0  0  0  0  0  0  0
    7.7794  -14.1173   21.9708 C   0  0  1  0  0  0  0  0  0  0  0  0
    6.4973  -13.7224   22.7095 C   0  0  0  0  0  0  0  0  0  0  0  0
    6.7741  -13.4028   24.1194 C   0  0  0  0  0  0  0  0  0  0  0  0
    6.4127  -14.2920   25.1100 C   0  0  0  0  0  0  0  0  0  0  0  0
    6.6652  -14.0072   26.4359 C   0  0  0  0  0  0  0  0  0  0  0  0
    7.2880  -12.8123   26.7550 C   0  0  0  0  0  0  0  0  0  0  0  0
    7.6649  -11.8967   25.7927 C   0  0  0  0  0  0  0  0  0  0  0  0
    7.3926  -12.2228   24.4770 C   0  0  0  0  0  0  0  0  0  0  0  0
    8.2980  -15.3281   22.6662 C   0  0  0  0  0  0  0  0  0  0  0  0
    7.6951  -16.4077   22.7160 O   0  0  0  0  0  0  0  0  0  0  0  0
   11.2727  -17.6566   21.6815 N   0  0  0  0  0  0  0  0  0  0  0  0
   12.2336  -16.8196   22.3349 C   0  0  0  0  0  0  0  0  0  0  0  0
   13.3851  -16.8105   21.8449 O   0  0  0  0  0  0  0  0  0  0  0  0
   11.7844  -16.0608   23.5026 C   0  0  0  0  0  0  0  0  0  0  0  0
   10.3178  -16.3347   23.8115 C   0  0  2  0  0  0  0  0  0  0  0  0
    9.5608  -15.2087   23.3011 N   0  0  0  0  0  0  0  0  0  0  0  0
   10.1028  -16.3267   25.3028 C   0  0  0  0  0  0  0  0  0  0  0  0
   10.3765  -15.3467   26.0304 O   0  0  0  0  0  0  0  0  0  0  0  0
    9.5619  -17.4789   25.9443 N   0  0  0  0  0  0  0  0  0  0  0  0
    9.4191  -17.6222   27.3564 C   0  0  1  0  0  0  0  0  0  0  0  0
    8.0009  -17.4620   27.8458 C   0  0  0  0  0  0  0  0  0  0  0  0
    6.9084  -18.6102   26.9626 S   0  0  0  0  0  0  0  0  0  0  0  0
    9.9564  -18.9314   27.7948 C   0  0  0  0  0  0  0  0  0  0  0  0
   10.1137  -19.1746   29.1477 O   0  0  0  0  0  0  0  0  0  0  0  0
   10.2749  -19.8294   26.9862 O   0  0  0  0  0  0  0  0  0  0  0  0
  2  1  1  6
  2 10  1  0
  2  3  1  0
  3  4  1  0
  4  5  2  0
  6  5  1  0
  7  6  2  0
  8  9  2  0
  8  7  1  0
  9  4  1  0
 10 17  1  0
 11 10  2  0
 13 12  1  0
 14 13  2  0
 15 13  1  0
 16 15  1  1
 16 18  1  0
 17 16  1  0
 18 19  2  0
 18 20  1  0
 20 21  1  0
 21 24  1  0
 21 22  1  6
 23 22  1  0
 24 26  2  0
 24 25  1  0
M  END
$$$$
