FNC.pdb
     RDKit          3D

 26 26  0  0  1  0  0  0  0  0999 V2000
    5.5844  -17.7066   25.3386 N   0  0  0  0  0  0  0  0  0  0  0  0
    6.2989  -16.4752   25.0697 C   0  0  1  0  0  0  0  0  0  0  0  0
    6.9961  -16.0512   26.3657 C   0  0  0  0  0  0  0  0  0  0  0  0
    7.2555  -14.6023   26.3794 C   0  0  0  0  0  0  0  0  0  0  0  0
    8.5322  -14.1300   26.1572 C   0  0  0  0  0  0  0  0  0  0  0  0
    8.7916  -12.7752   26.1667 C   0  0  0  0  0  0  0  0  0  0  0  0
    7.7472  -11.8974   26.4034 C   0  0  0  0  0  0  0  0  0  0  0  0
    6.4560  -12.3308   26.6301 C   0  0  0  0  0  0  0  0  0  0  0  0
    6.2413  -13.6965   26.6115 C   0  0  0  0  0  0  0  0  0  0  0  0
    7.3866  -16.7941   24.1034 C   0  0  0  0  0  0  0  0  0  0  0  0
    7.9855  -17.8765   24.0697 O   0  0  0  0  0  0  0  0  0  0  0  0
    6.0773  -14.2655   20.4821 N   0  0  0  0  0  0  0  0  0  0  0  0
    7.0653  -15.3021   20.4654 C   0  0  0  0  0  0  0  0  0  0  0  0
    6.7110  -16.3977   19.9754 O   0  0  0  0  0  0  0  0  0  0  0  0
    8.3834  -14.9870   21.0171 C   0  0  0  0  0  0  0  0  0  0  0  0
    8.7503  -15.9342   22.1526 C   0  0  2  0  0  0  0  0  0  0  0  0
    7.7369  -15.7783   23.1774 N   0  0  0  0  0  0  0  0  0  0  0  0
   10.0424  -15.4894   22.7876 C   0  0  0  0  0  0  0  0  0  0  0  0
   10.5464  -14.3602   22.5994 O   0  0  0  0  0  0  0  0  0  0  0  0
   10.7476  -16.3781   23.6504 N   0  0  0  0  0  0  0  0  0  0  0  0
   11.9391  -16.0382   24.3573 C   0  0  1  0  0  0  0  0  0  0  0  0
   12.0144  -16.6261   25.7448 C   0  0  0  0  0  0  0  0  0  0  0  0
   10.5438  -16.1543   26.6971 S   0  0  0  0  0  0  0  0  0  0  0  0
   13.1308  -16.4427   23.5756 C   0  0  0  0  0  0  0  0  0  0  0  0
   14.3845  -16.0486   24.0085 O   0  0  0  0  0  0  0  0  0  0  0  0
   13.0477  -17.1295   22.5348 O   0  0  0  0  0  0  0  0  0  0  0  0
  2  1  1  1
  2 10  1  0
  2  3  1  0
  3  4  1  0
  4  5  2  0
  6  5  1  0
  7  6  2  0
  8  9  2  0
  8  7  1  0
  9  4  1  0
 10 17  1  0
 11 10  2  0
 13 12  1  0
 14 13  2  0
 15 13  1  0
 16 15  1  6
 16 18  1  0
 17 16  1  0
 18 19  2  0
 18 20  1  0
 20 21  1  0
 21 24  1  0
 21 22  1  1
 23 22  1  0
 24 26  2  0
 24 25  1  0
M  END
$$$$
