FNC.pdb
     RDKit          3D

 26 26  0  0  1  0  0  0  0  0999 V2000
    5.7773  -17.1143   24.9633 N   0  0  0  0  0  0  0  0  0  0  0  0
    6.8317  -16.1851   24.6107 C   0  0  1  0  0  0  0  0  0  0  0  0
    7.3089  -15.5137   25.9018 C   0  0  0  0  0  0  0  0  0  0  0  0
    7.0116  -14.0721   25.8915 C   0  0  0  0  0  0  0  0  0  0  0  0
    7.6755  -13.2391   25.0152 C   0  0  0  0  0  0  0  0  0  0  0  0
    7.4083  -11.8860   24.9933 C   0  0  0  0  0  0  0  0  0  0  0  0
    6.4614  -11.3785   25.8670 C   0  0  0  0  0  0  0  0  0  0  0  0
    5.7758  -12.1793   26.7587 C   0  0  0  0  0  0  0  0  0  0  0  0
    6.0751  -13.5290   26.7465 C   0  0  0  0  0  0  0  0  0  0  0  0
    7.9841  -16.9878   24.1146 C   0  0  0  0  0  0  0  0  0  0  0  0
    8.2277  -18.1453   24.4786 O   0  0  0  0  0  0  0  0  0  0  0  0
   11.5265  -17.5479   19.6905 N   0  0  0  0  0  0  0  0  0  0  0  0
   11.6727  -16.6644   20.8081 C   0  0  0  0  0  0  0  0  0  0  0  0
   12.8451  -16.4143   21.1673 O   0  0  0  0  0  0  0  0  0  0  0  0
   10.4504  -16.1418   21.4196 C   0  0  0  0  0  0  0  0  0  0  0  0
   10.0166  -16.9925   22.6068 C   0  0  2  0  0  0  0  0  0  0  0  0
    8.8376  -16.3638   23.1690 N   0  0  0  0  0  0  0  0  0  0  0  0
   11.0652  -16.9295   23.6870 C   0  0  0  0  0  0  0  0  0  0  0  0
   11.4413  -15.8605   24.2167 O   0  0  0  0  0  0  0  0  0  0  0  0
   11.6766  -18.1315   24.1484 N   0  0  0  0  0  0  0  0  0  0  0  0
   12.2454  -18.2993   25.4458 C   0  0  1  0  0  0  0  0  0  0  0  0
   11.2519  -18.1517   26.5716 C   0  0  0  0  0  0  0  0  0  0  0  0
   12.0586  -18.5034   28.1584 S   0  0  0  0  0  0  0  0  0  0  0  0
   12.9212  -19.6142   25.5421 C   0  0  0  0  0  0  0  0  0  0  0  0
   13.7980  -19.8447   26.5872 O   0  0  0  0  0  0  0  0  0  0  0  0
   12.7293  -20.5283   24.7117 O   0  0  0  0  0  0  0  0  0  0  0  0
  2  1  1  1
  2 10  1  0
  2  3  1  0
  3  4  1  0
  4  5  2  0
  6  5  1  0
  7  6  2  0
  8  9  2  0
  8  7  1  0
  9  4  1  0
 10 17  1  0
 11 10  2  0
 13 12  1  0
 14 13  2  0
 15 13  1  0
 16 15  1  6
 16 18  1  0
 17 16  1  0
 18 19  2  0
 18 20  1  0
 20 21  1  0
 21 24  1  0
 21 22  1  1
 23 22  1  0
 24 26  2  0
 24 25  1  0
M  END
$$$$
