FNC.pdb
     RDKit          3D

 26 26  0  0  1  0  0  0  0  0999 V2000
    5.8708  -17.8043   24.0157 N   0  0  0  0  0  0  0  0  0  0  0  0
    6.7225  -16.6452   24.1901 C   0  0  1  0  0  0  0  0  0  0  0  0
    6.4251  -16.0551   25.5718 C   0  0  0  0  0  0  0  0  0  0  0  0
    6.8034  -14.6340   25.6345 C   0  0  0  0  0  0  0  0  0  0  0  0
    6.2716  -13.8232   26.6155 C   0  0  0  0  0  0  0  0  0  0  0  0
    6.6161  -12.4895   26.6877 C   0  0  0  0  0  0  0  0  0  0  0  0
    7.5055  -11.9786   25.7575 C   0  0  0  0  0  0  0  0  0  0  0  0
    8.0593  -12.7574   24.7609 C   0  0  0  0  0  0  0  0  0  0  0  0
    7.6863  -14.0883   24.7259 C   0  0  0  0  0  0  0  0  0  0  0  0
    8.1293  -17.1313   24.2451 C   0  0  0  0  0  0  0  0  0  0  0  0
    8.4882  -18.1396   24.8665 O   0  0  0  0  0  0  0  0  0  0  0  0
   12.8606  -17.5981   21.3438 N   0  0  0  0  0  0  0  0  0  0  0  0
   12.4829  -16.4055   22.0409 C   0  0  0  0  0  0  0  0  0  0  0  0
   13.4188  -15.6947   22.4708 O   0  0  0  0  0  0  0  0  0  0  0  0
   11.0526  -16.1319   22.1842 C   0  0  0  0  0  0  0  0  0  0  0  0
   10.5055  -16.7064   23.4849 C   0  0  2  0  0  0  0  0  0  0  0  0
    9.0952  -16.3745   23.5335 N   0  0  0  0  0  0  0  0  0  0  0  0
   11.1311  -15.9956   24.6569 C   0  0  0  0  0  0  0  0  0  0  0  0
   11.6955  -14.8832   24.5633 O   0  0  0  0  0  0  0  0  0  0  0  0
   11.0932  -16.5963   25.9490 N   0  0  0  0  0  0  0  0  0  0  0  0
   11.1608  -15.8721   27.1762 C   0  0  1  0  0  0  0  0  0  0  0  0
   10.1329  -14.7741   27.2944 C   0  0  0  0  0  0  0  0  0  0  0  0
   10.3449  -13.8952   28.8676 S   0  0  0  0  0  0  0  0  0  0  0  0
   11.0387  -16.7996   28.3250 C   0  0  0  0  0  0  0  0  0  0  0  0
   11.9190  -16.6764   29.3853 O   0  0  0  0  0  0  0  0  0  0  0  0
   10.1670  -17.6939   28.3742 O   0  0  0  0  0  0  0  0  0  0  0  0
  2  1  1  1
  2 10  1  0
  2  3  1  0
  3  4  1  0
  4  5  2  0
  6  5  1  0
  7  6  2  0
  8  9  2  0
  8  7  1  0
  9  4  1  0
 10 17  1  0
 11 10  2  0
 13 12  1  0
 14 13  2  0
 15 13  1  0
 16 15  1  6
 16 18  1  0
 17 16  1  0
 18 19  2  0
 18 20  1  0
 20 21  1  0
 21 24  1  0
 21 22  1  6
 23 22  1  0
 24 26  2  0
 24 25  1  0
M  END
$$$$
