FNC.pdb
     RDKit          3D

 26 26  0  0  1  0  0  0  0  0999 V2000
    5.8470  -16.1135   24.7416 N   0  0  0  0  0  0  0  0  0  0  0  0
    6.7427  -15.9424   23.6156 C   0  0  1  0  0  0  0  0  0  0  0  0
    7.0891  -14.4536   23.5208 C   0  0  0  0  0  0  0  0  0  0  0  0
    7.0847  -13.8221   24.8504 C   0  0  0  0  0  0  0  0  0  0  0  0
    5.8896  -13.4591   25.4356 C   0  0  0  0  0  0  0  0  0  0  0  0
    5.8686  -12.8663   26.6809 C   0  0  0  0  0  0  0  0  0  0  0  0
    7.0690  -12.6419   27.3335 C   0  0  0  0  0  0  0  0  0  0  0  0
    8.2856  -12.9907   26.7814 C   0  0  0  0  0  0  0  0  0  0  0  0
    8.2598  -13.5821   25.5320 C   0  0  0  0  0  0  0  0  0  0  0  0
    8.0154  -16.6401   23.9499 C   0  0  0  0  0  0  0  0  0  0  0  0
    8.1517  -17.4053   24.9129 O   0  0  0  0  0  0  0  0  0  0  0  0
   10.8112  -18.2567   20.3359 N   0  0  0  0  0  0  0  0  0  0  0  0
   10.7870  -16.8818   20.7361 C   0  0  0  0  0  0  0  0  0  0  0  0
   10.3447  -16.0674   19.8953 O   0  0  0  0  0  0  0  0  0  0  0  0
   11.2767  -16.5607   22.0771 C   0  0  0  0  0  0  0  0  0  0  0  0
   10.3655  -17.1375   23.1533 C   0  0  2  0  0  0  0  0  0  0  0  0
    9.1218  -16.3949   23.0967 N   0  0  0  0  0  0  0  0  0  0  0  0
   10.9458  -16.8554   24.5149 C   0  0  0  0  0  0  0  0  0  0  0  0
   11.5491  -15.7968   24.7979 O   0  0  0  0  0  0  0  0  0  0  0  0
   10.8164  -17.8245   25.5521 N   0  0  0  0  0  0  0  0  0  0  0  0
   11.3807  -17.6899   26.8553 C   0  0  1  0  0  0  0  0  0  0  0  0
   10.3926  -17.2461   27.9055 C   0  0  0  0  0  0  0  0  0  0  0  0
    9.0006  -18.4079   27.9753 S   0  0  0  0  0  0  0  0  0  0  0  0
   12.0177  -18.9613   27.2709 C   0  0  0  0  0  0  0  0  0  0  0  0
   11.8760  -20.0786   26.4672 O   0  0  0  0  0  0  0  0  0  0  0  0
   12.6814  -19.0647   28.3247 O   0  0  0  0  0  0  0  0  0  0  0  0
  2  1  1  1
  2 10  1  0
  2  3  1  0
  3  4  1  0
  4  5  2  0
  6  5  1  0
  7  6  2  0
  8  9  2  0
  8  7  1  0
  9  4  1  0
 10 17  1  0
 11 10  2  0
 13 12  1  0
 14 13  2  0
 15 13  1  0
 16 15  1  6
 16 18  1  0
 17 16  1  0
 18 19  2  0
 18 20  1  0
 20 21  1  0
 21 24  1  0
 21 22  1  1
 23 22  1  0
 24 26  2  0
 24 25  1  0
M  END
$$$$
