FNC.pdb
     RDKit          3D

 26 26  0  0  1  0  0  0  0  0999 V2000
    6.0238  -17.6200   24.4020 N   0  0  0  0  0  0  0  0  0  0  0  0
    6.9457  -16.5095   24.5287 C   0  0  1  0  0  0  0  0  0  0  0  0
    6.7788  -15.9264   25.9350 C   0  0  0  0  0  0  0  0  0  0  0  0
    6.6865  -14.4579   25.8932 C   0  0  0  0  0  0  0  0  0  0  0  0
    5.5452  -13.8274   26.3431 C   0  0  0  0  0  0  0  0  0  0  0  0
    5.4433  -12.4521   26.3106 C   0  0  0  0  0  0  0  0  0  0  0  0
    6.5073  -11.7155   25.8180 C   0  0  0  0  0  0  0  0  0  0  0  0
    7.6660  -12.3093   25.3585 C   0  0  0  0  0  0  0  0  0  0  0  0
    7.7252  -13.6897   25.4096 C   0  0  0  0  0  0  0  0  0  0  0  0
    8.3252  -17.0686   24.4767 C   0  0  0  0  0  0  0  0  0  0  0  0
    8.6012  -18.2508   24.7172 O   0  0  0  0  0  0  0  0  0  0  0  0
   13.0493  -16.3682   21.3001 N   0  0  0  0  0  0  0  0  0  0  0  0
   12.7407  -15.9232   22.6258 C   0  0  0  0  0  0  0  0  0  0  0  0
   13.7010  -15.8544   23.4251 O   0  0  0  0  0  0  0  0  0  0  0  0
   11.3455  -15.5939   22.9194 C   0  0  0  0  0  0  0  0  0  0  0  0
   10.7437  -16.5717   23.9209 C   0  0  2  0  0  0  0  0  0  0  0  0
    9.3662  -16.1703   24.1281 N   0  0  0  0  0  0  0  0  0  0  0  0
   11.4197  -16.4099   25.2578 C   0  0  0  0  0  0  0  0  0  0  0  0
   12.6316  -16.6542   25.4479 O   0  0  0  0  0  0  0  0  0  0  0  0
   10.6660  -15.9576   26.3798 N   0  0  0  0  0  0  0  0  0  0  0  0
   11.1770  -15.8633   27.7083 C   0  0  1  0  0  0  0  0  0  0  0  0
   10.5448  -14.7664   28.5291 C   0  0  0  0  0  0  0  0  0  0  0  0
    9.6142  -13.6440   27.4492 S   0  0  0  0  0  0  0  0  0  0  0  0
   11.0293  -17.1614   28.4068 C   0  0  0  0  0  0  0  0  0  0  0  0
   11.5645  -17.3078   29.6743 O   0  0  0  0  0  0  0  0  0  0  0  0
   10.4370  -18.1347   27.8933 O   0  0  0  0  0  0  0  0  0  0  0  0
  2  1  1  1
  2 10  1  0
  2  3  1  0
  3  4  1  0
  4  5  2  0
  6  5  1  0
  7  6  2  0
  8  9  2  0
  8  7  1  0
  9  4  1  0
 10 17  1  0
 11 10  2  0
 13 12  1  0
 14 13  2  0
 15 13  1  0
 16 15  1  6
 16 18  1  0
 17 16  1  0
 18 19  2  0
 18 20  1  0
 20 21  1  0
 21 24  1  0
 21 22  1  1
 23 22  1  0
 24 26  2  0
 24 25  1  0
M  END
$$$$
