FNC.pdb
     RDKit          3D

 26 26  0  0  1  0  0  0  0  0999 V2000
    8.2742  -15.5645   25.1440 N   0  0  0  0  0  0  0  0  0  0  0  0
    7.9413  -14.8302   23.9401 C   0  0  1  0  0  0  0  0  0  0  0  0
    8.2636  -13.3545   24.1931 C   0  0  0  0  0  0  0  0  0  0  0  0
    7.5416  -12.8481   25.3716 C   0  0  0  0  0  0  0  0  0  0  0  0
    8.2183  -12.1339   26.3384 C   0  0  0  0  0  0  0  0  0  0  0  0
    7.5560  -11.6526   27.4486 C   0  0  0  0  0  0  0  0  0  0  0  0
    6.1994  -11.8992   27.5755 C   0  0  0  0  0  0  0  0  0  0  0  0
    5.4869  -12.6097   26.6299 C   0  0  0  0  0  0  0  0  0  0  0  0
    6.1903  -13.0732   25.5336 C   0  0  0  0  0  0  0  0  0  0  0  0
    8.8782  -15.2784   22.8725 C   0  0  0  0  0  0  0  0  0  0  0  0
    8.9776  -14.7321   21.7665 O   0  0  0  0  0  0  0  0  0  0  0  0
   12.9925  -15.4069   24.1414 N   0  0  0  0  0  0  0  0  0  0  0  0
   12.8858  -16.2601   22.9961 C   0  0  0  0  0  0  0  0  0  0  0  0
   13.6606  -16.0113   22.0454 O   0  0  0  0  0  0  0  0  0  0  0  0
   11.8910  -17.3321   23.0436 C   0  0  0  0  0  0  0  0  0  0  0  0
   10.6486  -16.9721   22.2386 C   0  0  2  0  0  0  0  0  0  0  0  0
    9.6937  -16.4008   23.1678 N   0  0  0  0  0  0  0  0  0  0  0  0
   10.0027  -18.2276   21.7125 C   0  0  0  0  0  0  0  0  0  0  0  0
    9.4565  -19.0787   22.4488 O   0  0  0  0  0  0  0  0  0  0  0  0
    9.9985  -18.4853   20.3107 N   0  0  0  0  0  0  0  0  0  0  0  0
    9.3388  -19.5911   19.6969 C   0  0  1  0  0  0  0  0  0  0  0  0
    8.3964  -19.1996   18.5857 C   0  0  0  0  0  0  0  0  0  0  0  0
    7.1388  -18.0536   19.2162 S   0  0  0  0  0  0  0  0  0  0  0  0
   10.3345  -20.5645   19.1908 C   0  0  0  0  0  0  0  0  0  0  0  0
    9.8911  -21.7253   18.5825 O   0  0  0  0  0  0  0  0  0  0  0  0
   11.5659  -20.3770   19.2925 O   0  0  0  0  0  0  0  0  0  0  0  0
  2  1  1  1
  2 10  1  0
  2  3  1  0
  3  4  1  0
  4  5  2  0
  6  5  1  0
  7  6  2  0
  8  9  2  0
  8  7  1  0
  9  4  1  0
 10 17  1  0
 11 10  2  0
 13 12  1  0
 14 13  2  0
 15 13  1  0
 16 15  1  1
 16 18  1  0
 17 16  1  0
 18 19  2  0
 18 20  1  0
 20 21  1  0
 21 24  1  0
 21 22  1  6
 23 22  1  0
 24 26  2  0
 24 25  1  0
M  END
$$$$
