FNC.pdb
     RDKit          3D

 26 26  0  0  1  0  0  0  0  0999 V2000
    7.5089  -15.8787   25.4748 N   0  0  0  0  0  0  0  0  0  0  0  0
    6.7498  -15.5456   24.2865 C   0  0  1  0  0  0  0  0  0  0  0  0
    6.9400  -14.0496   24.0192 C   0  0  0  0  0  0  0  0  0  0  0  0
    6.9084  -13.2783   25.2724 C   0  0  0  0  0  0  0  0  0  0  0  0
    5.7151  -13.1007   25.9410 C   0  0  0  0  0  0  0  0  0  0  0  0
    5.6688  -12.3805   27.1165 C   0  0  0  0  0  0  0  0  0  0  0  0
    6.8421  -11.8387   27.6138 C   0  0  0  0  0  0  0  0  0  0  0  0
    8.0559  -11.9941   26.9743 C   0  0  0  0  0  0  0  0  0  0  0  0
    8.0560  -12.7231   25.7995 C   0  0  0  0  0  0  0  0  0  0  0  0
    7.3859  -16.2521   23.1400 C   0  0  0  0  0  0  0  0  0  0  0  0
    7.3350  -17.4767   22.9687 O   0  0  0  0  0  0  0  0  0  0  0  0
    7.4811  -13.2531   19.5930 N   0  0  0  0  0  0  0  0  0  0  0  0
    7.8770  -14.6294   19.5867 C   0  0  0  0  0  0  0  0  0  0  0  0
    7.0565  -15.4401   19.1015 O   0  0  0  0  0  0  0  0  0  0  0  0
    9.1906  -14.9562   20.1424 C   0  0  0  0  0  0  0  0  0  0  0  0
    9.0768  -15.9641   21.2792 C   0  0  2  0  0  0  0  0  0  0  0  0
    8.0857  -15.4491   22.2032 N   0  0  0  0  0  0  0  0  0  0  0  0
   10.3698  -16.0064   22.0518 C   0  0  0  0  0  0  0  0  0  0  0  0
   11.2023  -15.0728   22.0480 O   0  0  0  0  0  0  0  0  0  0  0  0
   10.6870  -17.1543   22.8349 N   0  0  0  0  0  0  0  0  0  0  0  0
   11.8355  -17.2649   23.6736 C   0  0  1  0  0  0  0  0  0  0  0  0
   11.8871  -16.2368   24.7767 C   0  0  0  0  0  0  0  0  0  0  0  0
   10.6968  -16.6651   26.0775 S   0  0  0  0  0  0  0  0  0  0  0  0
   11.9175  -18.6263   24.2523 C   0  0  0  0  0  0  0  0  0  0  0  0
   10.8642  -19.5028   24.0610 O   0  0  0  0  0  0  0  0  0  0  0  0
   12.9061  -19.0161   24.9100 O   0  0  0  0  0  0  0  0  0  0  0  0
  2  1  1  1
  2 10  1  0
  2  3  1  0
  3  4  1  0
  4  5  2  0
  6  5  1  0
  7  6  2  0
  8  9  2  0
  8  7  1  0
  9  4  1  0
 10 17  1  0
 11 10  2  0
 13 12  1  0
 14 13  2  0
 15 13  1  0
 16 15  1  6
 16 18  1  0
 17 16  1  0
 18 19  2  0
 18 20  1  0
 20 21  1  0
 21 24  1  0
 21 22  1  1
 23 22  1  0
 24 26  2  0
 24 25  1  0
M  END
$$$$
