NPY.pdb
     RDKit          3D

 28 29  0  0  1  0  0  0  0  0999 V2000
   12.8960  -18.6948   15.1420 N   0  0  0  0  0  0  0  0  0  0  0  0
   11.9101  -19.2730   15.9740 C   0  0  0  0  0  0  0  0  0  0  0  0
   11.4672  -20.4527   15.8060 O   0  0  0  0  0  0  0  0  0  0  0  0
   11.3604  -18.4988   17.0867 C   0  0  0  0  0  0  0  0  0  0  0  0
    9.8257  -18.5545   17.0339 C   0  0  2  0  0  0  0  0  0  0  0  0
    9.3369  -17.9721   15.8292 N   0  0  0  0  0  0  0  0  0  0  0  0
    9.2506  -17.9580   18.2333 C   0  0  0  0  0  0  0  0  0  0  0  0
    9.4046  -16.6884   18.3351 O   0  0  0  0  0  0  0  0  0  0  0  0
    8.5690  -18.6369   19.2477 N   0  0  0  0  0  0  0  0  0  0  0  0
    7.5705  -19.7363   19.0534 C   0  0  0  0  0  0  0  0  0  0  0  0
    8.2224  -20.8044   19.9656 C   0  0  0  0  0  0  0  0  0  0  0  0
    8.8824  -19.9841   21.0470 C   0  0  0  0  0  0  0  0  0  0  0  0
    8.5488  -18.5291   20.6643 C   0  0  1  0  0  0  0  0  0  0  0  0
    9.3621  -17.5722   21.3668 C   0  0  0  0  0  0  0  0  0  0  0  0
   10.6086  -17.4113   21.3488 O   0  0  0  0  0  0  0  0  0  0  0  0
    7.7629  -12.9058   17.6244 O   0  0  0  0  0  0  0  0  0  0  0  0
    7.9803  -13.2620   18.9393 C   0  0  0  0  0  0  0  0  0  0  0  0
    9.2620  -13.2004   19.4557 C   0  0  0  0  0  0  0  0  0  0  0  0
    9.5072  -13.5510   20.7634 C   0  0  0  0  0  0  0  0  0  0  0  0
    8.4857  -13.9701   21.5890 C   0  0  0  0  0  0  0  0  0  0  0  0
    8.7952  -14.3498   22.9819 C   0  0  0  0  0  0  0  0  0  0  0  0
    9.5198  -15.6668   23.0335 C   0  0  2  0  0  0  0  0  0  0  0  0
    8.7346  -16.5992   22.2613 N   0  0  0  0  0  0  0  0  0  0  0  0
    9.7662  -16.1447   24.4011 C   0  0  0  0  0  0  0  0  0  0  0  0
    9.1194  -17.0872   24.9353 O   0  0  0  0  0  0  0  0  0  0  0  0
    7.2014  -14.0369   21.0903 C   0  0  0  0  0  0  0  0  0  0  0  0
    6.9477  -13.6869   19.7791 C   0  0  0  0  0  0  0  0  0  0  0  0
   10.7528  -15.5441   25.1531 O   0  0  0  0  0  0  0  0  0  0  0  0
  2  1  1  0
  2  4  1  0
  3  2  2  0
  5  4  1  0
  5  6  1  6
  7  8  2  0
  7  5  1  0
  9  7  1  0
 10  9  1  0
 11 10  1  0
 12 11  1  0
 12 13  1  0
 13  9  1  0
 14 23  1  0
 13 14  1  6
 15 14  2  0
 17 18  2  0
 17 16  1  0
 19 18  1  0
 20 19  2  0
 21 20  1  0
 22 21  1  1
 22 23  1  0
 22 24  1  0
 24 28  1  0
 25 24  2  0
 26 20  1  0
 26 27  2  0
 27 17  1  0
M  END
$$$$
