NPY.pdb
     RDKit          3D

 28 29  0  0  1  0  0  0  0  0999 V2000
    7.4926  -18.2331   14.9334 N   0  0  0  0  0  0  0  0  0  0  0  0
    8.2197  -17.0242   15.0261 C   0  0  0  0  0  0  0  0  0  0  0  0
    9.4100  -16.8976   14.5982 O   0  0  0  0  0  0  0  0  0  0  0  0
    7.5946  -15.8511   15.6366 C   0  0  0  0  0  0  0  0  0  0  0  0
    8.6208  -14.7097   15.7089 C   0  0  2  0  0  0  0  0  0  0  0  0
    9.5264  -14.7699   14.6109 N   0  0  0  0  0  0  0  0  0  0  0  0
    9.2899  -14.7046   17.0040 C   0  0  0  0  0  0  0  0  0  0  0  0
   10.3669  -15.3995   17.0610 O   0  0  0  0  0  0  0  0  0  0  0  0
    8.8647  -14.0269   18.1505 N   0  0  0  0  0  0  0  0  0  0  0  0
    8.3257  -12.6302   18.1976 C   0  0  0  0  0  0  0  0  0  0  0  0
    6.9914  -12.9218   18.9273 C   0  0  0  0  0  0  0  0  0  0  0  0
    7.3307  -14.0891   19.8219 C   0  0  0  0  0  0  0  0  0  0  0  0
    8.8200  -14.3581   19.5314 C   0  0  1  0  0  0  0  0  0  0  0  0
    9.2564  -15.6387   20.0217 C   0  0  0  0  0  0  0  0  0  0  0  0
    8.8978  -16.7939   19.6800 O   0  0  0  0  0  0  0  0  0  0  0  0
   17.3473  -15.5813   17.9539 O   0  0  0  0  0  0  0  0  0  0  0  0
   16.0550  -15.4314   18.4129 C   0  0  0  0  0  0  0  0  0  0  0  0
   15.5936  -14.1692   18.7405 C   0  0  0  0  0  0  0  0  0  0  0  0
   14.3096  -13.9914   19.2017 C   0  0  0  0  0  0  0  0  0  0  0  0
   13.4535  -15.0621   19.3477 C   0  0  0  0  0  0  0  0  0  0  0  0
   12.0882  -14.8282   19.8587 C   0  0  0  0  0  0  0  0  0  0  0  0
   11.6589  -15.9385   20.7779 C   0  0  2  0  0  0  0  0  0  0  0  0
   10.2662  -15.7093   21.0781 N   0  0  0  0  0  0  0  0  0  0  0  0
   12.4807  -16.0426   21.9917 C   0  0  0  0  0  0  0  0  0  0  0  0
   13.2637  -17.0052   22.2207 O   0  0  0  0  0  0  0  0  0  0  0  0
   13.8973  -16.3276   19.0251 C   0  0  0  0  0  0  0  0  0  0  0  0
   15.1845  -16.5140   18.5619 C   0  0  0  0  0  0  0  0  0  0  0  0
   12.4057  -15.0446   22.9393 O   0  0  0  0  0  0  0  0  0  0  0  0
  2  1  1  0
  2  4  1  0
  3  2  2  0
  5  4  1  0
  5  6  1  6
  7  8  2  0
  7  5  1  0
  9  7  1  0
 10  9  1  0
 11 10  1  0
 12 11  1  0
 12 13  1  0
 13  9  1  0
 14 23  1  0
 13 14  1  6
 15 14  2  0
 17 18  2  0
 17 16  1  0
 19 18  1  0
 20 19  2  0
 21 20  1  0
 22 21  1  6
 22 23  1  0
 22 24  1  0
 24 28  1  0
 25 24  2  0
 26 20  1  0
 26 27  2  0
 27 17  1  0
M  END
$$$$
