NPY.pdb
     RDKit          3D

 28 29  0  0  1  0  0  0  0  0999 V2000
   11.8150  -14.9495   16.1332 N   0  0  0  0  0  0  0  0  0  0  0  0
   11.8193  -16.0811   16.9806 C   0  0  0  0  0  0  0  0  0  0  0  0
   12.1373  -17.2449   16.5801 O   0  0  0  0  0  0  0  0  0  0  0  0
   11.4461  -15.9308   18.3870 C   0  0  0  0  0  0  0  0  0  0  0  0
   10.9928  -14.4844   18.6395 C   0  0  2  0  0  0  0  0  0  0  0  0
   12.0635  -13.5705   18.4209 N   0  0  0  0  0  0  0  0  0  0  0  0
   10.3940  -14.3596   19.9627 C   0  0  0  0  0  0  0  0  0  0  0  0
   11.2293  -14.3355   20.9362 O   0  0  0  0  0  0  0  0  0  0  0  0
    9.0279  -14.2688   20.2456 N   0  0  0  0  0  0  0  0  0  0  0  0
    8.0040  -13.5534   19.4188 C   0  0  0  0  0  0  0  0  0  0  0  0
    7.0041  -14.7204   19.2287 C   0  0  0  0  0  0  0  0  0  0  0  0
    7.1491  -15.5155   20.5034 C   0  0  0  0  0  0  0  0  0  0  0  0
    8.2082  -14.7368   21.3075 C   0  0  1  0  0  0  0  0  0  0  0  0
    8.7437  -15.5016   22.4025 C   0  0  0  0  0  0  0  0  0  0  0  0
    9.4312  -16.5537   22.3863 O   0  0  0  0  0  0  0  0  0  0  0  0
    4.9136  -11.7393   27.4452 O   0  0  0  0  0  0  0  0  0  0  0  0
    6.0213  -12.4834   27.0951 C   0  0  0  0  0  0  0  0  0  0  0  0
    6.8563  -12.0259   26.0916 C   0  0  0  0  0  0  0  0  0  0  0  0
    7.9671  -12.7486   25.7218 C   0  0  0  0  0  0  0  0  0  0  0  0
    8.2753  -13.9418   26.3399 C   0  0  0  0  0  0  0  0  0  0  0  0
    9.4696  -14.6919   25.9028 C   0  0  0  0  0  0  0  0  0  0  0  0
    9.1035  -15.7521   24.9007 C   0  0  2  0  0  0  0  0  0  0  0  0
    8.5040  -15.0696   23.7796 N   0  0  0  0  0  0  0  0  0  0  0  0
    8.2284  -16.7973   25.4495 C   0  0  0  0  0  0  0  0  0  0  0  0
    7.0282  -16.9564   25.0941 O   0  0  0  0  0  0  0  0  0  0  0  0
    7.4537  -14.4122   27.3430 C   0  0  0  0  0  0  0  0  0  0  0  0
    6.3371  -13.6927   27.7193 C   0  0  0  0  0  0  0  0  0  0  0  0
    8.7290  -17.6583   26.4021 O   0  0  0  0  0  0  0  0  0  0  0  0
  2  1  1  0
  2  4  1  0
  3  2  2  0
  5  4  1  0
  5  6  1  1
  7  8  2  0
  7  5  1  0
  9  7  1  0
 10  9  1  0
 11 10  1  0
 12 11  1  0
 12 13  1  0
 13  9  1  0
 14 23  1  0
 13 14  1  1
 15 14  2  0
 17 18  2  0
 17 16  1  0
 19 18  1  0
 20 19  2  0
 21 20  1  0
 22 21  1  1
 22 23  1  0
 22 24  1  0
 24 28  1  0
 25 24  2  0
 26 20  1  0
 26 27  2  0
 27 17  1  0
M  END
$$$$
