NPY.pdb
     RDKit          3D

 28 29  0  0  1  0  0  0  0  0999 V2000
    6.8134  -19.0237   17.7313 N   0  0  0  0  0  0  0  0  0  0  0  0
    8.2057  -18.7791   17.7169 C   0  0  0  0  0  0  0  0  0  0  0  0
    8.9503  -19.0730   16.7293 O   0  0  0  0  0  0  0  0  0  0  0  0
    8.8415  -18.1586   18.8791 C   0  0  0  0  0  0  0  0  0  0  0  0
    9.3680  -16.7691   18.4875 C   0  0  2  0  0  0  0  0  0  0  0  0
   10.5430  -16.8771   17.6893 N   0  0  0  0  0  0  0  0  0  0  0  0
    9.5541  -15.9401   19.6720 C   0  0  0  0  0  0  0  0  0  0  0  0
   10.5723  -16.2426   20.3915 O   0  0  0  0  0  0  0  0  0  0  0  0
    8.7378  -14.8785   20.0734 N   0  0  0  0  0  0  0  0  0  0  0  0
    8.1610  -13.8251   19.1782 C   0  0  0  0  0  0  0  0  0  0  0  0
    6.6704  -13.9822   19.5672 C   0  0  0  0  0  0  0  0  0  0  0  0
    6.7299  -14.3993   21.0165 C   0  0  0  0  0  0  0  0  0  0  0  0
    8.2383  -14.4395   21.3290 C   0  0  1  0  0  0  0  0  0  0  0  0
    8.5312  -15.1395   22.5517 C   0  0  0  0  0  0  0  0  0  0  0  0
    8.4365  -16.3642   22.8181 O   0  0  0  0  0  0  0  0  0  0  0  0
   10.4799  -16.0563   31.1182 O   0  0  0  0  0  0  0  0  0  0  0  0
   10.3347  -15.5511   29.8427 C   0  0  0  0  0  0  0  0  0  0  0  0
   10.9350  -16.2049   28.7818 C   0  0  0  0  0  0  0  0  0  0  0  0
   10.8073  -15.7221   27.4997 C   0  0  0  0  0  0  0  0  0  0  0  0
   10.0803  -14.5797   27.2409 C   0  0  0  0  0  0  0  0  0  0  0  0
    9.9801  -14.0890   25.8519 C   0  0  0  0  0  0  0  0  0  0  0  0
    9.1771  -15.0353   25.0023 C   0  0  2  0  0  0  0  0  0  0  0  0
    9.0168  -14.3997   23.7169 N   0  0  0  0  0  0  0  0  0  0  0  0
    7.8893  -15.4102   25.6030 C   0  0  0  0  0  0  0  0  0  0  0  0
    6.8179  -14.7743   25.4036 O   0  0  0  0  0  0  0  0  0  0  0  0
    9.4747  -13.9157   28.2873 C   0  0  0  0  0  0  0  0  0  0  0  0
    9.5986  -14.3939   29.5765 C   0  0  0  0  0  0  0  0  0  0  0  0
    7.8306  -16.5121   26.4286 O   0  0  0  0  0  0  0  0  0  0  0  0
  2  1  1  0
  2  4  1  0
  3  2  2  0
  5  4  1  0
  5  6  1  1
  7  8  2  0
  7  5  1  0
  9  7  1  0
 10  9  1  0
 11 10  1  0
 12 11  1  0
 12 13  1  0
 13  9  1  0
 14 23  1  0
 13 14  1  1
 15 14  2  0
 17 18  2  0
 17 16  1  0
 19 18  1  0
 20 19  2  0
 21 20  1  0
 22 21  1  1
 22 23  1  0
 22 24  1  0
 24 28  1  0
 25 24  2  0
 26 20  1  0
 26 27  2  0
 27 17  1  0
M  END
$$$$
