NPY.pdb
     RDKit          3D

 28 29  0  0  1  0  0  0  0  0999 V2000
   12.1198  -18.1753   19.1324 N   0  0  0  0  0  0  0  0  0  0  0  0
   10.8490  -18.6135   18.6944 C   0  0  0  0  0  0  0  0  0  0  0  0
   10.3712  -18.3214   17.5533 O   0  0  0  0  0  0  0  0  0  0  0  0
   10.0286  -19.4437   19.5762 C   0  0  0  0  0  0  0  0  0  0  0  0
    8.8080  -18.6352   20.0428 C   0  0  2  0  0  0  0  0  0  0  0  0
    8.0689  -18.1421   18.9293 N   0  0  0  0  0  0  0  0  0  0  0  0
    9.2132  -17.5869   20.9712 C   0  0  0  0  0  0  0  0  0  0  0  0
   10.1693  -17.9052   21.7652 O   0  0  0  0  0  0  0  0  0  0  0  0
    8.6603  -16.3061   21.0628 N   0  0  0  0  0  0  0  0  0  0  0  0
    7.8705  -15.6106   19.9970 C   0  0  0  0  0  0  0  0  0  0  0  0
    6.6081  -15.2732   20.8279 C   0  0  0  0  0  0  0  0  0  0  0  0
    7.1516  -15.0678   22.2209 C   0  0  0  0  0  0  0  0  0  0  0  0
    8.6672  -15.2992   22.0653 C   0  0  1  0  0  0  0  0  0  0  0  0
    9.3304  -15.4869   23.3284 C   0  0  0  0  0  0  0  0  0  0  0  0
   10.5061  -15.2001   23.6683 O   0  0  0  0  0  0  0  0  0  0  0  0
    4.7579  -12.0215   26.5242 O   0  0  0  0  0  0  0  0  0  0  0  0
    5.9425  -12.7280   26.4916 C   0  0  0  0  0  0  0  0  0  0  0  0
    5.9618  -13.9945   25.9359 C   0  0  0  0  0  0  0  0  0  0  0  0
    7.1292  -14.7214   25.8916 C   0  0  0  0  0  0  0  0  0  0  0  0
    8.3045  -14.2078   26.3970 C   0  0  0  0  0  0  0  0  0  0  0  0
    9.5315  -15.0271   26.3412 C   0  0  0  0  0  0  0  0  0  0  0  0
    9.2590  -16.3636   25.7074 C   0  0  2  0  0  0  0  0  0  0  0  0
    8.6103  -16.0968   24.4465 N   0  0  0  0  0  0  0  0  0  0  0  0
    8.4708  -17.2645   26.5600 C   0  0  0  0  0  0  0  0  0  0  0  0
    8.8314  -17.6204   27.7155 O   0  0  0  0  0  0  0  0  0  0  0  0
    8.3030  -12.9460   26.9542 C   0  0  0  0  0  0  0  0  0  0  0  0
    7.1355  -12.2107   27.0026 C   0  0  0  0  0  0  0  0  0  0  0  0
    7.2719  -17.7543   26.0888 O   0  0  0  0  0  0  0  0  0  0  0  0
  2  1  1  0
  2  4  1  0
  3  2  2  0
  5  4  1  0
  5  6  1  6
  7  8  2  0
  7  5  1  0
  9  7  1  0
 10  9  1  0
 11 10  1  0
 12 11  1  0
 12 13  1  0
 13  9  1  0
 14 23  1  0
 13 14  1  1
 15 14  2  0
 17 18  2  0
 17 16  1  0
 19 18  1  0
 20 19  2  0
 21 20  1  0
 22 21  1  1
 22 23  1  0
 22 24  1  0
 24 28  1  0
 25 24  2  0
 26 20  1  0
 26 27  2  0
 27 17  1  0
M  END
$$$$
