NPY.pdb
     RDKit          3D

 28 29  0  0  1  0  0  0  0  0999 V2000
    9.0571  -20.4262   17.0206 N   0  0  0  0  0  0  0  0  0  0  0  0
   10.3024  -20.3383   17.6840 C   0  0  0  0  0  0  0  0  0  0  0  0
   11.2495  -21.1641   17.4915 O   0  0  0  0  0  0  0  0  0  0  0  0
   10.5364  -19.2550   18.6389 C   0  0  0  0  0  0  0  0  0  0  0  0
    9.2304  -18.4731   18.8486 C   0  0  2  0  0  0  0  0  0  0  0  0
    8.7409  -17.9601   17.6130 N   0  0  0  0  0  0  0  0  0  0  0  0
    9.4079  -17.4443   19.8661 C   0  0  0  0  0  0  0  0  0  0  0  0
   10.2208  -17.7498   20.8104 O   0  0  0  0  0  0  0  0  0  0  0  0
    8.7824  -16.1943   19.8943 N   0  0  0  0  0  0  0  0  0  0  0  0
    8.0049  -15.5742   18.7743 C   0  0  0  0  0  0  0  0  0  0  0  0
    6.6897  -15.2845   19.5387 C   0  0  0  0  0  0  0  0  0  0  0  0
    7.1577  -15.0100   20.9471 C   0  0  0  0  0  0  0  0  0  0  0  0
    8.6891  -15.1608   20.8649 C   0  0  1  0  0  0  0  0  0  0  0  0
    9.3038  -15.2756   22.1609 C   0  0  0  0  0  0  0  0  0  0  0  0
   10.4079  -14.8337   22.5677 O   0  0  0  0  0  0  0  0  0  0  0  0
    6.3130  -11.0429   28.7202 O   0  0  0  0  0  0  0  0  0  0  0  0
    6.6599  -11.7886   27.6125 C   0  0  0  0  0  0  0  0  0  0  0  0
    5.8208  -11.8006   26.5129 C   0  0  0  0  0  0  0  0  0  0  0  0
    6.1420  -12.5364   25.3956 C   0  0  0  0  0  0  0  0  0  0  0  0
    7.3037  -13.2769   25.3435 C   0  0  0  0  0  0  0  0  0  0  0  0
    7.6031  -14.0629   24.1300 C   0  0  0  0  0  0  0  0  0  0  0  0
    8.2814  -15.3587   24.4807 C   0  0  2  0  0  0  0  0  0  0  0  0
    8.6175  -15.9986   23.2318 N   0  0  0  0  0  0  0  0  0  0  0  0
    7.4732  -16.2244   25.3506 C   0  0  0  0  0  0  0  0  0  0  0  0
    7.8663  -16.6422   26.4744 O   0  0  0  0  0  0  0  0  0  0  0  0
    8.1521  -13.2756   26.4311 C   0  0  0  0  0  0  0  0  0  0  0  0
    7.8365  -12.5399   27.5559 C   0  0  0  0  0  0  0  0  0  0  0  0
    6.2171  -16.6083   24.9333 O   0  0  0  0  0  0  0  0  0  0  0  0
  2  1  1  0
  2  4  1  0
  3  2  2  0
  5  4  1  0
  5  6  1  6
  7  8  2  0
  7  5  1  0
  9  7  1  0
 10  9  1  0
 11 10  1  0
 12 11  1  0
 12 13  1  0
 13  9  1  0
 14 23  1  0
 13 14  1  1
 15 14  2  0
 17 18  2  0
 17 16  1  0
 19 18  1  0
 20 19  2  0
 21 20  1  0
 22 21  1  6
 22 23  1  0
 22 24  1  0
 24 28  1  0
 25 24  2  0
 26 20  1  0
 26 27  2  0
 27 17  1  0
M  END
$$$$
