NPY.pdb
     RDKit          3D

 28 29  0  0  1  0  0  0  0  0999 V2000
   12.5934  -19.5936   17.2224 N   0  0  0  0  0  0  0  0  0  0  0  0
   11.2394  -19.4798   17.6128 C   0  0  0  0  0  0  0  0  0  0  0  0
   10.2904  -20.0613   16.9986 O   0  0  0  0  0  0  0  0  0  0  0  0
   10.8896  -18.6626   18.7745 C   0  0  0  0  0  0  0  0  0  0  0  0
   10.0099  -17.4871   18.3211 C   0  0  2  0  0  0  0  0  0  0  0  0
   10.6379  -16.7576   17.2710 N   0  0  0  0  0  0  0  0  0  0  0  0
    9.6444  -16.6529   19.4594 C   0  0  0  0  0  0  0  0  0  0  0  0
   10.6278  -16.0734   20.0453 O   0  0  0  0  0  0  0  0  0  0  0  0
    8.3514  -16.4427   19.9477 N   0  0  0  0  0  0  0  0  0  0  0  0
    7.1273  -16.1989   19.1197 C   0  0  0  0  0  0  0  0  0  0  0  0
    6.2302  -17.3211   19.6975 C   0  0  0  0  0  0  0  0  0  0  0  0
    6.6851  -17.4275   21.1327 C   0  0  0  0  0  0  0  0  0  0  0  0
    7.7913  -16.3613   21.2509 C   0  0  1  0  0  0  0  0  0  0  0  0
    8.5921  -16.5243   22.4354 C   0  0  0  0  0  0  0  0  0  0  0  0
    9.3823  -17.4501   22.7490 O   0  0  0  0  0  0  0  0  0  0  0  0
    5.0167  -11.6639   27.0880 O   0  0  0  0  0  0  0  0  0  0  0  0
    6.1382  -12.2820   26.5748 C   0  0  0  0  0  0  0  0  0  0  0  0
    7.0428  -12.8724   27.4389 C   0  0  0  0  0  0  0  0  0  0  0  0
    8.1701  -13.4946   26.9539 C   0  0  0  0  0  0  0  0  0  0  0  0
    8.4253  -13.5458   25.6001 C   0  0  0  0  0  0  0  0  0  0  0  0
    9.6539  -14.2118   25.1235 C   0  0  0  0  0  0  0  0  0  0  0  0
    9.3654  -15.6180   24.6746 C   0  0  2  0  0  0  0  0  0  0  0  0
    8.5463  -15.5127   23.4914 N   0  0  0  0  0  0  0  0  0  0  0  0
    8.7385  -16.4461   25.7143 C   0  0  0  0  0  0  0  0  0  0  0  0
    7.5382  -16.8321   25.6658 O   0  0  0  0  0  0  0  0  0  0  0  0
    7.5334  -12.9626   24.7244 C   0  0  0  0  0  0  0  0  0  0  0  0
    6.4002  -12.3363   25.2035 C   0  0  0  0  0  0  0  0  0  0  0  0
    9.4869  -16.8314   26.8056 O   0  0  0  0  0  0  0  0  0  0  0  0
  2  1  1  0
  2  4  1  0
  3  2  2  0
  5  4  1  0
  5  6  1  6
  7  8  2  0
  7  5  1  0
  9  7  1  0
 10  9  1  0
 11 10  1  0
 12 11  1  0
 12 13  1  0
 13  9  1  0
 14 23  1  0
 13 14  1  1
 15 14  2  0
 17 18  2  0
 17 16  1  0
 19 18  1  0
 20 19  2  0
 21 20  1  0
 22 21  1  1
 22 23  1  0
 22 24  1  0
 24 28  1  0
 25 24  2  0
 26 20  1  0
 26 27  2  0
 27 17  1  0
M  END
$$$$
