NPY.pdb
     RDKit          3D

 28 29  0  0  1  0  0  0  0  0999 V2000
   10.8837  -20.9834   19.8193 N   0  0  0  0  0  0  0  0  0  0  0  0
   10.0879  -19.9578   19.2593 C   0  0  0  0  0  0  0  0  0  0  0  0
    9.1267  -20.1858   18.4592 O   0  0  0  0  0  0  0  0  0  0  0  0
   10.3626  -18.5626   19.6026 C   0  0  0  0  0  0  0  0  0  0  0  0
    9.0340  -17.8278   19.8398 C   0  0  2  0  0  0  0  0  0  0  0  0
    8.4539  -17.4151   18.6059 N   0  0  0  0  0  0  0  0  0  0  0  0
    9.2174  -16.7308   20.7822 C   0  0  0  0  0  0  0  0  0  0  0  0
    9.7629  -17.0580   21.8963 O   0  0  0  0  0  0  0  0  0  0  0  0
    8.8567  -15.3959   20.5758 N   0  0  0  0  0  0  0  0  0  0  0  0
    8.6240  -14.7428   19.2481 C   0  0  0  0  0  0  0  0  0  0  0  0
    7.2050  -14.1818   19.5121 C   0  0  0  0  0  0  0  0  0  0  0  0
    7.2178  -13.8820   20.9913 C   0  0  0  0  0  0  0  0  0  0  0  0
    8.6343  -14.2903   21.4400 C   0  0  1  0  0  0  0  0  0  0  0  0
    8.7496  -14.4062   22.8696 C   0  0  0  0  0  0  0  0  0  0  0  0
    8.1942  -13.7364   23.7767 O   0  0  0  0  0  0  0  0  0  0  0  0
    5.6129  -11.1941   26.9248 O   0  0  0  0  0  0  0  0  0  0  0  0
    6.3050  -12.3289   26.5553 C   0  0  0  0  0  0  0  0  0  0  0  0
    5.6485  -13.3268   25.8576 C   0  0  0  0  0  0  0  0  0  0  0  0
    6.3144  -14.4693   25.4778 C   0  0  0  0  0  0  0  0  0  0  0  0
    7.6474  -14.6476   25.7810 C   0  0  0  0  0  0  0  0  0  0  0  0
    8.3199  -15.8948   25.3660 C   0  0  0  0  0  0  0  0  0  0  0  0
    9.7153  -15.6183   24.8776 C   0  0  2  0  0  0  0  0  0  0  0  0
    9.6217  -15.4273   23.4504 N   0  0  0  0  0  0  0  0  0  0  0  0
   10.6789  -16.6678   25.2374 C   0  0  0  0  0  0  0  0  0  0  0  0
   10.9699  -16.9657   26.4285 O   0  0  0  0  0  0  0  0  0  0  0  0
    8.3174  -13.6622   26.4757 C   0  0  0  0  0  0  0  0  0  0  0  0
    7.6559  -12.5130   26.8604 C   0  0  0  0  0  0  0  0  0  0  0  0
   11.3056  -17.3746   24.2338 O   0  0  0  0  0  0  0  0  0  0  0  0
  2  1  1  0
  2  4  1  0
  3  2  2  0
  5  4  1  0
  5  6  1  6
  7  8  2  0
  7  5  1  0
  9  7  1  0
 10  9  1  0
 11 10  1  0
 12 11  1  0
 12 13  1  0
 13  9  1  0
 14 23  1  0
 13 14  1  1
 15 14  2  0
 17 18  2  0
 17 16  1  0
 19 18  1  0
 20 19  2  0
 21 20  1  0
 22 21  1  6
 22 23  1  0
 22 24  1  0
 24 28  1  0
 25 24  2  0
 26 20  1  0
 26 27  2  0
 27 17  1  0
M  END
$$$$
