NPY.pdb
     RDKit          3D

 28 29  0  0  1  0  0  0  0  0999 V2000
   11.4707  -18.2985   16.4682 N   0  0  0  0  0  0  0  0  0  0  0  0
   10.5691  -17.2388   16.7191 C   0  0  0  0  0  0  0  0  0  0  0  0
    9.9320  -16.6387   15.7972 O   0  0  0  0  0  0  0  0  0  0  0  0
   10.3409  -16.7960   18.0945 C   0  0  0  0  0  0  0  0  0  0  0  0
   10.7627  -15.3246   18.2300 C   0  0  2  0  0  0  0  0  0  0  0  0
   12.1175  -15.1450   17.8279 N   0  0  0  0  0  0  0  0  0  0  0  0
   10.4957  -14.8380   19.5780 C   0  0  0  0  0  0  0  0  0  0  0  0
   11.4089  -15.0999   20.4402 O   0  0  0  0  0  0  0  0  0  0  0  0
    9.3611  -14.1338   19.9919 N   0  0  0  0  0  0  0  0  0  0  0  0
    8.7358  -12.9751   19.2779 C   0  0  0  0  0  0  0  0  0  0  0  0
    7.2919  -13.5236   19.1674 C   0  0  0  0  0  0  0  0  0  0  0  0
    7.1427  -14.3666   20.4104 C   0  0  0  0  0  0  0  0  0  0  0  0
    8.5028  -14.2238   21.1206 C   0  0  1  0  0  0  0  0  0  0  0  0
    8.6968  -15.2128   22.1477 C   0  0  0  0  0  0  0  0  0  0  0  0
    8.9110  -16.4469   22.0436 O   0  0  0  0  0  0  0  0  0  0  0  0
    4.8107  -11.5688   27.0707 O   0  0  0  0  0  0  0  0  0  0  0  0
    5.8864  -12.3755   26.7619 C   0  0  0  0  0  0  0  0  0  0  0  0
    5.7824  -13.7431   26.9416 C   0  0  0  0  0  0  0  0  0  0  0  0
    6.8402  -14.5706   26.6427 C   0  0  0  0  0  0  0  0  0  0  0  0
    8.0255  -14.0600   26.1580 C   0  0  0  0  0  0  0  0  0  0  0  0
    9.1399  -14.9825   25.8629 C   0  0  0  0  0  0  0  0  0  0  0  0
    8.8668  -15.7763   24.6150 C   0  0  2  0  0  0  0  0  0  0  0  0
    8.6548  -14.8190   23.5562 N   0  0  0  0  0  0  0  0  0  0  0  0
    7.7428  -16.7128   24.7527 C   0  0  0  0  0  0  0  0  0  0  0  0
    7.7314  -17.6688   25.5761 O   0  0  0  0  0  0  0  0  0  0  0  0
    8.1460  -12.6985   25.9724 C   0  0  0  0  0  0  0  0  0  0  0  0
    7.0890  -11.8618   26.2702 C   0  0  0  0  0  0  0  0  0  0  0  0
    6.6345  -16.5522   23.9493 O   0  0  0  0  0  0  0  0  0  0  0  0
  2  1  1  0
  2  4  1  0
  3  2  2  0
  5  4  1  0
  5  6  1  1
  7  8  2  0
  7  5  1  0
  9  7  1  0
 10  9  1  0
 11 10  1  0
 12 11  1  0
 12 13  1  0
 13  9  1  0
 14 23  1  0
 13 14  1  1
 15 14  2  0
 17 18  2  0
 17 16  1  0
 19 18  1  0
 20 19  2  0
 21 20  1  0
 22 21  1  1
 22 23  1  0
 22 24  1  0
 24 28  1  0
 25 24  2  0
 26 20  1  0
 26 27  2  0
 27 17  1  0
M  END
$$$$
