NPY.pdb
     RDKit          3D

 28 29  0  0  1  0  0  0  0  0999 V2000
    8.0340  -21.4551   21.9158 N   0  0  0  0  0  0  0  0  0  0  0  0
    7.9000  -20.5249   20.8597 C   0  0  0  0  0  0  0  0  0  0  0  0
    8.0057  -20.8479   19.6348 O   0  0  0  0  0  0  0  0  0  0  0  0
    7.6251  -19.1210   21.1652 C   0  0  0  0  0  0  0  0  0  0  0  0
    8.4844  -18.2269   20.2578 C   0  0  2  0  0  0  0  0  0  0  0  0
    9.5084  -18.9846   19.6200 N   0  0  0  0  0  0  0  0  0  0  0  0
    8.9972  -17.0840   21.0033 C   0  0  0  0  0  0  0  0  0  0  0  0
   10.0695  -17.3086   21.6710 O   0  0  0  0  0  0  0  0  0  0  0  0
    8.4316  -15.8063   21.0481 N   0  0  0  0  0  0  0  0  0  0  0  0
    7.6872  -15.1343   19.9355 C   0  0  0  0  0  0  0  0  0  0  0  0
    6.3851  -14.7935   20.7014 C   0  0  0  0  0  0  0  0  0  0  0  0
    6.8620  -14.5613   22.1145 C   0  0  0  0  0  0  0  0  0  0  0  0
    8.3847  -14.7833   22.0330 C   0  0  1  0  0  0  0  0  0  0  0  0
    8.9899  -14.9454   23.3285 C   0  0  0  0  0  0  0  0  0  0  0  0
    9.5550  -14.0958   24.0625 O   0  0  0  0  0  0  0  0  0  0  0  0
    7.1067  -10.7869   27.7220 O   0  0  0  0  0  0  0  0  0  0  0  0
    7.0878  -12.0460   27.1584 C   0  0  0  0  0  0  0  0  0  0  0  0
    8.2446  -12.8045   27.1539 C   0  0  0  0  0  0  0  0  0  0  0  0
    8.2540  -14.0628   26.5975 C   0  0  0  0  0  0  0  0  0  0  0  0
    7.1155  -14.5977   26.0334 C   0  0  0  0  0  0  0  0  0  0  0  0
    7.1733  -15.9464   25.4354 C   0  0  0  0  0  0  0  0  0  0  0  0
    8.5929  -16.4348   25.3428 C   0  0  2  0  0  0  0  0  0  0  0  0
    8.9995  -16.2606   23.9693 N   0  0  0  0  0  0  0  0  0  0  0  0
    8.7654  -17.8195   25.8037 C   0  0  0  0  0  0  0  0  0  0  0  0
    8.7649  -18.1522   27.0208 O   0  0  0  0  0  0  0  0  0  0  0  0
    5.9532  -13.8550   26.0299 C   0  0  0  0  0  0  0  0  0  0  0  0
    5.9360  -12.5915   26.5861 C   0  0  0  0  0  0  0  0  0  0  0  0
    8.9366  -18.8196   24.8711 O   0  0  0  0  0  0  0  0  0  0  0  0
  2  1  1  0
  2  4  1  0
  3  2  2  0
  5  4  1  0
  5  6  1  1
  7  8  2  0
  7  5  1  0
  9  7  1  0
 10  9  1  0
 11 10  1  0
 12 11  1  0
 12 13  1  0
 13  9  1  0
 14 23  1  0
 13 14  1  1
 15 14  2  0
 17 18  2  0
 17 16  1  0
 19 18  1  0
 20 19  2  0
 21 20  1  0
 22 21  1  6
 22 23  1  0
 22 24  1  0
 24 28  1  0
 25 24  2  0
 26 20  1  0
 26 27  2  0
 27 17  1  0
M  END
$$$$
