NPY.pdb
     RDKit          3D

 28 29  0  0  1  0  0  0  0  0999 V2000
    8.8016  -18.2624   15.4778 N   0  0  0  0  0  0  0  0  0  0  0  0
    8.1677  -18.7629   16.6382 C   0  0  0  0  0  0  0  0  0  0  0  0
    7.3907  -19.7688   16.6235 O   0  0  0  0  0  0  0  0  0  0  0  0
    8.4025  -18.1113   17.9267 C   0  0  0  0  0  0  0  0  0  0  0  0
    9.2652  -16.8580   17.7113 C   0  0  2  0  0  0  0  0  0  0  0  0
   10.3963  -17.1530   16.8971 N   0  0  0  0  0  0  0  0  0  0  0  0
    9.6211  -16.2560   18.9903 C   0  0  0  0  0  0  0  0  0  0  0  0
   10.5789  -16.8371   19.6156 O   0  0  0  0  0  0  0  0  0  0  0  0
    9.0209  -15.1347   19.5707 N   0  0  0  0  0  0  0  0  0  0  0  0
    8.7142  -13.8431   18.8770 C   0  0  0  0  0  0  0  0  0  0  0  0
    7.2063  -13.7505   19.2171 C   0  0  0  0  0  0  0  0  0  0  0  0
    7.1112  -14.4195   20.5667 C   0  0  0  0  0  0  0  0  0  0  0  0
    8.5632  -14.8291   20.8806 C   0  0  1  0  0  0  0  0  0  0  0  0
    8.6491  -15.7789   21.9581 C   0  0  0  0  0  0  0  0  0  0  0  0
    8.1139  -16.9101   22.0757 O   0  0  0  0  0  0  0  0  0  0  0  0
    5.5759  -11.3004   28.3970 O   0  0  0  0  0  0  0  0  0  0  0  0
    6.2679  -11.8870   27.3576 C   0  0  0  0  0  0  0  0  0  0  0  0
    6.7278  -11.0983   26.3184 C   0  0  0  0  0  0  0  0  0  0  0  0
    7.4197  -11.6575   25.2688 C   0  0  0  0  0  0  0  0  0  0  0  0
    7.6717  -13.0122   25.2266 C   0  0  0  0  0  0  0  0  0  0  0  0
    8.4061  -13.5727   24.0749 C   0  0  0  0  0  0  0  0  0  0  0  0
    8.8578  -14.9795   24.3562 C   0  0  2  0  0  0  0  0  0  0  0  0
    9.4565  -15.4710   23.1388 N   0  0  0  0  0  0  0  0  0  0  0  0
    7.7797  -15.8535   24.8393 C   0  0  0  0  0  0  0  0  0  0  0  0
    7.2559  -15.7446   25.9821 O   0  0  0  0  0  0  0  0  0  0  0  0
    7.2206  -13.8132   26.2550 C   0  0  0  0  0  0  0  0  0  0  0  0
    6.5255  -13.2594   27.3115 C   0  0  0  0  0  0  0  0  0  0  0  0
    7.3029  -16.8484   24.0134 O   0  0  0  0  0  0  0  0  0  0  0  0
  2  1  1  0
  2  4  1  0
  3  2  2  0
  5  4  1  0
  5  6  1  1
  7  8  2  0
  7  5  1  0
  9  7  1  0
 10  9  1  0
 11 10  1  0
 12 11  1  0
 12 13  1  0
 13  9  1  0
 14 23  1  0
 13 14  1  1
 15 14  2  0
 17 18  2  0
 17 16  1  0
 19 18  1  0
 20 19  2  0
 21 20  1  0
 22 21  1  6
 22 23  1  0
 22 24  1  0
 24 28  1  0
 25 24  2  0
 26 20  1  0
 26 27  2  0
 27 17  1  0
M  END
$$$$
