GDV.pdb
     RDKit          3D

 20 19  0  0  1  0  0  0  0  0999 V2000
   13.8455  -11.4468    3.9698 N   0  0  0  0  0  0  0  0  0  0  0  0
   14.7827  -12.4734    3.6301 C   0  0  0  0  0  0  0  0  0  0  0  0
   15.3261  -13.1297    4.8586 C   0  0  0  0  0  0  0  0  0  0  0  0
   15.0221  -12.7418    5.9957 O   0  0  0  0  0  0  0  0  0  0  0  0
   16.2160  -14.2292    4.7241 N   0  0  0  0  0  0  0  0  0  0  0  0
   16.8121  -14.9276    5.8456 C   0  0  1  0  0  0  0  0  0  0  0  0
   17.1456  -16.3372    5.4476 C   0  0  0  0  0  0  0  0  0  0  0  0
   16.1371  -17.3125    5.8997 C   0  0  0  0  0  0  0  0  0  0  0  0
   16.0172  -18.3880    5.2598 O   0  0  0  0  0  0  0  0  0  0  0  0
   18.1074  -14.2127    6.1386 C   0  0  0  0  0  0  0  0  0  0  0  0
   18.8918  -13.9555    5.1808 O   0  0  0  0  0  0  0  0  0  0  0  0
   15.3104  -17.1180    6.9887 O   0  0  0  0  0  0  0  0  0  0  0  0
   20.5070  -10.8448    8.5495 C   0  0  0  0  0  0  0  0  0  0  0  0
   19.2757  -11.6957    8.2587 C   0  0  1  0  0  0  0  0  0  0  0  0
   18.3164  -10.9510    7.3586 C   0  0  0  0  0  0  0  0  0  0  0  0
   19.6848  -13.0261    7.6589 C   0  0  2  0  0  0  0  0  0  0  0  0
   18.4899  -13.8153    7.4285 N   0  0  0  0  0  0  0  0  0  0  0  0
   20.6301  -13.7587    8.5031 C   0  0  0  0  0  0  0  0  0  0  0  0
   20.2274  -14.7028    9.2166 O   0  0  0  0  0  0  0  0  0  0  0  0
   21.9629  -13.4066    8.5103 O   0  0  0  0  0  0  0  0  0  0  0  0
  2  1  1  0
  2  3  1  0
  3  4  2  0
  3  5  1  0
  5  6  1  0
  6  7  1  6
  7  8  1  0
  8 12  1  0
  9  8  2  0
 10 11  2  0
 10  6  1  0
 14 13  1  6
 15 14  1  0
 16 14  1  0
 16 17  1  1
 17 10  1  0
 18 16  1  0
 19 18  2  0
 20 18  1  0
M  END
$$$$
