GDV.pdb
     RDKit          3D

 20 19  0  0  1  0  0  0  0  0999 V2000
   21.1335  -12.0577  -19.0132 N   0  0  0  0  0  0  0  0  0  0  0  0
   21.2371  -10.6515  -19.2577 C   0  0  0  0  0  0  0  0  0  0  0  0
   20.5614   -9.8694  -18.1773 C   0  0  0  0  0  0  0  0  0  0  0  0
   19.3890  -10.0933  -17.8440 O   0  0  0  0  0  0  0  0  0  0  0  0
   21.2791   -8.8398  -17.5112 N   0  0  0  0  0  0  0  0  0  0  0  0
   20.7068   -7.9893  -16.4866 C   0  0  1  0  0  0  0  0  0  0  0  0
   21.4978   -8.1210  -15.2164 C   0  0  0  0  0  0  0  0  0  0  0  0
   20.9413   -7.3202  -14.1110 C   0  0  0  0  0  0  0  0  0  0  0  0
   19.7929   -7.6050  -13.6862 O   0  0  0  0  0  0  0  0  0  0  0  0
   20.8667   -6.5746  -16.9846 C   0  0  0  0  0  0  0  0  0  0  0  0
   21.9539   -6.2426  -17.5383 O   0  0  0  0  0  0  0  0  0  0  0  0
   21.6063   -6.2702  -13.5089 O   0  0  0  0  0  0  0  0  0  0  0  0
   19.6843   -4.8628  -19.7333 C   0  0  0  0  0  0  0  0  0  0  0  0
   19.1759   -4.0342  -18.5587 C   0  0  1  0  0  0  0  0  0  0  0  0
   17.7311   -4.3649  -18.2618 C   0  0  0  0  0  0  0  0  0  0  0  0
   20.0576   -4.2458  -17.3443 C   0  0  2  0  0  0  0  0  0  0  0  0
   19.8642   -5.6008  -16.8642 N   0  0  0  0  0  0  0  0  0  0  0  0
   19.7904   -3.2793  -16.2778 C   0  0  0  0  0  0  0  0  0  0  0  0
   19.1112   -3.6178  -15.2847 O   0  0  0  0  0  0  0  0  0  0  0  0
   20.2883   -1.9970  -16.3702 O   0  0  0  0  0  0  0  0  0  0  0  0
  2  1  1  0
  2  3  1  0
  3  4  2  0
  3  5  1  0
  5  6  1  0
  6  7  1  1
  7  8  1  0
  8 12  1  0
  9  8  2  0
 10 11  2  0
 10  6  1  0
 14 13  1  6
 15 14  1  0
 16 14  1  0
 16 17  1  1
 17 10  1  0
 18 16  1  0
 19 18  2  0
 20 18  1  0
M  END
$$$$
