GDV.pdb
     RDKit          3D

 20 19  0  0  1  0  0  0  0  0999 V2000
   15.8442  -14.2005  -16.7779 N   0  0  0  0  0  0  0  0  0  0  0  0
   16.0660  -13.1202  -15.8660 C   0  0  0  0  0  0  0  0  0  0  0  0
   17.2098  -12.2681  -16.3140 C   0  0  0  0  0  0  0  0  0  0  0  0
   18.3028  -12.7567  -16.6341 O   0  0  0  0  0  0  0  0  0  0  0  0
   17.0442  -10.8582  -16.3764 N   0  0  0  0  0  0  0  0  0  0  0  0
   18.0673   -9.9449  -16.8453 C   0  0  1  0  0  0  0  0  0  0  0  0
   17.4512   -8.6133  -17.1673 C   0  0  0  0  0  0  0  0  0  0  0  0
   18.4206   -7.6561  -17.7299 C   0  0  0  0  0  0  0  0  0  0  0  0
   18.1120   -6.4376  -17.7537 O   0  0  0  0  0  0  0  0  0  0  0  0
   19.0108   -9.7478  -15.6853 C   0  0  0  0  0  0  0  0  0  0  0  0
   18.5361   -9.7033  -14.5143 O   0  0  0  0  0  0  0  0  0  0  0  0
   19.6544   -8.0157  -18.2356 O   0  0  0  0  0  0  0  0  0  0  0  0
   23.5444  -10.2326  -13.8772 C   0  0  0  0  0  0  0  0  0  0  0  0
   22.5262  -10.3674  -15.0040 C   0  0  1  0  0  0  0  0  0  0  0  0
   22.1862  -11.8210  -15.2411 C   0  0  0  0  0  0  0  0  0  0  0  0
   21.2888   -9.5480  -14.6963 C   0  0  2  0  0  0  0  0  0  0  0  0
   20.3983   -9.6101  -15.8395 N   0  0  0  0  0  0  0  0  0  0  0  0
   21.6017   -8.1573  -14.3630 C   0  0  0  0  0  0  0  0  0  0  0  0
   21.8571   -7.3398  -15.2734 O   0  0  0  0  0  0  0  0  0  0  0  0
   21.6141   -7.7510  -13.0458 O   0  0  0  0  0  0  0  0  0  0  0  0
  2  1  1  0
  2  3  1  0
  3  4  2  0
  3  5  1  0
  5  6  1  0
  6  7  1  1
  7  8  1  0
  8 12  1  0
  9  8  2  0
 10 11  2  0
 10  6  1  0
 14 13  1  1
 15 14  1  0
 16 14  1  0
 16 17  1  6
 17 10  1  0
 18 16  1  0
 19 18  2  0
 20 18  1  0
M  END
$$$$
