GDV.pdb
     RDKit          3D

 20 19  0  0  1  0  0  0  0  0999 V2000
   15.6982  -14.4479  -17.3567 N   0  0  0  0  0  0  0  0  0  0  0  0
   15.5005  -13.0321  -17.4206 C   0  0  0  0  0  0  0  0  0  0  0  0
   16.5198  -12.3118  -16.5975 C   0  0  0  0  0  0  0  0  0  0  0  0
   16.4407  -12.2549  -15.3621 O   0  0  0  0  0  0  0  0  0  0  0  0
   17.6115  -11.6731  -17.2450 N   0  0  0  0  0  0  0  0  0  0  0  0
   18.6300  -10.9121  -16.5492 C   0  0  1  0  0  0  0  0  0  0  0  0
   19.9691  -11.1541  -17.1855 C   0  0  0  0  0  0  0  0  0  0  0  0
   20.4863  -12.5106  -16.9302 C   0  0  0  0  0  0  0  0  0  0  0  0
   20.9130  -12.7804  -15.7788 O   0  0  0  0  0  0  0  0  0  0  0  0
   18.2771   -9.4603  -16.7561 C   0  0  0  0  0  0  0  0  0  0  0  0
   17.9520   -9.0712  -17.9144 O   0  0  0  0  0  0  0  0  0  0  0  0
   20.5320  -13.5101  -17.8821 O   0  0  0  0  0  0  0  0  0  0  0  0
   16.5686   -5.2117  -15.2160 C   0  0  0  0  0  0  0  0  0  0  0  0
   16.7993   -6.7164  -15.1313 C   0  0  1  0  0  0  0  0  0  0  0  0
   15.5563   -7.4684  -15.5488 C   0  0  0  0  0  0  0  0  0  0  0  0
   17.9989   -7.1131  -15.9684 C   0  0  2  0  0  0  0  0  0  0  0  0
   18.2910   -8.5123  -15.7222 N   0  0  0  0  0  0  0  0  0  0  0  0
   19.1757   -6.2863  -15.6953 C   0  0  0  0  0  0  0  0  0  0  0  0
   20.0316   -6.6723  -14.8702 O   0  0  0  0  0  0  0  0  0  0  0  0
   19.3384   -5.0832  -16.3484 O   0  0  0  0  0  0  0  0  0  0  0  0
  2  1  1  0
  2  3  1  0
  3  4  2  0
  3  5  1  0
  5  6  1  0
  6  7  1  6
  7  8  1  0
  8 12  1  0
  9  8  2  0
 10 11  2  0
 10  6  1  0
 14 13  1  6
 15 14  1  0
 16 14  1  0
 16 17  1  1
 17 10  1  0
 18 16  1  0
 19 18  2  0
 20 18  1  0
M  END
$$$$
