GDV.pdb
     RDKit          3D

 20 19  0  0  1  0  0  0  0  0999 V2000
   17.2481  -14.8344  -15.3341 N   0  0  0  0  0  0  0  0  0  0  0  0
   16.6422  -13.5462  -15.1882 C   0  0  0  0  0  0  0  0  0  0  0  0
   17.5275  -12.4734  -15.7365 C   0  0  0  0  0  0  0  0  0  0  0  0
   18.6223  -12.7317  -16.2566 O   0  0  0  0  0  0  0  0  0  0  0  0
   17.1064  -11.1184  -15.6616 N   0  0  0  0  0  0  0  0  0  0  0  0
   17.8389  -10.0117  -16.2443 C   0  0  1  0  0  0  0  0  0  0  0  0
   16.9130   -8.8498  -16.4661 C   0  0  0  0  0  0  0  0  0  0  0  0
   15.9241   -9.1019  -17.5296 C   0  0  0  0  0  0  0  0  0  0  0  0
   16.3433   -9.4005  -18.6767 O   0  0  0  0  0  0  0  0  0  0  0  0
   18.8576   -9.5987  -15.2116 C   0  0  0  0  0  0  0  0  0  0  0  0
   18.5081   -9.5467  -13.9976 O   0  0  0  0  0  0  0  0  0  0  0  0
   14.5574   -9.0305  -17.3442 O   0  0  0  0  0  0  0  0  0  0  0  0
   22.3782  -11.0623  -14.8723 C   0  0  0  0  0  0  0  0  0  0  0  0
   22.4828   -9.5412  -14.8722 C   0  0  1  0  0  0  0  0  0  0  0  0
   22.9785   -9.0431  -16.2105 C   0  0  0  0  0  0  0  0  0  0  0  0
   21.1490   -8.9218  -14.5055 C   0  0  2  0  0  0  0  0  0  0  0  0
   20.1827   -9.2667  -15.5307 N   0  0  0  0  0  0  0  0  0  0  0  0
   21.2278   -7.4693  -14.3408 C   0  0  0  0  0  0  0  0  0  0  0  0
   20.7839   -6.7152  -15.2334 O   0  0  0  0  0  0  0  0  0  0  0  0
   21.7913   -6.9351  -13.2017 O   0  0  0  0  0  0  0  0  0  0  0  0
  2  1  1  0
  2  3  1  0
  3  4  2  0
  3  5  1  0
  5  6  1  0
  6  7  1  1
  7  8  1  0
  8 12  1  0
  9  8  2  0
 10 11  2  0
 10  6  1  0
 14 13  1  6
 15 14  1  0
 16 14  1  0
 16 17  1  6
 17 10  1  0
 18 16  1  0
 19 18  2  0
 20 18  1  0
M  END
$$$$
