GDV.pdb
     RDKit          3D

 20 19  0  0  1  0  0  0  0  0999 V2000
   16.7549  -13.4621  -16.6872 N   0  0  0  0  0  0  0  0  0  0  0  0
   17.9611  -13.6740  -17.4274 C   0  0  0  0  0  0  0  0  0  0  0  0
   18.8091  -12.4427  -17.4323 C   0  0  0  0  0  0  0  0  0  0  0  0
   20.0465  -12.5015  -17.4695 O   0  0  0  0  0  0  0  0  0  0  0  0
   18.1839  -11.1674  -17.3934 N   0  0  0  0  0  0  0  0  0  0  0  0
   18.8962   -9.9140  -17.5431 C   0  0  1  0  0  0  0  0  0  0  0  0
   17.9299   -8.8191  -17.8954 C   0  0  0  0  0  0  0  0  0  0  0  0
   18.5897   -7.5156  -18.0910 C   0  0  0  0  0  0  0  0  0  0  0  0
   19.7246   -7.4956  -18.6316 O   0  0  0  0  0  0  0  0  0  0  0  0
   19.4734   -9.6000  -16.1855 C   0  0  0  0  0  0  0  0  0  0  0  0
   18.7317   -9.7104  -15.1675 O   0  0  0  0  0  0  0  0  0  0  0  0
   18.0363   -6.3073  -17.7156 O   0  0  0  0  0  0  0  0  0  0  0  0
   22.2402  -11.2349  -14.4835 C   0  0  0  0  0  0  0  0  0  0  0  0
   22.5818   -9.7490  -14.4715 C   0  0  1  0  0  0  0  0  0  0  0  0
   23.6270   -9.4362  -15.5177 C   0  0  0  0  0  0  0  0  0  0  0  0
   21.3290   -8.9191  -14.6688 C   0  0  2  0  0  0  0  0  0  0  0  0
   20.8006   -9.1888  -15.9924 N   0  0  0  0  0  0  0  0  0  0  0  0
   21.5684   -7.4856  -14.4928 C   0  0  0  0  0  0  0  0  0  0  0  0
   21.8492   -7.0342  -13.3616 O   0  0  0  0  0  0  0  0  0  0  0  0
   21.4837   -6.6356  -15.5748 O   0  0  0  0  0  0  0  0  0  0  0  0
  2  1  1  0
  2  3  1  0
  3  4  2  0
  3  5  1  0
  5  6  1  0
  6  7  1  1
  7  8  1  0
  8 12  1  0
  9  8  2  0
 10 11  2  0
 10  6  1  0
 14 13  1  6
 15 14  1  0
 16 14  1  0
 16 17  1  6
 17 10  1  0
 18 16  1  0
 19 18  2  0
 20 18  1  0
M  END
$$$$
