GGW.pdb
     RDKit          3D

 23 24  0  0  1  0  0  0  0  0999 V2000
   26.5560  -17.0659  -17.2831 N   0  0  0  0  0  0  0  0  0  0  0  0
   26.2569  -16.7281  -15.9189 C   0  0  0  0  0  0  0  0  0  0  0  0
   27.0492  -17.5453  -14.9583 C   0  0  0  0  0  0  0  0  0  0  0  0
   26.9921  -17.2260  -13.7446 O   0  0  0  0  0  0  0  0  0  0  0  0
   27.8492  -18.6512  -15.3703 N   0  0  0  0  0  0  0  0  0  0  0  0
   28.5318  -19.5268  -14.4820 C   0  0  0  0  0  0  0  0  0  0  0  0
   27.7258  -20.5953  -13.8800 C   0  0  0  0  0  0  0  0  0  0  0  0
   27.8399  -21.7527  -14.3928 O   0  0  0  0  0  0  0  0  0  0  0  0
   26.8439  -20.4662  -12.8010 N   0  0  0  0  0  0  0  0  0  0  0  0
   26.1027  -21.5830  -12.2333 C   0  0  1  0  0  0  0  0  0  0  0  0
   26.5976  -22.0373  -10.9060 C   0  0  0  0  0  0  0  0  0  0  0  0
   26.4958  -21.0531   -9.8189 C   0  0  0  0  0  0  0  0  0  0  0  0
   25.4668  -20.1723   -9.6162 C   0  0  0  0  0  0  0  0  0  0  0  0
   25.6879  -19.4192   -8.5338 N   0  0  0  0  0  0  0  0  0  0  0  0
   26.8692  -19.7903   -8.0017 C   0  0  0  0  0  0  0  0  0  0  0  0
   27.5606  -19.3344   -6.8857 C   0  0  0  0  0  0  0  0  0  0  0  0
   28.7714  -19.8845   -6.5426 C   0  0  0  0  0  0  0  0  0  0  0  0
   29.2805  -20.9034   -7.3395 C   0  0  0  0  0  0  0  0  0  0  0  0
   28.6031  -21.3614   -8.4464 C   0  0  0  0  0  0  0  0  0  0  0  0
   27.3851  -20.8107   -8.7949 C   0  0  0  0  0  0  0  0  0  0  0  0
   24.6982  -21.1186  -12.0689 C   0  0  0  0  0  0  0  0  0  0  0  0
   24.3673  -19.9025  -12.0945 O   0  0  0  0  0  0  0  0  0  0  0  0
   23.6448  -22.0200  -11.8728 O   0  0  0  0  0  0  0  0  0  0  0  0
  2  1  1  0
  3  5  1  0
  3  2  1  0
  4  3  2  0
  6  5  1  0
  7  9  1  0
  7  6  1  0
  8  7  2  0
 10 21  1  0
 10  9  1  0
 10 11  1  1
 11 12  1  0
 12 13  2  0
 12 20  1  0
 13 14  1  0
 14 15  1  0
 15 16  2  0
 17 16  1  0
 18 17  2  0
 19 20  2  0
 19 18  1  0
 20 15  1  0
 21 23  1  0
 22 21  2  0
M  END
$$$$
