GGW.pdb
     RDKit          3D

 23 24  0  0  1  0  0  0  0  0999 V2000
   28.7441  -17.8262  -18.0460 N   0  0  0  0  0  0  0  0  0  0  0  0
   27.7715  -16.9051  -17.5264 C   0  0  0  0  0  0  0  0  0  0  0  0
   27.1664  -17.3945  -16.2566 C   0  0  0  0  0  0  0  0  0  0  0  0
   26.0642  -17.9922  -16.3351 O   0  0  0  0  0  0  0  0  0  0  0  0
   27.7897  -17.2069  -14.9881 N   0  0  0  0  0  0  0  0  0  0  0  0
   27.2680  -17.6866  -13.7554 C   0  0  0  0  0  0  0  0  0  0  0  0
   27.0072  -19.1288  -13.6805 C   0  0  0  0  0  0  0  0  0  0  0  0
   27.5974  -19.8597  -14.5368 O   0  0  0  0  0  0  0  0  0  0  0  0
   26.1731  -19.7779  -12.7632 N   0  0  0  0  0  0  0  0  0  0  0  0
   26.1085  -21.2253  -12.6231 C   0  0  1  0  0  0  0  0  0  0  0  0
   26.8110  -21.7584  -11.4250 C   0  0  0  0  0  0  0  0  0  0  0  0
   26.4625  -21.1199  -10.1476 C   0  0  0  0  0  0  0  0  0  0  0  0
   25.2168  -20.6991   -9.7646 C   0  0  0  0  0  0  0  0  0  0  0  0
   25.2482  -20.1637   -8.5398 N   0  0  0  0  0  0  0  0  0  0  0  0
   26.5180  -20.2218   -8.0917 C   0  0  0  0  0  0  0  0  0  0  0  0
   27.0924  -19.8088   -6.8955 C   0  0  0  0  0  0  0  0  0  0  0  0
   28.4364  -19.9811   -6.6711 C   0  0  0  0  0  0  0  0  0  0  0  0
   29.1989  -20.5767   -7.6693 C   0  0  0  0  0  0  0  0  0  0  0  0
   28.6390  -20.9887   -8.8570 C   0  0  0  0  0  0  0  0  0  0  0  0
   27.2876  -20.8172   -9.0865 C   0  0  0  0  0  0  0  0  0  0  0  0
   24.6664  -21.5751  -12.5072 C   0  0  0  0  0  0  0  0  0  0  0  0
   23.7689  -20.7248  -12.2609 O   0  0  0  0  0  0  0  0  0  0  0  0
   24.2146  -22.8907  -12.6675 O   0  0  0  0  0  0  0  0  0  0  0  0
  2  1  1  0
  3  5  1  0
  3  2  1  0
  4  3  2  0
  6  5  1  0
  7  9  1  0
  7  6  1  0
  8  7  2  0
 10 21  1  0
 10  9  1  0
 10 11  1  1
 11 12  1  0
 12 13  2  0
 12 20  1  0
 13 14  1  0
 14 15  1  0
 15 16  2  0
 17 16  1  0
 18 17  2  0
 19 20  2  0
 19 18  1  0
 20 15  1  0
 21 23  1  0
 22 21  2  0
M  END
$$$$
