GGW.pdb
     RDKit          3D

 23 24  0  0  1  0  0  0  0  0999 V2000
   26.1821  -17.4038  -17.4243 N   0  0  0  0  0  0  0  0  0  0  0  0
   25.8773  -17.0779  -16.0586 C   0  0  0  0  0  0  0  0  0  0  0  0
   26.7756  -17.7865  -15.1051 C   0  0  0  0  0  0  0  0  0  0  0  0
   26.6616  -17.5044  -13.8862 O   0  0  0  0  0  0  0  0  0  0  0  0
   27.7360  -18.7511  -15.5294 N   0  0  0  0  0  0  0  0  0  0  0  0
   28.5825  -19.4842  -14.6532 C   0  0  0  0  0  0  0  0  0  0  0  0
   27.9430  -20.5571  -13.8827 C   0  0  0  0  0  0  0  0  0  0  0  0
   28.2921  -21.7465  -14.1642 O   0  0  0  0  0  0  0  0  0  0  0  0
   26.9871  -20.4013  -12.8726 N   0  0  0  0  0  0  0  0  0  0  0  0
   26.2894  -21.5168  -12.2501 C   0  0  1  0  0  0  0  0  0  0  0  0
   26.8871  -21.9765  -10.9677 C   0  0  0  0  0  0  0  0  0  0  0  0
   26.6424  -21.1100   -9.8058 C   0  0  0  0  0  0  0  0  0  0  0  0
   25.4991  -20.4006   -9.5498 C   0  0  0  0  0  0  0  0  0  0  0  0
   25.6065  -19.7169   -8.4058 N   0  0  0  0  0  0  0  0  0  0  0  0
   26.8250  -19.9633   -7.8854 C   0  0  0  0  0  0  0  0  0  0  0  0
   27.4394  -19.5103   -6.7240 C   0  0  0  0  0  0  0  0  0  0  0  0
   28.7132  -19.9135   -6.4060 C   0  0  0  0  0  0  0  0  0  0  0  0
   29.3644  -20.7819   -7.2745 C   0  0  0  0  0  0  0  0  0  0  0  0
   28.7641  -21.2358   -8.4268 C   0  0  0  0  0  0  0  0  0  0  0  0
   27.4830  -20.8325   -8.7502 C   0  0  0  0  0  0  0  0  0  0  0  0
   24.9043  -21.0478  -11.9727 C   0  0  0  0  0  0  0  0  0  0  0  0
   23.9712  -21.8217  -11.6270 O   0  0  0  0  0  0  0  0  0  0  0  0
   24.5506  -19.6973  -12.0813 O   0  0  0  0  0  0  0  0  0  0  0  0
  2  1  1  0
  3  5  1  0
  3  2  1  0
  4  3  2  0
  6  5  1  0
  7  9  1  0
  7  6  1  0
  8  7  2  0
 10 21  1  0
 10  9  1  0
 10 11  1  1
 11 12  1  0
 12 13  2  0
 12 20  1  0
 13 14  1  0
 14 15  1  0
 15 16  2  0
 17 16  1  0
 18 17  2  0
 19 20  2  0
 19 18  1  0
 20 15  1  0
 21 23  1  0
 22 21  2  0
M  END
$$$$
