GGW.pdb
     RDKit          3D

 23 24  0  0  1  0  0  0  0  0999 V2000
   25.7152  -17.1852  -16.1289 N   0  0  0  0  0  0  0  0  0  0  0  0
   25.6301  -17.5122  -14.7324 C   0  0  0  0  0  0  0  0  0  0  0  0
   26.4723  -18.6907  -14.3860 C   0  0  0  0  0  0  0  0  0  0  0  0
   26.2060  -19.7782  -14.9560 O   0  0  0  0  0  0  0  0  0  0  0  0
   27.5445  -18.6179  -13.4490 N   0  0  0  0  0  0  0  0  0  0  0  0
   28.2765  -19.7405  -12.9738 C   0  0  0  0  0  0  0  0  0  0  0  0
   27.5446  -20.6699  -12.1053 C   0  0  0  0  0  0  0  0  0  0  0  0
   27.4120  -21.8609  -12.5291 O   0  0  0  0  0  0  0  0  0  0  0  0
   26.9773  -20.3751  -10.8605 N   0  0  0  0  0  0  0  0  0  0  0  0
   26.2743  -21.3565  -10.0472 C   0  0  1  0  0  0  0  0  0  0  0  0
   26.9083  -21.6295   -8.7293 C   0  0  0  0  0  0  0  0  0  0  0  0
   27.2003  -20.4463   -7.9074 C   0  0  0  0  0  0  0  0  0  0  0  0
   26.8559  -19.1527   -8.1968 C   0  0  0  0  0  0  0  0  0  0  0  0
   27.2716  -18.3207   -7.2364 N   0  0  0  0  0  0  0  0  0  0  0  0
   27.8991  -19.0517   -6.2940 C   0  0  0  0  0  0  0  0  0  0  0  0
   28.5104  -18.6866   -5.1005 C   0  0  0  0  0  0  0  0  0  0  0  0
   29.0920  -19.6357   -4.2959 C   0  0  0  0  0  0  0  0  0  0  0  0
   29.0510  -20.9625   -4.7084 C   0  0  0  0  0  0  0  0  0  0  0  0
   28.4480  -21.3336   -5.8886 C   0  0  0  0  0  0  0  0  0  0  0  0
   27.8619  -20.3820   -6.7006 C   0  0  0  0  0  0  0  0  0  0  0  0
   24.9140  -20.8051   -9.8005 C   0  0  0  0  0  0  0  0  0  0  0  0
   24.0218  -21.4305   -9.1665 O   0  0  0  0  0  0  0  0  0  0  0  0
   24.5393  -19.5387  -10.2658 O   0  0  0  0  0  0  0  0  0  0  0  0
  2  1  1  0
  3  5  1  0
  3  2  1  0
  4  3  2  0
  6  5  1  0
  7  9  1  0
  7  6  1  0
  8  7  2  0
 10 21  1  0
 10  9  1  0
 10 11  1  1
 11 12  1  0
 12 13  2  0
 12 20  1  0
 13 14  1  0
 14 15  1  0
 15 16  2  0
 17 16  1  0
 18 17  2  0
 19 20  2  0
 19 18  1  0
 20 15  1  0
 21 23  1  0
 22 21  2  0
M  END
$$$$
