GGW.pdb
     RDKit          3D

 23 24  0  0  1  0  0  0  0  0999 V2000
   26.2944  -20.3998  -16.3255 N   0  0  0  0  0  0  0  0  0  0  0  0
   25.6882  -19.6230  -15.2797 C   0  0  0  0  0  0  0  0  0  0  0  0
   26.5416  -19.5724  -14.0601 C   0  0  0  0  0  0  0  0  0  0  0  0
   26.6897  -18.4551  -13.5051 O   0  0  0  0  0  0  0  0  0  0  0  0
   27.1775  -20.7289  -13.5210 N   0  0  0  0  0  0  0  0  0  0  0  0
   27.9487  -20.7409  -12.3264 C   0  0  0  0  0  0  0  0  0  0  0  0
   27.2400  -21.1326  -11.1025 C   0  0  0  0  0  0  0  0  0  0  0  0
   27.3759  -22.3394  -10.7270 O   0  0  0  0  0  0  0  0  0  0  0  0
   26.4290  -20.3118  -10.3106 N   0  0  0  0  0  0  0  0  0  0  0  0
   25.7762  -20.7661   -9.0915 C   0  0  1  0  0  0  0  0  0  0  0  0
   26.1005  -19.9598   -7.8840 C   0  0  0  0  0  0  0  0  0  0  0  0
   27.4875  -20.0587   -7.4075 C   0  0  0  0  0  0  0  0  0  0  0  0
   28.5837  -20.3792   -8.1633 C   0  0  0  0  0  0  0  0  0  0  0  0
   29.6947  -20.3779   -7.4194 N   0  0  0  0  0  0  0  0  0  0  0  0
   29.3508  -20.0558   -6.1568 C   0  0  0  0  0  0  0  0  0  0  0  0
   30.1116  -19.9154   -5.0023 C   0  0  0  0  0  0  0  0  0  0  0  0
   29.5169  -19.5728   -3.8125 C   0  0  0  0  0  0  0  0  0  0  0  0
   28.1414  -19.3723   -3.7983 C   0  0  0  0  0  0  0  0  0  0  0  0
   27.3799  -19.5091   -4.9365 C   0  0  0  0  0  0  0  0  0  0  0  0
   27.9742  -19.8536   -6.1350 C   0  0  0  0  0  0  0  0  0  0  0  0
   24.3111  -20.6669   -9.3339 C   0  0  0  0  0  0  0  0  0  0  0  0
   23.8175  -20.1135  -10.3534 O   0  0  0  0  0  0  0  0  0  0  0  0
   23.3797  -21.1910   -8.4292 O   0  0  0  0  0  0  0  0  0  0  0  0
  2  1  1  0
  3  5  1  0
  3  2  1  0
  4  3  2  0
  6  5  1  0
  7  9  1  0
  7  6  1  0
  8  7  2  0
 10 21  1  0
 10  9  1  0
 10 11  1  1
 11 12  1  0
 12 13  2  0
 12 20  1  0
 13 14  1  0
 14 15  1  0
 15 16  2  0
 17 16  1  0
 18 17  2  0
 19 20  2  0
 19 18  1  0
 20 15  1  0
 21 23  1  0
 22 21  2  0
M  END
$$$$
