GGW.pdb
     RDKit          3D

 23 24  0  0  1  0  0  0  0  0999 V2000
   27.0811  -16.4293  -14.6515 N   0  0  0  0  0  0  0  0  0  0  0  0
   25.9016  -17.1831  -14.3273 C   0  0  0  0  0  0  0  0  0  0  0  0
   26.2269  -18.5846  -13.9423 C   0  0  0  0  0  0  0  0  0  0  0  0
   25.2906  -19.4220  -13.9664 O   0  0  0  0  0  0  0  0  0  0  0  0
   27.5388  -18.9890  -13.5575 N   0  0  0  0  0  0  0  0  0  0  0  0
   27.9630  -20.3411  -13.4407 C   0  0  0  0  0  0  0  0  0  0  0  0
   27.4578  -21.0798  -12.2776 C   0  0  0  0  0  0  0  0  0  0  0  0
   27.5145  -22.3481  -12.3398 O   0  0  0  0  0  0  0  0  0  0  0  0
   26.9187  -20.5277  -11.1102 N   0  0  0  0  0  0  0  0  0  0  0  0
   26.3366  -21.3254  -10.0408 C   0  0  1  0  0  0  0  0  0  0  0  0
   27.2143  -21.4920   -8.8512 C   0  0  0  0  0  0  0  0  0  0  0  0
   27.3311  -20.3154   -7.9779 C   0  0  0  0  0  0  0  0  0  0  0  0
   26.8586  -19.0577   -8.2441 C   0  0  0  0  0  0  0  0  0  0  0  0
   27.1306  -18.2214   -7.2371 N   0  0  0  0  0  0  0  0  0  0  0  0
   27.7888  -18.9135   -6.2863 C   0  0  0  0  0  0  0  0  0  0  0  0
   28.2957  -18.5281   -5.0510 C   0  0  0  0  0  0  0  0  0  0  0  0
   28.9396  -19.4367   -4.2470 C   0  0  0  0  0  0  0  0  0  0  0  0
   29.0678  -20.7436   -4.7029 C   0  0  0  0  0  0  0  0  0  0  0  0
   28.5691  -21.1345   -5.9246 C   0  0  0  0  0  0  0  0  0  0  0  0
   27.9210  -20.2237   -6.7362 C   0  0  0  0  0  0  0  0  0  0  0  0
   25.1015  -20.6162   -9.6083 C   0  0  0  0  0  0  0  0  0  0  0  0
   24.7873  -19.4668  -10.0195 O   0  0  0  0  0  0  0  0  0  0  0  0
   24.2013  -21.1937   -8.7045 O   0  0  0  0  0  0  0  0  0  0  0  0
  2  1  1  0
  3  5  1  0
  3  2  1  0
  4  3  2  0
  6  5  1  0
  7  9  1  0
  7  6  1  0
  8  7  2  0
 10 21  1  0
 10  9  1  0
 10 11  1  1
 11 12  1  0
 12 13  2  0
 12 20  1  0
 13 14  1  0
 14 15  1  0
 15 16  2  0
 17 16  1  0
 18 17  2  0
 19 20  2  0
 19 18  1  0
 20 15  1  0
 21 23  1  0
 22 21  2  0
M  END
$$$$
