GGW.pdb
     RDKit          3D

 23 24  0  0  1  0  0  0  0  0999 V2000
   27.1725  -22.9501  -16.0736 N   0  0  0  0  0  0  0  0  0  0  0  0
   27.7365  -21.6307  -16.1473 C   0  0  0  0  0  0  0  0  0  0  0  0
   27.6202  -20.9043  -14.8523 C   0  0  0  0  0  0  0  0  0  0  0  0
   26.8360  -19.9237  -14.8089 O   0  0  0  0  0  0  0  0  0  0  0  0
   28.3566  -21.2834  -13.6919 N   0  0  0  0  0  0  0  0  0  0  0  0
   28.2164  -20.6748  -12.4145 C   0  0  0  0  0  0  0  0  0  0  0  0
   27.1017  -21.1532  -11.5885 C   0  0  0  0  0  0  0  0  0  0  0  0
   26.3243  -22.0070  -12.1200 O   0  0  0  0  0  0  0  0  0  0  0  0
   26.8086  -20.7616  -10.2773 N   0  0  0  0  0  0  0  0  0  0  0  0
   25.7390  -21.3506   -9.4848 C   0  0  1  0  0  0  0  0  0  0  0  0
   26.0119  -21.3973   -8.0231 C   0  0  0  0  0  0  0  0  0  0  0  0
   26.7215  -20.2342   -7.4716 C   0  0  0  0  0  0  0  0  0  0  0  0
   26.6757  -18.9529   -7.9535 C   0  0  0  0  0  0  0  0  0  0  0  0
   27.4360  -18.1370   -7.2160 N   0  0  0  0  0  0  0  0  0  0  0  0
   27.9984  -18.8667   -6.2323 C   0  0  0  0  0  0  0  0  0  0  0  0
   28.8637  -18.5141   -5.2036 C   0  0  0  0  0  0  0  0  0  0  0  0
   29.3050  -19.4583   -4.3090 C   0  0  0  0  0  0  0  0  0  0  0  0
   28.8632  -20.7674   -4.4627 C   0  0  0  0  0  0  0  0  0  0  0  0
   28.0065  -21.1259   -5.4783 C   0  0  0  0  0  0  0  0  0  0  0  0
   27.5604  -20.1792   -6.3801 C   0  0  0  0  0  0  0  0  0  0  0  0
   24.5348  -20.5035   -9.7035 C   0  0  0  0  0  0  0  0  0  0  0  0
   24.5742  -19.3886  -10.2904 O   0  0  0  0  0  0  0  0  0  0  0  0
   23.2668  -20.9019   -9.2629 O   0  0  0  0  0  0  0  0  0  0  0  0
  2  1  1  0
  3  5  1  0
  3  2  1  0
  4  3  2  0
  6  5  1  0
  7  9  1  0
  7  6  1  0
  8  7  2  0
 10 21  1  0
 10  9  1  0
 10 11  1  1
 11 12  1  0
 12 13  2  0
 12 20  1  0
 13 14  1  0
 14 15  1  0
 15 16  2  0
 17 16  1  0
 18 17  2  0
 19 20  2  0
 19 18  1  0
 20 15  1  0
 21 23  1  0
 22 21  2  0
M  END
$$$$
