GGW.pdb
     RDKit          3D

 23 24  0  0  1  0  0  0  0  0999 V2000
   29.4930  -21.8992  -16.2532 N   0  0  0  0  0  0  0  0  0  0  0  0
   29.5645  -20.4794  -16.0446 C   0  0  0  0  0  0  0  0  0  0  0  0
   28.3895  -19.9702  -15.2843 C   0  0  0  0  0  0  0  0  0  0  0  0
   27.2489  -20.2270  -15.7442 O   0  0  0  0  0  0  0  0  0  0  0  0
   28.5228  -19.2188  -14.0800 N   0  0  0  0  0  0  0  0  0  0  0  0
   27.4315  -18.7232  -13.3149 C   0  0  0  0  0  0  0  0  0  0  0  0
   26.6860  -19.7159  -12.5324 C   0  0  0  0  0  0  0  0  0  0  0  0
   25.6997  -20.2725  -13.1097 O   0  0  0  0  0  0  0  0  0  0  0  0
   26.9510  -20.1082  -11.2154 N   0  0  0  0  0  0  0  0  0  0  0  0
   26.3645  -21.2881  -10.5969 C   0  0  1  0  0  0  0  0  0  0  0  0
   27.0091  -21.6969   -9.3200 C   0  0  0  0  0  0  0  0  0  0  0  0
   27.1438  -20.6385   -8.3088 C   0  0  0  0  0  0  0  0  0  0  0  0
   26.4821  -19.4394   -8.2969 C   0  0  0  0  0  0  0  0  0  0  0  0
   26.8341  -18.7094   -7.2335 N   0  0  0  0  0  0  0  0  0  0  0  0
   27.7361  -19.4151   -6.5232 C   0  0  0  0  0  0  0  0  0  0  0  0
   28.4138  -19.1226   -5.3457 C   0  0  0  0  0  0  0  0  0  0  0  0
   29.3006  -20.0238   -4.8090 C   0  0  0  0  0  0  0  0  0  0  0  0
   29.4981  -21.2282   -5.4744 C   0  0  0  0  0  0  0  0  0  0  0  0
   28.8316  -21.5266   -6.6409 C   0  0  0  0  0  0  0  0  0  0  0  0
   27.9389  -20.6229   -7.1838 C   0  0  0  0  0  0  0  0  0  0  0  0
   24.9427  -20.9533  -10.3107 C   0  0  0  0  0  0  0  0  0  0  0  0
   24.0722  -21.8226  -10.0358 O   0  0  0  0  0  0  0  0  0  0  0  0
   24.4811  -19.6315  -10.3304 O   0  0  0  0  0  0  0  0  0  0  0  0
  2  1  1  0
  3  5  1  0
  3  2  1  0
  4  3  2  0
  6  5  1  0
  7  9  1  0
  7  6  1  0
  8  7  2  0
 10 21  1  0
 10  9  1  0
 10 11  1  1
 11 12  1  0
 12 13  2  0
 12 20  1  0
 13 14  1  0
 14 15  1  0
 15 16  2  0
 17 16  1  0
 18 17  2  0
 19 20  2  0
 19 18  1  0
 20 15  1  0
 21 23  1  0
 22 21  2  0
M  END
$$$$
