GGW.pdb
     RDKit          3D

 23 24  0  0  1  0  0  0  0  0999 V2000
   25.0473  -16.7530  -15.8627 N   0  0  0  0  0  0  0  0  0  0  0  0
   25.9693  -16.3151  -14.8514 C   0  0  0  0  0  0  0  0  0  0  0  0
   27.0613  -17.3035  -14.6305 C   0  0  0  0  0  0  0  0  0  0  0  0
   28.0260  -16.9463  -13.9092 O   0  0  0  0  0  0  0  0  0  0  0  0
   27.0401  -18.6097  -15.2014 N   0  0  0  0  0  0  0  0  0  0  0  0
   28.0013  -19.6222  -14.9319 C   0  0  0  0  0  0  0  0  0  0  0  0
   27.5966  -20.6614  -13.9780 C   0  0  0  0  0  0  0  0  0  0  0  0
   28.2405  -21.7565  -14.0214 O   0  0  0  0  0  0  0  0  0  0  0  0
   26.5724  -20.5676  -13.0289 N   0  0  0  0  0  0  0  0  0  0  0  0
   25.9635  -21.7248  -12.3895 C   0  0  1  0  0  0  0  0  0  0  0  0
   26.5913  -22.1144  -11.0982 C   0  0  0  0  0  0  0  0  0  0  0  0
   26.4885  -21.1236  -10.0172 C   0  0  0  0  0  0  0  0  0  0  0  0
   25.3777  -20.3919   -9.6908 C   0  0  0  0  0  0  0  0  0  0  0  0
   25.6245  -19.5843   -8.6542 N   0  0  0  0  0  0  0  0  0  0  0  0
   26.9051  -19.7690   -8.2772 C   0  0  0  0  0  0  0  0  0  0  0  0
   27.6604  -19.1879   -7.2657 C   0  0  0  0  0  0  0  0  0  0  0  0
   28.9717  -19.5510   -7.0780 C   0  0  0  0  0  0  0  0  0  0  0  0
   29.5163  -20.5101   -7.9242 C   0  0  0  0  0  0  0  0  0  0  0  0
   28.7761  -21.0910   -8.9286 C   0  0  0  0  0  0  0  0  0  0  0  0
   27.4570  -20.7285   -9.1206 C   0  0  0  0  0  0  0  0  0  0  0  0
   24.5445  -21.3630  -12.1231 C   0  0  0  0  0  0  0  0  0  0  0  0
   24.1115  -20.1808  -12.1865 O   0  0  0  0  0  0  0  0  0  0  0  0
   23.5917  -22.3303  -11.7807 O   0  0  0  0  0  0  0  0  0  0  0  0
  2  1  1  0
  3  5  1  0
  3  2  1  0
  4  3  2  0
  6  5  1  0
  7  9  1  0
  7  6  1  0
  8  7  2  0
 10 21  1  0
 10  9  1  0
 10 11  1  1
 11 12  1  0
 12 13  2  0
 12 20  1  0
 13 14  1  0
 14 15  1  0
 15 16  2  0
 17 16  1  0
 18 17  2  0
 19 20  2  0
 19 18  1  0
 20 15  1  0
 21 23  1  0
 22 21  2  0
M  END
$$$$
