IVF.pdb
     RDKit          3D

 27 27  0  0  1  0  0  0  0  0999 V2000
   28.9426  -17.1408  -17.4665 C   0  0  0  0  0  0  0  0  0  0  0  0
   27.8136  -16.3356  -16.8529 C   0  0  0  0  0  0  0  0  0  0  0  0
   27.0977  -17.0660  -15.7671 C   0  0  2  0  0  0  0  0  0  0  0  0
   27.8896  -17.1201  -14.5126 C   0  0  0  0  0  0  0  0  0  0  0  0
   26.5860  -18.4337  -16.1679 C   0  0  2  0  0  0  0  0  0  0  0  0
   25.7377  -18.2874  -17.3569 N   0  0  0  0  0  0  0  0  0  0  0  0
   25.7502  -18.9587  -15.0619 C   0  0  0  0  0  0  0  0  0  0  0  0
   24.7581  -18.2886  -14.6977 O   0  0  0  0  0  0  0  0  0  0  0  0
   23.9406  -22.7789  -12.7089 C   0  0  0  0  0  0  0  0  0  0  0  0
   24.8018  -22.2079  -13.8081 C   0  0  1  0  0  0  0  0  0  0  0  0
   24.0063  -22.1980  -15.0954 C   0  0  0  0  0  0  0  0  0  0  0  0
   25.2239  -20.8028  -13.4172 C   0  0  2  0  0  0  0  0  0  0  0  0
   26.0464  -20.1940  -14.4173 N   0  0  0  0  0  0  0  0  0  0  0  0
   25.9188  -20.8600  -12.1137 C   0  0  0  0  0  0  0  0  0  0  0  0
   27.1910  -20.8009  -12.1023 O   0  0  0  0  0  0  0  0  0  0  0  0
   25.2728  -20.9771  -10.8592 N   0  0  0  0  0  0  0  0  0  0  0  0
   25.9427  -21.0066   -9.5795 C   0  0  1  0  0  0  0  0  0  0  0  0
   26.9035  -19.8676   -9.5069 C   0  0  0  0  0  0  0  0  0  0  0  0
   27.6115  -19.7364   -8.2163 C   0  0  0  0  0  0  0  0  0  0  0  0
   28.7201  -20.4886   -7.8923 C   0  0  0  0  0  0  0  0  0  0  0  0
   29.3747  -20.3608   -6.6858 C   0  0  0  0  0  0  0  0  0  0  0  0
   28.9189  -19.4397   -5.7349 C   0  0  0  0  0  0  0  0  0  0  0  0
   27.8128  -18.6820   -6.0482 C   0  0  0  0  0  0  0  0  0  0  0  0
   27.1815  -18.8388   -7.2686 C   0  0  0  0  0  0  0  0  0  0  0  0
   25.0640  -21.1717   -8.4215 C   0  0  0  0  0  0  0  0  0  0  0  0
   23.9144  -20.6744   -8.4118 O   0  0  0  0  0  0  0  0  0  0  0  0
   25.4870  -21.8765   -7.3184 O   0  0  0  0  0  0  0  0  0  0  0  0
  2  1  1  0
  3  2  1  0
  3  4  1  1
  5  3  1  0
  5  6  1  6
  7 13  1  0
  7  5  1  0
  8  7  2  0
 10  9  1  1
 11 10  1  0
 12 10  1  0
 12 13  1  6
 14 12  1  0
 14 15  2  0
 16 14  1  0
 17 16  1  0
 17 25  1  0
 17 18  1  1
 19 20  2  0
 19 18  1  0
 21 20  1  0
 22 21  2  0
 23 22  1  0
 23 24  2  0
 24 19  1  0
 25 27  1  0
 26 25  2  0
M  END
$$$$
