IVF.pdb
     RDKit          3D

 27 27  0  0  1  0  0  0  0  0999 V2000
   15.3862  -12.1246  -18.5973 C   0  0  0  0  0  0  0  0  0  0  0  0
   16.7394  -12.7960  -18.4650 C   0  0  0  0  0  0  0  0  0  0  0  0
   17.6308  -12.1245  -17.4754 C   0  0  2  0  0  0  0  0  0  0  0  0
   17.7239  -10.6613  -17.7085 C   0  0  0  0  0  0  0  0  0  0  0  0
   18.9986  -12.7593  -17.3368 C   0  0  2  0  0  0  0  0  0  0  0  0
   18.8271  -14.1584  -16.9269 N   0  0  0  0  0  0  0  0  0  0  0  0
   19.7340  -12.0473  -16.2646 C   0  0  0  0  0  0  0  0  0  0  0  0
   19.3493  -12.1934  -15.0828 O   0  0  0  0  0  0  0  0  0  0  0  0
   23.7550   -9.9627  -14.5345 C   0  0  0  0  0  0  0  0  0  0  0  0
   23.0483  -10.8477  -15.5312 C   0  0  1  0  0  0  0  0  0  0  0  0
   23.2289  -12.2914  -15.1153 C   0  0  0  0  0  0  0  0  0  0  0  0
   21.5782  -10.4694  -15.5634 C   0  0  2  0  0  0  0  0  0  0  0  0
   20.8555  -11.2157  -16.5473 N   0  0  0  0  0  0  0  0  0  0  0  0
   21.4663   -9.0152  -15.8047 C   0  0  0  0  0  0  0  0  0  0  0  0
   21.8132   -8.5616  -16.9430 O   0  0  0  0  0  0  0  0  0  0  0  0
   20.9972   -8.0736  -14.8570 N   0  0  0  0  0  0  0  0  0  0  0  0
   20.9351   -6.6454  -15.0658 C   0  0  1  0  0  0  0  0  0  0  0  0
   19.5054   -6.2200  -15.0974 C   0  0  0  0  0  0  0  0  0  0  0  0
   18.7833   -6.5682  -16.3389 C   0  0  0  0  0  0  0  0  0  0  0  0
   18.9374   -5.8660  -17.5150 C   0  0  0  0  0  0  0  0  0  0  0  0
   18.2595   -6.1967  -18.6689 C   0  0  0  0  0  0  0  0  0  0  0  0
   17.3752   -7.2822  -18.6760 C   0  0  0  0  0  0  0  0  0  0  0  0
   17.2141   -7.9916  -17.5070 C   0  0  0  0  0  0  0  0  0  0  0  0
   17.9107   -7.6295  -16.3686 C   0  0  0  0  0  0  0  0  0  0  0  0
   21.8151   -5.8527  -14.2071 C   0  0  0  0  0  0  0  0  0  0  0  0
   21.9815   -4.6285  -14.4137 O   0  0  0  0  0  0  0  0  0  0  0  0
   22.4793   -6.4403  -13.1553 O   0  0  0  0  0  0  0  0  0  0  0  0
  2  1  1  0
  3  2  1  0
  3  4  1  6
  5  3  1  0
  5  6  1  1
  7 13  1  0
  7  5  1  0
  8  7  2  0
 10  9  1  1
 11 10  1  0
 12 10  1  0
 12 13  1  6
 14 12  1  0
 14 15  2  0
 16 14  1  0
 17 16  1  0
 17 25  1  0
 17 18  1  1
 19 20  2  0
 19 18  1  0
 21 20  1  0
 22 21  2  0
 23 22  1  0
 23 24  2  0
 24 19  1  0
 25 27  1  0
 26 25  2  0
M  END
$$$$
