IVF.pdb
     RDKit          3D

 27 27  0  0  1  0  0  0  0  0999 V2000
   29.3478  -16.8027  -16.6528 C   0  0  0  0  0  0  0  0  0  0  0  0
   28.1705  -17.7576  -16.6915 C   0  0  0  0  0  0  0  0  0  0  0  0
   27.5181  -17.9353  -15.3620 C   0  0  2  0  0  0  0  0  0  0  0  0
   28.4991  -18.2607  -14.2962 C   0  0  0  0  0  0  0  0  0  0  0  0
   26.3507  -18.8997  -15.3642 C   0  0  2  0  0  0  0  0  0  0  0  0
   25.3426  -18.4138  -16.3143 N   0  0  0  0  0  0  0  0  0  0  0  0
   25.7493  -18.9032  -14.0092 C   0  0  0  0  0  0  0  0  0  0  0  0
   25.1321  -17.8825  -13.6309 O   0  0  0  0  0  0  0  0  0  0  0  0
   23.0076  -20.4783  -12.8355 C   0  0  0  0  0  0  0  0  0  0  0  0
   24.0256  -21.0375  -11.8726 C   0  0  1  0  0  0  0  0  0  0  0  0
   24.4054  -22.4322  -12.3202 C   0  0  0  0  0  0  0  0  0  0  0  0
   25.2364  -20.1214  -11.8562 C   0  0  2  0  0  0  0  0  0  0  0  0
   25.8546  -20.0295  -13.1434 N   0  0  0  0  0  0  0  0  0  0  0  0
   26.1895  -20.6107  -10.8376 C   0  0  0  0  0  0  0  0  0  0  0  0
   26.9106  -21.6220  -11.1190 O   0  0  0  0  0  0  0  0  0  0  0  0
   26.3665  -20.0358   -9.5559 N   0  0  0  0  0  0  0  0  0  0  0  0
   27.0067  -20.6853   -8.4354 C   0  0  1  0  0  0  0  0  0  0  0  0
   28.2711  -19.9626   -8.1115 C   0  0  0  0  0  0  0  0  0  0  0  0
   28.5468  -19.8143   -6.6672 C   0  0  0  0  0  0  0  0  0  0  0  0
   29.3128  -20.7132   -5.9566 C   0  0  0  0  0  0  0  0  0  0  0  0
   29.5648  -20.5682   -4.6090 C   0  0  0  0  0  0  0  0  0  0  0  0
   29.0362  -19.4761   -3.9104 C   0  0  0  0  0  0  0  0  0  0  0  0
   28.2703  -18.5711   -4.6103 C   0  0  0  0  0  0  0  0  0  0  0  0
   28.0381  -18.7502   -5.9618 C   0  0  0  0  0  0  0  0  0  0  0  0
   26.1303  -20.9728   -7.2998 C   0  0  0  0  0  0  0  0  0  0  0  0
   25.0354  -20.3790   -7.1672 O   0  0  0  0  0  0  0  0  0  0  0  0
   26.4955  -21.9020   -6.3533 O   0  0  0  0  0  0  0  0  0  0  0  0
  2  1  1  0
  3  2  1  0
  3  4  1  1
  5  3  1  0
  5  6  1  6
  7 13  1  0
  7  5  1  0
  8  7  2  0
 10  9  1  6
 11 10  1  0
 12 10  1  0
 12 13  1  6
 14 12  1  0
 14 15  2  0
 16 14  1  0
 17 16  1  0
 17 25  1  0
 17 18  1  1
 19 20  2  0
 19 18  1  0
 21 20  1  0
 22 21  2  0
 23 22  1  0
 23 24  2  0
 24 19  1  0
 25 27  1  0
 26 25  2  0
M  END
$$$$
