IVF.pdb
     RDKit          3D

 27 27  0  0  1  0  0  0  0  0999 V2000
   22.1059  -19.1493  -16.8089 C   0  0  0  0  0  0  0  0  0  0  0  0
   22.4134  -19.9261  -15.5434 C   0  0  0  0  0  0  0  0  0  0  0  0
   21.1973  -20.2345  -14.7367 C   0  0  2  0  0  0  0  0  0  0  0  0
   20.3757  -19.0253  -14.4783 C   0  0  0  0  0  0  0  0  0  0  0  0
   21.4724  -21.0090  -13.4649 C   0  0  2  0  0  0  0  0  0  0  0  0
   22.2936  -22.1796  -13.7969 N   0  0  0  0  0  0  0  0  0  0  0  0
   20.1779  -21.4873  -12.9238 C   0  0  0  0  0  0  0  0  0  0  0  0
   19.3068  -20.6381  -12.6304 O   0  0  0  0  0  0  0  0  0  0  0  0
   16.6799  -24.7384  -12.3857 C   0  0  0  0  0  0  0  0  0  0  0  0
   17.8368  -24.1135  -13.1254 C   0  0  1  0  0  0  0  0  0  0  0  0
   17.2921  -23.1536  -14.1607 C   0  0  0  0  0  0  0  0  0  0  0  0
   18.7227  -23.3919  -12.1254 C   0  0  2  0  0  0  0  0  0  0  0  0
   19.9075  -22.8735  -12.7376 N   0  0  0  0  0  0  0  0  0  0  0  0
   19.0512  -24.3210  -11.0236 C   0  0  0  0  0  0  0  0  0  0  0  0
   19.9080  -25.2381  -11.2396 O   0  0  0  0  0  0  0  0  0  0  0  0
   18.4805  -24.2712   -9.7287 N   0  0  0  0  0  0  0  0  0  0  0  0
   18.7298  -25.2262   -8.6738 C   0  0  1  0  0  0  0  0  0  0  0  0
   19.1711  -24.4955   -7.4501 C   0  0  0  0  0  0  0  0  0  0  0  0
   18.1217  -24.3139   -6.4255 C   0  0  0  0  0  0  0  0  0  0  0  0
   17.0917  -23.4083   -6.5631 C   0  0  0  0  0  0  0  0  0  0  0  0
   16.1168  -23.2442   -5.6023 C   0  0  0  0  0  0  0  0  0  0  0  0
   16.1486  -24.0133   -4.4328 C   0  0  0  0  0  0  0  0  0  0  0  0
   17.1724  -24.9219   -4.2850 C   0  0  0  0  0  0  0  0  0  0  0  0
   18.1333  -25.0580   -5.2702 C   0  0  0  0  0  0  0  0  0  0  0  0
   17.6762  -26.2214   -8.4744 C   0  0  0  0  0  0  0  0  0  0  0  0
   16.4810  -25.9523   -8.7354 O   0  0  0  0  0  0  0  0  0  0  0  0
   17.9803  -27.4739   -7.9932 O   0  0  0  0  0  0  0  0  0  0  0  0
  2  1  1  0
  3  2  1  0
  3  4  1  1
  5  3  1  0
  5  6  1  6
  7 13  1  0
  7  5  1  0
  8  7  2  0
 10  9  1  1
 11 10  1  0
 12 10  1  0
 12 13  1  6
 14 12  1  0
 14 15  2  0
 16 14  1  0
 17 16  1  0
 17 25  1  0
 17 18  1  1
 19 20  2  0
 19 18  1  0
 21 20  1  0
 22 21  2  0
 23 22  1  0
 23 24  2  0
 24 19  1  0
 25 27  1  0
 26 25  2  0
M  END
$$$$
