IVF.pdb
     RDKit          3D

 27 27  0  0  1  0  0  0  0  0999 V2000
   20.5092  -15.5042  -16.5725 C   0  0  0  0  0  0  0  0  0  0  0  0
   20.2211  -16.9820  -16.7531 C   0  0  0  0  0  0  0  0  0  0  0  0
   20.8381  -17.8315  -15.6936 C   0  0  2  0  0  0  0  0  0  0  0  0
   22.2756  -17.5195  -15.4926 C   0  0  0  0  0  0  0  0  0  0  0  0
   20.6053  -19.3172  -15.8713 C   0  0  2  0  0  0  0  0  0  0  0  0
   19.1674  -19.5849  -15.7466 N   0  0  0  0  0  0  0  0  0  0  0  0
   21.3078  -20.0308  -14.7783 C   0  0  0  0  0  0  0  0  0  0  0  0
   20.7336  -20.1339  -13.6713 O   0  0  0  0  0  0  0  0  0  0  0  0
   24.4373  -23.5307  -13.5295 C   0  0  0  0  0  0  0  0  0  0  0  0
   23.6464  -22.7716  -14.5659 C   0  0  1  0  0  0  0  0  0  0  0  0
   22.4123  -23.5724  -14.9203 C   0  0  0  0  0  0  0  0  0  0  0  0
   23.2712  -21.4151  -13.9963 C   0  0  2  0  0  0  0  0  0  0  0  0
   22.6023  -20.5968  -14.9608 N   0  0  0  0  0  0  0  0  0  0  0  0
   24.4943  -20.7565  -13.4907 C   0  0  0  0  0  0  0  0  0  0  0  0
   24.7238  -19.5539  -13.8412 O   0  0  0  0  0  0  0  0  0  0  0  0
   25.4443  -21.3657  -12.6355 N   0  0  0  0  0  0  0  0  0  0  0  0
   26.5949  -20.7030  -12.0663 C   0  0  1  0  0  0  0  0  0  0  0  0
   26.1488  -19.4527  -11.3853 C   0  0  0  0  0  0  0  0  0  0  0  0
   25.9230  -19.5867   -9.9310 C   0  0  0  0  0  0  0  0  0  0  0  0
   26.7497  -19.0109   -8.9903 C   0  0  0  0  0  0  0  0  0  0  0  0
   26.5327  -19.1411   -7.6352 C   0  0  0  0  0  0  0  0  0  0  0  0
   25.4389  -19.8798   -7.1680 C   0  0  0  0  0  0  0  0  0  0  0  0
   24.6057  -20.4587   -8.0987 C   0  0  0  0  0  0  0  0  0  0  0  0
   24.8559  -20.3070   -9.4503 C   0  0  0  0  0  0  0  0  0  0  0  0
   27.4883  -21.5645  -11.2916 C   0  0  0  0  0  0  0  0  0  0  0  0
   27.1110  -22.6922  -10.8980 O   0  0  0  0  0  0  0  0  0  0  0  0
   28.7619  -21.1488  -10.9791 O   0  0  0  0  0  0  0  0  0  0  0  0
  2  1  1  0
  3  2  1  0
  3  4  1  6
  5  3  1  0
  5  6  1  1
  7 13  1  0
  7  5  1  0
  8  7  2  0
 10  9  1  1
 11 10  1  0
 12 10  1  0
 12 13  1  6
 14 12  1  0
 14 15  2  0
 16 14  1  0
 17 16  1  0
 17 25  1  0
 17 18  1  1
 19 20  2  0
 19 18  1  0
 21 20  1  0
 22 21  2  0
 23 22  1  0
 23 24  2  0
 24 19  1  0
 25 27  1  0
 26 25  2  0
M  END
$$$$
