IVF.pdb
     RDKit          3D

 27 27  0  0  1  0  0  0  0  0999 V2000
   28.1059  -20.7899   -7.8267 C   0  0  0  0  0  0  0  0  0  0  0  0
   27.0999  -20.8741   -8.9582 C   0  0  0  0  0  0  0  0  0  0  0  0
   26.1068  -19.7612   -8.9415 C   0  0  2  0  0  0  0  0  0  0  0  0
   25.3572  -19.6993   -7.6616 C   0  0  0  0  0  0  0  0  0  0  0  0
   25.1788  -19.7356  -10.1378 C   0  0  2  0  0  0  0  0  0  0  0  0
   24.4917  -21.0297  -10.2264 N   0  0  0  0  0  0  0  0  0  0  0  0
   26.0009  -19.5609  -11.3590 C   0  0  0  0  0  0  0  0  0  0  0  0
   26.7568  -18.5661  -11.4286 O   0  0  0  0  0  0  0  0  0  0  0  0
   28.0935  -21.2306  -15.4203 C   0  0  0  0  0  0  0  0  0  0  0  0
   27.4170  -21.5177  -14.1028 C   0  0  1  0  0  0  0  0  0  0  0  0
   28.4765  -21.8300  -13.0685 C   0  0  0  0  0  0  0  0  0  0  0  0
   26.6013  -20.3027  -13.6982 C   0  0  2  0  0  0  0  0  0  0  0  0
   25.9519  -20.4907  -12.4371 N   0  0  0  0  0  0  0  0  0  0  0  0
   25.6227  -20.0093  -14.7666 C   0  0  0  0  0  0  0  0  0  0  0  0
   24.4519  -20.5005  -14.6672 O   0  0  0  0  0  0  0  0  0  0  0  0
   25.8878  -19.2142  -15.9077 N   0  0  0  0  0  0  0  0  0  0  0  0
   24.9413  -18.9329  -16.9623 C   0  0  1  0  0  0  0  0  0  0  0  0
   25.1134  -17.5189  -17.4062 C   0  0  0  0  0  0  0  0  0  0  0  0
   24.9780  -16.5123  -16.3327 C   0  0  0  0  0  0  0  0  0  0  0  0
   23.7678  -15.9555  -15.9786 C   0  0  0  0  0  0  0  0  0  0  0  0
   23.6499  -15.0163  -14.9764 C   0  0  0  0  0  0  0  0  0  0  0  0
   24.7852  -14.5939  -14.2743 C   0  0  0  0  0  0  0  0  0  0  0  0
   25.9994  -15.1441  -14.6187 C   0  0  0  0  0  0  0  0  0  0  0  0
   26.0788  -16.0833  -15.6306 C   0  0  0  0  0  0  0  0  0  0  0  0
   24.8850  -19.9317  -18.0298 C   0  0  0  0  0  0  0  0  0  0  0  0
   25.9117  -20.5601  -18.3759 O   0  0  0  0  0  0  0  0  0  0  0  0
   23.6998  -20.1976  -18.6758 O   0  0  0  0  0  0  0  0  0  0  0  0
  2  1  1  0
  3  2  1  0
  3  4  1  1
  5  3  1  0
  5  6  1  6
  7 13  1  0
  7  5  1  0
  8  7  2  0
 10  9  1  6
 11 10  1  0
 12 10  1  0
 12 13  1  1
 14 12  1  0
 14 15  2  0
 16 14  1  0
 17 16  1  0
 17 25  1  0
 17 18  1  6
 19 20  2  0
 19 18  1  0
 21 20  1  0
 22 21  2  0
 23 22  1  0
 23 24  2  0
 24 19  1  0
 25 27  1  0
 26 25  2  0
M  END
$$$$
