YAL.pdb
     RDKit          3D

 26 26  0  0  1  0  0  0  0  0999 V2000
   10.8194  -23.1954   26.9369 O   0  0  0  0  0  0  0  0  0  0  0  0
   10.6180  -22.0053   26.2462 C   0  0  0  0  0  0  0  0  0  0  0  0
   11.6953  -21.4238   25.6167 C   0  0  0  0  0  0  0  0  0  0  0  0
   11.4770  -20.2339   24.9304 C   0  0  0  0  0  0  0  0  0  0  0  0
   10.2349  -19.6458   24.8728 C   0  0  0  0  0  0  0  0  0  0  0  0
   10.0311  -18.3795   24.1351 C   0  0  0  0  0  0  0  0  0  0  0  0
    9.4179  -18.6550   22.7981 C   0  0  2  0  0  0  0  0  0  0  0  0
   10.2795  -19.4738   21.9588 N   0  0  0  0  0  0  0  0  0  0  0  0
    9.1809  -17.3642   22.1219 C   0  0  0  0  0  0  0  0  0  0  0  0
   10.0938  -16.8452   21.4487 O   0  0  0  0  0  0  0  0  0  0  0  0
    9.1886  -20.2652   25.5182 C   0  0  0  0  0  0  0  0  0  0  0  0
    9.3601  -21.4548   26.2160 C   0  0  0  0  0  0  0  0  0  0  0  0
    6.4141  -14.9687   21.4096 C   0  0  0  0  0  0  0  0  0  0  0  0
    7.8008  -15.3198   21.8988 C   0  0  2  0  0  0  0  0  0  0  0  0
    7.9449  -16.7024   22.2189 N   0  0  0  0  0  0  0  0  0  0  0  0
    8.2161  -14.4606   23.0282 C   0  0  0  0  0  0  0  0  0  0  0  0
    8.4672  -13.2585   22.8088 O   0  0  0  0  0  0  0  0  0  0  0  0
    7.2576  -11.5985   25.8948 C   0  0  0  0  0  0  0  0  0  0  0  0
    6.6209  -12.9962   25.9158 C   0  0  2  0  0  0  0  0  0  0  0  0
    5.4428  -12.9377   26.8628 C   0  0  0  0  0  0  0  0  0  0  0  0
    7.6696  -13.9318   26.4114 C   0  0  0  0  0  0  0  0  0  0  0  0
    8.8156  -14.1416   25.4628 C   0  0  2  0  0  0  0  0  0  0  0  0
    8.3343  -14.9725   24.3493 N   0  0  0  0  0  0  0  0  0  0  0  0
    9.9726  -14.7908   26.0741 C   0  0  0  0  0  0  0  0  0  0  0  0
   10.3725  -16.0858   25.7246 O   0  0  0  0  0  0  0  0  0  0  0  0
   10.6628  -14.2065   26.9475 O   0  0  0  0  0  0  0  0  0  0  0  0
  1  2  1  0
  2  3  2  0
  4  3  1  0
  5  4  2  0
  6  5  1  0
  7  9  1  0
  7  6  1  0
  7  8  1  6
  9 15  1  0
 10  9  2  0
 11 12  2  0
 11  5  1  0
 12  2  1  0
 14 13  1  1
 15 14  1  0
 16 23  1  0
 16 14  1  0
 17 16  2  0
 19 18  1  1
 19 21  1  0
 20 19  1  0
 22 21  1  1
 22 24  1  0
 22 23  1  0
 24 25  1  0
 26 24  2  0
M  END
$$$$
