YAL.pdb
     RDKit          3D

 26 26  0  0  1  0  0  0  0  0999 V2000
    7.7740  -11.9960   16.8278 O   0  0  0  0  0  0  0  0  0  0  0  0
    7.7004  -12.8568   17.9176 C   0  0  0  0  0  0  0  0  0  0  0  0
    8.4832  -12.5880   19.0176 C   0  0  0  0  0  0  0  0  0  0  0  0
    8.3979  -13.4585   20.0990 C   0  0  0  0  0  0  0  0  0  0  0  0
    7.5659  -14.5537   20.0862 C   0  0  0  0  0  0  0  0  0  0  0  0
    7.4948  -15.4633   21.2510 C   0  0  0  0  0  0  0  0  0  0  0  0
    8.3413  -16.6739   21.0120 C   0  0  2  0  0  0  0  0  0  0  0  0
    7.8231  -17.4998   19.9319 N   0  0  0  0  0  0  0  0  0  0  0  0
    8.3678  -17.4735   22.2528 C   0  0  0  0  0  0  0  0  0  0  0  0
    7.8376  -18.6024   22.2691 O   0  0  0  0  0  0  0  0  0  0  0  0
    6.8025  -14.7807   18.9633 C   0  0  0  0  0  0  0  0  0  0  0  0
    6.8553  -13.9378   17.8595 C   0  0  0  0  0  0  0  0  0  0  0  0
    9.8300  -19.1057   24.3213 C   0  0  0  0  0  0  0  0  0  0  0  0
    9.1203  -17.7982   24.5900 C   0  0  2  0  0  0  0  0  0  0  0  0
    8.9793  -16.9908   23.4224 N   0  0  0  0  0  0  0  0  0  0  0  0
    9.7596  -17.0450   25.6901 C   0  0  0  0  0  0  0  0  0  0  0  0
   11.0035  -16.9532   25.7128 O   0  0  0  0  0  0  0  0  0  0  0  0
    6.9316  -12.1379   27.4233 C   0  0  0  0  0  0  0  0  0  0  0  0
    8.2862  -12.8372   27.6117 C   0  0  2  0  0  0  0  0  0  0  0  0
    9.3190  -12.0219   26.8654 C   0  0  0  0  0  0  0  0  0  0  0  0
    8.1441  -14.2001   27.0261 C   0  0  0  0  0  0  0  0  0  0  0  0
    9.3292  -15.0978   27.2431 C   0  0  2  0  0  0  0  0  0  0  0  0
    8.9914  -16.4278   26.7151 N   0  0  0  0  0  0  0  0  0  0  0  0
    9.7182  -15.2282   28.6450 C   0  0  0  0  0  0  0  0  0  0  0  0
   10.6147  -14.3438   29.2559 O   0  0  0  0  0  0  0  0  0  0  0  0
    9.2587  -16.1494   29.3667 O   0  0  0  0  0  0  0  0  0  0  0  0
  1  2  1  0
  2  3  2  0
  4  3  1  0
  5  4  2  0
  6  5  1  0
  7  9  1  0
  7  6  1  0
  7  8  1  6
  9 15  1  0
 10  9  2  0
 11 12  2  0
 11  5  1  0
 12  2  1  0
 14 13  1  6
 15 14  1  0
 16 23  1  0
 16 14  1  0
 17 16  2  0
 19 18  1  6
 19 21  1  0
 20 19  1  0
 22 21  1  1
 22 24  1  0
 22 23  1  0
 24 25  1  0
 26 24  2  0
M  END
$$$$
