YAL.pdb
     RDKit          3D

 26 26  0  0  1  0  0  0  0  0999 V2000
    9.0597  -12.0559   17.6606 O   0  0  0  0  0  0  0  0  0  0  0  0
    8.4989  -12.7670   18.7159 C   0  0  0  0  0  0  0  0  0  0  0  0
    9.2239  -12.8912   19.8797 C   0  0  0  0  0  0  0  0  0  0  0  0
    8.6489  -13.6053   20.9255 C   0  0  0  0  0  0  0  0  0  0  0  0
    7.4010  -14.1738   20.8174 C   0  0  0  0  0  0  0  0  0  0  0  0
    6.8133  -14.9283   21.9463 C   0  0  0  0  0  0  0  0  0  0  0  0
    7.1355  -16.3839   21.8168 C   0  0  2  0  0  0  0  0  0  0  0  0
    5.9791  -17.1664   21.4074 N   0  0  0  0  0  0  0  0  0  0  0  0
    7.6024  -16.8739   23.1288 C   0  0  0  0  0  0  0  0  0  0  0  0
    6.7686  -17.1621   24.0107 O   0  0  0  0  0  0  0  0  0  0  0  0
    6.7148  -14.0224   19.6336 C   0  0  0  0  0  0  0  0  0  0  0  0
    7.2500  -13.3172   18.5622 C   0  0  0  0  0  0  0  0  0  0  0  0
   10.4880  -18.5223   24.6180 C   0  0  0  0  0  0  0  0  0  0  0  0
    9.4382  -17.4371   24.6930 C   0  0  2  0  0  0  0  0  0  0  0  0
    8.9711  -17.0244   23.4100 N   0  0  0  0  0  0  0  0  0  0  0  0
    9.9010  -16.2830   25.4932 C   0  0  0  0  0  0  0  0  0  0  0  0
   11.0853  -15.9082   25.3791 O   0  0  0  0  0  0  0  0  0  0  0  0
    8.9705  -12.2461   25.4245 C   0  0  0  0  0  0  0  0  0  0  0  0
    7.8580  -13.0395   26.1259 C   0  0  2  0  0  0  0  0  0  0  0  0
    6.7018  -12.0898   26.3478 C   0  0  0  0  0  0  0  0  0  0  0  0
    8.4269  -13.5135   27.4192 C   0  0  0  0  0  0  0  0  0  0  0  0
    9.5162  -14.5390   27.2818 C   0  0  2  0  0  0  0  0  0  0  0  0
    9.0303  -15.5968   26.3835 N   0  0  0  0  0  0  0  0  0  0  0  0
    9.9191  -15.1413   28.5502 C   0  0  0  0  0  0  0  0  0  0  0  0
   10.7371  -14.4715   29.4675 O   0  0  0  0  0  0  0  0  0  0  0  0
    9.5436  -16.2971   28.8721 O   0  0  0  0  0  0  0  0  0  0  0  0
  1  2  1  0
  2  3  2  0
  4  3  1  0
  5  4  2  0
  6  5  1  0
  7  9  1  0
  7  6  1  0
  7  8  1  1
  9 15  1  0
 10  9  2  0
 11 12  2  0
 11  5  1  0
 12  2  1  0
 14 13  1  6
 15 14  1  0
 16 23  1  0
 16 14  1  0
 17 16  2  0
 19 18  1  1
 19 21  1  0
 20 19  1  0
 22 21  1  1
 22 24  1  0
 22 23  1  0
 24 25  1  0
 26 24  2  0
M  END
$$$$
