YAL.pdb
     RDKit          3D

 26 26  0  0  1  0  0  0  0  0999 V2000
    6.9136  -12.2928   18.1777 O   0  0  0  0  0  0  0  0  0  0  0  0
    7.3804  -13.0400   19.2537 C   0  0  0  0  0  0  0  0  0  0  0  0
    6.4591  -13.6219   20.0949 C   0  0  0  0  0  0  0  0  0  0  0  0
    6.9424  -14.3657   21.1661 C   0  0  0  0  0  0  0  0  0  0  0  0
    8.2900  -14.5243   21.3914 C   0  0  0  0  0  0  0  0  0  0  0  0
    8.7764  -15.3215   22.5390 C   0  0  0  0  0  0  0  0  0  0  0  0
    9.4624  -16.5594   22.0528 C   0  0  2  0  0  0  0  0  0  0  0  0
    8.5270  -17.5128   21.4755 N   0  0  0  0  0  0  0  0  0  0  0  0
   10.1424  -17.1934   23.1996 C   0  0  0  0  0  0  0  0  0  0  0  0
    9.5899  -18.1388   23.7971 O   0  0  0  0  0  0  0  0  0  0  0  0
    9.1724  -13.9231   20.5225 C   0  0  0  0  0  0  0  0  0  0  0  0
    8.7349  -13.1708   19.4389 C   0  0  0  0  0  0  0  0  0  0  0  0
   13.6758  -17.3694   24.3197 C   0  0  0  0  0  0  0  0  0  0  0  0
   12.1895  -17.5111   24.5570 C   0  0  2  0  0  0  0  0  0  0  0  0
   11.4041  -16.7553   23.6368 N   0  0  0  0  0  0  0  0  0  0  0  0
   11.8269  -17.1989   25.9560 C   0  0  0  0  0  0  0  0  0  0  0  0
   12.4956  -17.7070   26.8784 O   0  0  0  0  0  0  0  0  0  0  0  0
   10.3231  -13.0478   27.6599 C   0  0  0  0  0  0  0  0  0  0  0  0
    9.3367  -13.9053   26.8530 C   0  0  2  0  0  0  0  0  0  0  0  0
    8.0484  -13.1206   26.7408 C   0  0  0  0  0  0  0  0  0  0  0  0
    9.1397  -15.1642   27.6257 C   0  0  0  0  0  0  0  0  0  0  0  0
   10.3387  -16.0690   27.6582 C   0  0  2  0  0  0  0  0  0  0  0  0
   10.7398  -16.3378   26.2693 N   0  0  0  0  0  0  0  0  0  0  0  0
   10.0972  -17.3397   28.3370 C   0  0  0  0  0  0  0  0  0  0  0  0
    9.5675  -18.4518   27.6722 O   0  0  0  0  0  0  0  0  0  0  0  0
   10.3581  -17.4872   29.5579 O   0  0  0  0  0  0  0  0  0  0  0  0
  1  2  1  0
  2  3  2  0
  4  3  1  0
  5  4  2  0
  6  5  1  0
  7  9  1  0
  7  6  1  0
  7  8  1  1
  9 15  1  0
 10  9  2  0
 11 12  2  0
 11  5  1  0
 12  2  1  0
 14 13  1  1
 15 14  1  0
 16 23  1  0
 16 14  1  0
 17 16  2  0
 19 18  1  1
 19 21  1  0
 20 19  1  0
 22 21  1  6
 22 24  1  0
 22 23  1  0
 24 25  1  0
 26 24  2  0
M  END
$$$$
