YAL.pdb
     RDKit          3D

 26 26  0  0  1  0  0  0  0  0999 V2000
    7.9548  -13.3930   14.8862 O   0  0  0  0  0  0  0  0  0  0  0  0
    7.7630  -13.7219   16.2238 C   0  0  0  0  0  0  0  0  0  0  0  0
    8.8437  -13.6597   17.0743 C   0  0  0  0  0  0  0  0  0  0  0  0
    8.6351  -13.9917   18.4087 C   0  0  0  0  0  0  0  0  0  0  0  0
    7.3992  -14.3709   18.8784 C   0  0  0  0  0  0  0  0  0  0  0  0
    7.2056  -14.7186   20.3035 C   0  0  0  0  0  0  0  0  0  0  0  0
    8.5019  -14.6046   21.0424 C   0  0  2  0  0  0  0  0  0  0  0  0
    9.6143  -15.1584   20.2853 N   0  0  0  0  0  0  0  0  0  0  0  0
    8.3768  -15.3429   22.3147 C   0  0  0  0  0  0  0  0  0  0  0  0
    7.3614  -15.1837   23.0216 O   0  0  0  0  0  0  0  0  0  0  0  0
    6.3491  -14.4180   17.9894 C   0  0  0  0  0  0  0  0  0  0  0  0
    6.5110  -14.0949   16.6474 C   0  0  0  0  0  0  0  0  0  0  0  0
   10.0796  -18.1922   24.0342 C   0  0  0  0  0  0  0  0  0  0  0  0
    9.3010  -16.8967   24.0075 C   0  0  2  0  0  0  0  0  0  0  0  0
    9.3795  -16.2255   22.7513 N   0  0  0  0  0  0  0  0  0  0  0  0
    9.6888  -16.0027   25.1196 C   0  0  0  0  0  0  0  0  0  0  0  0
   10.8991  -15.8720   25.3922 O   0  0  0  0  0  0  0  0  0  0  0  0
    8.5259  -11.8735   25.6816 C   0  0  0  0  0  0  0  0  0  0  0  0
    7.4171  -12.8293   26.1469 C   0  0  2  0  0  0  0  0  0  0  0  0
    6.2160  -11.9820   26.5044 C   0  0  0  0  0  0  0  0  0  0  0  0
    7.9495  -13.5467   27.3396 C   0  0  0  0  0  0  0  0  0  0  0  0
    9.0887  -14.4815   27.0469 C   0  0  2  0  0  0  0  0  0  0  0  0
    8.7178  -15.2941   25.8789 N   0  0  0  0  0  0  0  0  0  0  0  0
    9.4194  -15.3702   28.1579 C   0  0  0  0  0  0  0  0  0  0  0  0
    8.9706  -16.6950   28.2127 O   0  0  0  0  0  0  0  0  0  0  0  0
   10.1275  -14.9772   29.1195 O   0  0  0  0  0  0  0  0  0  0  0  0
  1  2  1  0
  2  3  2  0
  4  3  1  0
  5  4  2  0
  6  5  1  0
  7  9  1  0
  7  6  1  0
  7  8  1  6
  9 15  1  0
 10  9  2  0
 11 12  2  0
 11  5  1  0
 12  2  1  0
 14 13  1  6
 15 14  1  0
 16 23  1  0
 16 14  1  0
 17 16  2  0
 19 18  1  1
 19 21  1  0
 20 19  1  0
 22 21  1  1
 22 24  1  0
 22 23  1  0
 24 25  1  0
 26 24  2  0
M  END
$$$$
