YAL.pdb
     RDKit          3D

 26 26  0  0  1  0  0  0  0  0999 V2000
    6.5061  -22.8535   29.0264 O   0  0  0  0  0  0  0  0  0  0  0  0
    6.5562  -21.8129   28.1052 C   0  0  0  0  0  0  0  0  0  0  0  0
    7.6025  -20.9214   28.1814 C   0  0  0  0  0  0  0  0  0  0  0  0
    7.6379  -19.8866   27.2529 C   0  0  0  0  0  0  0  0  0  0  0  0
    6.6699  -19.7444   26.2862 C   0  0  0  0  0  0  0  0  0  0  0  0
    6.7325  -18.6338   25.3106 C   0  0  0  0  0  0  0  0  0  0  0  0
    6.8452  -19.1751   23.9200 C   0  0  2  0  0  0  0  0  0  0  0  0
    7.7122  -20.3419   23.8553 N   0  0  0  0  0  0  0  0  0  0  0  0
    7.4039  -18.1175   23.0547 C   0  0  0  0  0  0  0  0  0  0  0  0
    8.6056  -18.1641   22.7232 O   0  0  0  0  0  0  0  0  0  0  0  0
    5.6433  -20.6609   26.2503 C   0  0  0  0  0  0  0  0  0  0  0  0
    5.5673  -21.7108   27.1578 C   0  0  0  0  0  0  0  0  0  0  0  0
    6.1466  -15.1171   21.1647 C   0  0  0  0  0  0  0  0  0  0  0  0
    7.1731  -15.9254   21.9253 C   0  0  2  0  0  0  0  0  0  0  0  0
    6.6104  -17.0536   22.5927 N   0  0  0  0  0  0  0  0  0  0  0  0
    7.9512  -15.0823   22.8579 C   0  0  0  0  0  0  0  0  0  0  0  0
    8.7506  -14.2470   22.3894 O   0  0  0  0  0  0  0  0  0  0  0  0
    5.9227  -12.3368   27.2169 C   0  0  0  0  0  0  0  0  0  0  0  0
    7.0477  -12.4860   26.1819 C   0  0  2  0  0  0  0  0  0  0  0  0
    6.4519  -12.1815   24.8252 C   0  0  0  0  0  0  0  0  0  0  0  0
    7.5146  -13.8988   26.2648 C   0  0  0  0  0  0  0  0  0  0  0  0
    8.4950  -14.2943   25.1972 C   0  0  2  0  0  0  0  0  0  0  0  0
    7.8083  -15.2031   24.2673 N   0  0  0  0  0  0  0  0  0  0  0  0
    9.6898  -14.9572   25.7136 C   0  0  0  0  0  0  0  0  0  0  0  0
   10.7429  -14.2460   26.3005 O   0  0  0  0  0  0  0  0  0  0  0  0
    9.8218  -16.2059   25.6510 O   0  0  0  0  0  0  0  0  0  0  0  0
  1  2  1  0
  2  3  2  0
  4  3  1  0
  5  4  2  0
  6  5  1  0
  7  9  1  0
  7  6  1  0
  7  8  1  1
  9 15  1  0
 10  9  2  0
 11 12  2  0
 11  5  1  0
 12  2  1  0
 14 13  1  1
 15 14  1  0
 16 23  1  0
 16 14  1  0
 17 16  2  0
 19 18  1  1
 19 21  1  0
 20 19  1  0
 22 21  1  1
 22 24  1  0
 22 23  1  0
 24 25  1  0
 26 24  2  0
M  END
$$$$
