YAL.pdb
     RDKit          3D

 26 26  0  0  1  0  0  0  0  0999 V2000
    7.9390  -13.0504   15.9636 O   0  0  0  0  0  0  0  0  0  0  0  0
    8.0081  -13.4479   17.2944 C   0  0  0  0  0  0  0  0  0  0  0  0
    7.0459  -12.9885   18.1652 C   0  0  0  0  0  0  0  0  0  0  0  0
    7.1293  -13.3953   19.4926 C   0  0  0  0  0  0  0  0  0  0  0  0
    8.1312  -14.2269   19.9361 C   0  0  0  0  0  0  0  0  0  0  0  0
    8.1956  -14.6441   21.3542 C   0  0  0  0  0  0  0  0  0  0  0  0
    8.1947  -16.1374   21.4525 C   0  0  2  0  0  0  0  0  0  0  0  0
    6.9150  -16.7109   21.0646 N   0  0  0  0  0  0  0  0  0  0  0  0
    8.4792  -16.5100   22.8525 C   0  0  0  0  0  0  0  0  0  0  0  0
    7.5547  -16.5090   23.6899 O   0  0  0  0  0  0  0  0  0  0  0  0
    9.0703  -14.6600   19.0275 C   0  0  0  0  0  0  0  0  0  0  0  0
    9.0265  -14.2792   17.6916 C   0  0  0  0  0  0  0  0  0  0  0  0
   11.2225  -18.2293   24.6989 C   0  0  0  0  0  0  0  0  0  0  0  0
   10.0531  -17.2758   24.6047 C   0  0  2  0  0  0  0  0  0  0  0  0
    9.7736  -16.8676   23.2668 N   0  0  0  0  0  0  0  0  0  0  0  0
   10.2250  -16.1097   25.4975 C   0  0  0  0  0  0  0  0  0  0  0  0
   11.1654  -15.3194   25.2802 O   0  0  0  0  0  0  0  0  0  0  0  0
    8.8168  -12.2331   26.2097 C   0  0  0  0  0  0  0  0  0  0  0  0
    7.8017  -13.3451   26.5139 C   0  0  2  0  0  0  0  0  0  0  0  0
    6.4661  -12.6781   26.7578 C   0  0  0  0  0  0  0  0  0  0  0  0
    8.2913  -14.0424   27.7365 C   0  0  0  0  0  0  0  0  0  0  0  0
    9.5835  -14.7868   27.5534 C   0  0  2  0  0  0  0  0  0  0  0  0
    9.3471  -15.8725   26.5904 N   0  0  0  0  0  0  0  0  0  0  0  0
   10.1136  -15.3559   28.7899 C   0  0  0  0  0  0  0  0  0  0  0  0
   10.1153  -16.7338   29.0363 O   0  0  0  0  0  0  0  0  0  0  0  0
   10.5944  -14.6237   29.6917 O   0  0  0  0  0  0  0  0  0  0  0  0
  1  2  1  0
  2  3  2  0
  4  3  1  0
  5  4  2  0
  6  5  1  0
  7  9  1  0
  7  6  1  0
  7  8  1  1
  9 15  1  0
 10  9  2  0
 11 12  2  0
 11  5  1  0
 12  2  1  0
 14 13  1  6
 15 14  1  0
 16 23  1  0
 16 14  1  0
 17 16  2  0
 19 18  1  1
 19 21  1  0
 20 19  1  0
 22 21  1  1
 22 24  1  0
 22 23  1  0
 24 25  1  0
 26 24  2  0
M  END
$$$$
