YAL.pdb
     RDKit          3D

 26 26  0  0  1  0  0  0  0  0999 V2000
    7.9523  -21.8235   29.9512 O   0  0  0  0  0  0  0  0  0  0  0  0
    7.6909  -20.9220   28.9251 C   0  0  0  0  0  0  0  0  0  0  0  0
    8.6290  -19.9523   28.6515 C   0  0  0  0  0  0  0  0  0  0  0  0
    8.3525  -19.0586   27.6223 C   0  0  0  0  0  0  0  0  0  0  0  0
    7.1878  -19.1272   26.8938 C   0  0  0  0  0  0  0  0  0  0  0  0
    6.9194  -18.1633   25.8039 C   0  0  0  0  0  0  0  0  0  0  0  0
    6.8098  -18.8819   24.4958 C   0  0  2  0  0  0  0  0  0  0  0  0
    7.5837  -20.1140   24.4814 N   0  0  0  0  0  0  0  0  0  0  0  0
    7.3141  -17.9898   23.4330 C   0  0  0  0  0  0  0  0  0  0  0  0
    8.4934  -18.1027   23.0427 O   0  0  0  0  0  0  0  0  0  0  0  0
    6.2802  -20.1145   27.2049 C   0  0  0  0  0  0  0  0  0  0  0  0
    6.5144  -21.0291   28.2248 C   0  0  0  0  0  0  0  0  0  0  0  0
    5.9698  -15.1676   21.3203 C   0  0  0  0  0  0  0  0  0  0  0  0
    7.0292  -15.9391   22.0739 C   0  0  2  0  0  0  0  0  0  0  0  0
    6.4931  -17.0111   22.8473 N   0  0  0  0  0  0  0  0  0  0  0  0
    7.8701  -15.0476   22.9013 C   0  0  0  0  0  0  0  0  0  0  0  0
    8.5901  -14.2020   22.3333 O   0  0  0  0  0  0  0  0  0  0  0  0
    6.6950  -11.8977   25.3549 C   0  0  0  0  0  0  0  0  0  0  0  0
    6.4619  -13.2819   25.9784 C   0  0  2  0  0  0  0  0  0  0  0  0
    5.6083  -13.0803   27.2109 C   0  0  0  0  0  0  0  0  0  0  0  0
    7.8063  -13.8191   26.3315 C   0  0  0  0  0  0  0  0  0  0  0  0
    8.6530  -14.2032   25.1513 C   0  0  2  0  0  0  0  0  0  0  0  0
    7.8748  -15.1338   24.3205 N   0  0  0  0  0  0  0  0  0  0  0  0
    9.9174  -14.8368   25.5170 C   0  0  0  0  0  0  0  0  0  0  0  0
   10.1982  -16.1734   25.2106 O   0  0  0  0  0  0  0  0  0  0  0  0
   10.8133  -14.2007   26.1279 O   0  0  0  0  0  0  0  0  0  0  0  0
  1  2  1  0
  2  3  2  0
  4  3  1  0
  5  4  2  0
  6  5  1  0
  7  9  1  0
  7  6  1  0
  7  8  1  1
  9 15  1  0
 10  9  2  0
 11 12  2  0
 11  5  1  0
 12  2  1  0
 14 13  1  1
 15 14  1  0
 16 23  1  0
 16 14  1  0
 17 16  2  0
 19 18  1  1
 19 21  1  0
 20 19  1  0
 22 21  1  1
 22 24  1  0
 22 23  1  0
 24 25  1  0
 26 24  2  0
M  END
$$$$
