YAL.pdb
     RDKit          3D

 26 26  0  0  1  0  0  0  0  0999 V2000
    8.0543  -22.7445   29.6690 O   0  0  0  0  0  0  0  0  0  0  0  0
    8.1393  -22.0790   28.4509 C   0  0  0  0  0  0  0  0  0  0  0  0
    8.9163  -20.9449   28.3779 C   0  0  0  0  0  0  0  0  0  0  0  0
    8.9908  -20.2911   27.1525 C   0  0  0  0  0  0  0  0  0  0  0  0
    8.3182  -20.7481   26.0432 C   0  0  0  0  0  0  0  0  0  0  0  0
    8.4156  -20.0328   24.7517 C   0  0  0  0  0  0  0  0  0  0  0  0
    7.7073  -18.7173   24.8365 C   0  0  2  0  0  0  0  0  0  0  0  0
    6.2787  -18.8781   25.0610 N   0  0  0  0  0  0  0  0  0  0  0  0
    7.9118  -17.9977   23.5638 C   0  0  0  0  0  0  0  0  0  0  0  0
    9.0063  -18.0911   22.9726 O   0  0  0  0  0  0  0  0  0  0  0  0
    7.5539  -21.8865   26.1659 C   0  0  0  0  0  0  0  0  0  0  0  0
    7.4502  -22.5723   27.3702 C   0  0  0  0  0  0  0  0  0  0  0  0
    5.9500  -15.5395   21.4723 C   0  0  0  0  0  0  0  0  0  0  0  0
    7.1874  -16.1250   22.1138 C   0  0  2  0  0  0  0  0  0  0  0  0
    6.8977  -17.2055   22.9989 N   0  0  0  0  0  0  0  0  0  0  0  0
    8.0004  -15.0863   22.7820 C   0  0  0  0  0  0  0  0  0  0  0  0
    8.2257  -14.0181   22.1783 O   0  0  0  0  0  0  0  0  0  0  0  0
    5.7010  -12.3950   26.6922 C   0  0  0  0  0  0  0  0  0  0  0  0
    7.1920  -12.6840   26.4629 C   0  0  2  0  0  0  0  0  0  0  0  0
    7.8528  -11.3716   26.1039 C   0  0  0  0  0  0  0  0  0  0  0  0
    7.2665  -13.6554   25.3353 C   0  0  0  0  0  0  0  0  0  0  0  0
    8.6483  -14.1698   25.0467 C   0  0  2  0  0  0  0  0  0  0  0  0
    8.5269  -15.2785   24.0887 N   0  0  0  0  0  0  0  0  0  0  0  0
    9.3585  -14.6425   26.2325 C   0  0  0  0  0  0  0  0  0  0  0  0
    8.7891  -15.5540   27.1292 O   0  0  0  0  0  0  0  0  0  0  0  0
   10.5215  -14.2456   26.4979 O   0  0  0  0  0  0  0  0  0  0  0  0
  1  2  1  0
  2  3  2  0
  4  3  1  0
  5  4  2  0
  6  5  1  0
  7  9  1  0
  7  6  1  0
  7  8  1  6
  9 15  1  0
 10  9  2  0
 11 12  2  0
 11  5  1  0
 12  2  1  0
 14 13  1  1
 15 14  1  0
 16 23  1  0
 16 14  1  0
 17 16  2  0
 19 18  1  6
 19 21  1  0
 20 19  1  0
 22 21  1  1
 22 24  1  0
 22 23  1  0
 24 25  1  0
 26 24  2  0
M  END
$$$$
