YAL.pdb
     RDKit          3D

 26 26  0  0  1  0  0  0  0  0999 V2000
    8.5712  -13.3793   14.8644 O   0  0  0  0  0  0  0  0  0  0  0  0
    8.4338  -13.7419   16.1999 C   0  0  0  0  0  0  0  0  0  0  0  0
    7.6189  -12.9781   17.0047 C   0  0  0  0  0  0  0  0  0  0  0  0
    7.4922  -13.3542   18.3377 C   0  0  0  0  0  0  0  0  0  0  0  0
    8.1509  -14.4478   18.8499 C   0  0  0  0  0  0  0  0  0  0  0  0
    7.9977  -14.8253   20.2722 C   0  0  0  0  0  0  0  0  0  0  0  0
    7.6716  -16.2813   20.3868 C   0  0  2  0  0  0  0  0  0  0  0  0
    6.3199  -16.5767   19.9362 N   0  0  0  0  0  0  0  0  0  0  0  0
    7.7982  -16.6747   21.8040 C   0  0  0  0  0  0  0  0  0  0  0  0
    6.8301  -16.5192   22.5750 O   0  0  0  0  0  0  0  0  0  0  0  0
    8.9546  -15.1803   18.0057 C   0  0  0  0  0  0  0  0  0  0  0  0
    9.1109  -14.8417   16.6669 C   0  0  0  0  0  0  0  0  0  0  0  0
   10.2280  -18.5607   23.9461 C   0  0  0  0  0  0  0  0  0  0  0  0
    9.1562  -17.5252   23.6926 C   0  0  2  0  0  0  0  0  0  0  0  0
    8.9898  -17.2232   22.3084 N   0  0  0  0  0  0  0  0  0  0  0  0
    9.3821  -16.2987   24.4868 C   0  0  0  0  0  0  0  0  0  0  0  0
   10.4650  -15.6921   24.3617 O   0  0  0  0  0  0  0  0  0  0  0  0
    6.0638  -11.8178   26.7601 C   0  0  0  0  0  0  0  0  0  0  0  0
    7.4251  -12.5071   26.9366 C   0  0  2  0  0  0  0  0  0  0  0  0
    8.4821  -11.5454   26.4405 C   0  0  0  0  0  0  0  0  0  0  0  0
    7.3842  -13.7440   26.1064 C   0  0  0  0  0  0  0  0  0  0  0  0
    8.6233  -14.5898   26.1876 C   0  0  2  0  0  0  0  0  0  0  0  0
    8.3979  -15.8000   25.3836 N   0  0  0  0  0  0  0  0  0  0  0  0
    8.9775  -14.9833   27.5490 C   0  0  0  0  0  0  0  0  0  0  0  0
    9.9409  -14.2969   28.2973 O   0  0  0  0  0  0  0  0  0  0  0  0
    8.4257  -15.9643   28.1091 O   0  0  0  0  0  0  0  0  0  0  0  0
  1  2  1  0
  2  3  2  0
  4  3  1  0
  5  4  2  0
  6  5  1  0
  7  9  1  0
  7  6  1  0
  7  8  1  1
  9 15  1  0
 10  9  2  0
 11 12  2  0
 11  5  1  0
 12  2  1  0
 14 13  1  6
 15 14  1  0
 16 23  1  0
 16 14  1  0
 17 16  2  0
 19 18  1  6
 19 21  1  0
 20 19  1  0
 22 21  1  1
 22 24  1  0
 22 23  1  0
 24 25  1  0
 26 24  2  0
M  END
$$$$
