YAL.pdb
     RDKit          3D

 26 26  0  0  1  0  0  0  0  0999 V2000
    8.1045  -21.4559   30.1785 O   0  0  0  0  0  0  0  0  0  0  0  0
    7.8710  -20.6513   29.0686 C   0  0  0  0  0  0  0  0  0  0  0  0
    8.7633  -19.6393   28.7947 C   0  0  0  0  0  0  0  0  0  0  0  0
    8.5154  -18.8438   27.6812 C   0  0  0  0  0  0  0  0  0  0  0  0
    7.4221  -19.0473   26.8717 C   0  0  0  0  0  0  0  0  0  0  0  0
    7.1829  -18.1857   25.6929 C   0  0  0  0  0  0  0  0  0  0  0  0
    6.8772  -19.0267   24.4934 C   0  0  2  0  0  0  0  0  0  0  0  0
    7.6486  -20.2603   24.4786 N   0  0  0  0  0  0  0  0  0  0  0  0
    7.2039  -18.2455   23.2840 C   0  0  0  0  0  0  0  0  0  0  0  0
    8.2802  -18.4538   22.6888 O   0  0  0  0  0  0  0  0  0  0  0  0
    6.5583  -20.0719   27.1865 C   0  0  0  0  0  0  0  0  0  0  0  0
    6.7662  -20.8920   28.2892 C   0  0  0  0  0  0  0  0  0  0  0  0
    5.6388  -15.5390   21.1900 C   0  0  0  0  0  0  0  0  0  0  0  0
    6.7719  -16.2250   21.9184 C   0  0  2  0  0  0  0  0  0  0  0  0
    6.3270  -17.2676   22.7844 N   0  0  0  0  0  0  0  0  0  0  0  0
    7.6253  -15.2558   22.6386 C   0  0  0  0  0  0  0  0  0  0  0  0
    8.1742  -14.3410   21.9919 O   0  0  0  0  0  0  0  0  0  0  0  0
    6.8932  -11.9726   25.1384 C   0  0  0  0  0  0  0  0  0  0  0  0
    6.5792  -13.3189   25.8080 C   0  0  2  0  0  0  0  0  0  0  0  0
    5.8845  -13.0170   27.1173 C   0  0  0  0  0  0  0  0  0  0  0  0
    7.8878  -13.9959   26.0315 C   0  0  0  0  0  0  0  0  0  0  0  0
    8.6294  -14.3486   24.7734 C   0  0  2  0  0  0  0  0  0  0  0  0
    7.8317  -15.3443   24.0425 N   0  0  0  0  0  0  0  0  0  0  0  0
    9.9644  -14.8917   25.0112 C   0  0  0  0  0  0  0  0  0  0  0  0
   11.0324  -14.0896   25.4299 O   0  0  0  0  0  0  0  0  0  0  0  0
   10.2104  -16.1137   24.8479 O   0  0  0  0  0  0  0  0  0  0  0  0
  1  2  1  0
  2  3  2  0
  4  3  1  0
  5  4  2  0
  6  5  1  0
  7  9  1  0
  7  6  1  0
  7  8  1  1
  9 15  1  0
 10  9  2  0
 11 12  2  0
 11  5  1  0
 12  2  1  0
 14 13  1  1
 15 14  1  0
 16 23  1  0
 16 14  1  0
 17 16  2  0
 19 18  1  1
 19 21  1  0
 20 19  1  0
 22 21  1  1
 22 24  1  0
 22 23  1  0
 24 25  1  0
 26 24  2  0
M  END
$$$$
