IIF.pdb
     RDKit          3D

 28 28  0  0  1  0  0  0  0  0999 V2000
    6.8341  -19.8440   25.2587 C   0  0  0  0  0  0  0  0  0  0  0  0
    7.1639  -19.5394   23.8102 C   0  0  0  0  0  0  0  0  0  0  0  0
    5.9222  -18.9416   23.1823 C   0  0  2  0  0  0  0  0  0  0  0  0
    4.8274  -19.9571   23.2360 C   0  0  0  0  0  0  0  0  0  0  0  0
    6.2886  -18.5201   21.7827 C   0  0  2  0  0  0  0  0  0  0  0  0
    6.6949  -19.7028   21.0620 N   0  0  0  0  0  0  0  0  0  0  0  0
    7.4156  -17.5375   21.7831 C   0  0  0  0  0  0  0  0  0  0  0  0
    8.6016  -17.9218   21.5837 O   0  0  0  0  0  0  0  0  0  0  0  0
    6.6899  -12.9394   19.2764 C   0  0  0  0  0  0  0  0  0  0  0  0
    7.2990  -14.2171   19.8983 C   0  0  0  0  0  0  0  0  0  0  0  0
    7.6860  -13.9749   21.3201 C   0  0  2  0  0  0  0  0  0  0  0  0
    8.5153  -12.7052   21.4661 C   0  0  0  0  0  0  0  0  0  0  0  0
    8.1352  -15.1180   22.1261 C   0  0  2  0  0  0  0  0  0  0  0  0
    7.1242  -16.1816   22.0097 N   0  0  0  0  0  0  0  0  0  0  0  0
    8.6172  -14.9576   23.4731 C   0  0  0  0  0  0  0  0  0  0  0  0
    8.5804  -13.8279   24.0335 O   0  0  0  0  0  0  0  0  0  0  0  0
    9.1457  -16.0198   24.2453 N   0  0  0  0  0  0  0  0  0  0  0  0
    9.7069  -15.7860   25.5885 C   0  0  1  0  0  0  0  0  0  0  0  0
    8.5130  -15.6602   26.5138 C   0  0  0  0  0  0  0  0  0  0  0  0
    7.8970  -14.3107   26.4694 C   0  0  0  0  0  0  0  0  0  0  0  0
    6.5699  -14.1304   26.1021 C   0  0  0  0  0  0  0  0  0  0  0  0
    5.9696  -12.8895   26.0561 C   0  0  0  0  0  0  0  0  0  0  0  0
    6.7486  -11.8036   26.3950 C   0  0  0  0  0  0  0  0  0  0  0  0
    8.0513  -11.9589   26.7578 C   0  0  0  0  0  0  0  0  0  0  0  0
    8.6561  -13.2119   26.8040 C   0  0  0  0  0  0  0  0  0  0  0  0
   10.6034  -16.9084   25.9548 C   0  0  0  0  0  0  0  0  0  0  0  0
   10.7177  -17.9238   25.2342 O   0  0  0  0  0  0  0  0  0  0  0  0
   11.3536  -16.8680   27.1228 O   0  0  0  0  0  0  0  0  0  0  0  0
  2  1  1  0
  3  2  1  0
  3  4  1  6
  5  3  1  0
  5  6  1  6
  7  5  1  0
  8  7  2  0
 10 11  1  0
 10  9  1  0
 11 13  1  0
 11 12  1  6
 13 14  1  1
 14  7  1  0
 15 13  1  0
 15 16  2  0
 17 18  1  0
 17 15  1  0
 18 19  1  1
 19 20  1  0
 20 25  2  0
 21 22  2  0
 21 20  1  0
 22 23  1  0
 23 24  2  0
 25 24  1  0
 26 18  1  0
 27 26  2  0
 28 26  1  0
M  END
$$$$
