IIF.pdb
     RDKit          3D

 28 28  0  0  1  0  0  0  0  0999 V2000
    5.3110  -21.5681   22.1963 C   0  0  0  0  0  0  0  0  0  0  0  0
    5.2163  -20.4051   21.2276 C   0  0  0  0  0  0  0  0  0  0  0  0
    6.3196  -19.4312   21.5850 C   0  0  2  0  0  0  0  0  0  0  0  0
    6.1999  -19.0895   23.0347 C   0  0  0  0  0  0  0  0  0  0  0  0
    6.1794  -18.2425   20.6695 C   0  0  2  0  0  0  0  0  0  0  0  0
    6.2280  -18.7284   19.3112 N   0  0  0  0  0  0  0  0  0  0  0  0
    7.2856  -17.2579   20.8755 C   0  0  0  0  0  0  0  0  0  0  0  0
    8.4699  -17.5454   20.5454 O   0  0  0  0  0  0  0  0  0  0  0  0
    6.9172  -12.5744   18.9994 C   0  0  0  0  0  0  0  0  0  0  0  0
    7.5056  -13.8828   19.5757 C   0  0  0  0  0  0  0  0  0  0  0  0
    7.6826  -13.7714   21.0543 C   0  0  2  0  0  0  0  0  0  0  0  0
    8.5171  -12.5527   21.4281 C   0  0  0  0  0  0  0  0  0  0  0  0
    7.9730  -14.9928   21.8170 C   0  0  2  0  0  0  0  0  0  0  0  0
    6.9768  -16.0100   21.4429 N   0  0  0  0  0  0  0  0  0  0  0  0
    8.2290  -14.9636   23.2334 C   0  0  0  0  0  0  0  0  0  0  0  0
    7.4685  -14.3183   24.0059 O   0  0  0  0  0  0  0  0  0  0  0  0
    9.3130  -15.6376   23.8452 N   0  0  0  0  0  0  0  0  0  0  0  0
    9.5720  -15.5185   25.2918 C   0  0  1  0  0  0  0  0  0  0  0  0
    8.2195  -15.6577   25.9617 C   0  0  0  0  0  0  0  0  0  0  0  0
    7.6269  -14.3471   26.3275 C   0  0  0  0  0  0  0  0  0  0  0  0
    6.2548  -14.1846   26.4675 C   0  0  0  0  0  0  0  0  0  0  0  0
    5.6764  -12.9804   26.8108 C   0  0  0  0  0  0  0  0  0  0  0  0
    6.5252  -11.9136   27.0163 C   0  0  0  0  0  0  0  0  0  0  0  0
    7.8728  -12.0519   26.8841 C   0  0  0  0  0  0  0  0  0  0  0  0
    8.4556  -13.2678   26.5377 C   0  0  0  0  0  0  0  0  0  0  0  0
   10.5333  -16.5655   25.7125 C   0  0  0  0  0  0  0  0  0  0  0  0
   11.0212  -16.5893   26.8636 O   0  0  0  0  0  0  0  0  0  0  0  0
   10.9275  -17.5649   24.8325 O   0  0  0  0  0  0  0  0  0  0  0  0
  2  1  1  0
  3  2  1  0
  3  4  1  1
  5  3  1  0
  5  6  1  6
  7  5  1  0
  8  7  2  0
 10 11  1  0
 10  9  1  0
 11 13  1  0
 11 12  1  6
 13 14  1  1
 14  7  1  0
 15 13  1  0
 15 16  2  0
 17 18  1  0
 17 15  1  0
 18 19  1  1
 19 20  1  0
 20 25  2  0
 21 22  2  0
 21 20  1  0
 22 23  1  0
 23 24  2  0
 25 24  1  0
 26 18  1  0
 27 26  2  0
 28 26  1  0
M  END
$$$$
