IIF.pdb
     RDKit          3D

 28 28  0  0  1  0  0  0  0  0999 V2000
    7.2793  -12.5261   18.0715 C   0  0  0  0  0  0  0  0  0  0  0  0
    7.4455  -13.8914   18.7103 C   0  0  0  0  0  0  0  0  0  0  0  0
    8.0090  -13.6726   20.0989 C   0  0  2  0  0  0  0  0  0  0  0  0
    9.3224  -12.9713   19.9730 C   0  0  0  0  0  0  0  0  0  0  0  0
    8.1052  -15.0236   20.7594 C   0  0  2  0  0  0  0  0  0  0  0  0
    6.7783  -15.5908   20.7905 N   0  0  0  0  0  0  0  0  0  0  0  0
    8.6224  -14.9148   22.1581 C   0  0  0  0  0  0  0  0  0  0  0  0
    9.8255  -14.5988   22.3743 O   0  0  0  0  0  0  0  0  0  0  0  0
    5.6325  -12.3262   25.7337 C   0  0  0  0  0  0  0  0  0  0  0  0
    6.8423  -12.9118   24.9697 C   0  0  0  0  0  0  0  0  0  0  0  0
    7.0565  -14.3415   25.3439 C   0  0  2  0  0  0  0  0  0  0  0  0
    7.0023  -14.5393   26.8536 C   0  0  0  0  0  0  0  0  0  0  0  0
    8.1057  -15.0966   24.6460 C   0  0  2  0  0  0  0  0  0  0  0  0
    7.7409  -15.1717   23.2218 N   0  0  0  0  0  0  0  0  0  0  0  0
    8.6120  -16.3447   25.1542 C   0  0  0  0  0  0  0  0  0  0  0  0
    8.1495  -17.4399   24.7321 O   0  0  0  0  0  0  0  0  0  0  0  0
    9.6351  -16.4339   26.1284 N   0  0  0  0  0  0  0  0  0  0  0  0
   10.3060  -17.7138   26.4209 C   0  0  1  0  0  0  0  0  0  0  0  0
   11.5430  -17.3536   27.2193 C   0  0  0  0  0  0  0  0  0  0  0  0
   11.3420  -16.1560   28.0726 C   0  0  0  0  0  0  0  0  0  0  0  0
   11.3409  -14.8748   27.5366 C   0  0  0  0  0  0  0  0  0  0  0  0
   11.1522  -13.7443   28.3039 C   0  0  0  0  0  0  0  0  0  0  0  0
   10.9596  -13.9299   29.6564 C   0  0  0  0  0  0  0  0  0  0  0  0
   10.9571  -15.1772   30.2014 C   0  0  0  0  0  0  0  0  0  0  0  0
   11.1475  -16.3176   29.4260 C   0  0  0  0  0  0  0  0  0  0  0  0
    9.3800  -18.6020   27.1634 C   0  0  0  0  0  0  0  0  0  0  0  0
    9.6930  -19.7731   27.4701 O   0  0  0  0  0  0  0  0  0  0  0  0
    8.1214  -18.1576   27.5465 O   0  0  0  0  0  0  0  0  0  0  0  0
  2  1  1  0
  3  2  1  0
  3  4  1  6
  5  3  1  0
  5  6  1  1
  7  5  1  0
  8  7  2  0
 10 11  1  0
 10  9  1  0
 11 13  1  0
 11 12  1  1
 13 14  1  6
 14  7  1  0
 15 13  1  0
 15 16  2  0
 17 18  1  0
 17 15  1  0
 18 19  1  1
 19 20  1  0
 20 25  2  0
 21 22  2  0
 21 20  1  0
 22 23  1  0
 23 24  2  0
 25 24  1  0
 26 18  1  0
 27 26  2  0
 28 26  1  0
M  END
$$$$
