IIF.pdb
     RDKit          3D

 28 28  0  0  1  0  0  0  0  0999 V2000
    4.2665  -21.1341   22.7896 C   0  0  0  0  0  0  0  0  0  0  0  0
    4.2104  -19.9337   21.8646 C   0  0  0  0  0  0  0  0  0  0  0  0
    5.4849  -19.1433   22.0759 C   0  0  2  0  0  0  0  0  0  0  0  0
    5.5927  -18.7952   23.5249 C   0  0  0  0  0  0  0  0  0  0  0  0
    5.4207  -17.9422   21.1681 C   0  0  2  0  0  0  0  0  0  0  0  0
    5.2278  -18.4222   19.8206 N   0  0  0  0  0  0  0  0  0  0  0  0
    6.6832  -17.1432   21.2255 C   0  0  0  0  0  0  0  0  0  0  0  0
    7.7564  -17.6042   20.7460 O   0  0  0  0  0  0  0  0  0  0  0  0
    7.0267  -12.5479   19.1504 C   0  0  0  0  0  0  0  0  0  0  0  0
    7.3344  -13.9280   19.7757 C   0  0  0  0  0  0  0  0  0  0  0  0
    7.6325  -13.7888   21.2323 C   0  0  2  0  0  0  0  0  0  0  0  0
    8.6386  -12.6750   21.4939 C   0  0  0  0  0  0  0  0  0  0  0  0
    7.8229  -15.0102   22.0261 C   0  0  2  0  0  0  0  0  0  0  0  0
    6.6468  -15.8720   21.8233 N   0  0  0  0  0  0  0  0  0  0  0  0
    8.2465  -14.9664   23.4013 C   0  0  0  0  0  0  0  0  0  0  0  0
    7.7565  -14.1152   24.1930 O   0  0  0  0  0  0  0  0  0  0  0  0
    9.2078  -15.8483   23.9508 N   0  0  0  0  0  0  0  0  0  0  0  0
    9.7455  -15.6468   25.3088 C   0  0  1  0  0  0  0  0  0  0  0  0
    8.5441  -15.6761   26.2324 C   0  0  0  0  0  0  0  0  0  0  0  0
    7.9760  -14.3260   26.4717 C   0  0  0  0  0  0  0  0  0  0  0  0
    6.6050  -14.1044   26.4687 C   0  0  0  0  0  0  0  0  0  0  0  0
    6.0487  -12.8623   26.6923 C   0  0  0  0  0  0  0  0  0  0  0  0
    6.9189  -11.8186   26.9254 C   0  0  0  0  0  0  0  0  0  0  0  0
    8.2659  -12.0148   26.9326 C   0  0  0  0  0  0  0  0  0  0  0  0
    8.8263  -13.2689   26.7069 C   0  0  0  0  0  0  0  0  0  0  0  0
   10.7331  -16.7092   25.6150 C   0  0  0  0  0  0  0  0  0  0  0  0
   10.8804  -17.7062   24.8750 O   0  0  0  0  0  0  0  0  0  0  0  0
   11.5353  -16.6306   26.7459 O   0  0  0  0  0  0  0  0  0  0  0  0
  2  1  1  0
  3  2  1  0
  3  4  1  1
  5  3  1  0
  5  6  1  6
  7  5  1  0
  8  7  2  0
 10 11  1  0
 10  9  1  0
 11 13  1  0
 11 12  1  6
 13 14  1  1
 14  7  1  0
 15 13  1  0
 15 16  2  0
 17 18  1  0
 17 15  1  0
 18 19  1  1
 19 20  1  0
 20 25  2  0
 21 22  2  0
 21 20  1  0
 22 23  1  0
 23 24  2  0
 25 24  1  0
 26 18  1  0
 27 26  2  0
 28 26  1  0
M  END
$$$$
