IIF.pdb
     RDKit          3D

 28 28  0  0  1  0  0  0  0  0999 V2000
    7.3320  -11.6916   19.7247 C   0  0  0  0  0  0  0  0  0  0  0  0
    7.8613  -13.0670   19.3672 C   0  0  0  0  0  0  0  0  0  0  0  0
    7.9231  -13.8721   20.6485 C   0  0  2  0  0  0  0  0  0  0  0  0
    8.7364  -13.1139   21.6466 C   0  0  0  0  0  0  0  0  0  0  0  0
    8.4964  -15.2215   20.3005 C   0  0  2  0  0  0  0  0  0  0  0  0
    7.6394  -15.8169   19.3033 N   0  0  0  0  0  0  0  0  0  0  0  0
    8.5516  -16.1188   21.4952 C   0  0  0  0  0  0  0  0  0  0  0  0
    7.5184  -16.7300   21.8866 O   0  0  0  0  0  0  0  0  0  0  0  0
   11.7575  -20.0385   21.4743 C   0  0  0  0  0  0  0  0  0  0  0  0
   10.6149  -19.0357   21.7553 C   0  0  0  0  0  0  0  0  0  0  0  0
   10.9393  -18.1907   22.9431 C   0  0  2  0  0  0  0  0  0  0  0  0
   11.4983  -19.0257   24.0883 C   0  0  0  0  0  0  0  0  0  0  0  0
    9.9894  -17.1403   23.3334 C   0  0  2  0  0  0  0  0  0  0  0  0
    9.7759  -16.2650   22.1692 N   0  0  0  0  0  0  0  0  0  0  0  0
   10.1316  -16.4028   24.5616 C   0  0  0  0  0  0  0  0  0  0  0  0
   11.0085  -15.5019   24.6668 O   0  0  0  0  0  0  0  0  0  0  0  0
    9.3228  -16.6220   25.7024 N   0  0  0  0  0  0  0  0  0  0  0  0
    9.5808  -15.9183   26.9720 C   0  0  1  0  0  0  0  0  0  0  0  0
    8.2176  -15.5264   27.5062 C   0  0  0  0  0  0  0  0  0  0  0  0
    7.6205  -14.3878   26.7647 C   0  0  0  0  0  0  0  0  0  0  0  0
    8.1244  -13.0993   26.8846 C   0  0  0  0  0  0  0  0  0  0  0  0
    7.5932  -12.0232   26.2048 C   0  0  0  0  0  0  0  0  0  0  0  0
    6.5170  -12.2724   25.3799 C   0  0  0  0  0  0  0  0  0  0  0  0
    6.0082  -13.5280   25.2483 C   0  0  0  0  0  0  0  0  0  0  0  0
    6.5452  -14.6134   25.9349 C   0  0  0  0  0  0  0  0  0  0  0  0
   10.3251  -16.8106   27.8926 C   0  0  0  0  0  0  0  0  0  0  0  0
   10.7880  -16.3998   28.9791 O   0  0  0  0  0  0  0  0  0  0  0  0
   10.5347  -18.1461   27.5747 O   0  0  0  0  0  0  0  0  0  0  0  0
  2  1  1  0
  3  2  1  0
  3  4  1  1
  5  3  1  0
  5  6  1  6
  7  5  1  0
  8  7  2  0
 10 11  1  0
 10  9  1  0
 11 13  1  0
 11 12  1  1
 13 14  1  6
 14  7  1  0
 15 13  1  0
 15 16  2  0
 17 18  1  0
 17 15  1  0
 18 19  1  1
 19 20  1  0
 20 25  2  0
 21 22  2  0
 21 20  1  0
 22 23  1  0
 23 24  2  0
 25 24  1  0
 26 18  1  0
 27 26  2  0
 28 26  1  0
M  END
$$$$
