DKV.pdb
     RDKit          3D

 25 24  0  0  1  0  0  0  0  0999 V2000
   19.5168  -21.2538  -13.4650 N   0  0  0  0  0  0  0  0  0  0  0  0
   19.9529  -20.4157  -14.5424 C   0  0  1  0  0  0  0  0  0  0  0  0
   19.4515  -19.0001  -14.4253 C   0  0  0  0  0  0  0  0  0  0  0  0
   18.1500  -18.8737  -15.1329 C   0  0  0  0  0  0  0  0  0  0  0  0
   17.6108  -19.8354  -15.7158 O   0  0  0  0  0  0  0  0  0  0  0  0
   21.4327  -20.4219  -14.6116 C   0  0  0  0  0  0  0  0  0  0  0  0
   22.1046  -20.2057  -13.5683 O   0  0  0  0  0  0  0  0  0  0  0  0
   17.4917  -17.6235  -15.1565 O   0  0  0  0  0  0  0  0  0  0  0  0
   22.1524  -20.6649  -15.8132 N   0  0  0  0  0  0  0  0  0  0  0  0
   23.6068  -20.6535  -15.7766 C   0  0  1  0  0  0  0  0  0  0  0  0
   24.0482  -21.7781  -16.6899 C   0  0  0  0  0  0  0  0  0  0  0  0
   25.5211  -21.9403  -16.8084 C   0  0  0  0  0  0  0  0  0  0  0  0
   25.9172  -23.0521  -17.7560 C   0  0  0  0  0  0  0  0  0  0  0  0
   27.4217  -23.2053  -17.7726 C   0  0  0  0  0  0  0  0  0  0  0  0
   27.8404  -24.2028  -18.7483 N   0  0  0  0  0  0  0  0  0  0  0  0
   24.1217  -19.3710  -16.2741 C   0  0  0  0  0  0  0  0  0  0  0  0
   23.4944  -18.7557  -17.1808 O   0  0  0  0  0  0  0  0  0  0  0  0
   26.9970  -15.4858  -15.3715 C   0  0  0  0  0  0  0  0  0  0  0  0
   26.4917  -16.8639  -15.1058 C   0  0  2  0  0  0  0  0  0  0  0  0
   27.6142  -17.6993  -14.5022 C   0  0  0  0  0  0  0  0  0  0  0  0
   25.8420  -17.5424  -16.2735 C   0  0  2  0  0  0  0  0  0  0  0  0
   25.3023  -18.7933  -15.7723 N   0  0  0  0  0  0  0  0  0  0  0  0
   26.6699  -17.7705  -17.4344 C   0  0  0  0  0  0  0  0  0  0  0  0
   26.9285  -16.8400  -18.4419 O   0  0  0  0  0  0  0  0  0  0  0  0
   27.2209  -18.8907  -17.5838 O   0  0  0  0  0  0  0  0  0  0  0  0
  2  1  1  1
  2  3  1  0
  3  4  1  0
  4  8  1  0
  5  4  2  0
  6  9  1  0
  6  2  1  0
  7  6  2  0
 10  9  1  0
 10 11  1  6
 11 12  1  0
 12 13  1  0
 13 14  1  0
 14 15  1  0
 16 10  1  0
 17 16  2  0
 19 18  1  6
 19 20  1  0
 19 21  1  0
 21 22  1  1
 21 23  1  0
 22 16  1  0
 23 24  1  0
 25 23  2  0
M  END
$$$$
