DKV.pdb
     RDKit          3D

 25 24  0  0  1  0  0  0  0  0999 V2000
   17.9197  -15.1547  -17.2096 N   0  0  0  0  0  0  0  0  0  0  0  0
   17.9619  -14.5522  -15.9101 C   0  0  1  0  0  0  0  0  0  0  0  0
   19.1940  -14.9272  -15.1287 C   0  0  0  0  0  0  0  0  0  0  0  0
   19.1410  -16.3716  -14.7801 C   0  0  0  0  0  0  0  0  0  0  0  0
   20.0707  -17.1580  -15.0494 O   0  0  0  0  0  0  0  0  0  0  0  0
   17.8770  -13.0790  -16.0404 C   0  0  0  0  0  0  0  0  0  0  0  0
   18.6664  -12.4770  -16.8158 O   0  0  0  0  0  0  0  0  0  0  0  0
   18.0000  -16.8853  -14.1234 O   0  0  0  0  0  0  0  0  0  0  0  0
   16.9344  -12.2899  -15.3266 N   0  0  0  0  0  0  0  0  0  0  0  0
   16.8913  -10.8557  -15.5679 C   0  0  1  0  0  0  0  0  0  0  0  0
   15.5034  -10.4124  -15.1544 C   0  0  0  0  0  0  0  0  0  0  0  0
   15.2481   -8.9551  -15.2987 C   0  0  0  0  0  0  0  0  0  0  0  0
   13.8883   -8.5407  -14.7789 C   0  0  0  0  0  0  0  0  0  0  0  0
   13.6969   -7.0518  -14.9622 C   0  0  0  0  0  0  0  0  0  0  0  0
   12.5106   -6.5812  -14.2595 N   0  0  0  0  0  0  0  0  0  0  0  0
   17.9018  -10.1685  -14.7531 C   0  0  0  0  0  0  0  0  0  0  0  0
   18.0713  -10.5102  -13.5495 O   0  0  0  0  0  0  0  0  0  0  0  0
   21.4890  -10.0634  -15.2215 C   0  0  0  0  0  0  0  0  0  0  0  0
   21.0110   -8.6511  -15.1778 C   0  0  2  0  0  0  0  0  0  0  0  0
   22.1171   -7.7670  -14.6144 C   0  0  0  0  0  0  0  0  0  0  0  0
   19.7025   -8.4408  -14.4781 C   0  0  2  0  0  0  0  0  0  0  0  0
   18.6995   -9.1306  -15.2688 N   0  0  0  0  0  0  0  0  0  0  0  0
   19.3099   -7.0729  -14.2335 C   0  0  0  0  0  0  0  0  0  0  0  0
   19.5340   -6.3634  -13.0527 O   0  0  0  0  0  0  0  0  0  0  0  0
   18.7135   -6.4352  -15.1381 O   0  0  0  0  0  0  0  0  0  0  0  0
  2  1  1  6
  2  3  1  0
  3  4  1  0
  4  8  1  0
  5  4  2  0
  6  9  1  0
  6  2  1  0
  7  6  2  0
 10  9  1  0
 10 11  1  1
 11 12  1  0
 12 13  1  0
 13 14  1  0
 14 15  1  0
 16 10  1  0
 17 16  2  0
 19 18  1  1
 19 20  1  0
 19 21  1  0
 21 22  1  6
 21 23  1  0
 22 16  1  0
 23 24  1  0
 25 23  2  0
M  END
$$$$
