DKV.pdb
     RDKit          3D

 25 24  0  0  1  0  0  0  0  0999 V2000
   23.0280  -15.1064  -20.4519 N   0  0  0  0  0  0  0  0  0  0  0  0
   22.1673  -14.4645  -19.5029 C   0  0  1  0  0  0  0  0  0  0  0  0
   22.1949  -15.1208  -18.1472 C   0  0  0  0  0  0  0  0  0  0  0  0
   21.4401  -16.4007  -18.1992 C   0  0  0  0  0  0  0  0  0  0  0  0
   20.6528  -16.6743  -19.1269 O   0  0  0  0  0  0  0  0  0  0  0  0
   22.5392  -13.0359  -19.3787 C   0  0  0  0  0  0  0  0  0  0  0  0
   23.7433  -12.7218  -19.1835 O   0  0  0  0  0  0  0  0  0  0  0  0
   21.6089  -17.3481  -17.1644 O   0  0  0  0  0  0  0  0  0  0  0  0
   21.5949  -11.9774  -19.4710 N   0  0  0  0  0  0  0  0  0  0  0  0
   22.0594  -10.6059  -19.3294 C   0  0  1  0  0  0  0  0  0  0  0  0
   20.8778   -9.7332  -19.6979 C   0  0  0  0  0  0  0  0  0  0  0  0
   21.1110   -8.2734  -19.5415 C   0  0  0  0  0  0  0  0  0  0  0  0
   19.8920   -7.4424  -19.8795 C   0  0  0  0  0  0  0  0  0  0  0  0
   20.2023   -5.9731  -19.6997 C   0  0  0  0  0  0  0  0  0  0  0  0
   18.9970   -5.1617  -19.8061 N   0  0  0  0  0  0  0  0  0  0  0  0
   22.4649  -10.3430  -17.9423 C   0  0  0  0  0  0  0  0  0  0  0  0
   21.8311  -10.8833  -16.9934 O   0  0  0  0  0  0  0  0  0  0  0  0
   25.1935  -11.1637  -15.2754 C   0  0  0  0  0  0  0  0  0  0  0  0
   25.2579   -9.8860  -16.0423 C   0  0  2  0  0  0  0  0  0  0  0  0
   26.2850   -8.9658  -15.3937 C   0  0  0  0  0  0  0  0  0  0  0  0
   23.9410   -9.2047  -16.2605 C   0  0  2  0  0  0  0  0  0  0  0  0
   23.5472   -9.5017  -17.6258 N   0  0  0  0  0  0  0  0  0  0  0  0
   23.8971   -7.7828  -16.0128 C   0  0  0  0  0  0  0  0  0  0  0  0
   24.2020   -6.7876  -16.9425 O   0  0  0  0  0  0  0  0  0  0  0  0
   23.5599   -7.3690  -14.8745 O   0  0  0  0  0  0  0  0  0  0  0  0
  2  1  1  6
  2  3  1  0
  3  4  1  0
  4  8  1  0
  5  4  2  0
  6  9  1  0
  6  2  1  0
  7  6  2  0
 10  9  1  0
 10 11  1  1
 11 12  1  0
 12 13  1  0
 13 14  1  0
 14 15  1  0
 16 10  1  0
 17 16  2  0
 19 18  1  1
 19 20  1  0
 19 21  1  0
 21 22  1  6
 21 23  1  0
 22 16  1  0
 23 24  1  0
 25 23  2  0
M  END
$$$$
