DKV.pdb
     RDKit          3D

 25 24  0  0  1  0  0  0  0  0999 V2000
   28.2350  -20.4430  -18.3565 N   0  0  0  0  0  0  0  0  0  0  0  0
   27.6516  -19.4338  -17.5232 C   0  0  1  0  0  0  0  0  0  0  0  0
   26.9652  -18.3476  -18.3095 C   0  0  0  0  0  0  0  0  0  0  0  0
   27.9717  -17.6019  -19.1104 C   0  0  0  0  0  0  0  0  0  0  0  0
   27.8580  -17.4396  -20.3417 O   0  0  0  0  0  0  0  0  0  0  0  0
   26.6926  -20.0571  -16.5819 C   0  0  0  0  0  0  0  0  0  0  0  0
   25.9619  -21.0046  -16.9756 O   0  0  0  0  0  0  0  0  0  0  0  0
   29.1045  -17.0556  -18.4659 O   0  0  0  0  0  0  0  0  0  0  0  0
   26.5485  -19.6392  -15.2308 N   0  0  0  0  0  0  0  0  0  0  0  0
   25.5740  -20.3129  -14.3862 C   0  0  1  0  0  0  0  0  0  0  0  0
   26.0292  -20.0705  -12.9622 C   0  0  0  0  0  0  0  0  0  0  0  0
   25.1527  -20.6665  -11.9199 C   0  0  0  0  0  0  0  0  0  0  0  0
   25.6477  -20.4050  -10.5137 C   0  0  0  0  0  0  0  0  0  0  0  0
   24.6470  -20.9289   -9.5080 C   0  0  0  0  0  0  0  0  0  0  0  0
   25.0547  -20.6156   -8.1448 N   0  0  0  0  0  0  0  0  0  0  0  0
   24.2366  -19.7407  -14.5903 C   0  0  0  0  0  0  0  0  0  0  0  0
   24.0816  -18.4881  -14.5567 O   0  0  0  0  0  0  0  0  0  0  0  0
   19.9566  -19.8047  -16.7007 C   0  0  0  0  0  0  0  0  0  0  0  0
   21.2987  -20.3420  -16.3331 C   0  0  2  0  0  0  0  0  0  0  0  0
   21.3266  -21.8418  -16.6015 C   0  0  0  0  0  0  0  0  0  0  0  0
   21.7658  -20.0027  -14.9500 C   0  0  2  0  0  0  0  0  0  0  0  0
   23.1065  -20.5450  -14.8257 N   0  0  0  0  0  0  0  0  0  0  0  0
   20.9317  -20.4438  -13.8569 C   0  0  0  0  0  0  0  0  0  0  0  0
   19.8293  -19.7552  -13.3486 O   0  0  0  0  0  0  0  0  0  0  0  0
   21.1902  -21.5361  -13.2907 O   0  0  0  0  0  0  0  0  0  0  0  0
  2  1  1  6
  2  3  1  0
  3  4  1  0
  4  8  1  0
  5  4  2  0
  6  9  1  0
  6  2  1  0
  7  6  2  0
 10  9  1  0
 10 11  1  1
 11 12  1  0
 12 13  1  0
 13 14  1  0
 14 15  1  0
 16 10  1  0
 17 16  2  0
 19 18  1  1
 19 20  1  0
 19 21  1  0
 21 22  1  1
 21 23  1  0
 22 16  1  0
 23 24  1  0
 25 23  2  0
M  END
$$$$
