DKV.pdb
     RDKit          3D

 25 24  0  0  1  0  0  0  0  0999 V2000
   28.5958  -19.6815  -17.4903 N   0  0  0  0  0  0  0  0  0  0  0  0
   27.7441  -20.6845  -16.9228 C   0  0  1  0  0  0  0  0  0  0  0  0
   28.5040  -21.7346  -16.1553 C   0  0  0  0  0  0  0  0  0  0  0  0
   29.2440  -22.6064  -17.1054 C   0  0  0  0  0  0  0  0  0  0  0  0
   29.1949  -22.4408  -18.3405 O   0  0  0  0  0  0  0  0  0  0  0  0
   26.7391  -20.0452  -16.0420 C   0  0  0  0  0  0  0  0  0  0  0  0
   27.1150  -19.2247  -15.1633 O   0  0  0  0  0  0  0  0  0  0  0  0
   30.0319  -23.6670  -16.6041 O   0  0  0  0  0  0  0  0  0  0  0  0
   25.3455  -20.3094  -16.1353 N   0  0  0  0  0  0  0  0  0  0  0  0
   24.4374  -19.6253  -15.2274 C   0  0  1  0  0  0  0  0  0  0  0  0
   23.3753  -18.9981  -16.1060 C   0  0  0  0  0  0  0  0  0  0  0  0
   23.7990  -17.7542  -16.8011 C   0  0  0  0  0  0  0  0  0  0  0  0
   22.7177  -17.1783  -17.6899 C   0  0  0  0  0  0  0  0  0  0  0  0
   23.2518  -15.9806  -18.4433 C   0  0  0  0  0  0  0  0  0  0  0  0
   22.2595  -15.4548  -19.3714 N   0  0  0  0  0  0  0  0  0  0  0  0
   23.8211  -20.5838  -14.3006 C   0  0  0  0  0  0  0  0  0  0  0  0
   23.3152  -21.6499  -14.7499 O   0  0  0  0  0  0  0  0  0  0  0  0
   24.0448  -20.0612   -9.9626 C   0  0  0  0  0  0  0  0  0  0  0  0
   24.0382  -21.3156  -10.7698 C   0  0  2  0  0  0  0  0  0  0  0  0
   25.4741  -21.7024  -11.1027 C   0  0  0  0  0  0  0  0  0  0  0  0
   23.1598  -21.2895  -11.9837 C   0  0  2  0  0  0  0  0  0  0  0  0
   23.7724  -20.3575  -12.9129 N   0  0  0  0  0  0  0  0  0  0  0  0
   21.7695  -20.9619  -11.7719 C   0  0  0  0  0  0  0  0  0  0  0  0
   20.8074  -21.8176  -11.2333 O   0  0  0  0  0  0  0  0  0  0  0  0
   21.3543  -19.8179  -12.0874 O   0  0  0  0  0  0  0  0  0  0  0  0
  2  1  1  1
  2  3  1  0
  3  4  1  0
  4  8  1  0
  5  4  2  0
  6  9  1  0
  6  2  1  0
  7  6  2  0
 10  9  1  0
 10 11  1  6
 11 12  1  0
 12 13  1  0
 13 14  1  0
 14 15  1  0
 16 10  1  0
 17 16  2  0
 19 18  1  6
 19 20  1  0
 19 21  1  0
 21 22  1  6
 21 23  1  0
 22 16  1  0
 23 24  1  0
 25 23  2  0
M  END
$$$$
