DKV.pdb
     RDKit          3D

 25 24  0  0  1  0  0  0  0  0999 V2000
   28.4378  -23.1862  -17.3308 N   0  0  0  0  0  0  0  0  0  0  0  0
   27.0462  -22.9801  -17.0581 C   0  0  1  0  0  0  0  0  0  0  0  0
   26.3020  -24.2641  -16.7995 C   0  0  0  0  0  0  0  0  0  0  0  0
   26.0575  -24.9649  -18.0877 C   0  0  0  0  0  0  0  0  0  0  0  0
   26.5724  -26.0687  -18.3555 O   0  0  0  0  0  0  0  0  0  0  0  0
   26.8945  -22.0680  -15.9007 C   0  0  0  0  0  0  0  0  0  0  0  0
   27.5887  -22.2554  -14.8664 O   0  0  0  0  0  0  0  0  0  0  0  0
   25.2163  -24.3678  -19.0535 O   0  0  0  0  0  0  0  0  0  0  0  0
   25.9925  -20.9693  -15.8916 N   0  0  0  0  0  0  0  0  0  0  0  0
   25.9410  -20.1111  -14.7178 C   0  0  1  0  0  0  0  0  0  0  0  0
   25.3763  -18.7912  -15.2000 C   0  0  0  0  0  0  0  0  0  0  0  0
   26.3919  -17.8239  -15.6929 C   0  0  0  0  0  0  0  0  0  0  0  0
   25.7804  -16.5390  -16.2086 C   0  0  0  0  0  0  0  0  0  0  0  0
   26.8694  -15.6019  -16.6810 C   0  0  0  0  0  0  0  0  0  0  0  0
   26.3077  -14.3978  -17.2785 N   0  0  0  0  0  0  0  0  0  0  0  0
   25.0590  -20.6919  -13.6969 C   0  0  0  0  0  0  0  0  0  0  0  0
   24.0252  -21.3242  -14.0512 O   0  0  0  0  0  0  0  0  0  0  0  0
   25.5069  -19.8496   -9.3820 C   0  0  0  0  0  0  0  0  0  0  0  0
   25.2541  -21.1663  -10.0359 C   0  0  2  0  0  0  0  0  0  0  0  0
   26.5810  -21.8902  -10.2298 C   0  0  0  0  0  0  0  0  0  0  0  0
   24.4476  -21.1085  -11.2978 C   0  0  2  0  0  0  0  0  0  0  0  0
   25.3254  -20.5699  -12.3208 N   0  0  0  0  0  0  0  0  0  0  0  0
   23.2096  -20.3673  -11.2433 C   0  0  0  0  0  0  0  0  0  0  0  0
   22.9816  -19.1242  -11.8353 O   0  0  0  0  0  0  0  0  0  0  0  0
   22.2320  -20.8518  -10.6185 O   0  0  0  0  0  0  0  0  0  0  0  0
  2  1  1  1
  2  3  1  0
  3  4  1  0
  4  8  1  0
  5  4  2  0
  6  9  1  0
  6  2  1  0
  7  6  2  0
 10  9  1  0
 10 11  1  6
 11 12  1  0
 12 13  1  0
 13 14  1  0
 14 15  1  0
 16 10  1  0
 17 16  2  0
 19 18  1  6
 19 20  1  0
 19 21  1  0
 21 22  1  6
 21 23  1  0
 22 16  1  0
 23 24  1  0
 25 23  2  0
M  END
$$$$
