DKV.pdb
     RDKit          3D

 25 24  0  0  1  0  0  0  0  0999 V2000
   22.7555  -13.1136  -21.3096 N   0  0  0  0  0  0  0  0  0  0  0  0
   23.2643  -12.7686  -20.0152 C   0  0  1  0  0  0  0  0  0  0  0  0
   24.5071  -11.9197  -20.0799 C   0  0  0  0  0  0  0  0  0  0  0  0
   25.6699  -12.7683  -20.4517 C   0  0  0  0  0  0  0  0  0  0  0  0
   25.5713  -14.0004  -20.6178 O   0  0  0  0  0  0  0  0  0  0  0  0
   22.2158  -12.0684  -19.2375 C   0  0  0  0  0  0  0  0  0  0  0  0
   21.4518  -11.2524  -19.8183 O   0  0  0  0  0  0  0  0  0  0  0  0
   26.9388  -12.1703  -20.6223 O   0  0  0  0  0  0  0  0  0  0  0  0
   22.0177  -12.2705  -17.8444 N   0  0  0  0  0  0  0  0  0  0  0  0
   20.9233  -11.5778  -17.1817 C   0  0  1  0  0  0  0  0  0  0  0  0
   20.3748  -12.5570  -16.1648 C   0  0  0  0  0  0  0  0  0  0  0  0
   19.3904  -13.5299  -16.7074 C   0  0  0  0  0  0  0  0  0  0  0  0
   18.8825  -14.4994  -15.6619 C   0  0  0  0  0  0  0  0  0  0  0  0
   17.9165  -15.4783  -16.2911 C   0  0  0  0  0  0  0  0  0  0  0  0
   17.3365  -16.3649  -15.2911 N   0  0  0  0  0  0  0  0  0  0  0  0
   21.4164  -10.3722  -16.5030 C   0  0  0  0  0  0  0  0  0  0  0  0
   22.5389  -10.3956  -15.9255 O   0  0  0  0  0  0  0  0  0  0  0  0
   21.4157   -5.5151  -16.2639 C   0  0  0  0  0  0  0  0  0  0  0  0
   20.9550   -6.8467  -16.7534 C   0  0  2  0  0  0  0  0  0  0  0  0
   19.5150   -6.7294  -17.2381 C   0  0  0  0  0  0  0  0  0  0  0  0
   21.1409   -7.9804  -15.7910 C   0  0  2  0  0  0  0  0  0  0  0  0
   20.6767   -9.1758  -16.4714 N   0  0  0  0  0  0  0  0  0  0  0  0
   20.5066   -7.8469  -14.5006 C   0  0  0  0  0  0  0  0  0  0  0  0
   21.0296   -7.1546  -13.4074 O   0  0  0  0  0  0  0  0  0  0  0  0
   19.3876   -8.3869  -14.3088 O   0  0  0  0  0  0  0  0  0  0  0  0
  2  1  1  6
  2  3  1  0
  3  4  1  0
  4  8  1  0
  5  4  2  0
  6  9  1  0
  6  2  1  0
  7  6  2  0
 10  9  1  0
 10 11  1  1
 11 12  1  0
 12 13  1  0
 13 14  1  0
 14 15  1  0
 16 10  1  0
 17 16  2  0
 19 18  1  1
 19 20  1  0
 19 21  1  0
 21 22  1  6
 21 23  1  0
 22 16  1  0
 23 24  1  0
 25 23  2  0
M  END
$$$$
