DKV.pdb
     RDKit          3D

 25 24  0  0  1  0  0  0  0  0999 V2000
   16.2109  -12.8282  -12.8517 N   0  0  0  0  0  0  0  0  0  0  0  0
   15.5483  -11.6070  -13.2025 C   0  0  1  0  0  0  0  0  0  0  0  0
   14.0539  -11.6784  -13.0270 C   0  0  0  0  0  0  0  0  0  0  0  0
   13.4957  -12.7147  -13.9353 C   0  0  0  0  0  0  0  0  0  0  0  0
   13.8597  -12.8280  -15.1227 O   0  0  0  0  0  0  0  0  0  0  0  0
   16.0976  -10.4922  -12.3963 C   0  0  0  0  0  0  0  0  0  0  0  0
   16.0136  -10.5333  -11.1401 O   0  0  0  0  0  0  0  0  0  0  0  0
   12.5141  -13.6074  -13.4491 O   0  0  0  0  0  0  0  0  0  0  0  0
   16.7288   -9.3559  -12.9718 N   0  0  0  0  0  0  0  0  0  0  0  0
   17.3003   -8.3477  -12.0921 C   0  0  1  0  0  0  0  0  0  0  0  0
   18.3034   -7.5891  -12.9358 C   0  0  0  0  0  0  0  0  0  0  0  0
   19.5137   -8.3664  -13.3108 C   0  0  0  0  0  0  0  0  0  0  0  0
   20.3798   -7.6544  -14.3275 C   0  0  0  0  0  0  0  0  0  0  0  0
   21.5908   -8.4985  -14.6562 C   0  0  0  0  0  0  0  0  0  0  0  0
   22.4465   -7.8373  -15.6324 N   0  0  0  0  0  0  0  0  0  0  0  0
   16.2546   -7.4344  -11.6123 C   0  0  0  0  0  0  0  0  0  0  0  0
   15.3672   -7.0260  -12.4121 O   0  0  0  0  0  0  0  0  0  0  0  0
   13.4357   -6.0197   -7.9560 C   0  0  0  0  0  0  0  0  0  0  0  0
   14.5170   -6.7913   -8.6346 C   0  0  2  0  0  0  0  0  0  0  0  0
   15.5239   -7.2619   -7.5920 C   0  0  0  0  0  0  0  0  0  0  0  0
   15.1745   -6.0925   -9.7859 C   0  0  2  0  0  0  0  0  0  0  0  0
   16.2025   -6.9916  -10.2779 N   0  0  0  0  0  0  0  0  0  0  0  0
   15.7229   -4.7829   -9.5226 C   0  0  0  0  0  0  0  0  0  0  0  0
   14.9982   -3.5905   -9.4953 O   0  0  0  0  0  0  0  0  0  0  0  0
   16.9539   -4.6684   -9.2943 O   0  0  0  0  0  0  0  0  0  0  0  0
  2  1  1  1
  2  3  1  0
  3  4  1  0
  4  8  1  0
  5  4  2  0
  6  9  1  0
  6  2  1  0
  7  6  2  0
 10  9  1  0
 10 11  1  6
 11 12  1  0
 12 13  1  0
 13 14  1  0
 14 15  1  0
 16 10  1  0
 17 16  2  0
 19 18  1  1
 19 20  1  0
 19 21  1  0
 21 22  1  1
 21 23  1  0
 22 16  1  0
 23 24  1  0
 25 23  2  0
M  END
$$$$
