DKQ.pdb
     RDKit          3D

 27 26  0  0  1  0  0  0  0  0999 V2000
   15.8903  -13.5755  -14.3614 N   0  0  0  0  0  0  0  0  0  0  0  0
   15.6897  -12.6156  -15.4177 C   0  0  1  0  0  0  0  0  0  0  0  0
   14.3252  -11.9858  -15.2148 C   0  0  0  0  0  0  0  0  0  0  0  0
   13.2383  -12.9736  -15.4630 C   0  0  0  0  0  0  0  0  0  0  0  0
   13.1484  -13.9754  -14.7155 O   0  0  0  0  0  0  0  0  0  0  0  0
   16.6999  -11.5481  -15.3137 C   0  0  0  0  0  0  0  0  0  0  0  0
   16.9963  -11.0050  -14.2101 O   0  0  0  0  0  0  0  0  0  0  0  0
   12.3252  -12.8281  -16.4857 O   0  0  0  0  0  0  0  0  0  0  0  0
   17.3684  -11.1025  -16.4620 N   0  0  0  0  0  0  0  0  0  0  0  0
   18.4736  -10.1021  -16.4160 C   0  0  1  0  0  0  0  0  0  0  0  0
   19.4562  -10.5044  -17.4581 C   0  0  0  0  0  0  0  0  0  0  0  0
   20.3962  -11.5531  -17.0254 C   0  0  0  0  0  0  0  0  0  0  0  0
   21.3162  -12.0506  -18.1137 C   0  0  0  0  0  0  0  0  0  0  0  0
   22.0910  -13.2717  -17.7306 C   0  0  0  0  0  0  0  0  0  0  0  0
   22.8587  -13.8189  -18.8268 N   0  0  0  0  0  0  0  0  0  0  0  0
   17.9197   -8.7610  -16.4788 C   0  0  0  0  0  0  0  0  0  0  0  0
   16.8277   -8.6145  -17.1389 O   0  0  0  0  0  0  0  0  0  0  0  0
   13.7238   -6.3149  -14.6512 N   0  0  0  0  0  0  0  0  0  0  0  0
   14.3129   -5.0789  -14.9469 C   0  0  0  0  0  0  0  0  0  0  0  0
   13.6668   -4.0276  -14.8635 O   0  0  0  0  0  0  0  0  0  0  0  0
   15.7496   -4.9883  -15.3754 C   0  0  0  0  0  0  0  0  0  0  0  0
   16.3732   -6.3531  -15.4464 C   0  0  0  0  0  0  0  0  0  0  0  0
   17.7510   -6.2849  -15.9892 C   0  0  2  0  0  0  0  0  0  0  0  0
   18.4227   -7.5847  -15.9015 N   0  0  0  0  0  0  0  0  0  0  0  0
   18.5665   -5.2708  -15.3390 C   0  0  0  0  0  0  0  0  0  0  0  0
   18.1800   -4.0451  -15.4156 O   0  0  0  0  0  0  0  0  0  0  0  0
   19.7439   -5.5228  -14.6292 O   0  0  0  0  0  0  0  0  0  0  0  0
  2  1  1  1
  3  2  1  0
  4  3  1  0
  5  4  2  0
  6  7  2  0
  6  2  1  0
  8  4  1  0
  9  6  1  0
 10 11  1  6
 10  9  1  0
 11 12  1  0
 13 12  1  0
 14 13  1  0
 15 14  1  0
 16 17  2  0
 16 10  1  0
 18 19  1  0
 19 20  2  0
 19 21  1  0
 21 22  1  0
 23 22  1  1
 23 24  1  0
 24 16  1  0
 25 23  1  0
 25 27  1  0
 26 25  2  0
M  END
$$$$
