DKQ.pdb
     RDKit          3D

 27 26  0  0  1  0  0  0  0  0999 V2000
   27.5430  -17.0929  -18.1811 N   0  0  0  0  0  0  0  0  0  0  0  0
   26.2901  -17.3848  -18.8310 C   0  0  1  0  0  0  0  0  0  0  0  0
   26.5957  -17.7890  -20.2604 C   0  0  0  0  0  0  0  0  0  0  0  0
   26.9253  -16.5990  -21.0935 C   0  0  0  0  0  0  0  0  0  0  0  0
   27.3201  -15.5535  -20.5265 O   0  0  0  0  0  0  0  0  0  0  0  0
   25.6436  -18.5297  -18.1664 C   0  0  0  0  0  0  0  0  0  0  0  0
   24.4907  -18.9361  -18.4924 O   0  0  0  0  0  0  0  0  0  0  0  0
   26.8126  -16.6033  -22.4676 O   0  0  0  0  0  0  0  0  0  0  0  0
   26.3084  -19.2075  -17.1353 N   0  0  0  0  0  0  0  0  0  0  0  0
   25.7228  -20.3873  -16.4357 C   0  0  1  0  0  0  0  0  0  0  0  0
   26.8568  -21.1139  -15.8035 C   0  0  0  0  0  0  0  0  0  0  0  0
   27.4643  -22.1447  -16.6630 C   0  0  0  0  0  0  0  0  0  0  0  0
   28.7194  -22.7644  -16.0979 C   0  0  0  0  0  0  0  0  0  0  0  0
   29.3963  -23.7097  -17.0394 C   0  0  0  0  0  0  0  0  0  0  0  0
   30.7143  -24.1022  -16.5930 N   0  0  0  0  0  0  0  0  0  0  0  0
   24.6276  -19.9553  -15.5853 C   0  0  0  0  0  0  0  0  0  0  0  0
   24.8686  -18.9882  -14.7751 O   0  0  0  0  0  0  0  0  0  0  0  0
   19.4076  -17.4169  -16.3106 N   0  0  0  0  0  0  0  0  0  0  0  0
   19.3013  -17.7064  -14.9442 C   0  0  0  0  0  0  0  0  0  0  0  0
   18.3766  -17.2457  -14.2641 O   0  0  0  0  0  0  0  0  0  0  0  0
   20.3069  -18.5863  -14.2583 C   0  0  0  0  0  0  0  0  0  0  0  0
   21.3803  -19.0184  -15.2161 C   0  0  0  0  0  0  0  0  0  0  0  0
   22.3057  -19.9875  -14.5820 C   0  0  2  0  0  0  0  0  0  0  0  0
   23.3179  -20.4572  -15.5322 N   0  0  0  0  0  0  0  0  0  0  0  0
   21.6181  -21.1294  -13.9993 C   0  0  0  0  0  0  0  0  0  0  0  0
   21.6263  -22.2376  -14.6546 O   0  0  0  0  0  0  0  0  0  0  0  0
   20.9466  -21.1208  -12.7735 O   0  0  0  0  0  0  0  0  0  0  0  0
  2  1  1  1
  3  2  1  0
  4  3  1  0
  5  4  2  0
  6  7  2  0
  6  2  1  0
  8  4  1  0
  9  6  1  0
 10 11  1  1
 10  9  1  0
 11 12  1  0
 13 12  1  0
 14 13  1  0
 15 14  1  0
 16 17  2  0
 16 10  1  0
 18 19  1  0
 19 20  2  0
 19 21  1  0
 21 22  1  0
 23 22  1  6
 23 24  1  0
 24 16  1  0
 25 23  1  0
 25 27  1  0
 26 25  2  0
M  END
$$$$
