DKQ.pdb
     RDKit          3D

 27 26  0  0  1  0  0  0  0  0999 V2000
   27.1415  -19.9983  -15.6989 N   0  0  0  0  0  0  0  0  0  0  0  0
   25.8539  -20.3413  -16.2481 C   0  0  1  0  0  0  0  0  0  0  0  0
   25.6605  -21.8350  -16.0709 C   0  0  0  0  0  0  0  0  0  0  0  0
   26.5796  -22.6018  -16.9573 C   0  0  0  0  0  0  0  0  0  0  0  0
   27.3808  -21.9733  -17.6877 O   0  0  0  0  0  0  0  0  0  0  0  0
   24.7940  -19.6554  -15.4885 C   0  0  0  0  0  0  0  0  0  0  0  0
   24.8108  -19.5788  -14.2258 O   0  0  0  0  0  0  0  0  0  0  0  0
   26.5831  -23.9797  -17.0056 O   0  0  0  0  0  0  0  0  0  0  0  0
   23.7209  -19.0601  -16.1654 N   0  0  0  0  0  0  0  0  0  0  0  0
   22.7223  -18.1857  -15.4853 C   0  0  1  0  0  0  0  0  0  0  0  0
   22.5729  -16.9712  -16.3315 C   0  0  0  0  0  0  0  0  0  0  0  0
   21.5871  -16.0016  -15.8232 C   0  0  0  0  0  0  0  0  0  0  0  0
   21.4390  -14.7625  -16.6724 C   0  0  0  0  0  0  0  0  0  0  0  0
   20.4524  -13.7784  -16.1282 C   0  0  0  0  0  0  0  0  0  0  0  0
   20.4810  -12.5099  -16.8214 N   0  0  0  0  0  0  0  0  0  0  0  0
   21.5303  -18.9558  -15.1768 C   0  0  0  0  0  0  0  0  0  0  0  0
   21.0833  -19.7282  -16.1006 O   0  0  0  0  0  0  0  0  0  0  0  0
   18.2633  -23.3548  -12.2597 N   0  0  0  0  0  0  0  0  0  0  0  0
   18.4495  -22.1866  -11.5094 C   0  0  0  0  0  0  0  0  0  0  0  0
   18.8852  -22.2333  -10.3529 O   0  0  0  0  0  0  0  0  0  0  0  0
   18.1263  -20.8371  -12.0842 C   0  0  0  0  0  0  0  0  0  0  0  0
   19.3787  -20.0396  -12.3124 C   0  0  0  0  0  0  0  0  0  0  0  0
   19.6310  -19.8407  -13.7596 C   0  0  2  0  0  0  0  0  0  0  0  0
   20.7914  -18.9739  -13.9836 N   0  0  0  0  0  0  0  0  0  0  0  0
   18.4788  -19.3039  -14.4670 C   0  0  0  0  0  0  0  0  0  0  0  0
   18.3884  -18.0257  -14.5910 O   0  0  0  0  0  0  0  0  0  0  0  0
   17.4552  -20.0710  -15.0303 O   0  0  0  0  0  0  0  0  0  0  0  0
  2  1  1  1
  3  2  1  0
  4  3  1  0
  5  4  2  0
  6  7  2  0
  6  2  1  0
  8  4  1  0
  9  6  1  0
 10 11  1  6
 10  9  1  0
 11 12  1  0
 13 12  1  0
 14 13  1  0
 15 14  1  0
 16 17  2  0
 16 10  1  0
 18 19  1  0
 19 20  2  0
 19 21  1  0
 21 22  1  0
 23 22  1  1
 23 24  1  0
 24 16  1  0
 25 23  1  0
 25 27  1  0
 26 25  2  0
M  END
$$$$
