DKQ.pdb
     RDKit          3D

 27 26  0  0  1  0  0  0  0  0999 V2000
   16.9117   -9.6911  -14.9426 N   0  0  0  0  0  0  0  0  0  0  0  0
   17.2993   -9.6012  -13.5574 C   0  0  1  0  0  0  0  0  0  0  0  0
   18.4343   -8.6000  -13.4606 C   0  0  0  0  0  0  0  0  0  0  0  0
   19.6859   -9.1524  -14.0495 C   0  0  0  0  0  0  0  0  0  0  0  0
   19.6993  -10.3452  -14.4336 O   0  0  0  0  0  0  0  0  0  0  0  0
   16.1723   -9.0845  -12.7614 C   0  0  0  0  0  0  0  0  0  0  0  0
   15.5342   -8.0432  -13.0919 O   0  0  0  0  0  0  0  0  0  0  0  0
   20.8332   -8.4005  -14.1887 O   0  0  0  0  0  0  0  0  0  0  0  0
   15.7750   -9.7519  -11.5948 N   0  0  0  0  0  0  0  0  0  0  0  0
   14.6572   -9.2730  -10.7314 C   0  0  1  0  0  0  0  0  0  0  0  0
   13.8591  -10.4732  -10.3628 C   0  0  0  0  0  0  0  0  0  0  0  0
   12.6910  -10.1812   -9.5138 C   0  0  0  0  0  0  0  0  0  0  0  0
   11.8542  -11.3897   -9.1708 C   0  0  0  0  0  0  0  0  0  0  0  0
   10.6276  -11.0632   -8.3790 C   0  0  0  0  0  0  0  0  0  0  0  0
    9.8353  -12.2299   -8.0607 N   0  0  0  0  0  0  0  0  0  0  0  0
   15.1879   -8.4484   -9.6600 C   0  0  0  0  0  0  0  0  0  0  0  0
   16.4503   -8.5285   -9.4371 O   0  0  0  0  0  0  0  0  0  0  0  0
   16.6699   -3.7893  -11.3259 N   0  0  0  0  0  0  0  0  0  0  0  0
   16.7736   -3.3720   -9.9928 C   0  0  0  0  0  0  0  0  0  0  0  0
   17.3137   -2.2985   -9.7001 O   0  0  0  0  0  0  0  0  0  0  0  0
   16.2324   -4.2142   -8.8731 C   0  0  0  0  0  0  0  0  0  0  0  0
   15.6837   -5.5108   -9.3968 C   0  0  0  0  0  0  0  0  0  0  0  0
   15.0741   -6.3127   -8.3092 C   0  0  2  0  0  0  0  0  0  0  0  0
   14.4965   -7.5572   -8.8248 N   0  0  0  0  0  0  0  0  0  0  0  0
   14.0632   -5.5795   -7.5631 C   0  0  0  0  0  0  0  0  0  0  0  0
   12.8356   -5.6988   -7.9323 O   0  0  0  0  0  0  0  0  0  0  0  0
   14.3194   -4.7518   -6.4664 O   0  0  0  0  0  0  0  0  0  0  0  0
  2  1  1  6
  3  2  1  0
  4  3  1  0
  5  4  2  0
  6  7  2  0
  6  2  1  0
  8  4  1  0
  9  6  1  0
 10 11  1  1
 10  9  1  0
 11 12  1  0
 13 12  1  0
 14 13  1  0
 15 14  1  0
 16 17  2  0
 16 10  1  0
 18 19  1  0
 19 20  2  0
 19 21  1  0
 21 22  1  0
 23 22  1  6
 23 24  1  0
 24 16  1  0
 25 23  1  0
 25 27  1  0
 26 25  2  0
M  END
$$$$
