DKQ.pdb
     RDKit          3D

 27 26  0  0  1  0  0  0  0  0999 V2000
   26.5139  -20.0217  -14.6981 N   0  0  0  0  0  0  0  0  0  0  0  0
   25.4292  -20.0505  -15.6466 C   0  0  1  0  0  0  0  0  0  0  0  0
   25.1491  -21.5027  -15.9823 C   0  0  0  0  0  0  0  0  0  0  0  0
   26.3149  -22.1273  -16.6675 C   0  0  0  0  0  0  0  0  0  0  0  0
   26.7725  -23.2055  -16.2221 O   0  0  0  0  0  0  0  0  0  0  0  0
   24.2163  -19.4881  -15.0275 C   0  0  0  0  0  0  0  0  0  0  0  0
   23.9331  -19.6734  -13.8084 O   0  0  0  0  0  0  0  0  0  0  0  0
   26.9115  -21.5637  -17.7754 O   0  0  0  0  0  0  0  0  0  0  0  0
   23.3311  -18.7185  -15.7946 N   0  0  0  0  0  0  0  0  0  0  0  0
   22.0478  -18.1848  -15.2536 C   0  0  1  0  0  0  0  0  0  0  0  0
   21.6701  -17.0307  -16.1132 C   0  0  0  0  0  0  0  0  0  0  0  0
   22.2802  -15.7529  -15.7064 C   0  0  0  0  0  0  0  0  0  0  0  0
   21.8811  -14.5739  -16.5604 C   0  0  0  0  0  0  0  0  0  0  0  0
   20.4077  -14.3150  -16.5724 C   0  0  0  0  0  0  0  0  0  0  0  0
   20.0542  -13.1038  -17.2783 N   0  0  0  0  0  0  0  0  0  0  0  0
   21.0931  -19.2691  -15.1054 C   0  0  0  0  0  0  0  0  0  0  0  0
   21.3165  -20.3359  -15.7849 O   0  0  0  0  0  0  0  0  0  0  0  0
   21.0853  -23.7430  -14.0602 N   0  0  0  0  0  0  0  0  0  0  0  0
   19.8411  -23.8992  -13.4359 C   0  0  0  0  0  0  0  0  0  0  0  0
   19.3408  -25.0196  -13.2809 O   0  0  0  0  0  0  0  0  0  0  0  0
   19.0720  -22.7109  -12.9334 C   0  0  0  0  0  0  0  0  0  0  0  0
   19.8544  -21.4443  -13.1338 C   0  0  0  0  0  0  0  0  0  0  0  0
   19.1591  -20.5273  -14.0682 C   0  0  2  0  0  0  0  0  0  0  0  0
   19.9427  -19.3110  -14.3024 N   0  0  0  0  0  0  0  0  0  0  0  0
   17.8233  -20.1666  -13.6190 C   0  0  0  0  0  0  0  0  0  0  0  0
   17.6789  -19.0547  -12.9863 O   0  0  0  0  0  0  0  0  0  0  0  0
   16.6740  -20.9351  -13.8238 O   0  0  0  0  0  0  0  0  0  0  0  0
  2  1  1  1
  3  2  1  0
  4  3  1  0
  5  4  2  0
  6  7  2  0
  6  2  1  0
  8  4  1  0
  9  6  1  0
 10 11  1  6
 10  9  1  0
 11 12  1  0
 13 12  1  0
 14 13  1  0
 15 14  1  0
 16 17  2  0
 16 10  1  0
 18 19  1  0
 19 20  2  0
 19 21  1  0
 21 22  1  0
 23 22  1  1
 23 24  1  0
 24 16  1  0
 25 23  1  0
 25 27  1  0
 26 25  2  0
M  END
$$$$
