DKQ.pdb
     RDKit          3D

 27 26  0  0  1  0  0  0  0  0999 V2000
   26.2388  -20.1830  -10.6016 N   0  0  0  0  0  0  0  0  0  0  0  0
   25.1655  -20.9540  -11.1768 C   0  0  1  0  0  0  0  0  0  0  0  0
   23.9306  -20.7318  -10.3250 C   0  0  0  0  0  0  0  0  0  0  0  0
   24.2122  -21.0178   -8.8906 C   0  0  0  0  0  0  0  0  0  0  0  0
   25.3815  -21.3138   -8.5504 O   0  0  0  0  0  0  0  0  0  0  0  0
   24.8735  -20.4590  -12.5334 C   0  0  0  0  0  0  0  0  0  0  0  0
   24.4821  -19.2755  -12.7500 O   0  0  0  0  0  0  0  0  0  0  0  0
   23.2340  -20.9694   -7.9202 O   0  0  0  0  0  0  0  0  0  0  0  0
   25.0268  -21.3091  -13.6370 N   0  0  0  0  0  0  0  0  0  0  0  0
   24.8443  -20.8475  -15.0434 C   0  0  1  0  0  0  0  0  0  0  0  0
   25.9057  -21.5081  -15.8499 C   0  0  0  0  0  0  0  0  0  0  0  0
   25.8729  -21.1660  -17.2825 C   0  0  0  0  0  0  0  0  0  0  0  0
   27.0120  -21.7452  -18.0860 C   0  0  0  0  0  0  0  0  0  0  0  0
   27.0127  -21.3154  -19.5190 C   0  0  0  0  0  0  0  0  0  0  0  0
   28.1598  -21.8019  -20.2525 N   0  0  0  0  0  0  0  0  0  0  0  0
   23.4614  -21.0396  -15.4436 C   0  0  0  0  0  0  0  0  0  0  0  0
   22.7905  -21.9288  -14.8043 O   0  0  0  0  0  0  0  0  0  0  0  0
   20.1065  -18.1398  -12.8099 N   0  0  0  0  0  0  0  0  0  0  0  0
   19.1232  -18.4421  -13.7606 C   0  0  0  0  0  0  0  0  0  0  0  0
   17.9375  -18.1472  -13.5686 O   0  0  0  0  0  0  0  0  0  0  0  0
   19.4753  -19.1347  -15.0460 C   0  0  0  0  0  0  0  0  0  0  0  0
   20.9379  -19.4752  -15.0863 C   0  0  0  0  0  0  0  0  0  0  0  0
   21.3070  -20.1000  -16.3789 C   0  0  2  0  0  0  0  0  0  0  0  0
   22.7460  -20.3696  -16.4483 N   0  0  0  0  0  0  0  0  0  0  0  0
   20.9051  -19.3039  -17.5282 C   0  0  0  0  0  0  0  0  0  0  0  0
   21.8179  -18.6509  -18.1590 O   0  0  0  0  0  0  0  0  0  0  0  0
   19.5973  -19.1930  -18.0086 O   0  0  0  0  0  0  0  0  0  0  0  0
  2  1  1  1
  3  2  1  0
  4  3  1  0
  5  4  2  0
  6  7  2  0
  6  2  1  0
  8  4  1  0
  9  6  1  0
 10 11  1  6
 10  9  1  0
 11 12  1  0
 13 12  1  0
 14 13  1  0
 15 14  1  0
 16 17  2  0
 16 10  1  0
 18 19  1  0
 19 20  2  0
 19 21  1  0
 21 22  1  0
 23 22  1  1
 23 24  1  0
 24 16  1  0
 25 23  1  0
 25 27  1  0
 26 25  2  0
M  END
$$$$
