DKQ.pdb
     RDKit          3D

 27 26  0  0  1  0  0  0  0  0999 V2000
   13.7698  -10.6702  -11.8812 N   0  0  0  0  0  0  0  0  0  0  0  0
   15.1010  -10.4847  -11.3607 C   0  0  1  0  0  0  0  0  0  0  0  0
   16.0676  -11.1553  -12.3177 C   0  0  0  0  0  0  0  0  0  0  0  0
   15.8980  -12.6350  -12.2989 C   0  0  0  0  0  0  0  0  0  0  0  0
   15.8130  -13.2208  -11.1944 O   0  0  0  0  0  0  0  0  0  0  0  0
   15.4227   -9.0472  -11.3275 C   0  0  0  0  0  0  0  0  0  0  0  0
   15.2868   -8.3019  -12.3408 O   0  0  0  0  0  0  0  0  0  0  0  0
   15.8307  -13.3871  -13.4526 O   0  0  0  0  0  0  0  0  0  0  0  0
   15.8967   -8.4630  -10.1451 N   0  0  0  0  0  0  0  0  0  0  0  0
   16.2227   -7.0118  -10.0357 C   0  0  1  0  0  0  0  0  0  0  0  0
   15.8387   -6.5911   -8.6614 C   0  0  0  0  0  0  0  0  0  0  0  0
   14.4005   -6.3173   -8.4962 C   0  0  0  0  0  0  0  0  0  0  0  0
   14.0231   -5.7739   -7.1394 C   0  0  0  0  0  0  0  0  0  0  0  0
   12.5904   -5.3548   -7.0399 C   0  0  0  0  0  0  0  0  0  0  0  0
   12.2350   -4.8708   -5.7247 N   0  0  0  0  0  0  0  0  0  0  0  0
   17.5925   -6.7866  -10.4628 C   0  0  0  0  0  0  0  0  0  0  0  0
   18.5107   -7.4177   -9.8237 O   0  0  0  0  0  0  0  0  0  0  0  0
   22.6273   -8.7095  -14.5162 N   0  0  0  0  0  0  0  0  0  0  0  0
   21.7588   -8.5394  -13.4304 C   0  0  0  0  0  0  0  0  0  0  0  0
   21.3653   -9.5081  -12.7698 O   0  0  0  0  0  0  0  0  0  0  0  0
   21.2757   -7.1743  -13.0313 C   0  0  0  0  0  0  0  0  0  0  0  0
   19.8806   -7.2416  -12.4784 C   0  0  0  0  0  0  0  0  0  0  0  0
   19.4506   -5.9259  -11.9479 C   0  0  2  0  0  0  0  0  0  0  0  0
   18.0555   -5.9624  -11.5003 N   0  0  0  0  0  0  0  0  0  0  0  0
   19.6266   -4.8443  -12.9047 C   0  0  0  0  0  0  0  0  0  0  0  0
   20.8259   -4.5486  -13.2675 O   0  0  0  0  0  0  0  0  0  0  0  0
   18.5893   -4.0965  -13.4689 O   0  0  0  0  0  0  0  0  0  0  0  0
  2  1  1  6
  3  2  1  0
  4  3  1  0
  5  4  2  0
  6  7  2  0
  6  2  1  0
  8  4  1  0
  9  6  1  0
 10 11  1  1
 10  9  1  0
 11 12  1  0
 13 12  1  0
 14 13  1  0
 15 14  1  0
 16 17  2  0
 16 10  1  0
 18 19  1  0
 19 20  2  0
 19 21  1  0
 21 22  1  0
 23 22  1  6
 23 24  1  0
 24 16  1  0
 25 23  1  0
 25 27  1  0
 26 25  2  0
M  END
$$$$
