DKQ.pdb
     RDKit          3D

 27 26  0  0  1  0  0  0  0  0999 V2000
   24.4737  -10.9793  -17.9135 N   0  0  0  0  0  0  0  0  0  0  0  0
   24.0369  -10.8081  -16.5507 C   0  0  1  0  0  0  0  0  0  0  0  0
   25.1006  -10.0089  -15.8229 C   0  0  0  0  0  0  0  0  0  0  0  0
   26.3321  -10.8212  -15.6172 C   0  0  0  0  0  0  0  0  0  0  0  0
   26.3699  -11.9889  -16.0705 O   0  0  0  0  0  0  0  0  0  0  0  0
   22.7887  -10.0257  -16.5265 C   0  0  0  0  0  0  0  0  0  0  0  0
   22.6146   -9.0103  -17.2610 O   0  0  0  0  0  0  0  0  0  0  0  0
   27.4347  -10.3370  -14.9458 O   0  0  0  0  0  0  0  0  0  0  0  0
   21.7448  -10.3992  -15.6693 N   0  0  0  0  0  0  0  0  0  0  0  0
   20.4137   -9.7265  -15.6769 C   0  0  1  0  0  0  0  0  0  0  0  0
   19.4397  -10.7026  -15.1183 C   0  0  0  0  0  0  0  0  0  0  0  0
   18.9900  -11.7220  -16.0823 C   0  0  0  0  0  0  0  0  0  0  0  0
   17.9638  -12.6845  -15.5356 C   0  0  0  0  0  0  0  0  0  0  0  0
   17.5645  -13.7494  -16.5075 C   0  0  0  0  0  0  0  0  0  0  0  0
   16.6050  -14.6816  -15.9592 N   0  0  0  0  0  0  0  0  0  0  0  0
   20.5214   -8.4260  -15.0395 C   0  0  0  0  0  0  0  0  0  0  0  0
   21.1583   -8.3769  -13.9252 O   0  0  0  0  0  0  0  0  0  0  0  0
   23.7013   -3.7824  -15.5410 N   0  0  0  0  0  0  0  0  0  0  0  0
   22.7796   -3.2256  -14.6450 C   0  0  0  0  0  0  0  0  0  0  0  0
   22.9936   -2.1335  -14.1055 O   0  0  0  0  0  0  0  0  0  0  0  0
   21.4998   -3.9363  -14.3090 C   0  0  0  0  0  0  0  0  0  0  0  0
   21.3729   -5.2095  -15.0960 C   0  0  0  0  0  0  0  0  0  0  0  0
   20.1387   -5.9447  -14.7301 C   0  0  2  0  0  0  0  0  0  0  0  0
   20.0191   -7.1941  -15.4869 N   0  0  0  0  0  0  0  0  0  0  0  0
   18.9327   -5.1508  -14.9077 C   0  0  0  0  0  0  0  0  0  0  0  0
   18.0976   -5.5167  -15.8167 O   0  0  0  0  0  0  0  0  0  0  0  0
   18.6036   -4.0152  -14.1623 O   0  0  0  0  0  0  0  0  0  0  0  0
  2  1  1  6
  3  2  1  0
  4  3  1  0
  5  4  2  0
  6  7  2  0
  6  2  1  0
  8  4  1  0
  9  6  1  0
 10 11  1  1
 10  9  1  0
 11 12  1  0
 13 12  1  0
 14 13  1  0
 15 14  1  0
 16 17  2  0
 16 10  1  0
 18 19  1  0
 19 20  2  0
 19 21  1  0
 21 22  1  0
 23 22  1  6
 23 24  1  0
 24 16  1  0
 25 23  1  0
 25 27  1  0
 26 25  2  0
M  END
$$$$
