DKQ.pdb
     RDKit          3D

 27 26  0  0  1  0  0  0  0  0999 V2000
   27.4172  -10.4629  -19.5808 N   0  0  0  0  0  0  0  0  0  0  0  0
   26.9875  -10.2140  -18.2278 C   0  0  1  0  0  0  0  0  0  0  0  0
   27.8741   -9.1248  -17.6558 C   0  0  0  0  0  0  0  0  0  0  0  0
   29.2625   -9.6215  -17.4450 C   0  0  0  0  0  0  0  0  0  0  0  0
   29.5251  -10.8171  -17.7133 O   0  0  0  0  0  0  0  0  0  0  0  0
   25.6023   -9.7120  -18.2338 C   0  0  0  0  0  0  0  0  0  0  0  0
   25.1635   -8.9535  -19.1464 O   0  0  0  0  0  0  0  0  0  0  0  0
   30.2724   -8.8149  -16.9649 O   0  0  0  0  0  0  0  0  0  0  0  0
   24.7223  -10.0731  -17.2045 N   0  0  0  0  0  0  0  0  0  0  0  0
   23.2869   -9.6685  -17.1902 C   0  0  1  0  0  0  0  0  0  0  0  0
   22.5061  -10.8805  -16.8233 C   0  0  0  0  0  0  0  0  0  0  0  0
   21.0497  -10.6643  -16.7703 C   0  0  0  0  0  0  0  0  0  0  0  0
   20.2547  -11.8829  -16.3683 C   0  0  0  0  0  0  0  0  0  0  0  0
   18.7746  -11.6665  -16.3922 C   0  0  0  0  0  0  0  0  0  0  0  0
   18.0257  -12.8570  -16.0574 N   0  0  0  0  0  0  0  0  0  0  0  0
   23.1246   -8.4771  -16.3755 C   0  0  0  0  0  0  0  0  0  0  0  0
   23.6631   -8.4938  -15.2096 O   0  0  0  0  0  0  0  0  0  0  0  0
   21.9977   -2.4584  -17.9005 N   0  0  0  0  0  0  0  0  0  0  0  0
   22.9117   -2.5252  -16.8411 C   0  0  0  0  0  0  0  0  0  0  0  0
   23.5798   -1.5380  -16.5112 O   0  0  0  0  0  0  0  0  0  0  0  0
   23.1116   -3.7983  -16.0696 C   0  0  0  0  0  0  0  0  0  0  0  0
   22.1847   -4.8729  -16.5623 C   0  0  0  0  0  0  0  0  0  0  0  0
   22.3714   -6.1315  -15.8016 C   0  0  2  0  0  0  0  0  0  0  0  0
   22.4517   -7.2884  -16.6979 N   0  0  0  0  0  0  0  0  0  0  0  0
   21.3296   -6.3546  -14.8111 C   0  0  0  0  0  0  0  0  0  0  0  0
   20.3510   -7.1286  -15.1283 O   0  0  0  0  0  0  0  0  0  0  0  0
   21.3074   -5.7941  -13.5309 O   0  0  0  0  0  0  0  0  0  0  0  0
  2  1  1  6
  3  2  1  0
  4  3  1  0
  5  4  2  0
  6  7  2  0
  6  2  1  0
  8  4  1  0
  9  6  1  0
 10 11  1  1
 10  9  1  0
 11 12  1  0
 13 12  1  0
 14 13  1  0
 15 14  1  0
 16 17  2  0
 16 10  1  0
 18 19  1  0
 19 20  2  0
 19 21  1  0
 21 22  1  0
 23 22  1  6
 23 24  1  0
 24 16  1  0
 25 23  1  0
 25 27  1  0
 26 25  2  0
M  END
$$$$
