CSG.pdb
     RDKit          3D

 17 16  0  0  1  0  0  0  0  0999 V2000
   -1.5340  -24.1261   22.4086 N   0  0  0  0  0  0  0  0  0  0  0  0
   -2.1317  -24.6732   23.5851 C   0  0  1  0  0  0  0  0  0  0  0  0
   -1.0799  -25.3782   24.4138 C   0  0  0  0  0  0  0  0  0  0  0  0
   -0.3918  -26.8066   23.5341 S   0  0  0  0  0  0  0  0  0  0  0  0
   -2.8534  -23.6449   24.3897 C   0  0  0  0  0  0  0  0  0  0  0  0
   -2.3992  -22.4783   24.5062 O   0  0  0  0  0  0  0  0  0  0  0  0
   -5.9740  -20.8496   25.5211 O   0  0  0  0  0  0  0  0  0  0  0  0
   -5.2565  -21.7793   24.7797 C   0  0  0  0  0  0  0  0  0  0  0  0
   -4.8600  -22.9219   25.7198 C   0  0  2  0  0  0  0  0  0  0  0  0
   -4.0789  -23.9187   25.0622 N   0  0  0  0  0  0  0  0  0  0  0  0
   -6.0699  -23.4831   26.3859 C   0  0  0  0  0  0  0  0  0  0  0  0
   -6.7402  -24.3959   25.8374 O   0  0  0  0  0  0  0  0  0  0  0  0
   -6.5309  -23.0322   27.6535 N   0  0  0  0  0  0  0  0  0  0  0  0
   -7.7172  -23.5919   28.2732 C   0  0  0  0  0  0  0  0  0  0  0  0
   -7.9662  -23.0786   29.6152 C   0  0  0  0  0  0  0  0  0  0  0  0
   -7.1226  -22.2884   30.1117 O   0  0  0  0  0  0  0  0  0  0  0  0
   -9.0644  -23.3919   30.3952 O   0  0  0  0  0  0  0  0  0  0  0  0
  2  1  1  6
  2  3  1  0
  4  3  1  0
  5  2  1  0
  6  5  2  0
  8  7  1  0
  9  8  1  6
  9 10  1  0
 10  5  1  0
 11  9  1  0
 11 13  1  0
 12 11  2  0
 14 13  1  0
 14 15  1  0
 15 17  1  0
 16 15  2  0
M  END
$$$$
