CSG.pdb
     RDKit          3D

 17 16  0  0  1  0  0  0  0  0999 V2000
    7.0143  -15.1809   18.3289 N   0  0  0  0  0  0  0  0  0  0  0  0
    8.2084  -14.6593   18.9145 C   0  0  1  0  0  0  0  0  0  0  0  0
    8.0431  -13.1795   19.1836 C   0  0  0  0  0  0  0  0  0  0  0  0
    7.8494  -12.2439   17.6425 S   0  0  0  0  0  0  0  0  0  0  0  0
    8.6047  -15.3923   20.1519 C   0  0  0  0  0  0  0  0  0  0  0  0
    7.7407  -15.9305   20.8900 O   0  0  0  0  0  0  0  0  0  0  0  0
   10.7172  -18.2620   20.2427 O   0  0  0  0  0  0  0  0  0  0  0  0
   10.0268  -17.8445   21.3730 C   0  0  0  0  0  0  0  0  0  0  0  0
   10.3868  -16.3771   21.6257 C   0  0  2  0  0  0  0  0  0  0  0  0
    9.9619  -15.5240   20.5638 N   0  0  0  0  0  0  0  0  0  0  0  0
   11.8422  -16.2484   21.9222 C   0  0  0  0  0  0  0  0  0  0  0  0
   12.6510  -15.8898   21.0275 O   0  0  0  0  0  0  0  0  0  0  0  0
   12.3941  -16.5168   23.2052 N   0  0  0  0  0  0  0  0  0  0  0  0
   13.8156  -16.3846   23.4633 C   0  0  0  0  0  0  0  0  0  0  0  0
   14.1750  -16.6177   24.8571 C   0  0  0  0  0  0  0  0  0  0  0  0
   13.2444  -16.7655   25.6907 O   0  0  0  0  0  0  0  0  0  0  0  0
   15.4676  -16.6904   25.3434 O   0  0  0  0  0  0  0  0  0  0  0  0
  2  1  1  1
  2  3  1  0
  4  3  1  0
  5  2  1  0
  6  5  2  0
  8  7  1  0
  9  8  1  6
  9 10  1  0
 10  5  1  0
 11  9  1  0
 11 13  1  0
 12 11  2  0
 14 13  1  0
 14 15  1  0
 15 17  1  0
 16 15  2  0
M  END
$$$$
