CSG.pdb
     RDKit          3D

 17 16  0  0  1  0  0  0  0  0999 V2000
   10.3273  -19.1203   20.5338 N   0  0  0  0  0  0  0  0  0  0  0  0
   10.9137  -18.0003   19.8686 C   0  0  1  0  0  0  0  0  0  0  0  0
    9.9917  -17.5159   18.7708 C   0  0  0  0  0  0  0  0  0  0  0  0
    8.9335  -18.8541   18.1565 S   0  0  0  0  0  0  0  0  0  0  0  0
   11.2609  -16.8954   20.8090 C   0  0  0  0  0  0  0  0  0  0  0  0
   11.8310  -15.8523   20.3996 O   0  0  0  0  0  0  0  0  0  0  0  0
    9.9261  -16.8588   24.8016 O   0  0  0  0  0  0  0  0  0  0  0  0
   10.1601  -15.6652   24.1312 C   0  0  0  0  0  0  0  0  0  0  0  0
   11.2853  -15.9089   23.1208 C   0  0  2  0  0  0  0  0  0  0  0  0
   10.9722  -16.9554   22.2026 N   0  0  0  0  0  0  0  0  0  0  0  0
   12.5760  -16.1326   23.8324 C   0  0  0  0  0  0  0  0  0  0  0  0
   13.0062  -15.2907   24.6627 O   0  0  0  0  0  0  0  0  0  0  0  0
   13.3826  -17.2849   23.6220 N   0  0  0  0  0  0  0  0  0  0  0  0
   14.5339  -17.5690   24.4578 C   0  0  0  0  0  0  0  0  0  0  0  0
   15.8031  -17.2096   23.8364 C   0  0  0  0  0  0  0  0  0  0  0  0
   15.9541  -16.0241   23.4434 O   0  0  0  0  0  0  0  0  0  0  0  0
   16.8656  -18.0731   23.6414 O   0  0  0  0  0  0  0  0  0  0  0  0
  2  1  1  1
  2  3  1  0
  4  3  1  0
  5  2  1  0
  6  5  2  0
  8  7  1  0
  9  8  1  1
  9 10  1  0
 10  5  1  0
 11  9  1  0
 11 13  1  0
 12 11  2  0
 14 13  1  0
 14 15  1  0
 15 17  1  0
 16 15  2  0
M  END
$$$$
