CSG.pdb
     RDKit          3D

 17 16  0  0  1  0  0  0  0  0999 V2000
   -1.5748  -26.5582   28.5559 N   0  0  0  0  0  0  0  0  0  0  0  0
   -2.4947  -25.7898   27.7786 C   0  0  1  0  0  0  0  0  0  0  0  0
   -3.1767  -26.6807   26.7632 C   0  0  0  0  0  0  0  0  0  0  0  0
   -2.0127  -27.2513   25.4954 S   0  0  0  0  0  0  0  0  0  0  0  0
   -3.4926  -25.0699   28.6220 C   0  0  0  0  0  0  0  0  0  0  0  0
   -4.0206  -25.6272   29.6178 O   0  0  0  0  0  0  0  0  0  0  0  0
   -5.7161  -20.9642   29.8576 O   0  0  0  0  0  0  0  0  0  0  0  0
   -4.7412  -21.5268   29.0440 C   0  0  0  0  0  0  0  0  0  0  0  0
   -4.9095  -23.0485   29.0961 C   0  0  2  0  0  0  0  0  0  0  0  0
   -3.8997  -23.7313   28.3543 N   0  0  0  0  0  0  0  0  0  0  0  0
   -6.2891  -23.4280   28.6776 C   0  0  0  0  0  0  0  0  0  0  0  0
   -6.5834  -23.5386   27.4592 O   0  0  0  0  0  0  0  0  0  0  0  0
   -7.3342  -23.6827   29.6080 N   0  0  0  0  0  0  0  0  0  0  0  0
   -8.6876  -23.9681   29.1705 C   0  0  0  0  0  0  0  0  0  0  0  0
   -9.4480  -22.7732   28.8238 C   0  0  0  0  0  0  0  0  0  0  0  0
  -10.6296  -22.9215   28.4182 O   0  0  0  0  0  0  0  0  0  0  0  0
   -8.9728  -21.4770   28.9047 O   0  0  0  0  0  0  0  0  0  0  0  0
  2  1  1  1
  2  3  1  0
  4  3  1  0
  5  2  1  0
  6  5  2  0
  8  7  1  0
  9  8  1  6
  9 10  1  0
 10  5  1  0
 11  9  1  0
 11 13  1  0
 12 11  2  0
 14 13  1  0
 14 15  1  0
 15 17  1  0
 16 15  2  0
M  END
$$$$
