CSG.pdb
     RDKit          3D

 17 16  0  0  1  0  0  0  0  0999 V2000
    8.2777  -18.9533   19.0737 N   0  0  0  0  0  0  0  0  0  0  0  0
    9.5604  -18.3251   19.0412 C   0  0  1  0  0  0  0  0  0  0  0  0
    9.9146  -17.9568   17.6169 C   0  0  0  0  0  0  0  0  0  0  0  0
    8.7602  -16.7314   16.9432 S   0  0  0  0  0  0  0  0  0  0  0  0
    9.6375  -17.1378   19.9412 C   0  0  0  0  0  0  0  0  0  0  0  0
   10.7374  -16.5775   20.1805 O   0  0  0  0  0  0  0  0  0  0  0  0
    6.1932  -15.3505   21.6770 O   0  0  0  0  0  0  0  0  0  0  0  0
    7.3021  -14.5758   21.3626 C   0  0  0  0  0  0  0  0  0  0  0  0
    8.5421  -15.4689   21.4685 C   0  0  2  0  0  0  0  0  0  0  0  0
    8.4897  -16.5779   20.5721 N   0  0  0  0  0  0  0  0  0  0  0  0
    8.7593  -15.8812   22.8846 C   0  0  0  0  0  0  0  0  0  0  0  0
    8.2875  -16.9642   23.3181 O   0  0  0  0  0  0  0  0  0  0  0  0
    9.4964  -15.0944   23.8121 N   0  0  0  0  0  0  0  0  0  0  0  0
    9.6477  -15.4967   25.1977 C   0  0  0  0  0  0  0  0  0  0  0  0
   10.8489  -16.2860   25.4434 C   0  0  0  0  0  0  0  0  0  0  0  0
   11.5223  -16.6625   24.4497 O   0  0  0  0  0  0  0  0  0  0  0  0
   11.3138  -16.6589   26.6913 O   0  0  0  0  0  0  0  0  0  0  0  0
  2  1  1  6
  2  3  1  0
  4  3  1  0
  5  2  1  0
  6  5  2  0
  8  7  1  0
  9  8  1  1
  9 10  1  0
 10  5  1  0
 11  9  1  0
 11 13  1  0
 12 11  2  0
 14 13  1  0
 14 15  1  0
 15 17  1  0
 16 15  2  0
M  END
$$$$
