CSG.pdb
     RDKit          3D

 17 16  0  0  1  0  0  0  0  0999 V2000
    9.4915  -15.2535   14.3814 N   0  0  0  0  0  0  0  0  0  0  0  0
   10.1596  -15.7642   15.5363 C   0  0  1  0  0  0  0  0  0  0  0  0
   11.6576  -15.6543   15.3523 C   0  0  0  0  0  0  0  0  0  0  0  0
   12.3481  -17.1660   14.6271 S   0  0  0  0  0  0  0  0  0  0  0  0
    9.7193  -15.0931   16.7939 C   0  0  0  0  0  0  0  0  0  0  0  0
    9.3592  -13.8885   16.7927 O   0  0  0  0  0  0  0  0  0  0  0  0
    8.7012  -17.3172   20.1426 O   0  0  0  0  0  0  0  0  0  0  0  0
    8.1163  -16.0776   19.9191 C   0  0  0  0  0  0  0  0  0  0  0  0
    9.1597  -15.1830   19.2427 C   0  0  2  0  0  0  0  0  0  0  0  0
    9.6814  -15.7655   18.0491 N   0  0  0  0  0  0  0  0  0  0  0  0
   10.2253  -14.8095   20.2161 C   0  0  0  0  0  0  0  0  0  0  0  0
    9.9300  -14.2979   21.3272 O   0  0  0  0  0  0  0  0  0  0  0  0
   11.6099  -15.0036   19.9553 N   0  0  0  0  0  0  0  0  0  0  0  0
   12.6177  -14.7334   20.9633 C   0  0  0  0  0  0  0  0  0  0  0  0
   13.9815  -14.9260   20.4844 C   0  0  0  0  0  0  0  0  0  0  0  0
   14.1427  -15.3008   19.2944 O   0  0  0  0  0  0  0  0  0  0  0  0
   15.1241  -14.7286   21.2381 O   0  0  0  0  0  0  0  0  0  0  0  0
  2  1  1  6
  2  3  1  0
  4  3  1  0
  5  2  1  0
  6  5  2  0
  8  7  1  0
  9  8  1  1
  9 10  1  0
 10  5  1  0
 11  9  1  0
 11 13  1  0
 12 11  2  0
 14 13  1  0
 14 15  1  0
 15 17  1  0
 16 15  2  0
M  END
$$$$
