CSG.pdb
     RDKit          3D

 17 16  0  0  1  0  0  0  0  0999 V2000
  -12.1435  -17.3830   20.9521 N   0  0  0  0  0  0  0  0  0  0  0  0
  -10.8620  -17.8052   21.4214 C   0  0  1  0  0  0  0  0  0  0  0  0
  -10.1774  -16.6626   22.1396 C   0  0  0  0  0  0  0  0  0  0  0  0
   -9.4184  -15.5046   20.9688 S   0  0  0  0  0  0  0  0  0  0  0  0
  -10.9420  -19.0170   22.2877 C   0  0  0  0  0  0  0  0  0  0  0  0
  -11.8279  -19.1218   23.1737 O   0  0  0  0  0  0  0  0  0  0  0  0
   -9.7139  -23.6103   23.0756 O   0  0  0  0  0  0  0  0  0  0  0  0
   -9.4537  -22.4940   22.2915 C   0  0  0  0  0  0  0  0  0  0  0  0
  -10.0969  -21.2827   22.9737 C   0  0  2  0  0  0  0  0  0  0  0  0
  -10.0354  -20.1088   22.1648 N   0  0  0  0  0  0  0  0  0  0  0  0
   -9.5071  -21.0820   24.3281 C   0  0  0  0  0  0  0  0  0  0  0  0
   -8.4477  -20.4194   24.4757 O   0  0  0  0  0  0  0  0  0  0  0  0
  -10.0918  -21.6146   25.5101 N   0  0  0  0  0  0  0  0  0  0  0  0
   -9.5159  -21.3701   26.8189 C   0  0  0  0  0  0  0  0  0  0  0  0
  -10.2563  -22.0023   27.9045 C   0  0  0  0  0  0  0  0  0  0  0  0
  -11.2921  -22.6538   27.6124 O   0  0  0  0  0  0  0  0  0  0  0  0
   -9.9105  -21.9442   29.2422 O   0  0  0  0  0  0  0  0  0  0  0  0
  2  1  1  1
  2  3  1  0
  4  3  1  0
  5  2  1  0
  6  5  2  0
  8  7  1  0
  9  8  1  6
  9 10  1  0
 10  5  1  0
 11  9  1  0
 11 13  1  0
 12 11  2  0
 14 13  1  0
 14 15  1  0
 15 17  1  0
 16 15  2  0
M  END
$$$$
