CSG.pdb
     RDKit          3D

 17 16  0  0  1  0  0  0  0  0999 V2000
    8.0106  -12.9393   17.5190 N   0  0  0  0  0  0  0  0  0  0  0  0
    7.9842  -14.1610   18.2590 C   0  0  1  0  0  0  0  0  0  0  0  0
    8.6494  -15.2595   17.4586 C   0  0  0  0  0  0  0  0  0  0  0  0
    8.6910  -16.8193   18.3822 S   0  0  0  0  0  0  0  0  0  0  0  0
    8.6050  -14.0244   19.6086 C   0  0  0  0  0  0  0  0  0  0  0  0
    9.6879  -13.4045   19.7631 O   0  0  0  0  0  0  0  0  0  0  0  0
    6.4672  -15.0943   22.7353 O   0  0  0  0  0  0  0  0  0  0  0  0
    7.6910  -14.6490   23.2179 C   0  0  0  0  0  0  0  0  0  0  0  0
    8.6779  -14.6326   22.0464 C   0  0  2  0  0  0  0  0  0  0  0  0
    8.0182  -14.5786   20.7823 N   0  0  0  0  0  0  0  0  0  0  0  0
    9.6241  -15.7796   22.1550 C   0  0  0  0  0  0  0  0  0  0  0  0
    9.2328  -16.9572   21.9465 O   0  0  0  0  0  0  0  0  0  0  0  0
   10.9959  -15.6178   22.4933 N   0  0  0  0  0  0  0  0  0  0  0  0
   11.8677  -16.7593   22.6969 C   0  0  0  0  0  0  0  0  0  0  0  0
   13.2429  -16.3889   23.0099 C   0  0  0  0  0  0  0  0  0  0  0  0
   13.5472  -15.1686   22.9825 O   0  0  0  0  0  0  0  0  0  0  0  0
   14.2507  -17.2775   23.3378 O   0  0  0  0  0  0  0  0  0  0  0  0
  2  1  1  6
  2  3  1  0
  4  3  1  0
  5  2  1  0
  6  5  2  0
  8  7  1  0
  9  8  1  1
  9 10  1  0
 10  5  1  0
 11  9  1  0
 11 13  1  0
 12 11  2  0
 14 13  1  0
 14 15  1  0
 15 17  1  0
 16 15  2  0
M  END
$$$$
