CSG.pdb
     RDKit          3D

 17 16  0  0  1  0  0  0  0  0999 V2000
   10.8957  -17.6329   17.6088 N   0  0  0  0  0  0  0  0  0  0  0  0
    9.7836  -17.6953   18.5033 C   0  0  1  0  0  0  0  0  0  0  0  0
    9.5792  -19.1207   18.9683 C   0  0  0  0  0  0  0  0  0  0  0  0
    9.4343  -20.2604   17.5654 S   0  0  0  0  0  0  0  0  0  0  0  0
    9.9290  -16.7652   19.6606 C   0  0  0  0  0  0  0  0  0  0  0  0
   11.0647  -16.4469   20.0964 O   0  0  0  0  0  0  0  0  0  0  0  0
    6.5910  -15.1449   21.7850 O   0  0  0  0  0  0  0  0  0  0  0  0
    7.7180  -14.3651   21.5599 C   0  0  0  0  0  0  0  0  0  0  0  0
    8.9215  -15.3054   21.4416 C   0  0  2  0  0  0  0  0  0  0  0  0
    8.8094  -16.1923   20.3294 N   0  0  0  0  0  0  0  0  0  0  0  0
    9.1435  -16.0211   22.7304 C   0  0  0  0  0  0  0  0  0  0  0  0
    8.7483  -17.2058   22.8839 O   0  0  0  0  0  0  0  0  0  0  0  0
    9.8007  -15.4231   23.8409 N   0  0  0  0  0  0  0  0  0  0  0  0
   11.2366  -15.2160   23.8523 C   0  0  0  0  0  0  0  0  0  0  0  0
   11.9909  -16.4114   24.2108 C   0  0  0  0  0  0  0  0  0  0  0  0
   13.2235  -16.2886   24.4308 O   0  0  0  0  0  0  0  0  0  0  0  0
   11.4579  -17.6819   24.3300 O   0  0  0  0  0  0  0  0  0  0  0  0
  2  1  1  6
  2  3  1  0
  4  3  1  0
  5  2  1  0
  6  5  2  0
  8  7  1  0
  9  8  1  1
  9 10  1  0
 10  5  1  0
 11  9  1  0
 11 13  1  0
 12 11  2  0
 14 13  1  0
 14 15  1  0
 15 17  1  0
 16 15  2  0
M  END
$$$$
