CSG.pdb
     RDKit          3D

 17 16  0  0  1  0  0  0  0  0999 V2000
   -2.1156  -24.2865   24.7217 N   0  0  0  0  0  0  0  0  0  0  0  0
   -2.8194  -23.2976   25.4751 C   0  0  1  0  0  0  0  0  0  0  0  0
   -3.3553  -22.2306   24.5455 C   0  0  0  0  0  0  0  0  0  0  0  0
   -2.0666  -21.0373   24.0946 S   0  0  0  0  0  0  0  0  0  0  0  0
   -3.9084  -23.8836   26.3094 C   0  0  0  0  0  0  0  0  0  0  0  0
   -4.5467  -24.8955   25.9228 O   0  0  0  0  0  0  0  0  0  0  0  0
   -5.8243  -25.4457   30.1044 O   0  0  0  0  0  0  0  0  0  0  0  0
   -4.7499  -24.9100   29.4062 C   0  0  0  0  0  0  0  0  0  0  0  0
   -5.3043  -23.8970   28.3998 C   0  0  2  0  0  0  0  0  0  0  0  0
   -4.2836  -23.3410   27.5719 N   0  0  0  0  0  0  0  0  0  0  0  0
   -6.1053  -22.8565   29.1056 C   0  0  0  0  0  0  0  0  0  0  0  0
   -5.5761  -21.7737   29.4672 O   0  0  0  0  0  0  0  0  0  0  0  0
   -7.4856  -23.0194   29.4072 N   0  0  0  0  0  0  0  0  0  0  0  0
   -8.2139  -22.0361   30.1866 C   0  0  0  0  0  0  0  0  0  0  0  0
   -9.6354  -22.3355   30.3134 C   0  0  0  0  0  0  0  0  0  0  0  0
  -10.0797  -23.3543   29.7242 O   0  0  0  0  0  0  0  0  0  0  0  0
  -10.5448  -21.5842   31.0353 O   0  0  0  0  0  0  0  0  0  0  0  0
  2  1  1  6
  2  3  1  0
  4  3  1  0
  5  2  1  0
  6  5  2  0
  8  7  1  0
  9  8  1  1
  9 10  1  0
 10  5  1  0
 11  9  1  0
 11 13  1  0
 12 11  2  0
 14 13  1  0
 14 15  1  0
 15 17  1  0
 16 15  2  0
M  END
$$$$
