CSG.pdb
     RDKit          3D

 17 16  0  0  1  0  0  0  0  0999 V2000
    5.6861  -19.6651   21.9615 N   0  0  0  0  0  0  0  0  0  0  0  0
    6.1305  -18.8447   23.0433 C   0  0  1  0  0  0  0  0  0  0  0  0
    6.6789  -19.7139   24.1539 C   0  0  0  0  0  0  0  0  0  0  0  0
    7.0968  -18.7308   25.6190 S   0  0  0  0  0  0  0  0  0  0  0  0
    7.1298  -17.8242   22.6126 C   0  0  0  0  0  0  0  0  0  0  0  0
    8.0314  -18.1105   21.7843 O   0  0  0  0  0  0  0  0  0  0  0  0
    7.1675  -13.8263   24.1243 O   0  0  0  0  0  0  0  0  0  0  0  0
    7.5892  -14.0901   22.8276 C   0  0  0  0  0  0  0  0  0  0  0  0
    8.1272  -15.5240   22.7933 C   0  0  2  0  0  0  0  0  0  0  0  0
    7.1223  -16.4877   23.1056 N   0  0  0  0  0  0  0  0  0  0  0  0
    9.3311  -15.6426   23.6644 C   0  0  0  0  0  0  0  0  0  0  0  0
    9.2203  -15.9829   24.8707 O   0  0  0  0  0  0  0  0  0  0  0  0
   10.6492  -15.3843   23.1969 N   0  0  0  0  0  0  0  0  0  0  0  0
   11.7978  -15.4666   24.0794 C   0  0  0  0  0  0  0  0  0  0  0  0
   12.8267  -16.3852   23.6062 C   0  0  0  0  0  0  0  0  0  0  0  0
   12.5231  -17.5997   23.4822 O   0  0  0  0  0  0  0  0  0  0  0  0
   14.1220  -16.0279   23.2791 O   0  0  0  0  0  0  0  0  0  0  0  0
  2  1  1  6
  2  3  1  0
  4  3  1  0
  5  2  1  0
  6  5  2  0
  8  7  1  0
  9  8  1  1
  9 10  1  0
 10  5  1  0
 11  9  1  0
 11 13  1  0
 12 11  2  0
 14 13  1  0
 14 15  1  0
 15 17  1  0
 16 15  2  0
M  END
$$$$
