YCG.pdb
     RDKit          3D

 23 23  0  0  1  0  0  0  0  0999 V2000
   29.5081  -29.6589  -19.4137 O   0  0  0  0  0  0  0  0  0  0  0  0
   28.9000  -28.6960  -18.5902 C   0  0  0  0  0  0  0  0  0  0  0  0
   27.7205  -28.0976  -18.9852 C   0  0  0  0  0  0  0  0  0  0  0  0
   27.1185  -27.1545  -18.1858 C   0  0  0  0  0  0  0  0  0  0  0  0
   27.6740  -26.7864  -16.9795 C   0  0  0  0  0  0  0  0  0  0  0  0
   27.0234  -25.7634  -16.1096 C   0  0  0  0  0  0  0  0  0  0  0  0
   27.3738  -24.3513  -16.5543 C   0  0  2  0  0  0  0  0  0  0  0  0
   28.7747  -24.0896  -16.4705 N   0  0  0  0  0  0  0  0  0  0  0  0
   26.5544  -23.4299  -15.7337 C   0  0  0  0  0  0  0  0  0  0  0  0
   27.1211  -22.6787  -14.9126 O   0  0  0  0  0  0  0  0  0  0  0  0
   28.8528  -27.3982  -16.6060 C   0  0  0  0  0  0  0  0  0  0  0  0
   29.4765  -28.3448  -17.3865 C   0  0  0  0  0  0  0  0  0  0  0  0
   25.1331  -23.3492  -15.8283 N   0  0  0  0  0  0  0  0  0  0  0  0
   24.3605  -22.3542  -15.1522 C   0  0  1  0  0  0  0  0  0  0  0  0
   24.7034  -20.9435  -15.5791 C   0  0  0  0  0  0  0  0  0  0  0  0
   23.9748  -19.7168  -14.4668 S   0  0  0  0  0  0  0  0  0  0  0  0
   22.9228  -22.5528  -15.4395 C   0  0  0  0  0  0  0  0  0  0  0  0
   22.5265  -22.3869  -16.6162 O   0  0  0  0  0  0  0  0  0  0  0  0
   21.9742  -22.9203  -14.4533 N   0  0  0  0  0  0  0  0  0  0  0  0
   21.3344  -21.8854  -13.6661 C   0  0  0  0  0  0  0  0  0  0  0  0
   20.1031  -21.4262  -14.3541 C   0  0  0  0  0  0  0  0  0  0  0  0
   20.0403  -21.2950  -15.6030 O   0  0  0  0  0  0  0  0  0  0  0  0
   19.0025  -21.1436  -13.5286 O   0  0  0  0  0  0  0  0  0  0  0  0
  1  2  1  0
  2 12  2  0
  3  4  2  0
  3  2  1  0
  4  5  1  0
  5  6  1  0
  5 11  2  0
  6  7  1  0
  7  9  1  0
  7  8  1  1
  9 13  1  0
 10  9  2  0
 12 11  1  0
 13 14  1  0
 14 15  1  6
 14 17  1  0
 16 15  1  0
 17 18  2  0
 17 19  1  0
 19 20  1  0
 21 20  1  0
 21 23  1  0
 22 21  2  0
M  END
$$$$
