YCG.pdb
     RDKit          3D

 23 23  0  0  1  0  0  0  0  0999 V2000
   28.8654  -19.0612   -5.6119 O   0  0  0  0  0  0  0  0  0  0  0  0
   28.3929  -19.4419   -6.8795 C   0  0  0  0  0  0  0  0  0  0  0  0
   29.0006  -20.4786   -7.5586 C   0  0  0  0  0  0  0  0  0  0  0  0
   28.5449  -20.8577   -8.7993 C   0  0  0  0  0  0  0  0  0  0  0  0
   27.4780  -20.2166   -9.3908 C   0  0  0  0  0  0  0  0  0  0  0  0
   26.9809  -20.6255  -10.7371 C   0  0  0  0  0  0  0  0  0  0  0  0
   25.5629  -21.1719  -10.6639 C   0  0  2  0  0  0  0  0  0  0  0  0
   25.4816  -22.3623   -9.8800 N   0  0  0  0  0  0  0  0  0  0  0  0
   25.1041  -21.3559  -12.0601 C   0  0  0  0  0  0  0  0  0  0  0  0
   25.6987  -22.1734  -12.7935 O   0  0  0  0  0  0  0  0  0  0  0  0
   26.8869  -19.1836   -8.6931 C   0  0  0  0  0  0  0  0  0  0  0  0
   27.3226  -18.7837   -7.4503 C   0  0  0  0  0  0  0  0  0  0  0  0
   24.0051  -20.6425  -12.6248 N   0  0  0  0  0  0  0  0  0  0  0  0
   23.4284  -20.9710  -13.8911 C   0  0  1  0  0  0  0  0  0  0  0  0
   21.9667  -21.3516  -13.7979 C   0  0  0  0  0  0  0  0  0  0  0  0
   21.5091  -21.8246  -12.1128 S   0  0  0  0  0  0  0  0  0  0  0  0
   23.5123  -19.8062  -14.7993 C   0  0  0  0  0  0  0  0  0  0  0  0
   23.2592  -18.6721  -14.3312 O   0  0  0  0  0  0  0  0  0  0  0  0
   23.8635  -19.9084  -16.1680 N   0  0  0  0  0  0  0  0  0  0  0  0
   24.0159  -18.6992  -16.9521 C   0  0  0  0  0  0  0  0  0  0  0  0
   22.7381  -18.3859  -17.6372 C   0  0  0  0  0  0  0  0  0  0  0  0
   22.6634  -17.5432  -18.5675 O   0  0  0  0  0  0  0  0  0  0  0  0
   21.6073  -19.0868  -17.1871 O   0  0  0  0  0  0  0  0  0  0  0  0
  1  2  1  0
  2 12  2  0
  3  4  2  0
  3  2  1  0
  4  5  1  0
  5  6  1  0
  5 11  2  0
  6  7  1  0
  7  9  1  0
  7  8  1  1
  9 13  1  0
 10  9  2  0
 12 11  1  0
 13 14  1  0
 14 15  1  1
 14 17  1  0
 16 15  1  0
 17 18  2  0
 17 19  1  0
 19 20  1  0
 21 20  1  0
 21 23  1  0
 22 21  2  0
M  END
$$$$
