YCG.pdb
     RDKit          3D

 23 23  0  0  1  0  0  0  0  0999 V2000
   35.6064   -8.1693   -6.3309 O   0  0  0  0  0  0  0  0  0  0  0  0
   36.8971   -8.5681   -6.7183 C   0  0  0  0  0  0  0  0  0  0  0  0
   37.3226   -9.8580   -6.4725 C   0  0  0  0  0  0  0  0  0  0  0  0
   38.5838  -10.2567   -6.8481 C   0  0  0  0  0  0  0  0  0  0  0  0
   39.4476   -9.3847   -7.4746 C   0  0  0  0  0  0  0  0  0  0  0  0
   40.8169   -9.8141   -7.8836 C   0  0  0  0  0  0  0  0  0  0  0  0
   41.5587  -10.4772   -6.7326 C   0  0  2  0  0  0  0  0  0  0  0  0
   41.4478   -9.7347   -5.5183 N   0  0  0  0  0  0  0  0  0  0  0  0
   42.9581  -10.6662   -7.1795 C   0  0  0  0  0  0  0  0  0  0  0  0
   43.1780  -11.2459   -8.2635 O   0  0  0  0  0  0  0  0  0  0  0  0
   39.0001   -8.1010   -7.7097 C   0  0  0  0  0  0  0  0  0  0  0  0
   37.7432   -7.6755   -7.3444 C   0  0  0  0  0  0  0  0  0  0  0  0
   44.0873  -10.2174   -6.4318 N   0  0  0  0  0  0  0  0  0  0  0  0
   45.4369  -10.4168   -6.8596 C   0  0  1  0  0  0  0  0  0  0  0  0
   45.9026   -9.3815   -7.8602 C   0  0  0  0  0  0  0  0  0  0  0  0
   45.0640   -9.5709   -9.4519 S   0  0  0  0  0  0  0  0  0  0  0  0
   46.3500  -10.3339   -5.6986 C   0  0  0  0  0  0  0  0  0  0  0  0
   46.0366   -9.5746   -4.7529 O   0  0  0  0  0  0  0  0  0  0  0  0
   47.5579  -11.0682   -5.6027 N   0  0  0  0  0  0  0  0  0  0  0  0
   48.3203  -11.0193   -4.3712 C   0  0  0  0  0  0  0  0  0  0  0  0
   48.8726   -9.6557   -4.1816 C   0  0  0  0  0  0  0  0  0  0  0  0
   49.1945   -8.9204   -5.1494 O   0  0  0  0  0  0  0  0  0  0  0  0
   49.0177   -9.2270   -2.8519 O   0  0  0  0  0  0  0  0  0  0  0  0
  1  2  1  0
  2 12  2  0
  3  4  2  0
  3  2  1  0
  4  5  1  0
  5  6  1  0
  5 11  2  0
  6  7  1  0
  7  9  1  0
  7  8  1  1
  9 13  1  0
 10  9  2  0
 12 11  1  0
 13 14  1  0
 14 15  1  6
 14 17  1  0
 16 15  1  0
 17 18  2  0
 17 19  1  0
 19 20  1  0
 21 20  1  0
 21 23  1  0
 22 21  2  0
M  END
$$$$
