YCG.pdb
     RDKit          3D

 23 23  0  0  1  0  0  0  0  0999 V2000
   20.1878  -22.7141   -6.7220 O   0  0  0  0  0  0  0  0  0  0  0  0
   20.9944  -22.0715   -7.6767 C   0  0  0  0  0  0  0  0  0  0  0  0
   20.7854  -22.3005   -9.0217 C   0  0  0  0  0  0  0  0  0  0  0  0
   21.5698  -21.6759   -9.9627 C   0  0  0  0  0  0  0  0  0  0  0  0
   22.5766  -20.8125   -9.5886 C   0  0  0  0  0  0  0  0  0  0  0  0
   23.4297  -20.1331  -10.6071 C   0  0  0  0  0  0  0  0  0  0  0  0
   24.6177  -20.9971  -11.0031 C   0  0  2  0  0  0  0  0  0  0  0  0
   25.6039  -21.0657   -9.9731 N   0  0  0  0  0  0  0  0  0  0  0  0
   25.1371  -20.4501  -12.2777 C   0  0  0  0  0  0  0  0  0  0  0  0
   25.7041  -19.3374  -12.2765 O   0  0  0  0  0  0  0  0  0  0  0  0
   22.7665  -20.5993   -8.2388 C   0  0  0  0  0  0  0  0  0  0  0  0
   21.9963  -21.2110   -7.2761 C   0  0  0  0  0  0  0  0  0  0  0  0
   25.0255  -21.1310  -13.5265 N   0  0  0  0  0  0  0  0  0  0  0  0
   25.6580  -20.6743  -14.7245 C   0  0  1  0  0  0  0  0  0  0  0  0
   26.7219  -21.6222  -15.2339 C   0  0  0  0  0  0  0  0  0  0  0  0
   27.9661  -21.9677  -13.9669 S   0  0  0  0  0  0  0  0  0  0  0  0
   24.6538  -20.5360  -15.8021 C   0  0  0  0  0  0  0  0  0  0  0  0
   23.8672  -21.4900  -16.0033 O   0  0  0  0  0  0  0  0  0  0  0  0
   24.5372  -19.3821  -16.6158 N   0  0  0  0  0  0  0  0  0  0  0  0
   23.5450  -19.3578  -17.6718 C   0  0  0  0  0  0  0  0  0  0  0  0
   24.1828  -18.9411  -18.9446 C   0  0  0  0  0  0  0  0  0  0  0  0
   24.9070  -19.7169  -19.6188 O   0  0  0  0  0  0  0  0  0  0  0  0
   23.9319  -17.6228  -19.3591 O   0  0  0  0  0  0  0  0  0  0  0  0
  1  2  1  0
  2 12  2  0
  3  4  2  0
  3  2  1  0
  4  5  1  0
  5  6  1  0
  5 11  2  0
  6  7  1  0
  7  9  1  0
  7  8  1  1
  9 13  1  0
 10  9  2  0
 12 11  1  0
 13 14  1  0
 14 15  1  6
 14 17  1  0
 16 15  1  0
 17 18  2  0
 17 19  1  0
 19 20  1  0
 21 20  1  0
 21 23  1  0
 22 21  2  0
M  END
$$$$
