PHM.pdb
     RDKit          3D

 26 27  0  0  1  0  0  0  0  0999 V2000
   27.4846  -20.3338  -15.5451 N   0  0  0  0  0  0  0  0  0  0  0  0
   28.2522  -19.9366  -16.7106 C   0  0  0  0  0  0  0  0  0  0  0  0
   28.4329  -18.4390  -16.6315 C   0  0  0  0  0  0  0  0  0  0  0  0
   27.8296  -18.0808  -15.2804 C   0  0  0  0  0  0  0  0  0  0  0  0
   27.9555  -19.3887  -14.5457 C   0  0  1  0  0  0  0  0  0  0  0  0
   27.1870  -19.4519  -13.3001 C   0  0  0  0  0  0  0  0  0  0  0  0
   27.4067  -18.6150  -12.4106 O   0  0  0  0  0  0  0  0  0  0  0  0
   26.1786  -20.4529  -13.0618 N   0  0  0  0  0  0  0  0  0  0  0  0
   25.3757  -20.4870  -11.8812 C   0  0  1  0  0  0  0  0  0  0  0  0
   24.0281  -21.1338  -12.0852 C   0  0  0  0  0  0  0  0  0  0  0  0
   23.1882  -20.2941  -12.9735 C   0  0  0  0  0  0  0  0  0  0  0  0
   23.4711  -19.0303  -13.4418 C   0  0  0  0  0  0  0  0  0  0  0  0
   22.4450  -18.6097  -14.2263 N   0  0  0  0  0  0  0  0  0  0  0  0
   21.5311  -19.5929  -14.2514 C   0  0  0  0  0  0  0  0  0  0  0  0
   21.9913  -20.5998  -13.4936 N   0  0  0  0  0  0  0  0  0  0  0  0
   26.0909  -21.0045  -10.6953 C   0  0  0  0  0  0  0  0  0  0  0  0
   26.7616  -22.0754  -10.7052 O   0  0  0  0  0  0  0  0  0  0  0  0
   27.5982  -18.2653   -4.2404 C   0  0  0  0  0  0  0  0  0  0  0  0
   28.7401  -19.3277   -5.1557 S   0  0  0  0  0  0  0  0  0  0  0  0
   27.8336  -20.5486   -6.1604 C   0  0  0  0  0  0  0  0  0  0  0  0
   27.3804  -19.9650   -7.4587 C   0  0  0  0  0  0  0  0  0  0  0  0
   26.5536  -20.9606   -8.2266 C   0  0  2  0  0  0  0  0  0  0  0  0
   26.0729  -20.3181   -9.4345 N   0  0  0  0  0  0  0  0  0  0  0  0
   25.4189  -21.4793   -7.4343 C   0  0  0  0  0  0  0  0  0  0  0  0
   24.2502  -21.1105   -7.7033 O   0  0  0  0  0  0  0  0  0  0  0  0
   25.5968  -22.3705   -6.3898 O   0  0  0  0  0  0  0  0  0  0  0  0
  1  2  1  0
  2  3  1  0
  4  3  1  0
  5  6  1  1
  5  1  1  0
  5  4  1  0
  6  8  1  0
  7  6  2  0
  8  9  1  0
  9 10  1  6
 10 11  1  0
 11 12  2  0
 11 15  1  0
 12 13  1  0
 13 14  1  0
 15 14  2  0
 16  9  1  0
 17 16  2  0
 18 19  1  0
 20 19  1  0
 21 20  1  0
 22 21  1  1
 22 23  1  0
 22 24  1  0
 23 16  1  0
 24 26  1  0
 25 24  2  0
M  END
$$$$
