PHM.pdb
     RDKit          3D

 26 27  0  0  1  0  0  0  0  0999 V2000
   20.7659  -16.8752  -16.4496 N   0  0  0  0  0  0  0  0  0  0  0  0
   20.7404  -18.3170  -16.6108 C   0  0  0  0  0  0  0  0  0  0  0  0
   20.8435  -18.5981  -18.0913 C   0  0  0  0  0  0  0  0  0  0  0  0
   21.0620  -17.2193  -18.6988 C   0  0  0  0  0  0  0  0  0  0  0  0
   21.6503  -16.4731  -17.5312 C   0  0  1  0  0  0  0  0  0  0  0  0
   21.6989  -15.0202  -17.7125 C   0  0  0  0  0  0  0  0  0  0  0  0
   22.7191  -14.5046  -18.1954 O   0  0  0  0  0  0  0  0  0  0  0  0
   20.6033  -14.1573  -17.3509 N   0  0  0  0  0  0  0  0  0  0  0  0
   20.5787  -12.7605  -17.6473 C   0  0  1  0  0  0  0  0  0  0  0  0
   19.2451  -12.2745  -18.1584 C   0  0  0  0  0  0  0  0  0  0  0  0
   18.9073  -12.9560  -19.4315 C   0  0  0  0  0  0  0  0  0  0  0  0
   19.2886  -12.5887  -20.7029 C   0  0  0  0  0  0  0  0  0  0  0  0
   18.7711  -13.4750  -21.5929 N   0  0  0  0  0  0  0  0  0  0  0  0
   18.0754  -14.3853  -20.8930 C   0  0  0  0  0  0  0  0  0  0  0  0
   18.1660  -14.0608  -19.5944 N   0  0  0  0  0  0  0  0  0  0  0  0
   21.1235  -11.9168  -16.5624 C   0  0  0  0  0  0  0  0  0  0  0  0
   20.7215  -11.9838  -15.3663 O   0  0  0  0  0  0  0  0  0  0  0  0
   27.3515  -10.2728  -16.0550 C   0  0  0  0  0  0  0  0  0  0  0  0
   26.6394  -10.1795  -14.3953 S   0  0  0  0  0  0  0  0  0  0  0  0
   24.8504   -9.8397  -14.4700 C   0  0  0  0  0  0  0  0  0  0  0  0
   24.1939  -10.5900  -15.5824 C   0  0  0  0  0  0  0  0  0  0  0  0
   22.7444  -10.2029  -15.6988 C   0  0  2  0  0  0  0  0  0  0  0  0
   22.1598  -10.9508  -16.7951 N   0  0  0  0  0  0  0  0  0  0  0  0
   22.5655   -8.7517  -15.9142 C   0  0  0  0  0  0  0  0  0  0  0  0
   22.4882   -8.2994  -17.0819 O   0  0  0  0  0  0  0  0  0  0  0  0
   22.4784   -7.8565  -14.8616 O   0  0  0  0  0  0  0  0  0  0  0  0
  1  2  1  0
  2  3  1  0
  4  3  1  0
  5  6  1  6
  5  1  1  0
  5  4  1  0
  6  8  1  0
  7  6  2  0
  8  9  1  0
  9 10  1  1
 10 11  1  0
 11 12  2  0
 11 15  1  0
 12 13  1  0
 13 14  1  0
 15 14  2  0
 16  9  1  0
 17 16  2  0
 18 19  1  0
 20 19  1  0
 21 20  1  0
 22 21  1  6
 22 23  1  0
 22 24  1  0
 23 16  1  0
 24 26  1  0
 25 24  2  0
M  END
$$$$
