PHM.pdb
     RDKit          3D

 26 27  0  0  1  0  0  0  0  0999 V2000
   27.7423  -21.9871  -15.5535 N   0  0  0  0  0  0  0  0  0  0  0  0
   28.5757  -22.0985  -16.7360 C   0  0  0  0  0  0  0  0  0  0  0  0
   28.5609  -20.7496  -17.4158 C   0  0  0  0  0  0  0  0  0  0  0  0
   27.7765  -19.8744  -16.4481 C   0  0  0  0  0  0  0  0  0  0  0  0
   27.9830  -20.6108  -15.1515 C   0  0  1  0  0  0  0  0  0  0  0  0
   27.0989  -20.1744  -14.0680 C   0  0  0  0  0  0  0  0  0  0  0  0
   27.1950  -19.0140  -13.6390 O   0  0  0  0  0  0  0  0  0  0  0  0
   26.1144  -21.0426  -13.4741 N   0  0  0  0  0  0  0  0  0  0  0  0
   25.1917  -20.6084  -12.4744 C   0  0  1  0  0  0  0  0  0  0  0  0
   23.7484  -20.8626  -12.8327 C   0  0  0  0  0  0  0  0  0  0  0  0
   23.3808  -20.0936  -14.0463 C   0  0  0  0  0  0  0  0  0  0  0  0
   23.2852  -20.5644  -15.3370 C   0  0  0  0  0  0  0  0  0  0  0  0
   22.9221  -19.5422  -16.1546 N   0  0  0  0  0  0  0  0  0  0  0  0
   22.7912  -18.4457  -15.3909 C   0  0  0  0  0  0  0  0  0  0  0  0
   23.0700  -18.7921  -14.1252 N   0  0  0  0  0  0  0  0  0  0  0  0
   25.5377  -21.0669  -11.1122 C   0  0  0  0  0  0  0  0  0  0  0  0
   25.6365  -22.2868  -10.7975 O   0  0  0  0  0  0  0  0  0  0  0  0
   29.9304  -19.4165   -5.8017 C   0  0  0  0  0  0  0  0  0  0  0  0
   28.2128  -18.8614   -5.6911 S   0  0  0  0  0  0  0  0  0  0  0  0
   27.0963  -20.0156   -6.5529 C   0  0  0  0  0  0  0  0  0  0  0  0
   26.8515  -19.5934   -7.9648 C   0  0  0  0  0  0  0  0  0  0  0  0
   26.0226  -20.6201   -8.6881 C   0  0  2  0  0  0  0  0  0  0  0  0
   25.7885  -20.1470  -10.0388 N   0  0  0  0  0  0  0  0  0  0  0  0
   24.7380  -20.8867   -8.0075 C   0  0  0  0  0  0  0  0  0  0  0  0
   23.6678  -20.4642   -8.5077 O   0  0  0  0  0  0  0  0  0  0  0  0
   24.6673  -21.5957   -6.8204 O   0  0  0  0  0  0  0  0  0  0  0  0
  1  2  1  0
  2  3  1  0
  4  3  1  0
  5  6  1  1
  5  1  1  0
  5  4  1  0
  6  8  1  0
  7  6  2  0
  8  9  1  0
  9 10  1  6
 10 11  1  0
 11 12  2  0
 11 15  1  0
 12 13  1  0
 13 14  1  0
 15 14  2  0
 16  9  1  0
 17 16  2  0
 18 19  1  0
 20 19  1  0
 21 20  1  0
 22 21  1  1
 22 23  1  0
 22 24  1  0
 23 16  1  0
 24 26  1  0
 25 24  2  0
M  END
$$$$
