PHM.pdb
     RDKit          3D

 26 27  0  0  1  0  0  0  0  0999 V2000
   17.9568  -14.4345  -15.9074 N   0  0  0  0  0  0  0  0  0  0  0  0
   17.2623  -15.6926  -16.1077 C   0  0  0  0  0  0  0  0  0  0  0  0
   16.2218  -15.4576  -17.1772 C   0  0  0  0  0  0  0  0  0  0  0  0
   16.4963  -14.0304  -17.6303 C   0  0  0  0  0  0  0  0  0  0  0  0
   17.9440  -13.8737  -17.2486 C   0  0  1  0  0  0  0  0  0  0  0  0
   18.4274  -12.4913  -17.2890 C   0  0  0  0  0  0  0  0  0  0  0  0
   19.4318  -12.2211  -17.9657 O   0  0  0  0  0  0  0  0  0  0  0  0
   17.7808  -11.4232  -16.5702 N   0  0  0  0  0  0  0  0  0  0  0  0
   18.2207  -10.0657  -16.6263 C   0  0  1  0  0  0  0  0  0  0  0  0
   17.1087   -9.0620  -16.4474 C   0  0  0  0  0  0  0  0  0  0  0  0
   16.3050   -8.9638  -17.6899 C   0  0  0  0  0  0  0  0  0  0  0  0
   15.9617   -9.9863  -18.5463 C   0  0  0  0  0  0  0  0  0  0  0  0
   15.2203   -9.4791  -19.5653 N   0  0  0  0  0  0  0  0  0  0  0  0
   15.0991   -8.1588  -19.3538 C   0  0  0  0  0  0  0  0  0  0  0  0
   15.7563   -7.8629  -18.2223 N   0  0  0  0  0  0  0  0  0  0  0  0
   19.3922   -9.7885  -15.7681 C   0  0  0  0  0  0  0  0  0  0  0  0
   19.4367  -10.0875  -14.5412 O   0  0  0  0  0  0  0  0  0  0  0  0
   26.9311  -10.3297  -14.6198 C   0  0  0  0  0  0  0  0  0  0  0  0
   25.5523  -10.3397  -15.7900 S   0  0  0  0  0  0  0  0  0  0  0  0
   24.0782   -9.5460  -15.0696 C   0  0  0  0  0  0  0  0  0  0  0  0
   22.8762   -9.7271  -15.9378 C   0  0  0  0  0  0  0  0  0  0  0  0
   21.7212   -8.9140  -15.4189 C   0  0  2  0  0  0  0  0  0  0  0  0
   20.5753   -9.1525  -16.2751 N   0  0  0  0  0  0  0  0  0  0  0  0
   22.0299   -7.4697  -15.3645 C   0  0  0  0  0  0  0  0  0  0  0  0
   21.8147   -6.7478  -16.3678 O   0  0  0  0  0  0  0  0  0  0  0  0
   22.5556   -6.8715  -14.2319 O   0  0  0  0  0  0  0  0  0  0  0  0
  1  2  1  0
  2  3  1  0
  4  3  1  0
  5  6  1  1
  5  1  1  0
  5  4  1  0
  6  8  1  0
  7  6  2  0
  8  9  1  0
  9 10  1  1
 10 11  1  0
 11 12  2  0
 11 15  1  0
 12 13  1  0
 13 14  1  0
 15 14  2  0
 16  9  1  0
 17 16  2  0
 18 19  1  0
 20 19  1  0
 21 20  1  0
 22 21  1  6
 22 23  1  0
 22 24  1  0
 23 16  1  0
 24 26  1  0
 25 24  2  0
M  END
$$$$
