PHM.pdb
     RDKit          3D

 26 27  0  0  1  0  0  0  0  0999 V2000
   26.9688  -20.7575  -14.9298 N   0  0  0  0  0  0  0  0  0  0  0  0
   28.3933  -20.8854  -14.6848 C   0  0  0  0  0  0  0  0  0  0  0  0
   28.9684  -19.4886  -14.6828 C   0  0  0  0  0  0  0  0  0  0  0  0
   27.7389  -18.5995  -14.8074 C   0  0  0  0  0  0  0  0  0  0  0  0
   26.6659  -19.5029  -14.2607 C   0  0  1  0  0  0  0  0  0  0  0  0
   25.3015  -19.0372  -14.5213 C   0  0  0  0  0  0  0  0  0  0  0  0
   24.8859  -18.0246  -13.9367 O   0  0  0  0  0  0  0  0  0  0  0  0
   24.4142  -19.7108  -15.4349 N   0  0  0  0  0  0  0  0  0  0  0  0
   23.1084  -19.2284  -15.7538 C   0  0  1  0  0  0  0  0  0  0  0  0
   22.9246  -18.9028  -17.2154 C   0  0  0  0  0  0  0  0  0  0  0  0
   24.0744  -18.1069  -17.7094 C   0  0  0  0  0  0  0  0  0  0  0  0
   25.0961  -18.5338  -18.5284 C   0  0  0  0  0  0  0  0  0  0  0  0
   25.9494  -17.4995  -18.7462 N   0  0  0  0  0  0  0  0  0  0  0  0
   25.4725  -16.4389  -18.0752 C   0  0  0  0  0  0  0  0  0  0  0  0
   24.3445  -16.8187  -17.4563 N   0  0  0  0  0  0  0  0  0  0  0  0
   22.0196  -20.0662  -15.2077 C   0  0  0  0  0  0  0  0  0  0  0  0
   21.9422  -21.3124  -15.4021 O   0  0  0  0  0  0  0  0  0  0  0  0
   22.6504  -21.6467   -8.3120 C   0  0  0  0  0  0  0  0  0  0  0  0
   23.0015  -20.7848   -9.8625 S   0  0  0  0  0  0  0  0  0  0  0  0
   21.5556  -20.8195  -10.9714 C   0  0  0  0  0  0  0  0  0  0  0  0
   21.8378  -20.1286  -12.2654 C   0  0  0  0  0  0  0  0  0  0  0  0
   20.6070  -20.1020  -13.1306 C   0  0  2  0  0  0  0  0  0  0  0  0
   20.9614  -19.5156  -14.4088 N   0  0  0  0  0  0  0  0  0  0  0  0
   19.4988  -19.3472  -12.5090 C   0  0  0  0  0  0  0  0  0  0  0  0
   19.3862  -18.1159  -12.7219 O   0  0  0  0  0  0  0  0  0  0  0  0
   18.5644  -19.9545  -11.6874 O   0  0  0  0  0  0  0  0  0  0  0  0
  1  2  1  0
  2  3  1  0
  4  3  1  0
  5  6  1  6
  5  1  1  0
  5  4  1  0
  6  8  1  0
  7  6  2  0
  8  9  1  0
  9 10  1  6
 10 11  1  0
 11 12  2  0
 11 15  1  0
 12 13  1  0
 13 14  1  0
 15 14  2  0
 16  9  1  0
 17 16  2  0
 18 19  1  0
 20 19  1  0
 21 20  1  0
 22 21  1  1
 22 23  1  0
 22 24  1  0
 23 16  1  0
 24 26  1  0
 25 24  2  0
M  END
$$$$
