PHM.pdb
     RDKit          3D

 26 27  0  0  1  0  0  0  0  0999 V2000
   24.2000  -22.8377  -15.0609 N   0  0  0  0  0  0  0  0  0  0  0  0
   25.5848  -22.8076  -15.4929 C   0  0  0  0  0  0  0  0  0  0  0  0
   26.1823  -21.5216  -14.9721 C   0  0  0  0  0  0  0  0  0  0  0  0
   25.0663  -20.9324  -14.1206 C   0  0  0  0  0  0  0  0  0  0  0  0
   24.2779  -22.1669  -13.7734 C   0  0  1  0  0  0  0  0  0  0  0  0
   22.9593  -21.8925  -13.1971 C   0  0  0  0  0  0  0  0  0  0  0  0
   22.8861  -21.3060  -12.1060 O   0  0  0  0  0  0  0  0  0  0  0  0
   21.7335  -22.2780  -13.8487 N   0  0  0  0  0  0  0  0  0  0  0  0
   20.4408  -21.9603  -13.3316 C   0  0  1  0  0  0  0  0  0  0  0  0
   19.5947  -21.1453  -14.2781 C   0  0  0  0  0  0  0  0  0  0  0  0
   20.0956  -19.7507  -14.3386 C   0  0  0  0  0  0  0  0  0  0  0  0
   21.0926  -19.1869  -13.5740 C   0  0  0  0  0  0  0  0  0  0  0  0
   21.2482  -17.8877  -13.9390 N   0  0  0  0  0  0  0  0  0  0  0  0
   20.3634  -17.6379  -14.9174 C   0  0  0  0  0  0  0  0  0  0  0  0
   19.6770  -18.7674  -15.1475 N   0  0  0  0  0  0  0  0  0  0  0  0
   19.7238  -23.1275  -12.7755 C   0  0  0  0  0  0  0  0  0  0  0  0
   19.6563  -24.2429  -13.3657 O   0  0  0  0  0  0  0  0  0  0  0  0
   19.1839  -24.0138   -6.5156 C   0  0  0  0  0  0  0  0  0  0  0  0
   18.2034  -25.4398   -7.0403 S   0  0  0  0  0  0  0  0  0  0  0  0
   17.9123  -25.4063   -8.8391 C   0  0  0  0  0  0  0  0  0  0  0  0
   18.4473  -24.1573   -9.4599 C   0  0  0  0  0  0  0  0  0  0  0  0
   18.3967  -24.2488  -10.9610 C   0  0  2  0  0  0  0  0  0  0  0  0
   19.0461  -23.0745  -11.5110 N   0  0  0  0  0  0  0  0  0  0  0  0
   17.0139  -24.3573  -11.4715 C   0  0  0  0  0  0  0  0  0  0  0  0
   16.3012  -23.3290  -11.5652 O   0  0  0  0  0  0  0  0  0  0  0  0
   16.4644  -25.5683  -11.8567 O   0  0  0  0  0  0  0  0  0  0  0  0
  1  2  1  0
  2  3  1  0
  4  3  1  0
  5  6  1  6
  5  1  1  0
  5  4  1  0
  6  8  1  0
  7  6  2  0
  8  9  1  0
  9 10  1  6
 10 11  1  0
 11 12  2  0
 11 15  1  0
 12 13  1  0
 13 14  1  0
 15 14  2  0
 16  9  1  0
 17 16  2  0
 18 19  1  0
 20 19  1  0
 21 20  1  0
 22 21  1  1
 22 23  1  0
 22 24  1  0
 23 16  1  0
 24 26  1  0
 25 24  2  0
M  END
$$$$
