PHM.pdb
     RDKit          3D

 26 27  0  0  1  0  0  0  0  0999 V2000
   28.3113  -21.0433  -17.1368 N   0  0  0  0  0  0  0  0  0  0  0  0
   29.2366  -21.4373  -18.1828 C   0  0  0  0  0  0  0  0  0  0  0  0
   29.6801  -22.8475  -17.8723 C   0  0  0  0  0  0  0  0  0  0  0  0
   28.8289  -23.2292  -16.6691 C   0  0  0  0  0  0  0  0  0  0  0  0
   27.6531  -22.3039  -16.8350 C   0  0  1  0  0  0  0  0  0  0  0  0
   26.7853  -22.2219  -15.6575 C   0  0  0  0  0  0  0  0  0  0  0  0
   25.9324  -23.1040  -15.4719 O   0  0  0  0  0  0  0  0  0  0  0  0
   26.8807  -21.1516  -14.6978 N   0  0  0  0  0  0  0  0  0  0  0  0
   26.0418  -21.0586  -13.5458 C   0  0  1  0  0  0  0  0  0  0  0  0
   26.6938  -20.3605  -12.3781 C   0  0  0  0  0  0  0  0  0  0  0  0
   25.8317  -20.4637  -11.1757 C   0  0  0  0  0  0  0  0  0  0  0  0
   24.5984  -21.0693  -11.0810 C   0  0  0  0  0  0  0  0  0  0  0  0
   24.1416  -20.9447   -9.8078 N   0  0  0  0  0  0  0  0  0  0  0  0
   25.0722  -20.2717   -9.1125 C   0  0  0  0  0  0  0  0  0  0  0  0
   26.0832  -19.9888   -9.9478 N   0  0  0  0  0  0  0  0  0  0  0  0
   24.6870  -20.5461  -13.8416 C   0  0  0  0  0  0  0  0  0  0  0  0
   24.4759  -19.5015  -14.5206 O   0  0  0  0  0  0  0  0  0  0  0  0
   20.9849  -22.2518  -18.0488 C   0  0  0  0  0  0  0  0  0  0  0  0
   19.7345  -22.1222  -16.7488 S   0  0  0  0  0  0  0  0  0  0  0  0
   20.3466  -21.1266  -15.3503 C   0  0  0  0  0  0  0  0  0  0  0  0
   21.6875  -21.5944  -14.8871 C   0  0  0  0  0  0  0  0  0  0  0  0
   22.1838  -20.7389  -13.7531 C   0  0  2  0  0  0  0  0  0  0  0  0
   23.5024  -21.2076  -13.3723 N   0  0  0  0  0  0  0  0  0  0  0  0
   21.2736  -20.7650  -12.5889 C   0  0  0  0  0  0  0  0  0  0  0  0
   20.5351  -19.7787  -12.3525 O   0  0  0  0  0  0  0  0  0  0  0  0
   21.2021  -21.8522  -11.7347 O   0  0  0  0  0  0  0  0  0  0  0  0
  1  2  1  0
  2  3  1  0
  4  3  1  0
  5  6  1  1
  5  1  1  0
  5  4  1  0
  6  8  1  0
  7  6  2  0
  8  9  1  0
  9 10  1  1
 10 11  1  0
 11 12  2  0
 11 15  1  0
 12 13  1  0
 13 14  1  0
 15 14  2  0
 16  9  1  0
 17 16  2  0
 18 19  1  0
 20 19  1  0
 21 20  1  0
 22 21  1  6
 22 23  1  0
 22 24  1  0
 23 16  1  0
 24 26  1  0
 25 24  2  0
M  END
$$$$
