HMR.pdb
     RDKit          3D

 30 30  0  0  1  0  0  0  0  0999 V2000
   26.9991  -21.5696  -14.8440 N   0  0  0  0  0  0  0  0  0  0  0  0
   27.2390  -20.5655  -13.8274 C   0  0  1  0  0  0  0  0  0  0  0  0
   26.7738  -19.2146  -14.2580 C   0  0  0  0  0  0  0  0  0  0  0  0
   27.5781  -18.6616  -15.3706 C   0  0  0  0  0  0  0  0  0  0  0  0
   28.9699  -18.5833  -15.4522 C   0  0  0  0  0  0  0  0  0  0  0  0
   29.3261  -18.0211  -16.6092 N   0  0  0  0  0  0  0  0  0  0  0  0
   28.1996  -17.7354  -17.2747 C   0  0  0  0  0  0  0  0  0  0  0  0
   27.1455  -18.1190  -16.5331 N   0  0  0  0  0  0  0  0  0  0  0  0
   26.5261  -21.0054  -12.5818 C   0  0  0  0  0  0  0  0  0  0  0  0
   25.8449  -22.0588  -12.6391 O   0  0  0  0  0  0  0  0  0  0  0  0
   28.8576  -19.9803   -6.7251 C   0  0  0  0  0  0  0  0  0  0  0  0
   27.1335  -20.1701   -6.2017 S   0  0  0  0  0  0  0  0  0  0  0  0
   26.0938  -20.6757   -7.6489 C   0  0  0  0  0  0  0  0  0  0  0  0
   26.8002  -20.2209   -8.8840 C   0  0  0  0  0  0  0  0  0  0  0  0
   26.0043  -20.6084  -10.1193 C   0  0  2  0  0  0  0  0  0  0  0  0
   26.5919  -20.2879  -11.3643 N   0  0  0  0  0  0  0  0  0  0  0  0
   24.5711  -20.3740   -9.9749 C   0  0  0  0  0  0  0  0  0  0  0  0
   23.9657  -21.0271   -9.0553 O   0  0  0  0  0  0  0  0  0  0  0  0
   20.1976  -23.4262  -15.4258 N   0  0  0  0  0  0  0  0  0  0  0  0
   19.4717  -22.2165  -15.1884 C   0  0  0  0  0  0  0  0  0  0  0  0
   18.1900  -22.2059  -15.2324 N   0  0  0  0  0  0  0  0  0  0  0  0
   20.1699  -21.0182  -14.9006 N   0  0  0  0  0  0  0  0  0  0  0  0
   21.6139  -20.9649  -14.7826 C   0  0  0  0  0  0  0  0  0  0  0  0
   22.0764  -21.5232  -13.4786 C   0  0  0  0  0  0  0  0  0  0  0  0
   23.0716  -20.7698  -12.7109 C   0  0  0  0  0  0  0  0  0  0  0  0
   22.6411  -19.9579  -11.5478 C   0  0  2  0  0  0  0  0  0  0  0  0
   23.7885  -19.4931  -10.7548 N   0  0  0  0  0  0  0  0  0  0  0  0
   21.6340  -20.5768  -10.6620 C   0  0  0  0  0  0  0  0  0  0  0  0
   20.3414  -20.0951  -10.6454 O   0  0  0  0  0  0  0  0  0  0  0  0
   21.8914  -21.5436   -9.8976 O   0  0  0  0  0  0  0  0  0  0  0  0
  2  1  1  6
  2  9  1  0
  2  3  1  0
  3  4  1  0
  4  8  1  0
  5  6  1  0
  5  4  2  0
  6  7  1  0
  7  8  2  0
  9 16  1  0
 10  9  2  0
 11 12  1  0
 12 13  1  0
 13 14  1  0
 15 14  1  1
 16 15  1  0
 17 15  1  0
 18 17  2  0
 19 20  1  0
 20 22  1  0
 21 20  2  0
 22 23  1  0
 23 24  1  0
 24 25  1  0
 26 25  1  6
 26 28  1  0
 26 27  1  0
 27 17  1  0
 28 29  1  0
 30 28  2  0
M  END
$$$$
