HMR.pdb
     RDKit          3D

 30 30  0  0  1  0  0  0  0  0999 V2000
   21.1035  -19.4694  -12.8939 N   0  0  0  0  0  0  0  0  0  0  0  0
   21.7533  -20.6998  -12.4895 C   0  0  1  0  0  0  0  0  0  0  0  0
   21.2527  -21.8741  -13.2622 C   0  0  0  0  0  0  0  0  0  0  0  0
   19.8693  -22.2512  -12.8954 C   0  0  0  0  0  0  0  0  0  0  0  0
   18.7008  -21.5266  -13.1397 C   0  0  0  0  0  0  0  0  0  0  0  0
   17.6465  -22.1897  -12.6600 N   0  0  0  0  0  0  0  0  0  0  0  0
   18.1059  -23.3226  -12.1132 C   0  0  0  0  0  0  0  0  0  0  0  0
   19.4427  -23.3637  -12.2525 N   0  0  0  0  0  0  0  0  0  0  0  0
   23.2297  -20.5170  -12.6896 C   0  0  0  0  0  0  0  0  0  0  0  0
   23.6042  -19.7273  -13.5914 O   0  0  0  0  0  0  0  0  0  0  0  0
   26.3420  -20.0195   -6.7414 C   0  0  0  0  0  0  0  0  0  0  0  0
   26.8395  -21.0734   -8.1286 S   0  0  0  0  0  0  0  0  0  0  0  0
   25.8994  -20.5887   -9.6493 C   0  0  0  0  0  0  0  0  0  0  0  0
   26.3992  -21.4397  -10.7706 C   0  0  0  0  0  0  0  0  0  0  0  0
   25.6078  -21.1600  -12.0375 C   0  0  2  0  0  0  0  0  0  0  0  0
   24.2003  -21.1916  -11.9121 N   0  0  0  0  0  0  0  0  0  0  0  0
   26.1885  -21.7788  -13.2248 C   0  0  0  0  0  0  0  0  0  0  0  0
   26.4979  -23.0182  -13.1412 O   0  0  0  0  0  0  0  0  0  0  0  0
   23.7818  -26.4561  -16.1044 N   0  0  0  0  0  0  0  0  0  0  0  0
   25.0462  -26.8561  -16.6410 C   0  0  0  0  0  0  0  0  0  0  0  0
   25.1441  -27.9129  -17.3609 N   0  0  0  0  0  0  0  0  0  0  0  0
   26.2023  -26.0808  -16.3790 N   0  0  0  0  0  0  0  0  0  0  0  0
   26.1356  -24.7383  -15.8357 C   0  0  0  0  0  0  0  0  0  0  0  0
   25.9000  -23.7267  -16.9069 C   0  0  0  0  0  0  0  0  0  0  0  0
   25.9890  -22.3066  -16.5569 C   0  0  0  0  0  0  0  0  0  0  0  0
   27.0284  -21.8487  -15.6042 C   0  0  2  0  0  0  0  0  0  0  0  0
   26.4409  -21.1385  -14.4589 N   0  0  0  0  0  0  0  0  0  0  0  0
   28.1301  -21.0512  -16.1806 C   0  0  0  0  0  0  0  0  0  0  0  0
   29.3304  -21.6565  -16.4906 O   0  0  0  0  0  0  0  0  0  0  0  0
   28.0386  -19.8167  -16.4105 O   0  0  0  0  0  0  0  0  0  0  0  0
  2  1  1  6
  2  9  1  0
  2  3  1  0
  3  4  1  0
  4  8  1  0
  5  6  1  0
  5  4  2  0
  6  7  1  0
  7  8  2  0
  9 16  1  0
 10  9  2  0
 11 12  1  0
 12 13  1  0
 13 14  1  0
 15 14  1  1
 16 15  1  0
 17 15  1  0
 18 17  2  0
 19 20  1  0
 20 22  1  0
 21 20  2  0
 22 23  1  0
 23 24  1  0
 24 25  1  0
 26 25  1  6
 26 28  1  0
 26 27  1  0
 27 17  1  0
 28 29  1  0
 30 28  2  0
M  END
$$$$
