HMR.pdb
     RDKit          3D

 30 30  0  0  1  0  0  0  0  0999 V2000
   20.5185  -20.3605   -8.8640 N   0  0  0  0  0  0  0  0  0  0  0  0
   21.5396  -21.0861   -8.1358 C   0  0  1  0  0  0  0  0  0  0  0  0
   21.3967  -22.5625   -8.2981 C   0  0  0  0  0  0  0  0  0  0  0  0
   20.1680  -23.0903   -7.6638 C   0  0  0  0  0  0  0  0  0  0  0  0
   18.9158  -23.2637   -8.2571 C   0  0  0  0  0  0  0  0  0  0  0  0
   18.0566  -23.7637   -7.3665 N   0  0  0  0  0  0  0  0  0  0  0  0
   18.7231  -23.9167   -6.2150 C   0  0  0  0  0  0  0  0  0  0  0  0
   19.9938  -23.5128   -6.3894 N   0  0  0  0  0  0  0  0  0  0  0  0
   22.8731  -20.6183   -8.6421 C   0  0  0  0  0  0  0  0  0  0  0  0
   22.9111  -20.0757   -9.7740 O   0  0  0  0  0  0  0  0  0  0  0  0
   28.2144  -19.3274   -4.8353 C   0  0  0  0  0  0  0  0  0  0  0  0
   28.9570  -20.0936   -6.2995 S   0  0  0  0  0  0  0  0  0  0  0  0
   27.7597  -20.0319   -7.7115 C   0  0  0  0  0  0  0  0  0  0  0  0
   26.4515  -20.5476   -7.2076 C   0  0  0  0  0  0  0  0  0  0  0  0
   25.3910  -20.4424   -8.2909 C   0  0  2  0  0  0  0  0  0  0  0  0
   24.0704  -20.7643   -7.9029 N   0  0  0  0  0  0  0  0  0  0  0  0
   25.8459  -20.9319   -9.5883 C   0  0  0  0  0  0  0  0  0  0  0  0
   26.0990  -22.1833   -9.6806 O   0  0  0  0  0  0  0  0  0  0  0  0
   23.1432  -22.3615  -16.8249 N   0  0  0  0  0  0  0  0  0  0  0  0
   24.5051  -22.7143  -17.0845 C   0  0  0  0  0  0  0  0  0  0  0  0
   24.8724  -23.0764  -18.2587 N   0  0  0  0  0  0  0  0  0  0  0  0
   25.4598  -22.6633  -16.0395 N   0  0  0  0  0  0  0  0  0  0  0  0
   25.1419  -22.1675  -14.7147 C   0  0  0  0  0  0  0  0  0  0  0  0
   25.7062  -20.8044  -14.4918 C   0  0  0  0  0  0  0  0  0  0  0  0
   25.5931  -20.2126  -13.1560 C   0  0  0  0  0  0  0  0  0  0  0  0
   26.4094  -20.7519  -12.0424 C   0  0  2  0  0  0  0  0  0  0  0  0
   26.0327  -20.1540  -10.7532 N   0  0  0  0  0  0  0  0  0  0  0  0
   27.8743  -20.6844  -12.2202 C   0  0  0  0  0  0  0  0  0  0  0  0
   28.5498  -21.7464  -12.7851 O   0  0  0  0  0  0  0  0  0  0  0  0
   28.5640  -19.6891  -11.8758 O   0  0  0  0  0  0  0  0  0  0  0  0
  2  1  1  6
  2  9  1  0
  2  3  1  0
  3  4  1  0
  4  8  1  0
  5  6  1  0
  5  4  2  0
  6  7  1  0
  7  8  2  0
  9 16  1  0
 10  9  2  0
 11 12  1  0
 12 13  1  0
 13 14  1  0
 15 14  1  1
 16 15  1  0
 17 15  1  0
 18 17  2  0
 19 20  1  0
 20 22  1  0
 21 20  2  0
 22 23  1  0
 23 24  1  0
 24 25  1  0
 26 25  1  6
 26 28  1  0
 26 27  1  0
 27 17  1  0
 28 29  1  0
 30 28  2  0
M  END
$$$$
