HMR.pdb
     RDKit          3D

 30 30  0  0  1  0  0  0  0  0999 V2000
   27.9372  -21.1579  -15.7524 N   0  0  0  0  0  0  0  0  0  0  0  0
   27.4599  -20.1444  -14.8335 C   0  0  1  0  0  0  0  0  0  0  0  0
   26.7101  -19.0631  -15.5373 C   0  0  0  0  0  0  0  0  0  0  0  0
   27.5844  -18.2182  -16.3813 C   0  0  0  0  0  0  0  0  0  0  0  0
   28.9639  -18.3409  -16.5604 C   0  0  0  0  0  0  0  0  0  0  0  0
   29.3993  -17.3952  -17.3956 N   0  0  0  0  0  0  0  0  0  0  0  0
   28.3358  -16.6667  -17.7590 C   0  0  0  0  0  0  0  0  0  0  0  0
   27.2418  -17.1584  -17.1510 N   0  0  0  0  0  0  0  0  0  0  0  0
   26.5884  -20.8283  -13.8206 C   0  0  0  0  0  0  0  0  0  0  0  0
   25.8492  -21.7615  -14.2203 O   0  0  0  0  0  0  0  0  0  0  0  0
   27.3021  -20.4720   -7.2423 C   0  0  0  0  0  0  0  0  0  0  0  0
   25.4952  -20.4774   -7.3744 S   0  0  0  0  0  0  0  0  0  0  0  0
   24.9952  -21.0136   -9.0755 C   0  0  0  0  0  0  0  0  0  0  0  0
   25.9873  -20.4379  -10.0323 C   0  0  0  0  0  0  0  0  0  0  0  0
   25.6354  -20.8324  -11.4571 C   0  0  2  0  0  0  0  0  0  0  0  0
   26.5690  -20.4658  -12.4532 N   0  0  0  0  0  0  0  0  0  0  0  0
   24.2205  -20.6565  -11.7682 C   0  0  0  0  0  0  0  0  0  0  0  0
   23.8633  -19.5138  -12.2214 O   0  0  0  0  0  0  0  0  0  0  0  0
   16.7120  -25.8287  -12.1426 N   0  0  0  0  0  0  0  0  0  0  0  0
   16.3546  -24.4884  -12.4929 C   0  0  0  0  0  0  0  0  0  0  0  0
   15.1338  -24.1825  -12.7399 N   0  0  0  0  0  0  0  0  0  0  0  0
   17.3536  -23.4871  -12.5673 N   0  0  0  0  0  0  0  0  0  0  0  0
   18.7420  -23.7431  -12.2375 C   0  0  0  0  0  0  0  0  0  0  0  0
   19.5545  -22.4927  -12.2863 C   0  0  0  0  0  0  0  0  0  0  0  0
   20.9856  -22.5784  -11.9835 C   0  0  0  0  0  0  0  0  0  0  0  0
   21.7935  -21.3387  -11.8966 C   0  0  2  0  0  0  0  0  0  0  0  0
   23.2072  -21.6296  -11.6165 N   0  0  0  0  0  0  0  0  0  0  0  0
   21.2975  -20.3054  -10.9647 C   0  0  0  0  0  0  0  0  0  0  0  0
   20.4248  -19.3352  -11.4121 O   0  0  0  0  0  0  0  0  0  0  0  0
   21.6341  -20.2535   -9.7526 O   0  0  0  0  0  0  0  0  0  0  0  0
  2  1  1  6
  2  9  1  0
  2  3  1  0
  3  4  1  0
  4  8  1  0
  5  6  1  0
  5  4  2  0
  6  7  1  0
  7  8  2  0
  9 16  1  0
 10  9  2  0
 11 12  1  0
 12 13  1  0
 13 14  1  0
 15 14  1  1
 16 15  1  0
 17 15  1  0
 18 17  2  0
 19 20  1  0
 20 22  1  0
 21 20  2  0
 22 23  1  0
 23 24  1  0
 24 25  1  0
 26 25  1  1
 26 28  1  0
 26 27  1  0
 27 17  1  0
 28 29  1  0
 30 28  2  0
M  END
$$$$
