HMR.pdb
     RDKit          3D

 30 30  0  0  1  0  0  0  0  0999 V2000
   19.7924  -12.5795  -16.0758 N   0  0  0  0  0  0  0  0  0  0  0  0
   19.6666  -11.2015  -16.5054 C   0  0  1  0  0  0  0  0  0  0  0  0
   18.2463  -10.7439  -16.5005 C   0  0  0  0  0  0  0  0  0  0  0  0
   17.3609  -11.6218  -17.2980 C   0  0  0  0  0  0  0  0  0  0  0  0
   16.5856  -12.6875  -16.8361 C   0  0  0  0  0  0  0  0  0  0  0  0
   15.9212  -13.2401  -17.8533 N   0  0  0  0  0  0  0  0  0  0  0  0
   16.2484  -12.5577  -18.9582 C   0  0  0  0  0  0  0  0  0  0  0  0
   17.1145  -11.5832  -18.6287 N   0  0  0  0  0  0  0  0  0  0  0  0
   20.5023  -10.3632  -15.5823 C   0  0  0  0  0  0  0  0  0  0  0  0
   20.5561  -10.7005  -14.3739 O   0  0  0  0  0  0  0  0  0  0  0  0
   27.2745  -10.5338  -15.0171 C   0  0  0  0  0  0  0  0  0  0  0  0
   25.4842  -10.7909  -15.1224 S   0  0  0  0  0  0  0  0  0  0  0  0
   24.8361  -10.0373  -16.6855 C   0  0  0  0  0  0  0  0  0  0  0  0
   23.3628  -10.2813  -16.7188 C   0  0  0  0  0  0  0  0  0  0  0  0
   22.6161   -9.0718  -16.1810 C   0  0  2  0  0  0  0  0  0  0  0  0
   21.2205   -9.2243  -16.0167 N   0  0  0  0  0  0  0  0  0  0  0  0
   23.0909   -7.8099  -16.7394 C   0  0  0  0  0  0  0  0  0  0  0  0
   24.3578   -7.6635  -16.8490 O   0  0  0  0  0  0  0  0  0  0  0  0
   15.3954   -8.5019  -16.8501 N   0  0  0  0  0  0  0  0  0  0  0  0
   15.4615   -7.0818  -17.0099 C   0  0  0  0  0  0  0  0  0  0  0  0
   14.4419   -6.4243  -17.4258 N   0  0  0  0  0  0  0  0  0  0  0  0
   16.6604   -6.3915  -16.7063 N   0  0  0  0  0  0  0  0  0  0  0  0
   17.8965   -7.0774  -16.3845 C   0  0  0  0  0  0  0  0  0  0  0  0
   18.9719   -6.1156  -16.0045 C   0  0  0  0  0  0  0  0  0  0  0  0
   20.3122   -6.6406  -15.7300 C   0  0  0  0  0  0  0  0  0  0  0  0
   21.5026   -5.9143  -16.2329 C   0  0  2  0  0  0  0  0  0  0  0  0
   22.2830   -6.7340  -17.1713 N   0  0  0  0  0  0  0  0  0  0  0  0
   22.3936   -5.3392  -15.2047 C   0  0  0  0  0  0  0  0  0  0  0  0
   22.4727   -3.9709  -15.0482 O   0  0  0  0  0  0  0  0  0  0  0  0
   23.1075   -6.0419  -14.4420 O   0  0  0  0  0  0  0  0  0  0  0  0
  2  1  1  1
  2  9  1  0
  2  3  1  0
  3  4  1  0
  4  8  1  0
  5  6  1  0
  5  4  2  0
  6  7  1  0
  7  8  2  0
  9 16  1  0
 10  9  2  0
 11 12  1  0
 12 13  1  0
 13 14  1  0
 15 14  1  6
 16 15  1  0
 17 15  1  0
 18 17  2  0
 19 20  1  0
 20 22  1  0
 21 20  2  0
 22 23  1  0
 23 24  1  0
 24 25  1  0
 26 25  1  1
 26 28  1  0
 26 27  1  0
 27 17  1  0
 28 29  1  0
 30 28  2  0
M  END
$$$$
