HMR.pdb
     RDKit          3D

 30 30  0  0  1  0  0  0  0  0999 V2000
   20.4807  -20.0760  -13.3710 N   0  0  0  0  0  0  0  0  0  0  0  0
   20.7143  -21.4793  -13.6457 C   0  0  1  0  0  0  0  0  0  0  0  0
   21.9103  -21.6854  -14.5140 C   0  0  0  0  0  0  0  0  0  0  0  0
   21.7892  -21.0060  -15.8233 C   0  0  0  0  0  0  0  0  0  0  0  0
   21.1459  -21.4814  -16.9679 C   0  0  0  0  0  0  0  0  0  0  0  0
   21.2491  -20.5856  -17.9520 N   0  0  0  0  0  0  0  0  0  0  0  0
   21.9421  -19.5457  -17.4707 C   0  0  0  0  0  0  0  0  0  0  0  0
   22.2691  -19.7944  -16.1903 N   0  0  0  0  0  0  0  0  0  0  0  0
   20.8841  -22.1750  -12.3265 C   0  0  0  0  0  0  0  0  0  0  0  0
   21.0619  -23.4181  -12.3396 O   0  0  0  0  0  0  0  0  0  0  0  0
   24.4554  -20.9033   -6.7892 C   0  0  0  0  0  0  0  0  0  0  0  0
   24.1672  -19.9165   -8.2811 S   0  0  0  0  0  0  0  0  0  0  0  0
   23.1695  -20.8973   -9.4951 C   0  0  0  0  0  0  0  0  0  0  0  0
   21.8758  -21.2411   -8.8322 C   0  0  0  0  0  0  0  0  0  0  0  0
   20.9871  -22.0236   -9.7847 C   0  0  2  0  0  0  0  0  0  0  0  0
   20.8514  -21.4926  -11.0876 N   0  0  0  0  0  0  0  0  0  0  0  0
   19.7840  -22.5478   -9.1465 C   0  0  0  0  0  0  0  0  0  0  0  0
   18.7483  -21.7956   -9.1533 O   0  0  0  0  0  0  0  0  0  0  0  0
   20.6675  -28.2811  -11.2586 N   0  0  0  0  0  0  0  0  0  0  0  0
   19.5180  -28.1386  -12.0983 C   0  0  0  0  0  0  0  0  0  0  0  0
   19.6078  -28.3258  -13.3639 N   0  0  0  0  0  0  0  0  0  0  0  0
   18.2678  -27.7894  -11.5315 N   0  0  0  0  0  0  0  0  0  0  0  0
   18.0925  -27.5538  -10.1118 C   0  0  0  0  0  0  0  0  0  0  0  0
   18.3166  -26.1202   -9.7643 C   0  0  0  0  0  0  0  0  0  0  0  0
   18.1130  -25.6990   -8.3757 C   0  0  0  0  0  0  0  0  0  0  0  0
   18.3717  -24.2913   -7.9898 C   0  0  2  0  0  0  0  0  0  0  0  0
   19.6544  -23.8088   -8.5220 N   0  0  0  0  0  0  0  0  0  0  0  0
   18.2780  -23.9866   -6.5474 C   0  0  0  0  0  0  0  0  0  0  0  0
   17.0472  -23.9723   -5.9244 O   0  0  0  0  0  0  0  0  0  0  0  0
   19.2816  -23.7296   -5.8319 O   0  0  0  0  0  0  0  0  0  0  0  0
  2  1  1  1
  2  9  1  0
  2  3  1  0
  3  4  1  0
  4  8  1  0
  5  6  1  0
  5  4  2  0
  6  7  1  0
  7  8  2  0
  9 16  1  0
 10  9  2  0
 11 12  1  0
 12 13  1  0
 13 14  1  0
 15 14  1  1
 16 15  1  0
 17 15  1  0
 18 17  2  0
 19 20  1  0
 20 22  1  0
 21 20  2  0
 22 23  1  0
 23 24  1  0
 24 25  1  0
 26 25  1  1
 26 28  1  0
 26 27  1  0
 27 17  1  0
 28 29  1  0
 30 28  2  0
M  END
$$$$
