HMR.pdb
     RDKit          3D

 30 30  0  0  1  0  0  0  0  0999 V2000
   16.9356  -25.0322  -12.1304 N   0  0  0  0  0  0  0  0  0  0  0  0
   18.0109  -25.0693  -11.1598 C   0  0  1  0  0  0  0  0  0  0  0  0
   18.5212  -23.7038  -10.8414 C   0  0  0  0  0  0  0  0  0  0  0  0
   19.2283  -23.0783  -11.9813 C   0  0  0  0  0  0  0  0  0  0  0  0
   19.7274  -23.7139  -13.1202 C   0  0  0  0  0  0  0  0  0  0  0  0
   20.3022  -22.8178  -13.9252 N   0  0  0  0  0  0  0  0  0  0  0  0
   20.1860  -21.6216  -13.3342 C   0  0  0  0  0  0  0  0  0  0  0  0
   19.5406  -21.7738  -12.1644 N   0  0  0  0  0  0  0  0  0  0  0  0
   17.4830  -25.7445   -9.9275 C   0  0  0  0  0  0  0  0  0  0  0  0
   16.3925  -25.3351   -9.4581 O   0  0  0  0  0  0  0  0  0  0  0  0
   17.6682  -32.1429   -8.3299 C   0  0  0  0  0  0  0  0  0  0  0  0
   18.1985  -31.3584   -6.7853 S   0  0  0  0  0  0  0  0  0  0  0  0
   17.6789  -29.5804   -6.7778 C   0  0  0  0  0  0  0  0  0  0  0  0
   18.2086  -28.9574   -8.0279 C   0  0  0  0  0  0  0  0  0  0  0  0
   17.7975  -27.4964   -8.1037 C   0  0  2  0  0  0  0  0  0  0  0  0
   18.1583  -26.8086   -9.2847 N   0  0  0  0  0  0  0  0  0  0  0  0
   17.9630  -26.7876   -6.8388 C   0  0  0  0  0  0  0  0  0  0  0  0
   19.0802  -26.1924   -6.6486 O   0  0  0  0  0  0  0  0  0  0  0  0
   12.3837  -22.8929   -0.8835 N   0  0  0  0  0  0  0  0  0  0  0  0
   13.7243  -22.5940   -0.4835 C   0  0  0  0  0  0  0  0  0  0  0  0
   13.9499  -21.8247    0.5176 N   0  0  0  0  0  0  0  0  0  0  0  0
   14.8149  -23.1512   -1.1950 N   0  0  0  0  0  0  0  0  0  0  0  0
   14.6406  -23.9419   -2.3976 C   0  0  0  0  0  0  0  0  0  0  0  0
   15.9403  -24.4903   -2.8838 C   0  0  0  0  0  0  0  0  0  0  0  0
   15.9470  -25.2749   -4.1214 C   0  0  0  0  0  0  0  0  0  0  0  0
   17.2169  -25.8614   -4.6123 C   0  0  2  0  0  0  0  0  0  0  0  0
   17.0052  -26.6961   -5.8038 N   0  0  0  0  0  0  0  0  0  0  0  0
   18.0180  -26.6003   -3.6151 C   0  0  0  0  0  0  0  0  0  0  0  0
   18.9563  -25.9342   -2.8541 O   0  0  0  0  0  0  0  0  0  0  0  0
   17.8947  -27.8369   -3.4133 O   0  0  0  0  0  0  0  0  0  0  0  0
  2  1  1  6
  2  9  1  0
  2  3  1  0
  3  4  1  0
  4  8  1  0
  5  6  1  0
  5  4  2  0
  6  7  1  0
  7  8  2  0
  9 16  1  0
 10  9  2  0
 11 12  1  0
 12 13  1  0
 13 14  1  0
 15 14  1  1
 16 15  1  0
 17 15  1  0
 18 17  2  0
 19 20  1  0
 20 22  1  0
 21 20  2  0
 22 23  1  0
 23 24  1  0
 24 25  1  0
 26 25  1  1
 26 28  1  0
 26 27  1  0
 27 17  1  0
 28 29  1  0
 30 28  2  0
M  END
$$$$
