HMR.pdb
     RDKit          3D

 30 30  0  0  1  0  0  0  0  0999 V2000
   27.9086  -21.5867  -15.8637 N   0  0  0  0  0  0  0  0  0  0  0  0
   27.3369  -20.5226  -15.0635 C   0  0  1  0  0  0  0  0  0  0  0  0
   26.7330  -19.4522  -15.9097 C   0  0  0  0  0  0  0  0  0  0  0  0
   27.7432  -18.7040  -16.6910 C   0  0  0  0  0  0  0  0  0  0  0  0
   27.9374  -18.7342  -18.0736 C   0  0  0  0  0  0  0  0  0  0  0  0
   28.9452  -17.9257  -18.4084 N   0  0  0  0  0  0  0  0  0  0  0  0
   29.4050  -17.3756  -17.2773 C   0  0  0  0  0  0  0  0  0  0  0  0
   28.6847  -17.8411  -16.2415 N   0  0  0  0  0  0  0  0  0  0  0  0
   26.3059  -21.1391  -14.1635 C   0  0  0  0  0  0  0  0  0  0  0  0
   25.6349  -22.0998  -14.6151 O   0  0  0  0  0  0  0  0  0  0  0  0
   25.0685  -20.6191   -7.2889 C   0  0  0  0  0  0  0  0  0  0  0  0
   26.5830  -20.6882   -8.2809 S   0  0  0  0  0  0  0  0  0  0  0  0
   26.2068  -21.4087   -9.9454 C   0  0  0  0  0  0  0  0  0  0  0  0
   25.1123  -20.5893  -10.5471 C   0  0  0  0  0  0  0  0  0  0  0  0
   24.9459  -20.9313  -12.0184 C   0  0  2  0  0  0  0  0  0  0  0  0
   26.0653  -20.6847  -12.8454 N   0  0  0  0  0  0  0  0  0  0  0  0
   23.6325  -20.5745  -12.5451 C   0  0  0  0  0  0  0  0  0  0  0  0
   23.2987  -19.3401  -12.4853 O   0  0  0  0  0  0  0  0  0  0  0  0
   16.5071  -23.5616  -12.5254 N   0  0  0  0  0  0  0  0  0  0  0  0
   16.6978  -24.5132  -13.5764 C   0  0  0  0  0  0  0  0  0  0  0  0
   15.6958  -25.1287  -14.0884 N   0  0  0  0  0  0  0  0  0  0  0  0
   18.0020  -24.7803  -14.0599 N   0  0  0  0  0  0  0  0  0  0  0  0
   19.1964  -24.4567  -13.3046 C   0  0  0  0  0  0  0  0  0  0  0  0
   19.3694  -22.9816  -13.1617 C   0  0  0  0  0  0  0  0  0  0  0  0
   20.5665  -22.4825  -12.4798 C   0  0  0  0  0  0  0  0  0  0  0  0
   21.2439  -21.2637  -12.9830 C   0  0  2  0  0  0  0  0  0  0  0  0
   22.6944  -21.4637  -13.1160 N   0  0  0  0  0  0  0  0  0  0  0  0
   20.9733  -20.0171  -12.2382 C   0  0  0  0  0  0  0  0  0  0  0  0
   20.1784  -19.0384  -12.7980 O   0  0  0  0  0  0  0  0  0  0  0  0
   21.4392  -19.7857  -11.0917 O   0  0  0  0  0  0  0  0  0  0  0  0
  2  1  1  6
  2  9  1  0
  2  3  1  0
  3  4  1  0
  4  8  1  0
  5  6  1  0
  5  4  2  0
  6  7  1  0
  7  8  2  0
  9 16  1  0
 10  9  2  0
 11 12  1  0
 12 13  1  0
 13 14  1  0
 15 14  1  1
 16 15  1  0
 17 15  1  0
 18 17  2  0
 19 20  1  0
 20 22  1  0
 21 20  2  0
 22 23  1  0
 23 24  1  0
 24 25  1  0
 26 25  1  1
 26 28  1  0
 26 27  1  0
 27 17  1  0
 28 29  1  0
 30 28  2  0
M  END
$$$$
