HMR.pdb
     RDKit          3D

 30 30  0  0  1  0  0  0  0  0999 V2000
   27.3221  -20.1042  -17.4425 N   0  0  0  0  0  0  0  0  0  0  0  0
   27.0488  -18.9936  -18.3322 C   0  0  1  0  0  0  0  0  0  0  0  0
   26.6455  -19.4559  -19.6924 C   0  0  0  0  0  0  0  0  0  0  0  0
   27.7089  -20.2301  -20.3710 C   0  0  0  0  0  0  0  0  0  0  0  0
   27.7597  -21.6126  -20.5615 C   0  0  0  0  0  0  0  0  0  0  0  0
   28.8758  -21.9401  -21.2160 N   0  0  0  0  0  0  0  0  0  0  0  0
   29.5450  -20.8043  -21.4520 C   0  0  0  0  0  0  0  0  0  0  0  0
   28.8465  -19.7730  -20.9452 N   0  0  0  0  0  0  0  0  0  0  0  0
   25.9639  -18.1685  -17.7035 C   0  0  0  0  0  0  0  0  0  0  0  0
   25.0545  -18.7730  -17.0834 O   0  0  0  0  0  0  0  0  0  0  0  0
   25.7738  -11.5803  -18.3608 C   0  0  0  0  0  0  0  0  0  0  0  0
   24.6072  -11.8009  -16.9922 S   0  0  0  0  0  0  0  0  0  0  0  0
   24.1132  -13.5822  -16.8740 C   0  0  0  0  0  0  0  0  0  0  0  0
   25.2175  -14.3902  -17.4731 C   0  0  0  0  0  0  0  0  0  0  0  0
   24.9158  -15.8739  -17.3422 C   0  0  2  0  0  0  0  0  0  0  0  0
   25.9282  -16.7564  -17.7828 N   0  0  0  0  0  0  0  0  0  0  0  0
   23.5378  -16.2113  -17.6845 C   0  0  0  0  0  0  0  0  0  0  0  0
   23.3430  -16.7820  -18.8137 O   0  0  0  0  0  0  0  0  0  0  0  0
   21.0812  -21.7544  -17.5593 N   0  0  0  0  0  0  0  0  0  0  0  0
   19.6827  -21.8727  -17.8367 C   0  0  0  0  0  0  0  0  0  0  0  0
   19.0642  -22.9734  -17.6115 N   0  0  0  0  0  0  0  0  0  0  0  0
   18.9707  -20.7673  -18.3632 N   0  0  0  0  0  0  0  0  0  0  0  0
   19.5673  -19.4547  -18.5149 C   0  0  0  0  0  0  0  0  0  0  0  0
   19.9624  -18.8787  -17.1965 C   0  0  0  0  0  0  0  0  0  0  0  0
   21.1865  -18.0763  -17.1246 C   0  0  0  0  0  0  0  0  0  0  0  0
   21.0983  -16.5971  -17.1629 C   0  0  2  0  0  0  0  0  0  0  0  0
   22.3978  -15.9677  -16.8859 N   0  0  0  0  0  0  0  0  0  0  0  0
   20.0525  -15.9877  -16.3161 C   0  0  0  0  0  0  0  0  0  0  0  0
   18.7536  -15.9090  -16.7743 O   0  0  0  0  0  0  0  0  0  0  0  0
   20.2814  -15.5202  -15.1697 O   0  0  0  0  0  0  0  0  0  0  0  0
  2  1  1  1
  2  9  1  0
  2  3  1  0
  3  4  1  0
  4  8  1  0
  5  6  1  0
  5  4  2  0
  6  7  1  0
  7  8  2  0
  9 16  1  0
 10  9  2  0
 11 12  1  0
 12 13  1  0
 13 14  1  0
 15 14  1  6
 16 15  1  0
 17 15  1  0
 18 17  2  0
 19 20  1  0
 20 22  1  0
 21 20  2  0
 22 23  1  0
 23 24  1  0
 24 25  1  0
 26 25  1  1
 26 28  1  0
 26 27  1  0
 27 17  1  0
 28 29  1  0
 30 28  2  0
M  END
$$$$
