HMR.pdb
     RDKit          3D

 30 30  0  0  1  0  0  0  0  0999 V2000
   29.1272  -21.7428  -16.9401 N   0  0  0  0  0  0  0  0  0  0  0  0
   28.0612  -22.7019  -17.1478 C   0  0  1  0  0  0  0  0  0  0  0  0
   28.5469  -24.1081  -17.0327 C   0  0  0  0  0  0  0  0  0  0  0  0
   30.0234  -24.2063  -17.0602 C   0  0  0  0  0  0  0  0  0  0  0  0
   30.8720  -24.5131  -15.9945 C   0  0  0  0  0  0  0  0  0  0  0  0
   32.1410  -24.5067  -16.4079 N   0  0  0  0  0  0  0  0  0  0  0  0
   32.1316  -24.2036  -17.7124 C   0  0  0  0  0  0  0  0  0  0  0  0
   30.8596  -24.0221  -18.1090 N   0  0  0  0  0  0  0  0  0  0  0  0
   26.9950  -22.4186  -16.1299 C   0  0  0  0  0  0  0  0  0  0  0  0
   25.9883  -23.1693  -16.1133 O   0  0  0  0  0  0  0  0  0  0  0  0
   24.7746  -20.8615   -9.2287 C   0  0  0  0  0  0  0  0  0  0  0  0
   26.0907  -20.9705  -10.4690 S   0  0  0  0  0  0  0  0  0  0  0  0
   25.5807  -20.0642  -12.0018 C   0  0  0  0  0  0  0  0  0  0  0  0
   26.6674  -20.2492  -13.0098 C   0  0  0  0  0  0  0  0  0  0  0  0
   26.1222  -20.9319  -14.2532 C   0  0  2  0  0  0  0  0  0  0  0  0
   27.0806  -21.3533  -15.2029 N   0  0  0  0  0  0  0  0  0  0  0  0
   24.9042  -20.3095  -14.7618 C   0  0  0  0  0  0  0  0  0  0  0  0
   25.0425  -19.2369  -15.4468 O   0  0  0  0  0  0  0  0  0  0  0  0
   19.3805  -23.3477  -11.5154 N   0  0  0  0  0  0  0  0  0  0  0  0
   18.4580  -22.2821  -11.7607 C   0  0  0  0  0  0  0  0  0  0  0  0
   17.6182  -21.9261  -10.8592 N   0  0  0  0  0  0  0  0  0  0  0  0
   18.4694  -21.6107  -13.0078 N   0  0  0  0  0  0  0  0  0  0  0  0
   19.3582  -21.9873  -14.0895 C   0  0  0  0  0  0  0  0  0  0  0  0
   20.0003  -20.7920  -14.7101 C   0  0  0  0  0  0  0  0  0  0  0  0
   21.2376  -20.2779  -14.1169 C   0  0  0  0  0  0  0  0  0  0  0  0
   22.4084  -20.0026  -14.9834 C   0  0  2  0  0  0  0  0  0  0  0  0
   23.5856  -20.7800  -14.5697 N   0  0  0  0  0  0  0  0  0  0  0  0
   22.7749  -18.5809  -15.1457 C   0  0  0  0  0  0  0  0  0  0  0  0
   23.3089  -17.8810  -14.0835 O   0  0  0  0  0  0  0  0  0  0  0  0
   22.6233  -17.9501  -16.2248 O   0  0  0  0  0  0  0  0  0  0  0  0
  2  1  1  1
  2  9  1  0
  2  3  1  0
  3  4  1  0
  4  8  1  0
  5  6  1  0
  5  4  2  0
  6  7  1  0
  7  8  2  0
  9 16  1  0
 10  9  2  0
 11 12  1  0
 12 13  1  0
 13 14  1  0
 15 14  1  1
 16 15  1  0
 17 15  1  0
 18 17  2  0
 19 20  1  0
 20 22  1  0
 21 20  2  0
 22 23  1  0
 23 24  1  0
 24 25  1  0
 26 25  1  1
 26 28  1  0
 26 27  1  0
 27 17  1  0
 28 29  1  0
 30 28  2  0
M  END
$$$$
