HMR.pdb
     RDKit          3D

 30 30  0  0  1  0  0  0  0  0999 V2000
   23.1988  -18.0689  -16.0682 N   0  0  0  0  0  0  0  0  0  0  0  0
   22.8145  -18.8630  -14.9189 C   0  0  1  0  0  0  0  0  0  0  0  0
   21.7969  -19.8961  -15.2708 C   0  0  0  0  0  0  0  0  0  0  0  0
   20.4918  -19.3075  -15.6460 C   0  0  0  0  0  0  0  0  0  0  0  0
   19.3618  -19.1678  -14.8375 C   0  0  0  0  0  0  0  0  0  0  0  0
   18.3769  -18.5909  -15.5292 N   0  0  0  0  0  0  0  0  0  0  0  0
   18.8434  -18.3553  -16.7623 C   0  0  0  0  0  0  0  0  0  0  0  0
   20.1155  -18.7850  -16.8369 N   0  0  0  0  0  0  0  0  0  0  0  0
   24.0594  -19.5012  -14.3749 C   0  0  0  0  0  0  0  0  0  0  0  0
   24.9402  -19.8580  -15.1959 O   0  0  0  0  0  0  0  0  0  0  0  0
   25.4875  -20.0954   -7.7782 C   0  0  0  0  0  0  0  0  0  0  0  0
   27.0534  -20.3479   -8.6539 S   0  0  0  0  0  0  0  0  0  0  0  0
   26.7163  -20.9137  -10.3852 C   0  0  0  0  0  0  0  0  0  0  0  0
   25.5939  -20.0818  -10.9139 C   0  0  0  0  0  0  0  0  0  0  0  0
   25.3080  -20.4419  -12.3623 C   0  0  2  0  0  0  0  0  0  0  0  0
   24.2739  -19.7129  -12.9926 N   0  0  0  0  0  0  0  0  0  0  0  0
   25.3681  -21.8772  -12.6191 C   0  0  0  0  0  0  0  0  0  0  0  0
   24.5707  -22.6210  -11.9486 O   0  0  0  0  0  0  0  0  0  0  0  0
   21.7280  -26.2862  -17.6015 N   0  0  0  0  0  0  0  0  0  0  0  0
   21.4890  -26.7078  -16.2555 C   0  0  0  0  0  0  0  0  0  0  0  0
   21.0780  -27.8972  -16.0080 N   0  0  0  0  0  0  0  0  0  0  0  0
   21.7079  -25.8081  -15.1837 N   0  0  0  0  0  0  0  0  0  0  0  0
   22.1596  -24.4456  -15.3876 C   0  0  0  0  0  0  0  0  0  0  0  0
   23.6488  -24.3641  -15.4281 C   0  0  0  0  0  0  0  0  0  0  0  0
   24.3579  -23.9492  -14.2146 C   0  0  0  0  0  0  0  0  0  0  0  0
   25.8254  -23.7442  -14.2554 C   0  0  2  0  0  0  0  0  0  0  0  0
   26.2238  -22.5235  -13.5394 N   0  0  0  0  0  0  0  0  0  0  0  0
   26.4465  -23.7678  -15.5954 C   0  0  0  0  0  0  0  0  0  0  0  0
   26.6425  -24.9699  -16.2434 O   0  0  0  0  0  0  0  0  0  0  0  0
   26.8207  -22.7280  -16.1987 O   0  0  0  0  0  0  0  0  0  0  0  0
  2  1  1  6
  2  9  1  0
  2  3  1  0
  3  4  1  0
  4  8  1  0
  5  6  1  0
  5  4  2  0
  6  7  1  0
  7  8  2  0
  9 16  1  0
 10  9  2  0
 11 12  1  0
 12 13  1  0
 13 14  1  0
 15 14  1  1
 16 15  1  0
 17 15  1  0
 18 17  2  0
 19 20  1  0
 20 22  1  0
 21 20  2  0
 22 23  1  0
 23 24  1  0
 24 25  1  0
 26 25  1  6
 26 28  1  0
 26 27  1  0
 27 17  1  0
 28 29  1  0
 30 28  2  0
M  END
$$$$
