GVN.pdb
     RDKit          3D

 20 19  0  0  1  0  0  0  0  0999 V2000
    7.5990  -14.5380   20.2264 N   0  0  0  0  0  0  0  0  0  0  0  0
    6.8678  -14.7567   21.4580 C   0  0  0  0  0  0  0  0  0  0  0  0
    7.6596  -14.2362   22.5737 C   0  0  0  0  0  0  0  0  0  0  0  0
    8.9109  -14.2153   22.5276 O   0  0  0  0  0  0  0  0  0  0  0  0
    7.7093  -12.8325   27.3334 C   0  0  0  0  0  0  0  0  0  0  0  0
    6.9405  -13.0463   26.0516 C   0  0  1  0  0  0  0  0  0  0  0  0
    6.4580  -11.7282   25.5025 C   0  0  0  0  0  0  0  0  0  0  0  0
    7.7257  -13.8482   25.0411 C   0  0  2  0  0  0  0  0  0  0  0  0
    7.0745  -13.7214   23.7790 N   0  0  0  0  0  0  0  0  0  0  0  0
    7.9891  -15.2200   25.4595 C   0  0  0  0  0  0  0  0  0  0  0  0
    7.3747  -16.1822   24.9371 O   0  0  0  0  0  0  0  0  0  0  0  0
   11.8504  -18.4384   24.0562 N   0  0  0  0  0  0  0  0  0  0  0  0
   10.7861  -17.5546   24.3349 C   0  0  0  0  0  0  0  0  0  0  0  0
    9.7285  -17.6576   23.6838 O   0  0  0  0  0  0  0  0  0  0  0  0
   10.9069  -16.5195   25.3773 C   0  0  0  0  0  0  0  0  0  0  0  0
    9.8701  -16.5874   26.4448 C   0  0  2  0  0  0  0  0  0  0  0  0
    8.9417  -15.5055   26.4632 N   0  0  0  0  0  0  0  0  0  0  0  0
   10.4959  -16.8128   27.7674 C   0  0  0  0  0  0  0  0  0  0  0  0
   10.4343  -18.0475   28.3966 O   0  0  0  0  0  0  0  0  0  0  0  0
   11.0898  -15.8832   28.3314 O   0  0  0  0  0  0  0  0  0  0  0  0
  2  1  1  0
  3  9  1  0
  3  2  1  0
  4  3  2  0
  6  5  1  1
  6  8  1  0
  7  6  1  0
  8 10  1  0
  8  9  1  6
 10 11  2  0
 13 12  1  0
 14 13  2  0
 15 13  1  0
 16 15  1  6
 17 16  1  0
 17 10  1  0
 18 19  1  0
 18 16  1  0
 20 18  2  0
M  END
$$$$
