GVN.pdb
     RDKit          3D

 20 19  0  0  1  0  0  0  0  0999 V2000
    6.9884  -15.0817   21.0000 N   0  0  0  0  0  0  0  0  0  0  0  0
    6.3236  -15.0286   22.2863 C   0  0  0  0  0  0  0  0  0  0  0  0
    7.2712  -14.5316   23.2851 C   0  0  0  0  0  0  0  0  0  0  0  0
    8.5006  -14.4910   23.0500 O   0  0  0  0  0  0  0  0  0  0  0  0
    6.8418  -11.3828   25.6562 C   0  0  0  0  0  0  0  0  0  0  0  0
    7.2033  -12.6220   26.4395 C   0  0  1  0  0  0  0  0  0  0  0  0
    6.0083  -13.1248   27.2079 C   0  0  0  0  0  0  0  0  0  0  0  0
    7.8287  -13.6861   25.5693 C   0  0  2  0  0  0  0  0  0  0  0  0
    6.8718  -14.0633   24.5817 N   0  0  0  0  0  0  0  0  0  0  0  0
    8.4019  -14.7957   26.3221 C   0  0  0  0  0  0  0  0  0  0  0  0
    7.6790  -15.7346   26.7368 O   0  0  0  0  0  0  0  0  0  0  0  0
   11.1317  -17.6408   24.7698 N   0  0  0  0  0  0  0  0  0  0  0  0
   11.7927  -16.5307   25.3377 C   0  0  0  0  0  0  0  0  0  0  0  0
   12.4032  -15.7430   24.5895 O   0  0  0  0  0  0  0  0  0  0  0  0
   11.7711  -16.2918   26.7920 C   0  0  0  0  0  0  0  0  0  0  0  0
   10.4473  -15.8770   27.3349 C   0  0  2  0  0  0  0  0  0  0  0  0
    9.7851  -14.8460   26.6061 N   0  0  0  0  0  0  0  0  0  0  0  0
   10.5485  -15.5677   28.7791 C   0  0  0  0  0  0  0  0  0  0  0  0
   10.2603  -14.3030   29.2706 O   0  0  0  0  0  0  0  0  0  0  0  0
   10.8977  -16.4526   29.5729 O   0  0  0  0  0  0  0  0  0  0  0  0
  2  1  1  0
  3  9  1  0
  3  2  1  0
  4  3  2  0
  6  5  1  6
  6  8  1  0
  7  6  1  0
  8 10  1  0
  8  9  1  6
 10 11  2  0
 13 12  1  0
 14 13  2  0
 15 13  1  0
 16 15  1  6
 17 16  1  0
 17 10  1  0
 18 19  1  0
 18 16  1  0
 20 18  2  0
M  END
$$$$
