GVN.pdb
     RDKit          3D

 20 19  0  0  1  0  0  0  0  0999 V2000
    8.1429  -16.9900   15.3034 N   0  0  0  0  0  0  0  0  0  0  0  0
    7.3495  -16.8447   16.5071 C   0  0  0  0  0  0  0  0  0  0  0  0
    8.1662  -16.1936   17.5326 C   0  0  0  0  0  0  0  0  0  0  0  0
    9.3982  -16.4041   17.6119 O   0  0  0  0  0  0  0  0  0  0  0  0
    6.4164  -13.8300   20.7372 C   0  0  0  0  0  0  0  0  0  0  0  0
    7.7463  -13.5223   20.0918 C   0  0  1  0  0  0  0  0  0  0  0  0
    8.6185  -12.7351   21.0357 C   0  0  0  0  0  0  0  0  0  0  0  0
    8.4266  -14.7633   19.5647 C   0  0  2  0  0  0  0  0  0  0  0  0
    7.6285  -15.2842   18.5041 N   0  0  0  0  0  0  0  0  0  0  0  0
    8.7710  -15.7278   20.6028 C   0  0  0  0  0  0  0  0  0  0  0  0
    7.9572  -16.6183   20.9505 O   0  0  0  0  0  0  0  0  0  0  0  0
   13.1321  -17.2193   19.9436 N   0  0  0  0  0  0  0  0  0  0  0  0
   12.2254  -17.7497   20.8860 C   0  0  0  0  0  0  0  0  0  0  0  0
   11.6925  -18.8529   20.6576 O   0  0  0  0  0  0  0  0  0  0  0  0
   11.9023  -17.0228   22.1269 C   0  0  0  0  0  0  0  0  0  0  0  0
   10.4795  -16.5980   22.2468 C   0  0  2  0  0  0  0  0  0  0  0  0
   10.0283  -15.6880   21.2462 N   0  0  0  0  0  0  0  0  0  0  0  0
   10.1920  -16.1147   23.6162 C   0  0  0  0  0  0  0  0  0  0  0  0
   10.3336  -16.9419   24.7206 O   0  0  0  0  0  0  0  0  0  0  0  0
    9.8162  -14.9467   23.7881 O   0  0  0  0  0  0  0  0  0  0  0  0
  2  1  1  0
  3  9  1  0
  3  2  1  0
  4  3  2  0
  6  5  1  1
  6  8  1  0
  7  6  1  0
  8 10  1  0
  8  9  1  6
 10 11  2  0
 13 12  1  0
 14 13  2  0
 15 13  1  0
 16 15  1  1
 17 16  1  0
 17 10  1  0
 18 19  1  0
 18 16  1  0
 20 18  2  0
M  END
$$$$
