GVN.pdb
     RDKit          3D

 20 19  0  0  1  0  0  0  0  0999 V2000
    4.8861  -17.8863   22.8613 N   0  0  0  0  0  0  0  0  0  0  0  0
    5.0014  -17.3716   24.2108 C   0  0  0  0  0  0  0  0  0  0  0  0
    6.0030  -16.3042   24.2229 C   0  0  0  0  0  0  0  0  0  0  0  0
    6.8618  -16.2095   23.3163 O   0  0  0  0  0  0  0  0  0  0  0  0
    8.2424  -12.7777   26.9384 C   0  0  0  0  0  0  0  0  0  0  0  0
    7.0000  -13.5345   26.5339 C   0  0  1  0  0  0  0  0  0  0  0  0
    5.9737  -12.5912   25.9609 C   0  0  0  0  0  0  0  0  0  0  0  0
    7.3096  -14.6909   25.6132 C   0  0  2  0  0  0  0  0  0  0  0  0
    6.0753  -15.3069   25.2525 N   0  0  0  0  0  0  0  0  0  0  0  0
    8.3191  -15.6030   26.1379 C   0  0  0  0  0  0  0  0  0  0  0  0
    8.0947  -16.2916   27.1635 O   0  0  0  0  0  0  0  0  0  0  0  0
   11.5023  -19.5821   23.2258 N   0  0  0  0  0  0  0  0  0  0  0  0
   10.8443  -19.1147   24.3835 C   0  0  0  0  0  0  0  0  0  0  0  0
   10.9305  -19.7759   25.4363 O   0  0  0  0  0  0  0  0  0  0  0  0
   10.0627  -17.8652   24.3649 C   0  0  0  0  0  0  0  0  0  0  0  0
   10.3684  -16.9233   25.4778 C   0  0  2  0  0  0  0  0  0  0  0  0
    9.5769  -15.7379   25.5085 N   0  0  0  0  0  0  0  0  0  0  0  0
   11.8188  -16.6317   25.5319 C   0  0  0  0  0  0  0  0  0  0  0  0
   12.4086  -15.7277   24.6606 O   0  0  0  0  0  0  0  0  0  0  0  0
   12.5285  -17.2034   26.3712 O   0  0  0  0  0  0  0  0  0  0  0  0
  2  1  1  0
  3  9  1  0
  3  2  1  0
  4  3  2  0
  6  5  1  6
  6  8  1  0
  7  6  1  0
  8 10  1  0
  8  9  1  1
 10 11  2  0
 13 12  1  0
 14 13  2  0
 15 13  1  0
 16 15  1  6
 17 16  1  0
 17 10  1  0
 18 19  1  0
 18 16  1  0
 20 18  2  0
M  END
$$$$
