GVN.pdb
     RDKit          3D

 20 19  0  0  1  0  0  0  0  0999 V2000
    7.0000  -16.2052   21.2530 N   0  0  0  0  0  0  0  0  0  0  0  0
    6.3313  -15.8741   22.4950 C   0  0  0  0  0  0  0  0  0  0  0  0
    7.2867  -15.2047   23.3793 C   0  0  0  0  0  0  0  0  0  0  0  0
    8.5217  -15.3197   23.2067 O   0  0  0  0  0  0  0  0  0  0  0  0
    7.0972  -11.5485   24.9175 C   0  0  0  0  0  0  0  0  0  0  0  0
    7.3016  -12.5918   25.9897 C   0  0  1  0  0  0  0  0  0  0  0  0
    6.0373  -12.7783   26.7887 C   0  0  0  0  0  0  0  0  0  0  0  0
    7.8365  -13.8887   25.4308 C   0  0  2  0  0  0  0  0  0  0  0  0
    6.8889  -14.3837   24.4873 N   0  0  0  0  0  0  0  0  0  0  0  0
    8.2386  -14.8458   26.4549 C   0  0  0  0  0  0  0  0  0  0  0  0
    7.4046  -15.6357   26.9616 O   0  0  0  0  0  0  0  0  0  0  0  0
   13.1256  -17.8025   28.4980 N   0  0  0  0  0  0  0  0  0  0  0  0
   11.7715  -17.7428   28.1051 C   0  0  0  0  0  0  0  0  0  0  0  0
   10.9857  -18.6219   28.5085 O   0  0  0  0  0  0  0  0  0  0  0  0
   11.2774  -16.6636   27.2311 C   0  0  0  0  0  0  0  0  0  0  0  0
   10.1132  -15.9082   27.7725 C   0  0  2  0  0  0  0  0  0  0  0  0
    9.5761  -14.9118   26.9056 N   0  0  0  0  0  0  0  0  0  0  0  0
   10.4168  -15.3757   29.1201 C   0  0  0  0  0  0  0  0  0  0  0  0
   10.6433  -16.2191   30.1978 O   0  0  0  0  0  0  0  0  0  0  0  0
   10.4715  -14.1507   29.2975 O   0  0  0  0  0  0  0  0  0  0  0  0
  2  1  1  0
  3  9  1  0
  3  2  1  0
  4  3  2  0
  6  5  1  6
  6  8  1  0
  7  6  1  0
  8 10  1  0
  8  9  1  1
 10 11  2  0
 13 12  1  0
 14 13  2  0
 15 13  1  0
 16 15  1  6
 17 16  1  0
 17 10  1  0
 18 19  1  0
 18 16  1  0
 20 18  2  0
M  END
$$$$
