GVN.pdb
     RDKit          3D

 20 19  0  0  1  0  0  0  0  0999 V2000
    7.0434  -13.9206   20.4815 N   0  0  0  0  0  0  0  0  0  0  0  0
    6.3936  -14.2082   21.7442 C   0  0  0  0  0  0  0  0  0  0  0  0
    7.3906  -14.1342   22.8135 C   0  0  0  0  0  0  0  0  0  0  0  0
    8.5988  -14.3788   22.5927 O   0  0  0  0  0  0  0  0  0  0  0  0
    7.4995  -11.5222   25.8745 C   0  0  0  0  0  0  0  0  0  0  0  0
    7.5938  -12.9586   26.3301 C   0  0  1  0  0  0  0  0  0  0  0  0
    6.3040  -13.3891   26.9803 C   0  0  0  0  0  0  0  0  0  0  0  0
    8.0247  -13.8841   25.2173 C   0  0  2  0  0  0  0  0  0  0  0  0
    7.0659  -13.7832   24.1668 N   0  0  0  0  0  0  0  0  0  0  0  0
    8.3049  -15.2442   25.6625 C   0  0  0  0  0  0  0  0  0  0  0  0
    7.3755  -16.0714   25.8305 O   0  0  0  0  0  0  0  0  0  0  0  0
   11.8992  -16.8766   23.2387 N   0  0  0  0  0  0  0  0  0  0  0  0
   10.9842  -17.5501   24.0757 C   0  0  0  0  0  0  0  0  0  0  0  0
   10.0156  -18.1413   23.5605 O   0  0  0  0  0  0  0  0  0  0  0  0
   11.1568  -17.5641   25.5395 C   0  0  0  0  0  0  0  0  0  0  0  0
   10.0183  -16.9846   26.3058 C   0  0  2  0  0  0  0  0  0  0  0  0
    9.6280  -15.6695   25.9171 N   0  0  0  0  0  0  0  0  0  0  0  0
   10.2609  -17.0909   27.7623 C   0  0  0  0  0  0  0  0  0  0  0  0
   10.2503  -15.9716   28.5817 O   0  0  0  0  0  0  0  0  0  0  0  0
   10.4790  -18.2005   28.2685 O   0  0  0  0  0  0  0  0  0  0  0  0
  2  1  1  0
  3  9  1  0
  3  2  1  0
  4  3  2  0
  6  5  1  6
  6  8  1  0
  7  6  1  0
  8 10  1  0
  8  9  1  6
 10 11  2  0
 13 12  1  0
 14 13  2  0
 15 13  1  0
 16 15  1  6
 17 16  1  0
 17 10  1  0
 18 19  1  0
 18 16  1  0
 20 18  2  0
M  END
$$$$
