GVN.pdb
     RDKit          3D

 20 19  0  0  1  0  0  0  0  0999 V2000
    7.7224  -15.7343   20.8461 N   0  0  0  0  0  0  0  0  0  0  0  0
    6.9795  -15.6524   22.0873 C   0  0  0  0  0  0  0  0  0  0  0  0
    7.7693  -14.8940   23.0588 C   0  0  0  0  0  0  0  0  0  0  0  0
    9.0209  -14.9359   23.0522 O   0  0  0  0  0  0  0  0  0  0  0  0
    5.8246  -13.0992   26.4818 C   0  0  0  0  0  0  0  0  0  0  0  0
    7.1199  -12.5688   25.9153 C   0  0  1  0  0  0  0  0  0  0  0  0
    7.9084  -11.8573   26.9846 C   0  0  0  0  0  0  0  0  0  0  0  0
    7.9197  -13.6419   25.2158 C   0  0  2  0  0  0  0  0  0  0  0  0
    7.1817  -14.0628   24.0707 N   0  0  0  0  0  0  0  0  0  0  0  0
    8.3495  -14.7205   26.0980 C   0  0  0  0  0  0  0  0  0  0  0  0
    7.5837  -15.6791   26.3643 O   0  0  0  0  0  0  0  0  0  0  0  0
   12.2709  -16.2500   24.7074 N   0  0  0  0  0  0  0  0  0  0  0  0
   11.4773  -16.8412   25.7135 C   0  0  0  0  0  0  0  0  0  0  0  0
   10.7725  -17.8278   25.4258 O   0  0  0  0  0  0  0  0  0  0  0  0
   11.4706  -16.3122   27.0893 C   0  0  0  0  0  0  0  0  0  0  0  0
   10.1699  -15.7325   27.5267 C   0  0  2  0  0  0  0  0  0  0  0  0
    9.6381  -14.7179   26.6777 N   0  0  0  0  0  0  0  0  0  0  0  0
   10.2392  -15.3016   28.9413 C   0  0  0  0  0  0  0  0  0  0  0  0
   10.5307  -16.1990   29.9581 O   0  0  0  0  0  0  0  0  0  0  0  0
   10.0335  -14.1148   29.2317 O   0  0  0  0  0  0  0  0  0  0  0  0
  2  1  1  0
  3  9  1  0
  3  2  1  0
  4  3  2  0
  6  5  1  1
  6  8  1  0
  7  6  1  0
  8 10  1  0
  8  9  1  6
 10 11  2  0
 13 12  1  0
 14 13  2  0
 15 13  1  0
 16 15  1  6
 17 16  1  0
 17 10  1  0
 18 19  1  0
 18 16  1  0
 20 18  2  0
M  END
$$$$
