GVN.pdb
     RDKit          3D

 20 19  0  0  1  0  0  0  0  0999 V2000
    5.9083  -18.9369   18.8569 N   0  0  0  0  0  0  0  0  0  0  0  0
    5.6188  -17.9057   19.8326 C   0  0  0  0  0  0  0  0  0  0  0  0
    6.8032  -17.0595   19.9877 C   0  0  0  0  0  0  0  0  0  0  0  0
    7.9351  -17.4544   19.6256 O   0  0  0  0  0  0  0  0  0  0  0  0
    8.8318  -12.6492   20.8188 C   0  0  0  0  0  0  0  0  0  0  0  0
    7.6196  -13.5304   20.6341 C   0  0  1  0  0  0  0  0  0  0  0  0
    6.9514  -13.2348   19.3159 C   0  0  0  0  0  0  0  0  0  0  0  0
    7.9453  -14.9946   20.8090 C   0  0  2  0  0  0  0  0  0  0  0  0
    6.7578  -15.7416   20.5543 N   0  0  0  0  0  0  0  0  0  0  0  0
    8.6023  -15.3011   22.0743 C   0  0  0  0  0  0  0  0  0  0  0  0
    7.9368  -15.4316   23.1308 O   0  0  0  0  0  0  0  0  0  0  0  0
   10.6818  -18.9385   25.1431 N   0  0  0  0  0  0  0  0  0  0  0  0
   11.0845  -18.6722   23.8170 C   0  0  0  0  0  0  0  0  0  0  0  0
   12.1178  -19.2137   23.3787 O   0  0  0  0  0  0  0  0  0  0  0  0
   10.3061  -17.7694   22.9499 C   0  0  0  0  0  0  0  0  0  0  0  0
   10.6969  -16.3344   23.0354 C   0  0  2  0  0  0  0  0  0  0  0  0
   10.0044  -15.4598   22.1476 N   0  0  0  0  0  0  0  0  0  0  0  0
   12.1666  -16.1863   22.9367 C   0  0  0  0  0  0  0  0  0  0  0  0
   12.8160  -16.2099   21.7112 O   0  0  0  0  0  0  0  0  0  0  0  0
   12.8386  -16.0376   23.9669 O   0  0  0  0  0  0  0  0  0  0  0  0
  2  1  1  0
  3  9  1  0
  3  2  1  0
  4  3  2  0
  6  5  1  6
  6  8  1  0
  7  6  1  0
  8 10  1  0
  8  9  1  1
 10 11  2  0
 13 12  1  0
 14 13  2  0
 15 13  1  0
 16 15  1  6
 17 16  1  0
 17 10  1  0
 18 19  1  0
 18 16  1  0
 20 18  2  0
M  END
$$$$
