CFY.pdb
     RDKit          3D

 30 31  0  0  1  0  0  0  0  0999 V2000
    6.6319  -19.5524   20.9795 N   0  0  0  0  0  0  0  0  0  0  0  0
    6.9936  -19.4268   22.3581 C   0  0  1  0  0  0  0  0  0  0  0  0
    8.1646  -20.3183   22.7355 C   0  0  0  0  0  0  0  0  0  0  0  0
    8.5836  -20.1893   24.4760 S   0  0  0  0  0  0  0  0  0  0  0  0
    7.3990  -18.0237   22.7048 C   0  0  0  0  0  0  0  0  0  0  0  0
    8.0568  -17.3754   21.8500 O   0  0  0  0  0  0  0  0  0  0  0  0
    7.0478  -17.4653   23.9487 N   0  0  0  0  0  0  0  0  0  0  0  0
    7.4208  -16.0473   24.2010 C   0  0  1  0  0  0  0  0  0  0  0  0
    6.4517  -15.4707   25.1733 C   0  0  0  0  0  0  0  0  0  0  0  0
    6.6834  -14.0927   25.6129 C   0  0  0  0  0  0  0  0  0  0  0  0
    7.0293  -13.1059   24.6743 C   0  0  0  0  0  0  0  0  0  0  0  0
    7.2133  -11.7997   25.0224 C   0  0  0  0  0  0  0  0  0  0  0  0
    7.0651  -11.3867   26.3309 C   0  0  0  0  0  0  0  0  0  0  0  0
    6.7311  -12.3143   27.2657 C   0  0  0  0  0  0  0  0  0  0  0  0
    6.5475  -13.6335   26.9018 C   0  0  0  0  0  0  0  0  0  0  0  0
    8.7846  -16.1034   24.7267 C   0  0  0  0  0  0  0  0  0  0  0  0
    8.9441  -16.1595   25.9947 O   0  0  0  0  0  0  0  0  0  0  0  0
   10.1629  -15.1148   30.7664 O   0  0  0  0  0  0  0  0  0  0  0  0
   10.4475  -15.6266   29.5027 C   0  0  0  0  0  0  0  0  0  0  0  0
   10.6673  -14.7097   28.4786 C   0  0  0  0  0  0  0  0  0  0  0  0
   10.9522  -15.1665   27.2111 C   0  0  0  0  0  0  0  0  0  0  0  0
   11.0172  -16.5166   26.9675 C   0  0  0  0  0  0  0  0  0  0  0  0
   11.3160  -17.0076   25.6220 C   0  0  0  0  0  0  0  0  0  0  0  0
   11.2187  -15.8576   24.6077 C   0  0  2  0  0  0  0  0  0  0  0  0
    9.9373  -16.1086   23.9281 N   0  0  0  0  0  0  0  0  0  0  0  0
   12.3024  -15.8695   23.6548 C   0  0  0  0  0  0  0  0  0  0  0  0
   12.0961  -16.1510   22.4366 O   0  0  0  0  0  0  0  0  0  0  0  0
   10.8006  -17.4523   27.9780 C   0  0  0  0  0  0  0  0  0  0  0  0
   10.5169  -16.9765   29.2394 C   0  0  0  0  0  0  0  0  0  0  0  0
   13.5983  -15.5811   24.0005 O   0  0  0  0  0  0  0  0  0  0  0  0
  2  1  1  6
  3  2  1  0
  4  3  1  0
  5  6  2  0
  5  2  1  0
  7  5  1  0
  8  7  1  0
  8  9  1  1
 10  9  1  0
 10 11  2  0
 12 11  1  0
 13 12  2  0
 14 15  2  0
 14 13  1  0
 15 10  1  0
 16  8  1  0
 17 16  2  0
 19 29  2  0
 19 18  1  0
 20 19  1  0
 21 22  1  0
 21 20  2  0
 22 28  2  0
 23 22  1  0
 24 23  1  1
 24 25  1  0
 25 16  1  0
 26 24  1  0
 26 30  1  0
 27 26  2  0
 28 29  1  0
M  END
$$$$
