CFY.pdb
     RDKit          3D

 30 31  0  0  1  0  0  0  0  0999 V2000
    9.7044  -17.3755   18.2461 N   0  0  0  0  0  0  0  0  0  0  0  0
    8.8329  -17.5838   19.3614 C   0  0  1  0  0  0  0  0  0  0  0  0
    9.0817  -18.9134   20.0534 C   0  0  0  0  0  0  0  0  0  0  0  0
   10.6967  -18.9817   20.8337 S   0  0  0  0  0  0  0  0  0  0  0  0
    9.0010  -16.5218   20.4090 C   0  0  0  0  0  0  0  0  0  0  0  0
    9.9977  -15.7593   20.3161 O   0  0  0  0  0  0  0  0  0  0  0  0
    8.0664  -16.3955   21.4546 N   0  0  0  0  0  0  0  0  0  0  0  0
    8.2659  -15.2916   22.4317 C   0  0  1  0  0  0  0  0  0  0  0  0
    6.9464  -14.9465   23.0291 C   0  0  0  0  0  0  0  0  0  0  0  0
    6.9415  -13.9798   24.1296 C   0  0  0  0  0  0  0  0  0  0  0  0
    7.3274  -12.6490   23.8960 C   0  0  0  0  0  0  0  0  0  0  0  0
    7.2995  -11.6983   24.8740 C   0  0  0  0  0  0  0  0  0  0  0  0
    6.8849  -12.0086   26.1532 C   0  0  0  0  0  0  0  0  0  0  0  0
    6.5046  -13.2862   26.4154 C   0  0  0  0  0  0  0  0  0  0  0  0
    6.5370  -14.2402   25.4178 C   0  0  0  0  0  0  0  0  0  0  0  0
    9.2105  -15.8227   23.4140 C   0  0  0  0  0  0  0  0  0  0  0  0
    8.9151  -16.9151   24.0106 O   0  0  0  0  0  0  0  0  0  0  0  0
   11.1255  -16.0776   31.3565 O   0  0  0  0  0  0  0  0  0  0  0  0
   10.7932  -15.8113   30.0303 C   0  0  0  0  0  0  0  0  0  0  0  0
   10.3223  -16.8749   29.2656 C   0  0  0  0  0  0  0  0  0  0  0  0
    9.9804  -16.6621   27.9487 C   0  0  0  0  0  0  0  0  0  0  0  0
   10.1058  -15.4085   27.4018 C   0  0  0  0  0  0  0  0  0  0  0  0
    9.7475  -15.1775   26.0022 C   0  0  0  0  0  0  0  0  0  0  0  0
   10.9547  -15.4619   25.0953 C   0  0  2  0  0  0  0  0  0  0  0  0
   10.4312  -15.2153   23.7418 N   0  0  0  0  0  0  0  0  0  0  0  0
   11.4235  -16.8218   25.2116 C   0  0  0  0  0  0  0  0  0  0  0  0
   10.7351  -17.7887   24.7676 O   0  0  0  0  0  0  0  0  0  0  0  0
   10.5750  -14.3293   28.1492 C   0  0  0  0  0  0  0  0  0  0  0  0
   10.9121  -14.5613   29.4648 C   0  0  0  0  0  0  0  0  0  0  0  0
   12.6208  -17.1470   25.7970 O   0  0  0  0  0  0  0  0  0  0  0  0
  2  1  1  6
  3  2  1  0
  4  3  1  0
  5  6  2  0
  5  2  1  0
  7  5  1  0
  8  7  1  0
  8  9  1  1
 10  9  1  0
 10 11  2  0
 12 11  1  0
 13 12  2  0
 14 15  2  0
 14 13  1  0
 15 10  1  0
 16  8  1  0
 17 16  2  0
 19 29  2  0
 19 18  1  0
 20 19  1  0
 21 22  1  0
 21 20  2  0
 22 28  2  0
 23 22  1  0
 24 23  1  1
 24 25  1  0
 25 16  1  0
 26 24  1  0
 26 30  1  0
 27 26  2  0
 28 29  1  0
M  END
$$$$
