CFY.pdb
     RDKit          3D

 30 31  0  0  1  0  0  0  0  0999 V2000
    7.3855  -12.9866   19.2282 N   0  0  0  0  0  0  0  0  0  0  0  0
    7.3513  -14.2708   19.8580 C   0  0  1  0  0  0  0  0  0  0  0  0
    7.8873  -15.3732   18.9603 C   0  0  0  0  0  0  0  0  0  0  0  0
    7.7427  -16.9951   19.7154 S   0  0  0  0  0  0  0  0  0  0  0  0
    8.1790  -14.3025   21.1099 C   0  0  0  0  0  0  0  0  0  0  0  0
    9.3138  -13.7594   21.0763 O   0  0  0  0  0  0  0  0  0  0  0  0
    7.6887  -14.9227   22.2750 N   0  0  0  0  0  0  0  0  0  0  0  0
    8.5660  -14.9305   23.4765 C   0  0  1  0  0  0  0  0  0  0  0  0
    7.7033  -14.9269   24.6902 C   0  0  0  0  0  0  0  0  0  0  0  0
    7.2128  -13.6289   25.1595 C   0  0  0  0  0  0  0  0  0  0  0  0
    5.9957  -13.5496   25.8573 C   0  0  0  0  0  0  0  0  0  0  0  0
    5.5143  -12.3739   26.3543 C   0  0  0  0  0  0  0  0  0  0  0  0
    6.2132  -11.1953   26.1900 C   0  0  0  0  0  0  0  0  0  0  0  0
    7.3945  -11.2343   25.5199 C   0  0  0  0  0  0  0  0  0  0  0  0
    7.8718  -12.4301   25.0211 C   0  0  0  0  0  0  0  0  0  0  0  0
    9.3645  -16.1497   23.3532 C   0  0  0  0  0  0  0  0  0  0  0  0
    8.7634  -17.2423   23.0682 O   0  0  0  0  0  0  0  0  0  0  0  0
   11.5250  -16.0866   31.1727 O   0  0  0  0  0  0  0  0  0  0  0  0
   11.2727  -15.9521   29.8096 C   0  0  0  0  0  0  0  0  0  0  0  0
   11.0334  -14.6675   29.3297 C   0  0  0  0  0  0  0  0  0  0  0  0
   10.7789  -14.4826   27.9890 C   0  0  0  0  0  0  0  0  0  0  0  0
   10.7629  -15.5614   27.1391 C   0  0  0  0  0  0  0  0  0  0  0  0
   10.4894  -15.3713   25.7144 C   0  0  0  0  0  0  0  0  0  0  0  0
   11.2558  -16.4146   24.8870 C   0  0  2  0  0  0  0  0  0  0  0  0
   10.7561  -16.2003   23.5190 N   0  0  0  0  0  0  0  0  0  0  0  0
   10.9835  -17.7658   25.3143 C   0  0  0  0  0  0  0  0  0  0  0  0
    9.8247  -18.2654   25.1973 O   0  0  0  0  0  0  0  0  0  0  0  0
   10.9998  -16.8563   27.5982 C   0  0  0  0  0  0  0  0  0  0  0  0
   11.2526  -17.0216   28.9423 C   0  0  0  0  0  0  0  0  0  0  0  0
   11.9430  -18.5791   25.8620 O   0  0  0  0  0  0  0  0  0  0  0  0
  2  1  1  6
  3  2  1  0
  4  3  1  0
  5  6  2  0
  5  2  1  0
  7  5  1  0
  8  7  1  0
  8  9  1  1
 10  9  1  0
 10 11  2  0
 12 11  1  0
 13 12  2  0
 14 15  2  0
 14 13  1  0
 15 10  1  0
 16  8  1  0
 17 16  2  0
 19 29  2  0
 19 18  1  0
 20 19  1  0
 21 22  1  0
 21 20  2  0
 22 28  2  0
 23 22  1  0
 24 23  1  1
 24 25  1  0
 25 16  1  0
 26 24  1  0
 26 30  1  0
 27 26  2  0
 28 29  1  0
M  END
$$$$
