CFY.pdb
     RDKit          3D

 30 31  0  0  1  0  0  0  0  0999 V2000
    9.7670  -16.9046   18.4410 N   0  0  0  0  0  0  0  0  0  0  0  0
    8.7905  -17.1316   19.4618 C   0  0  1  0  0  0  0  0  0  0  0  0
    8.8667  -18.5356   20.0374 C   0  0  0  0  0  0  0  0  0  0  0  0
   10.4730  -18.8891   20.7563 S   0  0  0  0  0  0  0  0  0  0  0  0
    8.9597  -16.1889   20.6177 C   0  0  0  0  0  0  0  0  0  0  0  0
   10.0612  -15.5907   20.7300 O   0  0  0  0  0  0  0  0  0  0  0  0
    7.9120  -15.9910   21.5373 N   0  0  0  0  0  0  0  0  0  0  0  0
    8.1184  -14.9878   22.6164 C   0  0  1  0  0  0  0  0  0  0  0  0
    6.7974  -14.6739   23.2274 C   0  0  0  0  0  0  0  0  0  0  0  0
    6.7928  -13.7921   24.3970 C   0  0  0  0  0  0  0  0  0  0  0  0
    7.1640  -12.4438   24.2603 C   0  0  0  0  0  0  0  0  0  0  0  0
    7.1356  -11.5690   25.3068 C   0  0  0  0  0  0  0  0  0  0  0  0
    6.7349  -11.9780   26.5625 C   0  0  0  0  0  0  0  0  0  0  0  0
    6.3689  -13.2754   26.7316 C   0  0  0  0  0  0  0  0  0  0  0  0
    6.4018  -14.1519   25.6652 C   0  0  0  0  0  0  0  0  0  0  0  0
    9.0389  -15.6276   23.5558 C   0  0  0  0  0  0  0  0  0  0  0  0
    8.7277  -16.7775   24.0221 O   0  0  0  0  0  0  0  0  0  0  0  0
   11.2462  -16.7003   31.4291 O   0  0  0  0  0  0  0  0  0  0  0  0
   10.8720  -16.2746   30.1569 C   0  0  0  0  0  0  0  0  0  0  0  0
   10.3948  -17.2412   29.2763 C   0  0  0  0  0  0  0  0  0  0  0  0
   10.0120  -16.8699   28.0066 C   0  0  0  0  0  0  0  0  0  0  0  0
   10.1036  -15.5552   27.6200 C   0  0  0  0  0  0  0  0  0  0  0  0
    9.7018  -15.1555   26.2711 C   0  0  0  0  0  0  0  0  0  0  0  0
   10.7950  -15.5368   25.2610 C   0  0  2  0  0  0  0  0  0  0  0  0
   10.2528  -15.0653   23.9763 N   0  0  0  0  0  0  0  0  0  0  0  0
   11.0303  -16.9599   25.2139 C   0  0  0  0  0  0  0  0  0  0  0  0
   10.1855  -17.7430   24.6857 O   0  0  0  0  0  0  0  0  0  0  0  0
   10.5785  -14.5708   28.4855 C   0  0  0  0  0  0  0  0  0  0  0  0
   10.9566  -14.9612   29.7515 C   0  0  0  0  0  0  0  0  0  0  0  0
   12.1614  -17.5428   25.7266 O   0  0  0  0  0  0  0  0  0  0  0  0
  2  1  1  6
  3  2  1  0
  4  3  1  0
  5  6  2  0
  5  2  1  0
  7  5  1  0
  8  7  1  0
  8  9  1  1
 10  9  1  0
 10 11  2  0
 12 11  1  0
 13 12  2  0
 14 15  2  0
 14 13  1  0
 15 10  1  0
 16  8  1  0
 17 16  2  0
 19 29  2  0
 19 18  1  0
 20 19  1  0
 21 22  1  0
 21 20  2  0
 22 28  2  0
 23 22  1  0
 24 23  1  1
 24 25  1  0
 25 16  1  0
 26 24  1  0
 26 30  1  0
 27 26  2  0
 28 29  1  0
M  END
$$$$
