CFY.pdb
     RDKit          3D

 30 31  0  0  1  0  0  0  0  0999 V2000
    9.9636  -16.6348   18.0925 N   0  0  0  0  0  0  0  0  0  0  0  0
    9.2246  -17.1734   19.1928 C   0  0  1  0  0  0  0  0  0  0  0  0
    9.6690  -18.5794   19.5591 C   0  0  0  0  0  0  0  0  0  0  0  0
    9.0465  -19.8098   18.4100 S   0  0  0  0  0  0  0  0  0  0  0  0
    9.3814  -16.3419   20.4328 C   0  0  0  0  0  0  0  0  0  0  0  0
   10.5310  -15.9100   20.7076 O   0  0  0  0  0  0  0  0  0  0  0  0
    8.2700  -16.0630   21.2511 N   0  0  0  0  0  0  0  0  0  0  0  0
    8.5010  -15.2603   22.4823 C   0  0  1  0  0  0  0  0  0  0  0  0
    7.1892  -14.7442   22.9616 C   0  0  0  0  0  0  0  0  0  0  0  0
    7.1795  -14.0173   24.2334 C   0  0  0  0  0  0  0  0  0  0  0  0
    7.8025  -12.7615   24.3282 C   0  0  0  0  0  0  0  0  0  0  0  0
    7.7856  -12.0228   25.4751 C   0  0  0  0  0  0  0  0  0  0  0  0
    7.1461  -12.4853   26.6072 C   0  0  0  0  0  0  0  0  0  0  0  0
    6.5329  -13.6964   26.5519 C   0  0  0  0  0  0  0  0  0  0  0  0
    6.5566  -14.4353   25.3858 C   0  0  0  0  0  0  0  0  0  0  0  0
    9.1236  -16.1878   23.4264 C   0  0  0  0  0  0  0  0  0  0  0  0
    8.7908  -17.4219   23.3734 O   0  0  0  0  0  0  0  0  0  0  0  0
    9.6601  -14.3273   30.6793 O   0  0  0  0  0  0  0  0  0  0  0  0
   10.2193  -14.8217   29.5034 C   0  0  0  0  0  0  0  0  0  0  0  0
   10.2869  -13.9548   28.4164 C   0  0  0  0  0  0  0  0  0  0  0  0
   10.8314  -14.3969   27.2312 C   0  0  0  0  0  0  0  0  0  0  0  0
   11.3013  -15.6835   27.1306 C   0  0  0  0  0  0  0  0  0  0  0  0
   11.8775  -16.1597   25.8728 C   0  0  0  0  0  0  0  0  0  0  0  0
   10.8111  -16.9013   25.0521 C   0  0  2  0  0  0  0  0  0  0  0  0
   10.0743  -15.8141   24.3872 N   0  0  0  0  0  0  0  0  0  0  0  0
    9.9199  -17.6782   25.8796 C   0  0  0  0  0  0  0  0  0  0  0  0
   10.3165  -18.7399   26.4466 O   0  0  0  0  0  0  0  0  0  0  0  0
   11.2437  -16.5684   28.2063 C   0  0  0  0  0  0  0  0  0  0  0  0
   10.6957  -16.1083   29.3837 C   0  0  0  0  0  0  0  0  0  0  0  0
    8.6136  -17.3227   26.1015 O   0  0  0  0  0  0  0  0  0  0  0  0
  2  1  1  6
  3  2  1  0
  4  3  1  0
  5  6  2  0
  5  2  1  0
  7  5  1  0
  8  7  1  0
  8  9  1  1
 10  9  1  0
 10 11  2  0
 12 11  1  0
 13 12  2  0
 14 15  2  0
 14 13  1  0
 15 10  1  0
 16  8  1  0
 17 16  2  0
 19 29  2  0
 19 18  1  0
 20 19  1  0
 21 22  1  0
 21 20  2  0
 22 28  2  0
 23 22  1  0
 24 23  1  1
 24 25  1  0
 25 16  1  0
 26 24  1  0
 26 30  1  0
 27 26  2  0
 28 29  1  0
M  END
$$$$
