CFY.pdb
     RDKit          3D

 30 31  0  0  1  0  0  0  0  0999 V2000
    9.7386  -16.5310   18.0590 N   0  0  0  0  0  0  0  0  0  0  0  0
    9.0444  -17.0487   19.1979 C   0  0  1  0  0  0  0  0  0  0  0  0
    9.5394  -18.4266   19.6037 C   0  0  0  0  0  0  0  0  0  0  0  0
    9.1715  -19.6728   18.3652 S   0  0  0  0  0  0  0  0  0  0  0  0
    9.2084  -16.1670   20.4017 C   0  0  0  0  0  0  0  0  0  0  0  0
   10.2588  -15.4790   20.4858 O   0  0  0  0  0  0  0  0  0  0  0  0
    8.2116  -16.1218   21.3952 N   0  0  0  0  0  0  0  0  0  0  0  0
    8.3722  -15.1297   22.4922 C   0  0  1  0  0  0  0  0  0  0  0  0
    7.0237  -14.7986   23.0295 C   0  0  0  0  0  0  0  0  0  0  0  0
    6.9684  -13.9711   24.2371 C   0  0  0  0  0  0  0  0  0  0  0  0
    7.2505  -12.5968   24.1591 C   0  0  0  0  0  0  0  0  0  0  0  0
    7.1711  -11.7726   25.2433 C   0  0  0  0  0  0  0  0  0  0  0  0
    6.8049  -12.2616   26.4807 C   0  0  0  0  0  0  0  0  0  0  0  0
    6.5249  -13.5863   26.5933 C   0  0  0  0  0  0  0  0  0  0  0  0
    6.6087  -14.4111   25.4892 C   0  0  0  0  0  0  0  0  0  0  0  0
    9.2274  -15.7912   23.4773 C   0  0  0  0  0  0  0  0  0  0  0  0
    8.7923  -16.8531   24.0427 O   0  0  0  0  0  0  0  0  0  0  0  0
   10.8736  -16.1522   31.4870 O   0  0  0  0  0  0  0  0  0  0  0  0
   10.6100  -15.9351   30.1367 C   0  0  0  0  0  0  0  0  0  0  0  0
   10.5331  -14.6133   29.7071 C   0  0  0  0  0  0  0  0  0  0  0  0
   10.2745  -14.3469   28.3809 C   0  0  0  0  0  0  0  0  0  0  0  0
   10.0950  -15.3820   27.4962 C   0  0  0  0  0  0  0  0  0  0  0  0
    9.8164  -15.1048   26.0868 C   0  0  0  0  0  0  0  0  0  0  0  0
   10.9544  -15.6467   25.2082 C   0  0  2  0  0  0  0  0  0  0  0  0
   10.5051  -15.3413   23.8401 N   0  0  0  0  0  0  0  0  0  0  0  0
   11.1454  -17.0682   25.3678 C   0  0  0  0  0  0  0  0  0  0  0  0
   12.2878  -17.5462   25.6365 O   0  0  0  0  0  0  0  0  0  0  0  0
   10.1677  -16.7129   27.9047 C   0  0  0  0  0  0  0  0  0  0  0  0
   10.4274  -16.9598   29.2350 C   0  0  0  0  0  0  0  0  0  0  0  0
   10.1223  -17.9735   25.2426 O   0  0  0  0  0  0  0  0  0  0  0  0
  2  1  1  6
  3  2  1  0
  4  3  1  0
  5  6  2  0
  5  2  1  0
  7  5  1  0
  8  7  1  0
  8  9  1  1
 10  9  1  0
 10 11  2  0
 12 11  1  0
 13 12  2  0
 14 15  2  0
 14 13  1  0
 15 10  1  0
 16  8  1  0
 17 16  2  0
 19 29  2  0
 19 18  1  0
 20 19  1  0
 21 22  1  0
 21 20  2  0
 22 28  2  0
 23 22  1  0
 24 23  1  1
 24 25  1  0
 25 16  1  0
 26 24  1  0
 26 30  1  0
 27 26  2  0
 28 29  1  0
M  END
$$$$
