CFY.pdb
     RDKit          3D

 30 31  0  0  1  0  0  0  0  0999 V2000
    7.1390  -19.8435   21.0939 N   0  0  0  0  0  0  0  0  0  0  0  0
    6.6715  -18.6578   21.7439 C   0  0  1  0  0  0  0  0  0  0  0  0
    5.9662  -18.9539   23.0567 C   0  0  0  0  0  0  0  0  0  0  0  0
    6.9582  -19.9810   24.1444 S   0  0  0  0  0  0  0  0  0  0  0  0
    7.7955  -17.7172   22.0685 C   0  0  0  0  0  0  0  0  0  0  0  0
    8.9614  -18.0631   21.7448 O   0  0  0  0  0  0  0  0  0  0  0  0
    7.5383  -16.4924   22.7137 N   0  0  0  0  0  0  0  0  0  0  0  0
    8.6611  -15.5236   22.8328 C   0  0  1  0  0  0  0  0  0  0  0  0
    8.1126  -14.1465   22.6916 C   0  0  0  0  0  0  0  0  0  0  0  0
    7.7468  -13.7061   21.3433 C   0  0  0  0  0  0  0  0  0  0  0  0
    8.6880  -13.0336   20.5456 C   0  0  0  0  0  0  0  0  0  0  0  0
    8.4145  -12.6406   19.2681 C   0  0  0  0  0  0  0  0  0  0  0  0
    7.1833  -12.8909   18.6973 C   0  0  0  0  0  0  0  0  0  0  0  0
    6.2483  -13.5393   19.4398 C   0  0  0  0  0  0  0  0  0  0  0  0
    6.5362  -13.9322   20.7317 C   0  0  0  0  0  0  0  0  0  0  0  0
    9.2352  -15.7715   24.1550 C   0  0  0  0  0  0  0  0  0  0  0  0
   10.3163  -15.1646   24.4704 O   0  0  0  0  0  0  0  0  0  0  0  0
    6.6922  -10.9679   26.7403 O   0  0  0  0  0  0  0  0  0  0  0  0
    7.0232  -12.3122   26.8923 C   0  0  0  0  0  0  0  0  0  0  0  0
    8.3076  -12.6052   27.3418 C   0  0  0  0  0  0  0  0  0  0  0  0
    8.6828  -13.9198   27.5082 C   0  0  0  0  0  0  0  0  0  0  0  0
    7.7917  -14.9273   27.2306 C   0  0  0  0  0  0  0  0  0  0  0  0
    8.1860  -16.3259   27.4019 C   0  0  0  0  0  0  0  0  0  0  0  0
    9.3232  -16.6757   26.4297 C   0  0  2  0  0  0  0  0  0  0  0  0
    8.6715  -16.6291   25.1106 N   0  0  0  0  0  0  0  0  0  0  0  0
    9.8717  -17.9883   26.6720 C   0  0  0  0  0  0  0  0  0  0  0  0
   10.3691  -18.2891   27.7981 O   0  0  0  0  0  0  0  0  0  0  0  0
    6.5006  -14.6567   26.7794 C   0  0  0  0  0  0  0  0  0  0  0  0
    6.1434  -13.3358   26.6191 C   0  0  0  0  0  0  0  0  0  0  0  0
    9.8878  -18.9740   25.7180 O   0  0  0  0  0  0  0  0  0  0  0  0
  2  1  1  1
  3  2  1  0
  4  3  1  0
  5  6  2  0
  5  2  1  0
  7  5  1  0
  8  7  1  0
  8  9  1  1
 10  9  1  0
 10 11  2  0
 12 11  1  0
 13 12  2  0
 14 15  2  0
 14 13  1  0
 15 10  1  0
 16  8  1  0
 17 16  2  0
 19 29  2  0
 19 18  1  0
 20 19  1  0
 21 22  1  0
 21 20  2  0
 22 28  2  0
 23 22  1  0
 24 23  1  1
 24 25  1  0
 25 16  1  0
 26 24  1  0
 26 30  1  0
 27 26  2  0
 28 29  1  0
M  END
$$$$
