CFY.pdb
     RDKit          3D

 30 31  0  0  1  0  0  0  0  0999 V2000
    8.0173  -18.5577   20.8964 N   0  0  0  0  0  0  0  0  0  0  0  0
    8.9693  -17.5830   20.4597 C   0  0  1  0  0  0  0  0  0  0  0  0
    8.6326  -17.0134   19.0920 C   0  0  0  0  0  0  0  0  0  0  0  0
    6.9987  -16.2715   19.0483 S   0  0  0  0  0  0  0  0  0  0  0  0
    9.0453  -16.4147   21.3993 C   0  0  0  0  0  0  0  0  0  0  0  0
    9.9204  -15.5384   21.1756 O   0  0  0  0  0  0  0  0  0  0  0  0
    8.1603  -16.3165   22.4901 N   0  0  0  0  0  0  0  0  0  0  0  0
    8.3351  -15.1702   23.4221 C   0  0  1  0  0  0  0  0  0  0  0  0
    6.9956  -14.5853   23.7065 C   0  0  0  0  0  0  0  0  0  0  0  0
    6.9016  -13.6353   24.8176 C   0  0  0  0  0  0  0  0  0  0  0  0
    7.5007  -12.3689   24.7102 C   0  0  0  0  0  0  0  0  0  0  0  0
    7.4065  -11.4307   25.6962 C   0  0  0  0  0  0  0  0  0  0  0  0
    6.7084  -11.6904   26.8580 C   0  0  0  0  0  0  0  0  0  0  0  0
    6.1162  -12.9052   26.9963 C   0  0  0  0  0  0  0  0  0  0  0  0
    6.2182  -13.8471   25.9918 C   0  0  0  0  0  0  0  0  0  0  0  0
    8.9666  -15.7427   24.6107 C   0  0  0  0  0  0  0  0  0  0  0  0
    8.2398  -16.4184   25.4180 O   0  0  0  0  0  0  0  0  0  0  0  0
    6.8840  -20.5924   28.6263 O   0  0  0  0  0  0  0  0  0  0  0  0
    7.8254  -19.9271   27.8444 C   0  0  0  0  0  0  0  0  0  0  0  0
    7.4587  -19.6070   26.5403 C   0  0  0  0  0  0  0  0  0  0  0  0
    8.3548  -18.9491   25.7276 C   0  0  0  0  0  0  0  0  0  0  0  0
    9.5978  -18.6152   26.2071 C   0  0  0  0  0  0  0  0  0  0  0  0
   10.5553  -17.9194   25.3470 C   0  0  0  0  0  0  0  0  0  0  0  0
   10.8747  -16.5332   25.9276 C   0  0  2  0  0  0  0  0  0  0  0  0
   10.3271  -15.6073   24.9227 N   0  0  0  0  0  0  0  0  0  0  0  0
   12.2922  -16.3163   26.0896 C   0  0  0  0  0  0  0  0  0  0  0  0
   12.9989  -15.8829   25.1311 O   0  0  0  0  0  0  0  0  0  0  0  0
    9.9859  -18.9260   27.5095 C   0  0  0  0  0  0  0  0  0  0  0  0
    9.0761  -19.5842   28.3077 C   0  0  0  0  0  0  0  0  0  0  0  0
   12.9506  -16.5593   27.2683 O   0  0  0  0  0  0  0  0  0  0  0  0
  2  1  1  1
  3  2  1  0
  4  3  1  0
  5  6  2  0
  5  2  1  0
  7  5  1  0
  8  7  1  0
  8  9  1  1
 10  9  1  0
 10 11  2  0
 12 11  1  0
 13 12  2  0
 14 15  2  0
 14 13  1  0
 15 10  1  0
 16  8  1  0
 17 16  2  0
 19 29  2  0
 19 18  1  0
 20 19  1  0
 21 22  1  0
 21 20  2  0
 22 28  2  0
 23 22  1  0
 24 23  1  6
 24 25  1  0
 25 16  1  0
 26 24  1  0
 26 30  1  0
 27 26  2  0
 28 29  1  0
M  END
$$$$
