VYL.pdb
     RDKit          3D

 28 28  0  0  1  0  0  0  0  0999 V2000
   25.7633  -19.5280  -17.8598 C   0  0  0  0  0  0  0  0  0  0  0  0
   24.6953  -20.0377  -18.7957 C   0  0  2  0  0  0  0  0  0  0  0  0
   24.8253  -19.2761  -20.0992 C   0  0  0  0  0  0  0  0  0  0  0  0
   23.3048  -19.7627  -18.2627 C   0  0  2  0  0  0  0  0  0  0  0  0
   23.0955  -18.3286  -18.1988 N   0  0  0  0  0  0  0  0  0  0  0  0
   23.1084  -20.3791  -16.9164 C   0  0  0  0  0  0  0  0  0  0  0  0
   23.1799  -21.6326  -16.7624 O   0  0  0  0  0  0  0  0  0  0  0  0
   22.7058  -21.4715   -8.1917 O   0  0  0  0  0  0  0  0  0  0  0  0
   22.8002  -20.9242   -9.4699 C   0  0  0  0  0  0  0  0  0  0  0  0
   23.9432  -21.0126  -10.2348 C   0  0  0  0  0  0  0  0  0  0  0  0
   23.9840  -20.4507  -11.4999 C   0  0  0  0  0  0  0  0  0  0  0  0
   22.8951  -19.7870  -12.0407 C   0  0  0  0  0  0  0  0  0  0  0  0
   23.0005  -19.2120  -13.3890 C   0  0  0  0  0  0  0  0  0  0  0  0
   22.5478  -20.1846  -14.4704 C   0  0  2  0  0  0  0  0  0  0  0  0
   22.8366  -19.6121  -15.7592 N   0  0  0  0  0  0  0  0  0  0  0  0
   21.0886  -20.3711  -14.2544 C   0  0  0  0  0  0  0  0  0  0  0  0
   20.3436  -19.3778  -14.4419 O   0  0  0  0  0  0  0  0  0  0  0  0
   21.7592  -19.7015  -11.2753 C   0  0  0  0  0  0  0  0  0  0  0  0
   21.7075  -20.2601  -10.0083 C   0  0  0  0  0  0  0  0  0  0  0  0
   16.5921  -23.9273  -15.7899 C   0  0  0  0  0  0  0  0  0  0  0  0
   17.1194  -22.8585  -14.9136 C   0  0  2  0  0  0  0  0  0  0  0  0
   16.5000  -21.5015  -15.3409 C   0  0  0  0  0  0  0  0  0  0  0  0
   18.5772  -22.7190  -14.7230 C   0  0  0  0  0  0  0  0  0  0  0  0
   19.0535  -21.7965  -13.6899 C   0  0  2  0  0  0  0  0  0  0  0  0
   20.5154  -21.5917  -13.8559 N   0  0  0  0  0  0  0  0  0  0  0  0
   18.8709  -22.2179  -12.3153 C   0  0  0  0  0  0  0  0  0  0  0  0
   19.8604  -22.6164  -11.4172 O   0  0  0  0  0  0  0  0  0  0  0  0
   17.6675  -22.2486  -11.8381 O   0  0  0  0  0  0  0  0  0  0  0  0
  2  1  1  1
  3  2  1  0
  4  2  1  0
  4  5  1  1
  6  4  1  0
  6  7  2  0
  8  9  1  0
  9 10  2  0
 10 11  1  0
 12 13  1  0
 12 11  2  0
 14 13  1  1
 14 15  1  0
 15  6  1  0
 16 14  1  0
 17 16  2  0
 18 12  1  0
 19 18  2  0
 19  9  1  0
 21 20  1  6
 21 23  1  0
 22 21  1  0
 24 23  1  6
 24 26  1  0
 24 25  1  0
 25 16  1  0
 26 27  1  0
 28 26  2  0
M  END
$$$$
