VYL.pdb
     RDKit          3D

 28 28  0  0  1  0  0  0  0  0999 V2000
   21.7050  -32.3717  -13.5756 C   0  0  0  0  0  0  0  0  0  0  0  0
   22.8503  -33.2405  -14.0338 C   0  0  2  0  0  0  0  0  0  0  0  0
   22.3271  -34.1523  -15.1249 C   0  0  0  0  0  0  0  0  0  0  0  0
   23.3572  -34.1331  -12.9205 C   0  0  2  0  0  0  0  0  0  0  0  0
   22.2644  -34.9545  -12.4351 N   0  0  0  0  0  0  0  0  0  0  0  0
   23.9415  -33.3299  -11.8049 C   0  0  0  0  0  0  0  0  0  0  0  0
   24.8758  -32.5052  -12.0221 O   0  0  0  0  0  0  0  0  0  0  0  0
   20.7233  -27.5982  -11.5304 O   0  0  0  0  0  0  0  0  0  0  0  0
   21.2311  -28.6900  -10.8287 C   0  0  0  0  0  0  0  0  0  0  0  0
   20.5730  -29.8987  -10.7550 C   0  0  0  0  0  0  0  0  0  0  0  0
   21.1223  -30.9524  -10.0437 C   0  0  0  0  0  0  0  0  0  0  0  0
   22.3365  -30.8374   -9.3873 C   0  0  0  0  0  0  0  0  0  0  0  0
   22.8670  -31.9922   -8.6491 C   0  0  0  0  0  0  0  0  0  0  0  0
   24.0226  -32.6649   -9.3788 C   0  0  2  0  0  0  0  0  0  0  0  0
   23.4929  -33.4428  -10.4680 N   0  0  0  0  0  0  0  0  0  0  0  0
   24.6980  -33.5129   -8.3612 C   0  0  0  0  0  0  0  0  0  0  0  0
   24.3495  -34.7170   -8.2868 O   0  0  0  0  0  0  0  0  0  0  0  0
   22.9881  -29.6320   -9.4635 C   0  0  0  0  0  0  0  0  0  0  0  0
   22.4477  -28.5711  -10.1724 C   0  0  0  0  0  0  0  0  0  0  0  0
   29.8365  -33.3850   -4.8195 C   0  0  0  0  0  0  0  0  0  0  0  0
   28.7337  -34.0105   -5.5816 C   0  0  2  0  0  0  0  0  0  0  0  0
   29.3274  -34.7872   -6.7866 C   0  0  0  0  0  0  0  0  0  0  0  0
   27.5853  -33.1901   -6.0164 C   0  0  0  0  0  0  0  0  0  0  0  0
   26.3811  -33.8804   -6.4839 C   0  0  2  0  0  0  0  0  0  0  0  0
   25.6941  -33.0332   -7.4924 N   0  0  0  0  0  0  0  0  0  0  0  0
   25.3805  -34.1829   -5.4800 C   0  0  0  0  0  0  0  0  0  0  0  0
   25.1505  -35.4117   -4.8623 O   0  0  0  0  0  0  0  0  0  0  0  0
   24.5889  -33.2321   -5.0974 O   0  0  0  0  0  0  0  0  0  0  0  0
  2  1  1  1
  3  2  1  0
  4  2  1  0
  4  5  1  1
  6  4  1  0
  6  7  2  0
  8  9  1  0
  9 10  2  0
 10 11  1  0
 12 13  1  0
 12 11  2  0
 14 13  1  1
 14 15  1  0
 15  6  1  0
 16 14  1  0
 17 16  2  0
 18 12  1  0
 19 18  2  0
 19  9  1  0
 21 20  1  6
 21 23  1  0
 22 21  1  0
 24 23  1  1
 24 26  1  0
 24 25  1  0
 25 16  1  0
 26 27  1  0
 28 26  2  0
M  END
$$$$
