VYL.pdb
     RDKit          3D

 28 28  0  0  1  0  0  0  0  0999 V2000
   15.3493  -15.6040  -18.7720 C   0  0  0  0  0  0  0  0  0  0  0  0
   15.9672  -14.2374  -18.9365 C   0  0  2  0  0  0  0  0  0  0  0  0
   17.0323  -14.3409  -20.0092 C   0  0  0  0  0  0  0  0  0  0  0  0
   16.6611  -13.7798  -17.6707 C   0  0  2  0  0  0  0  0  0  0  0  0
   15.6786  -13.6469  -16.6116 N   0  0  0  0  0  0  0  0  0  0  0  0
   17.3780  -12.4866  -17.8825 C   0  0  0  0  0  0  0  0  0  0  0  0
   18.3106  -12.3959  -18.7322 O   0  0  0  0  0  0  0  0  0  0  0  0
   14.2843   -8.6858  -22.5569 O   0  0  0  0  0  0  0  0  0  0  0  0
   14.8958   -8.7351  -21.3055 C   0  0  0  0  0  0  0  0  0  0  0  0
   16.0528   -8.0450  -21.0149 C   0  0  0  0  0  0  0  0  0  0  0  0
   16.6197   -8.1286  -19.7542 C   0  0  0  0  0  0  0  0  0  0  0  0
   16.0566   -8.8971  -18.7487 C   0  0  0  0  0  0  0  0  0  0  0  0
   16.7059   -8.9451  -17.4312 C   0  0  0  0  0  0  0  0  0  0  0  0
   17.7430  -10.0568  -17.3368 C   0  0  2  0  0  0  0  0  0  0  0  0
   17.0617  -11.3125  -17.1595 N   0  0  0  0  0  0  0  0  0  0  0  0
   18.5938   -9.7111  -16.1675 C   0  0  0  0  0  0  0  0  0  0  0  0
   18.0949   -9.8574  -15.0245 O   0  0  0  0  0  0  0  0  0  0  0  0
   14.9046   -9.5825  -19.0428 C   0  0  0  0  0  0  0  0  0  0  0  0
   14.3289   -9.5059  -20.3009 C   0  0  0  0  0  0  0  0  0  0  0  0
   24.1580  -10.5731  -14.1088 C   0  0  0  0  0  0  0  0  0  0  0  0
   22.9482   -9.7225  -14.0764 C   0  0  2  0  0  0  0  0  0  0  0  0
   22.3085   -9.8052  -12.6651 C   0  0  0  0  0  0  0  0  0  0  0  0
   21.9132   -9.8797  -15.1180 C   0  0  0  0  0  0  0  0  0  0  0  0
   20.7856   -8.9451  -15.1178 C   0  0  2  0  0  0  0  0  0  0  0  0
   19.9119   -9.2351  -16.2837 N   0  0  0  0  0  0  0  0  0  0  0  0
   21.1151   -7.5371  -15.2163 C   0  0  0  0  0  0  0  0  0  0  0  0
   21.2580   -6.7843  -16.3814 O   0  0  0  0  0  0  0  0  0  0  0  0
   21.3147   -6.8761  -14.1208 O   0  0  0  0  0  0  0  0  0  0  0  0
  2  1  1  1
  3  2  1  0
  4  2  1  0
  4  5  1  1
  6  4  1  0
  6  7  2  0
  8  9  1  0
  9 10  2  0
 10 11  1  0
 12 13  1  0
 12 11  2  0
 14 13  1  1
 14 15  1  0
 15  6  1  0
 16 14  1  0
 17 16  2  0
 18 12  1  0
 19 18  2  0
 19  9  1  0
 21 20  1  1
 21 23  1  0
 22 21  1  0
 24 23  1  6
 24 26  1  0
 24 25  1  0
 25 16  1  0
 26 27  1  0
 28 26  2  0
M  END
$$$$
