VYL.pdb
     RDKit          3D

 28 28  0  0  1  0  0  0  0  0999 V2000
   17.0858  -12.3667  -17.6732 C   0  0  0  0  0  0  0  0  0  0  0  0
   18.2372  -12.3028  -18.6460 C   0  0  2  0  0  0  0  0  0  0  0  0
   18.0531  -13.4229  -19.6497 C   0  0  0  0  0  0  0  0  0  0  0  0
   19.5655  -12.5419  -17.9592 C   0  0  2  0  0  0  0  0  0  0  0  0
   19.5668  -13.8706  -17.3769 N   0  0  0  0  0  0  0  0  0  0  0  0
   19.8263  -11.5120  -16.9094 C   0  0  0  0  0  0  0  0  0  0  0  0
   19.4514  -11.6963  -15.7154 O   0  0  0  0  0  0  0  0  0  0  0  0
   25.1015  -13.8253  -14.7626 O   0  0  0  0  0  0  0  0  0  0  0  0
   24.4153  -12.6665  -15.1211 C   0  0  0  0  0  0  0  0  0  0  0  0
   24.2288  -12.2877  -16.4330 C   0  0  0  0  0  0  0  0  0  0  0  0
   23.5387  -11.1256  -16.7346 C   0  0  0  0  0  0  0  0  0  0  0  0
   23.0155  -10.3084  -15.7462 C   0  0  0  0  0  0  0  0  0  0  0  0
   22.2928   -9.0877  -16.1303 C   0  0  0  0  0  0  0  0  0  0  0  0
   20.7855   -9.3004  -16.1858 C   0  0  2  0  0  0  0  0  0  0  0  0
   20.4941  -10.2956  -17.1842 N   0  0  0  0  0  0  0  0  0  0  0  0
   20.2075   -7.9746  -16.5308 C   0  0  0  0  0  0  0  0  0  0  0  0
   20.2646   -7.6125  -17.7319 O   0  0  0  0  0  0  0  0  0  0  0  0
   23.2037  -10.6896  -14.4413 C   0  0  0  0  0  0  0  0  0  0  0  0
   23.8926  -11.8504  -14.1282 C   0  0  0  0  0  0  0  0  0  0  0  0
   16.1058   -6.0122  -16.9980 C   0  0  0  0  0  0  0  0  0  0  0  0
   16.5810   -6.2336  -15.6148 C   0  0  2  0  0  0  0  0  0  0  0  0
   15.4182   -5.9479  -14.6278 C   0  0  0  0  0  0  0  0  0  0  0  0
   17.8197   -5.5767  -15.1510 C   0  0  0  0  0  0  0  0  0  0  0  0
   19.0454   -5.7898  -15.9239 C   0  0  2  0  0  0  0  0  0  0  0  0
   19.6092   -7.1220  -15.5862 N   0  0  0  0  0  0  0  0  0  0  0  0
   20.1199   -4.8427  -15.7028 C   0  0  0  0  0  0  0  0  0  0  0  0
   20.2272   -3.5530  -16.2222 O   0  0  0  0  0  0  0  0  0  0  0  0
   21.1113   -5.2044  -14.9522 O   0  0  0  0  0  0  0  0  0  0  0  0
  2  1  1  1
  3  2  1  0
  4  2  1  0
  4  5  1  1
  6  4  1  0
  6  7  2  0
  8  9  1  0
  9 10  2  0
 10 11  1  0
 12 13  1  0
 12 11  2  0
 14 13  1  6
 14 15  1  0
 15  6  1  0
 16 14  1  0
 17 16  2  0
 18 12  1  0
 19 18  2  0
 19  9  1  0
 21 20  1  6
 21 23  1  0
 22 21  1  0
 24 23  1  1
 24 26  1  0
 24 25  1  0
 25 16  1  0
 26 27  1  0
 28 26  2  0
M  END
$$$$
