VYL.pdb
     RDKit          3D

 28 28  0  0  1  0  0  0  0  0999 V2000
   24.0983   -8.3094  -22.4558 C   0  0  0  0  0  0  0  0  0  0  0  0
   23.3079   -7.7106  -21.3187 C   0  0  2  0  0  0  0  0  0  0  0  0
   23.6507   -6.2364  -21.2472 C   0  0  0  0  0  0  0  0  0  0  0  0
   23.6953   -8.3170  -19.9862 C   0  0  2  0  0  0  0  0  0  0  0  0
   23.4122   -9.7396  -20.0113 N   0  0  0  0  0  0  0  0  0  0  0  0
   22.9674   -7.6602  -18.8594 C   0  0  0  0  0  0  0  0  0  0  0  0
   21.7054   -7.7101  -18.7882 O   0  0  0  0  0  0  0  0  0  0  0  0
   23.3394  -12.4185  -14.5891 O   0  0  0  0  0  0  0  0  0  0  0  0
   23.4059  -11.0422  -14.7982 C   0  0  0  0  0  0  0  0  0  0  0  0
   22.3006  -10.2839  -15.1184 C   0  0  0  0  0  0  0  0  0  0  0  0
   22.4219   -8.9186  -15.3160 C   0  0  0  0  0  0  0  0  0  0  0  0
   23.6397   -8.2686  -15.2018 C   0  0  0  0  0  0  0  0  0  0  0  0
   23.7036   -6.8171  -15.4234 C   0  0  0  0  0  0  0  0  0  0  0  0
   22.9654   -6.3910  -16.6859 C   0  0  2  0  0  0  0  0  0  0  0  0
   23.6338   -6.9584  -17.8275 N   0  0  0  0  0  0  0  0  0  0  0  0
   23.0099   -4.9048  -16.6921 C   0  0  0  0  0  0  0  0  0  0  0  0
   24.0755   -4.3586  -17.0704 O   0  0  0  0  0  0  0  0  0  0  0  0
   24.7374   -9.0279  -14.8828 C   0  0  0  0  0  0  0  0  0  0  0  0
   24.6274  -10.3946  -14.6830 C   0  0  0  0  0  0  0  0  0  0  0  0
   20.8218    0.1354  -17.5130 C   0  0  0  0  0  0  0  0  0  0  0  0
   21.7623   -0.8051  -18.1605 C   0  0  2  0  0  0  0  0  0  0  0  0
   21.6816   -0.6229  -19.6994 C   0  0  0  0  0  0  0  0  0  0  0  0
   21.7217   -2.2395  -17.8115 C   0  0  0  0  0  0  0  0  0  0  0  0
   21.9269   -2.6156  -16.4110 C   0  0  2  0  0  0  0  0  0  0  0  0
   21.9281   -4.0969  -16.2993 N   0  0  0  0  0  0  0  0  0  0  0  0
   20.9300   -2.1527  -15.4663 C   0  0  0  0  0  0  0  0  0  0  0  0
   20.9785   -0.9964  -14.6884 O   0  0  0  0  0  0  0  0  0  0  0  0
   19.8680   -2.8731  -15.2934 O   0  0  0  0  0  0  0  0  0  0  0  0
  2  1  1  6
  3  2  1  0
  4  2  1  0
  4  5  1  6
  6  4  1  0
  6  7  2  0
  8  9  1  0
  9 10  2  0
 10 11  1  0
 12 13  1  0
 12 11  2  0
 14 13  1  1
 14 15  1  0
 15  6  1  0
 16 14  1  0
 17 16  2  0
 18 12  1  0
 19 18  2  0
 19  9  1  0
 21 20  1  1
 21 23  1  0
 22 21  1  0
 24 23  1  6
 24 26  1  0
 24 25  1  0
 25 16  1  0
 26 27  1  0
 28 26  2  0
M  END
$$$$
