VYL.pdb
     RDKit          3D

 28 28  0  0  1  0  0  0  0  0999 V2000
   26.7761  -19.9268  -21.7304 C   0  0  0  0  0  0  0  0  0  0  0  0
   25.7095  -20.7866  -21.0984 C   0  0  2  0  0  0  0  0  0  0  0  0
   24.9454  -21.4664  -22.2164 C   0  0  0  0  0  0  0  0  0  0  0  0
   24.7079  -19.9575  -20.3222 C   0  0  2  0  0  0  0  0  0  0  0  0
   25.3371  -18.7179  -19.9074 N   0  0  0  0  0  0  0  0  0  0  0  0
   24.1909  -20.7026  -19.1354 C   0  0  0  0  0  0  0  0  0  0  0  0
   23.5937  -21.8089  -19.2763 O   0  0  0  0  0  0  0  0  0  0  0  0
   29.4638  -23.8317  -16.7822 O   0  0  0  0  0  0  0  0  0  0  0  0
   28.3290  -23.0816  -16.4793 C   0  0  0  0  0  0  0  0  0  0  0  0
   28.3177  -21.7038  -16.5097 C   0  0  0  0  0  0  0  0  0  0  0  0
   27.1621  -21.0064  -16.1997 C   0  0  0  0  0  0  0  0  0  0  0  0
   25.9883  -21.6541  -15.8517 C   0  0  0  0  0  0  0  0  0  0  0  0
   24.7948  -20.8577  -15.5334 C   0  0  0  0  0  0  0  0  0  0  0  0
   23.7697  -20.8749  -16.6600 C   0  0  2  0  0  0  0  0  0  0  0  0
   24.3362  -20.2240  -17.8122 N   0  0  0  0  0  0  0  0  0  0  0  0
   22.5844  -20.1486  -16.1326 C   0  0  0  0  0  0  0  0  0  0  0  0
   22.6159  -18.8934  -16.1568 O   0  0  0  0  0  0  0  0  0  0  0  0
   26.0044  -23.0260  -15.8227 C   0  0  0  0  0  0  0  0  0  0  0  0
   27.1550  -23.7338  -16.1311 C   0  0  0  0  0  0  0  0  0  0  0  0
   17.4687  -19.0555  -17.7745 C   0  0  0  0  0  0  0  0  0  0  0  0
   18.4202  -18.7842  -16.6748 C   0  0  2  0  0  0  0  0  0  0  0  0
   18.6162  -17.2506  -16.5415 C   0  0  0  0  0  0  0  0  0  0  0  0
   19.7268  -19.4719  -16.6492 C   0  0  0  0  0  0  0  0  0  0  0  0
   20.1435  -20.1167  -15.4019 C   0  0  2  0  0  0  0  0  0  0  0  0
   21.4476  -20.7953  -15.6161 N   0  0  0  0  0  0  0  0  0  0  0  0
   19.2556  -21.1331  -14.8735 C   0  0  0  0  0  0  0  0  0  0  0  0
   19.1796  -22.4704  -15.2613 O   0  0  0  0  0  0  0  0  0  0  0  0
   18.4207  -20.7944  -13.9435 O   0  0  0  0  0  0  0  0  0  0  0  0
  2  1  1  6
  3  2  1  0
  4  2  1  0
  4  5  1  1
  6  4  1  0
  6  7  2  0
  8  9  1  0
  9 10  2  0
 10 11  1  0
 12 13  1  0
 12 11  2  0
 14 13  1  1
 14 15  1  0
 15  6  1  0
 16 14  1  0
 17 16  2  0
 18 12  1  0
 19 18  2  0
 19  9  1  0
 21 20  1  6
 21 23  1  0
 22 21  1  0
 24 23  1  6
 24 26  1  0
 24 25  1  0
 25 16  1  0
 26 27  1  0
 28 26  2  0
M  END
$$$$
