VYL.pdb
     RDKit          3D

 28 28  0  0  1  0  0  0  0  0999 V2000
   18.0494  -15.7242  -16.8620 C   0  0  0  0  0  0  0  0  0  0  0  0
   19.0362  -14.6566  -17.2653 C   0  0  2  0  0  0  0  0  0  0  0  0
   19.4581  -13.9227  -16.0086 C   0  0  0  0  0  0  0  0  0  0  0  0
   18.4073  -13.6299  -18.1838 C   0  0  2  0  0  0  0  0  0  0  0  0
   18.1055  -14.2540  -19.4581 N   0  0  0  0  0  0  0  0  0  0  0  0
   19.3069  -12.4537  -18.3790 C   0  0  0  0  0  0  0  0  0  0  0  0
   20.3544  -12.5502  -19.0816 O   0  0  0  0  0  0  0  0  0  0  0  0
   17.8635   -9.7773  -24.1131 O   0  0  0  0  0  0  0  0  0  0  0  0
   18.1202   -9.5758  -22.7582 C   0  0  0  0  0  0  0  0  0  0  0  0
   17.2029   -9.8757  -21.7743 C   0  0  0  0  0  0  0  0  0  0  0  0
   17.5089   -9.6558  -20.4417 C   0  0  0  0  0  0  0  0  0  0  0  0
   18.7300   -9.1336  -20.0483 C   0  0  0  0  0  0  0  0  0  0  0  0
   18.9950   -8.9233  -18.6181 C   0  0  0  0  0  0  0  0  0  0  0  0
   19.8617  -10.0248  -18.0216 C   0  0  2  0  0  0  0  0  0  0  0  0
   19.0447  -11.1893  -17.8011 N   0  0  0  0  0  0  0  0  0  0  0  0
   20.3976   -9.4677  -16.7515 C   0  0  0  0  0  0  0  0  0  0  0  0
   19.6644   -9.5355  -15.7343 O   0  0  0  0  0  0  0  0  0  0  0  0
   19.6402   -8.8366  -21.0316 C   0  0  0  0  0  0  0  0  0  0  0  0
   19.3445   -9.0526  -22.3680 C   0  0  0  0  0  0  0  0  0  0  0  0
   23.4414  -10.8570  -13.9372 C   0  0  0  0  0  0  0  0  0  0  0  0
   24.0275  -10.1119  -15.0727 C   0  0  2  0  0  0  0  0  0  0  0  0
   25.5716  -10.2593  -15.0323 C   0  0  0  0  0  0  0  0  0  0  0  0
   23.6532   -8.7007  -15.2951 C   0  0  0  0  0  0  0  0  0  0  0  0
   22.2289   -8.3666  -15.3636 C   0  0  2  0  0  0  0  0  0  0  0  0
   21.6692   -8.8778  -16.6412 N   0  0  0  0  0  0  0  0  0  0  0  0
   21.8948   -6.9568  -15.3264 C   0  0  0  0  0  0  0  0  0  0  0  0
   21.7433   -6.1559  -14.1949 O   0  0  0  0  0  0  0  0  0  0  0  0
   21.6992   -6.3431  -16.4498 O   0  0  0  0  0  0  0  0  0  0  0  0
  2  1  1  1
  3  2  1  0
  4  2  1  0
  4  5  1  6
  6  4  1  0
  6  7  2  0
  8  9  1  0
  9 10  2  0
 10 11  1  0
 12 13  1  0
 12 11  2  0
 14 13  1  1
 14 15  1  0
 15  6  1  0
 16 14  1  0
 17 16  2  0
 18 12  1  0
 19 18  2  0
 19  9  1  0
 21 20  1  1
 21 23  1  0
 22 21  1  0
 24 23  1  6
 24 26  1  0
 24 25  1  0
 25 16  1  0
 26 27  1  0
 28 26  2  0
M  END
$$$$
