VYL.pdb
     RDKit          3D

 28 28  0  0  1  0  0  0  0  0999 V2000
   29.1324  -22.4616  -16.7942 C   0  0  0  0  0  0  0  0  0  0  0  0
   27.9131  -22.3817  -17.6792 C   0  0  2  0  0  0  0  0  0  0  0  0
   28.3635  -21.8852  -19.0380 C   0  0  0  0  0  0  0  0  0  0  0  0
   26.9057  -21.3791  -17.1565 C   0  0  2  0  0  0  0  0  0  0  0  0
   27.4369  -20.0397  -17.3254 N   0  0  0  0  0  0  0  0  0  0  0  0
   26.5811  -21.6344  -15.7212 C   0  0  0  0  0  0  0  0  0  0  0  0
   26.0433  -22.7220  -15.3633 O   0  0  0  0  0  0  0  0  0  0  0  0
   26.2209  -20.6978   -6.9188 O   0  0  0  0  0  0  0  0  0  0  0  0
   26.4757  -20.4995   -8.2745 C   0  0  0  0  0  0  0  0  0  0  0  0
   26.1251  -19.3425   -8.9362 C   0  0  0  0  0  0  0  0  0  0  0  0
   26.4017  -19.1966  -10.2853 C   0  0  0  0  0  0  0  0  0  0  0  0
   27.0323  -20.1914  -11.0142 C   0  0  0  0  0  0  0  0  0  0  0  0
   27.2985  -19.9765  -12.4435 C   0  0  0  0  0  0  0  0  0  0  0  0
   26.4275  -20.8542  -13.3331 C   0  0  2  0  0  0  0  0  0  0  0  0
   26.8508  -20.6937  -14.6996 N   0  0  0  0  0  0  0  0  0  0  0  0
   25.0341  -20.3817  -13.1190 C   0  0  0  0  0  0  0  0  0  0  0  0
   24.7362  -19.2411  -13.5517 O   0  0  0  0  0  0  0  0  0  0  0  0
   27.3795  -21.3416  -10.3510 C   0  0  0  0  0  0  0  0  0  0  0  0
   27.1075  -21.4982   -9.0014 C   0  0  0  0  0  0  0  0  0  0  0  0
   21.2979  -20.2377  -15.1548 C   0  0  0  0  0  0  0  0  0  0  0  0
   21.7497  -21.4854  -14.5010 C   0  0  2  0  0  0  0  0  0  0  0  0
   20.9819  -22.6858  -15.1153 C   0  0  0  0  0  0  0  0  0  0  0  0
   21.7550  -21.5806  -13.0273 C   0  0  0  0  0  0  0  0  0  0  0  0
   22.6479  -20.6913  -12.2810 C   0  0  2  0  0  0  0  0  0  0  0  0
   24.0509  -21.1440  -12.4637 N   0  0  0  0  0  0  0  0  0  0  0  0
   22.4416  -20.6249  -10.8480 C   0  0  0  0  0  0  0  0  0  0  0  0
   23.1745  -21.2808   -9.8595 O   0  0  0  0  0  0  0  0  0  0  0  0
   21.4720  -19.8918  -10.4014 O   0  0  0  0  0  0  0  0  0  0  0  0
  2  1  1  1
  3  2  1  0
  4  2  1  0
  4  5  1  1
  6  4  1  0
  6  7  2  0
  8  9  1  0
  9 10  2  0
 10 11  1  0
 12 13  1  0
 12 11  2  0
 14 13  1  1
 14 15  1  0
 15  6  1  0
 16 14  1  0
 17 16  2  0
 18 12  1  0
 19 18  2  0
 19  9  1  0
 21 20  1  1
 21 23  1  0
 22 21  1  0
 24 23  1  6
 24 26  1  0
 24 25  1  0
 25 16  1  0
 26 27  1  0
 28 26  2  0
M  END
$$$$
