QNH.pdb
     RDKit          3D

 28 28  0  0  1  0  0  0  0  0999 V2000
   14.4434  -12.3719  -13.8869 N   0  0  0  0  0  0  0  0  0  0  0  0
   14.8265  -13.5763  -14.5964 C   0  0  0  0  0  0  0  0  0  0  0  0
   14.0581  -14.5626  -14.4689 O   0  0  0  0  0  0  0  0  0  0  0  0
   16.0585  -13.5103  -15.3720 C   0  0  0  0  0  0  0  0  0  0  0  0
   16.7898  -12.2042  -15.3424 C   0  0  0  0  0  0  0  0  0  0  0  0
   17.9957  -12.1535  -16.2210 C   0  0  2  0  0  0  0  0  0  0  0  0
   18.5228  -13.4646  -16.4232 N   0  0  0  0  0  0  0  0  0  0  0  0
   19.0212  -11.2038  -15.6429 C   0  0  0  0  0  0  0  0  0  0  0  0
   18.7024  -10.6891  -14.5666 O   0  0  0  0  0  0  0  0  0  0  0  0
   23.6509   -8.6243  -15.3969 N   0  0  0  0  0  0  0  0  0  0  0  0
   23.8473   -9.9360  -15.8781 C   0  0  0  0  0  0  0  0  0  0  0  0
   25.0133  -10.3862  -15.9467 O   0  0  0  0  0  0  0  0  0  0  0  0
   22.7076  -10.7579  -16.2907 C   0  0  0  0  0  0  0  0  0  0  0  0
   21.3682  -10.1462  -15.9048 C   0  0  2  0  0  0  0  0  0  0  0  0
   20.2197  -10.9227  -16.2495 N   0  0  0  0  0  0  0  0  0  0  0  0
   21.2701   -8.8978  -16.7008 C   0  0  0  0  0  0  0  0  0  0  0  0
   20.9063   -9.0133  -17.9250 O   0  0  0  0  0  0  0  0  0  0  0  0
   21.5534   -7.5976  -16.1854 N   0  0  0  0  0  0  0  0  0  0  0  0
   20.9364   -6.4628  -16.9018 C   0  0  1  0  0  0  0  0  0  0  0  0
   19.4465   -6.6549  -16.7580 C   0  0  0  0  0  0  0  0  0  0  0  0
   18.7071   -5.5853  -17.4259 C   0  0  0  0  0  0  0  0  0  0  0  0
   19.3070   -4.5889  -18.2122 C   0  0  0  0  0  0  0  0  0  0  0  0
   18.3492   -3.7789  -18.6669 N   0  0  0  0  0  0  0  0  0  0  0  0
   17.1553   -4.1986  -18.2148 C   0  0  0  0  0  0  0  0  0  0  0  0
   17.4042   -5.2851  -17.4727 N   0  0  0  0  0  0  0  0  0  0  0  0
   21.3366   -5.2103  -16.1915 C   0  0  0  0  0  0  0  0  0  0  0  0
   21.6125   -5.1243  -14.9779 O   0  0  0  0  0  0  0  0  0  0  0  0
   21.4184   -4.0114  -16.9242 O   0  0  0  0  0  0  0  0  0  0  0  0
  2  1  1  0
  3  2  2  0
  4  2  1  0
  5  6  1  0
  5  4  1  0
  6  7  1  1
  6  8  1  0
  8  9  2  0
 10 11  1  0
 11 12  2  0
 14 13  1  6
 13 11  1  0
 14 16  1  0
 15  8  1  0
 15 14  1  0
 16 17  2  0
 18 19  1  0
 18 16  1  0
 19 26  1  0
 19 20  1  1
 21 20  1  0
 22 21  2  0
 23 22  1  0
 24 23  1  0
 24 25  2  0
 25 21  1  0
 26 27  2  0
 26 28  1  0
M  END
$$$$
