QNH.pdb
     RDKit          3D

 28 28  0  0  1  0  0  0  0  0999 V2000
   25.0279  -19.2167  -20.5420 N   0  0  0  0  0  0  0  0  0  0  0  0
   24.7680  -17.9201  -19.9488 C   0  0  0  0  0  0  0  0  0  0  0  0
   25.7768  -17.2155  -19.6930 O   0  0  0  0  0  0  0  0  0  0  0  0
   23.3705  -17.5816  -19.7117 C   0  0  0  0  0  0  0  0  0  0  0  0
   22.3631  -18.6178  -20.1032 C   0  0  0  0  0  0  0  0  0  0  0  0
   20.9460  -18.2302  -19.8383 C   0  0  2  0  0  0  0  0  0  0  0  0
   20.8367  -16.8167  -19.6721 N   0  0  0  0  0  0  0  0  0  0  0  0
   20.4121  -18.9928  -18.6462 C   0  0  0  0  0  0  0  0  0  0  0  0
   20.4224  -20.2215  -18.7698 O   0  0  0  0  0  0  0  0  0  0  0  0
   21.9323  -18.8020  -15.1199 N   0  0  0  0  0  0  0  0  0  0  0  0
   20.9625  -17.9487  -14.5526 C   0  0  0  0  0  0  0  0  0  0  0  0
   21.2882  -17.2207  -13.5878 O   0  0  0  0  0  0  0  0  0  0  0  0
   19.5975  -17.9142  -15.0821 C   0  0  0  0  0  0  0  0  0  0  0  0
   19.4009  -18.8472  -16.2688 C   0  0  2  0  0  0  0  0  0  0  0  0
   19.9488  -18.3869  -17.5053 N   0  0  0  0  0  0  0  0  0  0  0  0
   17.9324  -18.9097  -16.4718 C   0  0  0  0  0  0  0  0  0  0  0  0
   17.3719  -17.8839  -16.9989 O   0  0  0  0  0  0  0  0  0  0  0  0
   17.1244  -20.0317  -16.1185 N   0  0  0  0  0  0  0  0  0  0  0  0
   15.6878  -19.9306  -16.4465 C   0  0  1  0  0  0  0  0  0  0  0  0
   15.1637  -21.3454  -16.4114 C   0  0  0  0  0  0  0  0  0  0  0  0
   15.4387  -22.0438  -17.6658 C   0  0  0  0  0  0  0  0  0  0  0  0
   15.9203  -21.4151  -18.8250 C   0  0  0  0  0  0  0  0  0  0  0  0
   16.0584  -22.3390  -19.7777 N   0  0  0  0  0  0  0  0  0  0  0  0
   15.6899  -23.5382  -19.2959 C   0  0  0  0  0  0  0  0  0  0  0  0
   15.3230  -23.3273  -18.0254 N   0  0  0  0  0  0  0  0  0  0  0  0
   15.0320  -19.1414  -15.3600 C   0  0  0  0  0  0  0  0  0  0  0  0
   15.5753  -18.7897  -14.2935 O   0  0  0  0  0  0  0  0  0  0  0  0
   13.6909  -18.7467  -15.5229 O   0  0  0  0  0  0  0  0  0  0  0  0
  2  1  1  0
  3  2  2  0
  4  2  1  0
  5  6  1  0
  5  4  1  0
  6  7  1  1
  6  8  1  0
  8  9  2  0
 10 11  1  0
 11 12  2  0
 14 13  1  1
 13 11  1  0
 14 16  1  0
 15  8  1  0
 15 14  1  0
 16 17  2  0
 18 19  1  0
 18 16  1  0
 19 26  1  0
 19 20  1  1
 21 20  1  0
 22 21  2  0
 23 22  1  0
 24 23  1  0
 24 25  2  0
 25 21  1  0
 26 27  2  0
 26 28  1  0
M  END
$$$$
