QNH.pdb
     RDKit          3D

 28 28  0  0  1  0  0  0  0  0999 V2000
   18.7385  -18.1494  -17.6920 N   0  0  0  0  0  0  0  0  0  0  0  0
   19.8148  -18.0479  -16.7268 C   0  0  0  0  0  0  0  0  0  0  0  0
   20.1425  -19.1144  -16.1481 O   0  0  0  0  0  0  0  0  0  0  0  0
   20.3917  -16.7238  -16.5325 C   0  0  0  0  0  0  0  0  0  0  0  0
   19.8267  -15.6253  -17.3786 C   0  0  0  0  0  0  0  0  0  0  0  0
   20.4109  -14.2781  -17.1096 C   0  0  2  0  0  0  0  0  0  0  0  0
   20.8528  -14.1859  -15.7554 N   0  0  0  0  0  0  0  0  0  0  0  0
   19.4132  -13.1980  -17.4641 C   0  0  0  0  0  0  0  0  0  0  0  0
   19.0404  -13.2030  -18.6414 O   0  0  0  0  0  0  0  0  0  0  0  0
   15.7127  -12.7932  -16.1075 N   0  0  0  0  0  0  0  0  0  0  0  0
   16.0643  -11.8542  -15.1148 C   0  0  0  0  0  0  0  0  0  0  0  0
   15.3614  -11.7746  -14.0822 O   0  0  0  0  0  0  0  0  0  0  0  0
   17.2315  -10.9868  -15.2882 C   0  0  0  0  0  0  0  0  0  0  0  0
   17.9635  -11.2370  -16.5993 C   0  0  2  0  0  0  0  0  0  0  0  0
   18.9441  -12.2752  -16.5632 N   0  0  0  0  0  0  0  0  0  0  0  0
   18.7077   -9.9825  -16.8716 C   0  0  0  0  0  0  0  0  0  0  0  0
   19.7953   -9.7957  -16.2185 O   0  0  0  0  0  0  0  0  0  0  0  0
   18.2853   -8.9901  -17.8061 N   0  0  0  0  0  0  0  0  0  0  0  0
   19.1390   -7.7896  -17.9137 C   0  0  1  0  0  0  0  0  0  0  0  0
   18.8030   -7.1720  -19.2491 C   0  0  0  0  0  0  0  0  0  0  0  0
   19.6950   -6.0554  -19.5562 C   0  0  0  0  0  0  0  0  0  0  0  0
   20.8787   -5.7801  -18.8534 C   0  0  0  0  0  0  0  0  0  0  0  0
   21.4448   -4.6981  -19.3912 N   0  0  0  0  0  0  0  0  0  0  0  0
   20.6876   -4.2552  -20.4092 C   0  0  0  0  0  0  0  0  0  0  0  0
   19.6443   -5.0915  -20.4827 N   0  0  0  0  0  0  0  0  0  0  0  0
   18.7325   -6.8487  -16.8261 C   0  0  0  0  0  0  0  0  0  0  0  0
   19.1832   -5.6972  -16.6606 O   0  0  0  0  0  0  0  0  0  0  0  0
   17.7630   -7.2661  -15.8951 O   0  0  0  0  0  0  0  0  0  0  0  0
  2  1  1  0
  3  2  2  0
  4  2  1  0
  5  6  1  0
  5  4  1  0
  6  7  1  1
  6  8  1  0
  8  9  2  0
 10 11  1  0
 11 12  2  0
 14 13  1  1
 13 11  1  0
 14 16  1  0
 15  8  1  0
 15 14  1  0
 16 17  2  0
 18 19  1  0
 18 16  1  0
 19 26  1  0
 19 20  1  6
 21 20  1  0
 22 21  2  0
 23 22  1  0
 24 23  1  0
 24 25  2  0
 25 21  1  0
 26 27  2  0
 26 28  1  0
M  END
$$$$
