QNH.pdb
     RDKit          3D

 28 28  0  0  1  0  0  0  0  0999 V2000
   26.0409  -34.1988   -8.4599 N   0  0  0  0  0  0  0  0  0  0  0  0
   25.1927  -33.0259   -8.3860 C   0  0  0  0  0  0  0  0  0  0  0  0
   24.9804  -32.4264   -9.4700 O   0  0  0  0  0  0  0  0  0  0  0  0
   24.6863  -32.6715   -7.0662 C   0  0  0  0  0  0  0  0  0  0  0  0
   25.0859  -33.5736   -5.9400 C   0  0  0  0  0  0  0  0  0  0  0  0
   24.4077  -33.2776   -4.6435 C   0  0  2  0  0  0  0  0  0  0  0  0
   25.1374  -32.2938   -3.9104 N   0  0  0  0  0  0  0  0  0  0  0  0
   24.2111  -34.5537   -3.8558 C   0  0  0  0  0  0  0  0  0  0  0  0
   23.7361  -35.4933   -4.5012 O   0  0  0  0  0  0  0  0  0  0  0  0
   25.8606  -38.0711   -2.8160 N   0  0  0  0  0  0  0  0  0  0  0  0
   26.5659  -37.0624   -2.1262 C   0  0  0  0  0  0  0  0  0  0  0  0
   27.7788  -36.8898   -2.3826 O   0  0  0  0  0  0  0  0  0  0  0  0
   25.8917  -36.2307   -1.1268 C   0  0  0  0  0  0  0  0  0  0  0  0
   24.5205  -35.7533   -1.5841 C   0  0  2  0  0  0  0  0  0  0  0  0
   24.5301  -34.6802   -2.5271 N   0  0  0  0  0  0  0  0  0  0  0  0
   23.8713  -35.2167   -0.3625 C   0  0  0  0  0  0  0  0  0  0  0  0
   24.1994  -34.0312    0.0000 O   0  0  0  0  0  0  0  0  0  0  0  0
   22.9170  -35.9368    0.4169 N   0  0  0  0  0  0  0  0  0  0  0  0
   22.2977  -35.1983    1.5361 C   0  0  1  0  0  0  0  0  0  0  0  0
   20.9014  -35.7560    1.6659 C   0  0  0  0  0  0  0  0  0  0  0  0
   19.9807  -35.1012    0.7383 C   0  0  0  0  0  0  0  0  0  0  0  0
   20.2642  -33.9013    0.0669 C   0  0  0  0  0  0  0  0  0  0  0  0
   19.2144  -33.5876   -0.6945 N   0  0  0  0  0  0  0  0  0  0  0  0
   18.2611  -34.5240   -0.5515 C   0  0  0  0  0  0  0  0  0  0  0  0
   18.7518  -35.4190    0.3154 N   0  0  0  0  0  0  0  0  0  0  0  0
   23.0694  -35.5250    2.7734 C   0  0  0  0  0  0  0  0  0  0  0  0
   22.7683  -35.1649    3.9292 O   0  0  0  0  0  0  0  0  0  0  0  0
   24.2377  -36.3016    2.6590 O   0  0  0  0  0  0  0  0  0  0  0  0
  2  1  1  0
  3  2  2  0
  4  2  1  0
  5  6  1  0
  5  4  1  0
  6  7  1  1
  6  8  1  0
  8  9  2  0
 10 11  1  0
 11 12  2  0
 14 13  1  1
 13 11  1  0
 14 16  1  0
 15  8  1  0
 15 14  1  0
 16 17  2  0
 18 19  1  0
 18 16  1  0
 19 26  1  0
 19 20  1  1
 21 20  1  0
 22 21  2  0
 23 22  1  0
 24 23  1  0
 24 25  2  0
 25 21  1  0
 26 27  2  0
 26 28  1  0
M  END
$$$$
