QNH.pdb
     RDKit          3D

 28 28  0  0  1  0  0  0  0  0999 V2000
   20.4282  -16.8761  -13.5324 N   0  0  0  0  0  0  0  0  0  0  0  0
   21.2415  -17.1735  -14.6945 C   0  0  0  0  0  0  0  0  0  0  0  0
   21.7942  -18.3021  -14.7100 O   0  0  0  0  0  0  0  0  0  0  0  0
   21.3310  -16.1317  -15.7097 C   0  0  0  0  0  0  0  0  0  0  0  0
   20.5284  -14.8929  -15.4590 C   0  0  0  0  0  0  0  0  0  0  0  0
   19.3599  -14.7207  -16.3719 C   0  0  2  0  0  0  0  0  0  0  0  0
   19.3497  -15.7417  -17.3695 N   0  0  0  0  0  0  0  0  0  0  0  0
   19.3672  -13.3316  -16.9703 C   0  0  0  0  0  0  0  0  0  0  0  0
   20.3536  -13.0723  -17.6666 O   0  0  0  0  0  0  0  0  0  0  0  0
   15.4859  -11.1341  -19.4812 N   0  0  0  0  0  0  0  0  0  0  0  0
   15.7045  -11.5571  -18.1530 C   0  0  0  0  0  0  0  0  0  0  0  0
   15.1625  -12.6142  -17.7585 O   0  0  0  0  0  0  0  0  0  0  0  0
   16.5507  -10.7738  -17.2501 C   0  0  0  0  0  0  0  0  0  0  0  0
   18.0222  -11.1527  -17.3430 C   0  0  2  0  0  0  0  0  0  0  0  0
   18.3655  -12.4153  -16.7695 N   0  0  0  0  0  0  0  0  0  0  0  0
   18.7356  -10.1314  -16.5370 C   0  0  0  0  0  0  0  0  0  0  0  0
   18.8678  -10.3654  -15.2831 O   0  0  0  0  0  0  0  0  0  0  0  0
   19.2738   -8.9235  -17.0736 N   0  0  0  0  0  0  0  0  0  0  0  0
   20.0202   -8.0661  -16.1306 C   0  0  1  0  0  0  0  0  0  0  0  0
   20.8015   -7.1029  -16.9904 C   0  0  0  0  0  0  0  0  0  0  0  0
   21.5822   -6.1759  -16.1730 C   0  0  0  0  0  0  0  0  0  0  0  0
   21.7256   -6.2864  -14.7809 C   0  0  0  0  0  0  0  0  0  0  0  0
   22.4967   -5.2834  -14.3569 N   0  0  0  0  0  0  0  0  0  0  0  0
   22.8618   -4.5250  -15.4045 C   0  0  0  0  0  0  0  0  0  0  0  0
   22.2965   -5.0872  -16.4804 N   0  0  0  0  0  0  0  0  0  0  0  0
   19.0186   -7.3002  -15.3283 C   0  0  0  0  0  0  0  0  0  0  0  0
   17.8944   -6.9388  -15.7307 O   0  0  0  0  0  0  0  0  0  0  0  0
   19.3397   -6.9418  -14.0057 O   0  0  0  0  0  0  0  0  0  0  0  0
  2  1  1  0
  3  2  2  0
  4  2  1  0
  5  6  1  0
  5  4  1  0
  6  7  1  6
  6  8  1  0
  8  9  2  0
 10 11  1  0
 11 12  2  0
 14 13  1  1
 13 11  1  0
 14 16  1  0
 15  8  1  0
 15 14  1  0
 16 17  2  0
 18 19  1  0
 18 16  1  0
 19 26  1  0
 19 20  1  6
 21 20  1  0
 22 21  2  0
 23 22  1  0
 24 23  1  0
 24 25  2  0
 25 21  1  0
 26 27  2  0
 26 28  1  0
M  END
$$$$
