QNH.pdb
     RDKit          3D

 28 28  0  0  1  0  0  0  0  0999 V2000
   26.6403  -17.2419  -17.9553 N   0  0  0  0  0  0  0  0  0  0  0  0
   27.9997  -17.3044  -17.4568 C   0  0  0  0  0  0  0  0  0  0  0  0
   28.8479  -16.6100  -18.0716 O   0  0  0  0  0  0  0  0  0  0  0  0
   28.2312  -18.1667  -16.3049 C   0  0  0  0  0  0  0  0  0  0  0  0
   27.0325  -18.8800  -15.7609 C   0  0  0  0  0  0  0  0  0  0  0  0
   27.3486  -20.1295  -15.0076 C   0  0  2  0  0  0  0  0  0  0  0  0
   28.0474  -21.0534  -15.8417 N   0  0  0  0  0  0  0  0  0  0  0  0
   26.0836  -20.7214  -14.4271 C   0  0  0  0  0  0  0  0  0  0  0  0
   25.4311  -21.4191  -15.2097 O   0  0  0  0  0  0  0  0  0  0  0  0
   26.6162  -20.9225   -9.2908 N   0  0  0  0  0  0  0  0  0  0  0  0
   25.7812  -21.4838  -10.2799 C   0  0  0  0  0  0  0  0  0  0  0  0
   25.9972  -22.6572  -10.6585 O   0  0  0  0  0  0  0  0  0  0  0  0
   24.6801  -20.7080  -10.8551 C   0  0  0  0  0  0  0  0  0  0  0  0
   24.5407  -20.9057  -12.3580 C   0  0  2  0  0  0  0  0  0  0  0  0
   25.6745  -20.5136  -13.1337 N   0  0  0  0  0  0  0  0  0  0  0  0
   23.4360  -20.0028  -12.7655 C   0  0  0  0  0  0  0  0  0  0  0  0
   23.7451  -18.7883  -13.0372 O   0  0  0  0  0  0  0  0  0  0  0  0
   22.0714  -20.4071  -12.8701 N   0  0  0  0  0  0  0  0  0  0  0  0
   21.1723  -19.4880  -13.5971 C   0  0  1  0  0  0  0  0  0  0  0  0
   21.6907  -19.4506  -15.0139 C   0  0  0  0  0  0  0  0  0  0  0  0
   20.8000  -18.6852  -15.8843 C   0  0  0  0  0  0  0  0  0  0  0  0
   20.1602  -17.4956  -15.5017 C   0  0  0  0  0  0  0  0  0  0  0  0
   19.4268  -17.0636  -16.5292 N   0  0  0  0  0  0  0  0  0  0  0  0
   19.5572  -17.9139  -17.5618 C   0  0  0  0  0  0  0  0  0  0  0  0
   20.3881  -18.8768  -17.1427 N   0  0  0  0  0  0  0  0  0  0  0  0
   19.8074  -20.0966  -13.5940 C   0  0  0  0  0  0  0  0  0  0  0  0
   18.7444  -19.4863  -13.3620 O   0  0  0  0  0  0  0  0  0  0  0  0
   19.6764  -21.4702  -13.8720 O   0  0  0  0  0  0  0  0  0  0  0  0
  2  1  1  0
  3  2  2  0
  4  2  1  0
  5  6  1  0
  5  4  1  0
  6  7  1  6
  6  8  1  0
  8  9  2  0
 10 11  1  0
 11 12  2  0
 14 13  1  1
 13 11  1  0
 14 16  1  0
 15  8  1  0
 15 14  1  0
 16 17  2  0
 18 19  1  0
 18 16  1  0
 19 26  1  0
 19 20  1  6
 21 20  1  0
 22 21  2  0
 23 22  1  0
 24 23  1  0
 24 25  2  0
 25 21  1  0
 26 27  2  0
 26 28  1  0
M  END
$$$$
