QNH.pdb
     RDKit          3D

 28 28  0  0  1  0  0  0  0  0999 V2000
   16.8553  -14.6357  -14.5443 N   0  0  0  0  0  0  0  0  0  0  0  0
   17.3484  -15.4773  -15.6163 C   0  0  0  0  0  0  0  0  0  0  0  0
   16.7500  -16.5699  -15.7829 O   0  0  0  0  0  0  0  0  0  0  0  0
   18.4824  -14.9660  -16.3755 C   0  0  0  0  0  0  0  0  0  0  0  0
   18.9594  -13.5947  -16.0097 C   0  0  0  0  0  0  0  0  0  0  0  0
   20.1068  -13.1030  -16.8282 C   0  0  2  0  0  0  0  0  0  0  0  0
   20.8886  -14.1990  -17.3031 N   0  0  0  0  0  0  0  0  0  0  0  0
   20.9277  -12.1130  -16.0320 C   0  0  0  0  0  0  0  0  0  0  0  0
   20.5397  -11.9308  -14.8739 O   0  0  0  0  0  0  0  0  0  0  0  0
   26.6936  -10.1497  -15.6446 N   0  0  0  0  0  0  0  0  0  0  0  0
   25.3627  -10.5317  -15.3737 C   0  0  0  0  0  0  0  0  0  0  0  0
   25.0159  -10.7119  -14.1845 O   0  0  0  0  0  0  0  0  0  0  0  0
   24.4021  -10.7147  -16.4639 C   0  0  0  0  0  0  0  0  0  0  0  0
   22.9601  -10.5116  -16.0205 C   0  0  2  0  0  0  0  0  0  0  0  0
   22.0229  -11.4581  -16.5369 N   0  0  0  0  0  0  0  0  0  0  0  0
   22.5643   -9.1972  -16.5838 C   0  0  0  0  0  0  0  0  0  0  0  0
   22.3133   -9.1524  -17.8405 O   0  0  0  0  0  0  0  0  0  0  0  0
   22.4494   -8.0006  -15.8146 N   0  0  0  0  0  0  0  0  0  0  0  0
   21.5692   -6.9512  -16.3676 C   0  0  1  0  0  0  0  0  0  0  0  0
   20.1840   -7.5500  -16.3810 C   0  0  0  0  0  0  0  0  0  0  0  0
   19.1951   -6.5875  -16.8632 C   0  0  0  0  0  0  0  0  0  0  0  0
   19.4923   -5.5248  -17.7310 C   0  0  0  0  0  0  0  0  0  0  0  0
   18.3673   -4.8471  -17.9664 N   0  0  0  0  0  0  0  0  0  0  0  0
   17.3523   -5.4161  -17.2939 C   0  0  0  0  0  0  0  0  0  0  0  0
   17.8820   -6.4585  -16.6412 N   0  0  0  0  0  0  0  0  0  0  0  0
   21.5919   -5.7976  -15.4180 C   0  0  0  0  0  0  0  0  0  0  0  0
   22.0851   -5.8142  -14.2722 O   0  0  0  0  0  0  0  0  0  0  0  0
   21.0172   -4.5770  -15.8193 O   0  0  0  0  0  0  0  0  0  0  0  0
  2  1  1  0
  3  2  2  0
  4  2  1  0
  5  6  1  0
  5  4  1  0
  6  7  1  1
  6  8  1  0
  8  9  2  0
 10 11  1  0
 11 12  2  0
 14 13  1  6
 13 11  1  0
 14 16  1  0
 15  8  1  0
 15 14  1  0
 16 17  2  0
 18 19  1  0
 18 16  1  0
 19 26  1  0
 19 20  1  1
 21 20  1  0
 22 21  2  0
 23 22  1  0
 24 23  1  0
 24 25  2  0
 25 21  1  0
 26 27  2  0
 26 28  1  0
M  END
$$$$
