QNH.pdb
     RDKit          3D

 28 28  0  0  1  0  0  0  0  0999 V2000
   30.4259  -24.1912  -16.3251 N   0  0  0  0  0  0  0  0  0  0  0  0
   30.4017  -23.1288  -17.3106 C   0  0  0  0  0  0  0  0  0  0  0  0
   31.4815  -22.9088  -17.9149 O   0  0  0  0  0  0  0  0  0  0  0  0
   29.1330  -22.4335  -17.4864 C   0  0  0  0  0  0  0  0  0  0  0  0
   28.0243  -22.8367  -16.5646 C   0  0  0  0  0  0  0  0  0  0  0  0
   27.0499  -21.7474  -16.2599 C   0  0  2  0  0  0  0  0  0  0  0  0
   27.7203  -20.4916  -16.1542 N   0  0  0  0  0  0  0  0  0  0  0  0
   26.2634  -22.0865  -15.0133 C   0  0  0  0  0  0  0  0  0  0  0  0
   25.8074  -23.2338  -14.9841 O   0  0  0  0  0  0  0  0  0  0  0  0
   24.2874  -21.5487  -10.1850 N   0  0  0  0  0  0  0  0  0  0  0  0
   25.4419  -20.7442  -10.2882 C   0  0  0  0  0  0  0  0  0  0  0  0
   25.9235  -20.2420   -9.2477 O   0  0  0  0  0  0  0  0  0  0  0  0
   26.0672  -20.4998  -11.5898 C   0  0  0  0  0  0  0  0  0  0  0  0
   25.3906  -21.2600  -12.7218 C   0  0  2  0  0  0  0  0  0  0  0  0
   26.0612  -21.2039  -13.9820 N   0  0  0  0  0  0  0  0  0  0  0  0
   24.0888  -20.5766  -12.9220 C   0  0  0  0  0  0  0  0  0  0  0  0
   24.1211  -19.3159  -13.1542 O   0  0  0  0  0  0  0  0  0  0  0  0
   22.8244  -21.2364  -12.8714 N   0  0  0  0  0  0  0  0  0  0  0  0
   21.6488  -20.4238  -13.2448 C   0  0  1  0  0  0  0  0  0  0  0  0
   21.3125  -20.8247  -14.6603 C   0  0  0  0  0  0  0  0  0  0  0  0
   21.9672  -19.9478  -15.6295 C   0  0  0  0  0  0  0  0  0  0  0  0
   22.7038  -18.8045  -15.2813 C   0  0  0  0  0  0  0  0  0  0  0  0
   23.1600  -18.2412  -16.4015 N   0  0  0  0  0  0  0  0  0  0  0  0
   22.7560  -18.9611  -17.4619 C   0  0  0  0  0  0  0  0  0  0  0  0
   22.0418  -19.9791  -16.9649 N   0  0  0  0  0  0  0  0  0  0  0  0
   20.5229  -20.8205  -12.3458 C   0  0  0  0  0  0  0  0  0  0  0  0
   19.3808  -20.3185  -12.3532 O   0  0  0  0  0  0  0  0  0  0  0  0
   20.7364  -21.8420  -11.4013 O   0  0  0  0  0  0  0  0  0  0  0  0
  2  1  1  0
  3  2  2  0
  4  2  1  0
  5  6  1  0
  5  4  1  0
  6  7  1  1
  6  8  1  0
  8  9  2  0
 10 11  1  0
 11 12  2  0
 14 13  1  1
 13 11  1  0
 14 16  1  0
 15  8  1  0
 15 14  1  0
 16 17  2  0
 18 19  1  0
 18 16  1  0
 19 26  1  0
 19 20  1  6
 21 20  1  0
 22 21  2  0
 23 22  1  0
 24 23  1  0
 24 25  2  0
 25 21  1  0
 26 27  2  0
 26 28  1  0
M  END
$$$$
