QNH.pdb
     RDKit          3D

 28 28  0  0  1  0  0  0  0  0999 V2000
   15.2921  -14.5215  -16.4394 N   0  0  0  0  0  0  0  0  0  0  0  0
   16.2360  -15.6022  -16.2349 C   0  0  0  0  0  0  0  0  0  0  0  0
   15.7516  -16.7613  -16.1975 O   0  0  0  0  0  0  0  0  0  0  0  0
   17.6362  -15.2245  -16.0913 C   0  0  0  0  0  0  0  0  0  0  0  0
   17.9441  -13.7648  -16.2183 C   0  0  0  0  0  0  0  0  0  0  0  0
   19.2179  -13.4642  -16.9364 C   0  0  2  0  0  0  0  0  0  0  0  0
   20.0807  -14.6014  -16.9218 N   0  0  0  0  0  0  0  0  0  0  0  0
   19.8731  -12.2372  -16.3424 C   0  0  0  0  0  0  0  0  0  0  0  0
   20.0536  -12.2855  -15.1217 O   0  0  0  0  0  0  0  0  0  0  0  0
   22.0872   -7.4382  -16.2985 N   0  0  0  0  0  0  0  0  0  0  0  0
   21.7971   -7.7455  -17.6447 C   0  0  0  0  0  0  0  0  0  0  0  0
   22.1473   -6.9407  -18.5372 O   0  0  0  0  0  0  0  0  0  0  0  0
   21.0983   -8.9843  -17.9935 C   0  0  0  0  0  0  0  0  0  0  0  0
   20.8876   -9.9004  -16.7962 C   0  0  2  0  0  0  0  0  0  0  0  0
   20.2475  -11.1448  -17.0839 N   0  0  0  0  0  0  0  0  0  0  0  0
   19.9606   -9.1620  -15.9033 C   0  0  0  0  0  0  0  0  0  0  0  0
   18.7271   -9.1173  -16.2511 O   0  0  0  0  0  0  0  0  0  0  0  0
   20.3614   -8.5107  -14.6985 N   0  0  0  0  0  0  0  0  0  0  0  0
   19.2799   -7.9154  -13.8875 C   0  0  1  0  0  0  0  0  0  0  0  0
   19.2350   -8.7255  -12.6150 C   0  0  0  0  0  0  0  0  0  0  0  0
   18.3345   -8.1224  -11.6341 C   0  0  0  0  0  0  0  0  0  0  0  0
   17.5729   -6.9676  -11.8736 C   0  0  0  0  0  0  0  0  0  0  0  0
   16.8676   -6.6939  -10.7746 N   0  0  0  0  0  0  0  0  0  0  0  0
   17.1329   -7.6134   -9.8311 C   0  0  0  0  0  0  0  0  0  0  0  0
   18.0172   -8.4572  -10.3782 N   0  0  0  0  0  0  0  0  0  0  0  0
   19.6824   -6.5142  -13.5587 C   0  0  0  0  0  0  0  0  0  0  0  0
   18.9664   -5.6739  -12.9777 O   0  0  0  0  0  0  0  0  0  0  0  0
   20.9697   -6.0753  -13.9212 O   0  0  0  0  0  0  0  0  0  0  0  0
  2  1  1  0
  3  2  2  0
  4  2  1  0
  5  6  1  0
  5  4  1  0
  6  7  1  1
  6  8  1  0
  8  9  2  0
 10 11  1  0
 11 12  2  0
 14 13  1  6
 13 11  1  0
 14 16  1  0
 15  8  1  0
 15 14  1  0
 16 17  2  0
 18 19  1  0
 18 16  1  0
 19 26  1  0
 19 20  1  1
 21 20  1  0
 22 21  2  0
 23 22  1  0
 24 23  1  0
 24 25  2  0
 25 21  1  0
 26 27  2  0
 26 28  1  0
M  END
$$$$
