QNH.pdb
     RDKit          3D

 28 28  0  0  1  0  0  0  0  0999 V2000
   17.4504  -15.3728  -15.0523 N   0  0  0  0  0  0  0  0  0  0  0  0
   16.9513  -15.0520  -16.3746 C   0  0  0  0  0  0  0  0  0  0  0  0
   16.0387  -15.7940  -16.8174 O   0  0  0  0  0  0  0  0  0  0  0  0
   17.5650  -13.9113  -17.0425 C   0  0  0  0  0  0  0  0  0  0  0  0
   18.5625  -13.1336  -16.2414 C   0  0  0  0  0  0  0  0  0  0  0  0
   19.2460  -12.0441  -16.9993 C   0  0  2  0  0  0  0  0  0  0  0  0
   20.2277  -12.5881  -17.8814 N   0  0  0  0  0  0  0  0  0  0  0  0
   19.8320  -11.0317  -16.0405 C   0  0  0  0  0  0  0  0  0  0  0  0
   19.1934  -10.8781  -14.9947 O   0  0  0  0  0  0  0  0  0  0  0  0
   23.2300  -11.4729  -14.3886 N   0  0  0  0  0  0  0  0  0  0  0  0
   23.9485  -10.5820  -15.2136 C   0  0  0  0  0  0  0  0  0  0  0  0
   25.1725  -10.7757  -15.3904 O   0  0  0  0  0  0  0  0  0  0  0  0
   23.2753   -9.4493  -15.8529 C   0  0  0  0  0  0  0  0  0  0  0  0
   21.7834   -9.4037  -15.5534 C   0  0  2  0  0  0  0  0  0  0  0  0
   20.9833  -10.3285  -16.2921 N   0  0  0  0  0  0  0  0  0  0  0  0
   21.3447   -8.0524  -15.9815 C   0  0  0  0  0  0  0  0  0  0  0  0
   21.2487   -7.8424  -17.2429 O   0  0  0  0  0  0  0  0  0  0  0  0
   21.0286   -6.9924  -15.0798 N   0  0  0  0  0  0  0  0  0  0  0  0
   20.6327   -5.7090  -15.6944 C   0  0  1  0  0  0  0  0  0  0  0  0
   19.2510   -5.4148  -15.1634 C   0  0  0  0  0  0  0  0  0  0  0  0
   18.7859   -4.0984  -15.5967 C   0  0  0  0  0  0  0  0  0  0  0  0
   19.4493   -3.3047  -16.5457 C   0  0  0  0  0  0  0  0  0  0  0  0
   18.7585   -2.1743  -16.7048 N   0  0  0  0  0  0  0  0  0  0  0  0
   17.6783   -2.1928  -15.9056 C   0  0  0  0  0  0  0  0  0  0  0  0
   17.7233   -3.3614  -15.2533 N   0  0  0  0  0  0  0  0  0  0  0  0
   21.5775   -4.6621  -15.1997 C   0  0  0  0  0  0  0  0  0  0  0  0
   22.2043   -4.7054  -14.1219 O   0  0  0  0  0  0  0  0  0  0  0  0
   21.8004   -3.5203  -15.9919 O   0  0  0  0  0  0  0  0  0  0  0  0
  2  1  1  0
  3  2  2  0
  4  2  1  0
  5  6  1  0
  5  4  1  0
  6  7  1  1
  6  8  1  0
  8  9  2  0
 10 11  1  0
 11 12  2  0
 14 13  1  6
 13 11  1  0
 14 16  1  0
 15  8  1  0
 15 14  1  0
 16 17  2  0
 18 19  1  0
 18 16  1  0
 19 26  1  0
 19 20  1  1
 21 20  1  0
 22 21  2  0
 23 22  1  0
 24 23  1  0
 24 25  2  0
 25 21  1  0
 26 27  2  0
 26 28  1  0
M  END
$$$$
