QNH.pdb
     RDKit          3D

 28 28  0  0  1  0  0  0  0  0999 V2000
   18.5148  -14.9681  -15.1200 N   0  0  0  0  0  0  0  0  0  0  0  0
   18.7366  -15.2528  -16.5237 C   0  0  0  0  0  0  0  0  0  0  0  0
   18.4155  -16.4038  -16.9131 O   0  0  0  0  0  0  0  0  0  0  0  0
   19.3097  -14.1773  -17.3229 C   0  0  0  0  0  0  0  0  0  0  0  0
   19.6627  -12.9221  -16.5871 C   0  0  0  0  0  0  0  0  0  0  0  0
   19.4694  -11.6701  -17.3770 C   0  0  2  0  0  0  0  0  0  0  0  0
   20.0732  -11.7928  -18.6647 N   0  0  0  0  0  0  0  0  0  0  0  0
   19.9969  -10.4811  -16.6051 C   0  0  0  0  0  0  0  0  0  0  0  0
   19.5173  -10.3423  -15.4756 O   0  0  0  0  0  0  0  0  0  0  0  0
   23.0871   -6.3293  -15.5741 N   0  0  0  0  0  0  0  0  0  0  0  0
   23.7179   -7.1160  -16.5610 C   0  0  0  0  0  0  0  0  0  0  0  0
   24.8994   -6.8525  -16.8798 O   0  0  0  0  0  0  0  0  0  0  0  0
   23.0039   -8.2221  -17.2025 C   0  0  0  0  0  0  0  0  0  0  0  0
   21.6369   -8.4798  -16.5844 C   0  0  2  0  0  0  0  0  0  0  0  0
   20.9361   -9.6123  -17.1013 N   0  0  0  0  0  0  0  0  0  0  0  0
   20.8200   -7.2951  -16.9460 C   0  0  0  0  0  0  0  0  0  0  0  0
   20.5952   -7.0999  -18.1933 O   0  0  0  0  0  0  0  0  0  0  0  0
   20.2797   -6.3774  -15.9960 N   0  0  0  0  0  0  0  0  0  0  0  0
   19.4673   -5.2726  -16.5449 C   0  0  1  0  0  0  0  0  0  0  0  0
   18.1314   -5.3679  -15.8493 C   0  0  0  0  0  0  0  0  0  0  0  0
   17.3277   -6.4613  -16.3927 C   0  0  0  0  0  0  0  0  0  0  0  0
   17.0302   -6.6145  -17.7561 C   0  0  0  0  0  0  0  0  0  0  0  0
   16.2820   -7.7095  -17.9025 N   0  0  0  0  0  0  0  0  0  0  0  0
   16.0773   -8.2765  -16.7014 C   0  0  0  0  0  0  0  0  0  0  0  0
   16.7180   -7.5031  -15.8156 N   0  0  0  0  0  0  0  0  0  0  0  0
   20.1287   -3.9903  -16.1553 C   0  0  0  0  0  0  0  0  0  0  0  0
   21.2193   -3.8922  -15.5575 O   0  0  0  0  0  0  0  0  0  0  0  0
   19.4944   -2.7752  -16.4748 O   0  0  0  0  0  0  0  0  0  0  0  0
  2  1  1  0
  3  2  2  0
  4  2  1  0
  5  6  1  0
  5  4  1  0
  6  7  1  6
  6  8  1  0
  8  9  2  0
 10 11  1  0
 11 12  2  0
 14 13  1  6
 13 11  1  0
 14 16  1  0
 15  8  1  0
 15 14  1  0
 16 17  2  0
 18 19  1  0
 18 16  1  0
 19 26  1  0
 19 20  1  1
 21 20  1  0
 22 21  2  0
 23 22  1  0
 24 23  1  0
 24 25  2  0
 25 21  1  0
 26 27  2  0
 26 28  1  0
M  END
$$$$
