QNH.pdb
     RDKit          3D

 28 28  0  0  1  0  0  0  0  0999 V2000
   16.3158  -12.2213  -13.8632 N   0  0  0  0  0  0  0  0  0  0  0  0
   16.2268  -13.0988  -15.0132 C   0  0  0  0  0  0  0  0  0  0  0  0
   15.1797  -13.7879  -15.1047 O   0  0  0  0  0  0  0  0  0  0  0  0
   17.3600  -13.0875  -15.9294 C   0  0  0  0  0  0  0  0  0  0  0  0
   18.4758  -12.1486  -15.5901 C   0  0  0  0  0  0  0  0  0  0  0  0
   18.9786  -11.3466  -16.7445 C   0  0  2  0  0  0  0  0  0  0  0  0
   19.4355  -12.2055  -17.7891 N   0  0  0  0  0  0  0  0  0  0  0  0
   20.0490  -10.3832  -16.2821 C   0  0  0  0  0  0  0  0  0  0  0  0
   20.7416  -10.7893  -15.3438 O   0  0  0  0  0  0  0  0  0  0  0  0
   21.4976   -7.1374  -20.1895 N   0  0  0  0  0  0  0  0  0  0  0  0
   21.9212   -7.5174  -18.8985 C   0  0  0  0  0  0  0  0  0  0  0  0
   22.9022   -8.2868  -18.7865 O   0  0  0  0  0  0  0  0  0  0  0  0
   21.2261   -7.0211  -17.7088 C   0  0  0  0  0  0  0  0  0  0  0  0
   21.1416   -8.0591  -16.5985 C   0  0  2  0  0  0  0  0  0  0  0  0
   20.2531   -9.1497  -16.8477 N   0  0  0  0  0  0  0  0  0  0  0  0
   20.5791   -7.3331  -15.4331 C   0  0  0  0  0  0  0  0  0  0  0  0
   19.4312   -7.7140  -15.0069 O   0  0  0  0  0  0  0  0  0  0  0  0
   21.2364   -6.2526  -14.7721 N   0  0  0  0  0  0  0  0  0  0  0  0
   20.6134   -5.7777  -13.5199 C   0  0  1  0  0  0  0  0  0  0  0  0
   20.8001   -6.8968  -12.5248 C   0  0  0  0  0  0  0  0  0  0  0  0
   19.5505   -7.2032  -11.8310 C   0  0  0  0  0  0  0  0  0  0  0  0
   18.3342   -6.5472  -12.0783 C   0  0  0  0  0  0  0  0  0  0  0  0
   17.4043   -7.0697  -11.2766 N   0  0  0  0  0  0  0  0  0  0  0  0
   17.9556   -8.0332  -10.5191 C   0  0  0  0  0  0  0  0  0  0  0  0
   19.2451   -8.0889  -10.8759 N   0  0  0  0  0  0  0  0  0  0  0  0
   21.3832   -4.5826  -13.0587 C   0  0  0  0  0  0  0  0  0  0  0  0
   20.8850   -3.5341  -12.6019 O   0  0  0  0  0  0  0  0  0  0  0  0
   22.7885   -4.6108  -13.1328 O   0  0  0  0  0  0  0  0  0  0  0  0
  2  1  1  0
  3  2  2  0
  4  2  1  0
  5  6  1  0
  5  4  1  0
  6  7  1  6
  6  8  1  0
  8  9  2  0
 10 11  1  0
 11 12  2  0
 14 13  1  6
 13 11  1  0
 14 16  1  0
 15  8  1  0
 15 14  1  0
 16 17  2  0
 18 19  1  0
 18 16  1  0
 19 26  1  0
 19 20  1  1
 21 20  1  0
 22 21  2  0
 23 22  1  0
 24 23  1  0
 24 25  2  0
 25 21  1  0
 26 27  2  0
 26 28  1  0
M  END
$$$$
