VWE.pdb
     RDKit          3D

 31 32  0  0  1  0  0  0  0  0999 V2000
    7.1545  -13.4600   19.1924 C   0  0  0  0  0  0  0  0  0  0  0  0
    7.8966  -13.6291   20.5054 C   0  0  1  0  0  0  0  0  0  0  0  0
    7.1860  -12.9913   21.6656 C   0  0  0  0  0  0  0  0  0  0  0  0
    8.2882  -15.0766   20.7584 C   0  0  2  0  0  0  0  0  0  0  0  0
    7.0764  -15.9071   20.7286 N   0  0  0  0  0  0  0  0  0  0  0  0
    9.0008  -15.2605   22.0445 C   0  0  0  0  0  0  0  0  0  0  0  0
   10.1334  -14.6897   22.1363 O   0  0  0  0  0  0  0  0  0  0  0  0
    8.4805  -16.0117   23.1168 N   0  0  0  0  0  0  0  0  0  0  0  0
    9.1350  -16.3467   24.3406 C   0  0  1  0  0  0  0  0  0  0  0  0
    8.1926  -16.4732   25.5364 C   0  0  0  0  0  0  0  0  0  0  0  0
    7.3105  -15.2650   25.6316 C   0  0  0  0  0  0  0  0  0  0  0  0
    5.9993  -15.1969   25.2495 C   0  0  0  0  0  0  0  0  0  0  0  0
    5.4968  -13.9380   25.4658 N   0  0  0  0  0  0  0  0  0  0  0  0
    6.4978  -13.2177   25.9840 C   0  0  0  0  0  0  0  0  0  0  0  0
    6.4930  -11.8940   26.3827 C   0  0  0  0  0  0  0  0  0  0  0  0
    7.6556  -11.3803   26.9029 C   0  0  0  0  0  0  0  0  0  0  0  0
    8.7998  -12.1553   27.0275 C   0  0  0  0  0  0  0  0  0  0  0  0
    8.7740  -13.4849   26.6168 C   0  0  0  0  0  0  0  0  0  0  0  0
    7.6310  -14.0151   26.0977 C   0  0  0  0  0  0  0  0  0  0  0  0
   10.0690  -17.4702   24.2142 C   0  0  0  0  0  0  0  0  0  0  0  0
    9.6915  -18.5207   23.6204 O   0  0  0  0  0  0  0  0  0  0  0  0
   11.3848  -17.4409   24.7291 N   0  0  0  0  0  0  0  0  0  0  0  0
   12.3253  -18.5366   24.7054 C   0  0  1  0  0  0  0  0  0  0  0  0
   13.4747  -18.2252   23.7777 C   0  0  0  0  0  0  0  0  0  0  0  0
   14.5840  -17.4566   24.4215 C   0  0  0  0  0  0  0  0  0  0  0  0
   15.2980  -16.5684   23.4776 C   0  0  0  0  0  0  0  0  0  0  0  0
   15.4872  -15.3505   23.8046 O   0  0  0  0  0  0  0  0  0  0  0  0
   12.9315  -18.6979   26.0659 C   0  0  0  0  0  0  0  0  0  0  0  0
   12.6405  -17.8798   26.9651 O   0  0  0  0  0  0  0  0  0  0  0  0
   15.7757  -16.9909   22.2496 O   0  0  0  0  0  0  0  0  0  0  0  0
   13.8057  -19.7268   26.3556 O   0  0  0  0  0  0  0  0  0  0  0  0
  2  1  1  6
  3  2  1  0
  4  5  1  1
  4  2  1  0
  6  8  1  0
  6  4  1  0
  7  6  2  0
  9 20  1  0
  9  8  1  0
  9 10  1  1
 11 10  1  0
 12 11  2  0
 13 14  1  0
 13 12  1  0
 14 19  2  0
 15 16  2  0
 15 14  1  0
 16 17  1  0
 17 18  2  0
 19 18  1  0
 19 11  1  0
 20 22  1  0
 21 20  2  0
 22 23  1  0
 23 28  1  0
 23 24  1  6
 25 24  1  0
 26 25  1  0
 27 26  2  0
 28 29  2  0
 28 31  1  0
 30 26  1  0
M  END
$$$$
