VWE.pdb
     RDKit          3D

 31 32  0  0  1  0  0  0  0  0999 V2000
    8.8878  -12.8463   19.9919 C   0  0  0  0  0  0  0  0  0  0  0  0
    7.6395  -13.6128   20.3886 C   0  0  1  0  0  0  0  0  0  0  0  0
    6.5521  -13.5358   19.3544 C   0  0  0  0  0  0  0  0  0  0  0  0
    7.9565  -15.0339   20.8273 C   0  0  2  0  0  0  0  0  0  0  0  0
    6.7109  -15.8132   20.8444 N   0  0  0  0  0  0  0  0  0  0  0  0
    8.6115  -15.0905   22.1552 C   0  0  0  0  0  0  0  0  0  0  0  0
    9.4547  -14.1697   22.3962 O   0  0  0  0  0  0  0  0  0  0  0  0
    8.3358  -16.0870   23.1122 N   0  0  0  0  0  0  0  0  0  0  0  0
    8.9894  -16.2929   24.3646 C   0  0  1  0  0  0  0  0  0  0  0  0
    8.0368  -16.3959   25.5546 C   0  0  0  0  0  0  0  0  0  0  0  0
    7.1728  -15.1736   25.6347 C   0  0  0  0  0  0  0  0  0  0  0  0
    5.8546  -15.0983   25.2789 C   0  0  0  0  0  0  0  0  0  0  0  0
    5.3734  -13.8273   25.4704 N   0  0  0  0  0  0  0  0  0  0  0  0
    6.3946  -13.1065   25.9466 C   0  0  0  0  0  0  0  0  0  0  0  0
    6.4157  -11.7722   26.3079 C   0  0  0  0  0  0  0  0  0  0  0  0
    7.5959  -11.2601   26.7884 C   0  0  0  0  0  0  0  0  0  0  0  0
    8.7324  -12.0468   26.9103 C   0  0  0  0  0  0  0  0  0  0  0  0
    8.6804  -13.3869   26.5379 C   0  0  0  0  0  0  0  0  0  0  0  0
    7.5196  -13.9157   26.0584 C   0  0  0  0  0  0  0  0  0  0  0  0
    9.9946  -17.3600   24.3297 C   0  0  0  0  0  0  0  0  0  0  0  0
    9.9340  -18.2331   23.4172 O   0  0  0  0  0  0  0  0  0  0  0  0
   11.0397  -17.4663   25.2750 N   0  0  0  0  0  0  0  0  0  0  0  0
   12.0789  -18.4692   25.2756 C   0  0  1  0  0  0  0  0  0  0  0  0
   13.1809  -18.0875   24.3171 C   0  0  0  0  0  0  0  0  0  0  0  0
   13.5736  -16.6465   24.3856 C   0  0  0  0  0  0  0  0  0  0  0  0
   14.7243  -16.3171   23.5155 C   0  0  0  0  0  0  0  0  0  0  0  0
   14.5161  -16.1095   22.2747 O   0  0  0  0  0  0  0  0  0  0  0  0
   12.7164  -18.5203   26.6304 C   0  0  0  0  0  0  0  0  0  0  0  0
   12.3671  -17.6945   27.5013 O   0  0  0  0  0  0  0  0  0  0  0  0
   16.0247  -16.2209   23.9788 O   0  0  0  0  0  0  0  0  0  0  0  0
   13.6823  -19.4556   26.9453 O   0  0  0  0  0  0  0  0  0  0  0  0
  2  1  1  6
  3  2  1  0
  4  5  1  1
  4  2  1  0
  6  8  1  0
  6  4  1  0
  7  6  2  0
  9 20  1  0
  9  8  1  0
  9 10  1  1
 11 10  1  0
 12 11  2  0
 13 14  1  0
 13 12  1  0
 14 19  2  0
 15 16  2  0
 15 14  1  0
 16 17  1  0
 17 18  2  0
 19 18  1  0
 19 11  1  0
 20 22  1  0
 21 20  2  0
 22 23  1  0
 23 28  1  0
 23 24  1  6
 25 24  1  0
 26 25  1  0
 27 26  2  0
 28 29  2  0
 28 31  1  0
 30 26  1  0
M  END
$$$$
