VWE.pdb
     RDKit          3D

 31 32  0  0  1  0  0  0  0  0999 V2000
    6.7918  -17.7695   18.8598 C   0  0  0  0  0  0  0  0  0  0  0  0
    7.8209  -17.3877   19.9078 C   0  0  1  0  0  0  0  0  0  0  0  0
    9.2057  -17.2428   19.3427 C   0  0  0  0  0  0  0  0  0  0  0  0
    7.3776  -16.1911   20.7350 C   0  0  2  0  0  0  0  0  0  0  0  0
    7.1619  -15.0484   19.8367 N   0  0  0  0  0  0  0  0  0  0  0  0
    8.3529  -15.8323   21.7912 C   0  0  0  0  0  0  0  0  0  0  0  0
    9.2764  -15.0308   21.4426 O   0  0  0  0  0  0  0  0  0  0  0  0
    8.2853  -16.3291   23.1078 N   0  0  0  0  0  0  0  0  0  0  0  0
    9.2067  -16.0947   24.1728 C   0  0  1  0  0  0  0  0  0  0  0  0
    8.5810  -16.1669   25.5647 C   0  0  0  0  0  0  0  0  0  0  0  0
    7.4548  -15.1842   25.6787 C   0  0  0  0  0  0  0  0  0  0  0  0
    6.1243  -15.4700   25.5449 C   0  0  0  0  0  0  0  0  0  0  0  0
    5.3676  -14.3353   25.6993 N   0  0  0  0  0  0  0  0  0  0  0  0
    6.2285  -13.3379   25.9296 C   0  0  0  0  0  0  0  0  0  0  0  0
    5.9603  -12.0014   26.1603 C   0  0  0  0  0  0  0  0  0  0  0  0
    7.0270  -11.1666   26.3869 C   0  0  0  0  0  0  0  0  0  0  0  0
    8.3317  -11.6392   26.3859 C   0  0  0  0  0  0  0  0  0  0  0  0
    8.5702  -12.9900   26.1499 C   0  0  0  0  0  0  0  0  0  0  0  0
    7.5265  -13.8361   25.9227 C   0  0  0  0  0  0  0  0  0  0  0  0
   10.4473  -16.8671   24.0516 C   0  0  0  0  0  0  0  0  0  0  0  0
   10.3793  -18.1156   23.8640 O   0  0  0  0  0  0  0  0  0  0  0  0
   11.7312  -16.2824   24.1362 N   0  0  0  0  0  0  0  0  0  0  0  0
   12.9877  -16.9809   23.9992 C   0  0  1  0  0  0  0  0  0  0  0  0
   14.1079  -16.0044   23.7340 C   0  0  0  0  0  0  0  0  0  0  0  0
   15.4316  -16.6523   23.4813 C   0  0  0  0  0  0  0  0  0  0  0  0
   16.4776  -15.6916   23.0661 C   0  0  0  0  0  0  0  0  0  0  0  0
   16.4651  -15.2495   21.8701 O   0  0  0  0  0  0  0  0  0  0  0  0
   13.3270  -17.6481   25.2970 C   0  0  0  0  0  0  0  0  0  0  0  0
   14.2455  -18.4955   25.3263 O   0  0  0  0  0  0  0  0  0  0  0  0
   17.4767  -15.2429   23.9119 O   0  0  0  0  0  0  0  0  0  0  0  0
   12.6515  -17.3539   26.4649 O   0  0  0  0  0  0  0  0  0  0  0  0
  2  1  1  6
  3  2  1  0
  4  5  1  6
  4  2  1  0
  6  8  1  0
  6  4  1  0
  7  6  2  0
  9 20  1  0
  9  8  1  0
  9 10  1  1
 11 10  1  0
 12 11  2  0
 13 14  1  0
 13 12  1  0
 14 19  2  0
 15 16  2  0
 15 14  1  0
 16 17  1  0
 17 18  2  0
 19 18  1  0
 19 11  1  0
 20 22  1  0
 21 20  2  0
 22 23  1  0
 23 28  1  0
 23 24  1  1
 25 24  1  0
 26 25  1  0
 27 26  2  0
 28 29  2  0
 28 31  1  0
 30 26  1  0
M  END
$$$$
