VWE.pdb
     RDKit          3D

 31 32  0  0  1  0  0  0  0  0999 V2000
   10.1638  -19.3298   20.1649 C   0  0  0  0  0  0  0  0  0  0  0  0
   10.6290  -18.3413   19.1116 C   0  0  1  0  0  0  0  0  0  0  0  0
   10.7803  -18.9630   17.7519 C   0  0  0  0  0  0  0  0  0  0  0  0
    9.7888  -17.0738   19.1064 C   0  0  2  0  0  0  0  0  0  0  0  0
   10.3556  -16.1340   18.1291 N   0  0  0  0  0  0  0  0  0  0  0  0
    9.7083  -16.4348   20.4408 C   0  0  0  0  0  0  0  0  0  0  0  0
   10.8013  -15.9775   20.9024 O   0  0  0  0  0  0  0  0  0  0  0  0
    8.5106  -16.3232   21.1742 N   0  0  0  0  0  0  0  0  0  0  0  0
    8.3498  -15.8326   22.5052 C   0  0  1  0  0  0  0  0  0  0  0  0
    6.9222  -15.4067   22.8438 C   0  0  0  0  0  0  0  0  0  0  0  0
    6.8206  -15.0393   24.2935 C   0  0  0  0  0  0  0  0  0  0  0  0
    6.4795  -15.8840   25.3132 C   0  0  0  0  0  0  0  0  0  0  0  0
    6.4736  -15.2171   26.5128 N   0  0  0  0  0  0  0  0  0  0  0  0
    6.8116  -13.9518   26.2411 C   0  0  0  0  0  0  0  0  0  0  0  0
    6.9550  -12.8895   27.1143 C   0  0  0  0  0  0  0  0  0  0  0  0
    7.3279  -11.6771   26.5879 C   0  0  0  0  0  0  0  0  0  0  0  0
    7.5547  -11.5146   25.2287 C   0  0  0  0  0  0  0  0  0  0  0  0
    7.4018  -12.6027   24.3743 C   0  0  0  0  0  0  0  0  0  0  0  0
    7.0323  -13.8149   24.8753 C   0  0  0  0  0  0  0  0  0  0  0  0
    8.9562  -16.6970   23.5229 C   0  0  0  0  0  0  0  0  0  0  0  0
    8.5743  -17.8986   23.6168 O   0  0  0  0  0  0  0  0  0  0  0  0
    9.9562  -16.2516   24.4167 N   0  0  0  0  0  0  0  0  0  0  0  0
   10.6983  -17.0827   25.3356 C   0  0  1  0  0  0  0  0  0  0  0  0
   12.1686  -16.7445   25.2831 C   0  0  0  0  0  0  0  0  0  0  0  0
   12.8876  -17.3397   24.1150 C   0  0  0  0  0  0  0  0  0  0  0  0
   14.0588  -16.5427   23.6876 C   0  0  0  0  0  0  0  0  0  0  0  0
   14.5027  -15.6370   24.4678 O   0  0  0  0  0  0  0  0  0  0  0  0
   10.2608  -16.7838   26.7369 C   0  0  0  0  0  0  0  0  0  0  0  0
   10.0295  -15.6001   27.0652 O   0  0  0  0  0  0  0  0  0  0  0  0
   14.7040  -16.7282   22.4776 O   0  0  0  0  0  0  0  0  0  0  0  0
   10.1064  -17.7812   27.6794 O   0  0  0  0  0  0  0  0  0  0  0  0
  2  1  1  1
  3  2  1  0
  4  5  1  6
  4  2  1  0
  6  8  1  0
  6  4  1  0
  7  6  2  0
  9 20  1  0
  9  8  1  0
  9 10  1  1
 11 10  1  0
 12 11  2  0
 13 14  1  0
 13 12  1  0
 14 19  2  0
 15 16  2  0
 15 14  1  0
 16 17  1  0
 17 18  2  0
 19 18  1  0
 19 11  1  0
 20 22  1  0
 21 20  2  0
 22 23  1  0
 23 28  1  0
 23 24  1  1
 25 24  1  0
 26 25  1  0
 27 26  2  0
 28 29  2  0
 28 31  1  0
 30 26  1  0
M  END
$$$$
