VWE.pdb
     RDKit          3D

 31 32  0  0  1  0  0  0  0  0999 V2000
    8.5415  -16.8562   19.5355 C   0  0  0  0  0  0  0  0  0  0  0  0
    8.1042  -15.4248   19.2845 C   0  0  1  0  0  0  0  0  0  0  0  0
    7.3123  -15.2687   18.0170 C   0  0  0  0  0  0  0  0  0  0  0  0
    7.4257  -14.8128   20.5001 C   0  0  2  0  0  0  0  0  0  0  0  0
    7.0286  -13.4353   20.1773 N   0  0  0  0  0  0  0  0  0  0  0  0
    8.2887  -14.8257   21.7045 C   0  0  0  0  0  0  0  0  0  0  0  0
    9.2419  -13.9841   21.7115 O   0  0  0  0  0  0  0  0  0  0  0  0
    8.0888  -15.7009   22.7903 N   0  0  0  0  0  0  0  0  0  0  0  0
    8.8954  -15.8306   23.9610 C   0  0  1  0  0  0  0  0  0  0  0  0
    8.1039  -16.1339   25.2321 C   0  0  0  0  0  0  0  0  0  0  0  0
    7.1107  -15.0429   25.4974 C   0  0  0  0  0  0  0  0  0  0  0  0
    5.7533  -15.1447   25.3673 C   0  0  0  0  0  0  0  0  0  0  0  0
    5.1463  -13.9543   25.6808 N   0  0  0  0  0  0  0  0  0  0  0  0
    6.1280  -13.1063   26.0070 C   0  0  0  0  0  0  0  0  0  0  0  0
    6.0318  -11.7865   26.4072 C   0  0  0  0  0  0  0  0  0  0  0  0
    7.1973  -11.1234   26.7040 C   0  0  0  0  0  0  0  0  0  0  0  0
    8.4326  -11.7481   26.6082 C   0  0  0  0  0  0  0  0  0  0  0  0
    8.4975  -13.0778   26.2020 C   0  0  0  0  0  0  0  0  0  0  0  0
    7.3533  -13.7548   25.9025 C   0  0  0  0  0  0  0  0  0  0  0  0
   10.0566  -16.7068   23.7754 C   0  0  0  0  0  0  0  0  0  0  0  0
    9.8705  -17.9415   23.5766 O   0  0  0  0  0  0  0  0  0  0  0  0
   11.3895  -16.2384   23.8093 N   0  0  0  0  0  0  0  0  0  0  0  0
   12.5720  -17.0412   23.6031 C   0  0  1  0  0  0  0  0  0  0  0  0
   13.7640  -16.1606   23.3157 C   0  0  0  0  0  0  0  0  0  0  0  0
   15.0500  -16.9085   23.1663 C   0  0  0  0  0  0  0  0  0  0  0  0
   16.1181  -16.1046   22.5319 C   0  0  0  0  0  0  0  0  0  0  0  0
   16.6089  -15.1191   23.1753 O   0  0  0  0  0  0  0  0  0  0  0  0
   12.9008  -17.7721   24.8689 C   0  0  0  0  0  0  0  0  0  0  0  0
   13.7246  -18.7116   24.8354 O   0  0  0  0  0  0  0  0  0  0  0  0
   16.6176  -16.3661   21.2682 O   0  0  0  0  0  0  0  0  0  0  0  0
   12.3174  -17.4374   26.0749 O   0  0  0  0  0  0  0  0  0  0  0  0
  2  1  1  1
  3  2  1  0
  4  5  1  6
  4  2  1  0
  6  8  1  0
  6  4  1  0
  7  6  2  0
  9 20  1  0
  9  8  1  0
  9 10  1  1
 11 10  1  0
 12 11  2  0
 13 14  1  0
 13 12  1  0
 14 19  2  0
 15 16  2  0
 15 14  1  0
 16 17  1  0
 17 18  2  0
 19 18  1  0
 19 11  1  0
 20 22  1  0
 21 20  2  0
 22 23  1  0
 23 28  1  0
 23 24  1  1
 25 24  1  0
 26 25  1  0
 27 26  2  0
 28 29  2  0
 28 31  1  0
 30 26  1  0
M  END
$$$$
