VWE.pdb
     RDKit          3D

 31 32  0  0  1  0  0  0  0  0999 V2000
    6.6780  -18.3208   19.6689 C   0  0  0  0  0  0  0  0  0  0  0  0
    7.7175  -17.9305   20.7035 C   0  0  1  0  0  0  0  0  0  0  0  0
    9.1264  -18.1475   20.2282 C   0  0  0  0  0  0  0  0  0  0  0  0
    7.4753  -16.5358   21.2592 C   0  0  2  0  0  0  0  0  0  0  0  0
    7.5843  -15.5636   20.1627 N   0  0  0  0  0  0  0  0  0  0  0  0
    8.4151  -16.1826   22.3490 C   0  0  0  0  0  0  0  0  0  0  0  0
    9.4000  -15.4510   22.0152 O   0  0  0  0  0  0  0  0  0  0  0  0
    8.2522  -16.6125   23.6808 N   0  0  0  0  0  0  0  0  0  0  0  0
    9.1552  -16.4247   24.7705 C   0  0  1  0  0  0  0  0  0  0  0  0
    8.4693  -16.1438   26.1064 C   0  0  0  0  0  0  0  0  0  0  0  0
    7.3988  -15.1089   25.9322 C   0  0  0  0  0  0  0  0  0  0  0  0
    6.0963  -15.3512   25.5937 C   0  0  0  0  0  0  0  0  0  0  0  0
    5.3914  -14.1765   25.5101 N   0  0  0  0  0  0  0  0  0  0  0  0
    6.2567  -13.1976   25.7968 C   0  0  0  0  0  0  0  0  0  0  0  0
    6.0309  -11.8349   25.8555 C   0  0  0  0  0  0  0  0  0  0  0  0
    7.0900  -11.0267   26.1892 C   0  0  0  0  0  0  0  0  0  0  0  0
    8.3461  -11.5506   26.4594 C   0  0  0  0  0  0  0  0  0  0  0  0
    8.5428  -12.9269   26.3917 C   0  0  0  0  0  0  0  0  0  0  0  0
    7.5058  -13.7473   26.0624 C   0  0  0  0  0  0  0  0  0  0  0  0
   10.1914  -17.4591   24.8545 C   0  0  0  0  0  0  0  0  0  0  0  0
    9.8586  -18.6405   25.1577 O   0  0  0  0  0  0  0  0  0  0  0  0
   11.5598  -17.2013   24.6130 N   0  0  0  0  0  0  0  0  0  0  0  0
   12.6101  -18.1914   24.5666 C   0  0  1  0  0  0  0  0  0  0  0  0
   13.8204  -17.6433   23.8501 C   0  0  0  0  0  0  0  0  0  0  0  0
   14.5252  -16.5542   24.5936 C   0  0  0  0  0  0  0  0  0  0  0  0
   15.3474  -15.6914   23.7167 C   0  0  0  0  0  0  0  0  0  0  0  0
   15.9625  -14.7006   24.2324 O   0  0  0  0  0  0  0  0  0  0  0  0
   13.0649  -18.4960   25.9612 C   0  0  0  0  0  0  0  0  0  0  0  0
   12.6270  -17.8100   26.9100 O   0  0  0  0  0  0  0  0  0  0  0  0
   15.4867  -15.9030   22.3563 O   0  0  0  0  0  0  0  0  0  0  0  0
   13.9574  -19.5150   26.2292 O   0  0  0  0  0  0  0  0  0  0  0  0
  2  1  1  6
  3  2  1  0
  4  5  1  6
  4  2  1  0
  6  8  1  0
  6  4  1  0
  7  6  2  0
  9 20  1  0
  9  8  1  0
  9 10  1  1
 11 10  1  0
 12 11  2  0
 13 14  1  0
 13 12  1  0
 14 19  2  0
 15 16  2  0
 15 14  1  0
 16 17  1  0
 17 18  2  0
 19 18  1  0
 19 11  1  0
 20 22  1  0
 21 20  2  0
 22 23  1  0
 23 28  1  0
 23 24  1  6
 25 24  1  0
 26 25  1  0
 27 26  2  0
 28 29  2  0
 28 31  1  0
 30 26  1  0
M  END
$$$$
