VWE.pdb
     RDKit          3D

 31 32  0  0  1  0  0  0  0  0999 V2000
    7.8258  -13.2638   17.1630 C   0  0  0  0  0  0  0  0  0  0  0  0
    8.2176  -13.2311   18.6289 C   0  0  1  0  0  0  0  0  0  0  0  0
    7.1275  -12.6964   19.5142 C   0  0  0  0  0  0  0  0  0  0  0  0
    8.7798  -14.5632   19.1002 C   0  0  2  0  0  0  0  0  0  0  0  0
    7.8950  -15.6411   18.6369 N   0  0  0  0  0  0  0  0  0  0  0  0
    8.9370  -14.6297   20.5720 C   0  0  0  0  0  0  0  0  0  0  0  0
   10.0621  -14.2494   21.0263 O   0  0  0  0  0  0  0  0  0  0  0  0
    7.9213  -15.0782   21.4392 N   0  0  0  0  0  0  0  0  0  0  0  0
    7.9923  -15.2248   22.8575 C   0  0  1  0  0  0  0  0  0  0  0  0
    6.6337  -15.1946   23.5555 C   0  0  0  0  0  0  0  0  0  0  0  0
    6.8152  -15.0768   25.0388 C   0  0  0  0  0  0  0  0  0  0  0  0
    6.8286  -16.1137   25.9302 C   0  0  0  0  0  0  0  0  0  0  0  0
    7.0063  -15.6498   27.2097 N   0  0  0  0  0  0  0  0  0  0  0  0
    7.1035  -14.3190   27.1169 C   0  0  0  0  0  0  0  0  0  0  0  0
    7.2989  -13.3948   28.1263 C   0  0  0  0  0  0  0  0  0  0  0  0
    7.3791  -12.0704   27.7718 C   0  0  0  0  0  0  0  0  0  0  0  0
    7.2689  -11.6649   26.4494 C   0  0  0  0  0  0  0  0  0  0  0  0
    7.0719  -12.6188   25.4551 C   0  0  0  0  0  0  0  0  0  0  0  0
    6.9892  -13.9385   25.7846 C   0  0  0  0  0  0  0  0  0  0  0  0
    8.8426  -16.3398   23.2869 C   0  0  0  0  0  0  0  0  0  0  0  0
    8.5810  -17.5069   22.8769 O   0  0  0  0  0  0  0  0  0  0  0  0
    9.9520  -16.1769   24.1471 N   0  0  0  0  0  0  0  0  0  0  0  0
   10.7780  -17.2397   24.6703 C   0  0  1  0  0  0  0  0  0  0  0  0
   12.1100  -17.2705   23.9606 C   0  0  0  0  0  0  0  0  0  0  0  0
   12.6950  -15.9180   23.7075 C   0  0  0  0  0  0  0  0  0  0  0  0
   14.0131  -15.9725   23.0372 C   0  0  0  0  0  0  0  0  0  0  0  0
   14.1215  -15.5021   21.8569 O   0  0  0  0  0  0  0  0  0  0  0  0
   11.0890  -16.9620   26.1093 C   0  0  0  0  0  0  0  0  0  0  0  0
   11.7681  -17.7873   26.7576 O   0  0  0  0  0  0  0  0  0  0  0  0
   15.1439  -16.5105   23.6261 O   0  0  0  0  0  0  0  0  0  0  0  0
   10.6448  -15.8179   26.7421 O   0  0  0  0  0  0  0  0  0  0  0  0
  2  1  1  6
  3  2  1  0
  4  5  1  1
  4  2  1  0
  6  8  1  0
  6  4  1  0
  7  6  2  0
  9 20  1  0
  9  8  1  0
  9 10  1  6
 11 10  1  0
 12 11  2  0
 13 14  1  0
 13 12  1  0
 14 19  2  0
 15 16  2  0
 15 14  1  0
 16 17  1  0
 17 18  2  0
 19 18  1  0
 19 11  1  0
 20 22  1  0
 21 20  2  0
 22 23  1  0
 23 28  1  0
 23 24  1  6
 25 24  1  0
 26 25  1  0
 27 26  2  0
 28 29  2  0
 28 31  1  0
 30 26  1  0
M  END
$$$$
