VWE.pdb
     RDKit          3D

 31 32  0  0  1  0  0  0  0  0999 V2000
    9.0645  -18.8140   17.4263 C   0  0  0  0  0  0  0  0  0  0  0  0
    9.3178  -18.2666   18.8189 C   0  0  1  0  0  0  0  0  0  0  0  0
   10.5401  -18.8547   19.4655 C   0  0  0  0  0  0  0  0  0  0  0  0
    9.2903  -16.7464   18.8494 C   0  0  2  0  0  0  0  0  0  0  0  0
   10.3966  -16.2363   18.0277 N   0  0  0  0  0  0  0  0  0  0  0  0
    9.3815  -16.1996   20.2235 C   0  0  0  0  0  0  0  0  0  0  0  0
   10.5581  -16.0264   20.6734 O   0  0  0  0  0  0  0  0  0  0  0  0
    8.2540  -15.8792   21.0051 N   0  0  0  0  0  0  0  0  0  0  0  0
    8.2347  -15.4494   22.3664 C   0  0  1  0  0  0  0  0  0  0  0  0
    6.9032  -14.8459   22.8101 C   0  0  0  0  0  0  0  0  0  0  0  0
    6.8877  -14.6609   24.2976 C   0  0  0  0  0  0  0  0  0  0  0  0
    6.7241  -15.6501   25.2273 C   0  0  0  0  0  0  0  0  0  0  0  0
    6.7510  -15.1302   26.4973 N   0  0  0  0  0  0  0  0  0  0  0  0
    6.9314  -13.8119   26.3599 C   0  0  0  0  0  0  0  0  0  0  0  0
    7.0373  -12.8474   27.3447 C   0  0  0  0  0  0  0  0  0  0  0  0
    7.2361  -11.5482   26.9463 C   0  0  0  0  0  0  0  0  0  0  0  0
    7.3285  -11.2063   25.6047 C   0  0  0  0  0  0  0  0  0  0  0  0
    7.2173  -12.1996   24.6360 C   0  0  0  0  0  0  0  0  0  0  0  0
    7.0197  -13.4953   25.0090 C   0  0  0  0  0  0  0  0  0  0  0  0
    8.7610  -16.4491   23.3014 C   0  0  0  0  0  0  0  0  0  0  0  0
    8.2249  -17.5933   23.3453 O   0  0  0  0  0  0  0  0  0  0  0  0
    9.8484  -16.1973   24.1683 N   0  0  0  0  0  0  0  0  0  0  0  0
   10.5853  -17.1936   24.9098 C   0  0  1  0  0  0  0  0  0  0  0  0
   12.0056  -17.2827   24.4062 C   0  0  0  0  0  0  0  0  0  0  0  0
   12.7704  -16.0026   24.5157 C   0  0  0  0  0  0  0  0  0  0  0  0
   14.0400  -16.0188   23.7557 C   0  0  0  0  0  0  0  0  0  0  0  0
   14.0320  -16.4524   22.5566 O   0  0  0  0  0  0  0  0  0  0  0  0
   10.6867  -16.7691   26.3430 C   0  0  0  0  0  0  0  0  0  0  0  0
   11.2349  -17.5311   27.1684 O   0  0  0  0  0  0  0  0  0  0  0  0
   15.2452  -15.5854   24.2796 O   0  0  0  0  0  0  0  0  0  0  0  0
   10.1896  -15.5571   26.7799 O   0  0  0  0  0  0  0  0  0  0  0  0
  2  1  1  6
  3  2  1  0
  4  5  1  6
  4  2  1  0
  6  8  1  0
  6  4  1  0
  7  6  2  0
  9 20  1  0
  9  8  1  0
  9 10  1  1
 11 10  1  0
 12 11  2  0
 13 14  1  0
 13 12  1  0
 14 19  2  0
 15 16  2  0
 15 14  1  0
 16 17  1  0
 17 18  2  0
 19 18  1  0
 19 11  1  0
 20 22  1  0
 21 20  2  0
 22 23  1  0
 23 28  1  0
 23 24  1  6
 25 24  1  0
 26 25  1  0
 27 26  2  0
 28 29  2  0
 28 31  1  0
 30 26  1  0
M  END
$$$$
