VWE.pdb
     RDKit          3D

 31 32  0  0  1  0  0  0  0  0999 V2000
    9.3857  -14.1396   19.7564 C   0  0  0  0  0  0  0  0  0  0  0  0
    7.9236  -13.8696   20.0606 C   0  0  1  0  0  0  0  0  0  0  0  0
    7.0974  -13.6602   18.8230 C   0  0  0  0  0  0  0  0  0  0  0  0
    7.3372  -14.9018   21.0110 C   0  0  2  0  0  0  0  0  0  0  0  0
    5.8972  -14.6480   21.1559 N   0  0  0  0  0  0  0  0  0  0  0  0
    7.9926  -14.8940   22.3399 C   0  0  0  0  0  0  0  0  0  0  0  0
    8.1768  -13.7482   22.8595 O   0  0  0  0  0  0  0  0  0  0  0  0
    8.3945  -16.0656   23.0113 N   0  0  0  0  0  0  0  0  0  0  0  0
    9.1947  -16.1600   24.1898 C   0  0  1  0  0  0  0  0  0  0  0  0
    8.3924  -16.3786   25.4715 C   0  0  0  0  0  0  0  0  0  0  0  0
    7.4193  -15.2561   25.6720 C   0  0  0  0  0  0  0  0  0  0  0  0
    6.0726  -15.3113   25.4421 C   0  0  0  0  0  0  0  0  0  0  0  0
    5.4841  -14.1028   25.7197 N   0  0  0  0  0  0  0  0  0  0  0  0
    6.4668  -13.2903   26.1237 C   0  0  0  0  0  0  0  0  0  0  0  0
    6.3855  -11.9701   26.5263 C   0  0  0  0  0  0  0  0  0  0  0  0
    7.5475  -11.3484   26.9129 C   0  0  0  0  0  0  0  0  0  0  0  0
    8.7650  -12.0140   26.9029 C   0  0  0  0  0  0  0  0  0  0  0  0
    8.8153  -13.3429   26.4919 C   0  0  0  0  0  0  0  0  0  0  0  0
    7.6743  -13.9792   26.1040 C   0  0  0  0  0  0  0  0  0  0  0  0
   10.3315  -17.0761   24.0514 C   0  0  0  0  0  0  0  0  0  0  0  0
   10.1224  -18.2632   23.6698 O   0  0  0  0  0  0  0  0  0  0  0  0
   11.6649  -16.6977   24.3271 N   0  0  0  0  0  0  0  0  0  0  0  0
   12.8006  -17.5880   24.3841 C   0  0  1  0  0  0  0  0  0  0  0  0
   14.0817  -16.8243   24.1509 C   0  0  0  0  0  0  0  0  0  0  0  0
   14.1533  -16.1504   22.8181 C   0  0  0  0  0  0  0  0  0  0  0  0
   15.4272  -15.4299   22.6003 C   0  0  0  0  0  0  0  0  0  0  0  0
   16.2384  -15.3084   23.5767 O   0  0  0  0  0  0  0  0  0  0  0  0
   12.9122  -18.1599   25.7643 C   0  0  0  0  0  0  0  0  0  0  0  0
   12.1793  -17.7115   26.6724 O   0  0  0  0  0  0  0  0  0  0  0  0
   15.7894  -14.8764   21.3849 O   0  0  0  0  0  0  0  0  0  0  0  0
   13.8046  -19.1703   26.0634 O   0  0  0  0  0  0  0  0  0  0  0  0
  2  1  1  6
  3  2  1  0
  4  5  1  1
  4  2  1  0
  6  8  1  0
  6  4  1  0
  7  6  2  0
  9 20  1  0
  9  8  1  0
  9 10  1  1
 11 10  1  0
 12 11  2  0
 13 14  1  0
 13 12  1  0
 14 19  2  0
 15 16  2  0
 15 14  1  0
 16 17  1  0
 17 18  2  0
 19 18  1  0
 19 11  1  0
 20 22  1  0
 21 20  2  0
 22 23  1  0
 23 28  1  0
 23 24  1  1
 25 24  1  0
 26 25  1  0
 27 26  2  0
 28 29  2  0
 28 31  1  0
 30 26  1  0
M  END
$$$$
