AFK.pdb
     RDKit          3D

 26 26  0  0  1  0  0  0  0  0999 V2000
    9.9887  -15.9878   18.9261 C   0  0  0  0  0  0  0  0  0  0  0  0
    9.2852  -16.6751   20.0487 C   0  0  2  0  0  0  0  0  0  0  0  0
    7.9308  -17.0131   19.6984 N   0  0  0  0  0  0  0  0  0  0  0  0
    9.3675  -15.9391   21.3360 C   0  0  0  0  0  0  0  0  0  0  0  0
   10.4851  -15.6843   21.8526 O   0  0  0  0  0  0  0  0  0  0  0  0
    8.2163  -15.4904   22.0427 N   0  0  0  0  0  0  0  0  0  0  0  0
    8.3609  -14.7557   23.2844 C   0  0  1  0  0  0  0  0  0  0  0  0
    7.1311  -13.9516   23.6152 C   0  0  0  0  0  0  0  0  0  0  0  0
    7.2118  -13.2431   24.8911 C   0  0  0  0  0  0  0  0  0  0  0  0
    8.0959  -12.2037   25.0849 C   0  0  0  0  0  0  0  0  0  0  0  0
    8.1452  -11.5574   26.3021 C   0  0  0  0  0  0  0  0  0  0  0  0
    7.3075  -11.9595   27.3134 C   0  0  0  0  0  0  0  0  0  0  0  0
    6.4128  -12.9957   27.1494 C   0  0  0  0  0  0  0  0  0  0  0  0
    6.3841  -13.6234   25.9252 C   0  0  0  0  0  0  0  0  0  0  0  0
    8.5430  -15.7560   24.3679 C   0  0  0  0  0  0  0  0  0  0  0  0
    7.7195  -16.7201   24.4528 O   0  0  0  0  0  0  0  0  0  0  0  0
    9.5762  -15.7134   25.3214 N   0  0  0  0  0  0  0  0  0  0  0  0
    9.9199  -16.8710   26.1249 C   0  0  1  0  0  0  0  0  0  0  0  0
   10.9596  -17.7068   25.4164 C   0  0  0  0  0  0  0  0  0  0  0  0
   11.3984  -18.8652   26.2339 C   0  0  0  0  0  0  0  0  0  0  0  0
   12.4780  -19.6954   25.5954 C   0  0  0  0  0  0  0  0  0  0  0  0
   12.7841  -20.8612   26.5135 C   0  0  0  0  0  0  0  0  0  0  0  0
   13.6959  -21.8046   25.9436 N   0  0  0  0  0  0  0  0  0  0  0  0
   10.3598  -16.3757   27.4438 C   0  0  0  0  0  0  0  0  0  0  0  0
   10.8028  -15.1878   27.6091 O   0  0  0  0  0  0  0  0  0  0  0  0
   10.3340  -17.1418   28.6116 O   0  0  0  0  0  0  0  0  0  0  0  0
  2  1  1  6
  3  2  1  0
  4  2  1  0
  4  5  2  0
  6  4  1  0
  7  6  1  0
  7  8  1  1
  9  8  1  0
  9 10  2  0
 11 10  1  0
 12 11  2  0
 13 14  2  0
 13 12  1  0
 14  9  1  0
 15  7  1  0
 16 15  2  0
 17 15  1  0
 18 19  1  6
 18 17  1  0
 20 19  1  0
 21 22  1  0
 21 20  1  0
 23 22  1  0
 24 26  1  0
 24 18  1  0
 25 24  2  0
M  END
$$$$
