AFK.pdb
     RDKit          3D

 26 26  0  0  1  0  0  0  0  0999 V2000
    7.2078  -18.0239   19.9460 C   0  0  0  0  0  0  0  0  0  0  0  0
    7.4543  -16.5617   20.1158 C   0  0  2  0  0  0  0  0  0  0  0  0
    8.2456  -16.0285   19.0382 N   0  0  0  0  0  0  0  0  0  0  0  0
    8.0049  -16.2065   21.4485 C   0  0  0  0  0  0  0  0  0  0  0  0
    9.2407  -16.0320   21.6001 O   0  0  0  0  0  0  0  0  0  0  0  0
    7.1876  -16.0466   22.6028 N   0  0  0  0  0  0  0  0  0  0  0  0
    7.7770  -15.6503   23.8669 C   0  0  1  0  0  0  0  0  0  0  0  0
    6.7381  -15.2142   24.8663 C   0  0  0  0  0  0  0  0  0  0  0  0
    6.9327  -13.8554   25.3687 C   0  0  0  0  0  0  0  0  0  0  0  0
    8.0460  -13.1149   25.0347 C   0  0  0  0  0  0  0  0  0  0  0  0
    8.1972  -11.8356   25.5271 C   0  0  0  0  0  0  0  0  0  0  0  0
    7.2306  -11.3112   26.3497 C   0  0  0  0  0  0  0  0  0  0  0  0
    6.1062  -12.0277   26.7013 C   0  0  0  0  0  0  0  0  0  0  0  0
    5.9802  -13.3015   26.1962 C   0  0  0  0  0  0  0  0  0  0  0  0
    8.4591  -16.8454   24.4273 C   0  0  0  0  0  0  0  0  0  0  0  0
    8.1464  -17.9926   23.9789 O   0  0  0  0  0  0  0  0  0  0  0  0
    9.4409  -16.7995   25.4335 N   0  0  0  0  0  0  0  0  0  0  0  0
   10.5828  -17.6939   25.4256 C   0  0  1  0  0  0  0  0  0  0  0  0
   11.5209  -17.3309   24.2987 C   0  0  0  0  0  0  0  0  0  0  0  0
   11.5428  -18.3646   23.2340 C   0  0  0  0  0  0  0  0  0  0  0  0
   12.4711  -18.0525   22.0923 C   0  0  0  0  0  0  0  0  0  0  0  0
   12.2601  -19.0940   21.0124 C   0  0  0  0  0  0  0  0  0  0  0  0
   12.9893  -18.8195   19.8128 N   0  0  0  0  0  0  0  0  0  0  0  0
   11.2080  -17.6205   26.7605 C   0  0  0  0  0  0  0  0  0  0  0  0
   12.0757  -18.4745   27.1511 O   0  0  0  0  0  0  0  0  0  0  0  0
   10.9170  -16.6318   27.7034 O   0  0  0  0  0  0  0  0  0  0  0  0
  2  1  1  6
  3  2  1  0
  4  2  1  0
  4  5  2  0
  6  4  1  0
  7  6  1  0
  7  8  1  1
  9  8  1  0
  9 10  2  0
 11 10  1  0
 12 11  2  0
 13 14  2  0
 13 12  1  0
 14  9  1  0
 15  7  1  0
 16 15  2  0
 17 15  1  0
 18 19  1  6
 18 17  1  0
 20 19  1  0
 21 22  1  0
 21 20  1  0
 23 22  1  0
 24 26  1  0
 24 18  1  0
 25 24  2  0
M  END
$$$$
