AFK.pdb
     RDKit          3D

 26 26  0  0  1  0  0  0  0  0999 V2000
    7.7313  -18.2100   19.7121 C   0  0  0  0  0  0  0  0  0  0  0  0
    7.9415  -16.7387   19.5753 C   0  0  2  0  0  0  0  0  0  0  0  0
    8.8676  -16.4312   18.5173 N   0  0  0  0  0  0  0  0  0  0  0  0
    8.3032  -16.0725   20.8523 C   0  0  0  0  0  0  0  0  0  0  0  0
    9.5096  -15.8828   21.1512 O   0  0  0  0  0  0  0  0  0  0  0  0
    7.3311  -15.6212   21.7890 N   0  0  0  0  0  0  0  0  0  0  0  0
    7.7433  -14.9270   22.9934 C   0  0  1  0  0  0  0  0  0  0  0  0
    6.5814  -14.2855   23.7053 C   0  0  0  0  0  0  0  0  0  0  0  0
    6.9478  -13.6110   24.9492 C   0  0  0  0  0  0  0  0  0  0  0  0
    6.7017  -14.1819   26.1793 C   0  0  0  0  0  0  0  0  0  0  0  0
    7.0607  -13.5171   27.3329 C   0  0  0  0  0  0  0  0  0  0  0  0
    7.6630  -12.2862   27.2421 C   0  0  0  0  0  0  0  0  0  0  0  0
    7.9220  -11.6900   26.0261 C   0  0  0  0  0  0  0  0  0  0  0  0
    7.5537  -12.3748   24.8908 C   0  0  0  0  0  0  0  0  0  0  0  0
    8.3205  -15.9436   23.9105 C   0  0  0  0  0  0  0  0  0  0  0  0
    7.7024  -17.0424   24.0697 O   0  0  0  0  0  0  0  0  0  0  0  0
    9.5195  -15.7763   24.6267 N   0  0  0  0  0  0  0  0  0  0  0  0
   10.2120  -16.9005   25.2268 C   0  0  1  0  0  0  0  0  0  0  0  0
   11.6040  -17.0215   24.6529 C   0  0  0  0  0  0  0  0  0  0  0  0
   12.3576  -18.1539   25.2466 C   0  0  0  0  0  0  0  0  0  0  0  0
   13.7573  -18.3066   24.7171 C   0  0  0  0  0  0  0  0  0  0  0  0
   14.3712  -19.5384   25.3506 C   0  0  0  0  0  0  0  0  0  0  0  0
   15.6998  -19.8061   24.8932 N   0  0  0  0  0  0  0  0  0  0  0  0
   10.1921  -16.6996   26.6889 C   0  0  0  0  0  0  0  0  0  0  0  0
   10.3217  -17.6718   27.5091 O   0  0  0  0  0  0  0  0  0  0  0  0
   10.0334  -15.4544   27.3016 O   0  0  0  0  0  0  0  0  0  0  0  0
  2  1  1  1
  3  2  1  0
  4  2  1  0
  4  5  2  0
  6  4  1  0
  7  6  1  0
  7  8  1  1
  9  8  1  0
  9 10  2  0
 11 10  1  0
 12 11  2  0
 13 14  2  0
 13 12  1  0
 14  9  1  0
 15  7  1  0
 16 15  2  0
 17 15  1  0
 18 19  1  6
 18 17  1  0
 20 19  1  0
 21 22  1  0
 21 20  1  0
 23 22  1  0
 24 26  1  0
 24 18  1  0
 25 24  2  0
M  END
$$$$
