AFK.pdb
     RDKit          3D

 26 26  0  0  1  0  0  0  0  0999 V2000
    6.7221  -20.9619   23.8014 C   0  0  0  0  0  0  0  0  0  0  0  0
    5.9027  -19.8238   23.2906 C   0  0  2  0  0  0  0  0  0  0  0  0
    5.5441  -20.0064   21.9087 N   0  0  0  0  0  0  0  0  0  0  0  0
    6.5157  -18.4948   23.5429 C   0  0  0  0  0  0  0  0  0  0  0  0
    7.1762  -17.9177   22.6421 O   0  0  0  0  0  0  0  0  0  0  0  0
    6.3949  -17.8134   24.7867 N   0  0  0  0  0  0  0  0  0  0  0  0
    7.0049  -16.5108   24.9691 C   0  0  1  0  0  0  0  0  0  0  0  0
    6.3990  -15.7563   26.1232 C   0  0  0  0  0  0  0  0  0  0  0  0
    6.9332  -14.4065   26.2947 C   0  0  0  0  0  0  0  0  0  0  0  0
    8.2414  -14.1904   26.6706 C   0  0  0  0  0  0  0  0  0  0  0  0
    8.7120  -12.9032   26.8231 C   0  0  0  0  0  0  0  0  0  0  0  0
    7.8663  -11.8450   26.5973 C   0  0  0  0  0  0  0  0  0  0  0  0
    6.5530  -12.0297   26.2203 C   0  0  0  0  0  0  0  0  0  0  0  0
    6.1091  -13.3241   26.0753 C   0  0  0  0  0  0  0  0  0  0  0  0
    8.4379  -16.7378   25.2896 C   0  0  0  0  0  0  0  0  0  0  0  0
    8.7350  -17.5845   26.1894 O   0  0  0  0  0  0  0  0  0  0  0  0
    9.5064  -16.0740   24.6602 N   0  0  0  0  0  0  0  0  0  0  0  0
   10.8502  -16.6200   24.6623 C   0  0  1  0  0  0  0  0  0  0  0  0
   11.5689  -16.2398   23.3893 C   0  0  0  0  0  0  0  0  0  0  0  0
   10.8762  -16.7526   22.1811 C   0  0  0  0  0  0  0  0  0  0  0  0
   11.5416  -16.3788   20.8849 C   0  0  0  0  0  0  0  0  0  0  0  0
   10.7301  -16.9677   19.7491 C   0  0  0  0  0  0  0  0  0  0  0  0
   11.2296  -16.6150   18.4560 N   0  0  0  0  0  0  0  0  0  0  0  0
   11.5197  -16.1354   25.8851 C   0  0  0  0  0  0  0  0  0  0  0  0
   12.6560  -16.5859   26.2603 O   0  0  0  0  0  0  0  0  0  0  0  0
   10.9865  -15.1592   26.7301 O   0  0  0  0  0  0  0  0  0  0  0  0
  2  1  1  6
  3  2  1  0
  4  2  1  0
  4  5  2  0
  6  4  1  0
  7  6  1  0
  7  8  1  1
  9  8  1  0
  9 10  2  0
 11 10  1  0
 12 11  2  0
 13 14  2  0
 13 12  1  0
 14  9  1  0
 15  7  1  0
 16 15  2  0
 17 15  1  0
 18 19  1  6
 18 17  1  0
 20 19  1  0
 21 22  1  0
 21 20  1  0
 23 22  1  0
 24 26  1  0
 24 18  1  0
 25 24  2  0
M  END
$$$$
