AFK.pdb
     RDKit          3D

 26 26  0  0  1  0  0  0  0  0999 V2000
    9.5848  -18.6387   20.9430 C   0  0  0  0  0  0  0  0  0  0  0  0
    9.2818  -17.2721   20.4252 C   0  0  2  0  0  0  0  0  0  0  0  0
   10.0885  -16.9484   19.2781 N   0  0  0  0  0  0  0  0  0  0  0  0
    9.3394  -16.2184   21.4703 C   0  0  0  0  0  0  0  0  0  0  0  0
   10.3791  -15.5276   21.6201 O   0  0  0  0  0  0  0  0  0  0  0  0
    8.2496  -15.9356   22.3411 N   0  0  0  0  0  0  0  0  0  0  0  0
    8.3082  -14.8000   23.2408 C   0  0  1  0  0  0  0  0  0  0  0  0
    6.9530  -14.4401   23.7903 C   0  0  0  0  0  0  0  0  0  0  0  0
    6.9893  -13.4181   24.8347 C   0  0  0  0  0  0  0  0  0  0  0  0
    6.4356  -13.6364   26.0777 C   0  0  0  0  0  0  0  0  0  0  0  0
    6.4880  -12.6495   27.0396 C   0  0  0  0  0  0  0  0  0  0  0  0
    7.0952  -11.4533   26.7458 C   0  0  0  0  0  0  0  0  0  0  0  0
    7.6578  -11.2058   25.5116 C   0  0  0  0  0  0  0  0  0  0  0  0
    7.5917  -12.2072   24.5702 C   0  0  0  0  0  0  0  0  0  0  0  0
    9.1638  -15.1938   24.3899 C   0  0  0  0  0  0  0  0  0  0  0  0
    9.3528  -14.3549   25.3255 O   0  0  0  0  0  0  0  0  0  0  0  0
    9.7898  -16.4467   24.5202 N   0  0  0  0  0  0  0  0  0  0  0  0
   10.6445  -16.7579   25.6500 C   0  0  1  0  0  0  0  0  0  0  0  0
   10.0502  -17.8880   26.4570 C   0  0  0  0  0  0  0  0  0  0  0  0
   10.9510  -18.3282   27.5513 C   0  0  0  0  0  0  0  0  0  0  0  0
   10.4467  -19.5168   28.3230 C   0  0  0  0  0  0  0  0  0  0  0  0
   11.4089  -19.7843   29.4623 C   0  0  0  0  0  0  0  0  0  0  0  0
   11.0515  -20.9255   30.2473 N   0  0  0  0  0  0  0  0  0  0  0  0
   11.9876  -17.0569   25.1161 C   0  0  0  0  0  0  0  0  0  0  0  0
   13.0361  -16.9979   25.8454 O   0  0  0  0  0  0  0  0  0  0  0  0
   12.2347  -17.4252   23.7915 O   0  0  0  0  0  0  0  0  0  0  0  0
  2  1  1  1
  3  2  1  0
  4  2  1  0
  4  5  2  0
  6  4  1  0
  7  6  1  0
  7  8  1  1
  9  8  1  0
  9 10  2  0
 11 10  1  0
 12 11  2  0
 13 14  2  0
 13 12  1  0
 14  9  1  0
 15  7  1  0
 16 15  2  0
 17 15  1  0
 18 19  1  6
 18 17  1  0
 20 19  1  0
 21 22  1  0
 21 20  1  0
 23 22  1  0
 24 26  1  0
 24 18  1  0
 25 24  2  0
M  END
$$$$
