AFK.pdb
     RDKit          3D

 26 26  0  0  1  0  0  0  0  0999 V2000
    3.7945  -19.7904   22.2727 C   0  0  0  0  0  0  0  0  0  0  0  0
    5.2261  -19.6192   22.6584 C   0  0  2  0  0  0  0  0  0  0  0  0
    5.6219  -20.5696   23.6642 N   0  0  0  0  0  0  0  0  0  0  0  0
    5.5743  -18.2248   23.0325 C   0  0  0  0  0  0  0  0  0  0  0  0
    5.4403  -17.2910   22.2013 O   0  0  0  0  0  0  0  0  0  0  0  0
    6.0673  -17.8721   24.3203 N   0  0  0  0  0  0  0  0  0  0  0  0
    6.5547  -16.5303   24.5744 C   0  0  1  0  0  0  0  0  0  0  0  0
    6.5903  -16.2078   26.0451 C   0  0  0  0  0  0  0  0  0  0  0  0
    6.9217  -14.8148   26.3385 C   0  0  0  0  0  0  0  0  0  0  0  0
    5.9845  -13.8106   26.2254 C   0  0  0  0  0  0  0  0  0  0  0  0
    6.3321  -12.5069   26.5103 C   0  0  0  0  0  0  0  0  0  0  0  0
    7.6161  -12.2225   26.9058 C   0  0  0  0  0  0  0  0  0  0  0  0
    8.5752  -13.2055   27.0280 C   0  0  0  0  0  0  0  0  0  0  0  0
    8.2020  -14.4977   26.7377 C   0  0  0  0  0  0  0  0  0  0  0  0
    7.9515  -16.4679   24.0715 C   0  0  0  0  0  0  0  0  0  0  0  0
    8.7149  -17.4650   24.2658 O   0  0  0  0  0  0  0  0  0  0  0  0
    8.4992  -15.3690   23.3853 N   0  0  0  0  0  0  0  0  0  0  0  0
    9.8267  -15.4187   22.8029 C   0  0  1  0  0  0  0  0  0  0  0  0
   10.0262  -14.2548   21.8611 C   0  0  0  0  0  0  0  0  0  0  0  0
    9.0708  -14.2835   20.7258 C   0  0  0  0  0  0  0  0  0  0  0  0
    9.2787  -13.1859   19.7185 C   0  0  0  0  0  0  0  0  0  0  0  0
    8.2759  -13.3751   18.5986 C   0  0  0  0  0  0  0  0  0  0  0  0
    8.3630  -12.3679   17.5865 N   0  0  0  0  0  0  0  0  0  0  0  0
   10.7946  -15.4491   23.9167 C   0  0  0  0  0  0  0  0  0  0  0  0
   10.4540  -15.1782   25.1190 O   0  0  0  0  0  0  0  0  0  0  0  0
   12.1457  -15.7699   23.7657 O   0  0  0  0  0  0  0  0  0  0  0  0
  2  1  1  1
  3  2  1  0
  4  2  1  0
  4  5  2  0
  6  4  1  0
  7  6  1  0
  7  8  1  1
  9  8  1  0
  9 10  2  0
 11 10  1  0
 12 11  2  0
 13 14  2  0
 13 12  1  0
 14  9  1  0
 15  7  1  0
 16 15  2  0
 17 15  1  0
 18 19  1  6
 18 17  1  0
 20 19  1  0
 21 22  1  0
 21 20  1  0
 23 22  1  0
 24 26  1  0
 24 18  1  0
 25 24  2  0
M  END
$$$$
