AFK.pdb
     RDKit          3D

 26 26  0  0  1  0  0  0  0  0999 V2000
    7.5170  -13.6821   20.0509 C   0  0  0  0  0  0  0  0  0  0  0  0
    7.6246  -15.0561   20.6237 C   0  0  2  0  0  0  0  0  0  0  0  0
    6.3660  -15.7524   20.5722 N   0  0  0  0  0  0  0  0  0  0  0  0
    8.2296  -15.0849   21.9797 C   0  0  0  0  0  0  0  0  0  0  0  0
    9.4247  -14.7337   22.1505 O   0  0  0  0  0  0  0  0  0  0  0  0
    7.5113  -15.5008   23.1360 N   0  0  0  0  0  0  0  0  0  0  0  0
    8.0996  -15.3568   24.4534 C   0  0  1  0  0  0  0  0  0  0  0  0
    7.0675  -15.0479   25.5058 C   0  0  0  0  0  0  0  0  0  0  0  0
    7.0782  -13.6574   25.9563 C   0  0  0  0  0  0  0  0  0  0  0  0
    5.9098  -12.9536   26.1536 C   0  0  0  0  0  0  0  0  0  0  0  0
    5.9573  -11.6427   26.5792 C   0  0  0  0  0  0  0  0  0  0  0  0
    7.1758  -11.0502   26.8029 C   0  0  0  0  0  0  0  0  0  0  0  0
    8.3612  -11.7287   26.6143 C   0  0  0  0  0  0  0  0  0  0  0  0
    8.2855  -13.0352   26.1893 C   0  0  0  0  0  0  0  0  0  0  0  0
    8.7156  -16.6626   24.8043 C   0  0  0  0  0  0  0  0  0  0  0  0
    7.9927  -17.7071   24.7698 O   0  0  0  0  0  0  0  0  0  0  0  0
   10.0613  -16.8300   25.1777 N   0  0  0  0  0  0  0  0  0  0  0  0
   10.6215  -18.1416   25.4419 C   0  0  1  0  0  0  0  0  0  0  0  0
   11.8845  -18.3403   24.6376 C   0  0  0  0  0  0  0  0  0  0  0  0
   11.6127  -18.4247   23.1810 C   0  0  0  0  0  0  0  0  0  0  0  0
   12.8395  -18.6400   22.3375 C   0  0  0  0  0  0  0  0  0  0  0  0
   12.4296  -18.5739   20.8804 C   0  0  0  0  0  0  0  0  0  0  0  0
   13.5329  -18.6906   19.9775 N   0  0  0  0  0  0  0  0  0  0  0  0
   10.8279  -18.2460   26.8996 C   0  0  0  0  0  0  0  0  0  0  0  0
   11.0389  -19.3675   27.4762 O   0  0  0  0  0  0  0  0  0  0  0  0
   10.8127  -17.1524   27.7685 O   0  0  0  0  0  0  0  0  0  0  0  0
  2  1  1  1
  3  2  1  0
  4  2  1  0
  4  5  2  0
  6  4  1  0
  7  6  1  0
  7  8  1  1
  9  8  1  0
  9 10  2  0
 11 10  1  0
 12 11  2  0
 13 14  2  0
 13 12  1  0
 14  9  1  0
 15  7  1  0
 16 15  2  0
 17 15  1  0
 18 19  1  6
 18 17  1  0
 20 19  1  0
 21 22  1  0
 21 20  1  0
 23 22  1  0
 24 26  1  0
 24 18  1  0
 25 24  2  0
M  END
$$$$
