AFK.pdb
     RDKit          3D

 26 26  0  0  1  0  0  0  0  0999 V2000
    7.0976  -17.4593   20.4776 C   0  0  0  0  0  0  0  0  0  0  0  0
    7.5133  -16.0264   20.5199 C   0  0  2  0  0  0  0  0  0  0  0  0
    8.2802  -15.6620   19.3577 N   0  0  0  0  0  0  0  0  0  0  0  0
    8.1915  -15.6453   21.7849 C   0  0  0  0  0  0  0  0  0  0  0  0
    9.4467  -15.6083   21.8474 O   0  0  0  0  0  0  0  0  0  0  0  0
    7.4795  -15.3082   22.9704 N   0  0  0  0  0  0  0  0  0  0  0  0
    8.1979  -14.9500   24.1779 C   0  0  1  0  0  0  0  0  0  0  0  0
    7.2872  -14.3774   25.2320 C   0  0  0  0  0  0  0  0  0  0  0  0
    7.9759  -13.9830   26.4595 C   0  0  0  0  0  0  0  0  0  0  0  0
    8.4756  -12.7099   26.6295 C   0  0  0  0  0  0  0  0  0  0  0  0
    9.1201  -12.3723   27.8010 C   0  0  0  0  0  0  0  0  0  0  0  0
    9.2573  -13.3144   28.7907 C   0  0  0  0  0  0  0  0  0  0  0  0
    8.7679  -14.5957   28.6495 C   0  0  0  0  0  0  0  0  0  0  0  0
    8.1293  -14.9062   27.4709 C   0  0  0  0  0  0  0  0  0  0  0  0
    8.7837  -16.2000   24.7275 C   0  0  0  0  0  0  0  0  0  0  0  0
    8.0556  -17.2397   24.7883 O   0  0  0  0  0  0  0  0  0  0  0  0
   10.1058  -16.3187   25.1928 N   0  0  0  0  0  0  0  0  0  0  0  0
   10.6452  -17.5887   25.6401 C   0  0  1  0  0  0  0  0  0  0  0  0
   11.8463  -17.9673   24.8060 C   0  0  0  0  0  0  0  0  0  0  0  0
   11.4579  -18.5937   23.5178 C   0  0  0  0  0  0  0  0  0  0  0  0
   12.6215  -19.0258   22.6682 C   0  0  0  0  0  0  0  0  0  0  0  0
   12.0767  -19.7308   21.4427 C   0  0  0  0  0  0  0  0  0  0  0  0
   13.0996  -20.1997   20.5595 N   0  0  0  0  0  0  0  0  0  0  0  0
   10.9443  -17.4568   27.0794 C   0  0  0  0  0  0  0  0  0  0  0  0
   11.2774  -16.3392   27.6034 O   0  0  0  0  0  0  0  0  0  0  0  0
   10.8925  -18.5183   27.9860 O   0  0  0  0  0  0  0  0  0  0  0  0
  2  1  1  1
  3  2  1  0
  4  2  1  0
  4  5  2  0
  6  4  1  0
  7  6  1  0
  7  8  1  1
  9  8  1  0
  9 10  2  0
 11 10  1  0
 12 11  2  0
 13 14  2  0
 13 12  1  0
 14  9  1  0
 15  7  1  0
 16 15  2  0
 17 15  1  0
 18 19  1  6
 18 17  1  0
 20 19  1  0
 21 22  1  0
 21 20  1  0
 23 22  1  0
 24 26  1  0
 24 18  1  0
 25 24  2  0
M  END
$$$$
