AFK.pdb
     RDKit          3D

 26 26  0  0  1  0  0  0  0  0999 V2000
    6.4495  -21.0723   23.4238 C   0  0  0  0  0  0  0  0  0  0  0  0
    5.6782  -19.9309   22.8495 C   0  0  2  0  0  0  0  0  0  0  0  0
    5.3863  -20.1360   21.4551 N   0  0  0  0  0  0  0  0  0  0  0  0
    6.3022  -18.6078   23.1059 C   0  0  0  0  0  0  0  0  0  0  0  0
    7.0890  -18.1022   22.2656 O   0  0  0  0  0  0  0  0  0  0  0  0
    6.0532  -17.8537   24.2871 N   0  0  0  0  0  0  0  0  0  0  0  0
    6.7585  -16.6088   24.5221 C   0  0  1  0  0  0  0  0  0  0  0  0
    6.0188  -15.7080   25.4759 C   0  0  0  0  0  0  0  0  0  0  0  0
    6.6540  -14.4067   25.6753 C   0  0  0  0  0  0  0  0  0  0  0  0
    7.1801  -14.0398   26.8952 C   0  0  0  0  0  0  0  0  0  0  0  0
    7.7723  -12.8037   27.0476 C   0  0  0  0  0  0  0  0  0  0  0  0
    7.8313  -11.9475   25.9754 C   0  0  0  0  0  0  0  0  0  0  0  0
    7.3139  -12.2866   24.7432 C   0  0  0  0  0  0  0  0  0  0  0  0
    6.7286  -13.5257   24.6184 C   0  0  0  0  0  0  0  0  0  0  0  0
    8.0588  -16.9531   25.1533 C   0  0  0  0  0  0  0  0  0  0  0  0
    8.0765  -17.8265   26.0762 O   0  0  0  0  0  0  0  0  0  0  0  0
    9.2907  -16.3742   24.7988 N   0  0  0  0  0  0  0  0  0  0  0  0
   10.5538  -16.9925   25.1542 C   0  0  1  0  0  0  0  0  0  0  0  0
   10.9360  -18.0269   24.1219 C   0  0  0  0  0  0  0  0  0  0  0  0
   10.7760  -19.4116   24.6314 C   0  0  0  0  0  0  0  0  0  0  0  0
   11.1580  -20.4791   23.6429 C   0  0  0  0  0  0  0  0  0  0  0  0
   10.8037  -21.8258   24.2400 C   0  0  0  0  0  0  0  0  0  0  0  0
   11.1912  -22.9287   23.4156 N   0  0  0  0  0  0  0  0  0  0  0  0
   11.5469  -15.9107   25.3011 C   0  0  0  0  0  0  0  0  0  0  0  0
   12.2262  -15.7545   26.3730 O   0  0  0  0  0  0  0  0  0  0  0  0
   11.8326  -14.9752   24.3040 O   0  0  0  0  0  0  0  0  0  0  0  0
  2  1  1  6
  3  2  1  0
  4  2  1  0
  4  5  2  0
  6  4  1  0
  7  6  1  0
  7  8  1  1
  9  8  1  0
  9 10  2  0
 11 10  1  0
 12 11  2  0
 13 14  2  0
 13 12  1  0
 14  9  1  0
 15  7  1  0
 16 15  2  0
 17 15  1  0
 18 19  1  6
 18 17  1  0
 20 19  1  0
 21 22  1  0
 21 20  1  0
 23 22  1  0
 24 26  1  0
 24 18  1  0
 25 24  2  0
M  END
$$$$
