NHA.pdb
     RDKit          3D

 24 24  0  0  1  0  0  0  0  0999 V2000
   12.9965  -15.1333   14.7024 N   0  0  0  0  0  0  0  0  0  0  0  0
   13.6752  -14.8225   15.9212 C   0  0  0  0  0  0  0  0  0  0  0  0
   14.9203  -14.8236   15.9785 O   0  0  0  0  0  0  0  0  0  0  0  0
   12.8704  -14.5018   17.1041 C   0  0  0  0  0  0  0  0  0  0  0  0
   13.2071  -15.3974   18.2460 C   0  0  2  0  0  0  0  0  0  0  0  0
   12.8171  -16.7733   17.8240 N   0  0  0  0  0  0  0  0  0  0  0  0
   12.4217  -15.0893   19.4929 C   0  0  0  0  0  0  0  0  0  0  0  0
   12.6548  -14.1497   20.2737 O   0  0  0  0  0  0  0  0  0  0  0  0
   11.3017  -15.9185   19.8551 N   0  0  0  0  0  0  0  0  0  0  0  0
   10.4999  -15.5927   21.0554 C   0  0  1  0  0  0  0  0  0  0  0  0
    9.0739  -15.4351   20.6841 C   0  0  0  0  0  0  0  0  0  0  0  0
    8.7529  -14.4357   19.6601 C   0  0  0  0  0  0  0  0  0  0  0  0
    8.6428  -13.0637   19.8219 C   0  0  0  0  0  0  0  0  0  0  0  0
    8.2930  -12.5256   18.6346 N   0  0  0  0  0  0  0  0  0  0  0  0
    8.1814  -13.5116   17.7391 C   0  0  0  0  0  0  0  0  0  0  0  0
    8.4584  -14.6611   18.3576 N   0  0  0  0  0  0  0  0  0  0  0  0
   10.8444  -16.4645   22.1672 C   0  0  0  0  0  0  0  0  0  0  0  0
   10.9675  -17.7230   21.9017 O   0  0  0  0  0  0  0  0  0  0  0  0
   12.6056  -16.7907   25.3031 C   0  0  0  0  0  0  0  0  0  0  0  0
   11.3505  -17.1523   24.5149 C   0  0  2  0  0  0  0  0  0  0  0  0
   11.0729  -16.1388   23.5101 N   0  0  0  0  0  0  0  0  0  0  0  0
   10.2207  -17.4087   25.4223 C   0  0  0  0  0  0  0  0  0  0  0  0
   10.1937  -18.4186   26.3666 O   0  0  0  0  0  0  0  0  0  0  0  0
    9.1767  -16.6715   25.3644 O   0  0  0  0  0  0  0  0  0  0  0  0
  1  2  1  0
  2  3  2  0
  4  5  1  0
  4  2  1  0
  5  6  1  6
  7  8  2  0
  7  5  1  0
  9  7  1  0
 10 11  1  6
 10  9  1  0
 11 12  1  0
 12 13  2  0
 12 16  1  0
 13 14  1  0
 14 15  1  0
 16 15  2  0
 17 21  1  0
 17 10  1  0
 18 17  2  0
 20 21  1  0
 20 19  1  1
 22 20  1  0
 23 22  1  0
 24 22  2  0
M  END
$$$$
