NHA.pdb
     RDKit          3D

 24 24  0  0  1  0  0  0  0  0999 V2000
   15.9549  -15.7862   16.9679 N   0  0  0  0  0  0  0  0  0  0  0  0
   15.2499  -14.5584   16.7724 C   0  0  0  0  0  0  0  0  0  0  0  0
   15.6397  -13.7234   15.9331 O   0  0  0  0  0  0  0  0  0  0  0  0
   14.0555  -14.3045   17.5840 C   0  0  0  0  0  0  0  0  0  0  0  0
   13.8298  -15.3978   18.5705 C   0  0  2  0  0  0  0  0  0  0  0  0
   13.1721  -16.5055   17.8199 N   0  0  0  0  0  0  0  0  0  0  0  0
   12.8893  -15.0103   19.6804 C   0  0  0  0  0  0  0  0  0  0  0  0
   13.0808  -14.0895   20.4942 O   0  0  0  0  0  0  0  0  0  0  0  0
   11.6560  -15.7321   19.8566 N   0  0  0  0  0  0  0  0  0  0  0  0
   10.7075  -15.3247   20.9169 C   0  0  1  0  0  0  0  0  0  0  0  0
    9.3143  -15.4698   20.4328 C   0  0  0  0  0  0  0  0  0  0  0  0
    8.8481  -14.5071   19.4297 C   0  0  0  0  0  0  0  0  0  0  0  0
    9.5222  -13.3979   18.9439 C   0  0  0  0  0  0  0  0  0  0  0  0
    8.7157  -12.7653   18.0658 N   0  0  0  0  0  0  0  0  0  0  0  0
    7.5644  -13.4395   17.9865 C   0  0  0  0  0  0  0  0  0  0  0  0
    7.6451  -14.4878   18.8081 N   0  0  0  0  0  0  0  0  0  0  0  0
   11.0712  -15.9103   22.1973 C   0  0  0  0  0  0  0  0  0  0  0  0
   11.9028  -16.8987   22.1686 O   0  0  0  0  0  0  0  0  0  0  0  0
   10.4014  -15.7218   25.9139 C   0  0  0  0  0  0  0  0  0  0  0  0
   10.9124  -16.3937   24.6432 C   0  0  2  0  0  0  0  0  0  0  0  0
   10.6513  -15.5542   23.4852 N   0  0  0  0  0  0  0  0  0  0  0  0
   10.3694  -17.7558   24.5190 C   0  0  0  0  0  0  0  0  0  0  0  0
   10.8815  -18.8611   25.1735 O   0  0  0  0  0  0  0  0  0  0  0  0
    9.3586  -17.9728   23.7655 O   0  0  0  0  0  0  0  0  0  0  0  0
  1  2  1  0
  2  3  2  0
  4  5  1  0
  4  2  1  0
  5  6  1  6
  7  8  2  0
  7  5  1  0
  9  7  1  0
 10 11  1  6
 10  9  1  0
 11 12  1  0
 12 13  2  0
 12 16  1  0
 13 14  1  0
 14 15  1  0
 16 15  2  0
 17 21  1  0
 17 10  1  0
 18 17  2  0
 20 21  1  0
 20 19  1  1
 22 20  1  0
 23 22  1  0
 24 22  2  0
M  END
$$$$
