NHA.pdb
     RDKit          3D

 24 24  0  0  1  0  0  0  0  0999 V2000
    4.9302  -22.3700   24.5986 N   0  0  0  0  0  0  0  0  0  0  0  0
    4.4009  -21.3083   23.8016 C   0  0  0  0  0  0  0  0  0  0  0  0
    3.2132  -21.3228   23.4238 O   0  0  0  0  0  0  0  0  0  0  0  0
    5.2898  -20.2001   23.4388 C   0  0  0  0  0  0  0  0  0  0  0  0
    5.1770  -19.8685   21.9908 C   0  0  2  0  0  0  0  0  0  0  0  0
    5.4629  -21.1315   21.2518 N   0  0  0  0  0  0  0  0  0  0  0  0
    6.1962  -18.8598   21.5322 C   0  0  0  0  0  0  0  0  0  0  0  0
    7.0823  -19.0695   20.6850 O   0  0  0  0  0  0  0  0  0  0  0  0
    6.1874  -17.5317   22.0882 N   0  0  0  0  0  0  0  0  0  0  0  0
    7.2079  -16.5474   21.6642 C   0  0  1  0  0  0  0  0  0  0  0  0
    6.5530  -15.3872   21.0151 C   0  0  0  0  0  0  0  0  0  0  0  0
    7.4234  -14.3208   20.5096 C   0  0  0  0  0  0  0  0  0  0  0  0
    8.8020  -14.2301   20.6199 C   0  0  0  0  0  0  0  0  0  0  0  0
    9.1951  -13.0700   20.0531 N   0  0  0  0  0  0  0  0  0  0  0  0
    8.1126  -12.4349   19.5935 C   0  0  0  0  0  0  0  0  0  0  0  0
    7.0466  -13.1887   19.8689 N   0  0  0  0  0  0  0  0  0  0  0  0
    8.1746  -16.3068   22.7236 C   0  0  0  0  0  0  0  0  0  0  0  0
    7.7008  -16.1267   23.9121 O   0  0  0  0  0  0  0  0  0  0  0  0
   10.1386  -17.2142   24.8243 C   0  0  0  0  0  0  0  0  0  0  0  0
   10.4019  -16.0849   23.8330 C   0  0  2  0  0  0  0  0  0  0  0  0
    9.5719  -16.2444   22.6501 N   0  0  0  0  0  0  0  0  0  0  0  0
   11.8390  -15.9769   23.5353 C   0  0  0  0  0  0  0  0  0  0  0  0
   12.8128  -15.7129   24.4811 O   0  0  0  0  0  0  0  0  0  0  0  0
   12.2546  -16.1303   22.3351 O   0  0  0  0  0  0  0  0  0  0  0  0
  1  2  1  0
  2  3  2  0
  4  5  1  0
  4  2  1  0
  5  6  1  6
  7  8  2  0
  7  5  1  0
  9  7  1  0
 10 11  1  1
 10  9  1  0
 11 12  1  0
 12 13  2  0
 12 16  1  0
 13 14  1  0
 14 15  1  0
 16 15  2  0
 17 21  1  0
 17 10  1  0
 18 17  2  0
 20 21  1  0
 20 19  1  1
 22 20  1  0
 23 22  1  0
 24 22  2  0
M  END
$$$$
