NHA.pdb
     RDKit          3D

 24 24  0  0  1  0  0  0  0  0999 V2000
   11.3768  -18.2573   11.5184 N   0  0  0  0  0  0  0  0  0  0  0  0
   11.3637  -16.8521   11.2578 C   0  0  0  0  0  0  0  0  0  0  0  0
   11.4906  -16.4154   10.0973 O   0  0  0  0  0  0  0  0  0  0  0  0
   11.1971  -15.9354   12.3899 C   0  0  0  0  0  0  0  0  0  0  0  0
   11.3211  -16.6533   13.6894 C   0  0  2  0  0  0  0  0  0  0  0  0
   10.1418  -17.5614   13.7767 N   0  0  0  0  0  0  0  0  0  0  0  0
   11.2498  -15.7373   14.8821 C   0  0  0  0  0  0  0  0  0  0  0  0
   12.1317  -14.9273   15.2183 O   0  0  0  0  0  0  0  0  0  0  0  0
   10.0891  -15.7619   15.7337 N   0  0  0  0  0  0  0  0  0  0  0  0
   10.0311  -14.8897   16.9277 C   0  0  1  0  0  0  0  0  0  0  0  0
    8.6194  -14.6237   17.2921 C   0  0  0  0  0  0  0  0  0  0  0  0
    8.3723  -13.9305   18.5604 C   0  0  0  0  0  0  0  0  0  0  0  0
    7.8430  -14.4617   19.7259 C   0  0  0  0  0  0  0  0  0  0  0  0
    7.7481  -13.4699   20.6365 N   0  0  0  0  0  0  0  0  0  0  0  0
    8.1989  -12.3408   20.0814 C   0  0  0  0  0  0  0  0  0  0  0  0
    8.5743  -12.6191   18.8316 N   0  0  0  0  0  0  0  0  0  0  0  0
   10.9478  -15.3514   17.9579 C   0  0  0  0  0  0  0  0  0  0  0  0
   10.9711  -16.6229   18.1870 O   0  0  0  0  0  0  0  0  0  0  0  0
   14.0003  -14.4043   19.8685 C   0  0  0  0  0  0  0  0  0  0  0  0
   12.7391  -15.2451   19.6959 C   0  0  2  0  0  0  0  0  0  0  0  0
   11.8319  -14.6113   18.7530 N   0  0  0  0  0  0  0  0  0  0  0  0
   12.1245  -15.5372   21.0007 C   0  0  0  0  0  0  0  0  0  0  0  0
   12.7212  -16.2970   21.9902 O   0  0  0  0  0  0  0  0  0  0  0  0
   10.9629  -15.0769   21.2755 O   0  0  0  0  0  0  0  0  0  0  0  0
  1  2  1  0
  2  3  2  0
  4  5  1  0
  4  2  1  0
  5  6  1  1
  7  8  2  0
  7  5  1  0
  9  7  1  0
 10 11  1  1
 10  9  1  0
 11 12  1  0
 12 13  2  0
 12 16  1  0
 13 14  1  0
 14 15  1  0
 16 15  2  0
 17 21  1  0
 17 10  1  0
 18 17  2  0
 20 21  1  0
 20 19  1  1
 22 20  1  0
 23 22  1  0
 24 22  2  0
M  END
$$$$
