NHA.pdb
     RDKit          3D

 24 24  0  0  1  0  0  0  0  0999 V2000
   13.6060  -18.7318   15.0132 N   0  0  0  0  0  0  0  0  0  0  0  0
   13.3930  -17.3678   14.6436 C   0  0  0  0  0  0  0  0  0  0  0  0
   13.1385  -17.0568   13.4637 O   0  0  0  0  0  0  0  0  0  0  0  0
   13.4812  -16.3417   15.6872 C   0  0  0  0  0  0  0  0  0  0  0  0
   12.1832  -16.1839   16.4012 C   0  0  2  0  0  0  0  0  0  0  0  0
   11.3469  -15.2899   15.5501 N   0  0  0  0  0  0  0  0  0  0  0  0
   12.3202  -15.5039   17.7373 C   0  0  0  0  0  0  0  0  0  0  0  0
   13.1363  -14.6040   18.0040 O   0  0  0  0  0  0  0  0  0  0  0  0
   11.4614  -15.8894   18.8268 N   0  0  0  0  0  0  0  0  0  0  0  0
   11.5198  -15.1528   20.1089 C   0  0  1  0  0  0  0  0  0  0  0  0
   10.1480  -14.8838   20.6010 C   0  0  0  0  0  0  0  0  0  0  0  0
    9.2205  -14.2231   19.6772 C   0  0  0  0  0  0  0  0  0  0  0  0
    9.1712  -12.8784   19.3455 C   0  0  0  0  0  0  0  0  0  0  0  0
    8.1414  -12.6917   18.4931 N   0  0  0  0  0  0  0  0  0  0  0  0
    7.5478  -13.8704   18.2814 C   0  0  0  0  0  0  0  0  0  0  0  0
    8.1981  -14.7915   18.9949 N   0  0  0  0  0  0  0  0  0  0  0  0
   12.4859  -15.7542   21.0143 C   0  0  0  0  0  0  0  0  0  0  0  0
   12.3395  -17.0128   21.2672 O   0  0  0  0  0  0  0  0  0  0  0  0
   15.7968  -15.1590   22.6954 C   0  0  0  0  0  0  0  0  0  0  0  0
   14.5021  -15.9361   22.4782 C   0  0  2  0  0  0  0  0  0  0  0  0
   13.5777  -15.1642   21.6636 N   0  0  0  0  0  0  0  0  0  0  0  0
   13.9335  -16.3719   23.7636 C   0  0  0  0  0  0  0  0  0  0  0  0
   14.5552  -17.2499   24.6326 O   0  0  0  0  0  0  0  0  0  0  0  0
   12.7914  -15.9329   24.1370 O   0  0  0  0  0  0  0  0  0  0  0  0
  1  2  1  0
  2  3  2  0
  4  5  1  0
  4  2  1  0
  5  6  1  6
  7  8  2  0
  7  5  1  0
  9  7  1  0
 10 11  1  1
 10  9  1  0
 11 12  1  0
 12 13  2  0
 12 16  1  0
 13 14  1  0
 14 15  1  0
 16 15  2  0
 17 21  1  0
 17 10  1  0
 18 17  2  0
 20 21  1  0
 20 19  1  1
 22 20  1  0
 23 22  1  0
 24 22  2  0
M  END
$$$$
