NHA.pdb
     RDKit          3D

 24 24  0  0  1  0  0  0  0  0999 V2000
   15.4246  -17.7344   16.0184 N   0  0  0  0  0  0  0  0  0  0  0  0
   15.1218  -18.0980   17.3670 C   0  0  0  0  0  0  0  0  0  0  0  0
   15.7524  -19.0065   17.9418 O   0  0  0  0  0  0  0  0  0  0  0  0
   14.0499  -17.3754   18.0590 C   0  0  0  0  0  0  0  0  0  0  0  0
   13.9283  -17.8166   19.4768 C   0  0  2  0  0  0  0  0  0  0  0  0
   13.3397  -19.1859   19.4368 N   0  0  0  0  0  0  0  0  0  0  0  0
   12.9855  -16.9647   20.2841 C   0  0  0  0  0  0  0  0  0  0  0  0
   13.0899  -15.7362   20.4476 O   0  0  0  0  0  0  0  0  0  0  0  0
   11.8566  -17.5724   20.9395 N   0  0  0  0  0  0  0  0  0  0  0  0
   10.9081  -16.7334   21.7052 C   0  0  1  0  0  0  0  0  0  0  0  0
    9.5269  -16.9561   21.2164 C   0  0  0  0  0  0  0  0  0  0  0  0
    9.2748  -18.1808   20.4503 C   0  0  0  0  0  0  0  0  0  0  0  0
   10.2057  -19.1020   19.9970 C   0  0  0  0  0  0  0  0  0  0  0  0
    9.5512  -20.0556   19.3012 N   0  0  0  0  0  0  0  0  0  0  0  0
    8.2472  -19.7626   19.3046 C   0  0  0  0  0  0  0  0  0  0  0  0
    8.0819  -18.6336   19.9965 N   0  0  0  0  0  0  0  0  0  0  0  0
   11.1704  -16.8172   23.1331 C   0  0  0  0  0  0  0  0  0  0  0  0
   12.0637  -17.6712   23.5102 O   0  0  0  0  0  0  0  0  0  0  0  0
   10.1641  -15.4049   26.4927 C   0  0  0  0  0  0  0  0  0  0  0  0
   10.8540  -16.4121   25.5779 C   0  0  2  0  0  0  0  0  0  0  0  0
   10.5925  -16.0933   24.1836 N   0  0  0  0  0  0  0  0  0  0  0  0
   10.4874  -17.7886   25.9472 C   0  0  0  0  0  0  0  0  0  0  0  0
    9.6816  -18.6119   25.1822 O   0  0  0  0  0  0  0  0  0  0  0  0
   10.9220  -18.2926   27.0397 O   0  0  0  0  0  0  0  0  0  0  0  0
  1  2  1  0
  2  3  2  0
  4  5  1  0
  4  2  1  0
  5  6  1  6
  7  8  2  0
  7  5  1  0
  9  7  1  0
 10 11  1  1
 10  9  1  0
 11 12  1  0
 12 13  2  0
 12 16  1  0
 13 14  1  0
 14 15  1  0
 16 15  2  0
 17 21  1  0
 17 10  1  0
 18 17  2  0
 20 21  1  0
 20 19  1  1
 22 20  1  0
 23 22  1  0
 24 22  2  0
M  END
$$$$
