FPN.pdb
     RDKit          3D

 27 28  0  0  1  0  0  0  0  0999 V2000
   18.1880  -10.1254  -15.1834 N   0  0  0  0  0  0  0  0  0  0  0  0
   18.5128   -8.7381  -15.0404 C   0  0  1  0  0  0  0  0  0  0  0  0
   17.6060   -7.8551  -15.8894 C   0  0  0  0  0  0  0  0  0  0  0  0
   17.9349   -7.9804  -17.3129 C   0  0  0  0  0  0  0  0  0  0  0  0
   17.0905   -8.6195  -18.2227 C   0  0  0  0  0  0  0  0  0  0  0  0
   17.3980   -8.7395  -19.5456 C   0  0  0  0  0  0  0  0  0  0  0  0
   18.5678   -8.2315  -20.0546 C   0  0  0  0  0  0  0  0  0  0  0  0
   19.4284   -7.5939  -19.1917 C   0  0  0  0  0  0  0  0  0  0  0  0
   19.1096   -7.4774  -17.8570 C   0  0  0  0  0  0  0  0  0  0  0  0
   18.4341   -8.2936  -13.6389 C   0  0  0  0  0  0  0  0  0  0  0  0
   17.3888   -8.7140  -13.0187 O   0  0  0  0  0  0  0  0  0  0  0  0
   19.3827   -7.4818  -12.9797 N   0  0  0  0  0  0  0  0  0  0  0  0
   20.6075   -6.9501  -13.5031 C   0  0  0  0  0  0  0  0  0  0  0  0
   21.4163   -6.6912  -12.2194 C   0  0  0  0  0  0  0  0  0  0  0  0
   20.3527   -6.0985  -11.3263 C   0  0  0  0  0  0  0  0  0  0  0  0
   19.2019   -7.0458  -11.5901 C   0  0  1  0  0  0  0  0  0  0  0  0
   17.8924   -6.3482  -11.4326 C   0  0  0  0  0  0  0  0  0  0  0  0
   17.3600   -5.7804  -12.3974 O   0  0  0  0  0  0  0  0  0  0  0  0
   15.1817   -8.2778   -7.7249 N   0  0  0  0  0  0  0  0  0  0  0  0
   14.8634   -7.3287   -8.7267 C   0  0  0  0  0  0  0  0  0  0  0  0
   14.1585   -7.6617   -9.7062 O   0  0  0  0  0  0  0  0  0  0  0  0
   15.3578   -5.9549   -8.6197 C   0  0  0  0  0  0  0  0  0  0  0  0
   16.1359   -5.4976   -9.8042 C   0  0  2  0  0  0  0  0  0  0  0  0
   17.2475   -6.3330  -10.1666 N   0  0  0  0  0  0  0  0  0  0  0  0
   16.4534   -4.0425   -9.7276 C   0  0  0  0  0  0  0  0  0  0  0  0
   15.4543   -3.2696   -9.7176 O   0  0  0  0  0  0  0  0  0  0  0  0
   17.7228   -3.5459   -9.6744 O   0  0  0  0  0  0  0  0  0  0  0  0
  2  1  1  1
  3  2  1  0
  4  5  2  0
  4  3  1  0
  6  5  1  0
  7  6  2  0
  8  7  1  0
  8  9  2  0
  9  4  1  0
 10 11  2  0
 10  2  1  0
 12 10  1  0
 13 12  1  0
 14 13  1  0
 15 14  1  0
 15 16  1  0
 16 12  1  0
 16 17  1  6
 17 18  2  0
 20 21  2  0
 20 19  1  0
 22 20  1  0
 23 24  1  0
 23 22  1  1
 24 17  1  0
 25 23  1  0
 26 25  2  0
 27 25  1  0
M  END
$$$$
