FPN.pdb
     RDKit          3D

 27 28  0  0  1  0  0  0  0  0999 V2000
   23.7820  -20.3053  -10.6517 N   0  0  0  0  0  0  0  0  0  0  0  0
   25.1381  -20.0414  -11.0286 C   0  0  1  0  0  0  0  0  0  0  0  0
   26.1221  -20.8803  -10.2219 C   0  0  0  0  0  0  0  0  0  0  0  0
   26.2626  -20.3581   -8.8589 C   0  0  0  0  0  0  0  0  0  0  0  0
   26.9141  -19.1547   -8.5819 C   0  0  0  0  0  0  0  0  0  0  0  0
   27.0483  -18.6710   -7.3142 C   0  0  0  0  0  0  0  0  0  0  0  0
   26.5431  -19.3519   -6.2341 C   0  0  0  0  0  0  0  0  0  0  0  0
   25.8936  -20.5424   -6.4631 C   0  0  0  0  0  0  0  0  0  0  0  0
   25.7628  -21.0235   -7.7470 C   0  0  0  0  0  0  0  0  0  0  0  0
   25.3702  -20.2824  -12.4624 C   0  0  0  0  0  0  0  0  0  0  0  0
   24.5048  -21.0644  -13.0043 O   0  0  0  0  0  0  0  0  0  0  0  0
   26.4244  -19.7374  -13.2273 N   0  0  0  0  0  0  0  0  0  0  0  0
   27.4525  -18.8340  -12.7988 C   0  0  0  0  0  0  0  0  0  0  0  0
   27.8849  -18.1903  -14.1284 C   0  0  0  0  0  0  0  0  0  0  0  0
   27.9082  -19.3970  -15.0357 C   0  0  0  0  0  0  0  0  0  0  0  0
   26.6101  -20.0701  -14.6446 C   0  0  1  0  0  0  0  0  0  0  0  0
   26.7035  -21.5487  -14.8214 C   0  0  0  0  0  0  0  0  0  0  0  0
   27.0107  -22.2798  -13.8685 O   0  0  0  0  0  0  0  0  0  0  0  0
   25.1454  -26.3969  -15.0684 N   0  0  0  0  0  0  0  0  0  0  0  0
   24.4230  -25.2615  -15.5099 C   0  0  0  0  0  0  0  0  0  0  0  0
   23.3335  -25.4044  -16.1096 O   0  0  0  0  0  0  0  0  0  0  0  0
   24.9486  -23.9170  -15.2663 C   0  0  0  0  0  0  0  0  0  0  0  0
   25.8862  -23.4340  -16.3175 C   0  0  2  0  0  0  0  0  0  0  0  0
   26.4386  -22.1267  -16.0920 N   0  0  0  0  0  0  0  0  0  0  0  0
   25.3363  -23.6464  -17.6873 C   0  0  0  0  0  0  0  0  0  0  0  0
   24.4324  -22.8374  -18.0398 O   0  0  0  0  0  0  0  0  0  0  0  0
   25.7543  -24.6374  -18.5263 O   0  0  0  0  0  0  0  0  0  0  0  0
  2  1  1  1
  3  2  1  0
  4  5  2  0
  4  3  1  0
  6  5  1  0
  7  6  2  0
  8  7  1  0
  8  9  2  0
  9  4  1  0
 10 11  2  0
 10  2  1  0
 12 10  1  0
 13 12  1  0
 14 13  1  0
 15 14  1  0
 15 16  1  0
 16 12  1  0
 16 17  1  1
 17 18  2  0
 20 21  2  0
 20 19  1  0
 22 20  1  0
 23 24  1  0
 23 22  1  1
 24 17  1  0
 25 23  1  0
 26 25  2  0
 27 25  1  0
M  END
$$$$
