FPN.pdb
     RDKit          3D

 27 28  0  0  1  0  0  0  0  0999 V2000
   27.0610  -25.4975  -21.6110 N   0  0  0  0  0  0  0  0  0  0  0  0
   26.5656  -25.8481  -20.3140 C   0  0  1  0  0  0  0  0  0  0  0  0
   25.1013  -26.2679  -20.3629 C   0  0  0  0  0  0  0  0  0  0  0  0
   24.2405  -25.1306  -20.7032 C   0  0  0  0  0  0  0  0  0  0  0  0
   23.6506  -24.9884  -21.9606 C   0  0  0  0  0  0  0  0  0  0  0  0
   22.8533  -23.9289  -22.2783 C   0  0  0  0  0  0  0  0  0  0  0  0
   22.5880  -22.9375  -21.3661 C   0  0  0  0  0  0  0  0  0  0  0  0
   23.1498  -23.0392  -20.1149 C   0  0  0  0  0  0  0  0  0  0  0  0
   23.9539  -24.1128  -19.8027 C   0  0  0  0  0  0  0  0  0  0  0  0
   27.3508  -26.9295  -19.6960 C   0  0  0  0  0  0  0  0  0  0  0  0
   27.5616  -27.9296  -20.4768 O   0  0  0  0  0  0  0  0  0  0  0  0
   27.8532  -26.9298  -18.3765 N   0  0  0  0  0  0  0  0  0  0  0  0
   27.7258  -25.9046  -17.3817 C   0  0  0  0  0  0  0  0  0  0  0  0
   28.9120  -26.2151  -16.4513 C   0  0  0  0  0  0  0  0  0  0  0  0
   28.8275  -27.7206  -16.3732 C   0  0  0  0  0  0  0  0  0  0  0  0
   28.6021  -28.0671  -17.8294 C   0  0  1  0  0  0  0  0  0  0  0  0
   27.8062  -29.3223  -17.9602 C   0  0  0  0  0  0  0  0  0  0  0  0
   26.7259  -29.3237  -18.5683 O   0  0  0  0  0  0  0  0  0  0  0  0
   25.0921  -33.6919  -18.5522 N   0  0  0  0  0  0  0  0  0  0  0  0
   26.4867  -33.5457  -18.7516 C   0  0  0  0  0  0  0  0  0  0  0  0
   27.2037  -34.5547  -18.9381 O   0  0  0  0  0  0  0  0  0  0  0  0
   27.0940  -32.2136  -18.7403 C   0  0  0  0  0  0  0  0  0  0  0  0
   27.6117  -31.7957  -17.4081 C   0  0  2  0  0  0  0  0  0  0  0  0
   28.2882  -30.5282  -17.3838 N   0  0  0  0  0  0  0  0  0  0  0  0
   28.3452  -32.9026  -16.7292 C   0  0  0  0  0  0  0  0  0  0  0  0
   27.6434  -33.9044  -16.4139 O   0  0  0  0  0  0  0  0  0  0  0  0
   29.6799  -32.8672  -16.4494 O   0  0  0  0  0  0  0  0  0  0  0  0
  2  1  1  6
  3  2  1  0
  4  5  2  0
  4  3  1  0
  6  5  1  0
  7  6  2  0
  8  7  1  0
  8  9  2  0
  9  4  1  0
 10 11  2  0
 10  2  1  0
 12 10  1  0
 13 12  1  0
 14 13  1  0
 15 14  1  0
 15 16  1  0
 16 12  1  0
 16 17  1  1
 17 18  2  0
 20 21  2  0
 20 19  1  0
 22 20  1  0
 23 24  1  0
 23 22  1  6
 24 17  1  0
 25 23  1  0
 26 25  2  0
 27 25  1  0
M  END
$$$$
