FPN.pdb
     RDKit          3D

 27 28  0  0  1  0  0  0  0  0999 V2000
   27.3591  -18.1057   -8.1838 N   0  0  0  0  0  0  0  0  0  0  0  0
   27.2577  -19.5173   -8.4025 C   0  0  1  0  0  0  0  0  0  0  0  0
   26.7158  -20.2415   -7.1759 C   0  0  0  0  0  0  0  0  0  0  0  0
   27.6882  -20.2148   -6.0786 C   0  0  0  0  0  0  0  0  0  0  0  0
   28.0872  -19.0281   -5.4607 C   0  0  0  0  0  0  0  0  0  0  0  0
   28.9943  -19.0028   -4.4431 C   0  0  0  0  0  0  0  0  0  0  0  0
   29.5672  -20.1575   -3.9699 C   0  0  0  0  0  0  0  0  0  0  0  0
   29.2016  -21.3491   -4.5513 C   0  0  0  0  0  0  0  0  0  0  0  0
   28.2847  -21.3652   -5.5787 C   0  0  0  0  0  0  0  0  0  0  0  0
   26.4058  -19.8375   -9.5598 C   0  0  0  0  0  0  0  0  0  0  0  0
   25.2969  -19.1864   -9.5844 O   0  0  0  0  0  0  0  0  0  0  0  0
   26.7187  -20.7623  -10.5798 N   0  0  0  0  0  0  0  0  0  0  0  0
   27.7296  -21.7794  -10.5715 C   0  0  0  0  0  0  0  0  0  0  0  0
   27.9552  -22.0163  -12.0755 C   0  0  0  0  0  0  0  0  0  0  0  0
   26.5332  -22.0033  -12.5832 C   0  0  0  0  0  0  0  0  0  0  0  0
   25.9815  -20.8005  -11.8483 C   0  0  1  0  0  0  0  0  0  0  0  0
   24.5199  -20.9578  -11.5932 C   0  0  0  0  0  0  0  0  0  0  0  0
   24.1160  -21.5264  -10.5683 O   0  0  0  0  0  0  0  0  0  0  0  0
   19.4380  -18.8314  -11.2977 N   0  0  0  0  0  0  0  0  0  0  0  0
   20.0083  -19.2399  -12.5281 C   0  0  0  0  0  0  0  0  0  0  0  0
   19.2732  -19.6390  -13.4594 O   0  0  0  0  0  0  0  0  0  0  0  0
   21.4597  -19.1965  -12.7145 C   0  0  0  0  0  0  0  0  0  0  0  0
   22.1516  -20.4714  -12.3776 C   0  0  2  0  0  0  0  0  0  0  0  0
   23.5802  -20.4523  -12.5314 N   0  0  0  0  0  0  0  0  0  0  0  0
   21.4771  -21.6465  -13.0005 C   0  0  0  0  0  0  0  0  0  0  0  0
   20.5469  -22.1618  -12.3186 O   0  0  0  0  0  0  0  0  0  0  0  0
   21.8178  -22.1580  -14.2183 O   0  0  0  0  0  0  0  0  0  0  0  0
  2  1  1  1
  3  2  1  0
  4  5  2  0
  4  3  1  0
  6  5  1  0
  7  6  2  0
  8  7  1  0
  8  9  2  0
  9  4  1  0
 10 11  2  0
 10  2  1  0
 12 10  1  0
 13 12  1  0
 14 13  1  0
 15 14  1  0
 15 16  1  0
 16 12  1  0
 16 17  1  1
 17 18  2  0
 20 21  2  0
 20 19  1  0
 22 20  1  0
 23 24  1  0
 23 22  1  6
 24 17  1  0
 25 23  1  0
 26 25  2  0
 27 25  1  0
M  END
$$$$
