FPN.pdb
     RDKit          3D

 27 28  0  0  1  0  0  0  0  0999 V2000
   24.6502  -19.9066   -8.7946 N   0  0  0  0  0  0  0  0  0  0  0  0
   25.9555  -19.9257   -9.3832 C   0  0  1  0  0  0  0  0  0  0  0  0
   26.8178  -21.0437   -8.8093 C   0  0  0  0  0  0  0  0  0  0  0  0
   27.4527  -20.6257   -7.5553 C   0  0  0  0  0  0  0  0  0  0  0  0
   28.8131  -20.3236   -7.4697 C   0  0  0  0  0  0  0  0  0  0  0  0
   29.4044  -19.9387   -6.3029 C   0  0  0  0  0  0  0  0  0  0  0  0
   28.6821  -19.8278   -5.1403 C   0  0  0  0  0  0  0  0  0  0  0  0
   27.3381  -20.1164   -5.1811 C   0  0  0  0  0  0  0  0  0  0  0  0
   26.7492  -20.5045   -6.3640 C   0  0  0  0  0  0  0  0  0  0  0  0
   25.8996  -20.0710  -10.8473 C   0  0  0  0  0  0  0  0  0  0  0  0
   24.7207  -20.3142  -11.3003 O   0  0  0  0  0  0  0  0  0  0  0  0
   26.9994  -19.9654  -11.7263 N   0  0  0  0  0  0  0  0  0  0  0  0
   28.3897  -19.8518  -11.3934 C   0  0  0  0  0  0  0  0  0  0  0  0
   28.9698  -19.2068  -12.6648 C   0  0  0  0  0  0  0  0  0  0  0  0
   28.2433  -19.9840  -13.7363 C   0  0  0  0  0  0  0  0  0  0  0  0
   26.8339  -19.9769  -13.1845 C   0  0  1  0  0  0  0  0  0  0  0  0
   26.0897  -21.1976  -13.6114 C   0  0  0  0  0  0  0  0  0  0  0  0
   26.1444  -22.2374  -12.9387 O   0  0  0  0  0  0  0  0  0  0  0  0
   21.5038  -22.9520  -15.1591 N   0  0  0  0  0  0  0  0  0  0  0  0
   21.9526  -22.6083  -13.8606 C   0  0  0  0  0  0  0  0  0  0  0  0
   21.2416  -22.8631  -12.8623 O   0  0  0  0  0  0  0  0  0  0  0  0
   23.2499  -21.9538  -13.6818 C   0  0  0  0  0  0  0  0  0  0  0  0
   23.9973  -21.7346  -14.9510 C   0  0  2  0  0  0  0  0  0  0  0  0
   25.3104  -21.1710  -14.7992 N   0  0  0  0  0  0  0  0  0  0  0  0
   23.1513  -21.0659  -15.9811 C   0  0  0  0  0  0  0  0  0  0  0  0
   23.1198  -21.6342  -17.1088 O   0  0  0  0  0  0  0  0  0  0  0  0
   22.4500  -19.9176  -15.7565 O   0  0  0  0  0  0  0  0  0  0  0  0
  2  1  1  1
  3  2  1  0
  4  5  2  0
  4  3  1  0
  6  5  1  0
  7  6  2  0
  8  7  1  0
  8  9  2  0
  9  4  1  0
 10 11  2  0
 10  2  1  0
 12 10  1  0
 13 12  1  0
 14 13  1  0
 15 14  1  0
 15 16  1  0
 16 12  1  0
 16 17  1  1
 17 18  2  0
 20 21  2  0
 20 19  1  0
 22 20  1  0
 23 24  1  0
 23 22  1  1
 24 17  1  0
 25 23  1  0
 26 25  2  0
 27 25  1  0
M  END
$$$$
