FPN.pdb
     RDKit          3D

 27 28  0  0  1  0  0  0  0  0999 V2000
   25.0415  -19.5703   -8.2581 N   0  0  0  0  0  0  0  0  0  0  0  0
   26.2967  -19.8357   -8.8944 C   0  0  1  0  0  0  0  0  0  0  0  0
   27.0305  -20.9967   -8.2339 C   0  0  0  0  0  0  0  0  0  0  0  0
   27.6684  -20.5712   -6.9839 C   0  0  0  0  0  0  0  0  0  0  0  0
   27.0447  -20.7055   -5.7420 C   0  0  0  0  0  0  0  0  0  0  0  0
   27.6361  -20.3063   -4.5801 C   0  0  0  0  0  0  0  0  0  0  0  0
   28.8896  -19.7457   -4.5741 C   0  0  0  0  0  0  0  0  0  0  0  0
   29.5393  -19.5953   -5.7769 C   0  0  0  0  0  0  0  0  0  0  0  0
   28.9343  -20.0012   -6.9456 C   0  0  0  0  0  0  0  0  0  0  0  0
   26.1386  -20.1264  -10.3291 C   0  0  0  0  0  0  0  0  0  0  0  0
   24.9143  -20.1512  -10.7220 O   0  0  0  0  0  0  0  0  0  0  0  0
   27.1905  -20.3651  -11.2400 N   0  0  0  0  0  0  0  0  0  0  0  0
   28.5703  -20.6264  -10.9487 C   0  0  0  0  0  0  0  0  0  0  0  0
   29.2560  -20.2198  -12.2654 C   0  0  0  0  0  0  0  0  0  0  0  0
   28.3034  -20.8097  -13.2776 C   0  0  0  0  0  0  0  0  0  0  0  0
   26.9724  -20.3907  -12.6911 C   0  0  1  0  0  0  0  0  0  0  0  0
   25.9056  -21.3748  -13.0370 C   0  0  0  0  0  0  0  0  0  0  0  0
   25.7877  -22.4290  -12.3954 O   0  0  0  0  0  0  0  0  0  0  0  0
   20.5085  -21.7665  -12.8084 N   0  0  0  0  0  0  0  0  0  0  0  0
   21.6685  -22.5221  -13.1072 C   0  0  0  0  0  0  0  0  0  0  0  0
   21.5628  -23.7031  -13.5085 O   0  0  0  0  0  0  0  0  0  0  0  0
   22.9952  -21.9240  -12.9477 C   0  0  0  0  0  0  0  0  0  0  0  0
   23.6756  -21.6083  -14.2341 C   0  0  2  0  0  0  0  0  0  0  0  0
   25.0155  -21.1041  -14.1109 N   0  0  0  0  0  0  0  0  0  0  0  0
   22.7971  -20.8174  -15.1433 C   0  0  0  0  0  0  0  0  0  0  0  0
   22.1489  -21.4916  -15.9924 O   0  0  0  0  0  0  0  0  0  0  0  0
   22.6806  -19.4592  -15.0919 O   0  0  0  0  0  0  0  0  0  0  0  0
  2  1  1  1
  3  2  1  0
  4  5  2  0
  4  3  1  0
  6  5  1  0
  7  6  2  0
  8  7  1  0
  8  9  2  0
  9  4  1  0
 10 11  2  0
 10  2  1  0
 12 10  1  0
 13 12  1  0
 14 13  1  0
 15 14  1  0
 15 16  1  0
 16 12  1  0
 16 17  1  1
 17 18  2  0
 20 21  2  0
 20 19  1  0
 22 20  1  0
 23 24  1  0
 23 22  1  1
 24 17  1  0
 25 23  1  0
 26 25  2  0
 27 25  1  0
M  END
$$$$
