FPN.pdb
     RDKit          3D

 27 28  0  0  1  0  0  0  0  0999 V2000
   23.9809  -18.9363  -18.3319 N   0  0  0  0  0  0  0  0  0  0  0  0
   24.4221  -18.2236  -17.1708 C   0  0  1  0  0  0  0  0  0  0  0  0
   23.2631  -17.5456  -16.4499 C   0  0  0  0  0  0  0  0  0  0  0  0
   22.7429  -16.4211  -17.2343 C   0  0  0  0  0  0  0  0  0  0  0  0
   21.5270  -16.4842  -17.9175 C   0  0  0  0  0  0  0  0  0  0  0  0
   21.0451  -15.4401  -18.6501 C   0  0  0  0  0  0  0  0  0  0  0  0
   21.7405  -14.2606  -18.7533 C   0  0  0  0  0  0  0  0  0  0  0  0
   22.9437  -14.1566  -18.0953 C   0  0  0  0  0  0  0  0  0  0  0  0
   23.4228  -15.2163  -17.3576 C   0  0  0  0  0  0  0  0  0  0  0  0
   25.1281  -19.0986  -16.2202 C   0  0  0  0  0  0  0  0  0  0  0  0
   24.4730  -20.1599  -15.9064 O   0  0  0  0  0  0  0  0  0  0  0  0
   26.4040  -18.8522  -15.6681 N   0  0  0  0  0  0  0  0  0  0  0  0
   27.3802  -17.8910  -16.0919 C   0  0  0  0  0  0  0  0  0  0  0  0
   28.6817  -18.4898  -15.5291 C   0  0  0  0  0  0  0  0  0  0  0  0
   28.2232  -18.9345  -14.1609 C   0  0  0  0  0  0  0  0  0  0  0  0
   26.9048  -19.5937  -14.5049 C   0  0  1  0  0  0  0  0  0  0  0  0
   25.9438  -19.4852  -13.3687 C   0  0  0  0  0  0  0  0  0  0  0  0
   25.0139  -18.6662  -13.4050 O   0  0  0  0  0  0  0  0  0  0  0  0
   22.1051  -21.9773  -10.2710 N   0  0  0  0  0  0  0  0  0  0  0  0
   22.7722  -20.7483  -10.4954 C   0  0  0  0  0  0  0  0  0  0  0  0
   22.5515  -19.7683   -9.7485 O   0  0  0  0  0  0  0  0  0  0  0  0
   23.7223  -20.6204  -11.6019 C   0  0  0  0  0  0  0  0  0  0  0  0
   25.1393  -20.4725  -11.1689 C   0  0  2  0  0  0  0  0  0  0  0  0
   26.0932  -20.3268  -12.2337 N   0  0  0  0  0  0  0  0  0  0  0  0
   25.5102  -21.4852  -10.1390 C   0  0  0  0  0  0  0  0  0  0  0  0
   25.6589  -21.0372   -8.9673 O   0  0  0  0  0  0  0  0  0  0  0  0
   25.6882  -22.8104  -10.4093 O   0  0  0  0  0  0  0  0  0  0  0  0
  2  1  1  6
  3  2  1  0
  4  5  2  0
  4  3  1  0
  6  5  1  0
  7  6  2  0
  8  7  1  0
  8  9  2  0
  9  4  1  0
 10 11  2  0
 10  2  1  0
 12 10  1  0
 13 12  1  0
 14 13  1  0
 15 14  1  0
 15 16  1  0
 16 12  1  0
 16 17  1  1
 17 18  2  0
 20 21  2  0
 20 19  1  0
 22 20  1  0
 23 24  1  0
 23 22  1  6
 24 17  1  0
 25 23  1  0
 26 25  2  0
 27 25  1  0
M  END
$$$$
