FPN.pdb
     RDKit          3D

 27 28  0  0  1  0  0  0  0  0999 V2000
   25.1197  -19.4648   -8.2984 N   0  0  0  0  0  0  0  0  0  0  0  0
   26.3409  -19.8032   -8.9654 C   0  0  1  0  0  0  0  0  0  0  0  0
   27.0334  -20.9908   -8.3077 C   0  0  0  0  0  0  0  0  0  0  0  0
   27.6426  -20.6024   -7.0316 C   0  0  0  0  0  0  0  0  0  0  0  0
   28.9484  -20.1165   -6.9428 C   0  0  0  0  0  0  0  0  0  0  0  0
   29.5162  -19.7590   -5.7558 C   0  0  0  0  0  0  0  0  0  0  0  0
   28.8231  -19.8605   -4.5748 C   0  0  0  0  0  0  0  0  0  0  0  0
   27.5330  -20.3349   -4.6179 C   0  0  0  0  0  0  0  0  0  0  0  0
   26.9675  -20.6937   -5.8213 C   0  0  0  0  0  0  0  0  0  0  0  0
   26.1271  -20.1056  -10.3904 C   0  0  0  0  0  0  0  0  0  0  0  0
   24.8923  -20.2820  -10.7042 O   0  0  0  0  0  0  0  0  0  0  0  0
   27.1389  -20.2071  -11.3698 N   0  0  0  0  0  0  0  0  0  0  0  0
   28.5553  -20.3099  -11.1705 C   0  0  0  0  0  0  0  0  0  0  0  0
   29.1036  -19.8073  -12.5180 C   0  0  0  0  0  0  0  0  0  0  0  0
   28.1625  -20.4897  -13.4818 C   0  0  0  0  0  0  0  0  0  0  0  0
   26.8324  -20.2371  -12.8047 C   0  0  1  0  0  0  0  0  0  0  0  0
   25.8664  -21.3338  -13.1050 C   0  0  0  0  0  0  0  0  0  0  0  0
   25.7490  -22.2992  -12.3362 O   0  0  0  0  0  0  0  0  0  0  0  0
   20.5230  -21.4757  -12.3152 N   0  0  0  0  0  0  0  0  0  0  0  0
   21.4931  -21.8782  -13.2653 C   0  0  0  0  0  0  0  0  0  0  0  0
   21.1877  -22.6866  -14.1710 O   0  0  0  0  0  0  0  0  0  0  0  0
   22.8564  -21.3498  -13.1911 C   0  0  0  0  0  0  0  0  0  0  0  0
   23.6935  -21.6653  -14.3815 C   0  0  2  0  0  0  0  0  0  0  0  0
   25.0725  -21.2739  -14.2819 N   0  0  0  0  0  0  0  0  0  0  0  0
   23.0240  -21.2582  -15.6504 C   0  0  0  0  0  0  0  0  0  0  0  0
   22.8334  -20.0171  -15.7886 O   0  0  0  0  0  0  0  0  0  0  0  0
   22.6284  -22.1384  -16.6145 O   0  0  0  0  0  0  0  0  0  0  0  0
  2  1  1  1
  3  2  1  0
  4  5  2  0
  4  3  1  0
  6  5  1  0
  7  6  2  0
  8  7  1  0
  8  9  2  0
  9  4  1  0
 10 11  2  0
 10  2  1  0
 12 10  1  0
 13 12  1  0
 14 13  1  0
 15 14  1  0
 15 16  1  0
 16 12  1  0
 16 17  1  1
 17 18  2  0
 20 21  2  0
 20 19  1  0
 22 20  1  0
 23 24  1  0
 23 22  1  1
 24 17  1  0
 25 23  1  0
 26 25  2  0
 27 25  1  0
M  END
$$$$
