FPN.pdb
     RDKit          3D

 27 28  0  0  1  0  0  0  0  0999 V2000
   24.2279  -20.2624  -10.1112 N   0  0  0  0  0  0  0  0  0  0  0  0
   25.5720  -20.2308  -10.6041 C   0  0  1  0  0  0  0  0  0  0  0  0
   26.4375  -21.3038   -9.9541 C   0  0  0  0  0  0  0  0  0  0  0  0
   27.0676  -20.7992   -8.7299 C   0  0  0  0  0  0  0  0  0  0  0  0
   28.4535  -20.7388   -8.5717 C   0  0  0  0  0  0  0  0  0  0  0  0
   29.0395  -20.2733   -7.4319 C   0  0  0  0  0  0  0  0  0  0  0  0
   28.2862  -19.8357   -6.3705 C   0  0  0  0  0  0  0  0  0  0  0  0
   26.9164  -19.8784   -6.4851 C   0  0  0  0  0  0  0  0  0  0  0  0
   26.3330  -20.3502   -7.6401 C   0  0  0  0  0  0  0  0  0  0  0  0
   25.6286  -20.3942  -12.0662 C   0  0  0  0  0  0  0  0  0  0  0  0
   24.6035  -20.9922  -12.5619 O   0  0  0  0  0  0  0  0  0  0  0  0
   26.6800  -19.9588  -12.9018 N   0  0  0  0  0  0  0  0  0  0  0  0
   27.9127  -19.3338  -12.5190 C   0  0  0  0  0  0  0  0  0  0  0  0
   28.3169  -18.6073  -13.8144 C   0  0  0  0  0  0  0  0  0  0  0  0
   27.9910  -19.6605  -14.8461 C   0  0  0  0  0  0  0  0  0  0  0  0
   26.6343  -20.1230  -14.3595 C   0  0  1  0  0  0  0  0  0  0  0  0
   26.4024  -21.5540  -14.7124 C   0  0  0  0  0  0  0  0  0  0  0  0
   27.0510  -22.4535  -14.1582 O   0  0  0  0  0  0  0  0  0  0  0  0
   24.2188  -26.2279  -14.7238 N   0  0  0  0  0  0  0  0  0  0  0  0
   23.5612  -24.9797  -14.5991 C   0  0  0  0  0  0  0  0  0  0  0  0
   22.3106  -24.9264  -14.5942 O   0  0  0  0  0  0  0  0  0  0  0  0
   24.3425  -23.7478  -14.4756 C   0  0  0  0  0  0  0  0  0  0  0  0
   24.7320  -23.1447  -15.7802 C   0  0  2  0  0  0  0  0  0  0  0  0
   25.4302  -21.8918  -15.6919 N   0  0  0  0  0  0  0  0  0  0  0  0
   23.6019  -23.1570  -16.7532 C   0  0  0  0  0  0  0  0  0  0  0  0
   22.8267  -22.1613  -16.6960 O   0  0  0  0  0  0  0  0  0  0  0  0
   23.3882  -24.1593  -17.6534 O   0  0  0  0  0  0  0  0  0  0  0  0
  2  1  1  1
  3  2  1  0
  4  5  2  0
  4  3  1  0
  6  5  1  0
  7  6  2  0
  8  7  1  0
  8  9  2  0
  9  4  1  0
 10 11  2  0
 10  2  1  0
 12 10  1  0
 13 12  1  0
 14 13  1  0
 15 14  1  0
 15 16  1  0
 16 12  1  0
 16 17  1  1
 17 18  2  0
 20 21  2  0
 20 19  1  0
 22 20  1  0
 23 24  1  0
 23 22  1  1
 24 17  1  0
 25 23  1  0
 26 25  2  0
 27 25  1  0
M  END
$$$$
