AWF.pdb
     RDKit          3D

 31 33  0  0  1  0  0  0  0  0999 V2000
   10.1663  -20.2840   20.4514 C   0  0  0  0  0  0  0  0  0  0  0  0
    9.2677  -19.1579   19.9381 C   0  0  2  0  0  0  0  0  0  0  0  0
    9.7125  -18.7597   18.6172 N   0  0  0  0  0  0  0  0  0  0  0  0
    9.4446  -18.0234   20.8536 C   0  0  0  0  0  0  0  0  0  0  0  0
   10.4593  -17.2789   20.7701 O   0  0  0  0  0  0  0  0  0  0  0  0
    8.5118  -17.6835   21.8787 N   0  0  0  0  0  0  0  0  0  0  0  0
    8.7451  -16.5397   22.7383 C   0  0  1  0  0  0  0  0  0  0  0  0
    7.4108  -16.0540   23.3314 C   0  0  0  0  0  0  0  0  0  0  0  0
    7.5140  -14.6601   23.7851 C   0  0  0  0  0  0  0  0  0  0  0  0
    8.1076  -13.6619   23.0333 C   0  0  0  0  0  0  0  0  0  0  0  0
    8.0177  -12.5435   23.7589 N   0  0  0  0  0  0  0  0  0  0  0  0
    7.3980  -12.7909   24.9262 C   0  0  0  0  0  0  0  0  0  0  0  0
    7.0716  -11.9894   25.9889 C   0  0  0  0  0  0  0  0  0  0  0  0
    6.4263  -12.4715   27.0952 C   0  0  0  0  0  0  0  0  0  0  0  0
    6.0910  -13.8269   27.1381 C   0  0  0  0  0  0  0  0  0  0  0  0
    6.4127  -14.6535   26.0732 C   0  0  0  0  0  0  0  0  0  0  0  0
    7.0662  -14.1238   24.9727 C   0  0  0  0  0  0  0  0  0  0  0  0
    9.7148  -16.8366   23.8118 C   0  0  0  0  0  0  0  0  0  0  0  0
    9.5693  -17.8487   24.5438 O   0  0  0  0  0  0  0  0  0  0  0  0
   10.8543  -16.0215   24.0887 N   0  0  0  0  0  0  0  0  0  0  0  0
   11.8222  -16.3385   25.1060 C   0  0  1  0  0  0  0  0  0  0  0  0
   11.0946  -16.6764   26.3788 C   0  0  0  0  0  0  0  0  0  0  0  0
   10.6660  -15.4542   27.1211 C   0  0  0  0  0  0  0  0  0  0  0  0
   10.5342  -14.2349   26.4580 C   0  0  0  0  0  0  0  0  0  0  0  0
   10.1405  -13.1261   27.1632 C   0  0  0  0  0  0  0  0  0  0  0  0
    9.8755  -13.2102   28.5178 C   0  0  0  0  0  0  0  0  0  0  0  0
    9.9981  -14.3946   29.1876 C   0  0  0  0  0  0  0  0  0  0  0  0
   10.3964  -15.5056   28.4630 C   0  0  0  0  0  0  0  0  0  0  0  0
   12.7246  -17.4346   24.7588 C   0  0  0  0  0  0  0  0  0  0  0  0
   13.6950  -17.7766   25.7150 O   0  0  0  0  0  0  0  0  0  0  0  0
   12.7166  -18.0903   23.7048 O   0  0  0  0  0  0  0  0  0  0  0  0
  2  1  1  1
  2  3  1  0
  4  2  1  0
  4  5  2  0
  6  4  1  0
  7  6  1  0
  7  8  1  1
  9  8  1  0
  9 17  1  0
 10 11  1  0
 10  9  2  0
 11 12  1  0
 12 13  2  0
 12 17  1  0
 13 14  1  0
 14 15  2  0
 16 15  1  0
 17 16  2  0
 18  7  1  0
 19 18  2  0
 20 18  1  0
 21 20  1  0
 21 29  1  0
 22 23  1  0
 21 22  1  1
 23 24  2  0
 24 25  1  0
 26 25  2  0
 27 26  1  0
 28 23  1  0
 28 27  2  0
 29 30  1  0
 31 29  2  0
M  END
$$$$
