AWF.pdb
     RDKit          3D

 31 33  0  0  1  0  0  0  0  0999 V2000
   10.8270  -17.9546   19.3113 C   0  0  0  0  0  0  0  0  0  0  0  0
    9.4661  -17.3327   19.6278 C   0  0  2  0  0  0  0  0  0  0  0  0
    9.2052  -16.2582   18.6905 N   0  0  0  0  0  0  0  0  0  0  0  0
    9.5636  -16.7633   20.9779 C   0  0  0  0  0  0  0  0  0  0  0  0
   10.4479  -15.9077   21.2550 O   0  0  0  0  0  0  0  0  0  0  0  0
    8.6929  -17.1212   22.0504 N   0  0  0  0  0  0  0  0  0  0  0  0
    8.8513  -16.5212   23.3605 C   0  0  1  0  0  0  0  0  0  0  0  0
    7.7597  -17.0474   24.3090 C   0  0  0  0  0  0  0  0  0  0  0  0
    7.0428  -15.9374   24.9520 C   0  0  0  0  0  0  0  0  0  0  0  0
    5.8999  -16.1139   25.7112 C   0  0  0  0  0  0  0  0  0  0  0  0
    5.5345  -14.8973   26.1257 N   0  0  0  0  0  0  0  0  0  0  0  0
    6.3906  -13.9687   25.6648 C   0  0  0  0  0  0  0  0  0  0  0  0
    6.4461  -12.6071   25.8112 C   0  0  0  0  0  0  0  0  0  0  0  0
    7.4326  -11.8513   25.2382 C   0  0  0  0  0  0  0  0  0  0  0  0
    8.4138  -12.4938   24.4793 C   0  0  0  0  0  0  0  0  0  0  0  0
    8.3747  -13.8699   24.3196 C   0  0  0  0  0  0  0  0  0  0  0  0
    7.3581  -14.5965   24.9173 C   0  0  0  0  0  0  0  0  0  0  0  0
   10.1937  -16.7628   23.9265 C   0  0  0  0  0  0  0  0  0  0  0  0
   11.2247  -16.3892   23.3110 O   0  0  0  0  0  0  0  0  0  0  0  0
   10.4129  -17.4180   25.1764 N   0  0  0  0  0  0  0  0  0  0  0  0
   11.7001  -17.4828   25.8177 C   0  0  1  0  0  0  0  0  0  0  0  0
   12.2117  -16.0825   26.0203 C   0  0  0  0  0  0  0  0  0  0  0  0
   11.3303  -15.2891   26.9269 C   0  0  0  0  0  0  0  0  0  0  0  0
   10.6417  -14.1761   26.4464 C   0  0  0  0  0  0  0  0  0  0  0  0
    9.8393  -13.4628   27.3003 C   0  0  0  0  0  0  0  0  0  0  0  0
    9.7104  -13.8385   28.6248 C   0  0  0  0  0  0  0  0  0  0  0  0
   10.3758  -14.9256   29.1168 C   0  0  0  0  0  0  0  0  0  0  0  0
   11.1822  -15.6363   28.2435 C   0  0  0  0  0  0  0  0  0  0  0  0
   11.7010  -18.1883   27.0978 C   0  0  0  0  0  0  0  0  0  0  0  0
   12.9547  -18.4177   27.6882 O   0  0  0  0  0  0  0  0  0  0  0  0
   10.7049  -18.6028   27.7118 O   0  0  0  0  0  0  0  0  0  0  0  0
  2  1  1  6
  2  3  1  0
  4  2  1  0
  4  5  2  0
  6  4  1  0
  7  6  1  0
  7  8  1  1
  9  8  1  0
  9 17  1  0
 10 11  1  0
 10  9  2  0
 11 12  1  0
 12 13  2  0
 12 17  1  0
 13 14  1  0
 14 15  2  0
 16 15  1  0
 17 16  2  0
 18  7  1  0
 19 18  2  0
 20 18  1  0
 21 20  1  0
 21 29  1  0
 22 23  1  0
 21 22  1  1
 23 24  2  0
 24 25  1  0
 26 25  2  0
 27 26  1  0
 28 23  1  0
 28 27  2  0
 29 30  1  0
 31 29  2  0
M  END
$$$$
