AWF.pdb
     RDKit          3D

 31 33  0  0  1  0  0  0  0  0999 V2000
    7.6371  -14.7950   19.0380 C   0  0  0  0  0  0  0  0  0  0  0  0
    8.5823  -15.8966   19.5196 C   0  0  2  0  0  0  0  0  0  0  0  0
    7.9042  -17.1750   19.4353 N   0  0  0  0  0  0  0  0  0  0  0  0
    8.8776  -15.6152   20.9304 C   0  0  0  0  0  0  0  0  0  0  0  0
    9.5209  -14.5820   21.2614 O   0  0  0  0  0  0  0  0  0  0  0  0
    8.4730  -16.4618   22.0056 N   0  0  0  0  0  0  0  0  0  0  0  0
    8.8295  -16.1385   23.3730 C   0  0  1  0  0  0  0  0  0  0  0  0
    7.8102  -16.7678   24.3390 C   0  0  0  0  0  0  0  0  0  0  0  0
    6.9737  -15.7351   24.9660 C   0  0  0  0  0  0  0  0  0  0  0  0
    5.7102  -15.9879   25.4696 C   0  0  0  0  0  0  0  0  0  0  0  0
    5.2608  -14.8261   25.9530 N   0  0  0  0  0  0  0  0  0  0  0  0
    6.1786  -13.8594   25.7778 C   0  0  0  0  0  0  0  0  0  0  0  0
    6.1916  -12.5265   26.0968 C   0  0  0  0  0  0  0  0  0  0  0  0
    7.2603  -11.7194   25.8158 C   0  0  0  0  0  0  0  0  0  0  0  0
    8.3734  -12.2774   25.1824 C   0  0  0  0  0  0  0  0  0  0  0  0
    8.3792  -13.6233   24.8519 C   0  0  0  0  0  0  0  0  0  0  0  0
    7.2759  -14.4040   25.1548 C   0  0  0  0  0  0  0  0  0  0  0  0
   10.2011  -16.5703   23.7095 C   0  0  0  0  0  0  0  0  0  0  0  0
   10.7550  -17.4994   23.0681 O   0  0  0  0  0  0  0  0  0  0  0  0
   10.9755  -15.9822   24.7554 N   0  0  0  0  0  0  0  0  0  0  0  0
   12.2320  -16.5218   25.2051 C   0  0  1  0  0  0  0  0  0  0  0  0
   12.8582  -15.5524   26.1704 C   0  0  0  0  0  0  0  0  0  0  0  0
   11.9109  -15.1452   27.2499 C   0  0  0  0  0  0  0  0  0  0  0  0
   11.8676  -15.8473   28.4536 C   0  0  0  0  0  0  0  0  0  0  0  0
   10.9869  -15.4540   29.4291 C   0  0  0  0  0  0  0  0  0  0  0  0
   10.1482  -14.3734   29.2269 C   0  0  0  0  0  0  0  0  0  0  0  0
   10.1738  -13.6711   28.0552 C   0  0  0  0  0  0  0  0  0  0  0  0
   11.0677  -14.0793   27.0795 C   0  0  0  0  0  0  0  0  0  0  0  0
   12.1323  -17.8365   25.8359 C   0  0  0  0  0  0  0  0  0  0  0  0
   10.8364  -18.3134   26.0933 O   0  0  0  0  0  0  0  0  0  0  0  0
   13.0782  -18.5700   26.1650 O   0  0  0  0  0  0  0  0  0  0  0  0
  2  1  1  1
  2  3  1  0
  4  2  1  0
  4  5  2  0
  6  4  1  0
  7  6  1  0
  7  8  1  1
  9  8  1  0
  9 17  1  0
 10 11  1  0
 10  9  2  0
 11 12  1  0
 12 13  2  0
 12 17  1  0
 13 14  1  0
 14 15  2  0
 16 15  1  0
 17 16  2  0
 18  7  1  0
 19 18  2  0
 20 18  1  0
 21 20  1  0
 21 29  1  0
 22 23  1  0
 21 22  1  1
 23 24  2  0
 24 25  1  0
 26 25  2  0
 27 26  1  0
 28 23  1  0
 28 27  2  0
 29 30  1  0
 31 29  2  0
M  END
$$$$
