AWF.pdb
     RDKit          3D

 31 33  0  0  1  0  0  0  0  0999 V2000
    9.5619  -18.3125   18.4848 C   0  0  0  0  0  0  0  0  0  0  0  0
   10.0643  -18.6368   19.8924 C   0  0  2  0  0  0  0  0  0  0  0  0
    9.1054  -19.5009   20.5518 N   0  0  0  0  0  0  0  0  0  0  0  0
   10.1287  -17.3647   20.6233 C   0  0  0  0  0  0  0  0  0  0  0  0
   11.0001  -16.4991   20.3366 O   0  0  0  0  0  0  0  0  0  0  0  0
    9.2383  -17.0173   21.6830 N   0  0  0  0  0  0  0  0  0  0  0  0
    9.3577  -15.7398   22.3576 C   0  0  1  0  0  0  0  0  0  0  0  0
    7.9969  -15.0213   22.3556 C   0  0  0  0  0  0  0  0  0  0  0  0
    7.3728  -15.0743   23.6849 C   0  0  0  0  0  0  0  0  0  0  0  0
    6.8786  -16.2399   24.2426 C   0  0  0  0  0  0  0  0  0  0  0  0
    6.3920  -15.9043   25.4410 N   0  0  0  0  0  0  0  0  0  0  0  0
    6.5566  -14.5883   25.6615 C   0  0  0  0  0  0  0  0  0  0  0  0
    6.2317  -13.7792   26.7191 C   0  0  0  0  0  0  0  0  0  0  0  0
    6.5028  -12.4379   26.7217 C   0  0  0  0  0  0  0  0  0  0  0  0
    7.1320  -11.8790   25.6068 C   0  0  0  0  0  0  0  0  0  0  0  0
    7.4684  -12.6807   24.5276 C   0  0  0  0  0  0  0  0  0  0  0  0
    7.1756  -14.0340   24.5667 C   0  0  0  0  0  0  0  0  0  0  0  0
    9.8695  -15.8817   23.7356 C   0  0  0  0  0  0  0  0  0  0  0  0
   10.2596  -14.8751   24.3804 O   0  0  0  0  0  0  0  0  0  0  0  0
    9.9559  -17.1342   24.4164 N   0  0  0  0  0  0  0  0  0  0  0  0
   10.6565  -17.3081   25.6618 C   0  0  1  0  0  0  0  0  0  0  0  0
    9.7346  -16.9392   26.7922 C   0  0  0  0  0  0  0  0  0  0  0  0
   10.1513  -15.6737   27.4654 C   0  0  0  0  0  0  0  0  0  0  0  0
    9.3514  -15.1033   28.4546 C   0  0  0  0  0  0  0  0  0  0  0  0
    9.7559  -13.9390   29.0568 C   0  0  0  0  0  0  0  0  0  0  0  0
   10.9435  -13.3324   28.6911 C   0  0  0  0  0  0  0  0  0  0  0  0
   11.7427  -13.8739   27.7243 C   0  0  0  0  0  0  0  0  0  0  0  0
   11.3219  -15.0494   27.1250 C   0  0  0  0  0  0  0  0  0  0  0  0
   11.1731  -18.6579   25.8795 C   0  0  0  0  0  0  0  0  0  0  0  0
   11.9627  -18.8516   27.0249 O   0  0  0  0  0  0  0  0  0  0  0  0
   10.9824  -19.6463   25.1530 O   0  0  0  0  0  0  0  0  0  0  0  0
  2  1  1  6
  2  3  1  0
  4  2  1  0
  4  5  2  0
  6  4  1  0
  7  6  1  0
  7  8  1  1
  9  8  1  0
  9 17  1  0
 10 11  1  0
 10  9  2  0
 11 12  1  0
 12 13  2  0
 12 17  1  0
 13 14  1  0
 14 15  2  0
 16 15  1  0
 17 16  2  0
 18  7  1  0
 19 18  2  0
 20 18  1  0
 21 20  1  0
 21 29  1  0
 22 23  1  0
 21 22  1  1
 23 24  2  0
 24 25  1  0
 26 25  2  0
 27 26  1  0
 28 23  1  0
 28 27  2  0
 29 30  1  0
 31 29  2  0
M  END
$$$$
