AWF.pdb
     RDKit          3D

 31 33  0  0  1  0  0  0  0  0999 V2000
    7.0287  -19.7585   26.9563 C   0  0  0  0  0  0  0  0  0  0  0  0
    6.5225  -20.1969   25.5813 C   0  0  2  0  0  0  0  0  0  0  0  0
    6.9288  -21.5672   25.3401 N   0  0  0  0  0  0  0  0  0  0  0  0
    7.1792  -19.3326   24.5923 C   0  0  0  0  0  0  0  0  0  0  0  0
    8.2907  -19.6548   24.0906 O   0  0  0  0  0  0  0  0  0  0  0  0
    6.6295  -18.0979   24.1342 N   0  0  0  0  0  0  0  0  0  0  0  0
    7.3325  -17.2972   23.1513 C   0  0  1  0  0  0  0  0  0  0  0  0
    6.3520  -16.3205   22.4784 C   0  0  0  0  0  0  0  0  0  0  0  0
    6.9760  -15.6632   21.3217 C   0  0  0  0  0  0  0  0  0  0  0  0
    7.1517  -16.2884   20.1002 C   0  0  0  0  0  0  0  0  0  0  0  0
    7.7450  -15.3941   19.3041 N   0  0  0  0  0  0  0  0  0  0  0  0
    7.9494  -14.2414   19.9652 C   0  0  0  0  0  0  0  0  0  0  0  0
    8.5114  -13.0480   19.5929 C   0  0  0  0  0  0  0  0  0  0  0  0
    8.6140  -11.9897   20.4544 C   0  0  0  0  0  0  0  0  0  0  0  0
    8.1282  -12.1354   21.7559 C   0  0  0  0  0  0  0  0  0  0  0  0
    7.5564  -13.3344   22.1512 C   0  0  0  0  0  0  0  0  0  0  0  0
    7.4727  -14.3801   21.2467 C   0  0  0  0  0  0  0  0  0  0  0  0
    8.4737  -16.5670   23.7390 C   0  0  0  0  0  0  0  0  0  0  0  0
    9.2911  -15.9576   23.0030 O   0  0  0  0  0  0  0  0  0  0  0  0
    8.7248  -16.5010   25.1434 N   0  0  0  0  0  0  0  0  0  0  0  0
    9.9445  -15.9797   25.7027 C   0  0  1  0  0  0  0  0  0  0  0  0
    9.8635  -14.4775   25.7267 C   0  0  0  0  0  0  0  0  0  0  0  0
    8.5536  -13.9950   26.2556 C   0  0  0  0  0  0  0  0  0  0  0  0
    7.4963  -14.8843   26.4420 C   0  0  0  0  0  0  0  0  0  0  0  0
    6.3021  -14.4155   26.9278 C   0  0  0  0  0  0  0  0  0  0  0  0
    6.1423  -13.0760   27.2313 C   0  0  0  0  0  0  0  0  0  0  0  0
    7.1649  -12.1869   27.0564 C   0  0  0  0  0  0  0  0  0  0  0  0
    8.3646  -12.6742   26.5654 C   0  0  0  0  0  0  0  0  0  0  0  0
   10.2494  -16.4694   27.0456 C   0  0  0  0  0  0  0  0  0  0  0  0
    9.3485  -17.3956   27.5965 O   0  0  0  0  0  0  0  0  0  0  0  0
   11.2238  -16.1475   27.7441 O   0  0  0  0  0  0  0  0  0  0  0  0
  2  1  1  1
  2  3  1  0
  4  2  1  0
  4  5  2  0
  6  4  1  0
  7  6  1  0
  7  8  1  1
  9  8  1  0
  9 17  1  0
 10 11  1  0
 10  9  2  0
 11 12  1  0
 12 13  2  0
 12 17  1  0
 13 14  1  0
 14 15  2  0
 16 15  1  0
 17 16  2  0
 18  7  1  0
 19 18  2  0
 20 18  1  0
 21 20  1  0
 21 29  1  0
 22 23  1  0
 21 22  1  1
 23 24  2  0
 24 25  1  0
 26 25  2  0
 27 26  1  0
 28 23  1  0
 28 27  2  0
 29 30  1  0
 31 29  2  0
M  END
$$$$
