AWF.pdb
     RDKit          3D

 31 33  0  0  1  0  0  0  0  0999 V2000
   11.6919  -18.4365   19.8364 C   0  0  0  0  0  0  0  0  0  0  0  0
   10.6573  -17.3182   19.7023 C   0  0  2  0  0  0  0  0  0  0  0  0
   11.2020  -16.2643   18.8694 N   0  0  0  0  0  0  0  0  0  0  0  0
   10.4354  -16.7817   21.0512 C   0  0  0  0  0  0  0  0  0  0  0  0
   11.2064  -15.9074   21.5327 O   0  0  0  0  0  0  0  0  0  0  0  0
    9.3633  -17.1939   21.8981 N   0  0  0  0  0  0  0  0  0  0  0  0
    9.2549  -16.6850   23.2511 C   0  0  1  0  0  0  0  0  0  0  0  0
    7.7721  -16.5654   23.6447 C   0  0  0  0  0  0  0  0  0  0  0  0
    7.3274  -15.1656   23.5981 C   0  0  0  0  0  0  0  0  0  0  0  0
    7.1309  -14.4733   22.4166 C   0  0  0  0  0  0  0  0  0  0  0  0
    6.7348  -13.2453   22.7640 N   0  0  0  0  0  0  0  0  0  0  0  0
    6.6732  -13.1341   24.1024 C   0  0  0  0  0  0  0  0  0  0  0  0
    6.3278  -12.0978   24.9302 C   0  0  0  0  0  0  0  0  0  0  0  0
    6.3387  -12.2181   26.2933 C   0  0  0  0  0  0  0  0  0  0  0  0
    6.7152  -13.4402   26.8553 C   0  0  0  0  0  0  0  0  0  0  0  0
    7.0679  -14.5000   26.0349 C   0  0  0  0  0  0  0  0  0  0  0  0
    7.0430  -14.3347   24.6599 C   0  0  0  0  0  0  0  0  0  0  0  0
    9.9857  -17.5230   24.2230 C   0  0  0  0  0  0  0  0  0  0  0  0
    9.9365  -18.7775   24.1509 O   0  0  0  0  0  0  0  0  0  0  0  0
   10.7780  -16.9868   25.2833 N   0  0  0  0  0  0  0  0  0  0  0  0
   11.4094  -17.8034   26.2867 C   0  0  1  0  0  0  0  0  0  0  0  0
   12.3600  -16.9485   27.0799 C   0  0  0  0  0  0  0  0  0  0  0  0
   11.6709  -15.7891   27.7196 C   0  0  0  0  0  0  0  0  0  0  0  0
   11.4728  -14.6056   27.0097 C   0  0  0  0  0  0  0  0  0  0  0  0
   10.8383  -13.5541   27.6208 C   0  0  0  0  0  0  0  0  0  0  0  0
   10.3973  -13.6604   28.9270 C   0  0  0  0  0  0  0  0  0  0  0  0
   10.5808  -14.8105   29.6413 C   0  0  0  0  0  0  0  0  0  0  0  0
   11.2228  -15.8638   29.0117 C   0  0  0  0  0  0  0  0  0  0  0  0
   10.4784  -18.4657   27.1983 C   0  0  0  0  0  0  0  0  0  0  0  0
   11.0293  -19.4033   28.0874 O   0  0  0  0  0  0  0  0  0  0  0  0
    9.2526  -18.2808   27.2628 O   0  0  0  0  0  0  0  0  0  0  0  0
  2  1  1  1
  2  3  1  0
  4  2  1  0
  4  5  2  0
  6  4  1  0
  7  6  1  0
  7  8  1  1
  9  8  1  0
  9 17  1  0
 10 11  1  0
 10  9  2  0
 11 12  1  0
 12 13  2  0
 12 17  1  0
 13 14  1  0
 14 15  2  0
 16 15  1  0
 17 16  2  0
 18  7  1  0
 19 18  2  0
 20 18  1  0
 21 20  1  0
 21 29  1  0
 22 23  1  0
 21 22  1  1
 23 24  2  0
 24 25  1  0
 26 25  2  0
 27 26  1  0
 28 23  1  0
 28 27  2  0
 29 30  1  0
 31 29  2  0
M  END
$$$$
