AWF.pdb
     RDKit          3D

 31 33  0  0  1  0  0  0  0  0999 V2000
    9.5354  -19.4637   18.3122 C   0  0  0  0  0  0  0  0  0  0  0  0
    9.7222  -19.6462   19.8191 C   0  0  2  0  0  0  0  0  0  0  0  0
    8.6439  -20.4657   20.3357 N   0  0  0  0  0  0  0  0  0  0  0  0
    9.6266  -18.3111   20.4231 C   0  0  0  0  0  0  0  0  0  0  0  0
   10.4653  -17.4129   20.1393 O   0  0  0  0  0  0  0  0  0  0  0  0
    8.6089  -17.9352   21.3503 N   0  0  0  0  0  0  0  0  0  0  0  0
    8.6872  -16.6735   22.0597 C   0  0  1  0  0  0  0  0  0  0  0  0
    7.2731  -16.1003   22.2592 C   0  0  0  0  0  0  0  0  0  0  0  0
    7.3314  -14.7251   22.7738 C   0  0  0  0  0  0  0  0  0  0  0  0
    7.7231  -13.6450   22.0031 C   0  0  0  0  0  0  0  0  0  0  0  0
    7.6543  -12.5734   22.7983 N   0  0  0  0  0  0  0  0  0  0  0  0
    7.2395  -12.9279   24.0272 C   0  0  0  0  0  0  0  0  0  0  0  0
    7.0139  -12.2080   25.1714 C   0  0  0  0  0  0  0  0  0  0  0  0
    6.5834  -12.7954   26.3300 C   0  0  0  0  0  0  0  0  0  0  0  0
    6.3682  -14.1755   26.3419 C   0  0  0  0  0  0  0  0  0  0  0  0
    6.5908  -14.9207   25.1948 C   0  0  0  0  0  0  0  0  0  0  0  0
    7.0264  -14.2855   24.0436 C   0  0  0  0  0  0  0  0  0  0  0  0
    9.3837  -16.8039   23.3554 C   0  0  0  0  0  0  0  0  0  0  0  0
    9.0379  -17.6861   24.1821 O   0  0  0  0  0  0  0  0  0  0  0  0
   10.4683  -15.9637   23.7522 N   0  0  0  0  0  0  0  0  0  0  0  0
   10.8962  -15.8215   25.1193 C   0  0  1  0  0  0  0  0  0  0  0  0
    9.6927  -15.5396   25.9771 C   0  0  0  0  0  0  0  0  0  0  0  0
   10.0699  -15.2289   27.3877 C   0  0  0  0  0  0  0  0  0  0  0  0
   10.2126  -16.2531   28.3227 C   0  0  0  0  0  0  0  0  0  0  0  0
   10.5583  -15.9411   29.6130 C   0  0  0  0  0  0  0  0  0  0  0  0
   10.7644  -14.6264   29.9888 C   0  0  0  0  0  0  0  0  0  0  0  0
   10.6301  -13.6071   29.0891 C   0  0  0  0  0  0  0  0  0  0  0  0
   10.2807  -13.9368   27.7902 C   0  0  0  0  0  0  0  0  0  0  0  0
   11.6089  -16.9812   25.6516 C   0  0  0  0  0  0  0  0  0  0  0  0
   10.8187  -18.0345   26.1407 O   0  0  0  0  0  0  0  0  0  0  0  0
   12.8404  -17.1253   25.7131 O   0  0  0  0  0  0  0  0  0  0  0  0
  2  1  1  6
  2  3  1  0
  4  2  1  0
  4  5  2  0
  6  4  1  0
  7  6  1  0
  7  8  1  1
  9  8  1  0
  9 17  1  0
 10 11  1  0
 10  9  2  0
 11 12  1  0
 12 13  2  0
 12 17  1  0
 13 14  1  0
 14 15  2  0
 16 15  1  0
 17 16  2  0
 18  7  1  0
 19 18  2  0
 20 18  1  0
 21 20  1  0
 21 29  1  0
 22 23  1  0
 21 22  1  1
 23 24  2  0
 24 25  1  0
 26 25  2  0
 27 26  1  0
 28 23  1  0
 28 27  2  0
 29 30  1  0
 31 29  2  0
M  END
$$$$
