AWF.pdb
     RDKit          3D

 31 33  0  0  1  0  0  0  0  0999 V2000
   12.9847  -17.4928   20.7100 C   0  0  0  0  0  0  0  0  0  0  0  0
   11.9392  -16.4496   20.3128 C   0  0  2  0  0  0  0  0  0  0  0  0
   12.6139  -15.2550   19.8452 N   0  0  0  0  0  0  0  0  0  0  0  0
   11.1880  -16.1173   21.5300 C   0  0  0  0  0  0  0  0  0  0  0  0
   11.6042  -15.2290   22.3229 O   0  0  0  0  0  0  0  0  0  0  0  0
    9.9653  -16.7528   21.9013 N   0  0  0  0  0  0  0  0  0  0  0  0
    9.3277  -16.4433   23.1658 C   0  0  1  0  0  0  0  0  0  0  0  0
    7.8075  -16.6502   23.0462 C   0  0  0  0  0  0  0  0  0  0  0  0
    7.1054  -16.0634   24.1961 C   0  0  0  0  0  0  0  0  0  0  0  0
    6.4700  -16.8227   25.1623 C   0  0  0  0  0  0  0  0  0  0  0  0
    5.9494  -15.9564   26.0364 N   0  0  0  0  0  0  0  0  0  0  0  0
    6.2269  -14.6939   25.6665 C   0  0  0  0  0  0  0  0  0  0  0  0
    5.9207  -13.4784   26.2209 C   0  0  0  0  0  0  0  0  0  0  0  0
    6.3190  -12.2975   25.6556 C   0  0  0  0  0  0  0  0  0  0  0  0
    7.0625  -12.3374   24.4736 C   0  0  0  0  0  0  0  0  0  0  0  0
    7.3820  -13.5568   23.8977 C   0  0  0  0  0  0  0  0  0  0  0  0
    6.9586  -14.7282   24.5036 C   0  0  0  0  0  0  0  0  0  0  0  0
    9.8763  -17.2444   24.2786 C   0  0  0  0  0  0  0  0  0  0  0  0
   10.3075  -18.4084   24.0774 O   0  0  0  0  0  0  0  0  0  0  0  0
    9.9555  -16.7703   25.6234 N   0  0  0  0  0  0  0  0  0  0  0  0
   10.4521  -17.5692   26.7131 C   0  0  1  0  0  0  0  0  0  0  0  0
   10.2669  -16.8067   27.9968 C   0  0  0  0  0  0  0  0  0  0  0  0
   10.6090  -15.3616   27.8450 C   0  0  0  0  0  0  0  0  0  0  0  0
   11.7497  -14.9758   27.1423 C   0  0  0  0  0  0  0  0  0  0  0  0
   12.0428  -13.6415   27.0185 C   0  0  0  0  0  0  0  0  0  0  0  0
   11.2198  -12.6841   27.5824 C   0  0  0  0  0  0  0  0  0  0  0  0
   10.0971  -13.0396   28.2751 C   0  0  0  0  0  0  0  0  0  0  0  0
    9.8135  -14.3901   28.3921 C   0  0  0  0  0  0  0  0  0  0  0  0
    9.8209  -18.8819   26.8346 C   0  0  0  0  0  0  0  0  0  0  0  0
    8.7247  -19.1326   25.9929 O   0  0  0  0  0  0  0  0  0  0  0  0
   10.1584  -19.7936   27.6067 O   0  0  0  0  0  0  0  0  0  0  0  0
  2  1  1  1
  2  3  1  0
  4  2  1  0
  4  5  2  0
  6  4  1  0
  7  6  1  0
  7  8  1  6
  9  8  1  0
  9 17  1  0
 10 11  1  0
 10  9  2  0
 11 12  1  0
 12 13  2  0
 12 17  1  0
 13 14  1  0
 14 15  2  0
 16 15  1  0
 17 16  2  0
 18  7  1  0
 19 18  2  0
 20 18  1  0
 21 20  1  0
 21 29  1  0
 22 23  1  0
 21 22  1  1
 23 24  2  0
 24 25  1  0
 26 25  2  0
 27 26  1  0
 28 23  1  0
 28 27  2  0
 29 30  1  0
 31 29  2  0
M  END
$$$$
