SQR.pdb
     RDKit          3D

 27 26  0  0  1  0  0  0  0  0999 V2000
   14.6317  -15.9050   17.4772 O   0  0  0  0  0  0  0  0  0  0  0  0
   15.1878  -17.1935   17.3946 C   0  0  0  0  0  0  0  0  0  0  0  0
   14.0878  -18.1761   17.0685 C   0  0  2  0  0  0  0  0  0  0  0  0
   13.4258  -17.8075   15.8588 N   0  0  0  0  0  0  0  0  0  0  0  0
   13.1325  -18.2356   18.2311 C   0  0  0  0  0  0  0  0  0  0  0  0
   11.9704  -17.8073   18.0928 O   0  0  0  0  0  0  0  0  0  0  0  0
   14.1908  -21.8435   23.5307 N   0  0  0  0  0  0  0  0  0  0  0  0
   12.9437  -21.2019   23.7452 C   0  0  0  0  0  0  0  0  0  0  0  0
   12.2934  -21.5145   24.7639 O   0  0  0  0  0  0  0  0  0  0  0  0
   12.4534  -20.2106   22.7963 C   0  0  0  0  0  0  0  0  0  0  0  0
   13.3323  -19.9023   21.6353 C   0  0  0  0  0  0  0  0  0  0  0  0
   12.7628  -18.9563   20.6478 C   0  0  2  0  0  0  0  0  0  0  0  0
   13.5408  -18.7711   19.4741 N   0  0  0  0  0  0  0  0  0  0  0  0
   12.3024  -17.6901   21.3033 C   0  0  0  0  0  0  0  0  0  0  0  0
   13.0879  -16.7555   21.5864 O   0  0  0  0  0  0  0  0  0  0  0  0
    6.7761  -12.2954   18.6896 N   0  0  0  0  0  0  0  0  0  0  0  0
    7.9055  -13.1645   18.5102 C   0  0  0  0  0  0  0  0  0  0  0  0
    8.3468  -13.3380   17.3252 N   0  0  0  0  0  0  0  0  0  0  0  0
    8.5085  -13.8057   19.6068 N   0  0  0  0  0  0  0  0  0  0  0  0
    8.0102  -13.6005   20.9377 C   0  0  0  0  0  0  0  0  0  0  0  0
    8.8177  -14.3174   21.9975 C   0  0  0  0  0  0  0  0  0  0  0  0
    9.3164  -15.6324   21.4481 C   0  0  0  0  0  0  0  0  0  0  0  0
   10.4890  -16.1870   22.2016 C   0  0  2  0  0  0  0  0  0  0  0  0
   10.9337  -17.4575   21.6506 N   0  0  0  0  0  0  0  0  0  0  0  0
   10.2055  -16.3334   23.6348 C   0  0  0  0  0  0  0  0  0  0  0  0
   10.0823  -15.2161   24.4452 O   0  0  0  0  0  0  0  0  0  0  0  0
   10.0742  -17.4760   24.1280 O   0  0  0  0  0  0  0  0  0  0  0  0
  2  1  1  0
  3  2  1  0
  3  4  1  6
  5  3  1  0
  6  5  2  0
  7  8  1  0
  8 10  1  0
  9  8  2  0
 10 11  1  0
 12 11  1  1
 12 13  1  0
 13  5  1  0
 14 15  2  0
 14 12  1  0
 17 16  1  0
 17 19  1  0
 18 17  2  0
 20 19  1  0
 21 22  1  0
 21 20  1  0
 23 22  1  6
 23 24  1  0
 24 14  1  0
 25 23  1  0
 26 25  1  0
 27 25  2  0
M  END
$$$$
