SQR.pdb
     RDKit          3D

 27 26  0  0  1  0  0  0  0  0999 V2000
    8.9814  -16.4961   14.4415 O   0  0  0  0  0  0  0  0  0  0  0  0
    7.6599  -16.0214   14.5113 C   0  0  0  0  0  0  0  0  0  0  0  0
    7.6926  -14.5233   14.7027 C   0  0  2  0  0  0  0  0  0  0  0  0
    8.2203  -13.8791   13.5435 N   0  0  0  0  0  0  0  0  0  0  0  0
    8.5040  -14.2107   15.9323 C   0  0  0  0  0  0  0  0  0  0  0  0
    9.7162  -13.9463   15.8165 O   0  0  0  0  0  0  0  0  0  0  0  0
    6.0206  -14.2147   21.9941 N   0  0  0  0  0  0  0  0  0  0  0  0
    7.3951  -13.8907   22.1306 C   0  0  0  0  0  0  0  0  0  0  0  0
    7.8225  -13.6274   23.2737 O   0  0  0  0  0  0  0  0  0  0  0  0
    8.2662  -13.8718   20.9627 C   0  0  0  0  0  0  0  0  0  0  0  0
    7.6219  -14.1106   19.6424 C   0  0  0  0  0  0  0  0  0  0  0  0
    8.5299  -14.0308   18.4747 C   0  0  2  0  0  0  0  0  0  0  0  0
    7.9047  -14.2148   17.2127 N   0  0  0  0  0  0  0  0  0  0  0  0
    9.7694  -14.8452   18.6869 C   0  0  0  0  0  0  0  0  0  0  0  0
    9.8238  -16.0687   18.4209 O   0  0  0  0  0  0  0  0  0  0  0  0
   17.9598  -12.6260   17.0303 N   0  0  0  0  0  0  0  0  0  0  0  0
   18.0681  -14.0146   17.3811 C   0  0  0  0  0  0  0  0  0  0  0  0
   19.1393  -14.6319   17.0639 N   0  0  0  0  0  0  0  0  0  0  0  0
   17.0256  -14.6759   18.0544 N   0  0  0  0  0  0  0  0  0  0  0  0
   15.7896  -13.9995   18.3309 C   0  0  0  0  0  0  0  0  0  0  0  0
   14.7104  -14.9165   18.8636 C   0  0  0  0  0  0  0  0  0  0  0  0
   13.4118  -14.1547   18.9768 C   0  0  0  0  0  0  0  0  0  0  0  0
   12.2240  -15.0355   19.2290 C   0  0  2  0  0  0  0  0  0  0  0  0
   10.9790  -14.2838   19.2064 N   0  0  0  0  0  0  0  0  0  0  0  0
   12.3418  -15.7732   20.4930 C   0  0  0  0  0  0  0  0  0  0  0  0
   11.4899  -15.4971   21.5506 O   0  0  0  0  0  0  0  0  0  0  0  0
   13.2184  -16.6578   20.6162 O   0  0  0  0  0  0  0  0  0  0  0  0
  2  1  1  0
  3  2  1  0
  3  4  1  6
  5  3  1  0
  6  5  2  0
  7  8  1  0
  8 10  1  0
  9  8  2  0
 10 11  1  0
 12 11  1  1
 12 13  1  0
 13  5  1  0
 14 15  2  0
 14 12  1  0
 17 16  1  0
 17 19  1  0
 18 17  2  0
 20 19  1  0
 21 22  1  0
 21 20  1  0
 23 22  1  1
 23 24  1  0
 24 14  1  0
 25 23  1  0
 26 25  1  0
 27 25  2  0
M  END
$$$$
