SQR.pdb
     RDKit          3D

 27 26  0  0  1  0  0  0  0  0999 V2000
    8.2517  -12.6169   20.2513 O   0  0  0  0  0  0  0  0  0  0  0  0
    7.7745  -13.2564   19.0940 C   0  0  0  0  0  0  0  0  0  0  0  0
    6.9656  -14.4639   19.5062 C   0  0  2  0  0  0  0  0  0  0  0  0
    5.8213  -14.0690   20.2624 N   0  0  0  0  0  0  0  0  0  0  0  0
    7.8539  -15.3976   20.2855 C   0  0  0  0  0  0  0  0  0  0  0  0
    7.7090  -15.4950   21.5193 O   0  0  0  0  0  0  0  0  0  0  0  0
   10.1183  -20.7505   18.7171 N   0  0  0  0  0  0  0  0  0  0  0  0
   11.1855  -20.3490   19.5614 C   0  0  0  0  0  0  0  0  0  0  0  0
   11.9143  -21.2397   20.0454 O   0  0  0  0  0  0  0  0  0  0  0  0
   11.4100  -18.9370   19.8429 C   0  0  0  0  0  0  0  0  0  0  0  0
   10.4482  -17.9729   19.2422 C   0  0  0  0  0  0  0  0  0  0  0  0
    9.7715  -17.0748   20.2064 C   0  0  2  0  0  0  0  0  0  0  0  0
    8.8474  -16.1619   19.6320 N   0  0  0  0  0  0  0  0  0  0  0  0
   10.7478  -16.4622   21.1638 C   0  0  0  0  0  0  0  0  0  0  0  0
   11.4868  -15.5008   20.8472 O   0  0  0  0  0  0  0  0  0  0  0  0
    9.5601  -16.4395   29.4112 N   0  0  0  0  0  0  0  0  0  0  0  0
   10.0733  -15.2557   28.7801 C   0  0  0  0  0  0  0  0  0  0  0  0
   10.2813  -14.2290   29.5094 N   0  0  0  0  0  0  0  0  0  0  0  0
   10.3395  -15.2271   27.3997 N   0  0  0  0  0  0  0  0  0  0  0  0
    9.5480  -16.0030   26.4867 C   0  0  0  0  0  0  0  0  0  0  0  0
    9.9630  -15.8354   25.0415 C   0  0  0  0  0  0  0  0  0  0  0  0
   11.3560  -16.3852   24.8496 C   0  0  0  0  0  0  0  0  0  0  0  0
   11.8381  -16.3059   23.4313 C   0  0  2  0  0  0  0  0  0  0  0  0
   10.9042  -16.9300   22.5072 N   0  0  0  0  0  0  0  0  0  0  0  0
   13.1737  -16.8937   23.2682 C   0  0  0  0  0  0  0  0  0  0  0  0
   14.2922  -16.2491   23.7721 O   0  0  0  0  0  0  0  0  0  0  0  0
   13.3028  -17.9849   22.6694 O   0  0  0  0  0  0  0  0  0  0  0  0
  2  1  1  0
  3  2  1  0
  3  4  1  1
  5  3  1  0
  6  5  2  0
  7  8  1  0
  8 10  1  0
  9  8  2  0
 10 11  1  0
 12 11  1  6
 12 13  1  0
 13  5  1  0
 14 15  2  0
 14 12  1  0
 17 16  1  0
 17 19  1  0
 18 17  2  0
 20 19  1  0
 21 22  1  0
 21 20  1  0
 23 22  1  1
 23 24  1  0
 24 14  1  0
 25 23  1  0
 26 25  1  0
 27 25  2  0
M  END
$$$$
