SQR.pdb
     RDKit          3D

 27 26  0  0  1  0  0  0  0  0999 V2000
    5.4294  -17.9535   24.4567 O   0  0  0  0  0  0  0  0  0  0  0  0
    5.3416  -19.2000   23.8126 C   0  0  0  0  0  0  0  0  0  0  0  0
    5.3167  -18.9731   22.3193 C   0  0  2  0  0  0  0  0  0  0  0  0
    5.2077  -20.2144   21.6233 N   0  0  0  0  0  0  0  0  0  0  0  0
    6.5592  -18.2194   21.9241 C   0  0  0  0  0  0  0  0  0  0  0  0
    7.6488  -18.8211   21.8648 O   0  0  0  0  0  0  0  0  0  0  0  0
    6.6567  -12.5995   18.7274 N   0  0  0  0  0  0  0  0  0  0  0  0
    8.0105  -12.9218   19.0032 C   0  0  0  0  0  0  0  0  0  0  0  0
    8.8978  -12.2375   18.4528 O   0  0  0  0  0  0  0  0  0  0  0  0
    8.3368  -14.0196   19.9042 C   0  0  0  0  0  0  0  0  0  0  0  0
    7.1950  -14.8163   20.4306 C   0  0  0  0  0  0  0  0  0  0  0  0
    7.5706  -15.9702   21.2800 C   0  0  2  0  0  0  0  0  0  0  0  0
    6.5006  -16.8399   21.6209 N   0  0  0  0  0  0  0  0  0  0  0  0
    8.4282  -15.5465   22.4332 C   0  0  0  0  0  0  0  0  0  0  0  0
    7.9503  -15.0478   23.4789 O   0  0  0  0  0  0  0  0  0  0  0  0
    8.1699  -20.2062   25.6288 N   0  0  0  0  0  0  0  0  0  0  0  0
    8.0716  -19.1485   26.5955 C   0  0  0  0  0  0  0  0  0  0  0  0
    6.9203  -18.8809   27.0772 N   0  0  0  0  0  0  0  0  0  0  0  0
    9.2094  -18.4283   27.0006 N   0  0  0  0  0  0  0  0  0  0  0  0
   10.4648  -18.6060   26.3267 C   0  0  0  0  0  0  0  0  0  0  0  0
   10.9681  -17.3472   25.6549 C   0  0  0  0  0  0  0  0  0  0  0  0
   10.1930  -17.1110   24.3808 C   0  0  0  0  0  0  0  0  0  0  0  0
   10.6126  -15.8704   23.6492 C   0  0  2  0  0  0  0  0  0  0  0  0
    9.8528  -15.6829   22.4231 N   0  0  0  0  0  0  0  0  0  0  0  0
   12.0509  -15.8629   23.3542 C   0  0  0  0  0  0  0  0  0  0  0  0
   12.5114  -16.1935   22.0897 O   0  0  0  0  0  0  0  0  0  0  0  0
   12.8670  -15.5557   24.2518 O   0  0  0  0  0  0  0  0  0  0  0  0
  2  1  1  0
  3  2  1  0
  3  4  1  6
  5  3  1  0
  6  5  2  0
  7  8  1  0
  8 10  1  0
  9  8  2  0
 10 11  1  0
 12 11  1  1
 12 13  1  0
 13  5  1  0
 14 15  2  0
 14 12  1  0
 17 16  1  0
 17 19  1  0
 18 17  2  0
 20 19  1  0
 21 22  1  0
 21 20  1  0
 23 22  1  6
 23 24  1  0
 24 14  1  0
 25 23  1  0
 26 25  1  0
 27 25  2  0
M  END
$$$$
