SQR.pdb
     RDKit          3D

 27 26  0  0  1  0  0  0  0  0999 V2000
   12.8509  -23.3700   26.8680 O   0  0  0  0  0  0  0  0  0  0  0  0
   12.7028  -24.7164   26.4916 C   0  0  0  0  0  0  0  0  0  0  0  0
   13.5430  -25.5717   27.4106 C   0  0  2  0  0  0  0  0  0  0  0  0
   13.5002  -26.9393   27.0045 N   0  0  0  0  0  0  0  0  0  0  0  0
   13.0495  -25.3934   28.8222 C   0  0  0  0  0  0  0  0  0  0  0  0
   11.9722  -25.9169   29.1661 O   0  0  0  0  0  0  0  0  0  0  0  0
   16.7683  -24.1050   33.8606 N   0  0  0  0  0  0  0  0  0  0  0  0
   15.6269  -23.2906   34.0763 C   0  0  0  0  0  0  0  0  0  0  0  0
   15.6129  -22.5607   35.0890 O   0  0  0  0  0  0  0  0  0  0  0  0
   14.5154  -23.3169   33.1343 C   0  0  0  0  0  0  0  0  0  0  0  0
   14.5710  -24.3468   32.0611 C   0  0  0  0  0  0  0  0  0  0  0  0
   13.4484  -24.3114   31.0953 C   0  0  2  0  0  0  0  0  0  0  0  0
   13.7949  -24.6399   29.7576 N   0  0  0  0  0  0  0  0  0  0  0  0
   12.6348  -23.0623   31.2453 C   0  0  0  0  0  0  0  0  0  0  0  0
   12.9469  -21.9853   30.6855 O   0  0  0  0  0  0  0  0  0  0  0  0
    7.3076  -21.5035   26.2513 N   0  0  0  0  0  0  0  0  0  0  0  0
    7.0371  -22.7291   26.9496 C   0  0  0  0  0  0  0  0  0  0  0  0
    6.2897  -23.5923   26.3792 N   0  0  0  0  0  0  0  0  0  0  0  0
    7.5792  -22.9724   28.2241 N   0  0  0  0  0  0  0  0  0  0  0  0
    8.5469  -22.0751   28.7899 C   0  0  0  0  0  0  0  0  0  0  0  0
    8.9702  -22.4561   30.1916 C   0  0  0  0  0  0  0  0  0  0  0  0
   10.0686  -21.5302   30.6561 C   0  0  0  0  0  0  0  0  0  0  0  0
   10.5720  -21.8462   32.0334 C   0  0  2  0  0  0  0  0  0  0  0  0
   11.4433  -23.0109   32.0364 N   0  0  0  0  0  0  0  0  0  0  0  0
    9.4761  -22.0369   32.9918 C   0  0  0  0  0  0  0  0  0  0  0  0
    9.2990  -23.2573   33.6240 O   0  0  0  0  0  0  0  0  0  0  0  0
    8.6962  -21.0901   33.2393 O   0  0  0  0  0  0  0  0  0  0  0  0
  2  1  1  0
  3  2  1  0
  3  4  1  6
  5  3  1  0
  6  5  2  0
  7  8  1  0
  8 10  1  0
  9  8  2  0
 10 11  1  0
 12 11  1  1
 12 13  1  0
 13  5  1  0
 14 15  2  0
 14 12  1  0
 17 16  1  0
 17 19  1  0
 18 17  2  0
 20 19  1  0
 21 22  1  0
 21 20  1  0
 23 22  1  6
 23 24  1  0
 24 14  1  0
 25 23  1  0
 26 25  1  0
 27 25  2  0
M  END
$$$$
