ASS.pdb
     RDKit          3D

 18 17  0  0  1  0  0  0  0  0999 V2000
   17.5602   -8.7988  -17.6766 C   0  0  0  0  0  0  0  0  0  0  0  0
   18.5866   -9.3564  -16.7455 C   0  0  2  0  0  0  0  0  0  0  0  0
   18.0999  -10.5810  -16.1048 N   0  0  0  0  0  0  0  0  0  0  0  0
   18.8936   -8.3726  -15.6697 C   0  0  0  0  0  0  0  0  0  0  0  0
   18.0190   -8.0543  -14.8131 O   0  0  0  0  0  0  0  0  0  0  0  0
   21.8223   -8.0772  -13.0282 O   0  0  0  0  0  0  0  0  0  0  0  0
   21.8644   -7.0873  -14.0079 C   0  0  0  0  0  0  0  0  0  0  0  0
   20.4488   -6.7926  -14.4965 C   0  0  2  0  0  0  0  0  0  0  0  0
   20.1643   -7.7512  -15.5524 N   0  0  0  0  0  0  0  0  0  0  0  0
   20.4360   -5.3996  -15.0276 C   0  0  0  0  0  0  0  0  0  0  0  0
   20.8040   -5.1859  -16.2041 O   0  0  0  0  0  0  0  0  0  0  0  0
   18.9292   -0.8413  -14.3656 O   0  0  0  0  0  0  0  0  0  0  0  0
   18.9186   -2.1514  -13.9568 C   0  0  0  0  0  0  0  0  0  0  0  0
   19.9994   -2.9643  -14.6315 C   0  0  2  0  0  0  0  0  0  0  0  0
   20.0061   -4.3357  -14.1901 N   0  0  0  0  0  0  0  0  0  0  0  0
   21.3354   -2.3480  -14.4745 C   0  0  0  0  0  0  0  0  0  0  0  0
   22.1843   -2.7962  -13.6695 O   0  0  0  0  0  0  0  0  0  0  0  0
   21.6483   -1.2424  -15.2449 O   0  0  0  0  0  0  0  0  0  0  0  0
  2  1  1  6
  2  3  1  0
  4  2  1  0
  4  5  2  0
  6  7  1  0
  8  7  1  6
  8  9  1  0
  9  4  1  0
 10  8  1  0
 11 10  2  0
 12 13  1  0
 14 13  1  1
 14 15  1  0
 14 16  1  0
 15 10  1  0
 16 18  1  0
 17 16  2  0
M  END
$$$$
