ASS.pdb
     RDKit          3D

 18 17  0  0  1  0  0  0  0  0999 V2000
   23.6131  -21.1058  -10.1649 C   0  0  0  0  0  0  0  0  0  0  0  0
   25.0906  -20.9001  -10.0887 C   0  0  2  0  0  0  0  0  0  0  0  0
   25.4568  -20.1956   -8.8572 N   0  0  0  0  0  0  0  0  0  0  0  0
   25.5550  -20.0748  -11.2388 C   0  0  0  0  0  0  0  0  0  0  0  0
   25.3522  -18.8266  -11.2650 O   0  0  0  0  0  0  0  0  0  0  0  0
   28.0434  -21.7047  -13.8806 O   0  0  0  0  0  0  0  0  0  0  0  0
   27.9911  -20.3136  -13.9413 C   0  0  0  0  0  0  0  0  0  0  0  0
   26.6100  -19.8354  -13.5017 C   0  0  2  0  0  0  0  0  0  0  0  0
   26.2386  -20.6384  -12.3476 N   0  0  0  0  0  0  0  0  0  0  0  0
   25.6700  -20.0695  -14.6350 C   0  0  0  0  0  0  0  0  0  0  0  0
   25.1802  -21.2083  -14.8034 O   0  0  0  0  0  0  0  0  0  0  0  0
   22.5233  -18.5610  -15.3786 O   0  0  0  0  0  0  0  0  0  0  0  0
   23.2264  -18.3060  -16.5294 C   0  0  0  0  0  0  0  0  0  0  0  0
   24.4669  -19.1627  -16.6371 C   0  0  2  0  0  0  0  0  0  0  0  0
   25.3445  -18.9960  -15.5068 N   0  0  0  0  0  0  0  0  0  0  0  0
   25.1881  -18.9355  -17.9089 C   0  0  0  0  0  0  0  0  0  0  0  0
   26.3706  -18.5226  -17.9387 O   0  0  0  0  0  0  0  0  0  0  0  0
   24.5281  -19.1899  -19.0979 O   0  0  0  0  0  0  0  0  0  0  0  0
  2  1  1  6
  2  3  1  0
  4  2  1  0
  4  5  2  0
  6  7  1  0
  8  7  1  6
  8  9  1  0
  9  4  1  0
 10  8  1  0
 11 10  2  0
 12 13  1  0
 14 13  1  1
 14 15  1  0
 14 16  1  0
 15 10  1  0
 16 18  1  0
 17 16  2  0
M  END
$$$$
