ASS.pdb
     RDKit          3D

 18 17  0  0  1  0  0  0  0  0999 V2000
   17.0291   -9.2090  -17.7352 C   0  0  0  0  0  0  0  0  0  0  0  0
   17.6544   -9.8826  -16.5577 C   0  0  2  0  0  0  0  0  0  0  0  0
   16.6489  -10.6077  -15.7765 N   0  0  0  0  0  0  0  0  0  0  0  0
   18.2836   -8.8725  -15.6615 C   0  0  0  0  0  0  0  0  0  0  0  0
   17.5750   -8.0450  -15.0187 O   0  0  0  0  0  0  0  0  0  0  0  0
   22.2705   -7.3702  -13.3778 O   0  0  0  0  0  0  0  0  0  0  0  0
   21.6780   -8.2665  -14.2648 C   0  0  0  0  0  0  0  0  0  0  0  0
   20.2924   -7.7585  -14.6541 C   0  0  2  0  0  0  0  0  0  0  0  0
   19.6894   -8.7881  -15.4855 N   0  0  0  0  0  0  0  0  0  0  0  0
   20.4753   -6.4951  -15.4242 C   0  0  0  0  0  0  0  0  0  0  0  0
   20.7940   -6.5514  -16.6327 O   0  0  0  0  0  0  0  0  0  0  0  0
   19.0244   -2.7411  -13.9792 O   0  0  0  0  0  0  0  0  0  0  0  0
   19.2072   -3.1059  -15.2896 C   0  0  0  0  0  0  0  0  0  0  0  0
   20.4197   -3.9905  -15.4676 C   0  0  2  0  0  0  0  0  0  0  0  0
   20.2851   -5.2462  -14.7744 N   0  0  0  0  0  0  0  0  0  0  0  0
   21.6702   -3.3005  -15.0811 C   0  0  0  0  0  0  0  0  0  0  0  0
   22.4376   -3.7569  -14.2023 O   0  0  0  0  0  0  0  0  0  0  0  0
   21.9942   -2.1145  -15.7154 O   0  0  0  0  0  0  0  0  0  0  0  0
  2  1  1  6
  2  3  1  0
  4  2  1  0
  4  5  2  0
  6  7  1  0
  8  7  1  6
  8  9  1  0
  9  4  1  0
 10  8  1  0
 11 10  2  0
 12 13  1  0
 14 13  1  1
 14 15  1  0
 14 16  1  0
 15 10  1  0
 16 18  1  0
 17 16  2  0
M  END
$$$$
