ASS.pdb
     RDKit          3D

 18 17  0  0  1  0  0  0  0  0999 V2000
   16.9925  -10.3890  -17.3006 C   0  0  0  0  0  0  0  0  0  0  0  0
   18.4724  -10.5899  -17.3290 C   0  0  2  0  0  0  0  0  0  0  0  0
   18.8152  -11.9865  -17.0477 N   0  0  0  0  0  0  0  0  0  0  0  0
   19.1262   -9.7443  -16.2911 C   0  0  0  0  0  0  0  0  0  0  0  0
   18.4368   -9.1267  -15.4290 O   0  0  0  0  0  0  0  0  0  0  0  0
   23.1739   -9.2535  -16.3632 O   0  0  0  0  0  0  0  0  0  0  0  0
   22.6186   -9.2819  -15.0856 C   0  0  0  0  0  0  0  0  0  0  0  0
   21.1634   -8.8263  -15.1516 C   0  0  2  0  0  0  0  0  0  0  0  0
   20.5353   -9.5907  -16.2175 N   0  0  0  0  0  0  0  0  0  0  0  0
   21.1609   -7.3701  -15.4712 C   0  0  0  0  0  0  0  0  0  0  0  0
   21.1535   -7.0023  -16.6670 O   0  0  0  0  0  0  0  0  0  0  0  0
   19.0475   -4.7734  -15.6701 O   0  0  0  0  0  0  0  0  0  0  0  0
   19.8241   -4.3807  -14.6088 C   0  0  0  0  0  0  0  0  0  0  0  0
   21.2012   -5.0018  -14.6539 C   0  0  2  0  0  0  0  0  0  0  0  0
   21.1670   -6.4219  -14.4134 N   0  0  0  0  0  0  0  0  0  0  0  0
   22.1430   -4.3285  -13.7326 C   0  0  0  0  0  0  0  0  0  0  0  0
   22.6207   -4.9073  -12.7295 O   0  0  0  0  0  0  0  0  0  0  0  0
   22.5018   -3.0184  -13.9950 O   0  0  0  0  0  0  0  0  0  0  0  0
  2  1  1  1
  2  3  1  0
  4  2  1  0
  4  5  2  0
  6  7  1  0
  8  7  1  6
  8  9  1  0
  9  4  1  0
 10  8  1  0
 11 10  2  0
 12 13  1  0
 14 13  1  1
 14 15  1  0
 14 16  1  0
 15 10  1  0
 16 18  1  0
 17 16  2  0
M  END
$$$$
