ASS.pdb
     RDKit          3D

 18 17  0  0  1  0  0  0  0  0999 V2000
   17.4202   -9.9781  -17.4439 C   0  0  0  0  0  0  0  0  0  0  0  0
   18.5732  -10.8603  -17.0922 C   0  0  2  0  0  0  0  0  0  0  0  0
   18.1162  -12.0594  -16.3849 N   0  0  0  0  0  0  0  0  0  0  0  0
   19.5191  -10.1378  -16.1962 C   0  0  0  0  0  0  0  0  0  0  0  0
   19.2034   -9.8694  -15.0011 O   0  0  0  0  0  0  0  0  0  0  0  0
   23.9321   -8.1896  -15.6327 O   0  0  0  0  0  0  0  0  0  0  0  0
   23.0703   -9.0086  -16.3594 C   0  0  0  0  0  0  0  0  0  0  0  0
   21.6564   -8.8870  -15.7977 C   0  0  2  0  0  0  0  0  0  0  0  0
   20.8038   -9.7198  -16.6311 N   0  0  0  0  0  0  0  0  0  0  0  0
   21.2548   -7.4545  -15.8934 C   0  0  0  0  0  0  0  0  0  0  0  0
   20.9871   -6.9636  -17.0126 O   0  0  0  0  0  0  0  0  0  0  0  0
   18.5708   -5.5965  -14.9914 O   0  0  0  0  0  0  0  0  0  0  0  0
   19.5272   -4.9112  -14.2847 C   0  0  0  0  0  0  0  0  0  0  0  0
   20.9255   -5.2509  -14.7471 C   0  0  2  0  0  0  0  0  0  0  0  0
   21.1820   -6.6681  -14.7125 N   0  0  0  0  0  0  0  0  0  0  0  0
   21.9554   -4.5049  -13.9909 C   0  0  0  0  0  0  0  0  0  0  0  0
   21.9994   -3.2529  -13.9841 O   0  0  0  0  0  0  0  0  0  0  0  0
   22.8956   -5.2208  -13.2716 O   0  0  0  0  0  0  0  0  0  0  0  0
  2  1  1  1
  2  3  1  0
  4  2  1  0
  4  5  2  0
  6  7  1  0
  8  7  1  6
  8  9  1  0
  9  4  1  0
 10  8  1  0
 11 10  2  0
 12 13  1  0
 14 13  1  1
 14 15  1  0
 14 16  1  0
 15 10  1  0
 16 18  1  0
 17 16  2  0
M  END
$$$$
