ASS.pdb
     RDKit          3D

 18 17  0  0  1  0  0  0  0  0999 V2000
   17.2876  -11.6532  -15.1857 C   0  0  0  0  0  0  0  0  0  0  0  0
   17.8263  -10.4428  -15.8755 C   0  0  2  0  0  0  0  0  0  0  0  0
   18.5533  -10.8153  -17.0920 N   0  0  0  0  0  0  0  0  0  0  0  0
   18.7759   -9.7217  -14.9823 C   0  0  0  0  0  0  0  0  0  0  0  0
   18.4031   -9.2887  -13.8538 O   0  0  0  0  0  0  0  0  0  0  0  0
   22.8284   -9.3339  -15.9196 O   0  0  0  0  0  0  0  0  0  0  0  0
   22.3923   -9.3297  -14.5962 C   0  0  0  0  0  0  0  0  0  0  0  0
   21.0115   -8.6843  -14.5161 C   0  0  2  0  0  0  0  0  0  0  0  0
   20.1276   -9.4870  -15.3463 N   0  0  0  0  0  0  0  0  0  0  0  0
   21.1296   -7.2986  -15.0532 C   0  0  0  0  0  0  0  0  0  0  0  0
   20.8841   -7.0834  -16.2610 O   0  0  0  0  0  0  0  0  0  0  0  0
   19.4177   -4.1008  -14.1167 O   0  0  0  0  0  0  0  0  0  0  0  0
   20.3008   -4.3419  -15.1392 C   0  0  0  0  0  0  0  0  0  0  0  0
   21.6205   -4.8776  -14.6337 C   0  0  2  0  0  0  0  0  0  0  0  0
   21.5192   -6.2432  -14.1858 N   0  0  0  0  0  0  0  0  0  0  0  0
   22.2023   -4.0144  -13.5822 C   0  0  0  0  0  0  0  0  0  0  0  0
   22.3851   -4.4227  -12.4119 O   0  0  0  0  0  0  0  0  0  0  0  0
   22.5526   -2.7170  -13.9107 O   0  0  0  0  0  0  0  0  0  0  0  0
  2  1  1  1
  2  3  1  0
  4  2  1  0
  4  5  2  0
  6  7  1  0
  8  7  1  6
  8  9  1  0
  9  4  1  0
 10  8  1  0
 11 10  2  0
 12 13  1  0
 14 13  1  1
 14 15  1  0
 14 16  1  0
 15 10  1  0
 16 18  1  0
 17 16  2  0
M  END
$$$$
