ASS.pdb
     RDKit          3D

 18 17  0  0  1  0  0  0  0  0999 V2000
   17.5583   -9.9320  -18.0318 C   0  0  0  0  0  0  0  0  0  0  0  0
   18.7881  -10.4602  -17.3685 C   0  0  2  0  0  0  0  0  0  0  0  0
   18.5279  -11.7612  -16.7465 N   0  0  0  0  0  0  0  0  0  0  0  0
   19.2361   -9.5266  -16.2974 C   0  0  0  0  0  0  0  0  0  0  0  0
   18.4931   -9.2729  -15.3057 O   0  0  0  0  0  0  0  0  0  0  0  0
   22.7960   -7.7752  -13.7593 O   0  0  0  0  0  0  0  0  0  0  0  0
   22.3193   -8.5433  -14.8196 C   0  0  0  0  0  0  0  0  0  0  0  0
   20.9502   -8.0243  -15.2504 C   0  0  2  0  0  0  0  0  0  0  0  0
   20.5009   -8.8836  -16.3342 N   0  0  0  0  0  0  0  0  0  0  0  0
   21.1283   -6.6221  -15.7247 C   0  0  0  0  0  0  0  0  0  0  0  0
   21.3242   -6.4038  -16.9409 O   0  0  0  0  0  0  0  0  0  0  0  0
   19.9268   -2.2928  -15.9914 O   0  0  0  0  0  0  0  0  0  0  0  0
   19.8353   -3.6139  -15.6309 C   0  0  0  0  0  0  0  0  0  0  0  0
   21.1678   -4.1745  -15.1901 C   0  0  2  0  0  0  0  0  0  0  0  0
   21.0728   -5.5549  -14.7887 N   0  0  0  0  0  0  0  0  0  0  0  0
   21.7904   -3.3532  -14.1284 C   0  0  0  0  0  0  0  0  0  0  0  0
   21.9471   -3.7816  -12.9616 O   0  0  0  0  0  0  0  0  0  0  0  0
   22.2096   -2.0729  -14.4432 O   0  0  0  0  0  0  0  0  0  0  0  0
  2  1  1  1
  2  3  1  0
  4  2  1  0
  4  5  2  0
  6  7  1  0
  8  7  1  6
  8  9  1  0
  9  4  1  0
 10  8  1  0
 11 10  2  0
 12 13  1  0
 14 13  1  1
 14 15  1  0
 14 16  1  0
 15 10  1  0
 16 18  1  0
 17 16  2  0
M  END
$$$$
