EWL.pdb
     RDKit          3D

 32 33  0  0  1  0  0  0  0  0999 V2000
   10.5245  -18.9570   20.6497 N   0  0  0  0  0  0  0  0  0  0  0  0
   11.6458  -18.0618   20.8337 C   0  0  1  0  0  0  0  0  0  0  0  0
   12.0383  -17.4842   19.5246 C   0  0  0  0  0  0  0  0  0  0  0  0
   11.1738  -17.8866   18.3723 C   0  0  0  0  0  0  0  0  0  0  0  0
   11.5690  -17.3925   17.0635 C   0  0  0  0  0  0  0  0  0  0  0  0
   10.8551  -17.5445   16.0477 O   0  0  0  0  0  0  0  0  0  0  0  0
   11.2193  -16.9900   21.8042 C   0  0  0  0  0  0  0  0  0  0  0  0
   11.8579  -15.9050   21.8669 O   0  0  0  0  0  0  0  0  0  0  0  0
   12.7847  -16.7094   16.8582 O   0  0  0  0  0  0  0  0  0  0  0  0
   10.1086  -17.1648   22.6547 N   0  0  0  0  0  0  0  0  0  0  0  0
    9.6296  -16.2628   23.6286 C   0  0  1  0  0  0  0  0  0  0  0  0
    8.1798  -16.0320   23.7469 C   0  0  0  0  0  0  0  0  0  0  0  0
    7.4693  -15.7531   22.4787 C   0  0  0  0  0  0  0  0  0  0  0  0
    6.4838  -16.5236   21.8732 C   0  0  0  0  0  0  0  0  0  0  0  0
    6.0749  -15.9128   20.7458 N   0  0  0  0  0  0  0  0  0  0  0  0
    6.7606  -14.7707   20.5954 C   0  0  0  0  0  0  0  0  0  0  0  0
    6.7233  -13.7969   19.6163 C   0  0  0  0  0  0  0  0  0  0  0  0
    7.5815  -12.7077   19.7356 C   0  0  0  0  0  0  0  0  0  0  0  0
    8.4488  -12.5947   20.7977 C   0  0  0  0  0  0  0  0  0  0  0  0
    8.4598  -13.5740   21.7467 C   0  0  0  0  0  0  0  0  0  0  0  0
    7.6198  -14.6660   21.6564 C   0  0  0  0  0  0  0  0  0  0  0  0
   10.2631  -16.4492   24.9919 C   0  0  0  0  0  0  0  0  0  0  0  0
   11.4192  -16.9727   25.1139 O   0  0  0  0  0  0  0  0  0  0  0  0
    9.0454  -12.9881   28.8386 C   0  0  0  0  0  0  0  0  0  0  0  0
    9.8519  -13.9218   27.8850 C   0  0  1  0  0  0  0  0  0  0  0  0
   11.2631  -13.3190   27.9352 C   0  0  0  0  0  0  0  0  0  0  0  0
    9.8185  -15.2993   28.4105 C   0  0  0  0  0  0  0  0  0  0  0  0
   10.2087  -16.4243   27.5298 C   0  0  2  0  0  0  0  0  0  0  0  0
    9.6405  -16.0682   26.1858 N   0  0  0  0  0  0  0  0  0  0  0  0
    9.8067  -17.7756   27.8351 C   0  0  0  0  0  0  0  0  0  0  0  0
   10.3424  -18.3944   28.8213 O   0  0  0  0  0  0  0  0  0  0  0  0
    8.8583  -18.4773   27.1367 O   0  0  0  0  0  0  0  0  0  0  0  0
  2  3  1  0
  2  1  1  6
  3  4  1  0
  4  5  1  0
  5  9  1  0
  6  5  2  0
  7  2  1  0
  8  7  2  0
 10  7  1  0
 11 10  1  0
 12 13  1  0
 11 12  1  1
 13 14  2  0
 14 15  1  0
 16 17  2  0
 16 15  1  0
 18 17  1  0
 19 18  2  0
 20 19  1  0
 20 21  2  0
 21 13  1  0
 21 16  1  0
 22 29  1  0
 22 11  1  0
 23 22  2  0
 25 24  1  1
 25 27  1  0
 26 25  1  0
 28 27  1  1
 28 29  1  0
 28 30  1  0
 30 32  1  0
 31 30  2  0
M  END
$$$$
