EWL.pdb
     RDKit          3D

 32 33  0  0  1  0  0  0  0  0999 V2000
    9.9151  -18.0623   20.1120 N   0  0  0  0  0  0  0  0  0  0  0  0
   10.3218  -16.6741   20.1044 C   0  0  1  0  0  0  0  0  0  0  0  0
    9.5427  -15.9355   19.0803 C   0  0  0  0  0  0  0  0  0  0  0  0
    9.9124  -16.2413   17.6637 C   0  0  0  0  0  0  0  0  0  0  0  0
    9.7615  -17.6236   17.2396 C   0  0  0  0  0  0  0  0  0  0  0  0
    8.6686  -18.2283   17.3070 O   0  0  0  0  0  0  0  0  0  0  0  0
   10.0814  -16.1208   21.4859 C   0  0  0  0  0  0  0  0  0  0  0  0
   10.4625  -14.9542   21.7736 O   0  0  0  0  0  0  0  0  0  0  0  0
   10.8409  -18.3696   16.7247 O   0  0  0  0  0  0  0  0  0  0  0  0
    9.4302  -16.8783   22.4807 N   0  0  0  0  0  0  0  0  0  0  0  0
    9.0859  -16.4590   23.7834 C   0  0  1  0  0  0  0  0  0  0  0  0
    7.7849  -16.8556   24.3485 C   0  0  0  0  0  0  0  0  0  0  0  0
    6.9426  -15.7496   24.8566 C   0  0  0  0  0  0  0  0  0  0  0  0
    5.7028  -15.8458   25.4772 C   0  0  0  0  0  0  0  0  0  0  0  0
    5.2787  -14.6132   25.8120 N   0  0  0  0  0  0  0  0  0  0  0  0
    6.1995  -13.7167   25.4304 C   0  0  0  0  0  0  0  0  0  0  0  0
    6.2424  -12.3399   25.5351 C   0  0  0  0  0  0  0  0  0  0  0  0
    7.3537  -11.6736   25.0267 C   0  0  0  0  0  0  0  0  0  0  0  0
    8.3880  -12.3596   24.4331 C   0  0  0  0  0  0  0  0  0  0  0  0
    8.3137  -13.7185   24.3463 C   0  0  0  0  0  0  0  0  0  0  0  0
    7.2248  -14.4076   24.8421 C   0  0  0  0  0  0  0  0  0  0  0  0
   10.1976  -16.6474   24.7951 C   0  0  0  0  0  0  0  0  0  0  0  0
   11.2889  -17.2228   24.4734 O   0  0  0  0  0  0  0  0  0  0  0  0
    9.3999  -14.0807   29.5327 C   0  0  0  0  0  0  0  0  0  0  0  0
    9.9896  -14.5035   28.1523 C   0  0  1  0  0  0  0  0  0  0  0  0
   10.8433  -13.2882   27.7627 C   0  0  0  0  0  0  0  0  0  0  0  0
   10.8039  -15.7208   28.3239 C   0  0  0  0  0  0  0  0  0  0  0  0
   11.1739  -16.5230   27.1351 C   0  0  2  0  0  0  0  0  0  0  0  0
   10.1091  -16.2128   26.1222 N   0  0  0  0  0  0  0  0  0  0  0  0
   11.2972  -17.9576   27.2207 C   0  0  0  0  0  0  0  0  0  0  0  0
   12.2920  -18.4778   27.8389 O   0  0  0  0  0  0  0  0  0  0  0  0
   10.4014  -18.8448   26.6823 O   0  0  0  0  0  0  0  0  0  0  0  0
  2  3  1  0
  2  1  1  1
  3  4  1  0
  4  5  1  0
  5  9  1  0
  6  5  2  0
  7  2  1  0
  8  7  2  0
 10  7  1  0
 11 10  1  0
 12 13  1  0
 11 12  1  1
 13 14  2  0
 14 15  1  0
 16 17  2  0
 16 15  1  0
 18 17  1  0
 19 18  2  0
 20 19  1  0
 20 21  2  0
 21 13  1  0
 21 16  1  0
 22 29  1  0
 22 11  1  0
 23 22  2  0
 25 24  1  1
 25 27  1  0
 26 25  1  0
 28 27  1  1
 28 29  1  0
 28 30  1  0
 30 32  1  0
 31 30  2  0
M  END
$$$$
