EWL.pdb
     RDKit          3D

 32 33  0  0  1  0  0  0  0  0999 V2000
   11.0463  -18.5479   20.6009 N   0  0  0  0  0  0  0  0  0  0  0  0
   12.0085  -17.5544   21.0244 C   0  0  1  0  0  0  0  0  0  0  0  0
   12.2715  -16.6125   19.9086 C   0  0  0  0  0  0  0  0  0  0  0  0
   13.3547  -17.0351   18.9677 C   0  0  0  0  0  0  0  0  0  0  0  0
   12.9488  -17.8636   17.8441 C   0  0  0  0  0  0  0  0  0  0  0  0
   12.5780  -17.3763   16.7535 O   0  0  0  0  0  0  0  0  0  0  0  0
   11.4327  -16.8435   22.2225 C   0  0  0  0  0  0  0  0  0  0  0  0
   12.0434  -15.8637   22.7287 O   0  0  0  0  0  0  0  0  0  0  0  0
   12.9485  -19.2713   17.9151 O   0  0  0  0  0  0  0  0  0  0  0  0
   10.2114  -17.2444   22.8015 N   0  0  0  0  0  0  0  0  0  0  0  0
    9.5610  -16.6619   23.9101 C   0  0  1  0  0  0  0  0  0  0  0  0
    8.0938  -16.5334   23.8999 C   0  0  0  0  0  0  0  0  0  0  0  0
    7.5712  -15.1696   23.6600 C   0  0  0  0  0  0  0  0  0  0  0  0
    7.4146  -14.5256   22.4384 C   0  0  0  0  0  0  0  0  0  0  0  0
    6.8851  -13.3058   22.6458 N   0  0  0  0  0  0  0  0  0  0  0  0
    6.6917  -13.1324   23.9610 C   0  0  0  0  0  0  0  0  0  0  0  0
    6.1867  -12.0697   24.6847 C   0  0  0  0  0  0  0  0  0  0  0  0
    6.1164  -12.1883   26.0698 C   0  0  0  0  0  0  0  0  0  0  0  0
    6.5368  -13.3306   26.7110 C   0  0  0  0  0  0  0  0  0  0  0  0
    7.0300  -14.3610   25.9663 C   0  0  0  0  0  0  0  0  0  0  0  0
    7.1114  -14.2735   24.5907 C   0  0  0  0  0  0  0  0  0  0  0  0
   10.0513  -17.1846   25.2447 C   0  0  0  0  0  0  0  0  0  0  0  0
   10.6767  -18.2925   25.3274 O   0  0  0  0  0  0  0  0  0  0  0  0
    9.6605  -13.6092   29.4275 C   0  0  0  0  0  0  0  0  0  0  0  0
   10.3005  -14.5247   28.3394 C   0  0  1  0  0  0  0  0  0  0  0  0
   11.7751  -14.0975   28.3627 C   0  0  0  0  0  0  0  0  0  0  0  0
   10.1262  -15.9365   28.7280 C   0  0  0  0  0  0  0  0  0  0  0  0
   10.4312  -17.0045   27.7482 C   0  0  2  0  0  0  0  0  0  0  0  0
    9.8587  -16.5050   26.4526 N   0  0  0  0  0  0  0  0  0  0  0  0
    9.9558  -18.3512   27.9509 C   0  0  0  0  0  0  0  0  0  0  0  0
   10.4471  -19.0674   28.8932 O   0  0  0  0  0  0  0  0  0  0  0  0
    8.9799  -18.9491   27.1961 O   0  0  0  0  0  0  0  0  0  0  0  0
  2  3  1  0
  2  1  1  6
  3  4  1  0
  4  5  1  0
  5  9  1  0
  6  5  2  0
  7  2  1  0
  8  7  2  0
 10  7  1  0
 11 10  1  0
 12 13  1  0
 11 12  1  6
 13 14  2  0
 14 15  1  0
 16 17  2  0
 16 15  1  0
 18 17  1  0
 19 18  2  0
 20 19  1  0
 20 21  2  0
 21 13  1  0
 21 16  1  0
 22 29  1  0
 22 11  1  0
 23 22  2  0
 25 24  1  1
 25 27  1  0
 26 25  1  0
 28 27  1  1
 28 29  1  0
 28 30  1  0
 30 32  1  0
 31 30  2  0
M  END
$$$$
