EWL.pdb
     RDKit          3D

 32 33  0  0  1  0  0  0  0  0999 V2000
   10.1696  -19.0201   20.9070 N   0  0  0  0  0  0  0  0  0  0  0  0
   11.3161  -18.1404   20.8440 C   0  0  1  0  0  0  0  0  0  0  0  0
   11.5206  -17.6930   19.4442 C   0  0  0  0  0  0  0  0  0  0  0  0
   11.9130  -18.7732   18.4870 C   0  0  0  0  0  0  0  0  0  0  0  0
   12.2960  -18.3462   17.1511 C   0  0  0  0  0  0  0  0  0  0  0  0
   12.3728  -17.1395   16.8311 O   0  0  0  0  0  0  0  0  0  0  0  0
   11.0481  -16.9753   21.7622 C   0  0  0  0  0  0  0  0  0  0  0  0
   11.8577  -16.0103   21.8102 O   0  0  0  0  0  0  0  0  0  0  0  0
   12.6055  -19.2689   16.1316 O   0  0  0  0  0  0  0  0  0  0  0  0
    9.9001  -16.9290   22.5792 N   0  0  0  0  0  0  0  0  0  0  0  0
    9.5131  -15.8868   23.4483 C   0  0  1  0  0  0  0  0  0  0  0  0
    8.0835  -15.5648   23.5967 C   0  0  0  0  0  0  0  0  0  0  0  0
    7.3409  -15.3475   22.3349 C   0  0  0  0  0  0  0  0  0  0  0  0
    6.3707  -16.1677   21.7714 C   0  0  0  0  0  0  0  0  0  0  0  0
    5.9209  -15.6047   20.6347 N   0  0  0  0  0  0  0  0  0  0  0  0
    6.5652  -14.4457   20.4377 C   0  0  0  0  0  0  0  0  0  0  0  0
    6.4774  -13.5034   19.4315 C   0  0  0  0  0  0  0  0  0  0  0  0
    7.3008  -12.3834   19.5021 C   0  0  0  0  0  0  0  0  0  0  0  0
    8.1832  -12.2103   20.5434 C   0  0  0  0  0  0  0  0  0  0  0  0
    8.2444  -13.1598   21.5203 C   0  0  0  0  0  0  0  0  0  0  0  0
    7.4398  -14.2811   21.4783 C   0  0  0  0  0  0  0  0  0  0  0  0
   10.2021  -15.9337   24.7965 C   0  0  0  0  0  0  0  0  0  0  0  0
   11.4229  -15.5887   24.9235 O   0  0  0  0  0  0  0  0  0  0  0  0
    8.8844  -12.8545   27.8168 C   0  0  0  0  0  0  0  0  0  0  0  0
   10.0367  -13.8256   27.4155 C   0  0  1  0  0  0  0  0  0  0  0  0
   11.2730  -13.1573   28.0338 C   0  0  0  0  0  0  0  0  0  0  0  0
    9.7763  -15.1555   27.9970 C   0  0  0  0  0  0  0  0  0  0  0  0
   10.2674  -16.3650   27.2973 C   0  0  2  0  0  0  0  0  0  0  0  0
    9.5634  -16.3476   25.9707 N   0  0  0  0  0  0  0  0  0  0  0  0
   10.0905  -17.6753   27.8739 C   0  0  0  0  0  0  0  0  0  0  0  0
   10.6720  -17.9722   28.9766 O   0  0  0  0  0  0  0  0  0  0  0  0
    9.3169  -18.6646   27.3240 O   0  0  0  0  0  0  0  0  0  0  0  0
  2  3  1  0
  2  1  1  6
  3  4  1  0
  4  5  1  0
  5  9  1  0
  6  5  2  0
  7  2  1  0
  8  7  2  0
 10  7  1  0
 11 10  1  0
 12 13  1  0
 11 12  1  1
 13 14  2  0
 14 15  1  0
 16 17  2  0
 16 15  1  0
 18 17  1  0
 19 18  2  0
 20 19  1  0
 20 21  2  0
 21 13  1  0
 21 16  1  0
 22 29  1  0
 22 11  1  0
 23 22  2  0
 25 24  1  1
 25 27  1  0
 26 25  1  0
 28 27  1  1
 28 29  1  0
 28 30  1  0
 30 32  1  0
 31 30  2  0
M  END
$$$$
