EWL.pdb
     RDKit          3D

 32 33  0  0  1  0  0  0  0  0999 V2000
   10.5141  -18.1858   18.7645 N   0  0  0  0  0  0  0  0  0  0  0  0
   11.4244  -17.9851   19.8707 C   0  0  1  0  0  0  0  0  0  0  0  0
   12.7162  -17.4630   19.3605 C   0  0  0  0  0  0  0  0  0  0  0  0
   13.3777  -18.3167   18.3258 C   0  0  0  0  0  0  0  0  0  0  0  0
   14.6912  -17.8864   17.8753 C   0  0  0  0  0  0  0  0  0  0  0  0
   15.1372  -16.7418   18.1109 O   0  0  0  0  0  0  0  0  0  0  0  0
   10.7756  -17.0153   20.8251 C   0  0  0  0  0  0  0  0  0  0  0  0
   10.7367  -15.7864   20.5469 O   0  0  0  0  0  0  0  0  0  0  0  0
   15.5454  -18.7355   17.1431 O   0  0  0  0  0  0  0  0  0  0  0  0
   10.1986  -17.4474   22.0368 N   0  0  0  0  0  0  0  0  0  0  0  0
    9.4876  -16.6635   22.9703 C   0  0  1  0  0  0  0  0  0  0  0  0
    8.0166  -16.7310   22.9969 C   0  0  0  0  0  0  0  0  0  0  0  0
    7.3226  -16.0336   21.8911 C   0  0  0  0  0  0  0  0  0  0  0  0
    6.2999  -16.5260   21.0891 C   0  0  0  0  0  0  0  0  0  0  0  0
    5.9237  -15.5728   20.2166 N   0  0  0  0  0  0  0  0  0  0  0  0
    6.6667  -14.4760   20.4221 C   0  0  0  0  0  0  0  0  0  0  0  0
    6.6799  -13.2432   19.7989 C   0  0  0  0  0  0  0  0  0  0  0  0
    7.5922  -12.2896   20.2413 C   0  0  0  0  0  0  0  0  0  0  0  0
    8.4629  -12.5584   21.2720 C   0  0  0  0  0  0  0  0  0  0  0  0
    8.4232  -13.7856   21.8655 C   0  0  0  0  0  0  0  0  0  0  0  0
    7.5289  -14.7518   21.4494 C   0  0  0  0  0  0  0  0  0  0  0  0
   10.0595  -16.7216   24.3718 C   0  0  0  0  0  0  0  0  0  0  0  0
   10.8844  -17.6337   24.7081 O   0  0  0  0  0  0  0  0  0  0  0  0
   11.5128  -14.2244   29.1524 C   0  0  0  0  0  0  0  0  0  0  0  0
   10.0091  -14.5638   28.9175 C   0  0  1  0  0  0  0  0  0  0  0  0
    9.2910  -13.3354   29.4941 C   0  0  0  0  0  0  0  0  0  0  0  0
    9.7661  -14.7199   27.4714 C   0  0  0  0  0  0  0  0  0  0  0  0
   10.2191  -15.9520   26.7856 C   0  0  2  0  0  0  0  0  0  0  0  0
    9.7325  -15.8001   25.3728 N   0  0  0  0  0  0  0  0  0  0  0  0
    9.8098  -17.2527   27.2561 C   0  0  0  0  0  0  0  0  0  0  0  0
   10.5885  -17.9325   28.0136 O   0  0  0  0  0  0  0  0  0  0  0  0
    8.6089  -17.8417   26.9554 O   0  0  0  0  0  0  0  0  0  0  0  0
  2  3  1  0
  2  1  1  6
  3  4  1  0
  4  5  1  0
  5  9  1  0
  6  5  2  0
  7  2  1  0
  8  7  2  0
 10  7  1  0
 11 10  1  0
 12 13  1  0
 11 12  1  1
 13 14  2  0
 14 15  1  0
 16 17  2  0
 16 15  1  0
 18 17  1  0
 19 18  2  0
 20 19  1  0
 20 21  2  0
 21 13  1  0
 21 16  1  0
 22 29  1  0
 22 11  1  0
 23 22  2  0
 25 24  1  6
 25 27  1  0
 26 25  1  0
 28 27  1  1
 28 29  1  0
 28 30  1  0
 30 32  1  0
 31 30  2  0
M  END
$$$$
