EWL.pdb
     RDKit          3D

 32 33  0  0  1  0  0  0  0  0999 V2000
    9.8208  -16.4353   19.1550 N   0  0  0  0  0  0  0  0  0  0  0  0
   10.6092  -17.1256   20.1521 C   0  0  1  0  0  0  0  0  0  0  0  0
   12.0485  -17.0152   19.8089 C   0  0  0  0  0  0  0  0  0  0  0  0
   12.9659  -17.8293   20.6647 C   0  0  0  0  0  0  0  0  0  0  0  0
   14.3893  -17.6862   20.4059 C   0  0  0  0  0  0  0  0  0  0  0  0
   15.2349  -17.6385   21.3263 O   0  0  0  0  0  0  0  0  0  0  0  0
   10.3104  -16.4935   21.4876 C   0  0  0  0  0  0  0  0  0  0  0  0
   10.7925  -15.3644   21.7736 O   0  0  0  0  0  0  0  0  0  0  0  0
   14.9053  -17.5921   19.0976 O   0  0  0  0  0  0  0  0  0  0  0  0
    9.4925  -17.1346   22.4405 N   0  0  0  0  0  0  0  0  0  0  0  0
    9.0866  -16.6294   23.6940 C   0  0  1  0  0  0  0  0  0  0  0  0
    7.7513  -16.9730   24.2120 C   0  0  0  0  0  0  0  0  0  0  0  0
    7.0450  -15.8901   24.9327 C   0  0  0  0  0  0  0  0  0  0  0  0
    6.0930  -16.0219   25.9366 C   0  0  0  0  0  0  0  0  0  0  0  0
    5.7126  -14.7986   26.3491 N   0  0  0  0  0  0  0  0  0  0  0  0
    6.3838  -13.8738   25.6479 C   0  0  0  0  0  0  0  0  0  0  0  0
    6.3551  -12.4931   25.6818 C   0  0  0  0  0  0  0  0  0  0  0  0
    7.1806  -11.7941   24.8059 C   0  0  0  0  0  0  0  0  0  0  0  0
    8.0074  -12.4522   23.9249 C   0  0  0  0  0  0  0  0  0  0  0  0
    8.0112  -13.8159   23.9178 C   0  0  0  0  0  0  0  0  0  0  0  0
    7.2043  -14.5371   24.7753 C   0  0  0  0  0  0  0  0  0  0  0  0
   10.1401  -16.7673   24.7738 C   0  0  0  0  0  0  0  0  0  0  0  0
   11.1967  -17.4535   24.5779 O   0  0  0  0  0  0  0  0  0  0  0  0
    9.4428  -14.0526   26.6983 C   0  0  0  0  0  0  0  0  0  0  0  0
   10.3839  -14.1783   27.9353 C   0  0  1  0  0  0  0  0  0  0  0  0
    9.6057  -13.4334   29.0293 C   0  0  0  0  0  0  0  0  0  0  0  0
   10.5707  -15.6043   28.2612 C   0  0  0  0  0  0  0  0  0  0  0  0
   10.9148  -16.5588   27.1822 C   0  0  2  0  0  0  0  0  0  0  0  0
   10.0324  -16.1652   26.0323 N   0  0  0  0  0  0  0  0  0  0  0  0
   10.7736  -17.9806   27.3805 C   0  0  0  0  0  0  0  0  0  0  0  0
   11.6722  -18.6284   28.0250 O   0  0  0  0  0  0  0  0  0  0  0  0
    9.7148  -18.7238   26.9266 O   0  0  0  0  0  0  0  0  0  0  0  0
  2  3  1  0
  2  1  1  6
  3  4  1  0
  4  5  1  0
  5  9  1  0
  6  5  2  0
  7  2  1  0
  8  7  2  0
 10  7  1  0
 11 10  1  0
 12 13  1  0
 11 12  1  1
 13 14  2  0
 14 15  1  0
 16 17  2  0
 16 15  1  0
 18 17  1  0
 19 18  2  0
 20 19  1  0
 20 21  2  0
 21 13  1  0
 21 16  1  0
 22 29  1  0
 22 11  1  0
 23 22  2  0
 25 24  1  6
 25 27  1  0
 26 25  1  0
 28 27  1  1
 28 29  1  0
 28 30  1  0
 30 32  1  0
 31 30  2  0
M  END
$$$$
