EWL.pdb
     RDKit          3D

 32 33  0  0  1  0  0  0  0  0999 V2000
   11.9210  -16.6908   19.1397 N   0  0  0  0  0  0  0  0  0  0  0  0
   10.9283  -17.4486   19.8697 C   0  0  1  0  0  0  0  0  0  0  0  0
   11.5054  -18.7515   20.2830 C   0  0  0  0  0  0  0  0  0  0  0  0
   12.9988  -18.8225   20.2409 C   0  0  0  0  0  0  0  0  0  0  0  0
   13.5957  -20.1026   20.5851 C   0  0  0  0  0  0  0  0  0  0  0  0
   14.8331  -20.2846   20.5867 O   0  0  0  0  0  0  0  0  0  0  0  0
   10.5127  -16.6258   21.0625 C   0  0  0  0  0  0  0  0  0  0  0  0
   11.2491  -15.6870   21.4692 O   0  0  0  0  0  0  0  0  0  0  0  0
   12.8139  -21.2207   20.9393 O   0  0  0  0  0  0  0  0  0  0  0  0
    9.3051  -16.8754   21.7459 N   0  0  0  0  0  0  0  0  0  0  0  0
    8.8040  -16.1871   22.8713 C   0  0  1  0  0  0  0  0  0  0  0  0
    7.3547  -16.1928   23.1338 C   0  0  0  0  0  0  0  0  0  0  0  0
    6.9186  -15.4533   24.3395 C   0  0  0  0  0  0  0  0  0  0  0  0
    6.2606  -15.9622   25.4530 C   0  0  0  0  0  0  0  0  0  0  0  0
    6.0638  -14.9711   26.3420 N   0  0  0  0  0  0  0  0  0  0  0  0
    6.5706  -13.8334   25.8459 C   0  0  0  0  0  0  0  0  0  0  0  0
    6.6202  -12.5497   26.3535 C   0  0  0  0  0  0  0  0  0  0  0  0
    7.2181  -11.5574   25.5821 C   0  0  0  0  0  0  0  0  0  0  0  0
    7.7489  -11.8379   24.3441 C   0  0  0  0  0  0  0  0  0  0  0  0
    7.6833  -13.1160   23.8730 C   0  0  0  0  0  0  0  0  0  0  0  0
    7.0972  -14.1219   24.6154 C   0  0  0  0  0  0  0  0  0  0  0  0
    9.5870  -16.4495   24.1413 C   0  0  0  0  0  0  0  0  0  0  0  0
    9.9656  -17.6275   24.4489 O   0  0  0  0  0  0  0  0  0  0  0  0
   10.3405  -13.2146   29.2761 C   0  0  0  0  0  0  0  0  0  0  0  0
   10.7464  -14.5689   28.6183 C   0  0  1  0  0  0  0  0  0  0  0  0
   10.0355  -15.6018   29.5044 C   0  0  0  0  0  0  0  0  0  0  0  0
   10.2561  -14.6003   27.2279 C   0  0  0  0  0  0  0  0  0  0  0  0
   10.6046  -15.7476   26.3585 C   0  0  2  0  0  0  0  0  0  0  0  0
    9.9434  -15.4424   25.0449 N   0  0  0  0  0  0  0  0  0  0  0  0
   10.2446  -17.0937   26.7317 C   0  0  0  0  0  0  0  0  0  0  0  0
   11.1442  -17.9012   27.1571 O   0  0  0  0  0  0  0  0  0  0  0  0
    8.9711  -17.5983   26.6743 O   0  0  0  0  0  0  0  0  0  0  0  0
  2  3  1  0
  2  1  1  1
  3  4  1  0
  4  5  1  0
  5  9  1  0
  6  5  2  0
  7  2  1  0
  8  7  2  0
 10  7  1  0
 11 10  1  0
 12 13  1  0
 11 12  1  1
 13 14  2  0
 14 15  1  0
 16 17  2  0
 16 15  1  0
 18 17  1  0
 19 18  2  0
 20 19  1  0
 20 21  2  0
 21 13  1  0
 21 16  1  0
 22 29  1  0
 22 11  1  0
 23 22  2  0
 25 24  1  1
 25 27  1  0
 26 25  1  0
 28 27  1  1
 28 29  1  0
 28 30  1  0
 30 32  1  0
 31 30  2  0
M  END
$$$$
