EWL.pdb
     RDKit          3D

 32 33  0  0  1  0  0  0  0  0999 V2000
   12.2501  -16.9717   19.9179 N   0  0  0  0  0  0  0  0  0  0  0  0
   11.3568  -17.7999   20.6980 C   0  0  1  0  0  0  0  0  0  0  0  0
   12.0102  -19.1011   20.9832 C   0  0  0  0  0  0  0  0  0  0  0  0
   13.4994  -19.1035   20.8445 C   0  0  0  0  0  0  0  0  0  0  0  0
   14.1884  -20.3051   21.2861 C   0  0  0  0  0  0  0  0  0  0  0  0
   15.0827  -20.2801   22.1602 O   0  0  0  0  0  0  0  0  0  0  0  0
   11.0353  -17.0537   21.9678 C   0  0  0  0  0  0  0  0  0  0  0  0
   11.8553  -16.2168   22.4329 O   0  0  0  0  0  0  0  0  0  0  0  0
   13.8898  -21.5759   20.7547 O   0  0  0  0  0  0  0  0  0  0  0  0
    9.8253  -17.2634   22.6603 N   0  0  0  0  0  0  0  0  0  0  0  0
    9.3636  -16.5708   23.7999 C   0  0  1  0  0  0  0  0  0  0  0  0
    7.9230  -16.3017   23.9457 C   0  0  0  0  0  0  0  0  0  0  0  0
    7.5244  -14.8789   23.8578 C   0  0  0  0  0  0  0  0  0  0  0  0
    7.6184  -14.0400   22.7537 C   0  0  0  0  0  0  0  0  0  0  0  0
    7.1271  -12.8289   23.0751 N   0  0  0  0  0  0  0  0  0  0  0  0
    6.7164  -12.8496   24.3511 C   0  0  0  0  0  0  0  0  0  0  0  0
    6.1506  -11.8765   25.1517 C   0  0  0  0  0  0  0  0  0  0  0  0
    5.8331  -12.2056   26.4663 C   0  0  0  0  0  0  0  0  0  0  0  0
    6.0731  -13.4651   26.9651 C   0  0  0  0  0  0  0  0  0  0  0  0
    6.6327  -14.4023   26.1476 C   0  0  0  0  0  0  0  0  0  0  0  0
    6.9578  -14.1061   24.8388 C   0  0  0  0  0  0  0  0  0  0  0  0
    9.9559  -17.0772   25.0989 C   0  0  0  0  0  0  0  0  0  0  0  0
   10.4686  -18.2418   25.1781 O   0  0  0  0  0  0  0  0  0  0  0  0
   10.1288  -13.3909   29.2090 C   0  0  0  0  0  0  0  0  0  0  0  0
   10.4712  -14.3648   28.0402 C   0  0  1  0  0  0  0  0  0  0  0  0
   11.9031  -13.9553   27.6673 C   0  0  0  0  0  0  0  0  0  0  0  0
   10.4015  -15.7543   28.5290 C   0  0  0  0  0  0  0  0  0  0  0  0
   10.5221  -16.8723   27.5650 C   0  0  2  0  0  0  0  0  0  0  0  0
    9.9832  -16.3211   26.2760 N   0  0  0  0  0  0  0  0  0  0  0  0
    9.8697  -18.1349   27.8122 C   0  0  0  0  0  0  0  0  0  0  0  0
   10.3052  -18.9092   28.7359 O   0  0  0  0  0  0  0  0  0  0  0  0
    8.7769  -18.5897   27.1206 O   0  0  0  0  0  0  0  0  0  0  0  0
  2  3  1  0
  2  1  1  6
  3  4  1  0
  4  5  1  0
  5  9  1  0
  6  5  2  0
  7  2  1  0
  8  7  2  0
 10  7  1  0
 11 10  1  0
 12 13  1  0
 11 12  1  1
 13 14  2  0
 14 15  1  0
 16 17  2  0
 16 15  1  0
 18 17  1  0
 19 18  2  0
 20 19  1  0
 20 21  2  0
 21 13  1  0
 21 16  1  0
 22 29  1  0
 22 11  1  0
 23 22  2  0
 25 24  1  1
 25 27  1  0
 26 25  1  0
 28 27  1  1
 28 29  1  0
 28 30  1  0
 30 32  1  0
 31 30  2  0
M  END
$$$$
