CDC.pdb
     RDKit          3D

 21 20  0  0  1  0  0  0  0  0999 V2000
    7.9257  -14.6469   17.2916 N   0  0  0  0  0  0  0  0  0  0  0  0
    8.8938  -13.8836   18.0059 C   0  0  1  0  0  0  0  0  0  0  0  0
    8.2732  -13.1996   19.2161 C   0  0  0  0  0  0  0  0  0  0  0  0
    7.0593  -11.9862   18.6788 S   0  0  0  0  0  0  0  0  0  0  0  0
   10.0413  -14.6795   18.5167 C   0  0  0  0  0  0  0  0  0  0  0  0
    9.7708  -15.8590   18.8890 O   0  0  0  0  0  0  0  0  0  0  0  0
   11.3464  -14.2072   18.6014 N   0  0  0  0  0  0  0  0  0  0  0  0
   12.4954  -15.0741   19.0257 C   0  0  1  0  0  0  0  0  0  0  0  0
   13.7255  -14.4055   18.5037 C   0  0  0  0  0  0  0  0  0  0  0  0
   15.0185  -14.9961   18.7198 C   0  0  0  0  0  0  0  0  0  0  0  0
   15.2335  -16.0454   19.3452 O   0  0  0  0  0  0  0  0  0  0  0  0
   12.4646  -15.0784   20.5141 C   0  0  0  0  0  0  0  0  0  0  0  0
   12.6190  -13.9526   21.1126 O   0  0  0  0  0  0  0  0  0  0  0  0
   16.1981  -14.3801   18.2020 O   0  0  0  0  0  0  0  0  0  0  0  0
   12.2778  -16.1857   21.3496 N   0  0  0  0  0  0  0  0  0  0  0  0
   12.3688  -16.0347   22.8042 C   0  0  1  0  0  0  0  0  0  0  0  0
   11.0753  -16.5772   23.3981 C   0  0  0  0  0  0  0  0  0  0  0  0
   11.1982  -16.6480   25.2068 S   0  0  0  0  0  0  0  0  0  0  0  0
   13.5543  -16.7361   23.3096 C   0  0  0  0  0  0  0  0  0  0  0  0
   13.9983  -16.4749   24.5964 O   0  0  0  0  0  0  0  0  0  0  0  0
   14.1955  -17.5716   22.6269 O   0  0  0  0  0  0  0  0  0  0  0  0
  2  1  1  1
  2  3  1  0
  4  3  1  0
  5  2  1  0
  6  5  2  0
  7  5  1  0
  8 12  1  0
  8  7  1  0
  8  9  1  1
 10  9  1  0
 11 10  2  0
 12 15  1  0
 13 12  2  0
 14 10  1  0
 15 16  1  0
 16 17  1  1
 16 19  1  0
 17 18  1  0
 19 21  2  0
 19 20  1  0
M  END
$$$$
