CDC.pdb
     RDKit          3D

 21 20  0  0  1  0  0  0  0  0999 V2000
    7.4949  -15.0750   18.4462 N   0  0  0  0  0  0  0  0  0  0  0  0
    8.3993  -14.5520   19.4149 C   0  0  1  0  0  0  0  0  0  0  0  0
    8.1470  -13.0713   19.6623 C   0  0  0  0  0  0  0  0  0  0  0  0
    8.6923  -12.1111   18.2427 S   0  0  0  0  0  0  0  0  0  0  0  0
    8.3225  -15.2178   20.7423 C   0  0  0  0  0  0  0  0  0  0  0  0
    7.1803  -15.6504   21.0759 O   0  0  0  0  0  0  0  0  0  0  0  0
    9.4043  -15.3812   21.6007 N   0  0  0  0  0  0  0  0  0  0  0  0
    9.3121  -16.1587   22.8807 C   0  0  1  0  0  0  0  0  0  0  0  0
   10.6227  -16.8613   23.0266 C   0  0  0  0  0  0  0  0  0  0  0  0
   10.8333  -17.7853   24.1080 C   0  0  0  0  0  0  0  0  0  0  0  0
   10.4814  -17.6072   25.2838 O   0  0  0  0  0  0  0  0  0  0  0  0
    9.1130  -15.1439   23.9516 C   0  0  0  0  0  0  0  0  0  0  0  0
    9.9985  -14.2203   24.0637 O   0  0  0  0  0  0  0  0  0  0  0  0
   11.4955  -19.0306   23.8855 O   0  0  0  0  0  0  0  0  0  0  0  0
    8.0514  -15.0761   24.8611 N   0  0  0  0  0  0  0  0  0  0  0  0
    8.0374  -14.0447   25.9017 C   0  0  1  0  0  0  0  0  0  0  0  0
    6.6111  -13.5197   26.0007 C   0  0  0  0  0  0  0  0  0  0  0  0
    6.5158  -12.1951   27.2368 S   0  0  0  0  0  0  0  0  0  0  0  0
    8.5176  -14.6037   27.1705 C   0  0  0  0  0  0  0  0  0  0  0  0
    8.9589  -13.7448   28.1650 O   0  0  0  0  0  0  0  0  0  0  0  0
    8.5498  -15.8364   27.4043 O   0  0  0  0  0  0  0  0  0  0  0  0
  2  1  1  6
  2  3  1  0
  4  3  1  0
  5  2  1  0
  6  5  2  0
  7  5  1  0
  8 12  1  0
  8  7  1  0
  8  9  1  1
 10  9  1  0
 11 10  2  0
 12 15  1  0
 13 12  2  0
 14 10  1  0
 15 16  1  0
 16 17  1  1
 16 19  1  0
 17 18  1  0
 19 21  2  0
 19 20  1  0
M  END
$$$$
