CDC.pdb
     RDKit          3D

 21 20  0  0  1  0  0  0  0  0999 V2000
    8.8191  -18.0325   15.8258 N   0  0  0  0  0  0  0  0  0  0  0  0
    9.6755  -18.6219   16.8000 C   0  0  1  0  0  0  0  0  0  0  0  0
   11.0299  -17.9279   16.8359 C   0  0  0  0  0  0  0  0  0  0  0  0
   12.0754  -18.5554   15.5139 S   0  0  0  0  0  0  0  0  0  0  0  0
    9.1433  -18.5747   18.1878 C   0  0  0  0  0  0  0  0  0  0  0  0
    8.0804  -17.9054   18.3472 O   0  0  0  0  0  0  0  0  0  0  0  0
    9.7352  -19.2065   19.2759 N   0  0  0  0  0  0  0  0  0  0  0  0
    9.1128  -19.2208   20.6411 C   0  0  1  0  0  0  0  0  0  0  0  0
    9.2434  -20.6251   21.1344 C   0  0  0  0  0  0  0  0  0  0  0  0
    8.8040  -20.9719   22.4588 C   0  0  0  0  0  0  0  0  0  0  0  0
    8.3218  -20.1828   23.2853 O   0  0  0  0  0  0  0  0  0  0  0  0
    9.9215  -18.2759   21.4593 C   0  0  0  0  0  0  0  0  0  0  0  0
   10.8616  -17.6336   20.8651 O   0  0  0  0  0  0  0  0  0  0  0  0
    8.9001  -22.3159   22.9313 O   0  0  0  0  0  0  0  0  0  0  0  0
    9.7687  -17.9983   22.8226 N   0  0  0  0  0  0  0  0  0  0  0  0
   10.1221  -16.6777   23.3497 C   0  0  1  0  0  0  0  0  0  0  0  0
    8.8445  -15.8494   23.3914 C   0  0  0  0  0  0  0  0  0  0  0  0
    9.2026  -14.1761   23.9941 S   0  0  0  0  0  0  0  0  0  0  0  0
   10.7446  -16.8136   24.6713 C   0  0  0  0  0  0  0  0  0  0  0  0
   11.8709  -16.0628   24.9698 O   0  0  0  0  0  0  0  0  0  0  0  0
   10.3035  -17.5856   25.5572 O   0  0  0  0  0  0  0  0  0  0  0  0
  2  1  1  6
  2  3  1  0
  4  3  1  0
  5  2  1  0
  6  5  2  0
  7  5  1  0
  8 12  1  0
  8  7  1  0
  8  9  1  1
 10  9  1  0
 11 10  2  0
 12 15  1  0
 13 12  2  0
 14 10  1  0
 15 16  1  0
 16 17  1  1
 16 19  1  0
 17 18  1  0
 19 21  2  0
 19 20  1  0
M  END
$$$$
