CDC.pdb
     RDKit          3D

 21 20  0  0  1  0  0  0  0  0999 V2000
    7.5284  -15.5887   18.1666 N   0  0  0  0  0  0  0  0  0  0  0  0
    8.1316  -14.7622   19.1581 C   0  0  1  0  0  0  0  0  0  0  0  0
    7.4271  -13.4164   19.2575 C   0  0  0  0  0  0  0  0  0  0  0  0
    8.2568  -12.3784   20.4694 S   0  0  0  0  0  0  0  0  0  0  0  0
    8.1191  -15.3441   20.5265 C   0  0  0  0  0  0  0  0  0  0  0  0
    6.9799  -15.6592   20.9803 O   0  0  0  0  0  0  0  0  0  0  0  0
    9.2556  -15.5502   21.3007 N   0  0  0  0  0  0  0  0  0  0  0  0
    9.2004  -16.1408   22.6790 C   0  0  1  0  0  0  0  0  0  0  0  0
   10.5553  -16.7187   22.9298 C   0  0  0  0  0  0  0  0  0  0  0  0
   10.7423  -17.7092   23.9552 C   0  0  0  0  0  0  0  0  0  0  0  0
   11.8376  -18.1373   24.3491 O   0  0  0  0  0  0  0  0  0  0  0  0
    8.9145  -15.0001   23.5917 C   0  0  0  0  0  0  0  0  0  0  0  0
    9.6029  -13.9276   23.4324 O   0  0  0  0  0  0  0  0  0  0  0  0
    9.6211  -18.2934   24.6189 O   0  0  0  0  0  0  0  0  0  0  0  0
    7.9619  -14.9594   24.6164 N   0  0  0  0  0  0  0  0  0  0  0  0
    7.8836  -13.7961   25.5038 C   0  0  1  0  0  0  0  0  0  0  0  0
    6.4281  -13.3487   25.5375 C   0  0  0  0  0  0  0  0  0  0  0  0
    6.2037  -12.0403   26.7741 S   0  0  0  0  0  0  0  0  0  0  0  0
    8.3934  -14.1436   26.8350 C   0  0  0  0  0  0  0  0  0  0  0  0
    8.6936  -13.1296   27.7311 O   0  0  0  0  0  0  0  0  0  0  0  0
    8.5743  -15.3280   27.2086 O   0  0  0  0  0  0  0  0  0  0  0  0
  2  1  1  6
  2  3  1  0
  4  3  1  0
  5  2  1  0
  6  5  2  0
  7  5  1  0
  8 12  1  0
  8  7  1  0
  8  9  1  1
 10  9  1  0
 11 10  2  0
 12 15  1  0
 13 12  2  0
 14 10  1  0
 15 16  1  0
 16 17  1  1
 16 19  1  0
 17 18  1  0
 19 21  2  0
 19 20  1  0
M  END
$$$$
