CDC.pdb
     RDKit          3D

 21 20  0  0  1  0  0  0  0  0999 V2000
    7.5143  -15.0275   18.4212 N   0  0  0  0  0  0  0  0  0  0  0  0
    8.3393  -14.4753   19.4431 C   0  0  1  0  0  0  0  0  0  0  0  0
    8.0789  -12.9855   19.6172 C   0  0  0  0  0  0  0  0  0  0  0  0
    8.8730  -12.0656   18.2914 S   0  0  0  0  0  0  0  0  0  0  0  0
    8.1474  -15.0936   20.7818 C   0  0  0  0  0  0  0  0  0  0  0  0
    6.9551  -15.3943   21.0835 O   0  0  0  0  0  0  0  0  0  0  0  0
    9.1761  -15.3471   21.6825 N   0  0  0  0  0  0  0  0  0  0  0  0
    8.9531  -16.0486   22.9900 C   0  0  1  0  0  0  0  0  0  0  0  0
   10.1752  -16.8762   23.2227 C   0  0  0  0  0  0  0  0  0  0  0  0
   10.3381  -17.5975   24.4559 C   0  0  0  0  0  0  0  0  0  0  0  0
    9.4247  -17.8932   25.2411 O   0  0  0  0  0  0  0  0  0  0  0  0
    8.8219  -14.9685   24.0061 C   0  0  0  0  0  0  0  0  0  0  0  0
    9.7701  -14.1052   24.0778 O   0  0  0  0  0  0  0  0  0  0  0  0
   11.6282  -18.0416   24.8769 O   0  0  0  0  0  0  0  0  0  0  0  0
    7.7640  -14.7792   24.9027 N   0  0  0  0  0  0  0  0  0  0  0  0
    7.8287  -13.7113   25.9037 C   0  0  1  0  0  0  0  0  0  0  0  0
    6.4244  -13.1391   26.0477 C   0  0  0  0  0  0  0  0  0  0  0  0
    6.3763  -11.9311   27.4005 S   0  0  0  0  0  0  0  0  0  0  0  0
    8.3507  -14.2391   27.1693 C   0  0  0  0  0  0  0  0  0  0  0  0
    8.9270  -13.3675   28.0801 O   0  0  0  0  0  0  0  0  0  0  0  0
    8.3016  -15.4558   27.4732 O   0  0  0  0  0  0  0  0  0  0  0  0
  2  1  1  6
  2  3  1  0
  4  3  1  0
  5  2  1  0
  6  5  2  0
  7  5  1  0
  8 12  1  0
  8  7  1  0
  8  9  1  1
 10  9  1  0
 11 10  2  0
 12 15  1  0
 13 12  2  0
 14 10  1  0
 15 16  1  0
 16 17  1  1
 16 19  1  0
 17 18  1  0
 19 21  2  0
 19 20  1  0
M  END
$$$$
