CDC.pdb
     RDKit          3D

 21 20  0  0  1  0  0  0  0  0999 V2000
    6.8569  -16.2347   20.6927 N   0  0  0  0  0  0  0  0  0  0  0  0
    8.0730  -15.5553   20.9919 C   0  0  1  0  0  0  0  0  0  0  0  0
    7.8194  -14.0920   21.3260 C   0  0  0  0  0  0  0  0  0  0  0  0
    6.8196  -13.9679   22.8159 S   0  0  0  0  0  0  0  0  0  0  0  0
    8.8217  -16.1247   22.1436 C   0  0  0  0  0  0  0  0  0  0  0  0
    8.1196  -16.6991   23.0269 O   0  0  0  0  0  0  0  0  0  0  0  0
   10.2030  -16.0583   22.2901 N   0  0  0  0  0  0  0  0  0  0  0  0
   10.9337  -16.7523   23.4018 C   0  0  1  0  0  0  0  0  0  0  0  0
   12.3518  -16.8709   22.9464 C   0  0  0  0  0  0  0  0  0  0  0  0
   12.7513  -17.9595   22.0962 C   0  0  0  0  0  0  0  0  0  0  0  0
   12.3294  -19.1232   22.1731 O   0  0  0  0  0  0  0  0  0  0  0  0
   10.8114  -15.8540   24.5827 C   0  0  0  0  0  0  0  0  0  0  0  0
   10.7701  -14.5893   24.3625 O   0  0  0  0  0  0  0  0  0  0  0  0
   13.7092  -17.7598   21.0562 O   0  0  0  0  0  0  0  0  0  0  0  0
   10.7291  -16.2358   25.9267 N   0  0  0  0  0  0  0  0  0  0  0  0
   10.5371  -15.2246   26.9695 C   0  0  1  0  0  0  0  0  0  0  0  0
    9.1879  -14.5641   26.7177 C   0  0  0  0  0  0  0  0  0  0  0  0
    8.7700  -13.4514   28.0883 S   0  0  0  0  0  0  0  0  0  0  0  0
   10.6165  -15.8479   28.2954 C   0  0  0  0  0  0  0  0  0  0  0  0
   10.5417  -17.2281   28.4004 O   0  0  0  0  0  0  0  0  0  0  0  0
   10.7502  -15.1863   29.3535 O   0  0  0  0  0  0  0  0  0  0  0  0
  2  1  1  1
  2  3  1  0
  4  3  1  0
  5  2  1  0
  6  5  2  0
  7  5  1  0
  8 12  1  0
  8  7  1  0
  8  9  1  6
 10  9  1  0
 11 10  2  0
 12 15  1  0
 13 12  2  0
 14 10  1  0
 15 16  1  0
 16 17  1  6
 16 19  1  0
 17 18  1  0
 19 21  2  0
 19 20  1  0
M  END
$$$$
