CDC.pdb
     RDKit          3D

 21 20  0  0  1  0  0  0  0  0999 V2000
    7.0762  -15.1373   18.9813 N   0  0  0  0  0  0  0  0  0  0  0  0
    8.0423  -14.5697   19.8613 C   0  0  1  0  0  0  0  0  0  0  0  0
    7.8327  -13.0700   20.0169 C   0  0  0  0  0  0  0  0  0  0  0  0
    8.3626  -12.2189   18.5238 S   0  0  0  0  0  0  0  0  0  0  0  0
    8.0254  -15.1402   21.2344 C   0  0  0  0  0  0  0  0  0  0  0  0
    6.8792  -15.3643   21.7234 O   0  0  0  0  0  0  0  0  0  0  0  0
    9.1650  -15.4277   21.9774 N   0  0  0  0  0  0  0  0  0  0  0  0
    9.1109  -16.1167   23.3093 C   0  0  1  0  0  0  0  0  0  0  0  0
   10.2934  -17.0294   23.3449 C   0  0  0  0  0  0  0  0  0  0  0  0
   10.6656  -17.6859   24.5688 C   0  0  0  0  0  0  0  0  0  0  0  0
    9.8779  -18.2053   25.3737 O   0  0  0  0  0  0  0  0  0  0  0  0
    9.2246  -15.0339   24.3246 C   0  0  0  0  0  0  0  0  0  0  0  0
   10.2700  -14.2890   24.2809 O   0  0  0  0  0  0  0  0  0  0  0  0
   12.0365  -17.7861   24.9557 O   0  0  0  0  0  0  0  0  0  0  0  0
    8.3054  -14.7256   25.3341 N   0  0  0  0  0  0  0  0  0  0  0  0
    8.6349  -13.7217   26.3491 C   0  0  1  0  0  0  0  0  0  0  0  0
    7.5710  -12.6343   26.2735 C   0  0  0  0  0  0  0  0  0  0  0  0
    5.9506  -13.3110   26.7294 S   0  0  0  0  0  0  0  0  0  0  0  0
    8.7013  -14.3488   27.6739 C   0  0  0  0  0  0  0  0  0  0  0  0
    9.1534  -13.6054   28.7531 O   0  0  0  0  0  0  0  0  0  0  0  0
    8.3655  -15.5399   27.8827 O   0  0  0  0  0  0  0  0  0  0  0  0
  2  1  1  6
  2  3  1  0
  4  3  1  0
  5  2  1  0
  6  5  2  0
  7  5  1  0
  8 12  1  0
  8  7  1  0
  8  9  1  6
 10  9  1  0
 11 10  2  0
 12 15  1  0
 13 12  2  0
 14 10  1  0
 15 16  1  0
 16 17  1  1
 16 19  1  0
 17 18  1  0
 19 21  2  0
 19 20  1  0
M  END
$$$$
