CDC.pdb
     RDKit          3D

 21 20  0  0  1  0  0  0  0  0999 V2000
    7.3498  -13.7763   18.0856 N   0  0  0  0  0  0  0  0  0  0  0  0
    8.6132  -13.2413   18.4697 C   0  0  1  0  0  0  0  0  0  0  0  0
    8.4742  -12.2935   19.6528 C   0  0  0  0  0  0  0  0  0  0  0  0
    7.6499  -13.1304   21.0148 S   0  0  0  0  0  0  0  0  0  0  0  0
    9.6132  -14.2668   18.8693 C   0  0  0  0  0  0  0  0  0  0  0  0
    9.1480  -15.4123   19.1423 O   0  0  0  0  0  0  0  0  0  0  0  0
   10.9817  -14.0355   18.9538 N   0  0  0  0  0  0  0  0  0  0  0  0
   11.9763  -15.1355   19.1824 C   0  0  1  0  0  0  0  0  0  0  0  0
   13.2602  -14.6547   18.5881 C   0  0  0  0  0  0  0  0  0  0  0  0
   14.3601  -15.5631   18.4072 C   0  0  0  0  0  0  0  0  0  0  0  0
   14.7394  -16.4057   19.2344 O   0  0  0  0  0  0  0  0  0  0  0  0
   12.0784  -15.2816   20.6604 C   0  0  0  0  0  0  0  0  0  0  0  0
   12.5666  -14.2939   21.3205 O   0  0  0  0  0  0  0  0  0  0  0  0
   15.1254  -15.5518   17.2017 O   0  0  0  0  0  0  0  0  0  0  0  0
   11.6916  -16.3873   21.4264 N   0  0  0  0  0  0  0  0  0  0  0  0
   11.8996  -16.3880   22.8767 C   0  0  1  0  0  0  0  0  0  0  0  0
   10.5810  -16.7914   23.5237 C   0  0  0  0  0  0  0  0  0  0  0  0
   10.7879  -16.9526   25.3189 S   0  0  0  0  0  0  0  0  0  0  0  0
   12.9964  -17.2973   23.2272 C   0  0  0  0  0  0  0  0  0  0  0  0
   13.7186  -17.0712   24.3886 O   0  0  0  0  0  0  0  0  0  0  0  0
   13.3186  -18.2824   22.5195 O   0  0  0  0  0  0  0  0  0  0  0  0
  2  1  1  1
  2  3  1  0
  4  3  1  0
  5  2  1  0
  6  5  2  0
  7  5  1  0
  8 12  1  0
  8  7  1  0
  8  9  1  1
 10  9  1  0
 11 10  2  0
 12 15  1  0
 13 12  2  0
 14 10  1  0
 15 16  1  0
 16 17  1  1
 16 19  1  0
 17 18  1  0
 19 21  2  0
 19 20  1  0
M  END
$$$$
