CDC.pdb
     RDKit          3D

 21 20  0  0  1  0  0  0  0  0999 V2000
    7.2165  -15.6000   20.3825 N   0  0  0  0  0  0  0  0  0  0  0  0
    8.4544  -15.0948   20.8748 C   0  0  1  0  0  0  0  0  0  0  0  0
    8.3440  -13.6199   21.2350 C   0  0  0  0  0  0  0  0  0  0  0  0
    8.0731  -12.6445   19.7484 S   0  0  0  0  0  0  0  0  0  0  0  0
    8.9544  -15.7874   22.0920 C   0  0  0  0  0  0  0  0  0  0  0  0
    8.0714  -16.1309   22.9318 O   0  0  0  0  0  0  0  0  0  0  0  0
   10.2940  -16.0646   22.3411 N   0  0  0  0  0  0  0  0  0  0  0  0
   10.7460  -16.8957   23.5058 C   0  0  1  0  0  0  0  0  0  0  0  0
   12.1045  -17.4015   23.1434 C   0  0  0  0  0  0  0  0  0  0  0  0
   12.2584  -18.3879   22.1086 C   0  0  0  0  0  0  0  0  0  0  0  0
   11.5972  -19.4324   22.0078 O   0  0  0  0  0  0  0  0  0  0  0  0
   10.8005  -15.9634   24.6652 C   0  0  0  0  0  0  0  0  0  0  0  0
   11.5688  -14.9391   24.5654 O   0  0  0  0  0  0  0  0  0  0  0  0
   13.2328  -18.2194   21.0786 O   0  0  0  0  0  0  0  0  0  0  0  0
   10.0945  -16.0736   25.8687 N   0  0  0  0  0  0  0  0  0  0  0  0
   10.3832  -15.1614   26.9784 C   0  0  1  0  0  0  0  0  0  0  0  0
    9.1562  -14.2800   27.1717 C   0  0  0  0  0  0  0  0  0  0  0  0
    9.3940  -13.1790   28.5940 S   0  0  0  0  0  0  0  0  0  0  0  0
   10.7184  -15.9267   28.1845 C   0  0  0  0  0  0  0  0  0  0  0  0
   11.4370  -15.3125   29.1983 O   0  0  0  0  0  0  0  0  0  0  0  0
   10.3835  -17.1253   28.3471 O   0  0  0  0  0  0  0  0  0  0  0  0
  2  1  1  1
  2  3  1  0
  4  3  1  0
  5  2  1  0
  6  5  2  0
  7  5  1  0
  8 12  1  0
  8  7  1  0
  8  9  1  6
 10  9  1  0
 11 10  2  0
 12 15  1  0
 13 12  2  0
 14 10  1  0
 15 16  1  0
 16 17  1  1
 16 19  1  0
 17 18  1  0
 19 21  2  0
 19 20  1  0
M  END
$$$$
