MKM.pdb
     RDKit          3D

 26 25  0  0  1  0  0  0  0  0999 V2000
    8.6187  -11.8280   19.0317 C   0  0  0  0  0  0  0  0  0  0  0  0
    8.8434  -13.1291   17.7913 S   0  0  0  0  0  0  0  0  0  0  0  0
    7.6656  -14.5091   18.0842 C   0  0  0  0  0  0  0  0  0  0  0  0
    7.8596  -14.9346   19.5014 C   0  0  0  0  0  0  0  0  0  0  0  0
    7.9039  -16.4031   19.7474 C   0  0  2  0  0  0  0  0  0  0  0  0
    7.2071  -17.0074   18.5861 N   0  0  0  0  0  0  0  0  0  0  0  0
    7.2087  -16.8825   20.9454 C   0  0  0  0  0  0  0  0  0  0  0  0
    6.0832  -16.3698   21.2916 O   0  0  0  0  0  0  0  0  0  0  0  0
    7.6494  -17.9084   21.8234 N   0  0  0  0  0  0  0  0  0  0  0  0
    7.1036  -18.0768   23.1633 C   0  0  1  0  0  0  0  0  0  0  0  0
    7.3993  -19.5467   23.4833 C   0  0  0  0  0  0  0  0  0  0  0  0
    6.9876  -19.9874   24.8338 C   0  0  0  0  0  0  0  0  0  0  0  0
    7.3527  -21.4826   24.9249 C   0  0  0  0  0  0  0  0  0  0  0  0
    6.9369  -22.0328   26.2722 C   0  0  0  0  0  0  0  0  0  0  0  0
    7.2480  -23.4504   26.2701 N   0  0  0  0  0  0  0  0  0  0  0  0
    7.6830  -17.1927   24.1684 C   0  0  0  0  0  0  0  0  0  0  0  0
    8.9486  -17.0104   24.1312 O   0  0  0  0  0  0  0  0  0  0  0  0
    5.7626  -11.6167   27.3728 C   0  0  0  0  0  0  0  0  0  0  0  0
    7.4555  -12.2067   27.4695 S   0  0  0  0  0  0  0  0  0  0  0  0
    7.4778  -13.9727   27.9011 C   0  0  0  0  0  0  0  0  0  0  0  0
    6.7247  -14.7595   26.8264 C   0  0  0  0  0  0  0  0  0  0  0  0
    7.7210  -15.6267   26.0797 C   0  0  2  0  0  0  0  0  0  0  0  0
    6.9988  -16.5088   25.1860 N   0  0  0  0  0  0  0  0  0  0  0  0
    8.5457  -16.4260   26.9904 C   0  0  0  0  0  0  0  0  0  0  0  0
    9.7190  -15.8976   27.5432 O   0  0  0  0  0  0  0  0  0  0  0  0
    8.2152  -17.5930   27.2887 O   0  0  0  0  0  0  0  0  0  0  0  0
  2  1  1  0
  3  2  1  0
  4  3  1  0
  4  5  1  0
  5  7  1  0
  5  6  1  6
  7  8  2  0
  9 10  1  0
  9  7  1  0
 10 11  1  1
 11 12  1  0
 12 13  1  0
 13 14  1  0
 14 15  1  0
 16 17  2  0
 16 10  1  0
 18 19  1  0
 19 20  1  0
 20 21  1  0
 22 21  1  1
 22 24  1  0
 22 23  1  0
 23 16  1  0
 24 25  1  0
 26 24  2  0
M  END
$$$$
