MKM.pdb
     RDKit          3D

 26 25  0  0  1  0  0  0  0  0999 V2000
    8.5978  -11.6953   20.4196 C   0  0  0  0  0  0  0  0  0  0  0  0
    7.8794  -12.1952   18.8336 S   0  0  0  0  0  0  0  0  0  0  0  0
    8.0233  -14.0131   18.6053 C   0  0  0  0  0  0  0  0  0  0  0  0
    8.0309  -14.6099   19.9730 C   0  0  0  0  0  0  0  0  0  0  0  0
    8.2864  -16.0755   20.0501 C   0  0  2  0  0  0  0  0  0  0  0  0
    7.1422  -16.7016   19.3443 N   0  0  0  0  0  0  0  0  0  0  0  0
    8.3168  -16.6600   21.3938 C   0  0  0  0  0  0  0  0  0  0  0  0
    7.2261  -16.8423   22.0471 O   0  0  0  0  0  0  0  0  0  0  0  0
    9.4720  -17.0790   22.1062 N   0  0  0  0  0  0  0  0  0  0  0  0
    9.4163  -17.5196   23.4934 C   0  0  1  0  0  0  0  0  0  0  0  0
   10.4876  -18.6144   23.5597 C   0  0  0  0  0  0  0  0  0  0  0  0
   10.6542  -19.2462   24.8867 C   0  0  0  0  0  0  0  0  0  0  0  0
   11.7916  -20.2753   24.7298 C   0  0  0  0  0  0  0  0  0  0  0  0
   12.0010  -21.0137   26.0342 C   0  0  0  0  0  0  0  0  0  0  0  0
   13.1611  -20.4252   26.6778 N   0  0  0  0  0  0  0  0  0  0  0  0
    9.6752  -16.4702   24.4727 C   0  0  0  0  0  0  0  0  0  0  0  0
   10.7946  -15.8560   24.3939 O   0  0  0  0  0  0  0  0  0  0  0  0
    7.0051  -10.7543   26.6247 C   0  0  0  0  0  0  0  0  0  0  0  0
    6.3374  -12.3094   26.0254 S   0  0  0  0  0  0  0  0  0  0  0  0
    7.6901  -13.4467   25.5984 C   0  0  0  0  0  0  0  0  0  0  0  0
    8.1523  -14.1714   26.8641 C   0  0  0  0  0  0  0  0  0  0  0  0
    9.2921  -15.1026   26.4950 C   0  0  2  0  0  0  0  0  0  0  0  0
    8.8223  -16.0512   25.5064 N   0  0  0  0  0  0  0  0  0  0  0  0
    9.8084  -15.8286   27.6589 C   0  0  0  0  0  0  0  0  0  0  0  0
   10.5385  -15.1627   28.6514 O   0  0  0  0  0  0  0  0  0  0  0  0
    9.6055  -17.0545   27.7848 O   0  0  0  0  0  0  0  0  0  0  0  0
  2  1  1  0
  3  2  1  0
  4  3  1  0
  4  5  1  0
  5  7  1  0
  5  6  1  6
  7  8  2  0
  9 10  1  0
  9  7  1  0
 10 11  1  6
 11 12  1  0
 12 13  1  0
 13 14  1  0
 14 15  1  0
 16 17  2  0
 16 10  1  0
 18 19  1  0
 19 20  1  0
 20 21  1  0
 22 21  1  1
 22 24  1  0
 22 23  1  0
 23 16  1  0
 24 25  1  0
 26 24  2  0
M  END
$$$$
