MKM.pdb
     RDKit          3D

 26 25  0  0  1  0  0  0  0  0999 V2000
    5.7975  -11.6861   25.9493 C   0  0  0  0  0  0  0  0  0  0  0  0
    6.7439  -12.7163   27.1002 S   0  0  0  0  0  0  0  0  0  0  0  0
    6.1272  -14.4474   27.0723 C   0  0  0  0  0  0  0  0  0  0  0  0
    5.9235  -14.7986   25.6363 C   0  0  0  0  0  0  0  0  0  0  0  0
    6.5680  -16.0577   25.1690 C   0  0  2  0  0  0  0  0  0  0  0  0
    7.8247  -16.1577   25.9499 N   0  0  0  0  0  0  0  0  0  0  0  0
    6.9516  -16.1055   23.7552 C   0  0  0  0  0  0  0  0  0  0  0  0
    6.7360  -17.1633   23.0595 O   0  0  0  0  0  0  0  0  0  0  0  0
    7.5667  -15.0631   23.0117 N   0  0  0  0  0  0  0  0  0  0  0  0
    8.7177  -15.2938   22.1494 C   0  0  1  0  0  0  0  0  0  0  0  0
    8.7607  -14.0364   21.2734 C   0  0  0  0  0  0  0  0  0  0  0  0
    7.7234  -13.9722   20.2209 C   0  0  0  0  0  0  0  0  0  0  0  0
    8.4614  -13.6149   18.9152 C   0  0  0  0  0  0  0  0  0  0  0  0
    7.4781  -13.5634   17.7658 C   0  0  0  0  0  0  0  0  0  0  0  0
    8.2511  -13.4006   16.5482 N   0  0  0  0  0  0  0  0  0  0  0  0
    9.9776  -15.4835   22.8595 C   0  0  0  0  0  0  0  0  0  0  0  0
   10.7162  -14.4533   23.0314 O   0  0  0  0  0  0  0  0  0  0  0  0
   10.8766  -13.4378   27.9017 C   0  0  0  0  0  0  0  0  0  0  0  0
   11.1946  -15.1708   28.2466 S   0  0  0  0  0  0  0  0  0  0  0  0
   11.9029  -15.9797   26.7804 C   0  0  0  0  0  0  0  0  0  0  0  0
   10.8391  -16.0452   25.6827 C   0  0  0  0  0  0  0  0  0  0  0  0
   11.4642  -16.6602   24.4445 C   0  0  2  0  0  0  0  0  0  0  0  0
   10.4781  -16.6861   23.3838 N   0  0  0  0  0  0  0  0  0  0  0  0
   11.9491  -18.0213   24.6911 C   0  0  0  0  0  0  0  0  0  0  0  0
   13.1887  -18.2389   25.3055 O   0  0  0  0  0  0  0  0  0  0  0  0
   11.2639  -19.0105   24.3567 O   0  0  0  0  0  0  0  0  0  0  0  0
  2  1  1  0
  3  2  1  0
  4  3  1  0
  4  5  1  0
  5  7  1  0
  5  6  1  1
  7  8  2  0
  9 10  1  0
  9  7  1  0
 10 11  1  6
 11 12  1  0
 12 13  1  0
 13 14  1  0
 14 15  1  0
 16 17  2  0
 16 10  1  0
 18 19  1  0
 19 20  1  0
 20 21  1  0
 22 21  1  1
 22 24  1  0
 22 23  1  0
 23 16  1  0
 24 25  1  0
 26 24  2  0
M  END
$$$$
