MKM.pdb
     RDKit          3D

 26 25  0  0  1  0  0  0  0  0999 V2000
    7.6168  -11.6083   27.1564 C   0  0  0  0  0  0  0  0  0  0  0  0
    5.8573  -11.9858   27.3642 S   0  0  0  0  0  0  0  0  0  0  0  0
    5.5682  -13.7968   27.2454 C   0  0  0  0  0  0  0  0  0  0  0  0
    6.5883  -14.3243   26.2924 C   0  0  0  0  0  0  0  0  0  0  0  0
    6.0757  -15.1841   25.1891 C   0  0  2  0  0  0  0  0  0  0  0  0
    5.6649  -16.4479   25.8475 N   0  0  0  0  0  0  0  0  0  0  0  0
    7.0411  -15.5512   24.1493 C   0  0  0  0  0  0  0  0  0  0  0  0
    7.9426  -16.4355   24.3836 O   0  0  0  0  0  0  0  0  0  0  0  0
    7.1064  -15.0214   22.8329 N   0  0  0  0  0  0  0  0  0  0  0  0
    8.2771  -15.1867   21.9823 C   0  0  1  0  0  0  0  0  0  0  0  0
    8.0996  -14.0949   20.9207 C   0  0  0  0  0  0  0  0  0  0  0  0
    9.2290  -13.9518   19.9764 C   0  0  0  0  0  0  0  0  0  0  0  0
    8.5984  -13.7465   18.5845 C   0  0  0  0  0  0  0  0  0  0  0  0
    9.6863  -13.6319   17.5385 C   0  0  0  0  0  0  0  0  0  0  0  0
    9.0446  -13.2511   16.2936 N   0  0  0  0  0  0  0  0  0  0  0  0
    9.5532  -15.0450   22.6744 C   0  0  0  0  0  0  0  0  0  0  0  0
    9.8290  -13.8981   23.1695 O   0  0  0  0  0  0  0  0  0  0  0  0
   10.7551  -13.0927   27.2217 C   0  0  0  0  0  0  0  0  0  0  0  0
   11.9660  -14.3850   27.5164 S   0  0  0  0  0  0  0  0  0  0  0  0
   12.4670  -15.1424   25.9413 C   0  0  0  0  0  0  0  0  0  0  0  0
   11.2355  -15.2961   25.0464 C   0  0  0  0  0  0  0  0  0  0  0  0
   11.6919  -15.7688   23.6787 C   0  0  2  0  0  0  0  0  0  0  0  0
   10.5265  -16.0394   22.8621 N   0  0  0  0  0  0  0  0  0  0  0  0
   12.5187  -16.9762   23.7615 C   0  0  0  0  0  0  0  0  0  0  0  0
   13.8362  -16.9104   24.2322 O   0  0  0  0  0  0  0  0  0  0  0  0
   12.0614  -18.0850   23.4132 O   0  0  0  0  0  0  0  0  0  0  0  0
  2  1  1  0
  3  2  1  0
  4  3  1  0
  4  5  1  0
  5  7  1  0
  5  6  1  1
  7  8  2  0
  9 10  1  0
  9  7  1  0
 10 11  1  6
 11 12  1  0
 12 13  1  0
 13 14  1  0
 14 15  1  0
 16 17  2  0
 16 10  1  0
 18 19  1  0
 19 20  1  0
 20 21  1  0
 22 21  1  1
 22 24  1  0
 22 23  1  0
 23 16  1  0
 24 25  1  0
 26 24  2  0
M  END
$$$$
