MKM.pdb
     RDKit          3D

 26 25  0  0  1  0  0  0  0  0999 V2000
    7.3715  -12.5673   19.2209 C   0  0  0  0  0  0  0  0  0  0  0  0
    8.2901  -13.8040   18.2680 S   0  0  0  0  0  0  0  0  0  0  0  0
    7.5057  -15.4578   18.4329 C   0  0  0  0  0  0  0  0  0  0  0  0
    7.4352  -15.7464   19.8954 C   0  0  0  0  0  0  0  0  0  0  0  0
    6.8345  -17.0542   20.2799 C   0  0  2  0  0  0  0  0  0  0  0  0
    5.5129  -17.0812   19.6076 N   0  0  0  0  0  0  0  0  0  0  0  0
    6.5788  -17.2568   21.7087 C   0  0  0  0  0  0  0  0  0  0  0  0
    5.6665  -16.5793   22.3074 O   0  0  0  0  0  0  0  0  0  0  0  0
    7.2526  -18.1669   22.5662 N   0  0  0  0  0  0  0  0  0  0  0  0
    7.1070  -18.1279   24.0150 C   0  0  1  0  0  0  0  0  0  0  0  0
    7.5971  -19.5118   24.4568 C   0  0  0  0  0  0  0  0  0  0  0  0
    7.6112  -19.7323   25.9193 C   0  0  0  0  0  0  0  0  0  0  0  0
    8.1153  -21.1743   26.1289 C   0  0  0  0  0  0  0  0  0  0  0  0
    8.0534  -21.5326   27.5981 C   0  0  0  0  0  0  0  0  0  0  0  0
    8.3615  -22.9467   27.7071 N   0  0  0  0  0  0  0  0  0  0  0  0
    7.8638  -17.0676   24.6710 C   0  0  0  0  0  0  0  0  0  0  0  0
    9.0546  -16.8524   24.2561 O   0  0  0  0  0  0  0  0  0  0  0  0
    5.9594  -10.9841   26.0031 C   0  0  0  0  0  0  0  0  0  0  0  0
    6.9810  -11.4083   27.4172 S   0  0  0  0  0  0  0  0  0  0  0  0
    8.0945  -12.7817   26.9938 C   0  0  0  0  0  0  0  0  0  0  0  0
    7.2637  -13.9569   26.4744 C   0  0  0  0  0  0  0  0  0  0  0  0
    8.2074  -15.0875   26.1091 C   0  0  2  0  0  0  0  0  0  0  0  0
    7.4267  -16.2442   25.7210 N   0  0  0  0  0  0  0  0  0  0  0  0
    9.0908  -15.4481   27.2217 C   0  0  0  0  0  0  0  0  0  0  0  0
   10.2127  -14.6671   27.5265 O   0  0  0  0  0  0  0  0  0  0  0  0
    8.8573  -16.4590   27.9170 O   0  0  0  0  0  0  0  0  0  0  0  0
  2  1  1  0
  3  2  1  0
  4  3  1  0
  4  5  1  0
  5  7  1  0
  5  6  1  6
  7  8  2  0
  9 10  1  0
  9  7  1  0
 10 11  1  1
 11 12  1  0
 12 13  1  0
 13 14  1  0
 14 15  1  0
 16 17  2  0
 16 10  1  0
 18 19  1  0
 19 20  1  0
 20 21  1  0
 22 21  1  1
 22 24  1  0
 22 23  1  0
 23 16  1  0
 24 25  1  0
 26 24  2  0
M  END
$$$$
