MKM.pdb
     RDKit          3D

 26 25  0  0  1  0  0  0  0  0999 V2000
    5.3484  -12.1362   26.4099 C   0  0  0  0  0  0  0  0  0  0  0  0
    7.0315  -12.6367   26.8551 S   0  0  0  0  0  0  0  0  0  0  0  0
    7.2039  -14.4644   26.7705 C   0  0  0  0  0  0  0  0  0  0  0  0
    5.9220  -14.9828   26.2093 C   0  0  0  0  0  0  0  0  0  0  0  0
    6.0229  -16.1932   25.3468 C   0  0  2  0  0  0  0  0  0  0  0  0
    6.3559  -17.2995   26.2765 N   0  0  0  0  0  0  0  0  0  0  0  0
    7.0739  -16.1774   24.3254 C   0  0  0  0  0  0  0  0  0  0  0  0
    8.1220  -16.9072   24.4612 O   0  0  0  0  0  0  0  0  0  0  0  0
    7.0771  -15.4116   23.1291 N   0  0  0  0  0  0  0  0  0  0  0  0
    8.2195  -15.3793   22.2260 C   0  0  1  0  0  0  0  0  0  0  0  0
    7.8389  -14.2931   21.2133 C   0  0  0  0  0  0  0  0  0  0  0  0
    8.7498  -14.1723   20.0543 C   0  0  0  0  0  0  0  0  0  0  0  0
    8.2016  -13.0122   19.1993 C   0  0  0  0  0  0  0  0  0  0  0  0
    9.0703  -12.8201   17.9750 C   0  0  0  0  0  0  0  0  0  0  0  0
    9.1859  -14.1127   17.3251 N   0  0  0  0  0  0  0  0  0  0  0  0
    9.4921  -15.0750   22.8705 C   0  0  0  0  0  0  0  0  0  0  0  0
    9.7052  -13.8589   23.2054 O   0  0  0  0  0  0  0  0  0  0  0  0
    9.9142  -16.0733   28.6703 C   0  0  0  0  0  0  0  0  0  0  0  0
   10.9061  -14.6772   28.1317 S   0  0  0  0  0  0  0  0  0  0  0  0
   11.7770  -15.0878   26.5895 C   0  0  0  0  0  0  0  0  0  0  0  0
   10.7483  -15.3184   25.4806 C   0  0  0  0  0  0  0  0  0  0  0  0
   11.4896  -15.6617   24.2020 C   0  0  2  0  0  0  0  0  0  0  0  0
   10.5239  -15.9790   23.1699 N   0  0  0  0  0  0  0  0  0  0  0  0
   12.4000  -16.7963   24.3815 C   0  0  0  0  0  0  0  0  0  0  0  0
   12.1169  -18.0395   23.8019 O   0  0  0  0  0  0  0  0  0  0  0  0
   13.4444  -16.6729   25.0553 O   0  0  0  0  0  0  0  0  0  0  0  0
  2  1  1  0
  3  2  1  0
  4  3  1  0
  4  5  1  0
  5  7  1  0
  5  6  1  1
  7  8  2  0
  9 10  1  0
  9  7  1  0
 10 11  1  6
 11 12  1  0
 12 13  1  0
 13 14  1  0
 14 15  1  0
 16 17  2  0
 16 10  1  0
 18 19  1  0
 19 20  1  0
 20 21  1  0
 22 21  1  1
 22 24  1  0
 22 23  1  0
 23 16  1  0
 24 25  1  0
 26 24  2  0
M  END
$$$$
