MKM.pdb
     RDKit          3D

 26 25  0  0  1  0  0  0  0  0999 V2000
    8.7056  -11.7284   19.8310 C   0  0  0  0  0  0  0  0  0  0  0  0
    8.2844  -12.3429   18.1798 S   0  0  0  0  0  0  0  0  0  0  0  0
    8.4359  -14.1733   18.1151 C   0  0  0  0  0  0  0  0  0  0  0  0
    8.4768  -14.6426   19.5311 C   0  0  0  0  0  0  0  0  0  0  0  0
    8.6450  -16.1088   19.7338 C   0  0  2  0  0  0  0  0  0  0  0  0
    7.5066  -16.7284   19.0132 N   0  0  0  0  0  0  0  0  0  0  0  0
    8.5710  -16.5862   21.1176 C   0  0  0  0  0  0  0  0  0  0  0  0
    7.4604  -16.5416   21.7611 O   0  0  0  0  0  0  0  0  0  0  0  0
    9.6386  -17.1284   21.8818 N   0  0  0  0  0  0  0  0  0  0  0  0
    9.4728  -17.5468   23.2671 C   0  0  1  0  0  0  0  0  0  0  0  0
   10.4958  -18.6786   23.4192 C   0  0  0  0  0  0  0  0  0  0  0  0
   10.1085  -19.9600   22.7901 C   0  0  0  0  0  0  0  0  0  0  0  0
   11.3056  -20.9115   22.9870 C   0  0  0  0  0  0  0  0  0  0  0  0
   11.0091  -22.2507   22.3473 C   0  0  0  0  0  0  0  0  0  0  0  0
   12.1713  -23.0936   22.5607 N   0  0  0  0  0  0  0  0  0  0  0  0
    9.7036  -16.4935   24.2493 C   0  0  0  0  0  0  0  0  0  0  0  0
   10.7045  -15.7203   24.0576 O   0  0  0  0  0  0  0  0  0  0  0  0
    5.9820  -11.8611   26.2464 C   0  0  0  0  0  0  0  0  0  0  0  0
    6.8728  -12.1628   27.7757 S   0  0  0  0  0  0  0  0  0  0  0  0
    8.3710  -13.1378   27.4440 C   0  0  0  0  0  0  0  0  0  0  0  0
    8.0238  -14.2769   26.4833 C   0  0  0  0  0  0  0  0  0  0  0  0
    9.2742  -15.1033   26.2467 C   0  0  2  0  0  0  0  0  0  0  0  0
    8.9401  -16.2281   25.3974 N   0  0  0  0  0  0  0  0  0  0  0  0
    9.8538  -15.5953   27.4998 C   0  0  0  0  0  0  0  0  0  0  0  0
   10.5336  -14.7270   28.3632 O   0  0  0  0  0  0  0  0  0  0  0  0
    9.7511  -16.7986   27.8184 O   0  0  0  0  0  0  0  0  0  0  0  0
  2  1  1  0
  3  2  1  0
  4  3  1  0
  4  5  1  0
  5  7  1  0
  5  6  1  6
  7  8  2  0
  9 10  1  0
  9  7  1  0
 10 11  1  1
 11 12  1  0
 12 13  1  0
 13 14  1  0
 14 15  1  0
 16 17  2  0
 16 10  1  0
 18 19  1  0
 19 20  1  0
 20 21  1  0
 22 21  1  1
 22 24  1  0
 22 23  1  0
 23 16  1  0
 24 25  1  0
 26 24  2  0
M  END
$$$$
