MKM.pdb
     RDKit          3D

 26 25  0  0  1  0  0  0  0  0999 V2000
    8.9232  -11.7127   20.2592 C   0  0  0  0  0  0  0  0  0  0  0  0
    7.6618  -12.3026   19.1005 S   0  0  0  0  0  0  0  0  0  0  0  0
    7.7232  -14.1339   18.9583 C   0  0  0  0  0  0  0  0  0  0  0  0
    7.9479  -14.6560   20.3382 C   0  0  0  0  0  0  0  0  0  0  0  0
    7.9870  -16.1381   20.4827 C   0  0  2  0  0  0  0  0  0  0  0  0
    6.6343  -16.5977   20.0852 N   0  0  0  0  0  0  0  0  0  0  0  0
    8.2210  -16.6532   21.8348 C   0  0  0  0  0  0  0  0  0  0  0  0
    7.2755  -16.6479   22.7040 O   0  0  0  0  0  0  0  0  0  0  0  0
    9.4361  -17.1937   22.3337 N   0  0  0  0  0  0  0  0  0  0  0  0
    9.6034  -17.5819   23.7276 C   0  0  1  0  0  0  0  0  0  0  0  0
   10.7820  -18.5614   23.6826 C   0  0  0  0  0  0  0  0  0  0  0  0
   11.2412  -19.0478   25.0018 C   0  0  0  0  0  0  0  0  0  0  0  0
   12.4537  -19.9584   24.7228 C   0  0  0  0  0  0  0  0  0  0  0  0
   13.0085  -20.4904   26.0266 C   0  0  0  0  0  0  0  0  0  0  0  0
   13.1487  -21.9273   25.8774 N   0  0  0  0  0  0  0  0  0  0  0  0
    9.8748  -16.4736   24.6362 C   0  0  0  0  0  0  0  0  0  0  0  0
   10.5826  -15.5065   24.1886 O   0  0  0  0  0  0  0  0  0  0  0  0
    7.3515  -11.3581   25.3242 C   0  0  0  0  0  0  0  0  0  0  0  0
    7.4671  -11.7272   27.0774 S   0  0  0  0  0  0  0  0  0  0  0  0
    8.7937  -12.9342   27.3754 C   0  0  0  0  0  0  0  0  0  0  0  0
    8.5717  -14.1530   26.4776 C   0  0  0  0  0  0  0  0  0  0  0  0
    9.7109  -15.1294   26.7034 C   0  0  2  0  0  0  0  0  0  0  0  0
    9.4402  -16.3460   25.9652 N   0  0  0  0  0  0  0  0  0  0  0  0
    9.8872  -15.4507   28.1225 C   0  0  0  0  0  0  0  0  0  0  0  0
   10.4268  -14.5089   29.0076 O   0  0  0  0  0  0  0  0  0  0  0  0
    9.5587  -16.5710   28.5663 O   0  0  0  0  0  0  0  0  0  0  0  0
  2  1  1  0
  3  2  1  0
  4  3  1  0
  4  5  1  0
  5  7  1  0
  5  6  1  1
  7  8  2  0
  9 10  1  0
  9  7  1  0
 10 11  1  6
 11 12  1  0
 12 13  1  0
 13 14  1  0
 14 15  1  0
 16 17  2  0
 16 10  1  0
 18 19  1  0
 19 20  1  0
 20 21  1  0
 22 21  1  1
 22 24  1  0
 22 23  1  0
 23 16  1  0
 24 25  1  0
 26 24  2  0
M  END
$$$$
