MKM.pdb
     RDKit          3D

 26 25  0  0  1  0  0  0  0  0999 V2000
    5.7655  -11.8230   25.1044 C   0  0  0  0  0  0  0  0  0  0  0  0
    5.9915  -12.7737   26.6298 S   0  0  0  0  0  0  0  0  0  0  0  0
    6.4557  -14.5096   26.2445 C   0  0  0  0  0  0  0  0  0  0  0  0
    5.7972  -14.8436   24.9476 C   0  0  0  0  0  0  0  0  0  0  0  0
    6.0456  -16.2131   24.4170 C   0  0  2  0  0  0  0  0  0  0  0  0
    5.8264  -17.1172   25.5718 N   0  0  0  0  0  0  0  0  0  0  0  0
    7.4002  -16.4845   23.9273 C   0  0  0  0  0  0  0  0  0  0  0  0
    8.3055  -16.9177   24.7288 O   0  0  0  0  0  0  0  0  0  0  0  0
    7.8646  -16.3216   22.5949 N   0  0  0  0  0  0  0  0  0  0  0  0
    9.2060  -16.7121   22.1826 C   0  0  1  0  0  0  0  0  0  0  0  0
    9.3002  -16.1886   20.7448 C   0  0  0  0  0  0  0  0  0  0  0  0
   10.5654  -16.5040   20.0465 C   0  0  0  0  0  0  0  0  0  0  0  0
   10.5222  -18.0156   19.7462 C   0  0  0  0  0  0  0  0  0  0  0  0
   11.7852  -18.4333   19.0243 C   0  0  0  0  0  0  0  0  0  0  0  0
   11.7007  -19.8659   18.8079 N   0  0  0  0  0  0  0  0  0  0  0  0
   10.2761  -16.1689   23.0115 C   0  0  0  0  0  0  0  0  0  0  0  0
   10.5222  -14.9178   22.9081 O   0  0  0  0  0  0  0  0  0  0  0  0
   11.1838  -13.1935   29.0133 C   0  0  0  0  0  0  0  0  0  0  0  0
   11.2351  -14.9597   28.6955 S   0  0  0  0  0  0  0  0  0  0  0  0
   12.1363  -15.2906   27.1515 C   0  0  0  0  0  0  0  0  0  0  0  0
   11.1761  -15.9129   26.1357 C   0  0  0  0  0  0  0  0  0  0  0  0
   11.9343  -16.1541   24.8437 C   0  0  2  0  0  0  0  0  0  0  0  0
   11.0777  -16.8738   23.9237 N   0  0  0  0  0  0  0  0  0  0  0  0
   13.1649  -16.9197   25.0627 C   0  0  0  0  0  0  0  0  0  0  0  0
   14.2908  -16.3158   25.6364 O   0  0  0  0  0  0  0  0  0  0  0  0
   13.2297  -18.1247   24.7405 O   0  0  0  0  0  0  0  0  0  0  0  0
  2  1  1  0
  3  2  1  0
  4  3  1  0
  4  5  1  0
  5  7  1  0
  5  6  1  1
  7  8  2  0
  9 10  1  0
  9  7  1  0
 10 11  1  6
 11 12  1  0
 12 13  1  0
 13 14  1  0
 14 15  1  0
 16 17  2  0
 16 10  1  0
 18 19  1  0
 19 20  1  0
 20 21  1  0
 22 21  1  1
 22 24  1  0
 22 23  1  0
 23 16  1  0
 24 25  1  0
 26 24  2  0
M  END
$$$$
