HFF.pdb
     RDKit          3D

 33 35  0  0  1  0  0  0  0  0999 V2000
    9.3596  -18.2494   19.5059 N   0  0  0  0  0  0  0  0  0  0  0  0
   10.6852  -17.7030   19.7632 C   0  0  1  0  0  0  0  0  0  0  0  0
   11.1050  -16.8110   18.5875 C   0  0  0  0  0  0  0  0  0  0  0  0
   11.1659  -17.5841   17.3453 C   0  0  0  0  0  0  0  0  0  0  0  0
   11.5968  -18.9030   17.2336 C   0  0  0  0  0  0  0  0  0  0  0  0
   11.5058  -19.2411   15.9361 N   0  0  0  0  0  0  0  0  0  0  0  0
   11.0368  -18.1825   15.2479 C   0  0  0  0  0  0  0  0  0  0  0  0
   10.8344  -17.1832   16.1172 N   0  0  0  0  0  0  0  0  0  0  0  0
   10.5116  -16.7517   20.9073 C   0  0  0  0  0  0  0  0  0  0  0  0
   11.4288  -16.0511   21.3461 O   0  0  0  0  0  0  0  0  0  0  0  0
    9.2357  -16.6361   21.5302 N   0  0  0  0  0  0  0  0  0  0  0  0
    9.0340  -15.9835   22.7901 C   0  0  1  0  0  0  0  0  0  0  0  0
    7.6878  -15.2962   22.8746 C   0  0  0  0  0  0  0  0  0  0  0  0
    7.5003  -14.4988   24.1059 C   0  0  0  0  0  0  0  0  0  0  0  0
    7.8940  -13.1674   24.1455 C   0  0  0  0  0  0  0  0  0  0  0  0
    7.7283  -12.3758   25.2473 C   0  0  0  0  0  0  0  0  0  0  0  0
    7.1548  -12.8974   26.3633 C   0  0  0  0  0  0  0  0  0  0  0  0
    6.7467  -14.2112   26.3800 C   0  0  0  0  0  0  0  0  0  0  0  0
    6.9208  -15.0033   25.2519 C   0  0  0  0  0  0  0  0  0  0  0  0
    9.3726  -16.7942   23.9763 C   0  0  0  0  0  0  0  0  0  0  0  0
    8.9393  -17.9928   24.1130 O   0  0  0  0  0  0  0  0  0  0  0  0
   10.1927  -16.2094   24.9659 N   0  0  0  0  0  0  0  0  0  0  0  0
   10.9524  -16.9809   25.9193 C   0  0  1  0  0  0  0  0  0  0  0  0
   11.6507  -15.9728   26.8188 C   0  0  0  0  0  0  0  0  0  0  0  0
   10.7787  -15.3420   27.7859 C   0  0  0  0  0  0  0  0  0  0  0  0
   10.0206  -14.2655   27.3721 C   0  0  0  0  0  0  0  0  0  0  0  0
    9.1461  -13.6259   28.2592 C   0  0  0  0  0  0  0  0  0  0  0  0
    9.0422  -14.0695   29.5383 C   0  0  0  0  0  0  0  0  0  0  0  0
    9.7934  -15.1567   29.9950 C   0  0  0  0  0  0  0  0  0  0  0  0
   10.6596  -15.7703   29.0721 C   0  0  0  0  0  0  0  0  0  0  0  0
   10.0889  -17.9082   26.6190 C   0  0  0  0  0  0  0  0  0  0  0  0
    8.7309  -17.9516   26.3393 O   0  0  0  0  0  0  0  0  0  0  0  0
   10.5207  -18.7120   27.5037 O   0  0  0  0  0  0  0  0  0  0  0  0
  2  1  1  6
  2  3  1  0
  4  3  1  0
  5  4  2  0
  6  7  1  0
  6  5  1  0
  7  8  2  0
  8  4  1  0
  9 11  1  0
  9  2  1  0
 10  9  2  0
 12 11  1  0
 12 13  1  1
 13 14  1  0
 14 19  1  0
 15 14  2  0
 15 16  1  0
 16 17  2  0
 17 18  1  0
 19 18  2  0
 20 12  1  0
 21 20  2  0
 22 20  1  0
 23 31  1  0
 23 22  1  0
 23 24  1  1
 25 24  1  0
 25 26  2  0
 27 26  1  0
 28 27  2  0
 29 30  2  0
 29 28  1  0
 30 25  1  0
 31 32  1  0
 33 31  2  0
M  END
$$$$
