HFF.pdb
     RDKit          3D

 33 35  0  0  1  0  0  0  0  0999 V2000
   11.7141  -14.0599   19.0682 N   0  0  0  0  0  0  0  0  0  0  0  0
   12.1301  -15.2314   19.8274 C   0  0  1  0  0  0  0  0  0  0  0  0
   13.6282  -15.1282   20.1424 C   0  0  0  0  0  0  0  0  0  0  0  0
   14.4294  -15.3777   18.9423 C   0  0  0  0  0  0  0  0  0  0  0  0
   14.7275  -16.6310   18.4149 C   0  0  0  0  0  0  0  0  0  0  0  0
   15.4834  -16.4313   17.3218 N   0  0  0  0  0  0  0  0  0  0  0  0
   15.6608  -15.1062   17.1581 C   0  0  0  0  0  0  0  0  0  0  0  0
   15.0144  -14.4786   18.1498 N   0  0  0  0  0  0  0  0  0  0  0  0
   11.4606  -15.1032   21.1613 C   0  0  0  0  0  0  0  0  0  0  0  0
   11.5264  -14.0823   21.8528 O   0  0  0  0  0  0  0  0  0  0  0  0
   10.7081  -16.1997   21.6718 N   0  0  0  0  0  0  0  0  0  0  0  0
    9.9221  -16.1227   22.8677 C   0  0  1  0  0  0  0  0  0  0  0  0
    8.4355  -16.1564   22.5839 C   0  0  0  0  0  0  0  0  0  0  0  0
    7.9193  -14.9215   21.9548 C   0  0  0  0  0  0  0  0  0  0  0  0
    7.6619  -14.8847   20.5904 C   0  0  0  0  0  0  0  0  0  0  0  0
    7.1661  -13.7796   19.9571 C   0  0  0  0  0  0  0  0  0  0  0  0
    6.9076  -12.6573   20.6781 C   0  0  0  0  0  0  0  0  0  0  0  0
    7.1449  -12.6375   22.0332 C   0  0  0  0  0  0  0  0  0  0  0  0
    7.6480  -13.7691   22.6633 C   0  0  0  0  0  0  0  0  0  0  0  0
   10.3486  -17.0240   23.9562 C   0  0  0  0  0  0  0  0  0  0  0  0
   11.1560  -17.9963   23.7417 O   0  0  0  0  0  0  0  0  0  0  0  0
    9.8388  -16.7858   25.2513 N   0  0  0  0  0  0  0  0  0  0  0  0
   10.2099  -17.5711   26.4031 C   0  0  1  0  0  0  0  0  0  0  0  0
    9.4762  -16.9594   27.5865 C   0  0  0  0  0  0  0  0  0  0  0  0
    9.5644  -15.5168   27.6534 C   0  0  0  0  0  0  0  0  0  0  0  0
    8.5601  -14.7764   27.0635 C   0  0  0  0  0  0  0  0  0  0  0  0
    8.5833  -13.3772   27.1113 C   0  0  0  0  0  0  0  0  0  0  0  0
    9.6029  -12.7426   27.7450 C   0  0  0  0  0  0  0  0  0  0  0  0
   10.6386  -13.4575   28.3543 C   0  0  0  0  0  0  0  0  0  0  0  0
   10.5772  -14.8610   28.2829 C   0  0  0  0  0  0  0  0  0  0  0  0
    9.9146  -18.9697   26.1754 C   0  0  0  0  0  0  0  0  0  0  0  0
   10.4785  -19.9474   26.9820 O   0  0  0  0  0  0  0  0  0  0  0  0
    9.1410  -19.3642   25.2475 O   0  0  0  0  0  0  0  0  0  0  0  0
  2  1  1  6
  2  3  1  0
  4  3  1  0
  5  4  2  0
  6  7  1  0
  6  5  1  0
  7  8  2  0
  8  4  1  0
  9 11  1  0
  9  2  1  0
 10  9  2  0
 12 11  1  0
 12 13  1  6
 13 14  1  0
 14 19  1  0
 15 14  2  0
 15 16  1  0
 16 17  2  0
 17 18  1  0
 19 18  2  0
 20 12  1  0
 21 20  2  0
 22 20  1  0
 23 31  1  0
 23 22  1  0
 23 24  1  1
 25 24  1  0
 25 26  2  0
 27 26  1  0
 28 27  2  0
 29 30  2  0
 29 28  1  0
 30 25  1  0
 31 32  1  0
 33 31  2  0
M  END
$$$$
