HFF.pdb
     RDKit          3D

 33 35  0  0  1  0  0  0  0  0999 V2000
    8.1771  -20.9175   20.6816 N   0  0  0  0  0  0  0  0  0  0  0  0
    7.5144  -20.1503   21.7275 C   0  0  1  0  0  0  0  0  0  0  0  0
    8.0021  -20.6332   23.0998 C   0  0  0  0  0  0  0  0  0  0  0  0
    7.5021  -21.9799   23.3839 C   0  0  0  0  0  0  0  0  0  0  0  0
    6.3332  -22.5339   22.8699 C   0  0  0  0  0  0  0  0  0  0  0  0
    6.2291  -23.7761   23.3722 N   0  0  0  0  0  0  0  0  0  0  0  0
    7.2870  -24.0057   24.1736 C   0  0  0  0  0  0  0  0  0  0  0  0
    8.0521  -22.9058   24.1708 N   0  0  0  0  0  0  0  0  0  0  0  0
    8.0572  -18.7590   21.6092 C   0  0  0  0  0  0  0  0  0  0  0  0
    9.1845  -18.5107   21.1710 O   0  0  0  0  0  0  0  0  0  0  0  0
    7.2490  -17.6587   22.0158 N   0  0  0  0  0  0  0  0  0  0  0  0
    7.6847  -16.2954   21.9410 C   0  0  1  0  0  0  0  0  0  0  0  0
    6.6349  -15.3867   21.3378 C   0  0  0  0  0  0  0  0  0  0  0  0
    7.1212  -14.0199   21.0509 C   0  0  0  0  0  0  0  0  0  0  0  0
    7.0243  -13.0246   22.0149 C   0  0  0  0  0  0  0  0  0  0  0  0
    7.4741  -11.7496   21.8146 C   0  0  0  0  0  0  0  0  0  0  0  0
    8.0441  -11.4223   20.6254 C   0  0  0  0  0  0  0  0  0  0  0  0
    8.1649  -12.3688   19.6342 C   0  0  0  0  0  0  0  0  0  0  0  0
    7.7040  -13.6612   19.8528 C   0  0  0  0  0  0  0  0  0  0  0  0
    8.3032  -15.7674   23.1730 C   0  0  0  0  0  0  0  0  0  0  0  0
    8.2566  -14.5196   23.4629 O   0  0  0  0  0  0  0  0  0  0  0  0
    8.9541  -16.6806   24.0311 N   0  0  0  0  0  0  0  0  0  0  0  0
    9.4383  -16.3246   25.3425 C   0  0  1  0  0  0  0  0  0  0  0  0
    8.2047  -16.0604   26.1918 C   0  0  0  0  0  0  0  0  0  0  0  0
    7.7413  -14.6904   26.1486 C   0  0  0  0  0  0  0  0  0  0  0  0
    8.6607  -13.6862   26.3751 C   0  0  0  0  0  0  0  0  0  0  0  0
    8.2738  -12.3413   26.3291 C   0  0  0  0  0  0  0  0  0  0  0  0
    6.9822  -12.0218   26.0581 C   0  0  0  0  0  0  0  0  0  0  0  0
    6.0217  -13.0104   25.8234 C   0  0  0  0  0  0  0  0  0  0  0  0
    6.4520  -14.3484   25.8793 C   0  0  0  0  0  0  0  0  0  0  0  0
   10.3069  -17.3618   25.8573 C   0  0  0  0  0  0  0  0  0  0  0  0
   10.5479  -18.5089   25.1153 O   0  0  0  0  0  0  0  0  0  0  0  0
   10.8805  -17.2762   26.9881 O   0  0  0  0  0  0  0  0  0  0  0  0
  2  1  1  6
  2  3  1  0
  4  3  1  0
  5  4  2  0
  6  7  1  0
  6  5  1  0
  7  8  2  0
  8  4  1  0
  9 11  1  0
  9  2  1  0
 10  9  2  0
 12 11  1  0
 12 13  1  1
 13 14  1  0
 14 19  1  0
 15 14  2  0
 15 16  1  0
 16 17  2  0
 17 18  1  0
 19 18  2  0
 20 12  1  0
 21 20  2  0
 22 20  1  0
 23 31  1  0
 23 22  1  0
 23 24  1  1
 25 24  1  0
 25 26  2  0
 27 26  1  0
 28 27  2  0
 29 30  2  0
 29 28  1  0
 30 25  1  0
 31 32  1  0
 33 31  2  0
M  END
$$$$
