HFF.pdb
     RDKit          3D

 33 35  0  0  1  0  0  0  0  0999 V2000
   10.8549  -16.4795   20.1529 N   0  0  0  0  0  0  0  0  0  0  0  0
    9.8022  -16.9465   21.0449 C   0  0  1  0  0  0  0  0  0  0  0  0
   10.2494  -18.2485   21.7224 C   0  0  0  0  0  0  0  0  0  0  0  0
   10.0493  -19.3928   20.8309 C   0  0  0  0  0  0  0  0  0  0  0  0
    9.5898  -19.3252   19.5186 C   0  0  0  0  0  0  0  0  0  0  0  0
    9.5413  -20.5840   19.0504 N   0  0  0  0  0  0  0  0  0  0  0  0
    9.9522  -21.4205   20.0228 C   0  0  0  0  0  0  0  0  0  0  0  0
   10.2579  -20.6826   21.0986 N   0  0  0  0  0  0  0  0  0  0  0  0
    9.7489  -15.9473   22.1598 C   0  0  0  0  0  0  0  0  0  0  0  0
   10.7497  -15.3702   22.5957 O   0  0  0  0  0  0  0  0  0  0  0  0
    8.4937  -15.6353   22.7567 N   0  0  0  0  0  0  0  0  0  0  0  0
    8.3689  -14.9241   23.9946 C   0  0  1  0  0  0  0  0  0  0  0  0
    7.0344  -14.2209   24.1237 C   0  0  0  0  0  0  0  0  0  0  0  0
    6.9135  -13.3873   25.3392 C   0  0  0  0  0  0  0  0  0  0  0  0
    6.2728  -13.8823   26.4679 C   0  0  0  0  0  0  0  0  0  0  0  0
    6.1479  -13.1667   27.6255 C   0  0  0  0  0  0  0  0  0  0  0  0
    6.6670  -11.9128   27.6941 C   0  0  0  0  0  0  0  0  0  0  0  0
    7.3113  -11.3721   26.6053 C   0  0  0  0  0  0  0  0  0  0  0  0
    7.4316  -12.1122   25.4356 C   0  0  0  0  0  0  0  0  0  0  0  0
    8.7690  -15.6832   25.1958 C   0  0  0  0  0  0  0  0  0  0  0  0
    8.1757  -16.7696   25.5287 O   0  0  0  0  0  0  0  0  0  0  0  0
    9.8311  -15.1763   25.9760 N   0  0  0  0  0  0  0  0  0  0  0  0
   10.3563  -15.8584   27.1337 C   0  0  1  0  0  0  0  0  0  0  0  0
   11.8646  -15.9104   26.9460 C   0  0  0  0  0  0  0  0  0  0  0  0
   12.2909  -16.7019   25.8123 C   0  0  0  0  0  0  0  0  0  0  0  0
   12.6414  -16.0400   24.6530 C   0  0  0  0  0  0  0  0  0  0  0  0
   13.0779  -16.7522   23.5292 C   0  0  0  0  0  0  0  0  0  0  0  0
   13.1582  -18.1068   23.5808 C   0  0  0  0  0  0  0  0  0  0  0  0
   12.8119  -18.8130   24.7367 C   0  0  0  0  0  0  0  0  0  0  0  0
   12.3782  -18.0596   25.8425 C   0  0  0  0  0  0  0  0  0  0  0  0
    9.9279  -15.1946   28.3466 C   0  0  0  0  0  0  0  0  0  0  0  0
    9.1590  -14.0418   28.2827 O   0  0  0  0  0  0  0  0  0  0  0  0
   10.2262  -15.6246   29.5047 O   0  0  0  0  0  0  0  0  0  0  0  0
  2  1  1  6
  2  3  1  0
  4  3  1  0
  5  4  2  0
  6  7  1  0
  6  5  1  0
  7  8  2  0
  8  4  1  0
  9 11  1  0
  9  2  1  0
 10  9  2  0
 12 11  1  0
 12 13  1  1
 13 14  1  0
 14 19  1  0
 15 14  2  0
 15 16  1  0
 16 17  2  0
 17 18  1  0
 19 18  2  0
 20 12  1  0
 21 20  2  0
 22 20  1  0
 23 31  1  0
 23 22  1  0
 23 24  1  6
 25 24  1  0
 25 26  2  0
 27 26  1  0
 28 27  2  0
 29 30  2  0
 29 28  1  0
 30 25  1  0
 31 32  1  0
 33 31  2  0
M  END
$$$$
