HFF.pdb
     RDKit          3D

 33 35  0  0  1  0  0  0  0  0999 V2000
    9.5937  -17.9946   18.9572 N   0  0  0  0  0  0  0  0  0  0  0  0
    9.2297  -18.4476   20.2929 C   0  0  1  0  0  0  0  0  0  0  0  0
   10.2991  -19.4188   20.8101 C   0  0  0  0  0  0  0  0  0  0  0  0
   10.3468  -20.6265   19.9834 C   0  0  0  0  0  0  0  0  0  0  0  0
    9.2471  -21.3907   19.6035 C   0  0  0  0  0  0  0  0  0  0  0  0
    9.7104  -22.4090   18.8588 N   0  0  0  0  0  0  0  0  0  0  0  0
   11.0498  -22.2999   18.7672 C   0  0  0  0  0  0  0  0  0  0  0  0
   11.4223  -21.2121   19.4549 N   0  0  0  0  0  0  0  0  0  0  0  0
    9.3637  -17.2440   21.1747 C   0  0  0  0  0  0  0  0  0  0  0  0
   10.3475  -16.4982   21.1518 O   0  0  0  0  0  0  0  0  0  0  0  0
    8.3169  -16.9293   22.0882 N   0  0  0  0  0  0  0  0  0  0  0  0
    8.3351  -15.7722   22.9337 C   0  0  1  0  0  0  0  0  0  0  0  0
    7.0447  -15.6029   23.7071 C   0  0  0  0  0  0  0  0  0  0  0  0
    7.0302  -14.4188   24.5931 C   0  0  0  0  0  0  0  0  0  0  0  0
    6.5356  -14.5177   25.8872 C   0  0  0  0  0  0  0  0  0  0  0  0
    6.5147  -13.4639   26.7574 C   0  0  0  0  0  0  0  0  0  0  0  0
    6.9948  -12.2578   26.3562 C   0  0  0  0  0  0  0  0  0  0  0  0
    7.4959  -12.1027   25.0843 C   0  0  0  0  0  0  0  0  0  0  0  0
    7.5116  -13.1835   24.2112 C   0  0  0  0  0  0  0  0  0  0  0  0
    9.5536  -15.6136   23.7517 C   0  0  0  0  0  0  0  0  0  0  0  0
   10.3134  -14.5887   23.6279 O   0  0  0  0  0  0  0  0  0  0  0  0
    9.8636  -16.6298   24.6818 N   0  0  0  0  0  0  0  0  0  0  0  0
   11.0439  -16.6083   25.5111 C   0  0  1  0  0  0  0  0  0  0  0  0
   11.1746  -15.1826   26.0241 C   0  0  0  0  0  0  0  0  0  0  0  0
   10.7528  -15.0089   27.3972 C   0  0  0  0  0  0  0  0  0  0  0  0
   10.6452  -13.7227   27.8860 C   0  0  0  0  0  0  0  0  0  0  0  0
   10.2251  -13.4925   29.2017 C   0  0  0  0  0  0  0  0  0  0  0  0
    9.9197  -14.5446   30.0041 C   0  0  0  0  0  0  0  0  0  0  0  0
   10.0164  -15.8619   29.5456 C   0  0  0  0  0  0  0  0  0  0  0  0
   10.4423  -16.0490   28.2181 C   0  0  0  0  0  0  0  0  0  0  0  0
   10.9471  -17.6107   26.5508 C   0  0  0  0  0  0  0  0  0  0  0  0
    9.7814  -18.3451   26.7126 O   0  0  0  0  0  0  0  0  0  0  0  0
   11.9030  -17.8642   27.3490 O   0  0  0  0  0  0  0  0  0  0  0  0
  2  1  1  6
  2  3  1  0
  4  3  1  0
  5  4  2  0
  6  7  1  0
  6  5  1  0
  7  8  2  0
  8  4  1  0
  9 11  1  0
  9  2  1  0
 10  9  2  0
 12 11  1  0
 12 13  1  1
 13 14  1  0
 14 19  1  0
 15 14  2  0
 15 16  1  0
 16 17  2  0
 17 18  1  0
 19 18  2  0
 20 12  1  0
 21 20  2  0
 22 20  1  0
 23 31  1  0
 23 22  1  0
 23 24  1  1
 25 24  1  0
 25 26  2  0
 27 26  1  0
 28 27  2  0
 29 30  2  0
 29 28  1  0
 30 25  1  0
 31 32  1  0
 33 31  2  0
M  END
$$$$
