HFF.pdb
     RDKit          3D

 33 35  0  0  1  0  0  0  0  0999 V2000
    9.6767  -17.3879   18.8443 N   0  0  0  0  0  0  0  0  0  0  0  0
    9.7157  -18.0261   20.1531 C   0  0  1  0  0  0  0  0  0  0  0  0
   11.0686  -18.7259   20.3381 C   0  0  0  0  0  0  0  0  0  0  0  0
   11.2588  -19.7645   19.3235 C   0  0  0  0  0  0  0  0  0  0  0  0
   10.6138  -20.9978   19.2976 C   0  0  0  0  0  0  0  0  0  0  0  0
   11.0635  -21.6577   18.2166 N   0  0  0  0  0  0  0  0  0  0  0  0
   11.9584  -20.8786   17.5790 C   0  0  0  0  0  0  0  0  0  0  0  0
   12.0665  -19.7314   18.2626 N   0  0  0  0  0  0  0  0  0  0  0  0
    9.7395  -16.9042   21.1456 C   0  0  0  0  0  0  0  0  0  0  0  0
   10.6362  -16.0561   21.1824 O   0  0  0  0  0  0  0  0  0  0  0  0
    8.6864  -16.7944   22.0987 N   0  0  0  0  0  0  0  0  0  0  0  0
    8.6388  -15.7708   23.1007 C   0  0  1  0  0  0  0  0  0  0  0  0
    7.2697  -15.1342   23.2100 C   0  0  0  0  0  0  0  0  0  0  0  0
    7.1978  -14.0383   24.2005 C   0  0  0  0  0  0  0  0  0  0  0  0
    6.5048  -14.2141   25.3914 C   0  0  0  0  0  0  0  0  0  0  0  0
    6.4205  -13.2457   26.3521 C   0  0  0  0  0  0  0  0  0  0  0  0
    7.0353  -12.0508   26.1508 C   0  0  0  0  0  0  0  0  0  0  0  0
    7.7350  -11.8218   24.9884 C   0  0  0  0  0  0  0  0  0  0  0  0
    7.8129  -12.8164   24.0213 C   0  0  0  0  0  0  0  0  0  0  0  0
    9.2389  -16.1370   24.3987 C   0  0  0  0  0  0  0  0  0  0  0  0
    8.6009  -15.9778   25.4991 O   0  0  0  0  0  0  0  0  0  0  0  0
   10.5460  -16.6712   24.3969 N   0  0  0  0  0  0  0  0  0  0  0  0
   11.5659  -16.2670   25.3337 C   0  0  1  0  0  0  0  0  0  0  0  0
   11.0691  -16.6883   26.7079 C   0  0  0  0  0  0  0  0  0  0  0  0
   10.4908  -15.6111   27.4817 C   0  0  0  0  0  0  0  0  0  0  0  0
    9.1542  -15.6954   27.8151 C   0  0  0  0  0  0  0  0  0  0  0  0
    8.5443  -14.6913   28.5770 C   0  0  0  0  0  0  0  0  0  0  0  0
    9.2751  -13.6250   28.9928 C   0  0  0  0  0  0  0  0  0  0  0  0
   10.6313  -13.5037   28.6754 C   0  0  0  0  0  0  0  0  0  0  0  0
   11.2048  -14.5339   27.9082 C   0  0  0  0  0  0  0  0  0  0  0  0
   12.8447  -16.8336   24.9613 C   0  0  0  0  0  0  0  0  0  0  0  0
   12.9464  -17.6803   23.8671 O   0  0  0  0  0  0  0  0  0  0  0  0
   13.9148  -16.5893   25.6019 O   0  0  0  0  0  0  0  0  0  0  0  0
  2  1  1  6
  2  3  1  0
  4  3  1  0
  5  4  2  0
  6  7  1  0
  6  5  1  0
  7  8  2  0
  8  4  1  0
  9 11  1  0
  9  2  1  0
 10  9  2  0
 12 11  1  0
 12 13  1  1
 13 14  1  0
 14 19  1  0
 15 14  2  0
 15 16  1  0
 16 17  2  0
 17 18  1  0
 19 18  2  0
 20 12  1  0
 21 20  2  0
 22 20  1  0
 23 31  1  0
 23 22  1  0
 23 24  1  1
 25 24  1  0
 25 26  2  0
 27 26  1  0
 28 27  2  0
 29 30  2  0
 29 28  1  0
 30 25  1  0
 31 32  1  0
 33 31  2  0
M  END
$$$$
