QSV.pdb
     RDKit          3D

 23 22  0  0  1  0  0  0  0  0999 V2000
   25.3302  -20.9621  -10.7650 N   0  0  0  0  0  0  0  0  0  0  0  0
   26.6756  -21.2195  -11.0930 C   0  0  0  0  0  0  0  0  0  0  0  0
   27.1670  -22.3409  -10.8515 O   0  0  0  0  0  0  0  0  0  0  0  0
   27.5015  -20.1705  -11.7189 C   0  0  0  0  0  0  0  0  0  0  0  0
   26.7400  -19.5040  -12.8442 C   0  0  0  0  0  0  0  0  0  0  0  0
   26.6423  -20.4057  -14.0559 C   0  0  2  0  0  0  0  0  0  0  0  0
   27.7848  -20.1678  -14.8885 N   0  0  0  0  0  0  0  0  0  0  0  0
   25.3577  -20.1111  -14.7313 C   0  0  0  0  0  0  0  0  0  0  0  0
   25.2613  -19.0031  -15.3216 O   0  0  0  0  0  0  0  0  0  0  0  0
   21.2263  -21.6160  -16.5244 O   0  0  0  0  0  0  0  0  0  0  0  0
   22.3873  -21.9243  -15.8390 C   0  0  0  0  0  0  0  0  0  0  0  0
   23.0464  -20.6250  -15.3531 C   0  0  2  0  0  0  0  0  0  0  0  0
   24.2675  -21.0232  -14.7269 N   0  0  0  0  0  0  0  0  0  0  0  0
   22.0971  -19.9880  -14.4101 C   0  0  0  0  0  0  0  0  0  0  0  0
   22.1325  -20.3705  -13.2035 O   0  0  0  0  0  0  0  0  0  0  0  0
   19.9197  -16.7947  -15.6458 C   0  0  0  0  0  0  0  0  0  0  0  0
   19.7993  -17.0358  -14.1435 C   0  0  1  0  0  0  0  0  0  0  0  0
   18.4037  -16.7358  -13.6560 C   0  0  0  0  0  0  0  0  0  0  0  0
   20.1738  -18.4665  -13.8234 C   0  0  2  0  0  0  0  0  0  0  0  0
   21.1557  -18.9909  -14.7366 N   0  0  0  0  0  0  0  0  0  0  0  0
   18.9465  -19.2944  -13.9732 C   0  0  0  0  0  0  0  0  0  0  0  0
   18.0258  -19.5019  -12.9778 O   0  0  0  0  0  0  0  0  0  0  0  0
   18.7479  -19.8367  -15.0907 O   0  0  0  0  0  0  0  0  0  0  0  0
  1  2  1  0
  2  3  2  0
  4  5  1  0
  4  2  1  0
  6  8  1  0
  6  5  1  0
  6  7  1  6
  8  9  2  0
 10 11  1  0
 12 11  1  1
 12 13  1  0
 13  8  1  0
 14 12  1  0
 15 14  2  0
 17 16  1  6
 17 19  1  0
 18 17  1  0
 19 21  1  0
 19 20  1  6
 20 14  1  0
 21 22  1  0
 23 21  2  0
M  END
$$$$
