QSV.pdb
     RDKit          3D

 23 22  0  0  1  0  0  0  0  0999 V2000
   31.1902  -20.9981  -18.8579 N   0  0  0  0  0  0  0  0  0  0  0  0
   30.5803  -22.2586  -19.0094 C   0  0  0  0  0  0  0  0  0  0  0  0
   31.0863  -23.1018  -19.7776 O   0  0  0  0  0  0  0  0  0  0  0  0
   29.3495  -22.5827  -18.2648 C   0  0  0  0  0  0  0  0  0  0  0  0
   28.9295  -21.4083  -17.4076 C   0  0  0  0  0  0  0  0  0  0  0  0
   27.6165  -20.8212  -17.8788 C   0  0  2  0  0  0  0  0  0  0  0  0
   27.8776  -19.9850  -19.0136 N   0  0  0  0  0  0  0  0  0  0  0  0
   27.0192  -20.0874  -16.7394 C   0  0  0  0  0  0  0  0  0  0  0  0
   27.7169  -19.1816  -16.2120 O   0  0  0  0  0  0  0  0  0  0  0  0
   22.9652  -20.0716  -15.7429 O   0  0  0  0  0  0  0  0  0  0  0  0
   23.8746  -19.0376  -15.6150 C   0  0  0  0  0  0  0  0  0  0  0  0
   25.2226  -19.6061  -15.1478 C   0  0  2  0  0  0  0  0  0  0  0  0
   25.7177  -20.3751  -16.2456 N   0  0  0  0  0  0  0  0  0  0  0  0
   24.9487  -20.4290  -13.9460 C   0  0  0  0  0  0  0  0  0  0  0  0
   24.7058  -21.6585  -14.1270 O   0  0  0  0  0  0  0  0  0  0  0  0
   24.7246  -21.0991   -9.0201 C   0  0  0  0  0  0  0  0  0  0  0  0
   25.3091  -20.3672  -10.2252 C   0  0  1  0  0  0  0  0  0  0  0  0
   26.7798  -20.6645  -10.3797 C   0  0  0  0  0  0  0  0  0  0  0  0
   24.5568  -20.7616  -11.4774 C   0  0  2  0  0  0  0  0  0  0  0  0
   24.9350  -19.9645  -12.6152 N   0  0  0  0  0  0  0  0  0  0  0  0
   23.1109  -20.5140  -11.2273 C   0  0  0  0  0  0  0  0  0  0  0  0
   22.2567  -21.4229  -10.6567 O   0  0  0  0  0  0  0  0  0  0  0  0
   22.6495  -19.3934  -11.5649 O   0  0  0  0  0  0  0  0  0  0  0  0
  1  2  1  0
  2  3  2  0
  4  5  1  0
  4  2  1  0
  6  8  1  0
  6  5  1  0
  6  7  1  6
  8  9  2  0
 10 11  1  0
 12 11  1  6
 12 13  1  0
 13  8  1  0
 14 12  1  0
 15 14  2  0
 17 16  1  1
 17 19  1  0
 18 17  1  0
 19 21  1  0
 19 20  1  6
 20 14  1  0
 21 22  1  0
 23 21  2  0
M  END
$$$$
