QSV.pdb
     RDKit          3D

 23 22  0  0  1  0  0  0  0  0999 V2000
   20.2025  -12.9914  -16.1642 N   0  0  0  0  0  0  0  0  0  0  0  0
   19.1875  -13.9384  -16.4025 C   0  0  0  0  0  0  0  0  0  0  0  0
   19.4300  -15.1539  -16.2578 O   0  0  0  0  0  0  0  0  0  0  0  0
   17.8439  -13.4980  -16.8209 C   0  0  0  0  0  0  0  0  0  0  0  0
   17.7800  -11.9870  -16.8763 C   0  0  0  0  0  0  0  0  0  0  0  0
   17.3442  -11.4028  -15.5498 C   0  0  2  0  0  0  0  0  0  0  0  0
   15.9795  -11.7763  -15.3190 N   0  0  0  0  0  0  0  0  0  0  0  0
   17.5435   -9.9369  -15.6186 C   0  0  0  0  0  0  0  0  0  0  0  0
   16.8366   -9.3004  -16.4436 O   0  0  0  0  0  0  0  0  0  0  0  0
   17.3158   -5.9663  -14.0080 O   0  0  0  0  0  0  0  0  0  0  0  0
   17.2789   -7.3451  -14.1096 C   0  0  0  0  0  0  0  0  0  0  0  0
   18.5296   -7.8294  -14.8578 C   0  0  2  0  0  0  0  0  0  0  0  0
   18.4850   -9.2564  -14.7995 N   0  0  0  0  0  0  0  0  0  0  0  0
   19.7011   -7.2609  -14.1501 C   0  0  0  0  0  0  0  0  0  0  0  0
   19.9400   -7.6917  -12.9836 O   0  0  0  0  0  0  0  0  0  0  0  0
   23.2154   -7.1837  -15.8253 C   0  0  0  0  0  0  0  0  0  0  0  0
   22.9283   -5.8276  -15.1863 C   0  0  1  0  0  0  0  0  0  0  0  0
   22.4838   -4.8237  -16.2206 C   0  0  0  0  0  0  0  0  0  0  0  0
   21.8734   -5.9812  -14.1125 C   0  0  2  0  0  0  0  0  0  0  0  0
   20.5762   -6.2810  -14.6607 N   0  0  0  0  0  0  0  0  0  0  0  0
   21.7618   -4.6768  -13.4052 C   0  0  0  0  0  0  0  0  0  0  0  0
   22.7089   -4.1768  -12.5482 O   0  0  0  0  0  0  0  0  0  0  0  0
   20.7263   -3.9933  -13.6128 O   0  0  0  0  0  0  0  0  0  0  0  0
  1  2  1  0
  2  3  2  0
  4  5  1  0
  4  2  1  0
  6  8  1  0
  6  5  1  0
  6  7  1  6
  8  9  2  0
 10 11  1  0
 12 11  1  1
 12 13  1  0
 13  8  1  0
 14 12  1  0
 15 14  2  0
 17 16  1  6
 17 19  1  0
 18 17  1  0
 19 21  1  0
 19 20  1  6
 20 14  1  0
 21 22  1  0
 23 21  2  0
M  END
$$$$
