QSV.pdb
     RDKit          3D

 23 22  0  0  1  0  0  0  0  0999 V2000
   17.5810   -4.8929  -14.3333 N   0  0  0  0  0  0  0  0  0  0  0  0
   17.9310   -5.6065  -15.4961 C   0  0  0  0  0  0  0  0  0  0  0  0
   18.3676   -4.9920  -16.4905 O   0  0  0  0  0  0  0  0  0  0  0  0
   17.7831   -7.0729  -15.5405 C   0  0  0  0  0  0  0  0  0  0  0  0
   17.1740   -7.5787  -14.2507 C   0  0  0  0  0  0  0  0  0  0  0  0
   18.2405   -8.0100  -13.2671 C   0  0  2  0  0  0  0  0  0  0  0  0
   18.7899   -9.2560  -13.7151 N   0  0  0  0  0  0  0  0  0  0  0  0
   17.6082   -8.0987  -11.9309 C   0  0  0  0  0  0  0  0  0  0  0  0
   17.3197   -9.2493  -11.5085 O   0  0  0  0  0  0  0  0  0  0  0  0
   16.3244   -4.7706   -9.9253 O   0  0  0  0  0  0  0  0  0  0  0  0
   16.8104   -5.8019   -9.1424 C   0  0  0  0  0  0  0  0  0  0  0  0
   16.6482   -7.1288   -9.8985 C   0  0  2  0  0  0  0  0  0  0  0  0
   17.3296   -6.9498  -11.1416 N   0  0  0  0  0  0  0  0  0  0  0  0
   15.1928   -7.3524  -10.0671 C   0  0  0  0  0  0  0  0  0  0  0  0
   14.6440   -6.8551  -11.0941 O   0  0  0  0  0  0  0  0  0  0  0  0
   12.7949   -9.0049   -6.9790 C   0  0  0  0  0  0  0  0  0  0  0  0
   12.3572   -9.2587   -8.4190 C   0  0  1  0  0  0  0  0  0  0  0  0
   10.8534   -9.2871   -8.5320 C   0  0  0  0  0  0  0  0  0  0  0  0
   12.9343   -8.1926   -9.3244 C   0  0  2  0  0  0  0  0  0  0  0  0
   14.3622   -8.0719   -9.1842 N   0  0  0  0  0  0  0  0  0  0  0  0
   12.3402   -6.8904   -8.9174 C   0  0  0  0  0  0  0  0  0  0  0  0
   12.9644   -5.9722   -8.1119 O   0  0  0  0  0  0  0  0  0  0  0  0
   11.1882   -6.6217   -9.3452 O   0  0  0  0  0  0  0  0  0  0  0  0
  1  2  1  0
  2  3  2  0
  4  5  1  0
  4  2  1  0
  6  8  1  0
  6  5  1  0
  6  7  1  6
  8  9  2  0
 10 11  1  0
 12 11  1  1
 12 13  1  0
 13  8  1  0
 14 12  1  0
 15 14  2  0
 17 16  1  1
 17 19  1  0
 18 17  1  0
 19 21  1  0
 19 20  1  1
 20 14  1  0
 21 22  1  0
 23 21  2  0
M  END
$$$$
