QSV.pdb
     RDKit          3D

 23 22  0  0  1  0  0  0  0  0999 V2000
   15.8786  -13.6792  -16.1985 N   0  0  0  0  0  0  0  0  0  0  0  0
   17.0211  -14.4229  -16.5531 C   0  0  0  0  0  0  0  0  0  0  0  0
   16.8910  -15.5823  -16.9959 O   0  0  0  0  0  0  0  0  0  0  0  0
   18.3655  -13.8362  -16.4028 C   0  0  0  0  0  0  0  0  0  0  0  0
   18.2667  -12.4321  -15.8467 C   0  0  0  0  0  0  0  0  0  0  0  0
   18.8556  -11.4162  -16.8016 C   0  0  2  0  0  0  0  0  0  0  0  0
   20.1904  -11.8248  -17.1279 N   0  0  0  0  0  0  0  0  0  0  0  0
   18.7966  -10.0926  -16.1401 C   0  0  0  0  0  0  0  0  0  0  0  0
   17.6575   -9.6618  -15.8204 O   0  0  0  0  0  0  0  0  0  0  0  0
   20.6393   -8.2715  -13.1370 O   0  0  0  0  0  0  0  0  0  0  0  0
   20.9761   -7.7868  -14.3878 C   0  0  0  0  0  0  0  0  0  0  0  0
   19.7965   -8.0035  -15.3471 C   0  0  2  0  0  0  0  0  0  0  0  0
   19.9609   -9.3240  -15.8677 N   0  0  0  0  0  0  0  0  0  0  0  0
   19.8942   -6.9568  -16.3919 C   0  0  0  0  0  0  0  0  0  0  0  0
   20.7800   -7.1077  -17.2840 O   0  0  0  0  0  0  0  0  0  0  0  0
   17.0009   -5.5742  -18.5580 C   0  0  0  0  0  0  0  0  0  0  0  0
   17.7827   -4.3877  -18.0004 C   0  0  1  0  0  0  0  0  0  0  0  0
   17.0435   -3.7405  -16.8559 C   0  0  0  0  0  0  0  0  0  0  0  0
   19.1539   -4.8440  -17.5520 C   0  0  2  0  0  0  0  0  0  0  0  0
   19.0865   -5.8051  -16.4821 N   0  0  0  0  0  0  0  0  0  0  0  0
   19.8731   -3.6513  -17.0280 C   0  0  0  0  0  0  0  0  0  0  0  0
   20.4722   -2.7005  -17.8144 O   0  0  0  0  0  0  0  0  0  0  0  0
   19.9306   -3.5137  -15.7789 O   0  0  0  0  0  0  0  0  0  0  0  0
  1  2  1  0
  2  3  2  0
  4  5  1  0
  4  2  1  0
  6  8  1  0
  6  5  1  0
  6  7  1  1
  8  9  2  0
 10 11  1  0
 12 11  1  1
 12 13  1  0
 13  8  1  0
 14 12  1  0
 15 14  2  0
 17 16  1  1
 17 19  1  0
 18 17  1  0
 19 21  1  0
 19 20  1  1
 20 14  1  0
 21 22  1  0
 23 21  2  0
M  END
$$$$
