QSV.pdb
     RDKit          3D

 23 22  0  0  1  0  0  0  0  0999 V2000
   18.8538  -14.2889  -19.8913 N   0  0  0  0  0  0  0  0  0  0  0  0
   19.3281  -13.6662  -18.7203 C   0  0  0  0  0  0  0  0  0  0  0  0
   19.2979  -14.2836  -17.6363 O   0  0  0  0  0  0  0  0  0  0  0  0
   19.8584  -12.2913  -18.7726 C   0  0  0  0  0  0  0  0  0  0  0  0
   18.7916  -11.3008  -18.3585 C   0  0  0  0  0  0  0  0  0  0  0  0
   18.4119  -11.4729  -16.9035 C   0  0  2  0  0  0  0  0  0  0  0  0
   17.1172  -12.0857  -16.8447 N   0  0  0  0  0  0  0  0  0  0  0  0
   18.4530  -10.1357  -16.2685 C   0  0  0  0  0  0  0  0  0  0  0  0
   17.8341   -9.2058  -16.8497 O   0  0  0  0  0  0  0  0  0  0  0  0
   17.4019   -9.3632  -12.8153 O   0  0  0  0  0  0  0  0  0  0  0  0
   18.7065   -8.9235  -12.9464 C   0  0  0  0  0  0  0  0  0  0  0  0
   18.9897   -8.6176  -14.4245 C   0  0  2  0  0  0  0  0  0  0  0  0
   19.1535   -9.8886  -15.0566 N   0  0  0  0  0  0  0  0  0  0  0  0
   20.2200   -7.7922  -14.4646 C   0  0  0  0  0  0  0  0  0  0  0  0
   21.3295   -8.4013  -14.4248 O   0  0  0  0  0  0  0  0  0  0  0  0
   20.0449   -3.6897  -15.3143 C   0  0  0  0  0  0  0  0  0  0  0  0
   21.3270   -4.4573  -15.6258 C   0  0  1  0  0  0  0  0  0  0  0  0
   22.5321   -3.5531  -15.5524 C   0  0  0  0  0  0  0  0  0  0  0  0
   21.4766   -5.6151  -14.6632 C   0  0  2  0  0  0  0  0  0  0  0  0
   20.2661   -6.3856  -14.5440 N   0  0  0  0  0  0  0  0  0  0  0  0
   21.7700   -5.0454  -13.3202 C   0  0  0  0  0  0  0  0  0  0  0  0
   23.0169   -4.6606  -12.8976 O   0  0  0  0  0  0  0  0  0  0  0  0
   20.8040   -4.9112  -12.5256 O   0  0  0  0  0  0  0  0  0  0  0  0
  1  2  1  0
  2  3  2  0
  4  5  1  0
  4  2  1  0
  6  8  1  0
  6  5  1  0
  6  7  1  6
  8  9  2  0
 10 11  1  0
 12 11  1  1
 12 13  1  0
 13  8  1  0
 14 12  1  0
 15 14  2  0
 17 16  1  1
 17 19  1  0
 18 17  1  0
 19 21  1  0
 19 20  1  1
 20 14  1  0
 21 22  1  0
 23 21  2  0
M  END
$$$$
