QSV.pdb
     RDKit          3D

 23 22  0  0  1  0  0  0  0  0999 V2000
   25.2398  -18.9902  -21.2345 N   0  0  0  0  0  0  0  0  0  0  0  0
   25.2146  -17.8201  -20.4507 C   0  0  0  0  0  0  0  0  0  0  0  0
   25.1616  -16.7044  -21.0073 O   0  0  0  0  0  0  0  0  0  0  0  0
   25.2507  -17.9105  -18.9794 C   0  0  0  0  0  0  0  0  0  0  0  0
   25.3695  -19.3552  -18.5447 C   0  0  0  0  0  0  0  0  0  0  0  0
   26.7931  -19.7039  -18.1669 C   0  0  2  0  0  0  0  0  0  0  0  0
   27.3398  -20.5421  -19.1933 N   0  0  0  0  0  0  0  0  0  0  0  0
   26.7568  -20.3576  -16.8385 C   0  0  0  0  0  0  0  0  0  0  0  0
   25.9211  -21.2858  -16.6790 O   0  0  0  0  0  0  0  0  0  0  0  0
   29.2231  -19.1698  -13.8243 O   0  0  0  0  0  0  0  0  0  0  0  0
   28.9335  -20.5204  -13.8908 C   0  0  0  0  0  0  0  0  0  0  0  0
   27.5610  -20.7101  -14.5534 C   0  0  2  0  0  0  0  0  0  0  0  0
   27.6175  -19.9714  -15.7752 N   0  0  0  0  0  0  0  0  0  0  0  0
   26.5502  -20.1811  -13.6073 C   0  0  0  0  0  0  0  0  0  0  0  0
   26.2505  -18.9546  -13.7037 O   0  0  0  0  0  0  0  0  0  0  0  0
   23.4946  -22.3112  -11.8455 C   0  0  0  0  0  0  0  0  0  0  0  0
   23.5752  -20.7875  -11.8089 C   0  0  1  0  0  0  0  0  0  0  0  0
   22.7057  -20.2243  -10.7125 C   0  0  0  0  0  0  0  0  0  0  0  0
   25.0126  -20.3558  -11.6165 C   0  0  2  0  0  0  0  0  0  0  0  0
   25.8901  -20.9232  -12.6071 N   0  0  0  0  0  0  0  0  0  0  0  0
   25.4586  -20.8635  -10.2907 C   0  0  0  0  0  0  0  0  0  0  0  0
   25.1822  -20.2522   -9.0943 O   0  0  0  0  0  0  0  0  0  0  0  0
   26.1336  -21.9249  -10.2753 O   0  0  0  0  0  0  0  0  0  0  0  0
  1  2  1  0
  2  3  2  0
  4  5  1  0
  4  2  1  0
  6  8  1  0
  6  5  1  0
  6  7  1  6
  8  9  2  0
 10 11  1  0
 12 11  1  1
 12 13  1  0
 13  8  1  0
 14 12  1  0
 15 14  2  0
 17 16  1  1
 17 19  1  0
 18 17  1  0
 19 21  1  0
 19 20  1  6
 20 14  1  0
 21 22  1  0
 23 21  2  0
M  END
$$$$
