QSV.pdb
     RDKit          3D

 23 22  0  0  1  0  0  0  0  0999 V2000
   14.9040  -13.6879  -14.8909 N   0  0  0  0  0  0  0  0  0  0  0  0
   14.0972  -12.5394  -14.7725 C   0  0  0  0  0  0  0  0  0  0  0  0
   12.8898  -12.6596  -14.4812 O   0  0  0  0  0  0  0  0  0  0  0  0
   14.6744  -11.2003  -14.9913 C   0  0  0  0  0  0  0  0  0  0  0  0
   16.1561  -11.3077  -15.2801 C   0  0  0  0  0  0  0  0  0  0  0  0
   16.4555  -11.0446  -16.7403 C   0  0  2  0  0  0  0  0  0  0  0  0
   16.5262  -12.3045  -17.4204 N   0  0  0  0  0  0  0  0  0  0  0  0
   17.7189  -10.2747  -16.8069 C   0  0  0  0  0  0  0  0  0  0  0  0
   18.7927  -10.9269  -16.7225 O   0  0  0  0  0  0  0  0  0  0  0  0
   18.4982   -7.2588  -19.2285 O   0  0  0  0  0  0  0  0  0  0  0  0
   18.7281   -6.9327  -17.9043 C   0  0  0  0  0  0  0  0  0  0  0  0
   19.0094   -8.2167  -17.1101 C   0  0  2  0  0  0  0  0  0  0  0  0
   17.7433   -8.8617  -16.9593 N   0  0  0  0  0  0  0  0  0  0  0  0
   19.6011   -7.8011  -15.8164 C   0  0  0  0  0  0  0  0  0  0  0  0
   18.8038   -7.4255  -14.9072 O   0  0  0  0  0  0  0  0  0  0  0  0
   22.0306   -9.8227  -13.5770 C   0  0  0  0  0  0  0  0  0  0  0  0
   22.6145   -8.4300  -13.7985 C   0  0  1  0  0  0  0  0  0  0  0  0
   23.7036   -8.4579  -14.8416 C   0  0  0  0  0  0  0  0  0  0  0  0
   21.5157   -7.4739  -14.2084 C   0  0  2  0  0  0  0  0  0  0  0  0
   20.9760   -7.7868  -15.5061 N   0  0  0  0  0  0  0  0  0  0  0  0
   22.1150   -6.1148  -14.2967 C   0  0  0  0  0  0  0  0  0  0  0  0
   22.5026   -5.3673  -13.2139 O   0  0  0  0  0  0  0  0  0  0  0  0
   22.2733   -5.6264  -15.4451 O   0  0  0  0  0  0  0  0  0  0  0  0
  1  2  1  0
  2  3  2  0
  4  5  1  0
  4  2  1  0
  6  8  1  0
  6  5  1  0
  6  7  1  6
  8  9  2  0
 10 11  1  0
 12 11  1  6
 12 13  1  0
 13  8  1  0
 14 12  1  0
 15 14  2  0
 17 16  1  6
 17 19  1  0
 18 17  1  0
 19 21  1  0
 19 20  1  6
 20 14  1  0
 21 22  1  0
 23 21  2  0
M  END
$$$$
