FFW.pdb
     RDKit          3D

 37 40  0  0  1  0  0  0  0  0999 V2000
   28.2168  -18.4648  -19.2924 N   0  0  0  0  0  0  0  0  0  0  0  0
   27.2483  -17.9611  -18.3555 C   0  0  1  0  0  0  0  0  0  0  0  0
   25.9249  -17.7295  -19.0549 C   0  0  0  0  0  0  0  0  0  0  0  0
   26.0917  -16.5891  -19.9876 C   0  0  0  0  0  0  0  0  0  0  0  0
   26.2355  -15.3383  -19.4234 C   0  0  0  0  0  0  0  0  0  0  0  0
   26.3954  -14.2658  -20.2731 C   0  0  0  0  0  0  0  0  0  0  0  0
   26.4101  -14.4464  -21.6475 C   0  0  0  0  0  0  0  0  0  0  0  0
   26.2662  -15.6982  -22.2031 C   0  0  0  0  0  0  0  0  0  0  0  0
   26.1052  -16.7820  -21.3713 C   0  0  0  0  0  0  0  0  0  0  0  0
   27.1160  -18.9230  -17.2384 C   0  0  0  0  0  0  0  0  0  0  0  0
   27.1891  -20.1816  -17.4346 O   0  0  0  0  0  0  0  0  0  0  0  0
   26.9039  -18.4697  -15.9115 N   0  0  0  0  0  0  0  0  0  0  0  0
   26.8141  -19.4485  -14.7977 C   0  0  1  0  0  0  0  0  0  0  0  0
   27.3021  -18.7112  -13.5894 C   0  0  0  0  0  0  0  0  0  0  0  0
   27.1416  -19.3667  -12.3009 C   0  0  0  0  0  0  0  0  0  0  0  0
   27.9948  -20.4289  -11.9600 C   0  0  0  0  0  0  0  0  0  0  0  0
   27.8980  -21.0523  -10.7397 C   0  0  0  0  0  0  0  0  0  0  0  0
   26.9702  -20.6721   -9.7989 C   0  0  0  0  0  0  0  0  0  0  0  0
   26.1332  -19.6471  -10.1047 C   0  0  0  0  0  0  0  0  0  0  0  0
   26.2266  -19.0187  -11.3282 C   0  0  0  0  0  0  0  0  0  0  0  0
   25.3981  -19.8422  -14.6841 C   0  0  0  0  0  0  0  0  0  0  0  0
   24.5402  -18.9143  -14.4632 O   0  0  0  0  0  0  0  0  0  0  0  0
   24.9184  -21.1655  -14.8071 N   0  0  0  0  0  0  0  0  0  0  0  0
   23.5803  -21.4850  -14.3404 C   0  0  1  0  0  0  0  0  0  0  0  0
   23.1792  -22.8521  -14.8058 C   0  0  0  0  0  0  0  0  0  0  0  0
   21.9161  -23.2880  -14.2162 C   0  0  0  0  0  0  0  0  0  0  0  0
   20.7470  -22.5302  -14.1545 C   0  0  0  0  0  0  0  0  0  0  0  0
   19.7944  -23.2202  -13.5128 N   0  0  0  0  0  0  0  0  0  0  0  0
   20.2688  -24.4129  -13.1388 C   0  0  0  0  0  0  0  0  0  0  0  0
   19.6445  -25.4456  -12.4783 C   0  0  0  0  0  0  0  0  0  0  0  0
   20.3720  -26.6049  -12.2318 C   0  0  0  0  0  0  0  0  0  0  0  0
   21.6892  -26.6699  -12.6603 C   0  0  0  0  0  0  0  0  0  0  0  0
   22.2911  -25.6214  -13.3190 C   0  0  0  0  0  0  0  0  0  0  0  0
   21.5955  -24.4744  -13.5704 C   0  0  0  0  0  0  0  0  0  0  0  0
   23.3521  -21.2863  -12.9178 C   0  0  0  0  0  0  0  0  0  0  0  0
   22.4051  -20.5551  -12.5006 O   0  0  0  0  0  0  0  0  0  0  0  0
   24.1930  -21.9147  -11.9923 O   0  0  0  0  0  0  0  0  0  0  0  0
  2  1  1  6
  2  3  1  0
  4  3  1  0
  4  5  2  0
  6  5  1  0
  7  6  2  0
  8  9  2  0
  8  7  1  0
  9  4  1  0
 10 11  2  0
 10  2  1  0
 12 10  1  0
 13 21  1  0
 13 12  1  0
 13 14  1  1
 15 14  1  0
 15 16  2  0
 17 16  1  0
 18 17  2  0
 19 20  2  0
 19 18  1  0
 20 15  1  0
 21 22  2  0
 23 24  1  0
 23 21  1  0
 24 25  1  1
 25 26  1  0
 26 34  1  0
 26 27  2  0
 27 28  1  0
 29 28  1  0
 29 30  2  0
 31 30  1  0
 32 31  2  0
 33 32  1  0
 33 34  2  0
 34 29  1  0
 35 24  1  0
 36 35  2  0
 37 35  1  0
M  END
$$$$
