FFW.pdb
     RDKit          3D

 37 40  0  0  1  0  0  0  0  0999 V2000
   27.7989  -23.3617  -17.0741 N   0  0  0  0  0  0  0  0  0  0  0  0
   27.2681  -22.0720  -16.7210 C   0  0  1  0  0  0  0  0  0  0  0  0
   26.2951  -21.6052  -17.7838 C   0  0  0  0  0  0  0  0  0  0  0  0
   27.0749  -21.2319  -18.9882 C   0  0  0  0  0  0  0  0  0  0  0  0
   26.9404  -22.0449  -20.0947 C   0  0  0  0  0  0  0  0  0  0  0  0
   27.6541  -21.7130  -21.2254 C   0  0  0  0  0  0  0  0  0  0  0  0
   28.4774  -20.5977  -21.2419 C   0  0  0  0  0  0  0  0  0  0  0  0
   28.6063  -19.7909  -20.1333 C   0  0  0  0  0  0  0  0  0  0  0  0
   27.9019  -20.1057  -18.9945 C   0  0  0  0  0  0  0  0  0  0  0  0
   26.6234  -22.1661  -15.3920 C   0  0  0  0  0  0  0  0  0  0  0  0
   25.8327  -23.1253  -15.1047 O   0  0  0  0  0  0  0  0  0  0  0  0
   26.8686  -21.1875  -14.3953 N   0  0  0  0  0  0  0  0  0  0  0  0
   26.2301  -21.3112  -13.0599 C   0  0  1  0  0  0  0  0  0  0  0  0
   27.0661  -20.4685  -12.1474 C   0  0  0  0  0  0  0  0  0  0  0  0
   26.5993  -20.3054  -10.7795 C   0  0  0  0  0  0  0  0  0  0  0  0
   26.8413  -21.3256   -9.8452 C   0  0  0  0  0  0  0  0  0  0  0  0
   26.4465  -21.1959   -8.5359 C   0  0  0  0  0  0  0  0  0  0  0  0
   25.8007  -20.0720   -8.0775 C   0  0  0  0  0  0  0  0  0  0  0  0
   25.5548  -19.0710   -8.9619 C   0  0  0  0  0  0  0  0  0  0  0  0
   25.9490  -19.1968  -10.2769 C   0  0  0  0  0  0  0  0  0  0  0  0
   24.8528  -20.8026  -13.1927 C   0  0  0  0  0  0  0  0  0  0  0  0
   24.7010  -19.6143  -13.6518 O   0  0  0  0  0  0  0  0  0  0  0  0
   23.6899  -21.5315  -12.8572 N   0  0  0  0  0  0  0  0  0  0  0  0
   22.4373  -20.8232  -12.6585 C   0  0  1  0  0  0  0  0  0  0  0  0
   21.5443  -21.0006  -13.8492 C   0  0  0  0  0  0  0  0  0  0  0  0
   21.3562  -19.7556  -14.5893 C   0  0  0  0  0  0  0  0  0  0  0  0
   20.9160  -18.5491  -14.0459 C   0  0  0  0  0  0  0  0  0  0  0  0
   20.8189  -17.6266  -15.0126 N   0  0  0  0  0  0  0  0  0  0  0  0
   21.1758  -18.1571  -16.1868 C   0  0  0  0  0  0  0  0  0  0  0  0
   21.2468  -17.5797  -17.4334 C   0  0  0  0  0  0  0  0  0  0  0  0
   21.6798  -18.3625  -18.4981 C   0  0  0  0  0  0  0  0  0  0  0  0
   22.0198  -19.6854  -18.2587 C   0  0  0  0  0  0  0  0  0  0  0  0
   21.9391  -20.2398  -17.0010 C   0  0  0  0  0  0  0  0  0  0  0  0
   21.5159  -19.4894  -15.9425 C   0  0  0  0  0  0  0  0  0  0  0  0
   21.7586  -21.0969  -11.4016 C   0  0  0  0  0  0  0  0  0  0  0  0
   22.2649  -21.8732  -10.5375 O   0  0  0  0  0  0  0  0  0  0  0  0
   20.5241  -20.4914  -11.1407 O   0  0  0  0  0  0  0  0  0  0  0  0
  2  1  1  6
  2  3  1  0
  4  3  1  0
  4  5  2  0
  6  5  1  0
  7  6  2  0
  8  9  2  0
  8  7  1  0
  9  4  1  0
 10 11  2  0
 10  2  1  0
 12 10  1  0
 13 21  1  0
 13 12  1  0
 13 14  1  1
 15 14  1  0
 15 16  2  0
 17 16  1  0
 18 17  2  0
 19 20  2  0
 19 18  1  0
 20 15  1  0
 21 22  2  0
 23 24  1  0
 23 21  1  0
 24 25  1  6
 25 26  1  0
 26 34  1  0
 26 27  2  0
 27 28  1  0
 29 28  1  0
 29 30  2  0
 31 30  1  0
 32 31  2  0
 33 32  1  0
 33 34  2  0
 34 29  1  0
 35 24  1  0
 36 35  2  0
 37 35  1  0
M  END
$$$$
