FFW.pdb
     RDKit          3D

 37 40  0  0  1  0  0  0  0  0999 V2000
   32.4338  -34.2157   -7.4477 N   0  0  0  0  0  0  0  0  0  0  0  0
   32.3591  -34.7062   -6.0973 C   0  0  1  0  0  0  0  0  0  0  0  0
   33.5458  -34.2062   -5.2997 C   0  0  0  0  0  0  0  0  0  0  0  0
   34.0179  -35.3144   -4.4353 C   0  0  0  0  0  0  0  0  0  0  0  0
   34.8139  -36.2722   -5.0288 C   0  0  0  0  0  0  0  0  0  0  0  0
   35.2660  -37.3085   -4.2416 C   0  0  0  0  0  0  0  0  0  0  0  0
   34.9274  -37.3785   -2.8990 C   0  0  0  0  0  0  0  0  0  0  0  0
   34.1323  -36.4184   -2.3138 C   0  0  0  0  0  0  0  0  0  0  0  0
   33.6709  -35.3757   -3.0833 C   0  0  0  0  0  0  0  0  0  0  0  0
   31.0763  -34.2728   -5.4997 C   0  0  0  0  0  0  0  0  0  0  0  0
   30.7234  -33.0467   -5.5034 O   0  0  0  0  0  0  0  0  0  0  0  0
   30.1985  -35.2138   -4.9038 N   0  0  0  0  0  0  0  0  0  0  0  0
   28.8737  -34.7751   -4.3949 C   0  0  1  0  0  0  0  0  0  0  0  0
   27.9118  -35.0706   -5.5036 C   0  0  0  0  0  0  0  0  0  0  0  0
   27.4033  -33.9384   -6.2620 C   0  0  0  0  0  0  0  0  0  0  0  0
   27.9015  -33.6973   -7.5528 C   0  0  0  0  0  0  0  0  0  0  0  0
   27.4235  -32.6589   -8.3145 C   0  0  0  0  0  0  0  0  0  0  0  0
   26.4428  -31.8108   -7.8569 C   0  0  0  0  0  0  0  0  0  0  0  0
   25.9447  -32.0230   -6.6113 C   0  0  0  0  0  0  0  0  0  0  0  0
   26.4214  -33.0637   -5.8433 C   0  0  0  0  0  0  0  0  0  0  0  0
   28.5956  -35.5653   -3.1819 C   0  0  0  0  0  0  0  0  0  0  0  0
   28.7631  -36.8354   -3.2499 O   0  0  0  0  0  0  0  0  0  0  0  0
   28.1646  -35.0238   -1.9501 N   0  0  0  0  0  0  0  0  0  0  0  0
   27.8801  -35.9163   -0.8397 C   0  0  1  0  0  0  0  0  0  0  0  0
   27.6812  -35.1312    0.4215 C   0  0  0  0  0  0  0  0  0  0  0  0
   27.5668  -35.9920    1.5959 C   0  0  0  0  0  0  0  0  0  0  0  0
   28.5961  -36.2811    2.4913 C   0  0  0  0  0  0  0  0  0  0  0  0
   28.1555  -37.1334    3.4266 N   0  0  0  0  0  0  0  0  0  0  0  0
   26.8717  -37.4323    3.2028 C   0  0  0  0  0  0  0  0  0  0  0  0
   26.0155  -38.2426    3.9119 C   0  0  0  0  0  0  0  0  0  0  0  0
   24.7028  -38.3615    3.4686 C   0  0  0  0  0  0  0  0  0  0  0  0
   24.3150  -37.6615    2.3360 C   0  0  0  0  0  0  0  0  0  0  0  0
   25.1921  -36.8573    1.6436 C   0  0  0  0  0  0  0  0  0  0  0  0
   26.4849  -36.7272    2.0611 C   0  0  0  0  0  0  0  0  0  0  0  0
   26.8190  -36.8832   -1.0729 C   0  0  0  0  0  0  0  0  0  0  0  0
   25.8357  -36.6106   -1.8241 O   0  0  0  0  0  0  0  0  0  0  0  0
   26.8850  -38.1383   -0.4572 O   0  0  0  0  0  0  0  0  0  0  0  0
  2  1  1  6
  2  3  1  0
  4  3  1  0
  4  5  2  0
  6  5  1  0
  7  6  2  0
  8  9  2  0
  8  7  1  0
  9  4  1  0
 10 11  2  0
 10  2  1  0
 12 10  1  0
 13 21  1  0
 13 12  1  0
 13 14  1  6
 15 14  1  0
 15 16  2  0
 17 16  1  0
 18 17  2  0
 19 20  2  0
 19 18  1  0
 20 15  1  0
 21 22  2  0
 23 24  1  0
 23 21  1  0
 24 25  1  1
 25 26  1  0
 26 34  1  0
 26 27  2  0
 27 28  1  0
 29 28  1  0
 29 30  2  0
 31 30  1  0
 32 31  2  0
 33 32  1  0
 33 34  2  0
 34 29  1  0
 35 24  1  0
 36 35  2  0
 37 35  1  0
M  END
$$$$
