FFW.pdb
     RDKit          3D

 37 40  0  0  1  0  0  0  0  0999 V2000
   29.1888  -24.5461  -16.6542 N   0  0  0  0  0  0  0  0  0  0  0  0
   28.3170  -23.8977  -17.5971 C   0  0  1  0  0  0  0  0  0  0  0  0
   27.2323  -24.8569  -18.0418 C   0  0  0  0  0  0  0  0  0  0  0  0
   27.2071  -24.8664  -19.5241 C   0  0  0  0  0  0  0  0  0  0  0  0
   28.0996  -25.7064  -20.1574 C   0  0  0  0  0  0  0  0  0  0  0  0
   28.0896  -25.7325  -21.5348 C   0  0  0  0  0  0  0  0  0  0  0  0
   27.2087  -24.9381  -22.2523 C   0  0  0  0  0  0  0  0  0  0  0  0
   26.3205  -24.1022  -21.6129 C   0  0  0  0  0  0  0  0  0  0  0  0
   26.3153  -24.0618  -20.2378 C   0  0  0  0  0  0  0  0  0  0  0  0
   27.7500  -22.6831  -16.9696 C   0  0  0  0  0  0  0  0  0  0  0  0
   27.6611  -22.5712  -15.7018 O   0  0  0  0  0  0  0  0  0  0  0  0
   27.2878  -21.6035  -17.7647 N   0  0  0  0  0  0  0  0  0  0  0  0
   26.7169  -20.3949  -17.1168 C   0  0  1  0  0  0  0  0  0  0  0  0
   27.4213  -19.2390  -17.7565 C   0  0  0  0  0  0  0  0  0  0  0  0
   26.9330  -17.9057  -17.4410 C   0  0  0  0  0  0  0  0  0  0  0  0
   26.9917  -17.4492  -16.1142 C   0  0  0  0  0  0  0  0  0  0  0  0
   26.5719  -16.1845  -15.7805 C   0  0  0  0  0  0  0  0  0  0  0  0
   26.0777  -15.3096  -16.7189 C   0  0  0  0  0  0  0  0  0  0  0  0
   26.0106  -15.7275  -18.0094 C   0  0  0  0  0  0  0  0  0  0  0  0
   26.4305  -16.9958  -18.3489 C   0  0  0  0  0  0  0  0  0  0  0  0
   25.2699  -20.3989  -17.3980 C   0  0  0  0  0  0  0  0  0  0  0  0
   24.8939  -20.7683  -18.5677 O   0  0  0  0  0  0  0  0  0  0  0  0
   24.2689  -20.0317  -16.4710 N   0  0  0  0  0  0  0  0  0  0  0  0
   22.8836  -19.9712  -16.9043 C   0  0  1  0  0  0  0  0  0  0  0  0
   21.9780  -19.7716  -15.7268 C   0  0  0  0  0  0  0  0  0  0  0  0
   20.5714  -19.9557  -16.0741 C   0  0  0  0  0  0  0  0  0  0  0  0
   19.8244  -21.1102  -15.8421 C   0  0  0  0  0  0  0  0  0  0  0  0
   18.5835  -20.9497  -16.3214 N   0  0  0  0  0  0  0  0  0  0  0  0
   18.4588  -19.7354  -16.8667 C   0  0  0  0  0  0  0  0  0  0  0  0
   17.3685  -19.1378  -17.4556 C   0  0  0  0  0  0  0  0  0  0  0  0
   17.5049  -17.8363  -17.9259 C   0  0  0  0  0  0  0  0  0  0  0  0
   18.7284  -17.1995  -17.7819 C   0  0  0  0  0  0  0  0  0  0  0  0
   19.8048  -17.8204  -17.1891 C   0  0  0  0  0  0  0  0  0  0  0  0
   19.6927  -19.0976  -16.7214 C   0  0  0  0  0  0  0  0  0  0  0  0
   22.6093  -19.0410  -17.9881 C   0  0  0  0  0  0  0  0  0  0  0  0
   21.9147  -19.3864  -18.9900 O   0  0  0  0  0  0  0  0  0  0  0  0
   23.1211  -17.7400  -17.9236 O   0  0  0  0  0  0  0  0  0  0  0  0
  2  1  1  1
  2  3  1  0
  4  3  1  0
  4  5  2  0
  6  5  1  0
  7  6  2  0
  8  9  2  0
  8  7  1  0
  9  4  1  0
 10 11  2  0
 10  2  1  0
 12 10  1  0
 13 21  1  0
 13 12  1  0
 13 14  1  6
 15 14  1  0
 15 16  2  0
 17 16  1  0
 18 17  2  0
 19 20  2  0
 19 18  1  0
 20 15  1  0
 21 22  2  0
 23 24  1  0
 23 21  1  0
 24 25  1  1
 25 26  1  0
 26 34  1  0
 26 27  2  0
 27 28  1  0
 29 28  1  0
 29 30  2  0
 31 30  1  0
 32 31  2  0
 33 32  1  0
 33 34  2  0
 34 29  1  0
 35 24  1  0
 36 35  2  0
 37 35  1  0
M  END
$$$$
