FFW.pdb
     RDKit          3D

 37 40  0  0  1  0  0  0  0  0999 V2000
   28.8935  -23.2794  -11.3315 N   0  0  0  0  0  0  0  0  0  0  0  0
   28.9444  -22.2119  -10.3685 C   0  0  1  0  0  0  0  0  0  0  0  0
   29.9742  -21.1844  -10.7904 C   0  0  0  0  0  0  0  0  0  0  0  0
   31.3182  -21.7239  -10.4729 C   0  0  0  0  0  0  0  0  0  0  0  0
   31.7573  -21.5783   -9.1732 C   0  0  0  0  0  0  0  0  0  0  0  0
   33.0023  -22.0762   -8.8570 C   0  0  0  0  0  0  0  0  0  0  0  0
   33.7809  -22.7014   -9.8187 C   0  0  0  0  0  0  0  0  0  0  0  0
   33.3354  -22.8431  -11.1141 C   0  0  0  0  0  0  0  0  0  0  0  0
   32.0949  -22.3523  -11.4496 C   0  0  0  0  0  0  0  0  0  0  0  0
   27.5959  -21.6152  -10.2419 C   0  0  0  0  0  0  0  0  0  0  0  0
   26.6033  -22.0735  -10.8997 O   0  0  0  0  0  0  0  0  0  0  0  0
   27.3682  -20.5118   -9.3806 N   0  0  0  0  0  0  0  0  0  0  0  0
   26.0390  -20.3290   -8.7432 C   0  0  1  0  0  0  0  0  0  0  0  0
   26.2195  -19.1959   -7.7813 C   0  0  0  0  0  0  0  0  0  0  0  0
   27.0391  -19.4457   -6.6060 C   0  0  0  0  0  0  0  0  0  0  0  0
   27.5051  -18.3577   -5.8500 C   0  0  0  0  0  0  0  0  0  0  0  0
   28.2534  -18.5522   -4.7146 C   0  0  0  0  0  0  0  0  0  0  0  0
   28.5815  -19.8093   -4.2646 C   0  0  0  0  0  0  0  0  0  0  0  0
   28.1427  -20.8782   -4.9785 C   0  0  0  0  0  0  0  0  0  0  0  0
   27.3916  -20.6878   -6.1186 C   0  0  0  0  0  0  0  0  0  0  0  0
   25.0858  -20.0074   -9.8207 C   0  0  0  0  0  0  0  0  0  0  0  0
   25.5678  -19.5930  -10.9350 O   0  0  0  0  0  0  0  0  0  0  0  0
   23.6820  -20.1287   -9.7160 N   0  0  0  0  0  0  0  0  0  0  0  0
   22.9095  -20.5030  -10.8879 C   0  0  1  0  0  0  0  0  0  0  0  0
   23.7418  -21.3349  -11.8162 C   0  0  0  0  0  0  0  0  0  0  0  0
   24.1472  -20.5947  -13.0082 C   0  0  0  0  0  0  0  0  0  0  0  0
   25.2966  -19.8137  -13.1245 C   0  0  0  0  0  0  0  0  0  0  0  0
   25.3370  -19.2467  -14.3378 N   0  0  0  0  0  0  0  0  0  0  0  0
   24.2645  -19.6116  -15.0477 C   0  0  0  0  0  0  0  0  0  0  0  0
   23.9049  -19.2897  -16.3360 C   0  0  0  0  0  0  0  0  0  0  0  0
   22.7321  -19.8340  -16.8479 C   0  0  0  0  0  0  0  0  0  0  0  0
   21.9788  -20.6740  -16.0417 C   0  0  0  0  0  0  0  0  0  0  0  0
   22.3606  -20.9799  -14.7547 C   0  0  0  0  0  0  0  0  0  0  0  0
   23.5075  -20.4560  -14.2326 C   0  0  0  0  0  0  0  0  0  0  0  0
   21.6098  -21.0959  -10.6147 C   0  0  0  0  0  0  0  0  0  0  0  0
   20.6915  -21.0959  -11.4878 O   0  0  0  0  0  0  0  0  0  0  0  0
   21.3686  -21.6779   -9.3650 O   0  0  0  0  0  0  0  0  0  0  0  0
  2  1  1  6
  2  3  1  0
  4  3  1  0
  4  5  2  0
  6  5  1  0
  7  6  2  0
  8  9  2  0
  8  7  1  0
  9  4  1  0
 10 11  2  0
 10  2  1  0
 12 10  1  0
 13 21  1  0
 13 12  1  0
 13 14  1  1
 15 14  1  0
 15 16  2  0
 17 16  1  0
 18 17  2  0
 19 20  2  0
 19 18  1  0
 20 15  1  0
 21 22  2  0
 23 24  1  0
 23 21  1  0
 24 25  1  1
 25 26  1  0
 26 34  1  0
 26 27  2  0
 27 28  1  0
 29 28  1  0
 29 30  2  0
 31 30  1  0
 32 31  2  0
 33 32  1  0
 33 34  2  0
 34 29  1  0
 35 24  1  0
 36 35  2  0
 37 35  1  0
M  END
$$$$
