FFW.pdb
     RDKit          3D

 37 40  0  0  1  0  0  0  0  0999 V2000
   19.4203  -14.1725   11.1531 N   0  0  0  0  0  0  0  0  0  0  0  0
   19.6435  -15.4328   10.4962 C   0  0  1  0  0  0  0  0  0  0  0  0
   19.1499  -16.5661   11.3715 C   0  0  0  0  0  0  0  0  0  0  0  0
   20.1091  -16.7343   12.4893 C   0  0  0  0  0  0  0  0  0  0  0  0
   19.7289  -16.2342   13.7176 C   0  0  0  0  0  0  0  0  0  0  0  0
   20.6049  -16.3836   14.7703 C   0  0  0  0  0  0  0  0  0  0  0  0
   21.8254  -17.0167   14.5924 C   0  0  0  0  0  0  0  0  0  0  0  0
   22.1977  -17.5135   13.3631 C   0  0  0  0  0  0  0  0  0  0  0  0
   21.3367  -17.3739   12.2994 C   0  0  0  0  0  0  0  0  0  0  0  0
   18.9598  -15.4173    9.1836 C   0  0  0  0  0  0  0  0  0  0  0  0
   17.8078  -14.8873    9.0419 O   0  0  0  0  0  0  0  0  0  0  0  0
   19.5699  -15.9936    8.0404 N   0  0  0  0  0  0  0  0  0  0  0  0
   18.8640  -15.9763    6.7335 C   0  0  1  0  0  0  0  0  0  0  0  0
   19.7976  -15.2777    5.7944 C   0  0  0  0  0  0  0  0  0  0  0  0
   19.8652  -13.8273    5.8807 C   0  0  0  0  0  0  0  0  0  0  0  0
   20.9872  -13.2264    6.4742 C   0  0  0  0  0  0  0  0  0  0  0  0
   21.1050  -11.8596    6.5451 C   0  0  0  0  0  0  0  0  0  0  0  0
   20.1401  -11.0182    6.0437 C   0  0  0  0  0  0  0  0  0  0  0  0
   19.0449  -11.5751    5.4647 C   0  0  0  0  0  0  0  0  0  0  0  0
   18.9224  -12.9462    5.3915 C   0  0  0  0  0  0  0  0  0  0  0  0
   18.6285  -17.3810    6.3532 C   0  0  0  0  0  0  0  0  0  0  0  0
   19.6383  -18.1723    6.3514 O   0  0  0  0  0  0  0  0  0  0  0  0
   17.3713  -17.9184    5.9973 N   0  0  0  0  0  0  0  0  0  0  0  0
   17.2838  -19.3035    5.5682 C   0  0  1  0  0  0  0  0  0  0  0  0
   16.4456  -20.0937    6.5271 C   0  0  0  0  0  0  0  0  0  0  0  0
   16.3664  -21.5048    6.1588 C   0  0  0  0  0  0  0  0  0  0  0  0
   17.3592  -22.4576    6.3847 C   0  0  0  0  0  0  0  0  0  0  0  0
   16.9735  -23.6396    5.8852 N   0  0  0  0  0  0  0  0  0  0  0  0
   15.7615  -23.5272    5.3320 C   0  0  0  0  0  0  0  0  0  0  0  0
   14.9754  -24.4780    4.7232 C   0  0  0  0  0  0  0  0  0  0  0  0
   13.7260  -24.0939    4.2486 C   0  0  0  0  0  0  0  0  0  0  0  0
   13.3279  -22.7753    4.4086 C   0  0  0  0  0  0  0  0  0  0  0  0
   14.1342  -21.8425    5.0212 C   0  0  0  0  0  0  0  0  0  0  0  0
   15.3643  -22.1981    5.4934 C   0  0  0  0  0  0  0  0  0  0  0  0
   16.8910  -19.5033    4.1821 C   0  0  0  0  0  0  0  0  0  0  0  0
   17.3805  -20.4452    3.4902 O   0  0  0  0  0  0  0  0  0  0  0  0
   15.9547  -18.6401    3.6016 O   0  0  0  0  0  0  0  0  0  0  0  0
  2  1  1  1
  2  3  1  0
  4  3  1  0
  4  5  2  0
  6  5  1  0
  7  6  2  0
  8  9  2  0
  8  7  1  0
  9  4  1  0
 10 11  2  0
 10  2  1  0
 12 10  1  0
 13 21  1  0
 13 12  1  0
 13 14  1  6
 15 14  1  0
 15 16  2  0
 17 16  1  0
 18 17  2  0
 19 20  2  0
 19 18  1  0
 20 15  1  0
 21 22  2  0
 23 24  1  0
 23 21  1  0
 24 25  1  1
 25 26  1  0
 26 34  1  0
 26 27  2  0
 27 28  1  0
 29 28  1  0
 29 30  2  0
 31 30  1  0
 32 31  2  0
 33 32  1  0
 33 34  2  0
 34 29  1  0
 35 24  1  0
 36 35  2  0
 37 35  1  0
M  END
$$$$
