FFW.pdb
     RDKit          3D

 37 40  0  0  1  0  0  0  0  0999 V2000
   28.5690  -20.5605  -14.6030 N   0  0  0  0  0  0  0  0  0  0  0  0
   27.4483  -19.7538  -14.1994 C   0  0  1  0  0  0  0  0  0  0  0  0
   26.8442  -19.0677  -15.4072 C   0  0  0  0  0  0  0  0  0  0  0  0
   27.7338  -17.9452  -15.7904 C   0  0  0  0  0  0  0  0  0  0  0  0
   28.5575  -18.1463  -16.8787 C   0  0  0  0  0  0  0  0  0  0  0  0
   29.3894  -17.1139  -17.2532 C   0  0  0  0  0  0  0  0  0  0  0  0
   29.3920  -15.9166  -16.5542 C   0  0  0  0  0  0  0  0  0  0  0  0
   28.5666  -15.7235  -15.4689 C   0  0  0  0  0  0  0  0  0  0  0  0
   27.7287  -16.7426  -15.0793 C   0  0  0  0  0  0  0  0  0  0  0  0
   26.4620  -20.6142  -13.5084 C   0  0  0  0  0  0  0  0  0  0  0  0
   26.3419  -21.8508  -13.7987 O   0  0  0  0  0  0  0  0  0  0  0  0
   25.6188  -20.0851  -12.4984 N   0  0  0  0  0  0  0  0  0  0  0  0
   24.6872  -20.9796  -11.7645 C   0  0  1  0  0  0  0  0  0  0  0  0
   24.5506  -20.3700  -10.4039 C   0  0  0  0  0  0  0  0  0  0  0  0
   25.7337  -20.3604   -9.5578 C   0  0  0  0  0  0  0  0  0  0  0  0
   26.6604  -21.4105   -9.6616 C   0  0  0  0  0  0  0  0  0  0  0  0
   27.8067  -21.4216   -8.9047 C   0  0  0  0  0  0  0  0  0  0  0  0
   28.1026  -20.4153   -8.0157 C   0  0  0  0  0  0  0  0  0  0  0  0
   27.2219  -19.3882   -7.8969 C   0  0  0  0  0  0  0  0  0  0  0  0
   26.0702  -19.3730   -8.6543 C   0  0  0  0  0  0  0  0  0  0  0  0
   23.4161  -20.9828  -12.5111 C   0  0  0  0  0  0  0  0  0  0  0  0
   22.8618  -19.8494  -12.7435 O   0  0  0  0  0  0  0  0  0  0  0  0
   22.7691  -22.1424  -12.9936 N   0  0  0  0  0  0  0  0  0  0  0  0
   21.5041  -22.0129  -13.6959 C   0  0  1  0  0  0  0  0  0  0  0  0
   21.4074  -23.0357  -14.7873 C   0  0  0  0  0  0  0  0  0  0  0  0
   20.1747  -22.9048  -15.5596 C   0  0  0  0  0  0  0  0  0  0  0  0
   19.9169  -21.9200  -16.5127 C   0  0  0  0  0  0  0  0  0  0  0  0
   18.6769  -22.0729  -16.9967 N   0  0  0  0  0  0  0  0  0  0  0  0
   18.0852  -23.1198  -16.4125 C   0  0  0  0  0  0  0  0  0  0  0  0
   16.8325  -23.6525  -16.6116 C   0  0  0  0  0  0  0  0  0  0  0  0
   16.4712  -24.7775  -15.8783 C   0  0  0  0  0  0  0  0  0  0  0  0
   17.3847  -25.3115  -14.9820 C   0  0  0  0  0  0  0  0  0  0  0  0
   18.6325  -24.7586  -14.8008 C   0  0  0  0  0  0  0  0  0  0  0  0
   19.0070  -23.6542  -15.5098 C   0  0  0  0  0  0  0  0  0  0  0  0
   20.3216  -21.9807  -12.8498 C   0  0  0  0  0  0  0  0  0  0  0  0
   20.2233  -22.7264  -11.8301 O   0  0  0  0  0  0  0  0  0  0  0  0
   19.2729  -21.1097  -13.1667 O   0  0  0  0  0  0  0  0  0  0  0  0
  2  1  1  6
  2  3  1  0
  4  3  1  0
  4  5  2  0
  6  5  1  0
  7  6  2  0
  8  9  2  0
  8  7  1  0
  9  4  1  0
 10 11  2  0
 10  2  1  0
 12 10  1  0
 13 21  1  0
 13 12  1  0
 13 14  1  1
 15 14  1  0
 15 16  2  0
 17 16  1  0
 18 17  2  0
 19 20  2  0
 19 18  1  0
 20 15  1  0
 21 22  2  0
 23 24  1  0
 23 21  1  0
 24 25  1  6
 25 26  1  0
 26 34  1  0
 26 27  2  0
 27 28  1  0
 29 28  1  0
 29 30  2  0
 31 30  1  0
 32 31  2  0
 33 32  1  0
 33 34  2  0
 34 29  1  0
 35 24  1  0
 36 35  2  0
 37 35  1  0
M  END
$$$$
