FFW.pdb
     RDKit          3D

 37 40  0  0  1  0  0  0  0  0999 V2000
   27.5180  -21.8050  -13.6560 N   0  0  0  0  0  0  0  0  0  0  0  0
   27.6541  -20.6752  -12.7758 C   0  0  1  0  0  0  0  0  0  0  0  0
   26.7999  -19.5273  -13.2728 C   0  0  0  0  0  0  0  0  0  0  0  0
   27.4347  -18.9781  -14.4949 C   0  0  0  0  0  0  0  0  0  0  0  0
   26.8390  -19.2883  -15.6999 C   0  0  0  0  0  0  0  0  0  0  0  0
   27.4117  -18.7845  -16.8472 C   0  0  0  0  0  0  0  0  0  0  0  0
   28.5482  -17.9932  -16.7836 C   0  0  0  0  0  0  0  0  0  0  0  0
   29.1370  -17.6879  -15.5767 C   0  0  0  0  0  0  0  0  0  0  0  0
   28.5801  -18.1816  -14.4197 C   0  0  0  0  0  0  0  0  0  0  0  0
   27.2749  -21.0862  -11.4054 C   0  0  0  0  0  0  0  0  0  0  0  0
   26.4059  -21.9982  -11.2029 O   0  0  0  0  0  0  0  0  0  0  0  0
   27.8710  -20.4749  -10.2731 N   0  0  0  0  0  0  0  0  0  0  0  0
   27.4750  -20.8987   -8.9056 C   0  0  1  0  0  0  0  0  0  0  0  0
   28.6244  -20.5106   -8.0281 C   0  0  0  0  0  0  0  0  0  0  0  0
   28.3711  -20.4288   -6.5981 C   0  0  0  0  0  0  0  0  0  0  0  0
   27.9733  -19.2028   -6.0404 C   0  0  0  0  0  0  0  0  0  0  0  0
   27.6920  -19.0917   -4.7004 C   0  0  0  0  0  0  0  0  0  0  0  0
   27.7846  -20.1642   -3.8451 C   0  0  0  0  0  0  0  0  0  0  0  0
   28.1676  -21.3611   -4.3603 C   0  0  0  0  0  0  0  0  0  0  0  0
   28.4510  -21.4773   -5.7044 C   0  0  0  0  0  0  0  0  0  0  0  0
   26.2385  -20.1694   -8.5703 C   0  0  0  0  0  0  0  0  0  0  0  0
   26.2524  -18.8921   -8.6890 O   0  0  0  0  0  0  0  0  0  0  0  0
   25.0394  -20.7763   -8.1343 N   0  0  0  0  0  0  0  0  0  0  0  0
   23.7752  -20.3514   -8.7099 C   0  0  1  0  0  0  0  0  0  0  0  0
   23.8417  -20.4006  -10.2065 C   0  0  0  0  0  0  0  0  0  0  0  0
   22.5615  -20.0717  -10.8277 C   0  0  0  0  0  0  0  0  0  0  0  0
   21.4375  -19.5877  -10.1589 C   0  0  0  0  0  0  0  0  0  0  0  0
   20.4277  -19.4325  -11.0257 N   0  0  0  0  0  0  0  0  0  0  0  0
   20.8208  -19.7899  -12.2526 C   0  0  0  0  0  0  0  0  0  0  0  0
   20.1296  -19.7765  -13.4419 C   0  0  0  0  0  0  0  0  0  0  0  0
   20.7937  -20.1826  -14.5942 C   0  0  0  0  0  0  0  0  0  0  0  0
   22.1181  -20.5819  -14.4955 C   0  0  0  0  0  0  0  0  0  0  0  0
   22.7872  -20.5868  -13.2923 C   0  0  0  0  0  0  0  0  0  0  0  0
   22.1540  -20.1928  -12.1493 C   0  0  0  0  0  0  0  0  0  0  0  0
   22.5941  -21.0130   -8.1781 C   0  0  0  0  0  0  0  0  0  0  0  0
   22.4294  -22.2631   -8.3032 O   0  0  0  0  0  0  0  0  0  0  0  0
   21.6218  -20.2556   -7.5151 O   0  0  0  0  0  0  0  0  0  0  0  0
  2  1  1  6
  2  3  1  0
  4  3  1  0
  4  5  2  0
  6  5  1  0
  7  6  2  0
  8  9  2  0
  8  7  1  0
  9  4  1  0
 10 11  2  0
 10  2  1  0
 12 10  1  0
 13 21  1  0
 13 12  1  0
 13 14  1  1
 15 14  1  0
 15 16  2  0
 17 16  1  0
 18 17  2  0
 19 20  2  0
 19 18  1  0
 20 15  1  0
 21 22  2  0
 23 24  1  0
 23 21  1  0
 24 25  1  6
 25 26  1  0
 26 34  1  0
 26 27  2  0
 27 28  1  0
 29 28  1  0
 29 30  2  0
 31 30  1  0
 32 31  2  0
 33 32  1  0
 33 34  2  0
 34 29  1  0
 35 24  1  0
 36 35  2  0
 37 35  1  0
M  END
$$$$
