FFW.pdb
     RDKit          3D

 37 40  0  0  1  0  0  0  0  0999 V2000
   27.7596  -21.3780  -17.2151 N   0  0  0  0  0  0  0  0  0  0  0  0
   27.2240  -20.3240  -16.3955 C   0  0  1  0  0  0  0  0  0  0  0  0
   25.9864  -19.7417  -17.0465 C   0  0  0  0  0  0  0  0  0  0  0  0
   26.4231  -18.8480  -18.1459 C   0  0  0  0  0  0  0  0  0  0  0  0
   26.2803  -19.3261  -19.4320 C   0  0  0  0  0  0  0  0  0  0  0  0
   26.6769  -18.5093  -20.4680 C   0  0  0  0  0  0  0  0  0  0  0  0
   27.2010  -17.2505  -20.2174 C   0  0  0  0  0  0  0  0  0  0  0  0
   27.3403  -16.7801  -18.9305 C   0  0  0  0  0  0  0  0  0  0  0  0
   26.9500  -17.5811  -17.8824 C   0  0  0  0  0  0  0  0  0  0  0  0
   26.9313  -20.8647  -15.0492 C   0  0  0  0  0  0  0  0  0  0  0  0
   26.4043  -22.0167  -14.8971 O   0  0  0  0  0  0  0  0  0  0  0  0
   27.2309  -20.1134  -13.8843 N   0  0  0  0  0  0  0  0  0  0  0  0
   26.9047  -20.6613  -12.5427 C   0  0  1  0  0  0  0  0  0  0  0  0
   27.7705  -19.8990  -11.5883 C   0  0  0  0  0  0  0  0  0  0  0  0
   27.5122  -20.0781  -10.1681 C   0  0  0  0  0  0  0  0  0  0  0  0
   28.1881  -21.0920   -9.4699 C   0  0  0  0  0  0  0  0  0  0  0  0
   27.9976  -21.2723   -8.1215 C   0  0  0  0  0  0  0  0  0  0  0  0
   27.1439  -20.4774   -7.3936 C   0  0  0  0  0  0  0  0  0  0  0  0
   26.4782  -19.4897   -8.0461 C   0  0  0  0  0  0  0  0  0  0  0  0
   26.6661  -19.3051   -9.3992 C   0  0  0  0  0  0  0  0  0  0  0  0
   25.4682  -20.4196  -12.3170 C   0  0  0  0  0  0  0  0  0  0  0  0
   24.9748  -19.3210  -12.7590 O   0  0  0  0  0  0  0  0  0  0  0  0
   24.5961  -21.3128  -11.6552 N   0  0  0  0  0  0  0  0  0  0  0  0
   23.1843  -20.9862  -11.5529 C   0  0  1  0  0  0  0  0  0  0  0  0
   22.4020  -21.7247  -12.5965 C   0  0  0  0  0  0  0  0  0  0  0  0
   20.9737  -21.4270  -12.5301 C   0  0  0  0  0  0  0  0  0  0  0  0
   20.4093  -20.2910  -11.9507 C   0  0  0  0  0  0  0  0  0  0  0  0
   19.0736  -20.3591  -12.0302 N   0  0  0  0  0  0  0  0  0  0  0  0
   18.7102  -21.4923  -12.6395 C   0  0  0  0  0  0  0  0  0  0  0  0
   17.4570  -21.9661  -12.9519 C   0  0  0  0  0  0  0  0  0  0  0  0
   17.3603  -23.1817  -13.6204 C   0  0  0  0  0  0  0  0  0  0  0  0
   18.5257  -23.8610  -13.9419 C   0  0  0  0  0  0  0  0  0  0  0  0
   19.7684  -23.3651  -13.6172 C   0  0  0  0  0  0  0  0  0  0  0  0
   19.8858  -22.1744  -12.9605 C   0  0  0  0  0  0  0  0  0  0  0  0
   22.6091  -21.1156  -10.2233 C   0  0  0  0  0  0  0  0  0  0  0  0
   21.8023  -20.2502   -9.7698 O   0  0  0  0  0  0  0  0  0  0  0  0
   22.9520  -22.2164   -9.4300 O   0  0  0  0  0  0  0  0  0  0  0  0
  2  1  1  6
  2  3  1  0
  4  3  1  0
  4  5  2  0
  6  5  1  0
  7  6  2  0
  8  9  2  0
  8  7  1  0
  9  4  1  0
 10 11  2  0
 10  2  1  0
 12 10  1  0
 13 21  1  0
 13 12  1  0
 13 14  1  1
 15 14  1  0
 15 16  2  0
 17 16  1  0
 18 17  2  0
 19 20  2  0
 19 18  1  0
 20 15  1  0
 21 22  2  0
 23 24  1  0
 23 21  1  0
 24 25  1  6
 25 26  1  0
 26 34  1  0
 26 27  2  0
 27 28  1  0
 29 28  1  0
 29 30  2  0
 31 30  1  0
 32 31  2  0
 33 32  1  0
 33 34  2  0
 34 29  1  0
 35 24  1  0
 36 35  2  0
 37 35  1  0
M  END
$$$$
