SVI.pdb
     RDKit          3D

 22 21  0  0  1  0  0  0  0  0999 V2000
   18.1705  -10.8298  -20.4109 O   0  0  0  0  0  0  0  0  0  0  0  0
   18.2828  -10.5101  -19.0697 C   0  0  0  0  0  0  0  0  0  0  0  0
   19.1291  -11.5654  -18.3919 C   0  0  2  0  0  0  0  0  0  0  0  0
   18.3391  -12.7173  -18.0233 N   0  0  0  0  0  0  0  0  0  0  0  0
   19.7417  -11.0010  -17.1626 C   0  0  0  0  0  0  0  0  0  0  0  0
   19.0772  -10.8699  -16.0910 O   0  0  0  0  0  0  0  0  0  0  0  0
   23.9763  -10.2983  -16.7516 C   0  0  0  0  0  0  0  0  0  0  0  0
   23.0318  -10.5843  -15.6034 C   0  0  1  0  0  0  0  0  0  0  0  0
   23.5459   -9.8024  -14.3990 C   0  0  0  0  0  0  0  0  0  0  0  0
   21.6633   -9.9707  -15.9313 C   0  0  2  0  0  0  0  0  0  0  0  0
   21.1004  -10.5757  -17.1111 N   0  0  0  0  0  0  0  0  0  0  0  0
   21.7800   -8.4820  -16.0844 C   0  0  0  0  0  0  0  0  0  0  0  0
   22.2088   -8.0028  -17.1510 O   0  0  0  0  0  0  0  0  0  0  0  0
   19.8346   -3.5809  -16.9540 C   0  0  0  0  0  0  0  0  0  0  0  0
   20.0600   -4.1101  -15.5272 C   0  0  0  0  0  0  0  0  0  0  0  0
   20.0511   -5.6167  -15.5250 C   0  0  2  0  0  0  0  0  0  0  0  0
   18.8850   -6.0605  -14.6725 C   0  0  0  0  0  0  0  0  0  0  0  0
   21.3657   -6.1545  -15.1472 C   0  0  2  0  0  0  0  0  0  0  0  0
   21.4209   -7.5993  -15.0614 N   0  0  0  0  0  0  0  0  0  0  0  0
   21.8316   -5.6506  -13.8408 C   0  0  0  0  0  0  0  0  0  0  0  0
   22.3183   -4.5154  -13.6412 O   0  0  0  0  0  0  0  0  0  0  0  0
   21.7604   -6.4414  -12.6740 O   0  0  0  0  0  0  0  0  0  0  0  0
  2  1  1  0
  3  4  1  1
  3  2  1  0
  5  3  1  0
  6  5  2  0
  8  7  1  6
  8 10  1  0
  9  8  1  0
 10 11  1  6
 10 12  1  0
 11  5  1  0
 12 19  1  0
 13 12  2  0
 15 14  1  0
 16 15  1  0
 16 17  1  1
 18 16  1  0
 18 19  1  1
 20 18  1  0
 20 22  1  0
 21 20  2  0
M  END
$$$$
