SVI.pdb
     RDKit          3D

 22 21  0  0  1  0  0  0  0  0999 V2000
   14.8140  -12.8526  -14.8101 O   0  0  0  0  0  0  0  0  0  0  0  0
   16.0926  -12.5110  -15.2126 C   0  0  0  0  0  0  0  0  0  0  0  0
   16.0457  -12.0985  -16.6676 C   0  0  2  0  0  0  0  0  0  0  0  0
   16.2677  -13.2265  -17.5423 N   0  0  0  0  0  0  0  0  0  0  0  0
   17.0955  -11.0824  -16.9329 C   0  0  0  0  0  0  0  0  0  0  0  0
   18.2180  -11.4027  -17.4275 O   0  0  0  0  0  0  0  0  0  0  0  0
   16.1990   -6.9064  -16.7001 C   0  0  0  0  0  0  0  0  0  0  0  0
   17.1535   -7.5035  -17.7124 C   0  0  1  0  0  0  0  0  0  0  0  0
   18.2486   -6.4701  -17.9549 C   0  0  0  0  0  0  0  0  0  0  0  0
   17.8628   -8.7026  -17.0679 C   0  0  2  0  0  0  0  0  0  0  0  0
   16.9090   -9.6984  -16.6513 N   0  0  0  0  0  0  0  0  0  0  0  0
   18.7165   -8.2505  -15.9188 C   0  0  0  0  0  0  0  0  0  0  0  0
   18.1927   -8.0270  -14.8112 O   0  0  0  0  0  0  0  0  0  0  0  0
   22.9217  -11.1334  -14.9173 C   0  0  0  0  0  0  0  0  0  0  0  0
   21.7296  -10.1736  -14.7606 C   0  0  0  0  0  0  0  0  0  0  0  0
   22.1826   -8.7488  -14.9465 C   0  0  2  0  0  0  0  0  0  0  0  0
   23.2350   -8.4688  -13.8989 C   0  0  0  0  0  0  0  0  0  0  0  0
   21.0380   -7.8271  -14.9709 C   0  0  2  0  0  0  0  0  0  0  0  0
   20.0967   -8.0678  -16.0452 N   0  0  0  0  0  0  0  0  0  0  0  0
   21.4481   -6.4152  -15.0970 C   0  0  0  0  0  0  0  0  0  0  0  0
   21.8132   -5.6861  -14.1481 O   0  0  0  0  0  0  0  0  0  0  0  0
   21.4596   -5.7561  -16.3450 O   0  0  0  0  0  0  0  0  0  0  0  0
  2  1  1  0
  3  4  1  6
  3  2  1  0
  5  3  1  0
  6  5  2  0
  8  7  1  1
  8 10  1  0
  9  8  1  0
 10 11  1  1
 10 12  1  0
 11  5  1  0
 12 19  1  0
 13 12  2  0
 15 14  1  0
 16 15  1  0
 16 17  1  1
 18 16  1  0
 18 19  1  6
 20 18  1  0
 20 22  1  0
 21 20  2  0
M  END
$$$$
