SVI.pdb
     RDKit          3D

 22 21  0  0  1  0  0  0  0  0999 V2000
   27.4861   -9.1608  -20.8852 O   0  0  0  0  0  0  0  0  0  0  0  0
   28.1587   -8.8171  -19.7262 C   0  0  0  0  0  0  0  0  0  0  0  0
   28.5995  -10.0863  -19.0304 C   0  0  2  0  0  0  0  0  0  0  0  0
   27.5301  -10.6533  -18.2420 N   0  0  0  0  0  0  0  0  0  0  0  0
   29.7433   -9.7914  -18.1306 C   0  0  0  0  0  0  0  0  0  0  0  0
   29.5660   -9.3405  -16.9591 O   0  0  0  0  0  0  0  0  0  0  0  0
   34.4187  -10.5257  -16.8440 C   0  0  0  0  0  0  0  0  0  0  0  0
   33.2714  -10.8450  -17.7787 C   0  0  1  0  0  0  0  0  0  0  0  0
   32.6287  -12.1316  -17.2710 C   0  0  0  0  0  0  0  0  0  0  0  0
   32.1943   -9.7630  -17.6187 C   0  0  2  0  0  0  0  0  0  0  0  0
   31.0976   -9.9945  -18.5233 N   0  0  0  0  0  0  0  0  0  0  0  0
   32.7883   -8.3990  -17.8193 C   0  0  0  0  0  0  0  0  0  0  0  0
   33.0163   -7.9886  -18.9728 O   0  0  0  0  0  0  0  0  0  0  0  0
   32.3716   -2.8425  -15.4325 C   0  0  0  0  0  0  0  0  0  0  0  0
   33.2784   -3.8312  -16.1854 C   0  0  0  0  0  0  0  0  0  0  0  0
   32.7032   -5.2219  -16.1124 C   0  0  2  0  0  0  0  0  0  0  0  0
   32.4398   -5.5259  -14.6558 C   0  0  0  0  0  0  0  0  0  0  0  0
   33.5519   -6.1853  -16.8275 C   0  0  2  0  0  0  0  0  0  0  0  0
   33.1001   -7.5590  -16.7461 N   0  0  0  0  0  0  0  0  0  0  0  0
   34.9453   -6.1851  -16.3417 C   0  0  0  0  0  0  0  0  0  0  0  0
   35.7929   -5.2995  -16.5920 O   0  0  0  0  0  0  0  0  0  0  0  0
   35.4456   -7.2234  -15.5271 O   0  0  0  0  0  0  0  0  0  0  0  0
  2  1  1  0
  3  4  1  1
  3  2  1  0
  5  3  1  0
  6  5  2  0
  8  7  1  1
  8 10  1  0
  9  8  1  0
 10 11  1  6
 10 12  1  0
 11  5  1  0
 12 19  1  0
 13 12  2  0
 15 14  1  0
 16 15  1  0
 16 17  1  1
 18 16  1  0
 18 19  1  1
 20 18  1  0
 20 22  1  0
 21 20  2  0
M  END
$$$$
