SVI.pdb
     RDKit          3D

 22 21  0  0  1  0  0  0  0  0999 V2000
   21.6540  -17.9632  -14.7909 O   0  0  0  0  0  0  0  0  0  0  0  0
   22.5434  -18.8828  -14.2648 C   0  0  0  0  0  0  0  0  0  0  0  0
   23.7808  -18.9090  -15.1352 C   0  0  2  0  0  0  0  0  0  0  0  0
   23.4416  -19.0905  -16.5276 N   0  0  0  0  0  0  0  0  0  0  0  0
   24.6635  -20.0268  -14.7153 C   0  0  0  0  0  0  0  0  0  0  0  0
   24.4763  -21.2104  -15.1291 O   0  0  0  0  0  0  0  0  0  0  0  0
   28.3150  -20.0574  -15.0160 C   0  0  0  0  0  0  0  0  0  0  0  0
   28.0971  -20.5551  -13.6028 C   0  0  1  0  0  0  0  0  0  0  0  0
   28.3133  -19.3652  -12.6736 C   0  0  0  0  0  0  0  0  0  0  0  0
   26.6183  -20.9335  -13.4399 C   0  0  2  0  0  0  0  0  0  0  0  0
   25.7644  -19.8412  -13.8304 N   0  0  0  0  0  0  0  0  0  0  0  0
   26.3405  -21.3658  -12.0295 C   0  0  0  0  0  0  0  0  0  0  0  0
   26.8773  -22.3971  -11.5829 O   0  0  0  0  0  0  0  0  0  0  0  0
   27.4910  -19.1847   -7.6006 C   0  0  0  0  0  0  0  0  0  0  0  0
   27.0113  -20.2386   -8.6135 C   0  0  0  0  0  0  0  0  0  0  0  0
   25.5163  -20.1546   -8.7810 C   0  0  2  0  0  0  0  0  0  0  0  0
   24.8956  -20.3887   -7.4233 C   0  0  0  0  0  0  0  0  0  0  0  0
   25.0531  -21.0372   -9.8611 C   0  0  2  0  0  0  0  0  0  0  0  0
   25.4903  -20.6455  -11.1852 N   0  0  0  0  0  0  0  0  0  0  0  0
   23.5819  -21.1291   -9.9282 C   0  0  0  0  0  0  0  0  0  0  0  0
   22.8707  -20.6184  -10.8220 O   0  0  0  0  0  0  0  0  0  0  0  0
   22.8382  -21.8264   -8.9523 O   0  0  0  0  0  0  0  0  0  0  0  0
  2  1  1  0
  3  4  1  6
  3  2  1  0
  5  3  1  0
  6  5  2  0
  8  7  1  6
  8 10  1  0
  9  8  1  0
 10 11  1  1
 10 12  1  0
 11  5  1  0
 12 19  1  0
 13 12  2  0
 15 14  1  0
 16 15  1  0
 16 17  1  1
 18 16  1  0
 18 19  1  6
 20 18  1  0
 20 22  1  0
 21 20  2  0
M  END
$$$$
