SVI.pdb
     RDKit          3D

 22 21  0  0  1  0  0  0  0  0999 V2000
   23.1215  -21.5566   -7.9504 O   0  0  0  0  0  0  0  0  0  0  0  0
   23.3654  -20.7578   -9.0531 C   0  0  0  0  0  0  0  0  0  0  0  0
   24.7383  -21.0905   -9.5952 C   0  0  2  0  0  0  0  0  0  0  0  0
   25.7808  -20.6293   -8.7079 N   0  0  0  0  0  0  0  0  0  0  0  0
   24.9238  -20.4419  -10.9180 C   0  0  0  0  0  0  0  0  0  0  0  0
   25.2902  -19.2323  -11.0175 O   0  0  0  0  0  0  0  0  0  0  0  0
   26.9927  -20.9903  -13.8137 C   0  0  0  0  0  0  0  0  0  0  0  0
   25.6059  -21.0171  -14.4206 C   0  0  1  0  0  0  0  0  0  0  0  0
   25.2139  -22.4835  -14.5703 C   0  0  0  0  0  0  0  0  0  0  0  0
   24.6153  -20.4343  -13.4029 C   0  0  2  0  0  0  0  0  0  0  0  0
   24.7040  -21.1310  -12.1453 N   0  0  0  0  0  0  0  0  0  0  0  0
   23.2181  -20.4731  -13.9506 C   0  0  0  0  0  0  0  0  0  0  0  0
   22.5017  -21.4707  -13.7442 O   0  0  0  0  0  0  0  0  0  0  0  0
   19.8300  -16.7935  -12.7121 C   0  0  0  0  0  0  0  0  0  0  0  0
   20.3934  -18.1377  -13.2045 C   0  0  0  0  0  0  0  0  0  0  0  0
   20.6164  -18.0927  -14.6939 C   0  0  2  0  0  0  0  0  0  0  0  0
   19.2812  -17.8093  -15.3424 C   0  0  0  0  0  0  0  0  0  0  0  0
   21.3164  -19.2972  -15.1622 C   0  0  2  0  0  0  0  0  0  0  0  0
   22.6818  -19.4177  -14.6943 N   0  0  0  0  0  0  0  0  0  0  0  0
   21.3811  -19.3806  -16.6340 C   0  0  0  0  0  0  0  0  0  0  0  0
   20.5645  -19.9962  -17.3549 O   0  0  0  0  0  0  0  0  0  0  0  0
   22.4081  -18.7482  -17.3671 O   0  0  0  0  0  0  0  0  0  0  0  0
  2  1  1  0
  3  4  1  1
  3  2  1  0
  5  3  1  0
  6  5  2  0
  8  7  1  1
  8 10  1  0
  9  8  1  0
 10 11  1  1
 10 12  1  0
 11  5  1  0
 12 19  1  0
 13 12  2  0
 15 14  1  0
 16 15  1  0
 16 17  1  6
 18 16  1  0
 18 19  1  1
 20 18  1  0
 20 22  1  0
 21 20  2  0
M  END
$$$$
