SVI.pdb
     RDKit          3D

 22 21  0  0  1  0  0  0  0  0999 V2000
   13.1603   -7.3836  -15.5345 O   0  0  0  0  0  0  0  0  0  0  0  0
   14.3631   -7.9252  -15.9513 C   0  0  0  0  0  0  0  0  0  0  0  0
   14.7565   -7.2754  -17.2599 C   0  0  2  0  0  0  0  0  0  0  0  0
   14.1745   -7.9665  -18.3870 N   0  0  0  0  0  0  0  0  0  0  0  0
   16.2342   -7.2981  -17.4046 C   0  0  0  0  0  0  0  0  0  0  0  0
   16.8350   -8.2913  -17.9143 O   0  0  0  0  0  0  0  0  0  0  0  0
   18.2798   -5.1715  -19.3829 C   0  0  0  0  0  0  0  0  0  0  0  0
   18.9522   -5.0634  -18.0308 C   0  0  1  0  0  0  0  0  0  0  0  0
   18.3928   -3.8162  -17.3540 C   0  0  0  0  0  0  0  0  0  0  0  0
   18.4902   -6.2396  -17.1592 C   0  0  2  0  0  0  0  0  0  0  0  0
   17.0606   -6.2165  -16.9842 N   0  0  0  0  0  0  0  0  0  0  0  0
   19.2018   -6.2234  -15.8376 C   0  0  0  0  0  0  0  0  0  0  0  0
   18.6255   -5.7684  -14.8317 O   0  0  0  0  0  0  0  0  0  0  0  0
   22.8850  -10.0322  -12.9125 C   0  0  0  0  0  0  0  0  0  0  0  0
   22.3661   -8.5866  -13.0003 C   0  0  0  0  0  0  0  0  0  0  0  0
   21.8017   -8.3202  -14.3716 C   0  0  2  0  0  0  0  0  0  0  0  0
   22.8990   -8.5957  -15.3733 C   0  0  0  0  0  0  0  0  0  0  0  0
   21.1859   -6.9875  -14.4422 C   0  0  2  0  0  0  0  0  0  0  0  0
   20.5055   -6.7063  -15.6896 N   0  0  0  0  0  0  0  0  0  0  0  0
   22.1647   -5.8988  -14.2574 C   0  0  0  0  0  0  0  0  0  0  0  0
   22.6637   -5.5604  -13.1611 O   0  0  0  0  0  0  0  0  0  0  0  0
   22.6293   -5.1283  -15.3448 O   0  0  0  0  0  0  0  0  0  0  0  0
  2  1  1  0
  3  4  1  6
  3  2  1  0
  5  3  1  0
  6  5  2  0
  8  7  1  6
  8 10  1  0
  9  8  1  0
 10 11  1  1
 10 12  1  0
 11  5  1  0
 12 19  1  0
 13 12  2  0
 15 14  1  0
 16 15  1  0
 16 17  1  6
 18 16  1  0
 18 19  1  6
 20 18  1  0
 20 22  1  0
 21 20  2  0
M  END
$$$$
