SVI.pdb
     RDKit          3D

 22 21  0  0  1  0  0  0  0  0999 V2000
   14.7175  -14.1415  -15.1918 O   0  0  0  0  0  0  0  0  0  0  0  0
   15.1036  -13.5211  -16.3663 C   0  0  0  0  0  0  0  0  0  0  0  0
   14.7648  -12.0497  -16.2683 C   0  0  2  0  0  0  0  0  0  0  0  0
   13.5610  -11.7364  -17.0028 N   0  0  0  0  0  0  0  0  0  0  0  0
   15.8800  -11.2420  -16.8241 C   0  0  0  0  0  0  0  0  0  0  0  0
   15.9791  -11.0162  -18.0676 O   0  0  0  0  0  0  0  0  0  0  0  0
   16.1762   -8.9984  -18.0998 C   0  0  0  0  0  0  0  0  0  0  0  0
   17.2989   -8.5654  -17.1809 C   0  0  1  0  0  0  0  0  0  0  0  0
   16.6594   -7.8002  -16.0269 C   0  0  0  0  0  0  0  0  0  0  0  0
   17.9194   -9.8165  -16.5435 C   0  0  2  0  0  0  0  0  0  0  0  0
   16.8977  -10.6762  -16.0033 N   0  0  0  0  0  0  0  0  0  0  0  0
   18.9177   -9.4282  -15.4918 C   0  0  0  0  0  0  0  0  0  0  0  0
   18.5672   -9.3738  -14.2980 O   0  0  0  0  0  0  0  0  0  0  0  0
   23.3204  -12.1435  -15.7708 C   0  0  0  0  0  0  0  0  0  0  0  0
   22.1077  -11.2976  -15.3459 C   0  0  0  0  0  0  0  0  0  0  0  0
   22.5083   -9.8524  -15.2009 C   0  0  2  0  0  0  0  0  0  0  0  0
   23.6614   -9.7988  -14.2257 C   0  0  0  0  0  0  0  0  0  0  0  0
   21.3489   -9.0108  -14.8731 C   0  0  2  0  0  0  0  0  0  0  0  0
   20.2452   -9.1207  -15.8047 N   0  0  0  0  0  0  0  0  0  0  0  0
   21.6878   -7.5760  -14.8104 C   0  0  0  0  0  0  0  0  0  0  0  0
   21.7025   -6.7982  -15.7904 O   0  0  0  0  0  0  0  0  0  0  0  0
   22.0340   -6.9494  -13.5941 O   0  0  0  0  0  0  0  0  0  0  0  0
  2  1  1  0
  3  4  1  6
  3  2  1  0
  5  3  1  0
  6  5  2  0
  8  7  1  6
  8 10  1  0
  9  8  1  0
 10 11  1  1
 10 12  1  0
 11  5  1  0
 12 19  1  0
 13 12  2  0
 15 14  1  0
 16 15  1  0
 16 17  1  1
 18 16  1  0
 18 19  1  6
 20 18  1  0
 20 22  1  0
 21 20  2  0
M  END
$$$$
