SVI.pdb
     RDKit          3D

 22 21  0  0  1  0  0  0  0  0999 V2000
   16.6407  -10.1334  -18.9125 O   0  0  0  0  0  0  0  0  0  0  0  0
   17.0086   -9.9212  -17.5960 C   0  0  0  0  0  0  0  0  0  0  0  0
   18.0958  -10.9094  -17.2341 C   0  0  2  0  0  0  0  0  0  0  0  0
   17.5386  -12.1632  -16.7821 N   0  0  0  0  0  0  0  0  0  0  0  0
   18.9388  -10.3491  -16.1476 C   0  0  0  0  0  0  0  0  0  0  0  0
   18.4771  -10.1568  -14.9827 O   0  0  0  0  0  0  0  0  0  0  0  0
   23.1703  -10.0064  -16.5067 C   0  0  0  0  0  0  0  0  0  0  0  0
   22.4556  -10.1095  -15.1760 C   0  0  1  0  0  0  0  0  0  0  0  0
   23.2533   -9.2779  -14.1769 C   0  0  0  0  0  0  0  0  0  0  0  0
   21.0962   -9.4064  -15.2951 C   0  0  2  0  0  0  0  0  0  0  0  0
   20.3049   -9.9962  -16.3442 N   0  0  0  0  0  0  0  0  0  0  0  0
   21.2858   -7.9339  -15.5170 C   0  0  0  0  0  0  0  0  0  0  0  0
   21.6411   -7.5190  -16.6363 O   0  0  0  0  0  0  0  0  0  0  0  0
   17.7082   -4.5300  -15.8244 C   0  0  0  0  0  0  0  0  0  0  0  0
   19.1221   -5.1305  -15.9074 C   0  0  0  0  0  0  0  0  0  0  0  0
   19.8769   -4.8593  -14.6319 C   0  0  2  0  0  0  0  0  0  0  0  0
   19.9313   -3.3603  -14.4491 C   0  0  0  0  0  0  0  0  0  0  0  0
   21.1709   -5.5560  -14.6227 C   0  0  2  0  0  0  0  0  0  0  0  0
   21.0762   -6.9962  -14.5015 N   0  0  0  0  0  0  0  0  0  0  0  0
   22.0479   -5.1112  -13.5225 C   0  0  0  0  0  0  0  0  0  0  0  0
   22.0385   -5.5800  -12.3625 O   0  0  0  0  0  0  0  0  0  0  0  0
   22.9994   -4.0845  -13.7028 O   0  0  0  0  0  0  0  0  0  0  0  0
  2  1  1  0
  3  4  1  1
  3  2  1  0
  5  3  1  0
  6  5  2  0
  8  7  1  6
  8 10  1  0
  9  8  1  0
 10 11  1  6
 10 12  1  0
 11  5  1  0
 12 19  1  0
 13 12  2  0
 15 14  1  0
 16 15  1  0
 16 17  1  6
 18 16  1  0
 18 19  1  1
 20 18  1  0
 20 22  1  0
 21 20  2  0
M  END
$$$$
