SVI.pdb
     RDKit          3D

 22 21  0  0  1  0  0  0  0  0999 V2000
   31.4805  -28.6338  -17.4787 O   0  0  0  0  0  0  0  0  0  0  0  0
   30.5104  -29.5807  -17.7544 C   0  0  0  0  0  0  0  0  0  0  0  0
   30.6786  -30.7370  -16.7931 C   0  0  2  0  0  0  0  0  0  0  0  0
   31.8579  -31.5119  -17.1025 N   0  0  0  0  0  0  0  0  0  0  0  0
   29.4941  -31.6290  -16.8723 C   0  0  0  0  0  0  0  0  0  0  0  0
   29.4656  -32.6249  -17.6562 O   0  0  0  0  0  0  0  0  0  0  0  0
   25.8879  -33.8761  -14.6098 C   0  0  0  0  0  0  0  0  0  0  0  0
   27.0613  -32.9195  -14.6102 C   0  0  1  0  0  0  0  0  0  0  0  0
   28.3085  -33.7449  -14.3110 C   0  0  0  0  0  0  0  0  0  0  0  0
   27.2591  -32.3885  -16.0370 C   0  0  2  0  0  0  0  0  0  0  0  0
   28.3277  -31.4236  -16.0807 N   0  0  0  0  0  0  0  0  0  0  0  0
   25.9781  -31.8079  -16.5620 C   0  0  0  0  0  0  0  0  0  0  0  0
   25.5236  -30.7621  -16.0613 O   0  0  0  0  0  0  0  0  0  0  0  0
   25.2041  -30.1855  -21.3192 C   0  0  0  0  0  0  0  0  0  0  0  0
   25.1679  -30.5730  -19.8308 C   0  0  0  0  0  0  0  0  0  0  0  0
   24.0692  -31.5734  -19.5815 C   0  0  2  0  0  0  0  0  0  0  0  0
   22.7991  -31.0061  -20.1717 C   0  0  0  0  0  0  0  0  0  0  0  0
   24.0069  -31.9504  -18.1624 C   0  0  2  0  0  0  0  0  0  0  0  0
   25.2650  -32.4041  -17.6063 N   0  0  0  0  0  0  0  0  0  0  0  0
   23.0341  -33.0293  -17.9033 C   0  0  0  0  0  0  0  0  0  0  0  0
   23.1792  -34.2242  -18.2450 O   0  0  0  0  0  0  0  0  0  0  0  0
   21.8209  -32.7852  -17.2249 O   0  0  0  0  0  0  0  0  0  0  0  0
  2  1  1  0
  3  4  1  6
  3  2  1  0
  5  3  1  0
  6  5  2  0
  8  7  1  6
  8 10  1  0
  9  8  1  0
 10 11  1  1
 10 12  1  0
 11  5  1  0
 12 19  1  0
 13 12  2  0
 15 14  1  0
 16 15  1  0
 16 17  1  1
 18 16  1  0
 18 19  1  6
 20 18  1  0
 20 22  1  0
 21 20  2  0
M  END
$$$$
