SVI.pdb
     RDKit          3D

 22 21  0  0  1  0  0  0  0  0999 V2000
   16.6962  -15.5950  -14.0773 O   0  0  0  0  0  0  0  0  0  0  0  0
   17.2437  -14.7268  -15.0047 C   0  0  0  0  0  0  0  0  0  0  0  0
   16.1434  -13.8367  -15.5399 C   0  0  2  0  0  0  0  0  0  0  0  0
   15.3227  -14.5345  -16.5023 N   0  0  0  0  0  0  0  0  0  0  0  0
   16.7394  -12.6486  -16.2019 C   0  0  0  0  0  0  0  0  0  0  0  0
   17.3134  -12.7362  -17.3288 O   0  0  0  0  0  0  0  0  0  0  0  0
   15.4627   -8.7953  -15.5574 C   0  0  0  0  0  0  0  0  0  0  0  0
   16.3522   -9.1884  -16.7178 C   0  0  1  0  0  0  0  0  0  0  0  0
   17.1756   -7.9579  -17.0840 C   0  0  0  0  0  0  0  0  0  0  0  0
   17.3706  -10.2256  -16.2239 C   0  0  2  0  0  0  0  0  0  0  0  0
   16.7039  -11.3496  -15.6182 N   0  0  0  0  0  0  0  0  0  0  0  0
   18.3445   -9.5919  -15.2734 C   0  0  0  0  0  0  0  0  0  0  0  0
   18.0266   -9.4313  -14.0800 O   0  0  0  0  0  0  0  0  0  0  0  0
   23.2043  -11.5254  -15.0190 C   0  0  0  0  0  0  0  0  0  0  0  0
   21.8581  -10.8330  -14.7450 C   0  0  0  0  0  0  0  0  0  0  0  0
   21.9688   -9.3558  -15.0205 C   0  0  2  0  0  0  0  0  0  0  0  0
   23.1200   -8.8275  -14.1964 C   0  0  0  0  0  0  0  0  0  0  0  0
   20.6770   -8.6819  -14.8278 C   0  0  2  0  0  0  0  0  0  0  0  0
   19.6130   -9.1689  -15.6814 N   0  0  0  0  0  0  0  0  0  0  0  0
   20.7545   -7.2272  -15.0628 C   0  0  0  0  0  0  0  0  0  0  0  0
   20.5777   -6.6680  -16.1680 O   0  0  0  0  0  0  0  0  0  0  0  0
   21.0446   -6.3229  -14.0188 O   0  0  0  0  0  0  0  0  0  0  0  0
  2  1  1  0
  3  4  1  6
  3  2  1  0
  5  3  1  0
  6  5  2  0
  8  7  1  1
  8 10  1  0
  9  8  1  0
 10 11  1  1
 10 12  1  0
 11  5  1  0
 12 19  1  0
 13 12  2  0
 15 14  1  0
 16 15  1  0
 16 17  1  1
 18 16  1  0
 18 19  1  6
 20 18  1  0
 20 22  1  0
 21 20  2  0
M  END
$$$$
