VKW.pdb
     RDKit          3D

 31 32  0  0  1  0  0  0  0  0999 V2000
   19.4552  -22.0056  -16.4926 C   0  0  0  0  0  0  0  0  0  0  0  0
   18.9799  -21.1559  -15.3388 C   0  0  2  0  0  0  0  0  0  0  0  0
   17.8412  -20.2371  -15.7318 C   0  0  0  0  0  0  0  0  0  0  0  0
   20.1048  -20.3874  -14.6755 C   0  0  2  0  0  0  0  0  0  0  0  0
   20.3420  -19.1941  -15.4943 N   0  0  0  0  0  0  0  0  0  0  0  0
   21.3659  -21.1351  -14.6098 C   0  0  0  0  0  0  0  0  0  0  0  0
   21.4608  -22.1709  -13.8753 O   0  0  0  0  0  0  0  0  0  0  0  0
   22.5414  -20.8045  -15.3155 N   0  0  0  0  0  0  0  0  0  0  0  0
   23.8414  -21.4830  -15.0761 C   0  0  1  0  0  0  0  0  0  0  0  0
   24.6921  -21.2898  -16.3108 C   0  0  0  0  0  0  0  0  0  0  0  0
   26.0000  -21.9998  -16.1865 C   0  0  0  0  0  0  0  0  0  0  0  0
   25.8072  -23.5087  -16.0623 C   0  0  0  0  0  0  0  0  0  0  0  0
   27.1245  -24.2385  -15.9609 C   0  0  0  0  0  0  0  0  0  0  0  0
   26.9091  -25.6843  -15.8778 N   0  0  0  0  0  0  0  0  0  0  0  0
   24.5000  -20.8701  -13.9187 C   0  0  0  0  0  0  0  0  0  0  0  0
   24.4750  -19.5971  -13.7977 O   0  0  0  0  0  0  0  0  0  0  0  0
   25.1668  -21.5686  -12.9017 N   0  0  0  0  0  0  0  0  0  0  0  0
   25.8827  -20.8877  -11.8301 C   0  0  1  0  0  0  0  0  0  0  0  0
   26.1647  -21.8853  -10.7091 C   0  0  0  0  0  0  0  0  0  0  0  0
   26.6711  -21.1417   -9.5321 C   0  0  0  0  0  0  0  0  0  0  0  0
   25.9386  -20.4349   -8.5881 C   0  0  0  0  0  0  0  0  0  0  0  0
   26.7805  -19.9042   -7.6871 N   0  0  0  0  0  0  0  0  0  0  0  0
   28.0371  -20.2389   -8.0083 C   0  0  0  0  0  0  0  0  0  0  0  0
   29.2298  -19.9433   -7.4068 C   0  0  0  0  0  0  0  0  0  0  0  0
   30.4353  -20.4091   -7.9298 C   0  0  0  0  0  0  0  0  0  0  0  0
   30.3672  -21.1759   -9.0735 C   0  0  0  0  0  0  0  0  0  0  0  0
   29.1651  -21.4775   -9.6850 C   0  0  0  0  0  0  0  0  0  0  0  0
   27.9981  -21.0074   -9.1501 C   0  0  0  0  0  0  0  0  0  0  0  0
   27.1017  -20.2177  -12.2711 C   0  0  0  0  0  0  0  0  0  0  0  0
   27.3692  -18.9105  -11.9566 O   0  0  0  0  0  0  0  0  0  0  0  0
   27.9728  -20.8223  -12.9701 O   0  0  0  0  0  0  0  0  0  0  0  0
  2  1  1  6
  2  3  1  0
  4  2  1  0
  4  5  1  6
  6  4  1  0
  6  7  2  0
  8  6  1  0
  9  8  1  0
 10 11  1  0
  9 10  1  6
 12 13  1  0
 12 11  1  0
 13 14  1  0
 15 16  2  0
 15  9  1  0
 17 15  1  0
 18 17  1  0
 18 29  1  0
 18 19  1  1
 20 19  1  0
 20 21  2  0
 22 21  1  0
 23 22  1  0
 24 23  2  0
 25 24  1  0
 26 25  2  0
 26 27  1  0
 27 28  2  0
 28 23  1  0
 28 20  1  0
 29 31  2  0
 29 30  1  0
M  END
$$$$
