VKW.pdb
     RDKit          3D

 31 32  0  0  1  0  0  0  0  0999 V2000
   23.6664  -18.4998  -16.4513 C   0  0  0  0  0  0  0  0  0  0  0  0
   22.6306  -18.9941  -15.4704 C   0  0  2  0  0  0  0  0  0  0  0  0
   21.4142  -18.0927  -15.4151 C   0  0  0  0  0  0  0  0  0  0  0  0
   23.2018  -19.2351  -14.0878 C   0  0  2  0  0  0  0  0  0  0  0  0
   23.5640  -17.9217  -13.5451 N   0  0  0  0  0  0  0  0  0  0  0  0
   24.4150  -20.0608  -14.0909 C   0  0  0  0  0  0  0  0  0  0  0  0
   24.3638  -21.2759  -14.4681 O   0  0  0  0  0  0  0  0  0  0  0  0
   25.6961  -19.6199  -13.6991 N   0  0  0  0  0  0  0  0  0  0  0  0
   26.8887  -20.5061  -13.7045 C   0  0  1  0  0  0  0  0  0  0  0  0
   28.0845  -19.6611  -14.0805 C   0  0  0  0  0  0  0  0  0  0  0  0
   27.9728  -19.1531  -15.4805 C   0  0  0  0  0  0  0  0  0  0  0  0
   29.1761  -18.2950  -15.8613 C   0  0  0  0  0  0  0  0  0  0  0  0
   29.0893  -17.8036  -17.2857 C   0  0  0  0  0  0  0  0  0  0  0  0
   30.1629  -16.8494  -17.5693 N   0  0  0  0  0  0  0  0  0  0  0  0
   27.0793  -21.0671  -12.3636 C   0  0  0  0  0  0  0  0  0  0  0  0
   27.9274  -22.0112  -12.2051 O   0  0  0  0  0  0  0  0  0  0  0  0
   26.4050  -20.6495  -11.2069 N   0  0  0  0  0  0  0  0  0  0  0  0
   26.4189  -21.4273   -9.9743 C   0  0  1  0  0  0  0  0  0  0  0  0
   27.7617  -21.2272   -9.2757 C   0  0  0  0  0  0  0  0  0  0  0  0
   27.6072  -20.1692   -8.2504 C   0  0  0  0  0  0  0  0  0  0  0  0
   26.7458  -19.0807   -8.2690 C   0  0  0  0  0  0  0  0  0  0  0  0
   26.9236  -18.3613   -7.1496 N   0  0  0  0  0  0  0  0  0  0  0  0
   27.8704  -18.9408   -6.3997 C   0  0  0  0  0  0  0  0  0  0  0  0
   28.3984  -18.5912   -5.1870 C   0  0  0  0  0  0  0  0  0  0  0  0
   29.3947  -19.3598   -4.5866 C   0  0  0  0  0  0  0  0  0  0  0  0
   29.8184  -20.4802   -5.2693 C   0  0  0  0  0  0  0  0  0  0  0  0
   29.2882  -20.8378   -6.4945 C   0  0  0  0  0  0  0  0  0  0  0  0
   28.3121  -20.0655   -7.0598 C   0  0  0  0  0  0  0  0  0  0  0  0
   25.3014  -21.1348   -9.0826 C   0  0  0  0  0  0  0  0  0  0  0  0
   25.1049  -21.8202   -7.9116 O   0  0  0  0  0  0  0  0  0  0  0  0
   24.4576  -20.2258   -9.3559 O   0  0  0  0  0  0  0  0  0  0  0  0
  2  1  1  6
  2  3  1  0
  4  2  1  0
  4  5  1  6
  6  4  1  0
  6  7  2  0
  8  6  1  0
  9  8  1  0
 10 11  1  0
  9 10  1  1
 12 13  1  0
 12 11  1  0
 13 14  1  0
 15 16  2  0
 15  9  1  0
 17 15  1  0
 18 17  1  0
 18 29  1  0
 18 19  1  1
 20 19  1  0
 20 21  2  0
 22 21  1  0
 23 22  1  0
 24 23  2  0
 25 24  1  0
 26 25  2  0
 26 27  1  0
 27 28  2  0
 28 23  1  0
 28 20  1  0
 29 31  2  0
 29 30  1  0
M  END
$$$$
