VKW.pdb
     RDKit          3D

 31 32  0  0  1  0  0  0  0  0999 V2000
   26.3318  -19.8923  -17.8656 C   0  0  0  0  0  0  0  0  0  0  0  0
   27.7602  -19.7590  -17.3955 C   0  0  2  0  0  0  0  0  0  0  0  0
   28.7537  -20.2557  -18.4258 C   0  0  0  0  0  0  0  0  0  0  0  0
   27.9951  -20.4067  -16.0459 C   0  0  2  0  0  0  0  0  0  0  0  0
   27.8115  -21.8498  -16.2317 N   0  0  0  0  0  0  0  0  0  0  0  0
   27.0471  -19.9707  -15.0140 C   0  0  0  0  0  0  0  0  0  0  0  0
   27.0086  -18.7506  -14.6517 O   0  0  0  0  0  0  0  0  0  0  0  0
   26.1280  -20.8105  -14.3514 N   0  0  0  0  0  0  0  0  0  0  0  0
   25.1494  -20.3044  -13.3545 C   0  0  1  0  0  0  0  0  0  0  0  0
   23.7812  -20.7994  -13.7648 C   0  0  0  0  0  0  0  0  0  0  0  0
   22.7235  -20.3112  -12.8303 C   0  0  0  0  0  0  0  0  0  0  0  0
   21.3468  -20.8449  -13.2166 C   0  0  0  0  0  0  0  0  0  0  0  0
   20.4195  -20.9239  -12.0284 C   0  0  0  0  0  0  0  0  0  0  0  0
   20.7598  -22.0699  -11.1830 N   0  0  0  0  0  0  0  0  0  0  0  0
   25.4919  -20.8325  -12.0306 C   0  0  0  0  0  0  0  0  0  0  0  0
   25.7561  -22.0784  -11.9133 O   0  0  0  0  0  0  0  0  0  0  0  0
   25.5651  -20.0776  -10.8509 N   0  0  0  0  0  0  0  0  0  0  0  0
   25.9076  -20.6734   -9.5655 C   0  0  1  0  0  0  0  0  0  0  0  0
   26.8617  -19.7401   -8.8239 C   0  0  0  0  0  0  0  0  0  0  0  0
   27.2300  -20.3693   -7.5344 C   0  0  0  0  0  0  0  0  0  0  0  0
   27.1110  -21.7036   -7.1700 C   0  0  0  0  0  0  0  0  0  0  0  0
   27.5543  -21.8560   -5.9120 N   0  0  0  0  0  0  0  0  0  0  0  0
   27.9591  -20.6690   -5.4411 C   0  0  0  0  0  0  0  0  0  0  0  0
   28.4828  -20.3120   -4.2286 C   0  0  0  0  0  0  0  0  0  0  0  0
   28.8374  -18.9911   -3.9580 C   0  0  0  0  0  0  0  0  0  0  0  0
   28.6360  -18.0698   -4.9636 C   0  0  0  0  0  0  0  0  0  0  0  0
   28.1074  -18.4252   -6.1901 C   0  0  0  0  0  0  0  0  0  0  0  0
   27.7686  -19.7281   -6.4281 C   0  0  0  0  0  0  0  0  0  0  0  0
   24.7478  -21.0146   -8.7484 C   0  0  0  0  0  0  0  0  0  0  0  0
   24.7704  -22.0464   -7.8460 O   0  0  0  0  0  0  0  0  0  0  0  0
   23.6604  -20.3649   -8.8397 O   0  0  0  0  0  0  0  0  0  0  0  0
  2  1  1  6
  2  3  1  0
  4  2  1  0
  4  5  1  6
  6  4  1  0
  6  7  2  0
  8  6  1  0
  9  8  1  0
 10 11  1  0
  9 10  1  6
 12 13  1  0
 12 11  1  0
 13 14  1  0
 15 16  2  0
 15  9  1  0
 17 15  1  0
 18 17  1  0
 18 29  1  0
 18 19  1  1
 20 19  1  0
 20 21  2  0
 22 21  1  0
 23 22  1  0
 24 23  2  0
 25 24  1  0
 26 25  2  0
 26 27  1  0
 27 28  2  0
 28 23  1  0
 28 20  1  0
 29 31  2  0
 29 30  1  0
M  END
$$$$
