VKW.pdb
     RDKit          3D

 31 32  0  0  1  0  0  0  0  0999 V2000
   22.1166  -18.2145  -15.3928 C   0  0  0  0  0  0  0  0  0  0  0  0
   23.1120  -17.1263  -15.7153 C   0  0  2  0  0  0  0  0  0  0  0  0
   22.4520  -15.9031  -16.3182 C   0  0  0  0  0  0  0  0  0  0  0  0
   24.2567  -17.6170  -16.5783 C   0  0  2  0  0  0  0  0  0  0  0  0
   23.6638  -18.1163  -17.8232 N   0  0  0  0  0  0  0  0  0  0  0  0
   25.0128  -18.7213  -15.9759 C   0  0  0  0  0  0  0  0  0  0  0  0
   24.5616  -19.9109  -16.0259 O   0  0  0  0  0  0  0  0  0  0  0  0
   26.2518  -18.5892  -15.3153 N   0  0  0  0  0  0  0  0  0  0  0  0
   26.9144  -19.7193  -14.6143 C   0  0  1  0  0  0  0  0  0  0  0  0
   28.3954  -19.4199  -14.5624 C   0  0  0  0  0  0  0  0  0  0  0  0
   29.1762  -20.6133  -14.1194 C   0  0  0  0  0  0  0  0  0  0  0  0
   28.8762  -21.8316  -14.9884 C   0  0  0  0  0  0  0  0  0  0  0  0
   30.0545  -22.2117  -15.8516 C   0  0  0  0  0  0  0  0  0  0  0  0
   30.6246  -23.4876  -15.4147 N   0  0  0  0  0  0  0  0  0  0  0  0
   26.3809  -19.8223  -13.2528 C   0  0  0  0  0  0  0  0  0  0  0  0
   26.3556  -18.7747  -12.5195 O   0  0  0  0  0  0  0  0  0  0  0  0
   25.8765  -20.9922  -12.6663 N   0  0  0  0  0  0  0  0  0  0  0  0
   25.3521  -21.0175  -11.3066 C   0  0  1  0  0  0  0  0  0  0  0  0
   26.1184  -20.0043  -10.4597 C   0  0  0  0  0  0  0  0  0  0  0  0
   27.3233  -20.6659   -9.9075 C   0  0  0  0  0  0  0  0  0  0  0  0
   28.1659  -21.5709  -10.5386 C   0  0  0  0  0  0  0  0  0  0  0  0
   29.1375  -21.9336   -9.6862 N   0  0  0  0  0  0  0  0  0  0  0  0
   28.9603  -21.2979   -8.5205 C   0  0  0  0  0  0  0  0  0  0  0  0
   29.6775  -21.3352   -7.3560 C   0  0  0  0  0  0  0  0  0  0  0  0
   29.2975  -20.5741   -6.2514 C   0  0  0  0  0  0  0  0  0  0  0  0
   28.1728  -19.7887   -6.3888 C   0  0  0  0  0  0  0  0  0  0  0  0
   27.4449  -19.7474   -7.5628 C   0  0  0  0  0  0  0  0  0  0  0  0
   27.8406  -20.5042   -8.6304 C   0  0  0  0  0  0  0  0  0  0  0  0
   23.9111  -20.8013  -11.2285 C   0  0  0  0  0  0  0  0  0  0  0  0
   23.1279  -20.6989  -12.3491 O   0  0  0  0  0  0  0  0  0  0  0  0
   23.3174  -20.6982  -10.1106 O   0  0  0  0  0  0  0  0  0  0  0  0
  2  1  1  6
  2  3  1  0
  4  2  1  0
  4  5  1  6
  6  4  1  0
  6  7  2  0
  8  6  1  0
  9  8  1  0
 10 11  1  0
  9 10  1  1
 12 13  1  0
 12 11  1  0
 13 14  1  0
 15 16  2  0
 15  9  1  0
 17 15  1  0
 18 17  1  0
 18 29  1  0
 18 19  1  1
 20 19  1  0
 20 21  2  0
 22 21  1  0
 23 22  1  0
 24 23  2  0
 25 24  1  0
 26 25  2  0
 26 27  1  0
 27 28  2  0
 28 23  1  0
 28 20  1  0
 29 31  2  0
 29 30  1  0
M  END
$$$$
