VKW.pdb
     RDKit          3D

 31 32  0  0  1  0  0  0  0  0999 V2000
   28.0935  -17.7286  -15.6206 C   0  0  0  0  0  0  0  0  0  0  0  0
   29.1604  -18.1382  -16.6070 C   0  0  2  0  0  0  0  0  0  0  0  0
   29.8188  -16.9460  -17.2705 C   0  0  0  0  0  0  0  0  0  0  0  0
   28.6575  -19.1327  -17.6337 C   0  0  2  0  0  0  0  0  0  0  0  0
   27.8571  -18.3741  -18.6005 N   0  0  0  0  0  0  0  0  0  0  0  0
   27.7932  -20.1741  -17.0662 C   0  0  0  0  0  0  0  0  0  0  0  0
   26.5501  -19.9555  -16.8978 O   0  0  0  0  0  0  0  0  0  0  0  0
   28.2239  -21.4573  -16.6702 N   0  0  0  0  0  0  0  0  0  0  0  0
   27.3127  -22.4587  -16.0581 C   0  0  1  0  0  0  0  0  0  0  0  0
   27.9454  -23.8204  -16.2338 C   0  0  0  0  0  0  0  0  0  0  0  0
   27.4288  -24.5065  -17.4556 C   0  0  0  0  0  0  0  0  0  0  0  0
   28.1401  -25.8359  -17.6929 C   0  0  0  0  0  0  0  0  0  0  0  0
   27.7933  -26.4281  -19.0371 C   0  0  0  0  0  0  0  0  0  0  0  0
   28.5868  -27.6320  -19.2914 N   0  0  0  0  0  0  0  0  0  0  0  0
   27.1596  -22.1630  -14.6305 C   0  0  0  0  0  0  0  0  0  0  0  0
   28.1948  -21.8369  -13.9539 O   0  0  0  0  0  0  0  0  0  0  0  0
   25.9507  -22.1991  -13.9204 N   0  0  0  0  0  0  0  0  0  0  0  0
   25.8835  -21.9550  -12.4849 C   0  0  1  0  0  0  0  0  0  0  0  0
   26.4986  -20.5904  -12.1838 C   0  0  0  0  0  0  0  0  0  0  0  0
   26.3810  -20.3301  -10.7302 C   0  0  0  0  0  0  0  0  0  0  0  0
   25.2770  -19.8579  -10.0335 C   0  0  0  0  0  0  0  0  0  0  0  0
   25.5894  -19.7584   -8.7317 N   0  0  0  0  0  0  0  0  0  0  0  0
   26.8582  -20.1489   -8.5526 C   0  0  0  0  0  0  0  0  0  0  0  0
   27.6260  -20.2261   -7.4227 C   0  0  0  0  0  0  0  0  0  0  0  0
   28.9466  -20.6696   -7.4782 C   0  0  0  0  0  0  0  0  0  0  0  0
   29.4369  -21.0236   -8.7171 C   0  0  0  0  0  0  0  0  0  0  0  0
   28.6656  -20.9476   -9.8614 C   0  0  0  0  0  0  0  0  0  0  0  0
   27.3735  -20.5091   -9.7775 C   0  0  0  0  0  0  0  0  0  0  0  0
   24.5382  -22.0709  -11.9317 C   0  0  0  0  0  0  0  0  0  0  0  0
   24.2677  -22.8386  -10.8286 O   0  0  0  0  0  0  0  0  0  0  0  0
   23.5540  -21.4606  -12.4529 O   0  0  0  0  0  0  0  0  0  0  0  0
  2  1  1  6
  2  3  1  0
  4  2  1  0
  4  5  1  6
  6  4  1  0
  6  7  2  0
  8  6  1  0
  9  8  1  0
 10 11  1  0
  9 10  1  1
 12 13  1  0
 12 11  1  0
 13 14  1  0
 15 16  2  0
 15  9  1  0
 17 15  1  0
 18 17  1  0
 18 29  1  0
 18 19  1  6
 20 19  1  0
 20 21  2  0
 22 21  1  0
 23 22  1  0
 24 23  2  0
 25 24  1  0
 26 25  2  0
 26 27  1  0
 27 28  2  0
 28 23  1  0
 28 20  1  0
 29 31  2  0
 29 30  1  0
M  END
$$$$
