VKW.pdb
     RDKit          3D

 31 32  0  0  1  0  0  0  0  0999 V2000
   29.2738  -18.1944  -13.8329 C   0  0  0  0  0  0  0  0  0  0  0  0
   29.6222  -18.6812  -15.2188 C   0  0  2  0  0  0  0  0  0  0  0  0
   29.7883  -17.5421  -16.2039 C   0  0  0  0  0  0  0  0  0  0  0  0
   28.6482  -19.7202  -15.7364 C   0  0  2  0  0  0  0  0  0  0  0  0
   28.3316  -19.3509  -17.1199 N   0  0  0  0  0  0  0  0  0  0  0  0
   27.3848  -19.7615  -14.9908 C   0  0  0  0  0  0  0  0  0  0  0  0
   26.5627  -18.7921  -15.0661 O   0  0  0  0  0  0  0  0  0  0  0  0
   26.9697  -20.8218  -14.1586 N   0  0  0  0  0  0  0  0  0  0  0  0
   25.6385  -20.8536  -13.4994 C   0  0  1  0  0  0  0  0  0  0  0  0
   24.8508  -21.9881  -14.1141 C   0  0  0  0  0  0  0  0  0  0  0  0
   23.5092  -22.1285  -13.4734 C   0  0  0  0  0  0  0  0  0  0  0  0
   22.7992  -23.3980  -13.9357 C   0  0  0  0  0  0  0  0  0  0  0  0
   21.4146  -23.5152  -13.3465 C   0  0  0  0  0  0  0  0  0  0  0  0
   20.8300  -24.8212  -13.6571 N   0  0  0  0  0  0  0  0  0  0  0  0
   25.8160  -21.0931  -12.0641 C   0  0  0  0  0  0  0  0  0  0  0  0
   26.9056  -21.6258  -11.6581 O   0  0  0  0  0  0  0  0  0  0  0  0
   24.8803  -20.7783  -11.0680 N   0  0  0  0  0  0  0  0  0  0  0  0
   25.1046  -21.0917   -9.6623 C   0  0  1  0  0  0  0  0  0  0  0  0
   26.4685  -20.5480   -9.2437 C   0  0  0  0  0  0  0  0  0  0  0  0
   26.5177  -20.4850   -7.7645 C   0  0  0  0  0  0  0  0  0  0  0  0
   25.4894  -20.7291   -6.8643 C   0  0  0  0  0  0  0  0  0  0  0  0
   25.9504  -20.5590   -5.6151 N   0  0  0  0  0  0  0  0  0  0  0  0
   27.2433  -20.2126   -5.6663 C   0  0  0  0  0  0  0  0  0  0  0  0
   28.1414  -19.9340   -4.6725 C   0  0  0  0  0  0  0  0  0  0  0  0
   29.4594  -19.5892   -4.9686 C   0  0  0  0  0  0  0  0  0  0  0  0
   29.8107  -19.5432   -6.3009 C   0  0  0  0  0  0  0  0  0  0  0  0
   28.9075  -19.8238   -7.3086 C   0  0  0  0  0  0  0  0  0  0  0  0
   27.6212  -20.1592   -6.9892 C   0  0  0  0  0  0  0  0  0  0  0  0
   24.0442  -20.6185   -8.7785 C   0  0  0  0  0  0  0  0  0  0  0  0
   22.9867  -19.8784   -9.2405 O   0  0  0  0  0  0  0  0  0  0  0  0
   24.0567  -20.8746   -7.5346 O   0  0  0  0  0  0  0  0  0  0  0  0
  2  1  1  1
  2  3  1  0
  4  2  1  0
  4  5  1  6
  6  4  1  0
  6  7  2  0
  8  6  1  0
  9  8  1  0
 10 11  1  0
  9 10  1  6
 12 13  1  0
 12 11  1  0
 13 14  1  0
 15 16  2  0
 15  9  1  0
 17 15  1  0
 18 17  1  0
 18 29  1  0
 18 19  1  1
 20 19  1  0
 20 21  2  0
 22 21  1  0
 23 22  1  0
 24 23  2  0
 25 24  1  0
 26 25  2  0
 26 27  1  0
 27 28  2  0
 28 23  1  0
 28 20  1  0
 29 31  2  0
 29 30  1  0
M  END
$$$$
