VKW.pdb
     RDKit          3D

 31 32  0  0  1  0  0  0  0  0999 V2000
   22.8048  -21.9906  -22.8875 C   0  0  0  0  0  0  0  0  0  0  0  0
   22.2667  -22.4811  -21.5650 C   0  0  2  0  0  0  0  0  0  0  0  0
   22.4742  -21.4757  -20.4509 C   0  0  0  0  0  0  0  0  0  0  0  0
   22.8047  -23.8454  -21.1840 C   0  0  2  0  0  0  0  0  0  0  0  0
   22.3381  -24.7852  -22.2086 N   0  0  0  0  0  0  0  0  0  0  0  0
   22.3143  -24.3272  -19.8874 C   0  0  0  0  0  0  0  0  0  0  0  0
   21.1473  -24.8269  -19.7876 O   0  0  0  0  0  0  0  0  0  0  0  0
   23.0440  -24.2911  -18.6810 N   0  0  0  0  0  0  0  0  0  0  0  0
   22.5223  -24.8521  -17.4079 C   0  0  1  0  0  0  0  0  0  0  0  0
   23.7110  -25.2430  -16.5595 C   0  0  0  0  0  0  0  0  0  0  0  0
   24.5165  -26.3169  -17.2138 C   0  0  0  0  0  0  0  0  0  0  0  0
   26.0047  -26.1608  -16.9136 C   0  0  0  0  0  0  0  0  0  0  0  0
   26.5431  -27.3226  -16.1147 C   0  0  0  0  0  0  0  0  0  0  0  0
   27.9767  -27.1588  -15.8665 N   0  0  0  0  0  0  0  0  0  0  0  0
   21.7341  -23.8280  -16.7161 C   0  0  0  0  0  0  0  0  0  0  0  0
   22.1371  -22.6145  -16.7468 O   0  0  0  0  0  0  0  0  0  0  0  0
   20.5443  -24.0601  -16.0106 N   0  0  0  0  0  0  0  0  0  0  0  0
   19.8387  -22.9984  -15.3039 C   0  0  1  0  0  0  0  0  0  0  0  0
   18.6320  -22.5662  -16.1337 C   0  0  0  0  0  0  0  0  0  0  0  0
   19.1138  -21.7809  -17.2937 C   0  0  0  0  0  0  0  0  0  0  0  0
   19.9502  -20.6729  -17.2872 C   0  0  0  0  0  0  0  0  0  0  0  0
   20.1375  -20.2573  -18.5499 N   0  0  0  0  0  0  0  0  0  0  0  0
   19.4536  -21.0542  -19.3816 C   0  0  0  0  0  0  0  0  0  0  0  0
   19.3286  -21.0392  -20.7439 C   0  0  0  0  0  0  0  0  0  0  0  0
   18.5480  -21.9859  -21.4060 C   0  0  0  0  0  0  0  0  0  0  0  0
   17.9135  -22.9300  -20.6271 C   0  0  0  0  0  0  0  0  0  0  0  0
   18.0365  -22.9495  -19.2507 C   0  0  0  0  0  0  0  0  0  0  0  0
   18.8087  -22.0089  -18.6278 C   0  0  0  0  0  0  0  0  0  0  0  0
   19.4536  -23.3544  -13.9422 C   0  0  0  0  0  0  0  0  0  0  0  0
   18.6805  -22.5312  -13.1649 O   0  0  0  0  0  0  0  0  0  0  0  0
   19.8212  -24.4503  -13.4160 O   0  0  0  0  0  0  0  0  0  0  0  0
  2  1  1  6
  2  3  1  0
  4  2  1  0
  4  5  1  6
  6  4  1  0
  6  7  2  0
  8  6  1  0
  9  8  1  0
 10 11  1  0
  9 10  1  1
 12 13  1  0
 12 11  1  0
 13 14  1  0
 15 16  2  0
 15  9  1  0
 17 15  1  0
 18 17  1  0
 18 29  1  0
 18 19  1  6
 20 19  1  0
 20 21  2  0
 22 21  1  0
 23 22  1  0
 24 23  2  0
 25 24  1  0
 26 25  2  0
 26 27  1  0
 27 28  2  0
 28 23  1  0
 28 20  1  0
 29 31  2  0
 29 30  1  0
M  END
$$$$
