YMN.pdb
     RDKit          3D

 29 29  0  0  1  0  0  0  0  0999 V2000
   24.7071  -16.0950  -24.6200 O   0  0  0  0  0  0  0  0  0  0  0  0
   24.1863  -15.1693  -23.7189 C   0  0  0  0  0  0  0  0  0  0  0  0
   24.9785  -14.2425  -23.0743 C   0  0  0  0  0  0  0  0  0  0  0  0
   24.4478  -13.3258  -22.1789 C   0  0  0  0  0  0  0  0  0  0  0  0
   23.0980  -13.3029  -21.8944 C   0  0  0  0  0  0  0  0  0  0  0  0
   22.4774  -12.3421  -20.9431 C   0  0  0  0  0  0  0  0  0  0  0  0
   22.6144  -12.9280  -19.5650 C   0  0  2  0  0  0  0  0  0  0  0  0
   21.7257  -14.0717  -19.4759 N   0  0  0  0  0  0  0  0  0  0  0  0
   22.2680  -11.9982  -18.4826 C   0  0  0  0  0  0  0  0  0  0  0  0
   21.1660  -12.2107  -17.8824 O   0  0  0  0  0  0  0  0  0  0  0  0
   22.3086  -14.2330  -22.5424 C   0  0  0  0  0  0  0  0  0  0  0  0
   22.8366  -15.1466  -23.4345 C   0  0  0  0  0  0  0  0  0  0  0  0
   21.4704   -9.1614  -12.2944 C   0  0  0  0  0  0  0  0  0  0  0  0
   21.6865   -9.9932  -13.8752 S   0  0  0  0  0  0  0  0  0  0  0  0
   23.3614   -9.5829  -14.5413 C   0  0  0  0  0  0  0  0  0  0  0  0
   23.5110  -10.3698  -15.7794 C   0  0  0  0  0  0  0  0  0  0  0  0
   22.6721  -10.0140  -16.9545 C   0  0  2  0  0  0  0  0  0  0  0  0
   23.0776  -10.9017  -18.0805 N   0  0  0  0  0  0  0  0  0  0  0  0
   22.7143   -8.6392  -17.4218 C   0  0  0  0  0  0  0  0  0  0  0  0
   23.7089   -7.9058  -17.1855 O   0  0  0  0  0  0  0  0  0  0  0  0
   17.8159   -6.3595  -15.6209 N   0  0  0  0  0  0  0  0  0  0  0  0
   18.5311   -6.5861  -16.8200 C   0  0  0  0  0  0  0  0  0  0  0  0
   18.1706   -6.0227  -17.8762 O   0  0  0  0  0  0  0  0  0  0  0  0
   19.6855   -7.4809  -16.7987 C   0  0  0  0  0  0  0  0  0  0  0  0
   20.8882   -6.9743  -17.5693 C   0  0  2  0  0  0  0  0  0  0  0  0
   21.6544   -8.0612  -18.1622 N   0  0  0  0  0  0  0  0  0  0  0  0
   21.7740   -6.1471  -16.7598 C   0  0  0  0  0  0  0  0  0  0  0  0
   21.6135   -4.9022  -16.6887 O   0  0  0  0  0  0  0  0  0  0  0  0
   22.8163   -6.7068  -16.0466 O   0  0  0  0  0  0  0  0  0  0  0  0
  2 12  2  0
  2  1  1  0
  3  2  1  0
  4  5  1  0
  4  3  2  0
  5 11  2  0
  6  5  1  0
  7  6  1  0
  7  8  1  6
  9 10  2  0
  9  7  1  0
 11 12  1  0
 13 14  1  0
 14 15  1  0
 16 15  1  0
 17 16  1  1
 17 18  1  0
 18  9  1  0
 19 17  1  0
 19 26  1  0
 20 19  2  0
 21 22  1  0
 22 24  1  0
 23 22  2  0
 25 24  1  1
 25 26  1  0
 25 27  1  0
 27 29  1  0
 28 27  2  0
M  END
$$$$
