YMN.pdb
     RDKit          3D

 29 29  0  0  1  0  0  0  0  0999 V2000
   24.9298  -14.0935  -20.2125 O   0  0  0  0  0  0  0  0  0  0  0  0
   24.7009  -15.3129  -19.5794 C   0  0  0  0  0  0  0  0  0  0  0  0
   25.5534  -16.3878  -19.7205 C   0  0  0  0  0  0  0  0  0  0  0  0
   25.3145  -17.5971  -19.0848 C   0  0  0  0  0  0  0  0  0  0  0  0
   24.2079  -17.7759  -18.2803 C   0  0  0  0  0  0  0  0  0  0  0  0
   23.9044  -19.0507  -17.5761 C   0  0  0  0  0  0  0  0  0  0  0  0
   24.4270  -18.9197  -16.1722 C   0  0  2  0  0  0  0  0  0  0  0  0
   25.8717  -18.8023  -16.2429 N   0  0  0  0  0  0  0  0  0  0  0  0
   24.1060  -20.0607  -15.3055 C   0  0  0  0  0  0  0  0  0  0  0  0
   25.0809  -20.8004  -14.9561 O   0  0  0  0  0  0  0  0  0  0  0  0
   23.3570  -16.6966  -18.1419 C   0  0  0  0  0  0  0  0  0  0  0  0
   23.5945  -15.4915  -18.7751 C   0  0  0  0  0  0  0  0  0  0  0  0
   26.3431  -20.9662   -9.6223 C   0  0  0  0  0  0  0  0  0  0  0  0
   24.9707  -20.1664  -10.4675 S   0  0  0  0  0  0  0  0  0  0  0  0
   24.3986  -21.2600  -11.8437 C   0  0  0  0  0  0  0  0  0  0  0  0
   23.2954  -20.5388  -12.5050 C   0  0  0  0  0  0  0  0  0  0  0  0
   22.5833  -21.2032  -13.6287 C   0  0  2  0  0  0  0  0  0  0  0  0
   22.7975  -20.3743  -14.8483 N   0  0  0  0  0  0  0  0  0  0  0  0
   21.1568  -21.4339  -13.4808 C   0  0  0  0  0  0  0  0  0  0  0  0
   20.3461  -20.4724  -13.4465 O   0  0  0  0  0  0  0  0  0  0  0  0
   16.6394  -25.1842  -13.2453 N   0  0  0  0  0  0  0  0  0  0  0  0
   17.4165  -24.4586  -12.3124 C   0  0  0  0  0  0  0  0  0  0  0  0
   16.8832  -24.0047  -11.2767 O   0  0  0  0  0  0  0  0  0  0  0  0
   18.8376  -24.2533  -12.5810 C   0  0  0  0  0  0  0  0  0  0  0  0
   19.1814  -22.8857  -13.1365 C   0  0  2  0  0  0  0  0  0  0  0  0
   20.6102  -22.7360  -13.3736 N   0  0  0  0  0  0  0  0  0  0  0  0
   18.7178  -21.7952  -12.2880 C   0  0  0  0  0  0  0  0  0  0  0  0
   19.3664  -21.4453  -11.2694 O   0  0  0  0  0  0  0  0  0  0  0  0
   17.5518  -21.1136  -12.5781 O   0  0  0  0  0  0  0  0  0  0  0  0
  2 12  2  0
  2  1  1  0
  3  2  1  0
  4  5  1  0
  4  3  2  0
  5 11  2  0
  6  5  1  0
  7  6  1  0
  7  8  1  6
  9 10  2  0
  9  7  1  0
 11 12  1  0
 13 14  1  0
 14 15  1  0
 16 15  1  0
 17 16  1  1
 17 18  1  0
 18  9  1  0
 19 17  1  0
 19 26  1  0
 20 19  2  0
 21 22  1  0
 22 24  1  0
 23 22  2  0
 25 24  1  1
 25 26  1  0
 25 27  1  0
 27 29  1  0
 28 27  2  0
M  END
$$$$
