GCC.pdb
     RDKit          3D

 17 16  0  0  1  0  0  0  0  0999 V2000
   11.1437  -17.3735   20.0590 N   0  0  0  0  0  0  0  0  0  0  0  0
   10.3556  -17.9546   21.0975 C   0  0  0  0  0  0  0  0  0  0  0  0
    9.9619  -16.8910   22.0581 C   0  0  0  0  0  0  0  0  0  0  0  0
   10.4072  -15.7272   21.8891 O   0  0  0  0  0  0  0  0  0  0  0  0
    9.1071  -17.1295   23.1560 N   0  0  0  0  0  0  0  0  0  0  0  0
    8.7908  -15.9940   24.0301 C   0  0  1  0  0  0  0  0  0  0  0  0
    7.3466  -16.1447   24.5220 C   0  0  0  0  0  0  0  0  0  0  0  0
    7.1014  -17.7158   25.3328 S   0  0  0  0  0  0  0  0  0  0  0  0
    9.6691  -16.1592   25.2154 C   0  0  0  0  0  0  0  0  0  0  0  0
   10.4227  -17.1947   25.3359 O   0  0  0  0  0  0  0  0  0  0  0  0
    9.7634  -15.2292   26.2887 N   0  0  0  0  0  0  0  0  0  0  0  0
   10.7592  -15.4154   27.3588 C   0  0  1  0  0  0  0  0  0  0  0  0
   10.9732  -14.1134   28.1015 C   0  0  0  0  0  0  0  0  0  0  0  0
    9.4040  -13.2528   28.3765 S   0  0  0  0  0  0  0  0  0  0  0  0
   10.3162  -16.5115   28.2377 C   0  0  0  0  0  0  0  0  0  0  0  0
   11.1659  -17.0616   29.1691 O   0  0  0  0  0  0  0  0  0  0  0  0
    9.1537  -16.9481   28.1369 O   0  0  0  0  0  0  0  0  0  0  0  0
  1  2  1  0
  2  3  1  0
  3  4  2  0
  3  5  1  0
  5  6  1  0
  6  7  1  1
  8  7  1  0
  9 11  1  0
  9  6  1  0
 10  9  2  0
 12 11  1  0
 12 15  1  0
 12 13  1  1
 14 13  1  0
 15 16  1  0
 17 15  2  0
M  END
$$$$
