GCC.pdb
     RDKit          3D

 17 16  0  0  1  0  0  0  0  0999 V2000
   -4.6550  -26.1093   23.6016 N   0  0  0  0  0  0  0  0  0  0  0  0
   -4.7979  -26.2637   25.0133 C   0  0  0  0  0  0  0  0  0  0  0  0
   -5.2150  -24.9641   25.6018 C   0  0  0  0  0  0  0  0  0  0  0  0
   -4.4577  -24.4063   26.4363 O   0  0  0  0  0  0  0  0  0  0  0  0
   -6.4279  -24.3254   25.2645 N   0  0  0  0  0  0  0  0  0  0  0  0
   -6.7462  -23.0668   25.9485 C   0  0  1  0  0  0  0  0  0  0  0  0
   -7.7890  -22.3102   25.1176 C   0  0  0  0  0  0  0  0  0  0  0  0
   -8.3374  -20.8344   25.9586 S   0  0  0  0  0  0  0  0  0  0  0  0
   -7.4120  -23.4689   27.2129 C   0  0  0  0  0  0  0  0  0  0  0  0
   -8.1659  -24.5102   27.2565 O   0  0  0  0  0  0  0  0  0  0  0  0
   -7.2871  -22.7753   28.4495 N   0  0  0  0  0  0  0  0  0  0  0  0
   -7.9949  -23.2496   29.6518 C   0  0  1  0  0  0  0  0  0  0  0  0
   -7.0742  -24.1104   30.4908 C   0  0  0  0  0  0  0  0  0  0  0  0
   -7.7672  -24.3934   32.1395 S   0  0  0  0  0  0  0  0  0  0  0  0
   -8.5204  -22.0859   30.3865 C   0  0  0  0  0  0  0  0  0  0  0  0
   -9.6586  -22.1854   31.1525 O   0  0  0  0  0  0  0  0  0  0  0  0
   -7.9256  -20.9936   30.3137 O   0  0  0  0  0  0  0  0  0  0  0  0
  1  2  1  0
  2  3  1  0
  3  4  2  0
  3  5  1  0
  5  6  1  0
  6  7  1  6
  8  7  1  0
  9 11  1  0
  9  6  1  0
 10  9  2  0
 12 11  1  0
 12 15  1  0
 12 13  1  1
 14 13  1  0
 15 16  1  0
 17 15  2  0
M  END
$$$$
