GCC.pdb
     RDKit          3D

 17 16  0  0  1  0  0  0  0  0999 V2000
    7.5808  -14.1811   20.0773 N   0  0  0  0  0  0  0  0  0  0  0  0
    6.6414  -14.0907   21.1482 C   0  0  0  0  0  0  0  0  0  0  0  0
    7.3786  -13.8776   22.4210 C   0  0  0  0  0  0  0  0  0  0  0  0
    8.6305  -13.9956   22.4229 O   0  0  0  0  0  0  0  0  0  0  0  0
    6.7339  -13.5472   23.6327 N   0  0  0  0  0  0  0  0  0  0  0  0
    7.5638  -13.4484   24.8389 C   0  0  1  0  0  0  0  0  0  0  0  0
    6.8042  -12.6277   25.8877 C   0  0  0  0  0  0  0  0  0  0  0  0
    7.7162  -12.5346   27.4191 S   0  0  0  0  0  0  0  0  0  0  0  0
    7.6569  -14.8347   25.3615 C   0  0  0  0  0  0  0  0  0  0  0  0
    6.7457  -15.7016   25.0914 O   0  0  0  0  0  0  0  0  0  0  0  0
    8.7172  -15.3233   26.1756 N   0  0  0  0  0  0  0  0  0  0  0  0
    9.2276  -16.6946   26.0015 C   0  0  1  0  0  0  0  0  0  0  0  0
    9.6820  -16.9021   24.5721 C   0  0  0  0  0  0  0  0  0  0  0  0
   10.4387  -18.5330   24.3575 S   0  0  0  0  0  0  0  0  0  0  0  0
   10.2984  -16.9338   26.9846 C   0  0  0  0  0  0  0  0  0  0  0  0
   11.3071  -16.0176   27.1719 O   0  0  0  0  0  0  0  0  0  0  0  0
   10.2914  -17.9822   27.6577 O   0  0  0  0  0  0  0  0  0  0  0  0
  1  2  1  0
  2  3  1  0
  3  4  2  0
  3  5  1  0
  5  6  1  0
  6  7  1  1
  8  7  1  0
  9 11  1  0
  9  6  1  0
 10  9  2  0
 12 11  1  0
 12 15  1  0
 12 13  1  6
 14 13  1  0
 15 16  1  0
 17 15  2  0
M  END
$$$$
