GCC.pdb
     RDKit          3D

 17 16  0  0  1  0  0  0  0  0999 V2000
    6.8094  -17.0210   21.8001 N   0  0  0  0  0  0  0  0  0  0  0  0
    6.2778  -16.9164   23.1206 C   0  0  0  0  0  0  0  0  0  0  0  0
    6.9940  -15.8344   23.8455 C   0  0  0  0  0  0  0  0  0  0  0  0
    8.0366  -15.3507   23.3353 O   0  0  0  0  0  0  0  0  0  0  0  0
    6.5546  -15.3234   25.0860 N   0  0  0  0  0  0  0  0  0  0  0  0
    7.4093  -14.3359   25.7551 C   0  0  1  0  0  0  0  0  0  0  0  0
    6.5786  -13.6167   26.8243 C   0  0  0  0  0  0  0  0  0  0  0  0
    5.4714  -12.4257   26.0886 S   0  0  0  0  0  0  0  0  0  0  0  0
    8.4366  -15.1327   26.4716 C   0  0  0  0  0  0  0  0  0  0  0  0
    8.1762  -16.3235   26.8826 O   0  0  0  0  0  0  0  0  0  0  0  0
    9.7549  -14.6807   26.7610 N   0  0  0  0  0  0  0  0  0  0  0  0
   10.7483  -15.5926   27.3551 C   0  0  1  0  0  0  0  0  0  0  0  0
   12.1190  -14.9497   27.3383 C   0  0  0  0  0  0  0  0  0  0  0  0
   12.0595  -13.2670   28.0043 S   0  0  0  0  0  0  0  0  0  0  0  0
   10.3050  -15.9640   28.7101 C   0  0  0  0  0  0  0  0  0  0  0  0
   10.8491  -17.0456   29.3629 O   0  0  0  0  0  0  0  0  0  0  0  0
    9.4235  -15.2885   29.2748 O   0  0  0  0  0  0  0  0  0  0  0  0
  1  2  1  0
  2  3  1  0
  3  4  2  0
  3  5  1  0
  5  6  1  0
  6  7  1  1
  8  7  1  0
  9 11  1  0
  9  6  1  0
 10  9  2  0
 12 11  1  0
 12 15  1  0
 12 13  1  1
 14 13  1  0
 15 16  1  0
 17 15  2  0
M  END
$$$$
