CCQ.pdb
     RDKit          3D

 22 21  0  0  1  0  0  0  0  0999 V2000
   21.6722  -13.0228  -17.3493 N   0  0  0  0  0  0  0  0  0  0  0  0
   22.0010  -11.6372  -17.4579 C   0  0  1  0  0  0  0  0  0  0  0  0
   21.9017  -11.2264  -18.9112 C   0  0  0  0  0  0  0  0  0  0  0  0
   23.2308  -12.0184  -19.8706 S   0  0  0  0  0  0  0  0  0  0  0  0
   21.0326  -10.7705  -16.7099 C   0  0  0  0  0  0  0  0  0  0  0  0
   19.8805  -11.2434  -16.5345 O   0  0  0  0  0  0  0  0  0  0  0  0
   21.3822   -9.4963  -16.2261 N   0  0  0  0  0  0  0  0  0  0  0  0
   20.4081   -8.6971  -15.4727 C   0  0  1  0  0  0  0  0  0  0  0  0
   20.6796   -9.0371  -14.0120 C   0  0  0  0  0  0  0  0  0  0  0  0
   22.4131   -9.2819  -13.6472 S   0  0  0  0  0  0  0  0  0  0  0  0
   20.6616   -7.2440  -15.7189 C   0  0  0  0  0  0  0  0  0  0  0  0
   21.7793   -6.8880  -16.2282 O   0  0  0  0  0  0  0  0  0  0  0  0
   20.9280   -5.0863  -20.0215 N   0  0  0  0  0  0  0  0  0  0  0  0
   20.7577   -3.7789  -19.4969 C   0  0  0  0  0  0  0  0  0  0  0  0
   20.8853   -2.7955  -20.2534 O   0  0  0  0  0  0  0  0  0  0  0  0
   20.4369   -3.6151  -18.0767 C   0  0  0  0  0  0  0  0  0  0  0  0
   20.3057   -4.9041  -17.3555 C   0  0  0  0  0  0  0  0  0  0  0  0
   19.9688   -4.8356  -15.9076 C   0  0  2  0  0  0  0  0  0  0  0  0
   19.7567   -6.2084  -15.4334 N   0  0  0  0  0  0  0  0  0  0  0  0
   18.8117   -3.9820  -15.5751 C   0  0  0  0  0  0  0  0  0  0  0  0
   17.6558   -4.4651  -15.5413 O   0  0  0  0  0  0  0  0  0  0  0  0
   18.9353   -2.6178  -15.2857 O   0  0  0  0  0  0  0  0  0  0  0  0
  2  1  1  6
  2  5  1  0
  2  3  1  0
  4  3  1  0
  5  6  2  0
  7  8  1  0
  7  5  1  0
  8 11  1  0
  9 10  1  0
  8  9  1  1
 11 12  2  0
 11 19  1  0
 13 14  1  0
 14 15  2  0
 16 17  1  0
 16 14  1  0
 18 20  1  0
 18 17  1  6
 19 18  1  0
 20 22  1  0
 21 20  2  0
M  END
$$$$
