CCQ.pdb
     RDKit          3D

 22 21  0  0  1  0  0  0  0  0999 V2000
   20.8715  -14.0090  -17.0810 N   0  0  0  0  0  0  0  0  0  0  0  0
   20.9927  -12.6639  -17.5454 C   0  0  1  0  0  0  0  0  0  0  0  0
   19.9776  -12.4357  -18.6447 C   0  0  0  0  0  0  0  0  0  0  0  0
   20.0966  -10.7235  -19.2515 S   0  0  0  0  0  0  0  0  0  0  0  0
   20.6767  -11.6682  -16.4696 C   0  0  0  0  0  0  0  0  0  0  0  0
   19.6850  -11.9290  -15.7415 O   0  0  0  0  0  0  0  0  0  0  0  0
   21.4407  -10.5026  -16.2758 N   0  0  0  0  0  0  0  0  0  0  0  0
   21.1139   -9.5756  -15.1854 C   0  0  1  0  0  0  0  0  0  0  0  0
   21.8331  -10.1450  -13.9683 C   0  0  0  0  0  0  0  0  0  0  0  0
   23.5906  -10.3635  -14.2161 S   0  0  0  0  0  0  0  0  0  0  0  0
   21.6490   -8.2177  -15.5110 C   0  0  0  0  0  0  0  0  0  0  0  0
   22.7101   -8.1235  -16.2186 O   0  0  0  0  0  0  0  0  0  0  0  0
   18.1505   -3.7896  -16.7686 N   0  0  0  0  0  0  0  0  0  0  0  0
   18.7440   -4.6875  -17.6932 C   0  0  0  0  0  0  0  0  0  0  0  0
   18.1548   -4.9412  -18.7628 O   0  0  0  0  0  0  0  0  0  0  0  0
   20.0361   -5.2971  -17.3683 C   0  0  0  0  0  0  0  0  0  0  0  0
   20.5653   -4.8750  -16.0488 C   0  0  0  0  0  0  0  0  0  0  0  0
   21.6517   -5.7050  -15.4611 C   0  0  2  0  0  0  0  0  0  0  0  0
   21.0738   -7.0045  -15.0984 N   0  0  0  0  0  0  0  0  0  0  0  0
   22.3456   -5.1000  -14.3076 C   0  0  0  0  0  0  0  0  0  0  0  0
   22.1247   -5.5144  -13.1457 O   0  0  0  0  0  0  0  0  0  0  0  0
   23.2673   -4.0548  -14.4413 O   0  0  0  0  0  0  0  0  0  0  0  0
  2  1  1  1
  2  5  1  0
  2  3  1  0
  4  3  1  0
  5  6  2  0
  7  8  1  0
  7  5  1  0
  8 11  1  0
  9 10  1  0
  8  9  1  1
 11 12  2  0
 11 19  1  0
 13 14  1  0
 14 15  2  0
 16 17  1  0
 16 14  1  0
 18 20  1  0
 18 17  1  1
 19 18  1  0
 20 22  1  0
 21 20  2  0
M  END
$$$$
