CCQ.pdb
     RDKit          3D

 22 21  0  0  1  0  0  0  0  0999 V2000
   28.3281  -21.3192  -16.0584 N   0  0  0  0  0  0  0  0  0  0  0  0
   28.2172  -20.6357  -14.8093 C   0  0  1  0  0  0  0  0  0  0  0  0
   27.9044  -19.1794  -15.0781 C   0  0  0  0  0  0  0  0  0  0  0  0
   26.4432  -19.0489  -16.1560 S   0  0  0  0  0  0  0  0  0  0  0  0
   27.0838  -21.1620  -13.9804 C   0  0  0  0  0  0  0  0  0  0  0  0
   26.2944  -21.9554  -14.5538 O   0  0  0  0  0  0  0  0  0  0  0  0
   26.9034  -20.7954  -12.6339 N   0  0  0  0  0  0  0  0  0  0  0  0
   25.7434  -21.2883  -11.8812 C   0  0  1  0  0  0  0  0  0  0  0  0
   26.0091  -20.8613  -10.4424 C   0  0  0  0  0  0  0  0  0  0  0  0
   24.5836  -21.0253   -9.3752 S   0  0  0  0  0  0  0  0  0  0  0  0
   24.5026  -20.6290  -12.3932 C   0  0  0  0  0  0  0  0  0  0  0  0
   24.5350  -19.3819  -12.6742 O   0  0  0  0  0  0  0  0  0  0  0  0
   23.1863  -20.6004  -17.1017 N   0  0  0  0  0  0  0  0  0  0  0  0
   22.4038  -21.6986  -16.6601 C   0  0  0  0  0  0  0  0  0  0  0  0
   22.2636  -22.6883  -17.4061 O   0  0  0  0  0  0  0  0  0  0  0  0
   21.7773  -21.6432  -15.3368 C   0  0  0  0  0  0  0  0  0  0  0  0
   22.1761  -20.4501  -14.5517 C   0  0  0  0  0  0  0  0  0  0  0  0
   22.0835  -20.5558  -13.0701 C   0  0  2  0  0  0  0  0  0  0  0  0
   23.2728  -21.2755  -12.5990 N   0  0  0  0  0  0  0  0  0  0  0  0
   20.8516  -21.1925  -12.5650 C   0  0  0  0  0  0  0  0  0  0  0  0
   20.9117  -22.2579  -11.9078 O   0  0  0  0  0  0  0  0  0  0  0  0
   19.5771  -20.6568  -12.7852 O   0  0  0  0  0  0  0  0  0  0  0  0
  2  1  1  6
  2  5  1  0
  2  3  1  0
  4  3  1  0
  5  6  2  0
  7  8  1  0
  7  5  1  0
  8 11  1  0
  9 10  1  0
  8  9  1  1
 11 12  2  0
 11 19  1  0
 13 14  1  0
 14 15  2  0
 16 17  1  0
 16 14  1  0
 18 20  1  0
 18 17  1  6
 19 18  1  0
 20 22  1  0
 21 20  2  0
M  END
$$$$
