CCQ.pdb
     RDKit          3D

 22 21  0  0  1  0  0  0  0  0999 V2000
   22.5401  -12.5455  -18.8976 N   0  0  0  0  0  0  0  0  0  0  0  0
   21.1835  -12.7694  -18.5116 C   0  0  1  0  0  0  0  0  0  0  0  0
   21.0387  -14.2049  -18.0541 C   0  0  0  0  0  0  0  0  0  0  0  0
   21.6458  -15.3314  -19.3488 S   0  0  0  0  0  0  0  0  0  0  0  0
   20.7835  -11.9153  -17.3458 C   0  0  0  0  0  0  0  0  0  0  0  0
   19.6018  -12.0478  -16.9362 O   0  0  0  0  0  0  0  0  0  0  0  0
   21.6727  -11.0116  -16.7354 N   0  0  0  0  0  0  0  0  0  0  0  0
   21.2299  -10.1859  -15.6053 C   0  0  1  0  0  0  0  0  0  0  0  0
   22.3840  -10.2436  -14.6115 C   0  0  0  0  0  0  0  0  0  0  0  0
   22.1937   -9.1217  -13.2319 S   0  0  0  0  0  0  0  0  0  0  0  0
   21.0202   -8.7800  -16.0698 C   0  0  0  0  0  0  0  0  0  0  0  0
   21.8908   -8.2457  -16.8392 O   0  0  0  0  0  0  0  0  0  0  0  0
   15.7209   -5.6620  -16.5448 N   0  0  0  0  0  0  0  0  0  0  0  0
   16.6194   -4.5740  -16.6938 C   0  0  0  0  0  0  0  0  0  0  0  0
   16.1656   -3.4294  -16.8927 O   0  0  0  0  0  0  0  0  0  0  0  0
   18.0612   -4.8217  -16.6116 C   0  0  0  0  0  0  0  0  0  0  0  0
   18.3944   -6.2351  -16.3110 C   0  0  0  0  0  0  0  0  0  0  0  0
   19.8344   -6.5650  -16.1313 C   0  0  2  0  0  0  0  0  0  0  0  0
   19.9224   -7.9734  -15.7276 N   0  0  0  0  0  0  0  0  0  0  0  0
   20.5592   -5.7010  -15.1794 C   0  0  0  0  0  0  0  0  0  0  0  0
   21.2489   -4.7399  -15.5933 O   0  0  0  0  0  0  0  0  0  0  0  0
   20.5194   -5.8999  -13.7942 O   0  0  0  0  0  0  0  0  0  0  0  0
  2  1  1  1
  2  5  1  0
  2  3  1  0
  4  3  1  0
  5  6  2  0
  7  8  1  0
  7  5  1  0
  8 11  1  0
  9 10  1  0
  8  9  1  1
 11 12  2  0
 11 19  1  0
 13 14  1  0
 14 15  2  0
 16 17  1  0
 16 14  1  0
 18 20  1  0
 18 17  1  1
 19 18  1  0
 20 22  1  0
 21 20  2  0
M  END
$$$$
