CCQ.pdb
     RDKit          3D

 22 21  0  0  1  0  0  0  0  0999 V2000
   25.9661  -21.5205  -11.7311 N   0  0  0  0  0  0  0  0  0  0  0  0
   25.7598  -21.3220  -13.1303 C   0  0  1  0  0  0  0  0  0  0  0  0
   24.5856  -22.1680  -13.5734 C   0  0  0  0  0  0  0  0  0  0  0  0
   25.0036  -23.9336  -13.4245 S   0  0  0  0  0  0  0  0  0  0  0  0
   25.3971  -19.9021  -13.4481 C   0  0  0  0  0  0  0  0  0  0  0  0
   25.3582  -19.1050  -12.4761 O   0  0  0  0  0  0  0  0  0  0  0  0
   25.1140  -19.4733  -14.7580 N   0  0  0  0  0  0  0  0  0  0  0  0
   25.2851  -18.0633  -15.1291 C   0  0  1  0  0  0  0  0  0  0  0  0
   26.7822  -17.8101  -14.9975 C   0  0  0  0  0  0  0  0  0  0  0  0
   27.1792  -16.3964  -13.9767 S   0  0  0  0  0  0  0  0  0  0  0  0
   24.8524  -17.8671  -16.5471 C   0  0  0  0  0  0  0  0  0  0  0  0
   25.2198  -18.7164  -17.4298 O   0  0  0  0  0  0  0  0  0  0  0  0
   20.6690  -19.5475  -14.8393 N   0  0  0  0  0  0  0  0  0  0  0  0
   19.9068  -19.0518  -15.9286 C   0  0  0  0  0  0  0  0  0  0  0  0
   18.7005  -19.3555  -16.0188 O   0  0  0  0  0  0  0  0  0  0  0  0
   20.5563  -18.1946  -16.9237 C   0  0  0  0  0  0  0  0  0  0  0  0
   21.9730  -17.8971  -16.6021 C   0  0  0  0  0  0  0  0  0  0  0  0
   22.7102  -17.0194  -17.5513 C   0  0  2  0  0  0  0  0  0  0  0  0
   24.0565  -16.8052  -17.0072 N   0  0  0  0  0  0  0  0  0  0  0  0
   22.0545  -15.7313  -17.8489 C   0  0  0  0  0  0  0  0  0  0  0  0
   21.2140  -15.6461  -18.7747 O   0  0  0  0  0  0  0  0  0  0  0  0
   22.3264  -14.5596  -17.1325 O   0  0  0  0  0  0  0  0  0  0  0  0
  2  1  1  1
  2  5  1  0
  2  3  1  0
  4  3  1  0
  5  6  2  0
  7  8  1  0
  7  5  1  0
  8 11  1  0
  9 10  1  0
  8  9  1  6
 11 12  2  0
 11 19  1  0
 13 14  1  0
 14 15  2  0
 16 17  1  0
 16 14  1  0
 18 20  1  0
 18 17  1  1
 19 18  1  0
 20 22  1  0
 21 20  2  0
M  END
$$$$
