CCQ.pdb
     RDKit          3D

 22 21  0  0  1  0  0  0  0  0999 V2000
   13.3905  -11.6697   -9.9881 N   0  0  0  0  0  0  0  0  0  0  0  0
   14.7136  -11.1374  -10.0619 C   0  0  1  0  0  0  0  0  0  0  0  0
   15.3673  -11.6340  -11.3335 C   0  0  0  0  0  0  0  0  0  0  0  0
   15.7821  -13.3988  -11.1677 S   0  0  0  0  0  0  0  0  0  0  0  0
   14.7122   -9.6403  -10.1482 C   0  0  0  0  0  0  0  0  0  0  0  0
   13.8408   -9.1250  -10.8944 O   0  0  0  0  0  0  0  0  0  0  0  0
   15.6304   -8.8451   -9.4379 N   0  0  0  0  0  0  0  0  0  0  0  0
   15.5467   -7.3809   -9.5016 C   0  0  1  0  0  0  0  0  0  0  0  0
   15.3073   -6.9465   -8.0605 C   0  0  0  0  0  0  0  0  0  0  0  0
   13.5882   -7.0125   -7.5721 S   0  0  0  0  0  0  0  0  0  0  0  0
   16.8462   -6.8303   -9.9962 C   0  0  0  0  0  0  0  0  0  0  0  0
   17.9357   -7.3907   -9.6297 O   0  0  0  0  0  0  0  0  0  0  0  0
   19.3337   -9.1318  -13.4038 N   0  0  0  0  0  0  0  0  0  0  0  0
   20.1850   -8.0247  -13.6544 C   0  0  0  0  0  0  0  0  0  0  0  0
   21.2058   -8.1845  -14.3530 O   0  0  0  0  0  0  0  0  0  0  0  0
   19.8449   -6.7185  -13.0844 C   0  0  0  0  0  0  0  0  0  0  0  0
   18.6433   -6.7556  -12.2161 C   0  0  0  0  0  0  0  0  0  0  0  0
   18.2105   -5.4679  -11.6083 C   0  0  2  0  0  0  0  0  0  0  0  0
   16.9795   -5.7237  -10.8509 N   0  0  0  0  0  0  0  0  0  0  0  0
   18.0170   -4.3599  -12.5637 C   0  0  0  0  0  0  0  0  0  0  0  0
   16.9075   -4.1891  -13.1209 O   0  0  0  0  0  0  0  0  0  0  0  0
   19.0358   -3.4585  -12.8945 O   0  0  0  0  0  0  0  0  0  0  0  0
  2  1  1  6
  2  5  1  0
  2  3  1  0
  4  3  1  0
  5  6  2  0
  7  8  1  0
  7  5  1  0
  8 11  1  0
  9 10  1  0
  8  9  1  1
 11 12  2  0
 11 19  1  0
 13 14  1  0
 14 15  2  0
 16 17  1  0
 16 14  1  0
 18 20  1  0
 18 17  1  6
 19 18  1  0
 20 22  1  0
 21 20  2  0
M  END
$$$$
