CCQ.pdb
     RDKit          3D

 22 21  0  0  1  0  0  0  0  0999 V2000
   14.7893  -12.4679  -11.7588 N   0  0  0  0  0  0  0  0  0  0  0  0
   15.8875  -11.7394  -11.2084 C   0  0  1  0  0  0  0  0  0  0  0  0
   17.1043  -11.9617  -12.0806 C   0  0  0  0  0  0  0  0  0  0  0  0
   17.7044  -13.6689  -11.8824 S   0  0  0  0  0  0  0  0  0  0  0  0
   15.6362  -10.2611  -11.2079 C   0  0  0  0  0  0  0  0  0  0  0  0
   15.0514   -9.7939  -12.2185 O   0  0  0  0  0  0  0  0  0  0  0  0
   16.0287   -9.4319  -10.1409 N   0  0  0  0  0  0  0  0  0  0  0  0
   15.7333   -7.9942  -10.1727 C   0  0  1  0  0  0  0  0  0  0  0  0
   15.3583   -7.6470   -8.7369 C   0  0  0  0  0  0  0  0  0  0  0  0
   15.3751   -5.8906   -8.4004 S   0  0  0  0  0  0  0  0  0  0  0  0
   16.9612   -7.2441  -10.5801 C   0  0  0  0  0  0  0  0  0  0  0  0
   18.0156   -7.3467   -9.8638 O   0  0  0  0  0  0  0  0  0  0  0  0
   20.2776   -7.9790  -15.0690 N   0  0  0  0  0  0  0  0  0  0  0  0
   20.3040   -8.5256  -13.7598 C   0  0  0  0  0  0  0  0  0  0  0  0
   20.8708   -9.6195  -13.5656 O   0  0  0  0  0  0  0  0  0  0  0  0
   19.6627   -7.7913  -12.6660 C   0  0  0  0  0  0  0  0  0  0  0  0
   18.9874   -6.5493  -13.1137 C   0  0  0  0  0  0  0  0  0  0  0  0
   18.3117   -5.7345  -12.0678 C   0  0  2  0  0  0  0  0  0  0  0  0
   17.0617   -6.4157  -11.7099 N   0  0  0  0  0  0  0  0  0  0  0  0
   18.0546   -4.3296  -12.4395 C   0  0  0  0  0  0  0  0  0  0  0  0
   16.9161   -3.9728  -12.8229 O   0  0  0  0  0  0  0  0  0  0  0  0
   19.0428   -3.3392  -12.3867 O   0  0  0  0  0  0  0  0  0  0  0  0
  2  1  1  6
  2  5  1  0
  2  3  1  0
  4  3  1  0
  5  6  2  0
  7  8  1  0
  7  5  1  0
  8 11  1  0
  9 10  1  0
  8  9  1  1
 11 12  2  0
 11 19  1  0
 13 14  1  0
 14 15  2  0
 16 17  1  0
 16 14  1  0
 18 20  1  0
 18 17  1  6
 19 18  1  0
 20 22  1  0
 21 20  2  0
M  END
$$$$
