STM.pdb
     RDKit          3D

 22 21  0  0  1  0  0  0  0  0999 V2000
    9.2447  -11.9167   19.2418 O   0  0  0  0  0  0  0  0  0  0  0  0
    9.9310  -13.1234   19.1576 C   0  0  0  0  0  0  0  0  0  0  0  0
    9.0820  -14.1474   18.4242 C   0  0  2  0  0  0  0  0  0  0  0  0
    8.3010  -13.4637   17.4263 N   0  0  0  0  0  0  0  0  0  0  0  0
    8.2158  -14.9006   19.3418 C   0  0  0  0  0  0  0  0  0  0  0  0
    7.1086  -15.3680   18.9824 O   0  0  0  0  0  0  0  0  0  0  0  0
    7.4152  -17.3089   19.5634 C   0  0  0  0  0  0  0  0  0  0  0  0
    7.9166  -17.3805   21.0059 C   0  0  1  0  0  0  0  0  0  0  0  0
    9.1985  -17.9194   20.9446 O   0  0  0  0  0  0  0  0  0  0  0  0
    7.9659  -15.9794   21.6196 C   0  0  2  0  0  0  0  0  0  0  0  0
    8.6149  -15.1222   20.6779 N   0  0  0  0  0  0  0  0  0  0  0  0
    8.5930  -15.9943   22.9429 C   0  0  0  0  0  0  0  0  0  0  0  0
    9.7931  -15.6488   23.0808 O   0  0  0  0  0  0  0  0  0  0  0  0
    6.8974  -11.4364   27.7811 C   0  0  0  0  0  0  0  0  0  0  0  0
    6.3001  -12.1326   26.2618 S   0  0  0  0  0  0  0  0  0  0  0  0
    7.3501  -13.3275   25.4509 C   0  0  0  0  0  0  0  0  0  0  0  0
    7.0273  -14.7583   25.6814 C   0  0  0  0  0  0  0  0  0  0  0  0
    8.1298  -15.7099   25.3931 C   0  0  2  0  0  0  0  0  0  0  0  0
    7.8935  -16.3912   24.1143 N   0  0  0  0  0  0  0  0  0  0  0  0
    8.4309  -16.6673   26.4613 C   0  0  0  0  0  0  0  0  0  0  0  0
    8.0357  -17.8484   26.5266 O   0  0  0  0  0  0  0  0  0  0  0  0
    9.2450  -16.2319   27.5296 O   0  0  0  0  0  0  0  0  0  0  0  0
  2  1  1  0
  3  5  1  0
  3  2  1  0
  3  4  1  6
  5 11  1  0
  6  5  2  0
  8  7  1  6
  9  8  1  0
 10 12  1  0
 10  8  1  0
 10 11  1  6
 12 19  1  0
 12 13  2  0
 15 14  1  0
 15 16  1  0
 16 17  1  0
 18 17  1  1
 18 20  1  0
 19 18  1  0
 20 21  2  0
 20 22  1  0
M  END
$$$$
