STM.pdb
     RDKit          3D

 22 21  0  0  1  0  0  0  0  0999 V2000
   10.5344  -20.3772   19.5418 O   0  0  0  0  0  0  0  0  0  0  0  0
   10.2271  -19.2268   20.2605 C   0  0  0  0  0  0  0  0  0  0  0  0
    9.9020  -18.0938   19.3023 C   0  0  2  0  0  0  0  0  0  0  0  0
   10.8456  -18.1293   18.2152 N   0  0  0  0  0  0  0  0  0  0  0  0
    9.9230  -16.7858   19.9716 C   0  0  0  0  0  0  0  0  0  0  0  0
   10.9505  -16.0667   20.0002 O   0  0  0  0  0  0  0  0  0  0  0  0
    7.8181  -13.9005   19.3260 C   0  0  0  0  0  0  0  0  0  0  0  0
    7.5178  -14.2668   20.7796 C   0  0  1  0  0  0  0  0  0  0  0  0
    6.3541  -15.0301   20.7547 O   0  0  0  0  0  0  0  0  0  0  0  0
    8.6691  -15.0853   21.3683 C   0  0  2  0  0  0  0  0  0  0  0  0
    8.7648  -16.2945   20.6124 N   0  0  0  0  0  0  0  0  0  0  0  0
    8.4988  -15.2940   22.8077 C   0  0  0  0  0  0  0  0  0  0  0  0
    7.7606  -16.2176   23.2326 O   0  0  0  0  0  0  0  0  0  0  0  0
    6.0609  -10.8841   28.1280 C   0  0  0  0  0  0  0  0  0  0  0  0
    7.1108  -11.6281   26.9057 S   0  0  0  0  0  0  0  0  0  0  0  0
    6.5115  -13.1155   26.1208 C   0  0  0  0  0  0  0  0  0  0  0  0
    7.2032  -13.5327   24.8750 C   0  0  0  0  0  0  0  0  0  0  0  0
    8.5072  -14.2142   25.0734 C   0  0  2  0  0  0  0  0  0  0  0  0
    9.1447  -14.4814   23.7781 N   0  0  0  0  0  0  0  0  0  0  0  0
    8.4681  -15.4181   25.9085 C   0  0  0  0  0  0  0  0  0  0  0  0
    8.0085  -16.5297   25.5795 O   0  0  0  0  0  0  0  0  0  0  0  0
    8.9962  -15.3340   27.2153 O   0  0  0  0  0  0  0  0  0  0  0  0
  2  1  1  0
  3  5  1  0
  3  2  1  0
  3  4  1  6
  5 11  1  0
  6  5  2  0
  8  7  1  6
  9  8  1  0
 10 12  1  0
 10  8  1  0
 10 11  1  6
 12 19  1  0
 12 13  2  0
 15 14  1  0
 15 16  1  0
 16 17  1  0
 18 17  1  6
 18 20  1  0
 19 18  1  0
 20 21  2  0
 20 22  1  0
M  END
$$$$
