STM.pdb
     RDKit          3D

 22 21  0  0  1  0  0  0  0  0999 V2000
   13.5790  -15.5259   18.4248 O   0  0  0  0  0  0  0  0  0  0  0  0
   12.3714  -15.5059   19.1145 C   0  0  0  0  0  0  0  0  0  0  0  0
   11.3141  -16.2545   18.3213 C   0  0  2  0  0  0  0  0  0  0  0  0
   11.1445  -15.5973   17.0514 N   0  0  0  0  0  0  0  0  0  0  0  0
   10.0378  -16.3328   19.0453 C   0  0  0  0  0  0  0  0  0  0  0  0
    8.9495  -16.5459   18.4589 O   0  0  0  0  0  0  0  0  0  0  0  0
    8.1323  -17.9732   19.5164 C   0  0  0  0  0  0  0  0  0  0  0  0
    8.3169  -17.7569   21.0185 C   0  0  1  0  0  0  0  0  0  0  0  0
    9.2365  -18.7138   21.4380 O   0  0  0  0  0  0  0  0  0  0  0  0
    8.8619  -16.3525   21.2884 C   0  0  2  0  0  0  0  0  0  0  0  0
   10.0022  -16.1669   20.4470 N   0  0  0  0  0  0  0  0  0  0  0  0
    9.1321  -16.1456   22.7127 C   0  0  0  0  0  0  0  0  0  0  0  0
   10.3022  -16.2488   23.1586 O   0  0  0  0  0  0  0  0  0  0  0  0
    6.1188  -11.0997   28.0651 C   0  0  0  0  0  0  0  0  0  0  0  0
    5.9487  -12.1898   26.6749 S   0  0  0  0  0  0  0  0  0  0  0  0
    7.3538  -13.2157   26.2740 C   0  0  0  0  0  0  0  0  0  0  0  0
    7.2254  -14.0751   25.0700 C   0  0  0  0  0  0  0  0  0  0  0  0
    8.3895  -14.9539   24.7930 C   0  0  2  0  0  0  0  0  0  0  0  0
    8.1087  -15.8246   23.6447 N   0  0  0  0  0  0  0  0  0  0  0  0
    8.8850  -15.7227   25.9383 C   0  0  0  0  0  0  0  0  0  0  0  0
    8.6632  -16.9279   26.1695 O   0  0  0  0  0  0  0  0  0  0  0  0
    9.6932  -15.0543   26.8837 O   0  0  0  0  0  0  0  0  0  0  0  0
  2  1  1  0
  3  5  1  0
  3  2  1  0
  3  4  1  6
  5 11  1  0
  6  5  2  0
  8  7  1  6
  9  8  1  0
 10 12  1  0
 10  8  1  0
 10 11  1  6
 12 19  1  0
 12 13  2  0
 15 14  1  0
 15 16  1  0
 16 17  1  0
 18 17  1  1
 18 20  1  0
 19 18  1  0
 20 21  2  0
 20 22  1  0
M  END
$$$$
