STM.pdb
     RDKit          3D

 22 21  0  0  1  0  0  0  0  0999 V2000
    0.0117  -28.3046   27.9047 O   0  0  0  0  0  0  0  0  0  0  0  0
   -0.1611  -28.2523   26.5257 C   0  0  0  0  0  0  0  0  0  0  0  0
   -0.0402  -26.8159   26.0467 C   0  0  2  0  0  0  0  0  0  0  0  0
    1.2707  -26.3285   26.3890 N   0  0  0  0  0  0  0  0  0  0  0  0
   -1.0850  -25.9562   26.6202 C   0  0  0  0  0  0  0  0  0  0  0  0
   -0.8543  -25.1659   27.5666 O   0  0  0  0  0  0  0  0  0  0  0  0
   -3.3975  -23.8794   24.4852 C   0  0  0  0  0  0  0  0  0  0  0  0
   -4.2933  -24.7475   25.3691 C   0  0  1  0  0  0  0  0  0  0  0  0
   -4.6823  -25.8288   24.5836 O   0  0  0  0  0  0  0  0  0  0  0  0
   -3.5142  -25.2404   26.5906 C   0  0  2  0  0  0  0  0  0  0  0  0
   -2.4012  -25.9982   26.1112 N   0  0  0  0  0  0  0  0  0  0  0  0
   -4.3781  -25.9725   27.5192 C   0  0  0  0  0  0  0  0  0  0  0  0
   -4.5517  -27.2095   27.3840 O   0  0  0  0  0  0  0  0  0  0  0  0
   -6.2319  -28.7687   34.3118 C   0  0  0  0  0  0  0  0  0  0  0  0
   -5.2658  -27.8253   33.1601 S   0  0  0  0  0  0  0  0  0  0  0  0
   -6.0792  -27.3017   31.6595 C   0  0  0  0  0  0  0  0  0  0  0  0
   -5.2387  -26.5905   30.6632 C   0  0  0  0  0  0  0  0  0  0  0  0
   -5.9606  -26.0975   29.4633 C   0  0  2  0  0  0  0  0  0  0  0  0
   -5.0506  -25.3371   28.5977 N   0  0  0  0  0  0  0  0  0  0  0  0
   -7.1922  -25.3498   29.7321 C   0  0  0  0  0  0  0  0  0  0  0  0
   -7.3454  -24.1169   29.6238 O   0  0  0  0  0  0  0  0  0  0  0  0
   -8.3271  -26.0750   30.1559 O   0  0  0  0  0  0  0  0  0  0  0  0
  2  1  1  0
  3  5  1  0
  3  2  1  0
  3  4  1  1
  5 11  1  0
  6  5  2  0
  8  7  1  6
  9  8  1  0
 10 12  1  0
 10  8  1  0
 10 11  1  6
 12 19  1  0
 12 13  2  0
 15 14  1  0
 15 16  1  0
 16 17  1  0
 18 17  1  1
 18 20  1  0
 19 18  1  0
 20 21  2  0
 20 22  1  0
M  END
$$$$
