STM.pdb
     RDKit          3D

 22 21  0  0  1  0  0  0  0  0999 V2000
    7.7297  -14.1385   17.2628 O   0  0  0  0  0  0  0  0  0  0  0  0
    8.0228  -12.8802   17.7775 C   0  0  0  0  0  0  0  0  0  0  0  0
    8.8130  -13.0236   19.0669 C   0  0  2  0  0  0  0  0  0  0  0  0
   10.0970  -13.5957   18.7551 N   0  0  0  0  0  0  0  0  0  0  0  0
    8.1016  -13.8423   20.0584 C   0  0  0  0  0  0  0  0  0  0  0  0
    6.9437  -13.5603   20.4500 O   0  0  0  0  0  0  0  0  0  0  0  0
    7.7900  -17.6220   19.9006 C   0  0  0  0  0  0  0  0  0  0  0  0
    8.4700  -17.2812   21.2268 C   0  0  1  0  0  0  0  0  0  0  0  0
    9.8363  -17.4406   21.0143 O   0  0  0  0  0  0  0  0  0  0  0  0
    8.1662  -15.8341   21.6214 C   0  0  2  0  0  0  0  0  0  0  0  0
    8.7146  -14.9898   20.6069 N   0  0  0  0  0  0  0  0  0  0  0  0
    8.6468  -15.5332   22.9715 C   0  0  0  0  0  0  0  0  0  0  0  0
    9.7936  -15.0498   23.1443 O   0  0  0  0  0  0  0  0  0  0  0  0
    6.7157  -10.3261   26.7689 C   0  0  0  0  0  0  0  0  0  0  0  0
    6.4386  -12.0760   26.8739 S   0  0  0  0  0  0  0  0  0  0  0  0
    7.6279  -13.1338   26.0650 C   0  0  0  0  0  0  0  0  0  0  0  0
    7.4186  -14.5969   26.2071 C   0  0  0  0  0  0  0  0  0  0  0  0
    8.3824  -15.4488   25.4659 C   0  0  2  0  0  0  0  0  0  0  0  0
    7.8598  -15.7668   24.1313 N   0  0  0  0  0  0  0  0  0  0  0  0
    8.8254  -16.6565   26.1684 C   0  0  0  0  0  0  0  0  0  0  0  0
    8.4750  -17.8267   25.9170 O   0  0  0  0  0  0  0  0  0  0  0  0
    9.7365  -16.5040   27.2362 O   0  0  0  0  0  0  0  0  0  0  0  0
  2  1  1  0
  3  5  1  0
  3  2  1  0
  3  4  1  6
  5 11  1  0
  6  5  2  0
  8  7  1  6
  9  8  1  0
 10 12  1  0
 10  8  1  0
 10 11  1  6
 12 19  1  0
 12 13  2  0
 15 14  1  0
 15 16  1  0
 16 17  1  0
 18 17  1  1
 18 20  1  0
 19 18  1  0
 20 21  2  0
 20 22  1  0
M  END
$$$$
