STM.pdb
     RDKit          3D

 22 21  0  0  1  0  0  0  0  0999 V2000
   12.1302  -20.1087   21.2254 O   0  0  0  0  0  0  0  0  0  0  0  0
   10.9028  -19.4587   21.2985 C   0  0  0  0  0  0  0  0  0  0  0  0
   10.7295  -18.5507   20.0932 C   0  0  2  0  0  0  0  0  0  0  0  0
   11.9465  -18.5745   19.3239 N   0  0  0  0  0  0  0  0  0  0  0  0
   10.3847  -17.1772   20.4856 C   0  0  0  0  0  0  0  0  0  0  0  0
   11.1990  -16.2286   20.3816 O   0  0  0  0  0  0  0  0  0  0  0  0
    6.9780  -13.8704   21.5817 C   0  0  0  0  0  0  0  0  0  0  0  0
    7.3307  -15.2921   21.1440 C   0  0  1  0  0  0  0  0  0  0  0  0
    7.3286  -15.2813   19.7522 O   0  0  0  0  0  0  0  0  0  0  0  0
    8.7178  -15.6774   21.6632 C   0  0  2  0  0  0  0  0  0  0  0  0
    9.1031  -16.8835   21.0001 N   0  0  0  0  0  0  0  0  0  0  0  0
    8.7384  -15.7679   23.1246 C   0  0  0  0  0  0  0  0  0  0  0  0
    8.1798  -16.7296   23.7093 O   0  0  0  0  0  0  0  0  0  0  0  0
    6.2694  -10.5843   26.8461 C   0  0  0  0  0  0  0  0  0  0  0  0
    5.8402  -12.3063   26.8349 S   0  0  0  0  0  0  0  0  0  0  0  0
    7.1852  -13.4752   26.7249 C   0  0  0  0  0  0  0  0  0  0  0  0
    7.7425  -13.7192   25.3704 C   0  0  0  0  0  0  0  0  0  0  0  0
    8.9473  -14.5857   25.3287 C   0  0  2  0  0  0  0  0  0  0  0  0
    9.3765  -14.7951   23.9404 N   0  0  0  0  0  0  0  0  0  0  0  0
    8.8347  -15.8562   26.0509 C   0  0  0  0  0  0  0  0  0  0  0  0
    9.3725  -16.1355   27.1408 O   0  0  0  0  0  0  0  0  0  0  0  0
    8.0463  -16.8764   25.4755 O   0  0  0  0  0  0  0  0  0  0  0  0
  2  1  1  0
  3  5  1  0
  3  2  1  0
  3  4  1  1
  5 11  1  0
  6  5  2  0
  8  7  1  1
  9  8  1  0
 10 12  1  0
 10  8  1  0
 10 11  1  6
 12 19  1  0
 12 13  2  0
 15 14  1  0
 15 16  1  0
 16 17  1  0
 18 17  1  6
 18 20  1  0
 19 18  1  0
 20 21  2  0
 20 22  1  0
M  END
$$$$
