STM.pdb
     RDKit          3D

 22 21  0  0  1  0  0  0  0  0999 V2000
   13.1229  -16.6495   18.1863 O   0  0  0  0  0  0  0  0  0  0  0  0
   12.0612  -16.1770   18.9504 C   0  0  0  0  0  0  0  0  0  0  0  0
   10.8859  -17.1333   18.8441 C   0  0  2  0  0  0  0  0  0  0  0  0
   10.3292  -17.0285   17.5203 N   0  0  0  0  0  0  0  0  0  0  0  0
    9.8640  -16.8628   19.8650 C   0  0  0  0  0  0  0  0  0  0  0  0
    8.8883  -16.1047   19.6486 O   0  0  0  0  0  0  0  0  0  0  0  0
    8.1680  -19.6225   21.5139 C   0  0  0  0  0  0  0  0  0  0  0  0
    8.6801  -18.7699   22.6750 C   0  0  1  0  0  0  0  0  0  0  0  0
    9.8424  -19.3881   23.1270 O   0  0  0  0  0  0  0  0  0  0  0  0
    8.9942  -17.3519   22.1928 C   0  0  2  0  0  0  0  0  0  0  0  0
    9.9555  -17.4607   21.1408 N   0  0  0  0  0  0  0  0  0  0  0  0
    9.4158  -16.4894   23.2986 C   0  0  0  0  0  0  0  0  0  0  0  0
   10.6279  -16.1936   23.4468 O   0  0  0  0  0  0  0  0  0  0  0  0
    5.5114  -11.8945   26.3841 C   0  0  0  0  0  0  0  0  0  0  0  0
    7.2041  -11.6427   26.8543 S   0  0  0  0  0  0  0  0  0  0  0  0
    8.3245  -13.0110   26.6090 C   0  0  0  0  0  0  0  0  0  0  0  0
    7.9957  -13.9474   25.5046 C   0  0  0  0  0  0  0  0  0  0  0  0
    8.9595  -15.0598   25.3104 C   0  0  2  0  0  0  0  0  0  0  0  0
    8.4974  -15.9536   24.2412 N   0  0  0  0  0  0  0  0  0  0  0  0
    9.3082  -15.8096   26.5207 C   0  0  0  0  0  0  0  0  0  0  0  0
    8.9007  -16.9479   26.8263 O   0  0  0  0  0  0  0  0  0  0  0  0
   10.1886  -15.2038   27.4433 O   0  0  0  0  0  0  0  0  0  0  0  0
  2  1  1  0
  3  5  1  0
  3  2  1  0
  3  4  1  6
  5 11  1  0
  6  5  2  0
  8  7  1  6
  9  8  1  0
 10 12  1  0
 10  8  1  0
 10 11  1  6
 12 19  1  0
 12 13  2  0
 15 14  1  0
 15 16  1  0
 16 17  1  0
 18 17  1  1
 18 20  1  0
 19 18  1  0
 20 21  2  0
 20 22  1  0
M  END
$$$$
