CTC.pdb
     RDKit          3D

 20 19  0  0  1  0  0  0  0  0999 V2000
   13.0586  -14.6409   17.4613 N   0  0  0  0  0  0  0  0  0  0  0  0
   12.4247  -15.4560   18.4788 C   0  0  1  0  0  0  0  0  0  0  0  0
   13.5655  -16.1427   19.2384 C   0  0  0  0  0  0  0  0  0  0  0  0
   14.1761  -17.4850   18.1952 S   0  0  0  0  0  0  0  0  0  0  0  0
   11.6776  -14.6155   19.4560 C   0  0  0  0  0  0  0  0  0  0  0  0
   12.1639  -13.5919   19.9639 O   0  0  0  0  0  0  0  0  0  0  0  0
    8.2391  -13.1992   18.7683 C   0  0  0  0  0  0  0  0  0  0  0  0
    8.1811  -14.0584   19.9891 C   0  0  1  0  0  0  0  0  0  0  0  0
    7.7358  -15.3539   19.6145 O   0  0  0  0  0  0  0  0  0  0  0  0
    9.5190  -14.1980   20.6968 C   0  0  2  0  0  0  0  0  0  0  0  0
   10.3607  -15.0233   19.8024 N   0  0  0  0  0  0  0  0  0  0  0  0
    9.4583  -14.8963   21.9762 C   0  0  0  0  0  0  0  0  0  0  0  0
    9.9346  -16.0771   22.0840 O   0  0  0  0  0  0  0  0  0  0  0  0
    8.8913  -14.3350   23.1429 N   0  0  0  0  0  0  0  0  0  0  0  0
    8.8370  -15.1180   24.3533 C   0  0  1  0  0  0  0  0  0  0  0  0
    8.2553  -14.2296   25.4583 C   0  0  0  0  0  0  0  0  0  0  0  0
    6.6289  -13.6360   24.9154 S   0  0  0  0  0  0  0  0  0  0  0  0
    7.9672  -16.3049   24.1851 C   0  0  0  0  0  0  0  0  0  0  0  0
    7.9721  -17.1694   25.0995 O   0  0  0  0  0  0  0  0  0  0  0  0
    7.1535  -16.5033   23.0715 O   0  0  0  0  0  0  0  0  0  0  0  0
  2  3  1  0
  2  5  1  0
  2  1  1  6
  4  3  1  0
  5  6  2  0
  8  7  1  6
  8  9  1  0
  8 10  1  0
 10 12  1  0
 10 11  1  6
 11  5  1  0
 12 13  2  0
 14 12  1  0
 14 15  1  0
 15 18  1  0
 16 17  1  0
 15 16  1  1
 18 19  2  0
 18 20  1  0
M  END
$$$$
