CTC.pdb
     RDKit          3D

 20 19  0  0  1  0  0  0  0  0999 V2000
    5.8970  -19.7328   20.6723 N   0  0  0  0  0  0  0  0  0  0  0  0
    6.3958  -18.6261   21.4649 C   0  0  1  0  0  0  0  0  0  0  0  0
    6.4638  -19.1393   22.9078 C   0  0  0  0  0  0  0  0  0  0  0  0
    4.7696  -19.2286   23.5281 S   0  0  0  0  0  0  0  0  0  0  0  0
    7.7786  -18.2501   21.0573 C   0  0  0  0  0  0  0  0  0  0  0  0
    8.6333  -19.0938   20.7413 O   0  0  0  0  0  0  0  0  0  0  0  0
    8.4462  -15.7341   18.3900 C   0  0  0  0  0  0  0  0  0  0  0  0
    9.1910  -15.2895   19.6064 C   0  0  1  0  0  0  0  0  0  0  0  0
    8.4414  -14.2716   20.2536 O   0  0  0  0  0  0  0  0  0  0  0  0
    9.4434  -16.4069   20.6054 C   0  0  2  0  0  0  0  0  0  0  0  0
    8.1052  -16.8668   21.0380 N   0  0  0  0  0  0  0  0  0  0  0  0
   10.1537  -15.9936   21.8107 C   0  0  0  0  0  0  0  0  0  0  0  0
    9.6667  -15.0790   22.5586 O   0  0  0  0  0  0  0  0  0  0  0  0
   11.3833  -16.5570   22.2212 N   0  0  0  0  0  0  0  0  0  0  0  0
   12.1443  -15.9163   23.2658 C   0  0  1  0  0  0  0  0  0  0  0  0
   11.7194  -16.5371   24.6009 C   0  0  0  0  0  0  0  0  0  0  0  0
   11.6475  -18.3383   24.3948 S   0  0  0  0  0  0  0  0  0  0  0  0
   13.5978  -16.1310   23.0785 C   0  0  0  0  0  0  0  0  0  0  0  0
   13.9638  -16.8610   22.1212 O   0  0  0  0  0  0  0  0  0  0  0  0
   14.5657  -15.5664   23.9067 O   0  0  0  0  0  0  0  0  0  0  0  0
  2  3  1  0
  2  5  1  0
  2  1  1  6
  4  3  1  0
  5  6  2  0
  8  7  1  6
  8  9  1  0
  8 10  1  0
 10 12  1  0
 10 11  1  1
 11  5  1  0
 12 13  2  0
 14 12  1  0
 14 15  1  0
 15 18  1  0
 16 17  1  0
 15 16  1  1
 18 19  2  0
 18 20  1  0
M  END
$$$$
