CTC.pdb
     RDKit          3D

 20 19  0  0  1  0  0  0  0  0999 V2000
   10.2334  -15.0946   14.6367 N   0  0  0  0  0  0  0  0  0  0  0  0
    9.6706  -15.8451   15.7420 C   0  0  1  0  0  0  0  0  0  0  0  0
   10.3550  -17.2165   15.7108 C   0  0  0  0  0  0  0  0  0  0  0  0
    9.4762  -18.2298   14.5009 S   0  0  0  0  0  0  0  0  0  0  0  0
    9.9991  -15.2098   17.0489 C   0  0  0  0  0  0  0  0  0  0  0  0
   11.0453  -14.5669   17.2335 O   0  0  0  0  0  0  0  0  0  0  0  0
    7.8232  -12.7378   18.7248 C   0  0  0  0  0  0  0  0  0  0  0  0
    8.0015  -13.8870   19.6627 C   0  0  1  0  0  0  0  0  0  0  0  0
    6.8883  -14.7592   19.5323 O   0  0  0  0  0  0  0  0  0  0  0  0
    9.2688  -14.6868   19.4083 C   0  0  2  0  0  0  0  0  0  0  0  0
    9.0623  -15.3608   18.1073 N   0  0  0  0  0  0  0  0  0  0  0  0
    9.5298  -15.7368   20.3867 C   0  0  0  0  0  0  0  0  0  0  0  0
    9.5437  -16.9616   20.0227 O   0  0  0  0  0  0  0  0  0  0  0  0
    9.7787  -15.4815   21.7545 N   0  0  0  0  0  0  0  0  0  0  0  0
   10.0644  -16.5824   22.6417 C   0  0  1  0  0  0  0  0  0  0  0  0
   11.3910  -17.2079   22.1975 C   0  0  0  0  0  0  0  0  0  0  0  0
   12.6810  -15.9354   22.2916 S   0  0  0  0  0  0  0  0  0  0  0  0
   10.1976  -16.1209   24.0427 C   0  0  0  0  0  0  0  0  0  0  0  0
   10.0643  -14.8904   24.2696 O   0  0  0  0  0  0  0  0  0  0  0  0
   10.4609  -16.9802   25.1076 O   0  0  0  0  0  0  0  0  0  0  0  0
  2  3  1  0
  2  5  1  0
  2  1  1  6
  4  3  1  0
  5  6  2  0
  8  7  1  6
  8  9  1  0
  8 10  1  0
 10 12  1  0
 10 11  1  6
 11  5  1  0
 12 13  2  0
 14 12  1  0
 14 15  1  0
 15 18  1  0
 16 17  1  0
 15 16  1  6
 18 19  2  0
 18 20  1  0
M  END
$$$$
