CTC.pdb
     RDKit          3D

 20 19  0  0  1  0  0  0  0  0999 V2000
   12.5688  -17.3068   19.6730 N   0  0  0  0  0  0  0  0  0  0  0  0
   11.5714  -17.5895   20.6863 C   0  0  1  0  0  0  0  0  0  0  0  0
   12.3433  -18.1215   21.8992 C   0  0  0  0  0  0  0  0  0  0  0  0
   12.5740  -19.8963   21.6548 S   0  0  0  0  0  0  0  0  0  0  0  0
   10.8675  -16.3475   21.1124 C   0  0  0  0  0  0  0  0  0  0  0  0
   11.4214  -15.2361   21.1192 O   0  0  0  0  0  0  0  0  0  0  0  0
    6.3867  -14.3835   21.7011 C   0  0  0  0  0  0  0  0  0  0  0  0
    7.3337  -15.4921   21.3753 C   0  0  1  0  0  0  0  0  0  0  0  0
    7.4273  -15.6118   19.9633 O   0  0  0  0  0  0  0  0  0  0  0  0
    8.7320  -15.2786   21.9315 C   0  0  2  0  0  0  0  0  0  0  0  0
    9.5116  -16.4678   21.5219 N   0  0  0  0  0  0  0  0  0  0  0  0
    8.8022  -15.2134   23.3871 C   0  0  0  0  0  0  0  0  0  0  0  0
    8.9180  -16.2866   24.0709 O   0  0  0  0  0  0  0  0  0  0  0  0
    8.7513  -14.0029   24.1152 N   0  0  0  0  0  0  0  0  0  0  0  0
    8.6952  -14.0429   25.5561 C   0  0  1  0  0  0  0  0  0  0  0  0
    8.1607  -12.6907   26.0402 C   0  0  0  0  0  0  0  0  0  0  0  0
    8.2995  -12.6372   27.8485 S   0  0  0  0  0  0  0  0  0  0  0  0
    7.7870  -15.1137   26.0275 C   0  0  0  0  0  0  0  0  0  0  0  0
    6.6598  -15.2108   25.4767 O   0  0  0  0  0  0  0  0  0  0  0  0
    8.1228  -16.0075   27.0424 O   0  0  0  0  0  0  0  0  0  0  0  0
  2  3  1  0
  2  5  1  0
  2  1  1  6
  4  3  1  0
  5  6  2  0
  8  7  1  6
  8  9  1  0
  8 10  1  0
 10 12  1  0
 10 11  1  1
 11  5  1  0
 12 13  2  0
 14 12  1  0
 14 15  1  0
 15 18  1  0
 16 17  1  0
 15 16  1  6
 18 19  2  0
 18 20  1  0
M  END
$$$$
