CTC.pdb
     RDKit          3D

 20 19  0  0  1  0  0  0  0  0999 V2000
   -0.5017  -25.3784   26.1883 N   0  0  0  0  0  0  0  0  0  0  0  0
   -1.9496  -25.3071   26.1927 C   0  0  1  0  0  0  0  0  0  0  0  0
   -2.4302  -26.5620   26.9304 C   0  0  0  0  0  0  0  0  0  0  0  0
   -2.0654  -27.9809   25.8737 S   0  0  0  0  0  0  0  0  0  0  0  0
   -2.4296  -24.1242   26.9609 C   0  0  0  0  0  0  0  0  0  0  0  0
   -1.9110  -23.7696   28.0320 O   0  0  0  0  0  0  0  0  0  0  0  0
   -2.5870  -20.6651   25.8219 C   0  0  0  0  0  0  0  0  0  0  0  0
   -3.9886  -21.0625   26.1529 C   0  0  1  0  0  0  0  0  0  0  0  0
   -4.6495  -21.4442   24.9552 O   0  0  0  0  0  0  0  0  0  0  0  0
   -4.0754  -22.2179   27.1367 C   0  0  2  0  0  0  0  0  0  0  0  0
   -3.5238  -23.3920   26.4249 N   0  0  0  0  0  0  0  0  0  0  0  0
   -5.4324  -22.5717   27.5384 C   0  0  0  0  0  0  0  0  0  0  0  0
   -6.0857  -23.4511   26.8808 O   0  0  0  0  0  0  0  0  0  0  0  0
   -6.0935  -21.9894   28.6437 N   0  0  0  0  0  0  0  0  0  0  0  0
   -7.4285  -22.4203   28.9802 C   0  0  1  0  0  0  0  0  0  0  0  0
   -7.3535  -23.8949   29.3907 C   0  0  0  0  0  0  0  0  0  0  0  0
   -6.0627  -24.0701   30.6537 S   0  0  0  0  0  0  0  0  0  0  0  0
   -7.9759  -21.6355   30.1107 C   0  0  0  0  0  0  0  0  0  0  0  0
   -7.2232  -20.7852   30.6527 O   0  0  0  0  0  0  0  0  0  0  0  0
   -9.2729  -21.7961   30.5941 O   0  0  0  0  0  0  0  0  0  0  0  0
  2  3  1  0
  2  5  1  0
  2  1  1  1
  4  3  1  0
  5  6  2  0
  8  7  1  6
  8  9  1  0
  8 10  1  0
 10 12  1  0
 10 11  1  6
 11  5  1  0
 12 13  2  0
 14 12  1  0
 14 15  1  0
 15 18  1  0
 16 17  1  0
 15 16  1  1
 18 19  2  0
 18 20  1  0
M  END
$$$$
