LPV.pdb
     RDKit          3D

 23 23  0  0  1  0  0  0  0  0999 V2000
   25.4020  -16.4113  -14.6205 C   0  0  0  0  0  0  0  0  0  0  0  0
   26.3560  -17.5819  -14.8781 C   0  0  2  0  0  0  0  0  0  0  0  0
   27.5884  -17.0053  -15.4953 C   0  0  0  0  0  0  0  0  0  0  0  0
   25.6096  -18.5777  -15.6810 C   0  0  0  0  0  0  0  0  0  0  0  0
   26.1828  -19.9484  -15.7668 C   0  0  2  0  0  0  0  0  0  0  0  0
   25.4999  -20.7424  -16.7132 N   0  0  0  0  0  0  0  0  0  0  0  0
   26.3892  -20.5678  -14.4325 C   0  0  0  0  0  0  0  0  0  0  0  0
   25.3911  -21.2141  -13.9887 O   0  0  0  0  0  0  0  0  0  0  0  0
   27.5723  -20.4846  -13.6623 N   0  0  0  0  0  0  0  0  0  0  0  0
   28.7642  -19.7781  -14.0125 C   0  0  0  0  0  0  0  0  0  0  0  0
   29.8702  -20.3556  -13.1709 C   0  0  0  0  0  0  0  0  0  0  0  0
   29.2339  -21.3699  -12.2826 C   0  0  0  0  0  0  0  0  0  0  0  0
   27.7517  -21.0927  -12.3784 C   0  0  1  0  0  0  0  0  0  0  0  0
   27.4261  -20.1571  -11.2612 C   0  0  0  0  0  0  0  0  0  0  0  0
   27.3807  -18.9101  -11.4519 O   0  0  0  0  0  0  0  0  0  0  0  0
   23.8962  -20.2998   -8.1595 C   0  0  0  0  0  0  0  0  0  0  0  0
   24.8404  -20.9029   -9.1767 C   0  0  1  0  0  0  0  0  0  0  0  0
   24.1491  -20.7371  -10.5218 C   0  0  0  0  0  0  0  0  0  0  0  0
   26.1191  -20.1532   -9.0966 C   0  0  2  0  0  0  0  0  0  0  0  0
   27.1597  -20.6092   -9.9686 N   0  0  0  0  0  0  0  0  0  0  0  0
   26.6321  -20.1812   -7.7041 C   0  0  0  0  0  0  0  0  0  0  0  0
   26.5883  -19.1014   -6.8412 O   0  0  0  0  0  0  0  0  0  0  0  0
   27.1565  -21.2407   -7.2223 O   0  0  0  0  0  0  0  0  0  0  0  0
  2  1  1  6
  2  4  1  0
  2  3  1  0
  4  5  1  0
  5  6  1  6
  5  7  1  0
  7  9  1  0
  7  8  2  0
  9 10  1  0
 11 10  1  0
 12 11  1  0
 13 12  1  0
 13 14  1  1
 13  9  1  0
 14 20  1  0
 15 14  2  0
 17 16  1  1
 17 18  1  0
 19 17  1  0
 19 20  1  6
 21 19  1  0
 21 22  1  0
 23 21  2  0
M  END
$$$$
