LPV.pdb
     RDKit          3D

 23 23  0  0  1  0  0  0  0  0999 V2000
   24.7272  -19.3556  -14.5097 C   0  0  0  0  0  0  0  0  0  0  0  0
   23.7115  -19.7119  -13.4197 C   0  0  2  0  0  0  0  0  0  0  0  0
   22.8689  -18.4974  -13.2026 C   0  0  0  0  0  0  0  0  0  0  0  0
   24.4832  -20.2067  -12.2565 C   0  0  0  0  0  0  0  0  0  0  0  0
   25.2636  -21.4601  -12.4427 C   0  0  2  0  0  0  0  0  0  0  0  0
   24.4533  -22.5153  -12.9143 N   0  0  0  0  0  0  0  0  0  0  0  0
   26.1237  -21.7785  -11.2741 C   0  0  0  0  0  0  0  0  0  0  0  0
   25.5924  -22.5542  -10.4215 O   0  0  0  0  0  0  0  0  0  0  0  0
   27.4349  -21.2928  -11.0625 N   0  0  0  0  0  0  0  0  0  0  0  0
   28.1831  -20.4578  -11.9486 C   0  0  0  0  0  0  0  0  0  0  0  0
   29.6294  -20.6023  -11.5581 C   0  0  0  0  0  0  0  0  0  0  0  0
   29.6538  -21.5014  -10.3691 C   0  0  0  0  0  0  0  0  0  0  0  0
   28.2205  -21.5538   -9.8941 C   0  0  1  0  0  0  0  0  0  0  0  0
   28.0783  -20.4790   -8.8676 C   0  0  0  0  0  0  0  0  0  0  0  0
   27.6041  -19.3495   -9.1725 O   0  0  0  0  0  0  0  0  0  0  0  0
   26.9801  -19.6170   -4.2634 C   0  0  0  0  0  0  0  0  0  0  0  0
   27.2218  -20.5819   -5.4038 C   0  0  1  0  0  0  0  0  0  0  0  0
   25.8412  -20.9375   -5.9350 C   0  0  0  0  0  0  0  0  0  0  0  0
   28.0569  -19.8807   -6.4109 C   0  0  2  0  0  0  0  0  0  0  0  0
   28.4580  -20.6674   -7.5384 N   0  0  0  0  0  0  0  0  0  0  0  0
   29.2772  -19.3388   -5.7628 C   0  0  0  0  0  0  0  0  0  0  0  0
   30.5212  -19.9391   -5.8304 O   0  0  0  0  0  0  0  0  0  0  0  0
   29.2328  -18.2556   -5.0886 O   0  0  0  0  0  0  0  0  0  0  0  0
  2  1  1  6
  2  4  1  0
  2  3  1  0
  4  5  1  0
  5  6  1  1
  5  7  1  0
  7  9  1  0
  7  8  2  0
  9 10  1  0
 11 10  1  0
 12 11  1  0
 13 12  1  0
 13 14  1  1
 13  9  1  0
 14 20  1  0
 15 14  2  0
 17 16  1  1
 17 18  1  0
 19 17  1  0
 19 20  1  6
 21 19  1  0
 21 22  1  0
 23 21  2  0
M  END
$$$$
