LPV.pdb
     RDKit          3D

 23 23  0  0  1  0  0  0  0  0999 V2000
   22.4124  -30.0457  -11.6046 C   0  0  0  0  0  0  0  0  0  0  0  0
   21.4357  -30.4254  -10.4871 C   0  0  2  0  0  0  0  0  0  0  0  0
   21.0428  -29.1539   -9.8082 C   0  0  0  0  0  0  0  0  0  0  0  0
   22.1100  -31.4473   -9.6539 C   0  0  0  0  0  0  0  0  0  0  0  0
   22.5008  -32.7184  -10.3220 C   0  0  2  0  0  0  0  0  0  0  0  0
   21.4164  -33.3004  -11.0134 N   0  0  0  0  0  0  0  0  0  0  0  0
   23.2579  -33.6283   -9.4244 C   0  0  0  0  0  0  0  0  0  0  0  0
   22.5903  -34.6139   -8.9843 O   0  0  0  0  0  0  0  0  0  0  0  0
   24.6117  -33.4708   -9.0470 N   0  0  0  0  0  0  0  0  0  0  0  0
   25.4433  -32.3420   -9.3240 C   0  0  0  0  0  0  0  0  0  0  0  0
   26.8664  -32.8090   -9.1762 C   0  0  0  0  0  0  0  0  0  0  0  0
   26.7963  -34.2317   -8.7361 C   0  0  0  0  0  0  0  0  0  0  0  0
   25.3642  -34.4308   -8.2972 C   0  0  1  0  0  0  0  0  0  0  0  0
   25.3315  -34.1518   -6.8308 C   0  0  0  0  0  0  0  0  0  0  0  0
   25.0837  -32.9928   -6.3964 O   0  0  0  0  0  0  0  0  0  0  0  0
   25.5971  -37.4337   -4.0372 C   0  0  0  0  0  0  0  0  0  0  0  0
   24.6342  -36.2748   -3.8958 C   0  0  1  0  0  0  0  0  0  0  0  0
   24.3827  -36.1350   -2.4019 C   0  0  0  0  0  0  0  0  0  0  0  0
   25.2903  -35.0773   -4.4780 C   0  0  2  0  0  0  0  0  0  0  0  0
   25.5702  -35.1453   -5.8809 N   0  0  0  0  0  0  0  0  0  0  0  0
   26.5609  -34.8020   -3.7620 C   0  0  0  0  0  0  0  0  0  0  0  0
   26.6433  -34.0996   -2.5736 O   0  0  0  0  0  0  0  0  0  0  0  0
   27.6757  -35.2151   -4.2272 O   0  0  0  0  0  0  0  0  0  0  0  0
  2  1  1  6
  2  4  1  0
  2  3  1  0
  4  5  1  0
  5  6  1  1
  5  7  1  0
  7  9  1  0
  7  8  2  0
  9 10  1  0
 11 10  1  0
 12 11  1  0
 13 12  1  0
 13 14  1  1
 13  9  1  0
 14 20  1  0
 15 14  2  0
 17 16  1  1
 17 18  1  0
 19 17  1  0
 19 20  1  6
 21 19  1  0
 21 22  1  0
 23 21  2  0
M  END
$$$$
