LPV.pdb
     RDKit          3D

 23 23  0  0  1  0  0  0  0  0999 V2000
   26.0692  -18.0446  -13.7959 C   0  0  0  0  0  0  0  0  0  0  0  0
   25.4710  -19.4541  -13.7486 C   0  0  2  0  0  0  0  0  0  0  0  0
   24.1028  -19.3613  -14.3416 C   0  0  0  0  0  0  0  0  0  0  0  0
   25.5608  -19.9137  -12.3436 C   0  0  0  0  0  0  0  0  0  0  0  0
   25.9281  -21.3379  -12.1170 C   0  0  2  0  0  0  0  0  0  0  0  0
   24.8672  -22.2098  -12.4441 N   0  0  0  0  0  0  0  0  0  0  0  0
   26.5639  -21.5622  -10.7933 C   0  0  0  0  0  0  0  0  0  0  0  0
   25.8037  -22.0870   -9.9230 O   0  0  0  0  0  0  0  0  0  0  0  0
   27.8998  -21.2409  -10.4587 N   0  0  0  0  0  0  0  0  0  0  0  0
   28.8381  -20.5489  -11.2853 C   0  0  0  0  0  0  0  0  0  0  0  0
   30.2054  -20.8617  -10.7398 C   0  0  0  0  0  0  0  0  0  0  0  0
   29.9899  -21.7037   -9.5285 C   0  0  0  0  0  0  0  0  0  0  0  0
   28.5217  -21.5500   -9.2065 C   0  0  1  0  0  0  0  0  0  0  0  0
   28.4207  -20.4220   -8.2334 C   0  0  0  0  0  0  0  0  0  0  0  0
   28.2745  -19.2331   -8.6316 O   0  0  0  0  0  0  0  0  0  0  0  0
   26.2777  -20.7913   -5.0153 C   0  0  0  0  0  0  0  0  0  0  0  0
   27.5880  -20.1572   -4.6018 C   0  0  1  0  0  0  0  0  0  0  0  0
   28.3831  -21.2673   -3.9308 C   0  0  0  0  0  0  0  0  0  0  0  0
   28.2448  -19.6493   -5.8323 C   0  0  2  0  0  0  0  0  0  0  0  0
   28.4825  -20.6239   -6.8544 N   0  0  0  0  0  0  0  0  0  0  0  0
   29.5398  -19.0128   -5.4849 C   0  0  0  0  0  0  0  0  0  0  0  0
   29.6562  -17.8337   -4.7718 O   0  0  0  0  0  0  0  0  0  0  0  0
   30.6449  -19.5430   -5.8418 O   0  0  0  0  0  0  0  0  0  0  0  0
  2  1  1  1
  2  4  1  0
  2  3  1  0
  4  5  1  0
  5  6  1  1
  5  7  1  0
  7  9  1  0
  7  8  2  0
  9 10  1  0
 11 10  1  0
 12 11  1  0
 13 12  1  0
 13 14  1  1
 13  9  1  0
 14 20  1  0
 15 14  2  0
 17 16  1  6
 17 18  1  0
 19 17  1  0
 19 20  1  6
 21 19  1  0
 21 22  1  0
 23 21  2  0
M  END
$$$$
