LPV.pdb
     RDKit          3D

 23 23  0  0  1  0  0  0  0  0999 V2000
   25.2470  -19.4214  -14.8847 C   0  0  0  0  0  0  0  0  0  0  0  0
   24.0838  -19.5153  -13.8923 C   0  0  2  0  0  0  0  0  0  0  0  0
   23.4018  -18.1860  -13.9012 C   0  0  0  0  0  0  0  0  0  0  0  0
   24.6536  -19.9655  -12.6016 C   0  0  0  0  0  0  0  0  0  0  0  0
   25.2703  -21.3195  -12.5668 C   0  0  2  0  0  0  0  0  0  0  0  0
   24.3474  -22.3238  -12.9301 N   0  0  0  0  0  0  0  0  0  0  0  0
   26.0377  -21.5678  -11.3193 C   0  0  0  0  0  0  0  0  0  0  0  0
   25.4049  -22.2131  -10.4282 O   0  0  0  0  0  0  0  0  0  0  0  0
   27.3658  -21.1484  -11.0746 N   0  0  0  0  0  0  0  0  0  0  0  0
   28.1634  -20.3198  -11.9230 C   0  0  0  0  0  0  0  0  0  0  0  0
   29.5959  -20.5415  -11.5183 C   0  0  0  0  0  0  0  0  0  0  0  0
   29.5629  -21.4784  -10.3591 C   0  0  0  0  0  0  0  0  0  0  0  0
   28.1218  -21.4817   -9.9051 C   0  0  1  0  0  0  0  0  0  0  0  0
   28.0124  -20.4349   -8.8459 C   0  0  0  0  0  0  0  0  0  0  0  0
   27.6013  -19.2737   -9.1217 O   0  0  0  0  0  0  0  0  0  0  0  0
   27.1582  -19.6875   -4.1147 C   0  0  0  0  0  0  0  0  0  0  0  0
   27.3398  -20.6510   -5.2674 C   0  0  1  0  0  0  0  0  0  0  0  0
   25.9393  -21.1253   -5.6254 C   0  0  0  0  0  0  0  0  0  0  0  0
   27.9890  -19.9041   -6.3739 C   0  0  2  0  0  0  0  0  0  0  0  0
   28.3550  -20.6854   -7.5170 N   0  0  0  0  0  0  0  0  0  0  0  0
   29.2042  -19.2160   -5.8710 C   0  0  0  0  0  0  0  0  0  0  0  0
   30.4883  -19.7085   -6.0154 O   0  0  0  0  0  0  0  0  0  0  0  0
   29.1165  -18.0986   -5.2598 O   0  0  0  0  0  0  0  0  0  0  0  0
  2  1  1  6
  2  4  1  0
  2  3  1  0
  4  5  1  0
  5  6  1  1
  5  7  1  0
  7  9  1  0
  7  8  2  0
  9 10  1  0
 11 10  1  0
 12 11  1  0
 13 12  1  0
 13 14  1  1
 13  9  1  0
 14 20  1  0
 15 14  2  0
 17 16  1  1
 17 18  1  0
 19 17  1  0
 19 20  1  6
 21 19  1  0
 21 22  1  0
 23 21  2  0
M  END
$$$$
