LPV.pdb
     RDKit          3D

 23 23  0  0  1  0  0  0  0  0999 V2000
   23.5894  -20.6300  -17.9872 C   0  0  0  0  0  0  0  0  0  0  0  0
   22.1264  -20.2256  -18.1935 C   0  0  2  0  0  0  0  0  0  0  0  0
   21.8155  -20.4552  -19.6367 C   0  0  0  0  0  0  0  0  0  0  0  0
   21.9877  -18.8389  -17.6924 C   0  0  0  0  0  0  0  0  0  0  0  0
   22.1919  -18.6199  -16.2346 C   0  0  2  0  0  0  0  0  0  0  0  0
   21.4521  -19.5386  -15.4593 N   0  0  0  0  0  0  0  0  0  0  0  0
   22.0597  -17.1924  -15.8455 C   0  0  0  0  0  0  0  0  0  0  0  0
   20.9174  -16.8697  -15.3962 O   0  0  0  0  0  0  0  0  0  0  0  0
   23.0792  -16.2170  -15.9415 N   0  0  0  0  0  0  0  0  0  0  0  0
   24.3614  -16.3874  -16.5493 C   0  0  0  0  0  0  0  0  0  0  0  0
   25.2465  -15.3015  -15.9993 C   0  0  0  0  0  0  0  0  0  0  0  0
   24.3860  -14.4715  -15.1087 C   0  0  0  0  0  0  0  0  0  0  0  0
   22.9710  -14.8761  -15.4508 C   0  0  1  0  0  0  0  0  0  0  0  0
   22.5054  -13.9262  -16.5045 C   0  0  0  0  0  0  0  0  0  0  0  0
   22.8709  -14.0596  -17.7054 O   0  0  0  0  0  0  0  0  0  0  0  0
   19.5556  -13.8855  -17.9326 C   0  0  0  0  0  0  0  0  0  0  0  0
   19.5291  -12.4660  -17.4090 C   0  0  1  0  0  0  0  0  0  0  0  0
   18.7015  -12.5184  -16.1335 C   0  0  0  0  0  0  0  0  0  0  0  0
   20.9342  -12.0568  -17.1605 C   0  0  2  0  0  0  0  0  0  0  0  0
   21.6548  -12.8584  -16.2174 N   0  0  0  0  0  0  0  0  0  0  0  0
   20.9732  -10.6465  -16.6994 C   0  0  0  0  0  0  0  0  0  0  0  0
   21.3089  -10.2611  -15.4145 O   0  0  0  0  0  0  0  0  0  0  0  0
   20.6877   -9.6906  -17.4961 O   0  0  0  0  0  0  0  0  0  0  0  0
  2  1  1  6
  2  4  1  0
  2  3  1  0
  4  5  1  0
  5  6  1  1
  5  7  1  0
  7  9  1  0
  7  8  2  0
  9 10  1  0
 11 10  1  0
 12 11  1  0
 13 12  1  0
 13 14  1  6
 13  9  1  0
 14 20  1  0
 15 14  2  0
 17 16  1  1
 17 18  1  0
 19 17  1  0
 19 20  1  1
 21 19  1  0
 21 22  1  0
 23 21  2  0
M  END
$$$$
