LPV.pdb
     RDKit          3D

 23 23  0  0  1  0  0  0  0  0999 V2000
   19.1735  -12.5002  -19.7897 C   0  0  0  0  0  0  0  0  0  0  0  0
   18.0240  -11.7972  -19.0608 C   0  0  2  0  0  0  0  0  0  0  0  0
   17.2757  -11.0148  -20.0903 C   0  0  0  0  0  0  0  0  0  0  0  0
   18.6256  -11.0307  -17.9455 C   0  0  0  0  0  0  0  0  0  0  0  0
   19.2261  -11.8121  -16.8304 C   0  0  2  0  0  0  0  0  0  0  0  0
   18.3216  -12.7644  -16.3130 N   0  0  0  0  0  0  0  0  0  0  0  0
   19.9023  -10.9511  -15.8263 C   0  0  0  0  0  0  0  0  0  0  0  0
   19.1976  -10.6712  -14.8086 O   0  0  0  0  0  0  0  0  0  0  0  0
   21.2194  -10.4470  -15.9303 N   0  0  0  0  0  0  0  0  0  0  0  0
   22.1361  -10.6840  -17.0009 C   0  0  0  0  0  0  0  0  0  0  0  0
   23.5095  -10.3765  -16.4679 C   0  0  0  0  0  0  0  0  0  0  0  0
   23.3172   -9.8898  -15.0719 C   0  0  0  0  0  0  0  0  0  0  0  0
   21.8403   -9.5884  -14.9672 C   0  0  1  0  0  0  0  0  0  0  0  0
   21.6804   -8.1448  -15.3130 C   0  0  0  0  0  0  0  0  0  0  0  0
   21.5221   -7.7784  -16.5106 O   0  0  0  0  0  0  0  0  0  0  0  0
   19.7534   -3.9431  -14.3344 C   0  0  0  0  0  0  0  0  0  0  0  0
   19.9505   -5.4206  -14.0735 C   0  0  1  0  0  0  0  0  0  0  0  0
   18.8756   -6.1244  -14.8882 C   0  0  0  0  0  0  0  0  0  0  0  0
   21.3231   -5.7717  -14.5166 C   0  0  2  0  0  0  0  0  0  0  0  0
   21.6980   -7.1429  -14.3424 N   0  0  0  0  0  0  0  0  0  0  0  0
   22.3130   -4.9239  -13.8064 C   0  0  0  0  0  0  0  0  0  0  0  0
   22.9035   -3.7997  -14.3538 O   0  0  0  0  0  0  0  0  0  0  0  0
   22.6782   -5.2041  -12.6156 O   0  0  0  0  0  0  0  0  0  0  0  0
  2  1  1  6
  2  4  1  0
  2  3  1  0
  4  5  1  0
  5  6  1  1
  5  7  1  0
  7  9  1  0
  7  8  2  0
  9 10  1  0
 11 10  1  0
 12 11  1  0
 13 12  1  0
 13 14  1  6
 13  9  1  0
 14 20  1  0
 15 14  2  0
 17 16  1  6
 17 18  1  0
 19 17  1  0
 19 20  1  1
 21 19  1  0
 21 22  1  0
 23 21  2  0
M  END
$$$$
