LPV.pdb
     RDKit          3D

 23 23  0  0  1  0  0  0  0  0999 V2000
   24.1437  -19.3799  -14.1129 C   0  0  0  0  0  0  0  0  0  0  0  0
   23.3451  -20.1242  -13.0381 C   0  0  2  0  0  0  0  0  0  0  0  0
   22.2008  -19.2401  -12.6624 C   0  0  0  0  0  0  0  0  0  0  0  0
   24.2978  -20.4785  -11.9611 C   0  0  0  0  0  0  0  0  0  0  0  0
   25.2614  -21.5775  -12.2410 C   0  0  2  0  0  0  0  0  0  0  0  0
   24.6150  -22.7200  -12.7601 N   0  0  0  0  0  0  0  0  0  0  0  0
   26.1966  -21.8210  -11.1128 C   0  0  0  0  0  0  0  0  0  0  0  0
   25.7850  -22.6620  -10.2561 O   0  0  0  0  0  0  0  0  0  0  0  0
   27.4565  -21.2018  -10.9420 N   0  0  0  0  0  0  0  0  0  0  0  0
   28.0506  -20.2344  -11.8101 C   0  0  0  0  0  0  0  0  0  0  0  0
   29.5256  -20.2356  -11.5109 C   0  0  0  0  0  0  0  0  0  0  0  0
   29.7240  -21.1963  -10.3883 C   0  0  0  0  0  0  0  0  0  0  0  0
   28.3379  -21.4414   -9.8392 C   0  0  1  0  0  0  0  0  0  0  0  0
   28.1420  -20.4541   -8.7364 C   0  0  0  0  0  0  0  0  0  0  0  0
   27.5125  -19.3778   -8.9335 O   0  0  0  0  0  0  0  0  0  0  0  0
   27.9011  -19.9263   -3.8608 C   0  0  0  0  0  0  0  0  0  0  0  0
   28.1302  -20.8442   -5.0418 C   0  0  1  0  0  0  0  0  0  0  0  0
   26.9179  -21.7624   -5.0843 C   0  0  0  0  0  0  0  0  0  0  0  0
   28.2430  -19.9926   -6.2523 C   0  0  2  0  0  0  0  0  0  0  0  0
   28.6390  -20.6695   -7.4507 N   0  0  0  0  0  0  0  0  0  0  0  0
   29.2021  -18.8878   -6.0023 C   0  0  0  0  0  0  0  0  0  0  0  0
   28.8703  -17.7022   -5.3725 O   0  0  0  0  0  0  0  0  0  0  0  0
   30.4206  -18.9845   -6.3710 O   0  0  0  0  0  0  0  0  0  0  0  0
  2  1  1  6
  2  4  1  0
  2  3  1  0
  4  5  1  0
  5  6  1  1
  5  7  1  0
  7  9  1  0
  7  8  2  0
  9 10  1  0
 11 10  1  0
 12 11  1  0
 13 12  1  0
 13 14  1  1
 13  9  1  0
 14 20  1  0
 15 14  2  0
 17 16  1  1
 17 18  1  0
 19 17  1  0
 19 20  1  6
 21 19  1  0
 21 22  1  0
 23 21  2  0
M  END
$$$$
