LPV.pdb
     RDKit          3D

 23 23  0  0  1  0  0  0  0  0999 V2000
   22.7068  -17.4022  -13.9642 C   0  0  0  0  0  0  0  0  0  0  0  0
   23.2258  -18.7379  -14.5058 C   0  0  2  0  0  0  0  0  0  0  0  0
   22.2488  -19.1916  -15.5411 C   0  0  0  0  0  0  0  0  0  0  0  0
   23.4250  -19.6280  -13.3391 C   0  0  0  0  0  0  0  0  0  0  0  0
   24.1698  -20.8954  -13.5710 C   0  0  2  0  0  0  0  0  0  0  0  0
   23.3549  -21.8778  -14.1739 N   0  0  0  0  0  0  0  0  0  0  0  0
   24.9370  -21.3359  -12.3777 C   0  0  0  0  0  0  0  0  0  0  0  0
   24.3039  -22.1117  -11.5980 O   0  0  0  0  0  0  0  0  0  0  0  0
   26.2656  -20.9607  -12.0708 N   0  0  0  0  0  0  0  0  0  0  0  0
   27.0788  -20.0432  -12.8052 C   0  0  0  0  0  0  0  0  0  0  0  0
   28.5050  -20.3247  -12.4157 C   0  0  0  0  0  0  0  0  0  0  0  0
   28.4520  -21.3940  -11.3781 C   0  0  0  0  0  0  0  0  0  0  0  0
   27.0060  -21.4391  -10.9424 C   0  0  1  0  0  0  0  0  0  0  0  0
   26.8928  -20.5264   -9.7661 C   0  0  0  0  0  0  0  0  0  0  0  0
   26.6349  -19.3002   -9.9190 O   0  0  0  0  0  0  0  0  0  0  0  0
   26.8392  -19.9734   -4.8575 C   0  0  0  0  0  0  0  0  0  0  0  0
   26.8982  -20.9699   -5.9947 C   0  0  1  0  0  0  0  0  0  0  0  0
   25.6217  -21.7902   -5.8832 C   0  0  0  0  0  0  0  0  0  0  0  0
   26.9707  -20.1975   -7.2603 C   0  0  2  0  0  0  0  0  0  0  0  0
   27.0646  -20.9780   -8.4574 N   0  0  0  0  0  0  0  0  0  0  0  0
   28.1280  -19.2692   -7.2171 C   0  0  0  0  0  0  0  0  0  0  0  0
   28.0703  -17.9830   -6.7124 O   0  0  0  0  0  0  0  0  0  0  0  0
   29.2702  -19.6280   -7.6604 O   0  0  0  0  0  0  0  0  0  0  0  0
  2  1  1  1
  2  4  1  0
  2  3  1  0
  4  5  1  0
  5  6  1  1
  5  7  1  0
  7  9  1  0
  7  8  2  0
  9 10  1  0
 11 10  1  0
 12 11  1  0
 13 12  1  0
 13 14  1  1
 13  9  1  0
 14 20  1  0
 15 14  2  0
 17 16  1  1
 17 18  1  0
 19 17  1  0
 19 20  1  6
 21 19  1  0
 21 22  1  0
 23 21  2  0
M  END
$$$$
