MWI.pdb
     RDKit          3D

 31 32  0  0  1  0  0  0  0  0999 V2000
   30.8779  -19.3990  -12.0052 C   0  0  0  0  0  0  0  0  0  0  0  0
   31.0349  -21.0867  -11.3795 S   0  0  0  0  0  0  0  0  0  0  0  0
   29.4026  -21.8774  -11.3724 C   0  0  0  0  0  0  0  0  0  0  0  0
   28.2869  -20.8946  -11.6650 C   0  0  0  0  0  0  0  0  0  0  0  0
   26.9516  -21.6168  -11.7716 C   0  0  2  0  0  0  0  0  0  0  0  0
   27.0333  -22.7989  -12.5496 N   0  0  0  0  0  0  0  0  0  0  0  0
   25.9031  -20.6755  -12.2763 C   0  0  0  0  0  0  0  0  0  0  0  0
   25.6245  -19.6211  -11.6819 O   0  0  0  0  0  0  0  0  0  0  0  0
   25.1723  -20.9626  -13.4891 N   0  0  0  0  0  0  0  0  0  0  0  0
   24.1581  -20.0562  -13.9812 C   0  0  1  0  0  0  0  0  0  0  0  0
   24.4527  -19.6920  -15.4440 C   0  0  0  0  0  0  0  0  0  0  0  0
   25.6269  -18.8000  -15.5299 C   0  0  0  0  0  0  0  0  0  0  0  0
   26.9375  -19.1552  -15.7117 C   0  0  0  0  0  0  0  0  0  0  0  0
   27.6590  -18.0127  -15.7267 N   0  0  0  0  0  0  0  0  0  0  0  0
   26.8651  -16.9530  -15.5619 C   0  0  0  0  0  0  0  0  0  0  0  0
   27.0946  -15.5982  -15.5100 C   0  0  0  0  0  0  0  0  0  0  0  0
   26.0526  -14.6863  -15.3307 C   0  0  0  0  0  0  0  0  0  0  0  0
   24.7592  -15.1996  -15.2039 C   0  0  0  0  0  0  0  0  0  0  0  0
   24.5111  -16.5530  -15.2541 C   0  0  0  0  0  0  0  0  0  0  0  0
   25.5835  -17.4253  -15.4359 C   0  0  0  0  0  0  0  0  0  0  0  0
   22.7789  -20.5668  -13.8660 C   0  0  0  0  0  0  0  0  0  0  0  0
   22.5438  -21.7144  -14.3134 O   0  0  0  0  0  0  0  0  0  0  0  0
   20.8614  -20.8074   -9.1568 C   0  0  0  0  0  0  0  0  0  0  0  0
   21.1113  -21.0086  -10.6090 C   0  0  0  0  0  0  0  0  0  0  0  0
   20.1153  -20.3992  -11.5382 C   0  0  2  0  0  0  0  0  0  0  0  0
   18.7302  -20.7424  -11.1012 C   0  0  0  0  0  0  0  0  0  0  0  0
   20.3952  -20.4915  -13.0068 C   0  0  2  0  0  0  0  0  0  0  0  0
   21.7097  -19.8533  -13.2797 N   0  0  0  0  0  0  0  0  0  0  0  0
   19.3743  -19.9583  -13.9021 C   0  0  0  0  0  0  0  0  0  0  0  0
   18.5643  -20.6326  -14.5883 O   0  0  0  0  0  0  0  0  0  0  0  0
   19.2103  -18.5612  -14.0720 O   0  0  0  0  0  0  0  0  0  0  0  0
  2  1  1  0
  3  2  1  0
  4  3  1  0
  5  4  1  0
  5  6  1  6
  7  8  2  0
  7  5  1  0
  9  7  1  0
 10  9  1  0
 10 11  1  6
 11 12  1  0
 12 13  2  0
 12 20  1  0
 13 14  1  0
 14 15  1  0
 15 16  2  0
 16 17  1  0
 18 17  2  0
 19 18  1  0
 20 19  2  0
 20 15  1  0
 21 10  1  0
 22 21  2  0
 23 24  1  0
 24 25  1  0
 25 26  1  6
 27 25  1  0
 27 28  1  1
 28 21  1  0
 29 27  1  0
 30 29  2  0
 31 29  1  0
M  END
$$$$
