MWI.pdb
     RDKit          3D

 31 32  0  0  1  0  0  0  0  0999 V2000
   28.4593  -21.3297  -19.3415 C   0  0  0  0  0  0  0  0  0  0  0  0
   27.9217  -22.9965  -18.8976 S   0  0  0  0  0  0  0  0  0  0  0  0
   28.7520  -23.5064  -17.3677 C   0  0  0  0  0  0  0  0  0  0  0  0
   27.8183  -23.4891  -16.1742 C   0  0  0  0  0  0  0  0  0  0  0  0
   27.2995  -22.0810  -15.9209 C   0  0  2  0  0  0  0  0  0  0  0  0
   28.3424  -21.1251  -15.8316 N   0  0  0  0  0  0  0  0  0  0  0  0
   26.4170  -22.0740  -14.7121 C   0  0  0  0  0  0  0  0  0  0  0  0
   25.6323  -23.0046  -14.4650 O   0  0  0  0  0  0  0  0  0  0  0  0
   26.4502  -20.9727  -13.7775 N   0  0  0  0  0  0  0  0  0  0  0  0
   25.5330  -20.9143  -12.6605 C   0  0  1  0  0  0  0  0  0  0  0  0
   26.0665  -19.9384  -11.6011 C   0  0  0  0  0  0  0  0  0  0  0  0
   27.2407  -20.5118  -10.9125 C   0  0  0  0  0  0  0  0  0  0  0  0
   28.2886  -21.1951  -11.4711 C   0  0  0  0  0  0  0  0  0  0  0  0
   29.1258  -21.5283  -10.4640 N   0  0  0  0  0  0  0  0  0  0  0  0
   28.6549  -21.0879   -9.2958 C   0  0  0  0  0  0  0  0  0  0  0  0
   29.1179  -21.1568   -8.0028 C   0  0  0  0  0  0  0  0  0  0  0  0
   28.4104  -20.5891   -6.9415 C   0  0  0  0  0  0  0  0  0  0  0  0
   27.2068  -19.9443   -7.2384 C   0  0  0  0  0  0  0  0  0  0  0  0
   26.7286  -19.8652   -8.5272 C   0  0  0  0  0  0  0  0  0  0  0  0
   27.4705  -20.4463   -9.5548 C   0  0  0  0  0  0  0  0  0  0  0  0
   24.1529  -20.5429  -13.0259 C   0  0  0  0  0  0  0  0  0  0  0  0
   23.9687  -19.4084  -13.5274 O   0  0  0  0  0  0  0  0  0  0  0  0
   19.6004  -21.4526  -16.2573 C   0  0  0  0  0  0  0  0  0  0  0  0
   19.7657  -21.7019  -14.8005 C   0  0  0  0  0  0  0  0  0  0  0  0
   21.1660  -21.8898  -14.3203 C   0  0  2  0  0  0  0  0  0  0  0  0
   21.4468  -23.3411  -14.1152 C   0  0  0  0  0  0  0  0  0  0  0  0
   21.6628  -20.9562  -13.2595 C   0  0  2  0  0  0  0  0  0  0  0  0
   23.0287  -21.3815  -12.8556 N   0  0  0  0  0  0  0  0  0  0  0  0
   20.8134  -20.7887  -12.0855 C   0  0  0  0  0  0  0  0  0  0  0  0
   19.6950  -20.2142  -12.0553 O   0  0  0  0  0  0  0  0  0  0  0  0
   21.2084  -21.2918  -10.8212 O   0  0  0  0  0  0  0  0  0  0  0  0
  2  1  1  0
  3  2  1  0
  4  3  1  0
  5  4  1  0
  5  6  1  1
  7  8  2  0
  7  5  1  0
  9  7  1  0
 10  9  1  0
 10 11  1  1
 11 12  1  0
 12 13  2  0
 12 20  1  0
 13 14  1  0
 14 15  1  0
 15 16  2  0
 16 17  1  0
 18 17  2  0
 19 18  1  0
 20 19  2  0
 20 15  1  0
 21 10  1  0
 22 21  2  0
 23 24  1  0
 24 25  1  0
 25 26  1  1
 27 25  1  0
 27 28  1  1
 28 21  1  0
 29 27  1  0
 30 29  2  0
 31 29  1  0
M  END
$$$$
