MWI.pdb
     RDKit          3D

 31 32  0  0  1  0  0  0  0  0999 V2000
   31.4428  -23.5439  -17.2828 C   0  0  0  0  0  0  0  0  0  0  0  0
   30.0943  -24.1941  -18.2943 S   0  0  0  0  0  0  0  0  0  0  0  0
   28.9563  -22.8457  -18.7145 C   0  0  0  0  0  0  0  0  0  0  0  0
   28.7732  -21.8706  -17.5690 C   0  0  0  0  0  0  0  0  0  0  0  0
   27.8814  -22.4713  -16.4921 C   0  0  2  0  0  0  0  0  0  0  0  0
   26.6061  -22.8429  -16.9869 N   0  0  0  0  0  0  0  0  0  0  0  0
   27.7887  -21.5351  -15.3280 C   0  0  0  0  0  0  0  0  0  0  0  0
   28.7870  -20.9570  -14.8675 O   0  0  0  0  0  0  0  0  0  0  0  0
   26.5187  -21.2653  -14.6941 N   0  0  0  0  0  0  0  0  0  0  0  0
   26.4044  -20.2782  -13.6429 C   0  0  1  0  0  0  0  0  0  0  0  0
   25.3611  -19.2211  -14.0345 C   0  0  0  0  0  0  0  0  0  0  0  0
   25.9989  -18.1110  -14.7709 C   0  0  0  0  0  0  0  0  0  0  0  0
   26.7444  -17.0831  -14.2563 C   0  0  0  0  0  0  0  0  0  0  0  0
   27.1218  -16.3080  -15.2969 N   0  0  0  0  0  0  0  0  0  0  0  0
   26.6487  -16.7982  -16.4443 C   0  0  0  0  0  0  0  0  0  0  0  0
   26.7501  -16.3996  -17.7564 C   0  0  0  0  0  0  0  0  0  0  0  0
   26.1467  -17.1208  -18.7884 C   0  0  0  0  0  0  0  0  0  0  0  0
   25.4303  -18.2692  -18.4415 C   0  0  0  0  0  0  0  0  0  0  0  0
   25.3190  -18.6833  -17.1331 C   0  0  0  0  0  0  0  0  0  0  0  0
   25.9396  -17.9314  -16.1364 C   0  0  0  0  0  0  0  0  0  0  0  0
   26.0712  -20.8363  -12.3187 C   0  0  0  0  0  0  0  0  0  0  0  0
   25.3973  -21.8933  -12.2851 O   0  0  0  0  0  0  0  0  0  0  0  0
   27.2686  -19.8822   -6.2217 C   0  0  0  0  0  0  0  0  0  0  0  0
   26.5028  -20.5795   -7.2889 C   0  0  0  0  0  0  0  0  0  0  0  0
   26.7712  -20.1353   -8.6880 C   0  0  2  0  0  0  0  0  0  0  0  0
   26.8493  -18.6460   -8.7464 C   0  0  0  0  0  0  0  0  0  0  0  0
   26.0043  -20.8081   -9.7847 C   0  0  2  0  0  0  0  0  0  0  0  0
   26.4665  -20.2644  -11.0888 N   0  0  0  0  0  0  0  0  0  0  0  0
   24.5494  -20.7510   -9.6958 C   0  0  0  0  0  0  0  0  0  0  0  0
   23.8053  -19.9027  -10.2513 O   0  0  0  0  0  0  0  0  0  0  0  0
   23.8269  -21.7031   -8.9349 O   0  0  0  0  0  0  0  0  0  0  0  0
  2  1  1  0
  3  2  1  0
  4  3  1  0
  5  4  1  0
  5  6  1  6
  7  8  2  0
  7  5  1  0
  9  7  1  0
 10  9  1  0
 10 11  1  6
 11 12  1  0
 12 13  2  0
 12 20  1  0
 13 14  1  0
 14 15  1  0
 15 16  2  0
 16 17  1  0
 18 17  2  0
 19 18  1  0
 20 19  2  0
 20 15  1  0
 21 10  1  0
 22 21  2  0
 23 24  1  0
 24 25  1  0
 25 26  1  1
 27 25  1  0
 27 28  1  6
 28 21  1  0
 29 27  1  0
 30 29  2  0
 31 29  1  0
M  END
$$$$
