MWI.pdb
     RDKit          3D

 31 32  0  0  1  0  0  0  0  0999 V2000
   25.6277  -16.9437  -19.6125 C   0  0  0  0  0  0  0  0  0  0  0  0
   26.1726  -17.7278  -21.1463 S   0  0  0  0  0  0  0  0  0  0  0  0
   27.2623  -19.1230  -20.7518 C   0  0  0  0  0  0  0  0  0  0  0  0
   26.8426  -19.8392  -19.4840 C   0  0  0  0  0  0  0  0  0  0  0  0
   28.0539  -20.1408  -18.6135 C   0  0  2  0  0  0  0  0  0  0  0  0
   28.9665  -21.0265  -19.2396 N   0  0  0  0  0  0  0  0  0  0  0  0
   27.6068  -20.6383  -17.2745 C   0  0  0  0  0  0  0  0  0  0  0  0
   27.2751  -21.8209  -17.0893 O   0  0  0  0  0  0  0  0  0  0  0  0
   27.5480  -19.7501  -16.1365 N   0  0  0  0  0  0  0  0  0  0  0  0
   27.0385  -20.2044  -14.8612 C   0  0  1  0  0  0  0  0  0  0  0  0
   27.7714  -19.4809  -13.7216 C   0  0  0  0  0  0  0  0  0  0  0  0
   27.6807  -20.2598  -12.4699 C   0  0  0  0  0  0  0  0  0  0  0  0
   28.4336  -21.3434  -12.1010 C   0  0  0  0  0  0  0  0  0  0  0  0
   28.0023  -21.7278  -10.8794 N   0  0  0  0  0  0  0  0  0  0  0  0
   27.0117  -20.9381  -10.4605 C   0  0  0  0  0  0  0  0  0  0  0  0
   26.2526  -20.9000   -9.3145 C   0  0  0  0  0  0  0  0  0  0  0  0
   25.2602  -19.9362   -9.1264 C   0  0  0  0  0  0  0  0  0  0  0  0
   25.0615  -19.0049  -10.1490 C   0  0  0  0  0  0  0  0  0  0  0  0
   25.8126  -19.0278  -11.3028 C   0  0  0  0  0  0  0  0  0  0  0  0
   26.7933  -20.0086  -11.4453 C   0  0  0  0  0  0  0  0  0  0  0  0
   25.5817  -20.0412  -14.6956 C   0  0  0  0  0  0  0  0  0  0  0  0
   25.0916  -18.9119  -14.9341 O   0  0  0  0  0  0  0  0  0  0  0  0
   20.3775  -22.4742  -16.2423 C   0  0  0  0  0  0  0  0  0  0  0  0
   21.0471  -21.6111  -15.2332 C   0  0  0  0  0  0  0  0  0  0  0  0
   22.5329  -21.7248  -15.1529 C   0  0  2  0  0  0  0  0  0  0  0  0
   22.9391  -23.1605  -15.1830 C   0  0  0  0  0  0  0  0  0  0  0  0
   23.2393  -20.8506  -14.1627 C   0  0  2  0  0  0  0  0  0  0  0  0
   24.7033  -21.0724  -14.2944 N   0  0  0  0  0  0  0  0  0  0  0  0
   22.8282  -20.9765  -12.7688 C   0  0  0  0  0  0  0  0  0  0  0  0
   23.4569  -21.5800  -11.8620 O   0  0  0  0  0  0  0  0  0  0  0  0
   21.6222  -20.3928  -12.3081 O   0  0  0  0  0  0  0  0  0  0  0  0
  2  1  1  0
  3  2  1  0
  4  3  1  0
  5  4  1  0
  5  6  1  6
  7  8  2  0
  7  5  1  0
  9  7  1  0
 10  9  1  0
 10 11  1  1
 11 12  1  0
 12 13  2  0
 12 20  1  0
 13 14  1  0
 14 15  1  0
 15 16  2  0
 16 17  1  0
 18 17  2  0
 19 18  1  0
 20 19  2  0
 20 15  1  0
 21 10  1  0
 22 21  2  0
 23 24  1  0
 24 25  1  0
 25 26  1  1
 27 25  1  0
 27 28  1  1
 28 21  1  0
 29 27  1  0
 30 29  2  0
 31 29  1  0
M  END
$$$$
