MWI.pdb
     RDKit          3D

 31 32  0  0  1  0  0  0  0  0999 V2000
   27.7486  -26.4444  -17.0905 C   0  0  0  0  0  0  0  0  0  0  0  0
   28.4599  -25.3763  -18.3623 S   0  0  0  0  0  0  0  0  0  0  0  0
   28.8889  -23.7741  -17.6282 C   0  0  0  0  0  0  0  0  0  0  0  0
   28.2506  -23.5761  -16.2681 C   0  0  0  0  0  0  0  0  0  0  0  0
   27.4744  -22.2678  -16.2264 C   0  0  2  0  0  0  0  0  0  0  0  0
   28.2957  -21.1401  -16.4775 N   0  0  0  0  0  0  0  0  0  0  0  0
   26.7359  -22.1557  -14.9294 C   0  0  0  0  0  0  0  0  0  0  0  0
   26.0216  -23.0755  -14.4974 O   0  0  0  0  0  0  0  0  0  0  0  0
   26.8323  -20.9605  -14.1234 N   0  0  0  0  0  0  0  0  0  0  0  0
   26.0265  -20.7962  -12.9334 C   0  0  1  0  0  0  0  0  0  0  0  0
   26.6688  -19.7485  -12.0119 C   0  0  0  0  0  0  0  0  0  0  0  0
   27.6574  -20.3825  -11.1161 C   0  0  0  0  0  0  0  0  0  0  0  0
   28.7706  -21.0987  -11.4698 C   0  0  0  0  0  0  0  0  0  0  0  0
   29.3739  -21.4843  -10.3239 N   0  0  0  0  0  0  0  0  0  0  0  0
   28.6932  -21.0458   -9.2633 C   0  0  0  0  0  0  0  0  0  0  0  0
   28.8823  -21.1570   -7.9059 C   0  0  0  0  0  0  0  0  0  0  0  0
   27.9964  -20.5795   -6.9943 C   0  0  0  0  0  0  0  0  0  0  0  0
   26.9025  -19.8800   -7.5106 C   0  0  0  0  0  0  0  0  0  0  0  0
   26.6980  -19.7580   -8.8668 C   0  0  0  0  0  0  0  0  0  0  0  0
   27.6103  -20.3509   -9.7387 C   0  0  0  0  0  0  0  0  0  0  0  0
   24.6218  -20.4301  -13.1962 C   0  0  0  0  0  0  0  0  0  0  0  0
   24.4067  -19.4117  -13.8956 O   0  0  0  0  0  0  0  0  0  0  0  0
   19.8191  -21.9363  -15.9228 C   0  0  0  0  0  0  0  0  0  0  0  0
   20.2408  -21.2212  -14.6889 C   0  0  0  0  0  0  0  0  0  0  0  0
   21.6203  -21.5115  -14.1995 C   0  0  2  0  0  0  0  0  0  0  0  0
   21.8537  -22.9853  -14.1699 C   0  0  0  0  0  0  0  0  0  0  0  0
   22.1114  -20.7329  -13.0178 C   0  0  2  0  0  0  0  0  0  0  0  0
   23.5057  -21.1534  -12.7196 N   0  0  0  0  0  0  0  0  0  0  0  0
   21.2931  -20.7893  -11.8115 C   0  0  0  0  0  0  0  0  0  0  0  0
   21.6170  -21.3240  -10.7202 O   0  0  0  0  0  0  0  0  0  0  0  0
   20.0002  -20.2107  -11.7790 O   0  0  0  0  0  0  0  0  0  0  0  0
  2  1  1  0
  3  2  1  0
  4  3  1  0
  5  4  1  0
  5  6  1  1
  7  8  2  0
  7  5  1  0
  9  7  1  0
 10  9  1  0
 10 11  1  1
 11 12  1  0
 12 13  2  0
 12 20  1  0
 13 14  1  0
 14 15  1  0
 15 16  2  0
 16 17  1  0
 18 17  2  0
 19 18  1  0
 20 19  2  0
 20 15  1  0
 21 10  1  0
 22 21  2  0
 23 24  1  0
 24 25  1  0
 25 26  1  1
 27 25  1  0
 27 28  1  1
 28 21  1  0
 29 27  1  0
 30 29  2  0
 31 29  1  0
M  END
$$$$
