MWI.pdb
     RDKit          3D

 31 32  0  0  1  0  0  0  0  0999 V2000
   31.8345  -22.9235  -12.6156 C   0  0  0  0  0  0  0  0  0  0  0  0
   31.2584  -22.2021  -14.1687 S   0  0  0  0  0  0  0  0  0  0  0  0
   29.9523  -20.9929  -13.8197 C   0  0  0  0  0  0  0  0  0  0  0  0
   28.9107  -21.5331  -12.8607 C   0  0  0  0  0  0  0  0  0  0  0  0
   27.7680  -20.5414  -12.6973 C   0  0  2  0  0  0  0  0  0  0  0  0
   28.2183  -19.2488  -12.3288 N   0  0  0  0  0  0  0  0  0  0  0  0
   26.7556  -21.0854  -11.7385 C   0  0  0  0  0  0  0  0  0  0  0  0
   26.2540  -22.2128  -11.8808 O   0  0  0  0  0  0  0  0  0  0  0  0
   26.3240  -20.3099  -10.5985 N   0  0  0  0  0  0  0  0  0  0  0  0
   25.1781  -20.7127   -9.8129 C   0  0  1  0  0  0  0  0  0  0  0  0
   25.1915  -19.9815   -8.4622 C   0  0  0  0  0  0  0  0  0  0  0  0
   26.5768  -19.8103   -7.9791 C   0  0  0  0  0  0  0  0  0  0  0  0
   27.6475  -19.3030   -8.6671 C   0  0  0  0  0  0  0  0  0  0  0  0
   28.7079  -19.3368   -7.8303 N   0  0  0  0  0  0  0  0  0  0  0  0
   28.3569  -19.8426   -6.6464 C   0  0  0  0  0  0  0  0  0  0  0  0
   29.0423  -20.0790   -5.4780 C   0  0  0  0  0  0  0  0  0  0  0  0
   28.4119  -20.6244   -4.3580 C   0  0  0  0  0  0  0  0  0  0  0  0
   27.0515  -20.9251   -4.4643 C   0  0  0  0  0  0  0  0  0  0  0  0
   26.3494  -20.6944   -5.6261 C   0  0  0  0  0  0  0  0  0  0  0  0
   27.0213  -20.1471   -6.7184 C   0  0  0  0  0  0  0  0  0  0  0  0
   23.8792  -20.4992  -10.4789 C   0  0  0  0  0  0  0  0  0  0  0  0
   23.6533  -19.3653  -10.9643 O   0  0  0  0  0  0  0  0  0  0  0  0
   22.7499  -22.4258  -14.8249 C   0  0  0  0  0  0  0  0  0  0  0  0
   22.7023  -21.6132  -13.5803 C   0  0  0  0  0  0  0  0  0  0  0  0
   21.6043  -21.9392  -12.6237 C   0  0  2  0  0  0  0  0  0  0  0  0
   20.3020  -22.0222  -13.3479 C   0  0  0  0  0  0  0  0  0  0  0  0
   21.5949  -21.2166  -11.3117 C   0  0  2  0  0  0  0  0  0  0  0  0
   22.8784  -21.4875  -10.6123 N   0  0  0  0  0  0  0  0  0  0  0  0
   20.4664  -21.4825  -10.4265 C   0  0  0  0  0  0  0  0  0  0  0  0
   20.4326  -22.3369   -9.5043 O   0  0  0  0  0  0  0  0  0  0  0  0
   19.2571  -20.7541  -10.5470 O   0  0  0  0  0  0  0  0  0  0  0  0
  2  1  1  0
  3  2  1  0
  4  3  1  0
  5  4  1  0
  5  6  1  1
  7  8  2  0
  7  5  1  0
  9  7  1  0
 10  9  1  0
 10 11  1  1
 11 12  1  0
 12 13  2  0
 12 20  1  0
 13 14  1  0
 14 15  1  0
 15 16  2  0
 16 17  1  0
 18 17  2  0
 19 18  1  0
 20 19  2  0
 20 15  1  0
 21 10  1  0
 22 21  2  0
 23 24  1  0
 24 25  1  0
 25 26  1  6
 27 25  1  0
 27 28  1  1
 28 21  1  0
 29 27  1  0
 30 29  2  0
 31 29  1  0
M  END
$$$$
