MWI.pdb
     RDKit          3D

 31 32  0  0  1  0  0  0  0  0999 V2000
   26.6183  -24.4507  -18.0350 C   0  0  0  0  0  0  0  0  0  0  0  0
   28.3230  -23.8804  -18.2160 S   0  0  0  0  0  0  0  0  0  0  0  0
   28.6148  -22.4944  -17.0830 C   0  0  0  0  0  0  0  0  0  0  0  0
   27.8292  -22.6307  -15.7943 C   0  0  0  0  0  0  0  0  0  0  0  0
   28.0618  -21.4249  -14.8955 C   0  0  2  0  0  0  0  0  0  0  0  0
   29.4386  -21.1565  -14.6912 N   0  0  0  0  0  0  0  0  0  0  0  0
   27.3196  -21.5999  -13.6076 C   0  0  0  0  0  0  0  0  0  0  0  0
   26.2156  -22.1669  -13.5563 O   0  0  0  0  0  0  0  0  0  0  0  0
   27.8698  -21.1125  -12.3638 N   0  0  0  0  0  0  0  0  0  0  0  0
   27.0857  -21.1179  -11.1482 C   0  0  1  0  0  0  0  0  0  0  0  0
   27.9132  -20.5329   -9.9939 C   0  0  0  0  0  0  0  0  0  0  0  0
   27.1229  -20.5159   -8.7462 C   0  0  0  0  0  0  0  0  0  0  0  0
   25.7973  -20.8246   -8.5897 C   0  0  0  0  0  0  0  0  0  0  0  0
   25.5068  -20.6700   -7.2791 N   0  0  0  0  0  0  0  0  0  0  0  0
   26.5869  -20.2773   -6.6011 C   0  0  0  0  0  0  0  0  0  0  0  0
   26.8207  -19.9940   -5.2760 C   0  0  0  0  0  0  0  0  0  0  0  0
   28.0817  -19.6012   -4.8236 C   0  0  0  0  0  0  0  0  0  0  0  0
   29.1061  -19.5038   -5.7689 C   0  0  0  0  0  0  0  0  0  0  0  0
   28.8901  -19.7842   -7.0995 C   0  0  0  0  0  0  0  0  0  0  0  0
   27.6141  -20.1739   -7.5043 C   0  0  0  0  0  0  0  0  0  0  0  0
   25.8011  -20.4000  -11.2503 C   0  0  0  0  0  0  0  0  0  0  0  0
   25.8381  -19.1494  -11.3343 O   0  0  0  0  0  0  0  0  0  0  0  0
   24.1407  -19.5058  -15.3163 C   0  0  0  0  0  0  0  0  0  0  0  0
   24.2386  -19.4777  -13.8326 C   0  0  0  0  0  0  0  0  0  0  0  0
   23.1665  -20.2019  -13.0891 C   0  0  2  0  0  0  0  0  0  0  0  0
   21.8260  -19.8228  -13.6247 C   0  0  0  0  0  0  0  0  0  0  0  0
   23.2930  -20.2807  -11.5986 C   0  0  2  0  0  0  0  0  0  0  0  0
   24.5352  -21.0271  -11.2673 N   0  0  0  0  0  0  0  0  0  0  0  0
   22.1557  -20.8371  -10.8741 C   0  0  0  0  0  0  0  0  0  0  0  0
   21.8625  -22.0563  -10.7778 O   0  0  0  0  0  0  0  0  0  0  0  0
   21.2474  -19.9961  -10.1848 O   0  0  0  0  0  0  0  0  0  0  0  0
  2  1  1  0
  3  2  1  0
  4  3  1  0
  5  4  1  0
  5  6  1  1
  7  8  2  0
  7  5  1  0
  9  7  1  0
 10  9  1  0
 10 11  1  1
 11 12  1  0
 12 13  2  0
 12 20  1  0
 13 14  1  0
 14 15  1  0
 15 16  2  0
 16 17  1  0
 18 17  2  0
 19 18  1  0
 20 19  2  0
 20 15  1  0
 21 10  1  0
 22 21  2  0
 23 24  1  0
 24 25  1  0
 25 26  1  1
 27 25  1  0
 27 28  1  6
 28 21  1  0
 29 27  1  0
 30 29  2  0
 31 29  1  0
M  END
$$$$
