MWI.pdb
     RDKit          3D

 31 32  0  0  1  0  0  0  0  0999 V2000
   26.4481  -23.7885  -17.7213 C   0  0  0  0  0  0  0  0  0  0  0  0
   27.2868  -22.2731  -18.2355 S   0  0  0  0  0  0  0  0  0  0  0  0
   27.8512  -21.3723  -16.7658 C   0  0  0  0  0  0  0  0  0  0  0  0
   27.0246  -21.6998  -15.5386 C   0  0  0  0  0  0  0  0  0  0  0  0
   26.9809  -20.5108  -14.5897 C   0  0  2  0  0  0  0  0  0  0  0  0
   28.2305  -19.8493  -14.4890 N   0  0  0  0  0  0  0  0  0  0  0  0
   26.4578  -20.9437  -13.2558 C   0  0  0  0  0  0  0  0  0  0  0  0
   25.4585  -21.6732  -13.1462 O   0  0  0  0  0  0  0  0  0  0  0  0
   27.1072  -20.5257  -12.0348 N   0  0  0  0  0  0  0  0  0  0  0  0
   26.5139  -20.7970  -10.7437 C   0  0  1  0  0  0  0  0  0  0  0  0
   27.4427  -20.2926   -9.6292 C   0  0  0  0  0  0  0  0  0  0  0  0
   26.8210  -20.4957   -8.3048 C   0  0  0  0  0  0  0  0  0  0  0  0
   25.6374  -21.1253   -8.0224 C   0  0  0  0  0  0  0  0  0  0  0  0
   25.4709  -21.0729   -6.6824 N   0  0  0  0  0  0  0  0  0  0  0  0
   26.4937  -20.4388   -6.1058 C   0  0  0  0  0  0  0  0  0  0  0  0
   26.8024  -20.1326   -4.8014 C   0  0  0  0  0  0  0  0  0  0  0  0
   27.9735  -19.4493   -4.4681 C   0  0  0  0  0  0  0  0  0  0  0  0
   28.8276  -19.0834   -5.5117 C   0  0  0  0  0  0  0  0  0  0  0  0
   28.5346  -19.3824   -6.8235 C   0  0  0  0  0  0  0  0  0  0  0  0
   27.3539  -20.0673   -7.1077 C   0  0  0  0  0  0  0  0  0  0  0  0
   25.1662  -20.2254  -10.5619 C   0  0  0  0  0  0  0  0  0  0  0  0
   25.0608  -18.9760  -10.5473 O   0  0  0  0  0  0  0  0  0  0  0  0
   20.8868  -21.9119  -13.5188 C   0  0  0  0  0  0  0  0  0  0  0  0
   21.5500  -21.8372  -12.1898 C   0  0  0  0  0  0  0  0  0  0  0  0
   22.0509  -20.4928  -11.7795 C   0  0  2  0  0  0  0  0  0  0  0  0
   22.8213  -19.8706  -12.8960 C   0  0  0  0  0  0  0  0  0  0  0  0
   22.6397  -20.3649  -10.4081 C   0  0  2  0  0  0  0  0  0  0  0  0
   23.9881  -20.9907  -10.4111 N   0  0  0  0  0  0  0  0  0  0  0  0
   21.8407  -20.8814   -9.3024 C   0  0  0  0  0  0  0  0  0  0  0  0
   22.1715  -21.8068   -8.5175 O   0  0  0  0  0  0  0  0  0  0  0  0
   20.5609  -20.3460   -9.0144 O   0  0  0  0  0  0  0  0  0  0  0  0
  2  1  1  0
  3  2  1  0
  4  3  1  0
  5  4  1  0
  5  6  1  1
  7  8  2  0
  7  5  1  0
  9  7  1  0
 10  9  1  0
 10 11  1  1
 11 12  1  0
 12 13  2  0
 12 20  1  0
 13 14  1  0
 14 15  1  0
 15 16  2  0
 16 17  1  0
 18 17  2  0
 19 18  1  0
 20 19  2  0
 20 15  1  0
 21 10  1  0
 22 21  2  0
 23 24  1  0
 24 25  1  0
 25 26  1  6
 27 25  1  0
 27 28  1  6
 28 21  1  0
 29 27  1  0
 30 29  2  0
 31 29  1  0
M  END
$$$$
