LWT.pdb
     RDKit          3D

 30 31  0  0  1  0  0  0  0  0999 V2000
    7.1273  -12.7909   17.4622 C   0  0  0  0  0  0  0  0  0  0  0  0
    7.8721  -14.0793   17.7426 C   0  0  1  0  0  0  0  0  0  0  0  0
    8.7768  -14.3576   16.5847 C   0  0  0  0  0  0  0  0  0  0  0  0
    8.6142  -13.9537   19.0559 C   0  0  0  0  0  0  0  0  0  0  0  0
    9.2604  -15.2542   19.4649 C   0  0  2  0  0  0  0  0  0  0  0  0
    8.3235  -16.3261   19.2060 N   0  0  0  0  0  0  0  0  0  0  0  0
    9.4735  -15.1881   20.9355 C   0  0  0  0  0  0  0  0  0  0  0  0
   10.3017  -14.3563   21.4312 O   0  0  0  0  0  0  0  0  0  0  0  0
    8.7853  -16.0247   21.8467 N   0  0  0  0  0  0  0  0  0  0  0  0
    8.6988  -15.7079   23.2836 C   0  0  1  0  0  0  0  0  0  0  0  0
    7.2670  -15.4102   23.5903 C   0  0  0  0  0  0  0  0  0  0  0  0
    6.9442  -15.1089   24.9766 C   0  0  0  0  0  0  0  0  0  0  0  0
    6.3605  -15.9748   25.8745 C   0  0  0  0  0  0  0  0  0  0  0  0
    6.2167  -15.2956   27.0473 N   0  0  0  0  0  0  0  0  0  0  0  0
    6.6783  -14.0498   26.9353 C   0  0  0  0  0  0  0  0  0  0  0  0
    6.7340  -13.0259   27.8538 C   0  0  0  0  0  0  0  0  0  0  0  0
    7.2769  -11.7929   27.4754 C   0  0  0  0  0  0  0  0  0  0  0  0
    7.7439  -11.6432   26.1785 C   0  0  0  0  0  0  0  0  0  0  0  0
    7.6729  -12.6846   25.2887 C   0  0  0  0  0  0  0  0  0  0  0  0
    7.1367  -13.9201   25.6435 C   0  0  0  0  0  0  0  0  0  0  0  0
    9.2545  -16.8740   24.0035 C   0  0  0  0  0  0  0  0  0  0  0  0
    8.8581  -18.0656   23.7405 O   0  0  0  0  0  0  0  0  0  0  0  0
   11.9790  -18.6062   23.6245 C   0  0  0  0  0  0  0  0  0  0  0  0
   12.0734  -18.3422   25.0927 C   0  0  1  0  0  0  0  0  0  0  0  0
   12.9137  -17.2462   25.2821 O   0  0  0  0  0  0  0  0  0  0  0  0
   10.7366  -17.9679   25.6999 C   0  0  2  0  0  0  0  0  0  0  0  0
   10.2466  -16.7889   25.0167 N   0  0  0  0  0  0  0  0  0  0  0  0
   10.8444  -17.8292   27.1524 C   0  0  0  0  0  0  0  0  0  0  0  0
   10.7208  -16.6795   27.6438 O   0  0  0  0  0  0  0  0  0  0  0  0
   11.0733  -18.8629   28.0463 O   0  0  0  0  0  0  0  0  0  0  0  0
  2  1  1  6
  3  2  1  0
  4  2  1  0
  5  4  1  0
  5  6  1  1
  7  9  1  0
  7  5  1  0
  8  7  2  0
 10  9  1  0
 10 11  1  1
 12 13  2  0
 12 11  1  0
 14 13  1  0
 15 20  2  0
 15 14  1  0
 16 15  1  0
 17 18  1  0
 17 16  2  0
 18 19  2  0
 19 20  1  0
 20 12  1  0
 21 10  1  0
 22 21  2  0
 24 23  1  6
 24 25  1  0
 24 26  1  0
 26 27  1  6
 26 28  1  0
 27 21  1  0
 28 30  1  0
 29 28  2  0
M  END
$$$$
