LWT.pdb
     RDKit          3D

 30 31  0  0  1  0  0  0  0  0999 V2000
    6.8973  -12.5162   19.3331 C   0  0  0  0  0  0  0  0  0  0  0  0
    7.3828  -13.9418   19.4924 C   0  0  1  0  0  0  0  0  0  0  0  0
    8.1578  -14.3112   18.2678 C   0  0  0  0  0  0  0  0  0  0  0  0
    8.1966  -14.0551   20.7637 C   0  0  0  0  0  0  0  0  0  0  0  0
    8.6528  -15.4707   21.0168 C   0  0  2  0  0  0  0  0  0  0  0  0
    7.4831  -16.3213   21.0641 N   0  0  0  0  0  0  0  0  0  0  0  0
    9.2778  -15.4895   22.3664 C   0  0  0  0  0  0  0  0  0  0  0  0
   10.2507  -14.7129   22.6383 O   0  0  0  0  0  0  0  0  0  0  0  0
    8.8384  -16.3498   23.4011 N   0  0  0  0  0  0  0  0  0  0  0  0
    9.4903  -16.3759   24.7229 C   0  0  1  0  0  0  0  0  0  0  0  0
    8.4139  -16.5184   25.7493 C   0  0  0  0  0  0  0  0  0  0  0  0
    7.3875  -15.4873   25.7680 C   0  0  0  0  0  0  0  0  0  0  0  0
    6.0806  -15.6440   25.3629 C   0  0  0  0  0  0  0  0  0  0  0  0
    5.4657  -14.4386   25.5255 N   0  0  0  0  0  0  0  0  0  0  0  0
    6.3153  -13.5327   26.0107 C   0  0  0  0  0  0  0  0  0  0  0  0
    6.1307  -12.2056   26.3262 C   0  0  0  0  0  0  0  0  0  0  0  0
    7.2053  -11.4634   26.8288 C   0  0  0  0  0  0  0  0  0  0  0  0
    8.4287  -12.0946   26.9933 C   0  0  0  0  0  0  0  0  0  0  0  0
    8.5777  -13.4190   26.6686 C   0  0  0  0  0  0  0  0  0  0  0  0
    7.5222  -14.1766   26.1670 C   0  0  0  0  0  0  0  0  0  0  0  0
   10.4616  -17.4904   24.6885 C   0  0  0  0  0  0  0  0  0  0  0  0
   10.0823  -18.6930   24.4511 O   0  0  0  0  0  0  0  0  0  0  0  0
   15.1255  -19.1409   24.5735 C   0  0  0  0  0  0  0  0  0  0  0  0
   14.1399  -18.0177   24.6071 C   0  0  1  0  0  0  0  0  0  0  0  0
   14.0586  -17.4749   23.3257 O   0  0  0  0  0  0  0  0  0  0  0  0
   12.7434  -18.4845   24.9646 C   0  0  2  0  0  0  0  0  0  0  0  0
   11.8576  -17.3406   24.9048 N   0  0  0  0  0  0  0  0  0  0  0  0
   12.7417  -19.1896   26.2466 C   0  0  0  0  0  0  0  0  0  0  0  0
   12.4598  -18.5313   27.2790 O   0  0  0  0  0  0  0  0  0  0  0  0
   13.0264  -20.5334   26.4281 O   0  0  0  0  0  0  0  0  0  0  0  0
  2  1  1  6
  3  2  1  0
  4  2  1  0
  5  4  1  0
  5  6  1  1
  7  9  1  0
  7  5  1  0
  8  7  2  0
 10  9  1  0
 10 11  1  1
 12 13  2  0
 12 11  1  0
 14 13  1  0
 15 20  2  0
 15 14  1  0
 16 15  1  0
 17 18  1  0
 17 16  2  0
 18 19  2  0
 19 20  1  0
 20 12  1  0
 21 10  1  0
 22 21  2  0
 24 23  1  6
 24 25  1  0
 24 26  1  0
 26 27  1  1
 26 28  1  0
 27 21  1  0
 28 30  1  0
 29 28  2  0
M  END
$$$$
