LWT.pdb
     RDKit          3D

 30 31  0  0  1  0  0  0  0  0999 V2000
    7.9019  -12.5502   18.1721 C   0  0  0  0  0  0  0  0  0  0  0  0
    7.4735  -13.8045   18.9046 C   0  0  1  0  0  0  0  0  0  0  0  0
    7.9543  -14.9876   18.1261 C   0  0  0  0  0  0  0  0  0  0  0  0
    8.0128  -13.7683   20.3185 C   0  0  0  0  0  0  0  0  0  0  0  0
    7.6070  -14.9881   21.1080 C   0  0  2  0  0  0  0  0  0  0  0  0
    6.1891  -14.8981   21.3828 N   0  0  0  0  0  0  0  0  0  0  0  0
    8.3229  -14.9191   22.4101 C   0  0  0  0  0  0  0  0  0  0  0  0
    8.5097  -13.7977   22.9855 O   0  0  0  0  0  0  0  0  0  0  0  0
    8.8253  -16.0668   23.0688 N   0  0  0  0  0  0  0  0  0  0  0  0
    9.6685  -15.9679   24.2737 C   0  0  1  0  0  0  0  0  0  0  0  0
    8.8164  -16.3298   25.4465 C   0  0  0  0  0  0  0  0  0  0  0  0
    7.6749  -15.4688   25.7158 C   0  0  0  0  0  0  0  0  0  0  0  0
    6.3522  -15.8009   25.5235 C   0  0  0  0  0  0  0  0  0  0  0  0
    5.6124  -14.7129   25.8791 N   0  0  0  0  0  0  0  0  0  0  0  0
    6.3984  -13.7150   26.2845 C   0  0  0  0  0  0  0  0  0  0  0  0
    6.0876  -12.4494   26.7281 C   0  0  0  0  0  0  0  0  0  0  0  0
    7.1188  -11.5798   27.1003 C   0  0  0  0  0  0  0  0  0  0  0  0
    8.4284  -12.0257   27.0091 C   0  0  0  0  0  0  0  0  0  0  0  0
    8.7025  -13.2934   26.5627 C   0  0  0  0  0  0  0  0  0  0  0  0
    7.6922  -14.1754   26.1870 C   0  0  0  0  0  0  0  0  0  0  0  0
   10.8240  -16.8635   24.0506 C   0  0  0  0  0  0  0  0  0  0  0  0
   10.6730  -18.1359   23.9838 O   0  0  0  0  0  0  0  0  0  0  0  0
   13.2826  -16.6760   21.3093 C   0  0  0  0  0  0  0  0  0  0  0  0
   14.0959  -16.8756   22.5475 C   0  0  1  0  0  0  0  0  0  0  0  0
   14.6326  -15.6430   22.9160 O   0  0  0  0  0  0  0  0  0  0  0  0
   13.2587  -17.3466   23.7193 C   0  0  2  0  0  0  0  0  0  0  0  0
   12.1629  -16.4159   23.8921 N   0  0  0  0  0  0  0  0  0  0  0  0
   14.0884  -17.5379   24.9091 C   0  0  0  0  0  0  0  0  0  0  0  0
   13.9152  -16.7571   25.8782 O   0  0  0  0  0  0  0  0  0  0  0  0
   15.0597  -18.5135   25.0665 O   0  0  0  0  0  0  0  0  0  0  0  0
  2  1  1  6
  3  2  1  0
  4  2  1  0
  5  4  1  0
  5  6  1  1
  7  9  1  0
  7  5  1  0
  8  7  2  0
 10  9  1  0
 10 11  1  1
 12 13  2  0
 12 11  1  0
 14 13  1  0
 15 20  2  0
 15 14  1  0
 16 15  1  0
 17 18  1  0
 17 16  2  0
 18 19  2  0
 19 20  1  0
 20 12  1  0
 21 10  1  0
 22 21  2  0
 24 23  1  6
 24 25  1  0
 24 26  1  0
 26 27  1  1
 26 28  1  0
 27 21  1  0
 28 30  1  0
 29 28  2  0
M  END
$$$$
