LWT.pdb
     RDKit          3D

 30 31  0  0  1  0  0  0  0  0999 V2000
    7.4324  -12.2093   19.5372 C   0  0  0  0  0  0  0  0  0  0  0  0
    7.7268  -13.6881   19.6786 C   0  0  1  0  0  0  0  0  0  0  0  0
    8.4233  -14.1468   18.4371 C   0  0  0  0  0  0  0  0  0  0  0  0
    8.5413  -13.9194   20.9333 C   0  0  0  0  0  0  0  0  0  0  0  0
    8.8346  -15.3828   21.1532 C   0  0  2  0  0  0  0  0  0  0  0  0
    7.5915  -16.1151   21.0418 N   0  0  0  0  0  0  0  0  0  0  0  0
    9.3151  -15.5224   22.5540 C   0  0  0  0  0  0  0  0  0  0  0  0
   10.2317  -14.7586   23.0013 O   0  0  0  0  0  0  0  0  0  0  0  0
    8.7946  -16.4878   23.4489 N   0  0  0  0  0  0  0  0  0  0  0  0
    9.3048  -16.6314   24.8243 C   0  0  1  0  0  0  0  0  0  0  0  0
    8.1222  -16.7010   25.7347 C   0  0  0  0  0  0  0  0  0  0  0  0
    7.2470  -15.5390   25.7598 C   0  0  0  0  0  0  0  0  0  0  0  0
    5.9630  -15.4866   25.2644 C   0  0  0  0  0  0  0  0  0  0  0  0
    5.5079  -14.2186   25.4703 N   0  0  0  0  0  0  0  0  0  0  0  0
    6.4361  -13.4711   26.0681 C   0  0  0  0  0  0  0  0  0  0  0  0
    6.4118  -12.1521   26.4614 C   0  0  0  0  0  0  0  0  0  0  0  0
    7.5388  -11.5989   27.0794 C   0  0  0  0  0  0  0  0  0  0  0  0
    8.6502  -12.4042   27.2762 C   0  0  0  0  0  0  0  0  0  0  0  0
    8.6404  -13.7149   26.8719 C   0  0  0  0  0  0  0  0  0  0  0  0
    7.5299  -14.2861   26.2550 C   0  0  0  0  0  0  0  0  0  0  0  0
   10.1597  -17.8380   24.8296 C   0  0  0  0  0  0  0  0  0  0  0  0
    9.9254  -18.8197   24.0373 O   0  0  0  0  0  0  0  0  0  0  0  0
   13.1551  -18.7311   23.6821 C   0  0  0  0  0  0  0  0  0  0  0  0
   13.2868  -19.2003   25.0952 C   0  0  1  0  0  0  0  0  0  0  0  0
   14.0334  -18.2552   25.7970 O   0  0  0  0  0  0  0  0  0  0  0  0
   11.9484  -19.2982   25.7988 C   0  0  2  0  0  0  0  0  0  0  0  0
   11.2831  -18.0176   25.6803 N   0  0  0  0  0  0  0  0  0  0  0  0
   12.1153  -19.7729   27.1726 C   0  0  0  0  0  0  0  0  0  0  0  0
   11.7913  -18.9968   28.1061 O   0  0  0  0  0  0  0  0  0  0  0  0
   12.6042  -21.0155   27.5426 O   0  0  0  0  0  0  0  0  0  0  0  0
  2  1  1  6
  3  2  1  0
  4  2  1  0
  5  4  1  0
  5  6  1  1
  7  9  1  0
  7  5  1  0
  8  7  2  0
 10  9  1  0
 10 11  1  1
 12 13  2  0
 12 11  1  0
 14 13  1  0
 15 20  2  0
 15 14  1  0
 16 15  1  0
 17 18  1  0
 17 16  2  0
 18 19  2  0
 19 20  1  0
 20 12  1  0
 21 10  1  0
 22 21  2  0
 24 23  1  6
 24 25  1  0
 24 26  1  0
 26 27  1  1
 26 28  1  0
 27 21  1  0
 28 30  1  0
 29 28  2  0
M  END
$$$$
