LWT.pdb
     RDKit          3D

 30 31  0  0  1  0  0  0  0  0999 V2000
    7.5413  -11.9347   19.6225 C   0  0  0  0  0  0  0  0  0  0  0  0
    7.7342  -13.4354   19.6875 C   0  0  1  0  0  0  0  0  0  0  0  0
    8.3920  -13.8775   18.4192 C   0  0  0  0  0  0  0  0  0  0  0  0
    8.5365  -13.7847   20.9226 C   0  0  0  0  0  0  0  0  0  0  0  0
    8.7336  -15.2737   21.0644 C   0  0  2  0  0  0  0  0  0  0  0  0
    7.4314  -15.9047   21.0619 N   0  0  0  0  0  0  0  0  0  0  0  0
    9.3429  -15.5044   22.4016 C   0  0  0  0  0  0  0  0  0  0  0  0
   10.3675  -14.8411   22.7674 O   0  0  0  0  0  0  0  0  0  0  0  0
    8.8321  -16.4506   23.3222 N   0  0  0  0  0  0  0  0  0  0  0  0
    9.4834  -16.7067   24.6194 C   0  0  1  0  0  0  0  0  0  0  0  0
    8.4088  -16.7619   25.6559 C   0  0  0  0  0  0  0  0  0  0  0  0
    7.5119  -15.6186   25.7295 C   0  0  0  0  0  0  0  0  0  0  0  0
    6.1818  -15.6138   25.3724 C   0  0  0  0  0  0  0  0  0  0  0  0
    5.7189  -14.3482   25.5766 N   0  0  0  0  0  0  0  0  0  0  0  0
    6.6860  -13.5574   26.0427 C   0  0  0  0  0  0  0  0  0  0  0  0
    6.6699  -12.2242   26.3851 C   0  0  0  0  0  0  0  0  0  0  0  0
    7.8417  -11.6224   26.8574 C   0  0  0  0  0  0  0  0  0  0  0  0
    8.9877  -12.3953   26.9654 C   0  0  0  0  0  0  0  0  0  0  0  0
    8.9684  -13.7214   26.6152 C   0  0  0  0  0  0  0  0  0  0  0  0
    7.8138  -14.3407   26.1429 C   0  0  0  0  0  0  0  0  0  0  0  0
   10.2531  -17.9594   24.4612 C   0  0  0  0  0  0  0  0  0  0  0  0
    9.6600  -19.0870   24.3090 O   0  0  0  0  0  0  0  0  0  0  0  0
   12.6302  -19.0158   21.9520 C   0  0  0  0  0  0  0  0  0  0  0  0
   13.3251  -19.2785   23.2491 C   0  0  1  0  0  0  0  0  0  0  0  0
   14.2142  -18.2308   23.4836 O   0  0  0  0  0  0  0  0  0  0  0  0
   12.3680  -19.3000   24.4236 C   0  0  2  0  0  0  0  0  0  0  0  0
   11.6719  -18.0307   24.4599 N   0  0  0  0  0  0  0  0  0  0  0  0
   13.0686  -19.6458   25.6606 C   0  0  0  0  0  0  0  0  0  0  0  0
   13.5427  -20.8048   25.7632 O   0  0  0  0  0  0  0  0  0  0  0  0
   13.2590  -18.8013   26.7426 O   0  0  0  0  0  0  0  0  0  0  0  0
  2  1  1  6
  3  2  1  0
  4  2  1  0
  5  4  1  0
  5  6  1  1
  7  9  1  0
  7  5  1  0
  8  7  2  0
 10  9  1  0
 10 11  1  1
 12 13  2  0
 12 11  1  0
 14 13  1  0
 15 20  2  0
 15 14  1  0
 16 15  1  0
 17 18  1  0
 17 16  2  0
 18 19  2  0
 19 20  1  0
 20 12  1  0
 21 10  1  0
 22 21  2  0
 24 23  1  6
 24 25  1  0
 24 26  1  0
 26 27  1  1
 26 28  1  0
 27 21  1  0
 28 30  1  0
 29 28  2  0
M  END
$$$$
