LWT.pdb
     RDKit          3D

 30 31  0  0  1  0  0  0  0  0999 V2000
    6.7653  -13.0960   20.7671 C   0  0  0  0  0  0  0  0  0  0  0  0
    7.6873  -13.7206   19.7409 C   0  0  1  0  0  0  0  0  0  0  0  0
    8.2327  -12.6287   18.8764 C   0  0  0  0  0  0  0  0  0  0  0  0
    8.7676  -14.5080   20.4510 C   0  0  0  0  0  0  0  0  0  0  0  0
    8.2114  -15.7224   21.1523 C   0  0  2  0  0  0  0  0  0  0  0  0
    6.7745  -15.5753   21.2407 N   0  0  0  0  0  0  0  0  0  0  0  0
    8.7514  -15.7073   22.5382 C   0  0  0  0  0  0  0  0  0  0  0  0
    9.2269  -14.6343   23.0342 O   0  0  0  0  0  0  0  0  0  0  0  0
    8.7676  -16.8558   23.3656 N   0  0  0  0  0  0  0  0  0  0  0  0
    9.3699  -16.8392   24.7108 C   0  0  1  0  0  0  0  0  0  0  0  0
    8.2517  -16.8665   25.7015 C   0  0  0  0  0  0  0  0  0  0  0  0
    7.3267  -15.7438   25.6744 C   0  0  0  0  0  0  0  0  0  0  0  0
    6.0571  -15.7586   25.1409 C   0  0  0  0  0  0  0  0  0  0  0  0
    5.5415  -14.5077   25.3043 N   0  0  0  0  0  0  0  0  0  0  0  0
    6.4182  -13.7073   25.9115 C   0  0  0  0  0  0  0  0  0  0  0  0
    6.3250  -12.3824   26.2735 C   0  0  0  0  0  0  0  0  0  0  0  0
    7.4080  -11.7670   26.9110 C   0  0  0  0  0  0  0  0  0  0  0  0
    8.5468  -12.5182   27.1585 C   0  0  0  0  0  0  0  0  0  0  0  0
    8.6058  -13.8365   26.7842 C   0  0  0  0  0  0  0  0  0  0  0  0
    7.5402  -14.4692   26.1487 C   0  0  0  0  0  0  0  0  0  0  0  0
   10.2806  -18.0024   24.7760 C   0  0  0  0  0  0  0  0  0  0  0  0
    9.8992  -19.1651   24.3900 O   0  0  0  0  0  0  0  0  0  0  0  0
   13.7950  -18.5154   23.5237 C   0  0  0  0  0  0  0  0  0  0  0  0
   13.7901  -18.9204   24.9625 C   0  0  1  0  0  0  0  0  0  0  0  0
   14.3322  -17.8748   25.7081 O   0  0  0  0  0  0  0  0  0  0  0  0
   12.3895  -19.1457   25.4948 C   0  0  2  0  0  0  0  0  0  0  0  0
   11.6176  -17.9447   25.2527 N   0  0  0  0  0  0  0  0  0  0  0  0
   12.4260  -19.5744   26.8932 C   0  0  0  0  0  0  0  0  0  0  0  0
   11.9565  -18.7947   27.7594 O   0  0  0  0  0  0  0  0  0  0  0  0
   12.9377  -20.7765   27.3550 O   0  0  0  0  0  0  0  0  0  0  0  0
  2  1  1  1
  3  2  1  0
  4  2  1  0
  5  4  1  0
  5  6  1  1
  7  9  1  0
  7  5  1  0
  8  7  2  0
 10  9  1  0
 10 11  1  1
 12 13  2  0
 12 11  1  0
 14 13  1  0
 15 20  2  0
 15 14  1  0
 16 15  1  0
 17 18  1  0
 17 16  2  0
 18 19  2  0
 19 20  1  0
 20 12  1  0
 21 10  1  0
 22 21  2  0
 24 23  1  6
 24 25  1  0
 24 26  1  0
 26 27  1  1
 26 28  1  0
 27 21  1  0
 28 30  1  0
 29 28  2  0
M  END
$$$$
