LWT.pdb
     RDKit          3D

 30 31  0  0  1  0  0  0  0  0999 V2000
    6.9618  -12.3728   19.8302 C   0  0  0  0  0  0  0  0  0  0  0  0
    7.7208  -13.6830   19.8587 C   0  0  1  0  0  0  0  0  0  0  0  0
    8.9066  -13.5560   18.9561 C   0  0  0  0  0  0  0  0  0  0  0  0
    8.0978  -14.0129   21.2871 C   0  0  0  0  0  0  0  0  0  0  0  0
    8.9116  -15.2800   21.3771 C   0  0  2  0  0  0  0  0  0  0  0  0
    8.0094  -16.4060   21.2662 N   0  0  0  0  0  0  0  0  0  0  0  0
    9.5095  -15.3149   22.7386 C   0  0  0  0  0  0  0  0  0  0  0  0
   10.3519  -14.4285   23.0968 O   0  0  0  0  0  0  0  0  0  0  0  0
    9.1850  -16.3101   23.6916 N   0  0  0  0  0  0  0  0  0  0  0  0
    9.7759  -16.3189   25.0419 C   0  0  1  0  0  0  0  0  0  0  0  0
    8.6554  -16.4679   26.0191 C   0  0  0  0  0  0  0  0  0  0  0  0
    7.5899  -15.4797   25.9477 C   0  0  0  0  0  0  0  0  0  0  0  0
    6.2796  -15.7310   25.6062 C   0  0  0  0  0  0  0  0  0  0  0  0
    5.6220  -14.5378   25.6438 N   0  0  0  0  0  0  0  0  0  0  0  0
    6.4480  -13.5502   25.9904 C   0  0  0  0  0  0  0  0  0  0  0  0
    6.2196  -12.2023   26.1515 C   0  0  0  0  0  0  0  0  0  0  0  0
    7.2772  -11.3667   26.5276 C   0  0  0  0  0  0  0  0  0  0  0  0
    8.5288  -11.9291   26.7268 C   0  0  0  0  0  0  0  0  0  0  0  0
    8.7213  -13.2766   26.5574 C   0  0  0  0  0  0  0  0  0  0  0  0
    7.6833  -14.1266   26.1835 C   0  0  0  0  0  0  0  0  0  0  0  0
   10.7614  -17.4212   25.0603 C   0  0  0  0  0  0  0  0  0  0  0  0
   11.2534  -17.8520   26.1643 O   0  0  0  0  0  0  0  0  0  0  0  0
   10.5619  -20.6874   22.8460 C   0  0  0  0  0  0  0  0  0  0  0  0
   11.9415  -20.1125   22.8241 C   0  0  1  0  0  0  0  0  0  0  0  0
   12.0754  -19.3530   21.6629 O   0  0  0  0  0  0  0  0  0  0  0  0
   12.1938  -19.1708   23.9840 C   0  0  2  0  0  0  0  0  0  0  0  0
   11.2381  -18.0862   23.8990 N   0  0  0  0  0  0  0  0  0  0  0  0
   13.5939  -18.7474   24.0167 C   0  0  0  0  0  0  0  0  0  0  0  0
   14.4638  -19.6136   24.2845 O   0  0  0  0  0  0  0  0  0  0  0  0
   14.0536  -17.4625   23.7765 O   0  0  0  0  0  0  0  0  0  0  0  0
  2  1  1  1
  3  2  1  0
  4  2  1  0
  5  4  1  0
  5  6  1  1
  7  9  1  0
  7  5  1  0
  8  7  2  0
 10  9  1  0
 10 11  1  1
 12 13  2  0
 12 11  1  0
 14 13  1  0
 15 20  2  0
 15 14  1  0
 16 15  1  0
 17 18  1  0
 17 16  2  0
 18 19  2  0
 19 20  1  0
 20 12  1  0
 21 10  1  0
 22 21  2  0
 24 23  1  1
 24 25  1  0
 24 26  1  0
 26 27  1  6
 26 28  1  0
 27 21  1  0
 28 30  1  0
 29 28  2  0
M  END
$$$$
