LWT.pdb
     RDKit          3D

 30 31  0  0  1  0  0  0  0  0999 V2000
    8.1075  -11.9518   18.6459 C   0  0  0  0  0  0  0  0  0  0  0  0
    8.0783  -13.4457   18.8924 C   0  0  1  0  0  0  0  0  0  0  0  0
    7.1509  -14.0659   17.8964 C   0  0  0  0  0  0  0  0  0  0  0  0
    9.4865  -13.9948   18.8109 C   0  0  0  0  0  0  0  0  0  0  0  0
    9.5814  -15.3898   19.3775 C   0  0  2  0  0  0  0  0  0  0  0  0
    8.3885  -16.1150   18.9964 N   0  0  0  0  0  0  0  0  0  0  0  0
    9.5731  -15.2569   20.8590 C   0  0  0  0  0  0  0  0  0  0  0  0
   10.4758  -14.5805   21.4516 O   0  0  0  0  0  0  0  0  0  0  0  0
    8.5863  -15.8591   21.6758 N   0  0  0  0  0  0  0  0  0  0  0  0
    8.5505  -15.6543   23.1350 C   0  0  1  0  0  0  0  0  0  0  0  0
    7.1301  -15.3874   23.5142 C   0  0  0  0  0  0  0  0  0  0  0  0
    6.8746  -15.0717   24.9114 C   0  0  0  0  0  0  0  0  0  0  0  0
    6.4307  -15.9564   25.8690 C   0  0  0  0  0  0  0  0  0  0  0  0
    6.3054  -15.2557   27.0313 N   0  0  0  0  0  0  0  0  0  0  0  0
    6.6466  -13.9787   26.8561 C   0  0  0  0  0  0  0  0  0  0  0  0
    6.6723  -12.9256   27.7423 C   0  0  0  0  0  0  0  0  0  0  0  0
    7.0777  -11.6627   27.2963 C   0  0  0  0  0  0  0  0  0  0  0  0
    7.4425  -11.5138   25.9669 C   0  0  0  0  0  0  0  0  0  0  0  0
    7.4051  -12.5849   25.1108 C   0  0  0  0  0  0  0  0  0  0  0  0
    7.0050  -13.8504   25.5330 C   0  0  0  0  0  0  0  0  0  0  0  0
    9.1334  -16.8699   23.7427 C   0  0  0  0  0  0  0  0  0  0  0  0
    8.6662  -18.0344   23.4742 O   0  0  0  0  0  0  0  0  0  0  0  0
   12.3287  -18.4487   23.4768 C   0  0  0  0  0  0  0  0  0  0  0  0
   12.1235  -18.3046   24.9503 C   0  0  1  0  0  0  0  0  0  0  0  0
   12.8208  -17.1751   25.3759 O   0  0  0  0  0  0  0  0  0  0  0  0
   10.6703  -18.0730   25.3117 C   0  0  2  0  0  0  0  0  0  0  0  0
   10.2287  -16.8645   24.6473 N   0  0  0  0  0  0  0  0  0  0  0  0
   10.4881  -18.0711   26.7633 C   0  0  0  0  0  0  0  0  0  0  0  0
   10.1974  -16.9817   27.3178 O   0  0  0  0  0  0  0  0  0  0  0  0
   10.6085  -19.1746   27.5926 O   0  0  0  0  0  0  0  0  0  0  0  0
  2  1  1  6
  3  2  1  0
  4  2  1  0
  5  4  1  0
  5  6  1  1
  7  9  1  0
  7  5  1  0
  8  7  2  0
 10  9  1  0
 10 11  1  1
 12 13  2  0
 12 11  1  0
 14 13  1  0
 15 20  2  0
 15 14  1  0
 16 15  1  0
 17 18  1  0
 17 16  2  0
 18 19  2  0
 19 20  1  0
 20 12  1  0
 21 10  1  0
 22 21  2  0
 24 23  1  6
 24 25  1  0
 24 26  1  0
 26 27  1  1
 26 28  1  0
 27 21  1  0
 28 30  1  0
 29 28  2  0
M  END
$$$$
