PMR.pdb
     RDKit          3D

 27 27  0  0  1  0  0  0  0  0999 V2000
    7.7510  -15.3138   20.0008 N   0  0  0  0  0  0  0  0  0  0  0  0
    7.4497  -14.9521   18.6275 C   0  0  0  0  0  0  0  0  0  0  0  0
    7.5237  -13.4396   18.6021 C   0  0  0  0  0  0  0  0  0  0  0  0
    8.0845  -13.0463   19.9777 C   0  0  0  0  0  0  0  0  0  0  0  0
    8.7486  -14.3406   20.3581 C   0  0  1  0  0  0  0  0  0  0  0  0
    9.1949  -14.4298   21.7465 C   0  0  0  0  0  0  0  0  0  0  0  0
   10.4087  -14.5238   22.0008 O   0  0  0  0  0  0  0  0  0  0  0  0
    5.1136  -12.5622   26.8344 C   0  0  0  0  0  0  0  0  0  0  0  0
    6.8663  -12.1321   27.0874 S   0  0  0  0  0  0  0  0  0  0  0  0
    7.8606  -13.4699   26.4023 C   0  0  0  0  0  0  0  0  0  0  0  0
    7.5055  -13.6014   24.9346 C   0  0  0  0  0  0  0  0  0  0  0  0
    8.6487  -14.2679   24.2045 C   0  0  2  0  0  0  0  0  0  0  0  0
    8.2502  -14.4108   22.8079 N   0  0  0  0  0  0  0  0  0  0  0  0
    8.8539  -15.6017   24.8329 C   0  0  0  0  0  0  0  0  0  0  0  0
    7.9131  -16.4475   24.7408 O   0  0  0  0  0  0  0  0  0  0  0  0
   14.2425  -16.8365   21.7300 N   0  0  0  0  0  0  0  0  0  0  0  0
   14.7016  -16.3029   22.9864 C   0  0  0  0  0  0  0  0  0  0  0  0
   15.9035  -15.8552   23.1133 N   0  0  0  0  0  0  0  0  0  0  0  0
   13.8353  -16.2670   24.1101 N   0  0  0  0  0  0  0  0  0  0  0  0
   12.4040  -16.3212   23.9165 C   0  0  0  0  0  0  0  0  0  0  0  0
   11.8815  -17.6880   24.2126 C   0  0  0  0  0  0  0  0  0  0  0  0
   11.5163  -17.8230   25.6577 C   0  0  0  0  0  0  0  0  0  0  0  0
   10.1495  -17.3491   26.0054 C   0  0  2  0  0  0  0  0  0  0  0  0
   10.0202  -15.9669   25.5126 N   0  0  0  0  0  0  0  0  0  0  0  0
    9.8479  -17.3851   27.4510 C   0  0  0  0  0  0  0  0  0  0  0  0
    8.6454  -16.9934   28.0090 O   0  0  0  0  0  0  0  0  0  0  0  0
   10.7342  -17.7974   28.2424 O   0  0  0  0  0  0  0  0  0  0  0  0
  1  5  1  0
  2  3  1  0
  2  1  1  0
  3  4  1  0
  4  5  1  0
  5  6  1  1
  6  7  2  0
  9  8  1  0
 10  9  1  0
 11 10  1  0
 12 11  1  1
 12 14  1  0
 13  6  1  0
 13 12  1  0
 14 24  1  0
 14 15  2  0
 16 17  1  0
 17 19  1  0
 18 17  2  0
 19 20  1  0
 20 21  1  0
 21 22  1  0
 23 22  1  1
 23 25  1  0
 24 23  1  0
 25 27  2  0
 25 26  1  0
M  END
$$$$
