PMR.pdb
     RDKit          3D

 27 27  0  0  1  0  0  0  0  0999 V2000
    7.4311  -15.0190   20.2870 N   0  0  0  0  0  0  0  0  0  0  0  0
    7.1510  -14.7597   18.8863 C   0  0  0  0  0  0  0  0  0  0  0  0
    7.4828  -13.2949   18.6916 C   0  0  0  0  0  0  0  0  0  0  0  0
    8.1480  -12.8601   20.0069 C   0  0  0  0  0  0  0  0  0  0  0  0
    8.5922  -14.2020   20.5197 C   0  0  1  0  0  0  0  0  0  0  0  0
    9.0624  -14.2183   21.9030 C   0  0  0  0  0  0  0  0  0  0  0  0
   10.2552  -13.9710   22.1534 O   0  0  0  0  0  0  0  0  0  0  0  0
    5.0273  -12.2489   27.0960 C   0  0  0  0  0  0  0  0  0  0  0  0
    6.7261  -11.8533   26.5683 S   0  0  0  0  0  0  0  0  0  0  0  0
    6.9786  -12.5919   24.9440 C   0  0  0  0  0  0  0  0  0  0  0  0
    7.3064  -14.0571   25.1514 C   0  0  0  0  0  0  0  0  0  0  0  0
    8.5507  -14.4039   24.3667 C   0  0  2  0  0  0  0  0  0  0  0  0
    8.1648  -14.5158   22.9638 N   0  0  0  0  0  0  0  0  0  0  0  0
    9.0464  -15.7094   24.8825 C   0  0  0  0  0  0  0  0  0  0  0  0
    8.3578  -16.7436   24.6273 O   0  0  0  0  0  0  0  0  0  0  0  0
   14.2316  -18.1679   22.2976 N   0  0  0  0  0  0  0  0  0  0  0  0
   14.8227  -17.2535   23.2403 C   0  0  0  0  0  0  0  0  0  0  0  0
   15.6032  -16.3084   22.8420 N   0  0  0  0  0  0  0  0  0  0  0  0
   14.5577  -17.3834   24.6286 N   0  0  0  0  0  0  0  0  0  0  0  0
   14.1004  -18.6482   25.1580 C   0  0  0  0  0  0  0  0  0  0  0  0
   12.6174  -18.6448   25.3296 C   0  0  0  0  0  0  0  0  0  0  0  0
   12.1258  -17.2907   25.7353 C   0  0  0  0  0  0  0  0  0  0  0  0
   10.6637  -17.2080   25.9983 C   0  0  2  0  0  0  0  0  0  0  0  0
   10.2217  -15.8528   25.6264 N   0  0  0  0  0  0  0  0  0  0  0  0
   10.2865  -17.4799   27.4004 C   0  0  0  0  0  0  0  0  0  0  0  0
   10.3323  -18.7270   27.9948 O   0  0  0  0  0  0  0  0  0  0  0  0
    9.8947  -16.5230   28.1165 O   0  0  0  0  0  0  0  0  0  0  0  0
  1  5  1  0
  2  3  1  0
  2  1  1  0
  3  4  1  0
  4  5  1  0
  5  6  1  1
  6  7  2  0
  9  8  1  0
 10  9  1  0
 11 10  1  0
 12 11  1  1
 12 14  1  0
 13  6  1  0
 13 12  1  0
 14 24  1  0
 14 15  2  0
 16 17  1  0
 17 19  1  0
 18 17  2  0
 19 20  1  0
 20 21  1  0
 21 22  1  0
 23 22  1  1
 23 25  1  0
 24 23  1  0
 25 27  2  0
 25 26  1  0
M  END
$$$$
