PMR.pdb
     RDKit          3D

 27 27  0  0  1  0  0  0  0  0999 V2000
    7.4203  -14.8656   19.9968 N   0  0  0  0  0  0  0  0  0  0  0  0
    7.1914  -14.4492   18.6249 C   0  0  0  0  0  0  0  0  0  0  0  0
    7.3909  -12.9480   18.6393 C   0  0  0  0  0  0  0  0  0  0  0  0
    7.9404  -12.6338   20.0396 C   0  0  0  0  0  0  0  0  0  0  0  0
    8.4835  -13.9871   20.4062 C   0  0  1  0  0  0  0  0  0  0  0  0
    8.8788  -14.1444   21.8040 C   0  0  0  0  0  0  0  0  0  0  0  0
   10.0826  -14.1053   22.1142 O   0  0  0  0  0  0  0  0  0  0  0  0
    6.8198  -10.3162   26.9039 C   0  0  0  0  0  0  0  0  0  0  0  0
    6.9727  -12.1302   26.8189 S   0  0  0  0  0  0  0  0  0  0  0  0
    6.8023  -12.6115   25.0906 C   0  0  0  0  0  0  0  0  0  0  0  0
    6.9821  -14.1144   25.0122 C   0  0  0  0  0  0  0  0  0  0  0  0
    8.2362  -14.4247   24.2278 C   0  0  2  0  0  0  0  0  0  0  0  0
    7.8960  -14.3427   22.8111 N   0  0  0  0  0  0  0  0  0  0  0  0
    8.6513  -15.8074   24.5909 C   0  0  0  0  0  0  0  0  0  0  0  0
    7.8129  -16.7415   24.4081 O   0  0  0  0  0  0  0  0  0  0  0  0
   14.9967  -20.4759   21.8748 N   0  0  0  0  0  0  0  0  0  0  0  0
   14.7194  -21.1809   23.0996 C   0  0  0  0  0  0  0  0  0  0  0  0
   15.0909  -22.4052   23.2547 N   0  0  0  0  0  0  0  0  0  0  0  0
   14.0249  -20.5369   24.1568 N   0  0  0  0  0  0  0  0  0  0  0  0
   13.4359  -19.2347   23.9418 C   0  0  0  0  0  0  0  0  0  0  0  0
   12.0922  -19.1488   24.5869 C   0  0  0  0  0  0  0  0  0  0  0  0
   11.5686  -17.7471   24.5550 C   0  0  0  0  0  0  0  0  0  0  0  0
   10.2748  -17.5455   25.2614 C   0  0  2  0  0  0  0  0  0  0  0  0
    9.9069  -16.1264   25.1175 N   0  0  0  0  0  0  0  0  0  0  0  0
   10.3081  -17.9011   26.6948 C   0  0  0  0  0  0  0  0  0  0  0  0
   10.3829  -19.1939   27.1784 O   0  0  0  0  0  0  0  0  0  0  0  0
   10.2664  -16.9770   27.5471 O   0  0  0  0  0  0  0  0  0  0  0  0
  1  5  1  0
  2  3  1  0
  2  1  1  0
  3  4  1  0
  4  5  1  0
  5  6  1  1
  6  7  2  0
  9  8  1  0
 10  9  1  0
 11 10  1  0
 12 11  1  1
 12 14  1  0
 13  6  1  0
 13 12  1  0
 14 24  1  0
 14 15  2  0
 16 17  1  0
 17 19  1  0
 18 17  2  0
 19 20  1  0
 20 21  1  0
 21 22  1  0
 23 22  1  1
 23 25  1  0
 24 23  1  0
 25 27  2  0
 25 26  1  0
M  END
$$$$
