PMR.pdb
     RDKit          3D

 27 27  0  0  1  0  0  0  0  0999 V2000
    7.1244  -15.2078   20.5002 N   0  0  0  0  0  0  0  0  0  0  0  0
    6.9342  -14.9516   19.0839 C   0  0  0  0  0  0  0  0  0  0  0  0
    7.4815  -13.5562   18.8676 C   0  0  0  0  0  0  0  0  0  0  0  0
    8.1561  -13.1837   20.1971 C   0  0  0  0  0  0  0  0  0  0  0  0
    8.3828  -14.5600   20.7584 C   0  0  1  0  0  0  0  0  0  0  0  0
    8.7968  -14.6036   22.1590 C   0  0  0  0  0  0  0  0  0  0  0  0
    9.9930  -14.4369   22.4555 O   0  0  0  0  0  0  0  0  0  0  0  0
    6.5352  -10.3870   26.7180 C   0  0  0  0  0  0  0  0  0  0  0  0
    6.7749  -12.1858   26.8845 S   0  0  0  0  0  0  0  0  0  0  0  0
    6.7706  -12.8923   25.2266 C   0  0  0  0  0  0  0  0  0  0  0  0
    6.9582  -14.3900   25.3648 C   0  0  0  0  0  0  0  0  0  0  0  0
    8.1928  -14.8088   24.6002 C   0  0  2  0  0  0  0  0  0  0  0  0
    7.8406  -14.8363   23.1843 N   0  0  0  0  0  0  0  0  0  0  0  0
    8.5652  -16.1689   25.0771 C   0  0  0  0  0  0  0  0  0  0  0  0
    7.6671  -17.0646   25.0633 O   0  0  0  0  0  0  0  0  0  0  0  0
   14.7034  -18.1224   21.4539 N   0  0  0  0  0  0  0  0  0  0  0  0
   13.2921  -18.1448   21.1680 C   0  0  0  0  0  0  0  0  0  0  0  0
   12.7965  -17.4087   20.2332 N   0  0  0  0  0  0  0  0  0  0  0  0
   12.4211  -18.9773   21.9182 N   0  0  0  0  0  0  0  0  0  0  0  0
   12.4807  -18.9641   23.3623 C   0  0  0  0  0  0  0  0  0  0  0  0
   11.2093  -18.4359   23.9395 C   0  0  0  0  0  0  0  0  0  0  0  0
   11.2604  -18.4265   25.4352 C   0  0  0  0  0  0  0  0  0  0  0  0
   10.0604  -17.8498   26.0994 C   0  0  2  0  0  0  0  0  0  0  0  0
    9.8427  -16.5069   25.5344 N   0  0  0  0  0  0  0  0  0  0  0  0
   10.1728  -17.7518   27.5691 C   0  0  0  0  0  0  0  0  0  0  0  0
   10.2291  -18.8371   28.4232 O   0  0  0  0  0  0  0  0  0  0  0  0
   10.2219  -16.6107   28.0959 O   0  0  0  0  0  0  0  0  0  0  0  0
  1  5  1  0
  2  3  1  0
  2  1  1  0
  3  4  1  0
  4  5  1  0
  5  6  1  1
  6  7  2  0
  9  8  1  0
 10  9  1  0
 11 10  1  0
 12 11  1  1
 12 14  1  0
 13  6  1  0
 13 12  1  0
 14 24  1  0
 14 15  2  0
 16 17  1  0
 17 19  1  0
 18 17  2  0
 19 20  1  0
 20 21  1  0
 21 22  1  0
 23 22  1  6
 23 25  1  0
 24 23  1  0
 25 27  2  0
 25 26  1  0
M  END
$$$$
