PMR.pdb
     RDKit          3D

 27 27  0  0  1  0  0  0  0  0999 V2000
    7.1538  -15.0808   19.9570 N   0  0  0  0  0  0  0  0  0  0  0  0
    6.8989  -14.8707   18.5433 C   0  0  0  0  0  0  0  0  0  0  0  0
    7.4110  -13.4733   18.2627 C   0  0  0  0  0  0  0  0  0  0  0  0
    8.1348  -13.0496   19.5504 C   0  0  0  0  0  0  0  0  0  0  0  0
    8.4101  -14.4044   20.1416 C   0  0  1  0  0  0  0  0  0  0  0  0
    8.8841  -14.3988   21.5237 C   0  0  0  0  0  0  0  0  0  0  0  0
   10.1029  -14.3214   21.7590 O   0  0  0  0  0  0  0  0  0  0  0  0
    6.7380  -11.7641   28.4938 C   0  0  0  0  0  0  0  0  0  0  0  0
    6.2261  -12.2671   26.8187 S   0  0  0  0  0  0  0  0  0  0  0  0
    7.5921  -13.1843   26.0834 C   0  0  0  0  0  0  0  0  0  0  0  0
    7.1942  -13.5434   24.6656 C   0  0  0  0  0  0  0  0  0  0  0  0
    8.3522  -14.2361   23.9848 C   0  0  2  0  0  0  0  0  0  0  0  0
    7.9606  -14.4820   22.6007 N   0  0  0  0  0  0  0  0  0  0  0  0
    8.5811  -15.5194   24.7036 C   0  0  0  0  0  0  0  0  0  0  0  0
    7.6274  -16.3551   24.7357 O   0  0  0  0  0  0  0  0  0  0  0  0
   13.0671  -20.9575   22.3823 N   0  0  0  0  0  0  0  0  0  0  0  0
   12.9288  -19.7549   21.6022 C   0  0  0  0  0  0  0  0  0  0  0  0
   12.8602  -19.8069   20.3162 N   0  0  0  0  0  0  0  0  0  0  0  0
   12.8711  -18.4884   22.2402 N   0  0  0  0  0  0  0  0  0  0  0  0
   12.7123  -18.4127   23.6748 C   0  0  0  0  0  0  0  0  0  0  0  0
   11.3679  -17.8696   24.0304 C   0  0  0  0  0  0  0  0  0  0  0  0
   11.2084  -17.7566   25.5142 C   0  0  0  0  0  0  0  0  0  0  0  0
    9.9139  -17.1762   25.9627 C   0  0  2  0  0  0  0  0  0  0  0  0
    9.7829  -15.8482   25.3386 N   0  0  0  0  0  0  0  0  0  0  0  0
    9.7874  -17.0442   27.4286 C   0  0  0  0  0  0  0  0  0  0  0  0
    9.6016  -15.8463   28.0928 O   0  0  0  0  0  0  0  0  0  0  0  0
    9.8508  -18.0824   28.1358 O   0  0  0  0  0  0  0  0  0  0  0  0
  1  5  1  0
  2  3  1  0
  2  1  1  0
  3  4  1  0
  4  5  1  0
  5  6  1  1
  6  7  2  0
  9  8  1  0
 10  9  1  0
 11 10  1  0
 12 11  1  1
 12 14  1  0
 13  6  1  0
 13 12  1  0
 14 24  1  0
 14 15  2  0
 16 17  1  0
 17 19  1  0
 18 17  2  0
 19 20  1  0
 20 21  1  0
 21 22  1  0
 23 22  1  1
 23 25  1  0
 24 23  1  0
 25 27  2  0
 25 26  1  0
M  END
$$$$
