PMR.pdb
     RDKit          3D

 27 27  0  0  1  0  0  0  0  0999 V2000
    6.9763  -14.9603   20.5101 N   0  0  0  0  0  0  0  0  0  0  0  0
    6.7246  -14.7788   19.0918 C   0  0  0  0  0  0  0  0  0  0  0  0
    7.3488  -13.4400   18.7577 C   0  0  0  0  0  0  0  0  0  0  0  0
    8.1193  -13.0341   20.0239 C   0  0  0  0  0  0  0  0  0  0  0  0
    8.2867  -14.3858   20.6607 C   0  0  1  0  0  0  0  0  0  0  0  0
    8.7743  -14.3719   22.0380 C   0  0  0  0  0  0  0  0  0  0  0  0
    9.9893  -14.2302   22.2623 O   0  0  0  0  0  0  0  0  0  0  0  0
    6.4510  -11.7951   27.7922 C   0  0  0  0  0  0  0  0  0  0  0  0
    5.7555  -11.7674   26.1080 S   0  0  0  0  0  0  0  0  0  0  0  0
    6.9989  -12.4447   24.9932 C   0  0  0  0  0  0  0  0  0  0  0  0
    7.1672  -13.9129   25.3301 C   0  0  0  0  0  0  0  0  0  0  0  0
    8.3052  -14.4826   24.5147 C   0  0  2  0  0  0  0  0  0  0  0  0
    7.8684  -14.5204   23.1228 N   0  0  0  0  0  0  0  0  0  0  0  0
    8.5652  -15.8574   25.0229 C   0  0  0  0  0  0  0  0  0  0  0  0
    7.6352  -16.7127   24.9110 O   0  0  0  0  0  0  0  0  0  0  0  0
   14.3516  -16.1621   21.7212 N   0  0  0  0  0  0  0  0  0  0  0  0
   14.9740  -16.2670   23.0157 C   0  0  0  0  0  0  0  0  0  0  0  0
   16.2098  -15.9410   23.1819 N   0  0  0  0  0  0  0  0  0  0  0  0
   14.2342  -16.7383   24.1315 N   0  0  0  0  0  0  0  0  0  0  0  0
   12.8989  -17.2579   23.9412 C   0  0  0  0  0  0  0  0  0  0  0  0
   12.3430  -17.7720   25.2278 C   0  0  0  0  0  0  0  0  0  0  0  0
   10.9386  -18.2581   25.0511 C   0  0  0  0  0  0  0  0  0  0  0  0
    9.9474  -17.6640   25.9883 C   0  0  2  0  0  0  0  0  0  0  0  0
    9.7713  -16.2509   25.6110 N   0  0  0  0  0  0  0  0  0  0  0  0
   10.3368  -17.7474   27.4109 C   0  0  0  0  0  0  0  0  0  0  0  0
   10.6147  -16.6549   28.2109 O   0  0  0  0  0  0  0  0  0  0  0  0
   10.4263  -18.8818   27.9467 O   0  0  0  0  0  0  0  0  0  0  0  0
  1  5  1  0
  2  3  1  0
  2  1  1  0
  3  4  1  0
  4  5  1  0
  5  6  1  1
  6  7  2  0
  9  8  1  0
 10  9  1  0
 11 10  1  0
 12 11  1  1
 12 14  1  0
 13  6  1  0
 13 12  1  0
 14 24  1  0
 14 15  2  0
 16 17  1  0
 17 19  1  0
 18 17  2  0
 19 20  1  0
 20 21  1  0
 21 22  1  0
 23 22  1  6
 23 25  1  0
 24 23  1  0
 25 27  2  0
 25 26  1  0
M  END
$$$$
