PMR.pdb
     RDKit          3D

 27 27  0  0  1  0  0  0  0  0999 V2000
    7.3431  -15.0971   19.7638 N   0  0  0  0  0  0  0  0  0  0  0  0
    7.1906  -14.8671   18.3385 C   0  0  0  0  0  0  0  0  0  0  0  0
    7.5002  -13.3967   18.1499 C   0  0  0  0  0  0  0  0  0  0  0  0
    8.0256  -12.9234   19.5143 C   0  0  0  0  0  0  0  0  0  0  0  0
    8.4547  -14.2441   20.0906 C   0  0  1  0  0  0  0  0  0  0  0  0
    8.7915  -14.2261   21.5123 C   0  0  0  0  0  0  0  0  0  0  0  0
    9.9794  -14.1202   21.8649 O   0  0  0  0  0  0  0  0  0  0  0  0
    6.0461  -10.7670   26.7121 C   0  0  0  0  0  0  0  0  0  0  0  0
    5.5927  -12.5321   26.7085 S   0  0  0  0  0  0  0  0  0  0  0  0
    6.9904  -13.4529   26.0406 C   0  0  0  0  0  0  0  0  0  0  0  0
    6.7889  -13.5719   24.5431 C   0  0  0  0  0  0  0  0  0  0  0  0
    8.0359  -14.1546   23.9186 C   0  0  2  0  0  0  0  0  0  0  0  0
    7.7696  -14.3296   22.4945 N   0  0  0  0  0  0  0  0  0  0  0  0
    8.2833  -15.4682   24.5737 C   0  0  0  0  0  0  0  0  0  0  0  0
    7.4220  -16.3835   24.4027 O   0  0  0  0  0  0  0  0  0  0  0  0
   12.9484  -20.3567   20.7582 N   0  0  0  0  0  0  0  0  0  0  0  0
   13.0728  -21.0560   22.0110 C   0  0  0  0  0  0  0  0  0  0  0  0
   13.6183  -22.2226   22.0641 N   0  0  0  0  0  0  0  0  0  0  0  0
   12.5897  -20.4709   23.2104 N   0  0  0  0  0  0  0  0  0  0  0  0
   11.8909  -19.2065   23.1629 C   0  0  0  0  0  0  0  0  0  0  0  0
   11.4785  -18.7782   24.5322 C   0  0  0  0  0  0  0  0  0  0  0  0
   10.9124  -17.3929   24.5150 C   0  0  0  0  0  0  0  0  0  0  0  0
    9.8386  -17.1425   25.5141 C   0  0  2  0  0  0  0  0  0  0  0  0
    9.4067  -15.7425   25.3600 N   0  0  0  0  0  0  0  0  0  0  0  0
   10.2494  -17.3783   26.9133 C   0  0  0  0  0  0  0  0  0  0  0  0
   10.3399  -18.6256   27.5021 O   0  0  0  0  0  0  0  0  0  0  0  0
   10.5401  -16.3879   27.6321 O   0  0  0  0  0  0  0  0  0  0  0  0
  1  5  1  0
  2  3  1  0
  2  1  1  0
  3  4  1  0
  4  5  1  0
  5  6  1  1
  6  7  2  0
  9  8  1  0
 10  9  1  0
 11 10  1  0
 12 11  1  1
 12 14  1  0
 13  6  1  0
 13 12  1  0
 14 24  1  0
 14 15  2  0
 16 17  1  0
 17 19  1  0
 18 17  2  0
 19 20  1  0
 20 21  1  0
 21 22  1  0
 23 22  1  6
 23 25  1  0
 24 23  1  0
 25 27  2  0
 25 26  1  0
M  END
$$$$
