PMR.pdb
     RDKit          3D

 27 27  0  0  1  0  0  0  0  0999 V2000
    7.3844  -15.2022   20.0525 N   0  0  0  0  0  0  0  0  0  0  0  0
    7.2798  -14.9534   18.6260 C   0  0  0  0  0  0  0  0  0  0  0  0
    7.5131  -13.4645   18.4762 C   0  0  0  0  0  0  0  0  0  0  0  0
    7.9522  -12.9891   19.8700 C   0  0  0  0  0  0  0  0  0  0  0  0
    8.4308  -14.2948   20.4419 C   0  0  1  0  0  0  0  0  0  0  0  0
    8.7052  -14.2855   21.8770 C   0  0  0  0  0  0  0  0  0  0  0  0
    9.8701  -14.1266   22.2826 O   0  0  0  0  0  0  0  0  0  0  0  0
    6.1437  -11.3306   27.0089 C   0  0  0  0  0  0  0  0  0  0  0  0
    7.4508  -12.5973   26.9184 S   0  0  0  0  0  0  0  0  0  0  0  0
    6.6785  -14.1421   26.4037 C   0  0  0  0  0  0  0  0  0  0  0  0
    6.5264  -14.1000   24.8963 C   0  0  0  0  0  0  0  0  0  0  0  0
    7.8639  -14.3868   24.2536 C   0  0  2  0  0  0  0  0  0  0  0  0
    7.6489  -14.4579   22.8120 N   0  0  0  0  0  0  0  0  0  0  0  0
    8.3335  -15.6971   24.7815 C   0  0  0  0  0  0  0  0  0  0  0  0
    7.5285  -16.6760   24.7298 O   0  0  0  0  0  0  0  0  0  0  0  0
   10.6386  -20.5652   20.7538 N   0  0  0  0  0  0  0  0  0  0  0  0
   11.0834  -19.1982   20.8405 C   0  0  0  0  0  0  0  0  0  0  0  0
   10.4529  -18.2588   20.2233 N   0  0  0  0  0  0  0  0  0  0  0  0
   12.2312  -18.8643   21.6059 N   0  0  0  0  0  0  0  0  0  0  0  0
   12.1265  -17.8955   22.6734 C   0  0  0  0  0  0  0  0  0  0  0  0
   11.2415  -18.4028   23.7634 C   0  0  0  0  0  0  0  0  0  0  0  0
   11.3215  -17.5258   24.9735 C   0  0  0  0  0  0  0  0  0  0  0  0
   10.0218  -17.2768   25.6537 C   0  0  2  0  0  0  0  0  0  0  0  0
    9.6052  -15.9024   25.3257 N   0  0  0  0  0  0  0  0  0  0  0  0
   10.0681  -17.4387   27.1213 C   0  0  0  0  0  0  0  0  0  0  0  0
    9.8205  -18.6255   27.7853 O   0  0  0  0  0  0  0  0  0  0  0  0
   10.3504  -16.4389   27.8302 O   0  0  0  0  0  0  0  0  0  0  0  0
  1  5  1  0
  2  3  1  0
  2  1  1  0
  3  4  1  0
  4  5  1  0
  5  6  1  1
  6  7  2  0
  9  8  1  0
 10  9  1  0
 11 10  1  0
 12 11  1  1
 12 14  1  0
 13  6  1  0
 13 12  1  0
 14 24  1  0
 14 15  2  0
 16 17  1  0
 17 19  1  0
 18 17  2  0
 19 20  1  0
 20 21  1  0
 21 22  1  0
 23 22  1  1
 23 25  1  0
 24 23  1  0
 25 27  2  0
 25 26  1  0
M  END
$$$$
