PMR.pdb
     RDKit          3D

 27 27  0  0  1  0  0  0  0  0999 V2000
    7.2135  -14.9291   19.6263 N   0  0  0  0  0  0  0  0  0  0  0  0
    7.0410  -14.6552   18.2110 C   0  0  0  0  0  0  0  0  0  0  0  0
    7.3054  -13.1706   18.0706 C   0  0  0  0  0  0  0  0  0  0  0  0
    7.8293  -12.7287   19.4461 C   0  0  0  0  0  0  0  0  0  0  0  0
    8.3025  -14.0551   19.9730 C   0  0  1  0  0  0  0  0  0  0  0  0
    8.6518  -14.0756   21.3916 C   0  0  0  0  0  0  0  0  0  0  0  0
    9.8464  -14.0304   21.7347 O   0  0  0  0  0  0  0  0  0  0  0  0
    6.8753  -11.5735   28.2830 C   0  0  0  0  0  0  0  0  0  0  0  0
    6.5062  -11.6796   26.5016 S   0  0  0  0  0  0  0  0  0  0  0  0
    6.9165  -13.3481   25.9580 C   0  0  0  0  0  0  0  0  0  0  0  0
    6.7015  -13.4089   24.4589 C   0  0  0  0  0  0  0  0  0  0  0  0
    7.9220  -14.0162   23.8061 C   0  0  2  0  0  0  0  0  0  0  0  0
    7.6347  -14.1478   22.3814 N   0  0  0  0  0  0  0  0  0  0  0  0
    8.1336  -15.3527   24.4266 C   0  0  0  0  0  0  0  0  0  0  0  0
    7.2133  -16.2157   24.2952 O   0  0  0  0  0  0  0  0  0  0  0  0
   14.9354  -19.9990   24.1032 N   0  0  0  0  0  0  0  0  0  0  0  0
   14.0949  -20.5826   23.0898 C   0  0  0  0  0  0  0  0  0  0  0  0
   14.5991  -21.3095   22.1525 N   0  0  0  0  0  0  0  0  0  0  0  0
   12.6931  -20.3605   23.1050 N   0  0  0  0  0  0  0  0  0  0  0  0
   12.1790  -19.0097   23.0930 C   0  0  0  0  0  0  0  0  0  0  0  0
   11.2241  -18.7970   24.2207 C   0  0  0  0  0  0  0  0  0  0  0  0
   10.6635  -17.4096   24.1966 C   0  0  0  0  0  0  0  0  0  0  0  0
    9.6468  -17.1265   25.2454 C   0  0  2  0  0  0  0  0  0  0  0  0
    9.2846  -15.7025   25.1396 N   0  0  0  0  0  0  0  0  0  0  0  0
   10.1015  -17.4165   26.6206 C   0  0  0  0  0  0  0  0  0  0  0  0
   10.1113  -16.4957   27.6515 O   0  0  0  0  0  0  0  0  0  0  0  0
   10.5110  -18.5750   26.8893 O   0  0  0  0  0  0  0  0  0  0  0  0
  1  5  1  0
  2  3  1  0
  2  1  1  0
  3  4  1  0
  4  5  1  0
  5  6  1  1
  6  7  2  0
  9  8  1  0
 10  9  1  0
 11 10  1  0
 12 11  1  1
 12 14  1  0
 13  6  1  0
 13 12  1  0
 14 24  1  0
 14 15  2  0
 16 17  1  0
 17 19  1  0
 18 17  2  0
 19 20  1  0
 20 21  1  0
 21 22  1  0
 23 22  1  6
 23 25  1  0
 24 23  1  0
 25 27  2  0
 25 26  1  0
M  END
$$$$
