PMR.pdb
     RDKit          3D

 27 27  0  0  1  0  0  0  0  0999 V2000
    7.0230  -14.6215   19.7718 N   0  0  0  0  0  0  0  0  0  0  0  0
    6.7778  -14.3997   18.3581 C   0  0  0  0  0  0  0  0  0  0  0  0
    7.4751  -13.0920   18.0463 C   0  0  0  0  0  0  0  0  0  0  0  0
    8.2709  -12.7536   19.3167 C   0  0  0  0  0  0  0  0  0  0  0  0
    8.3640  -14.1242   19.9278 C   0  0  1  0  0  0  0  0  0  0  0  0
    8.8557  -14.1634   21.3032 C   0  0  0  0  0  0  0  0  0  0  0  0
   10.0757  -14.0721   21.5264 O   0  0  0  0  0  0  0  0  0  0  0  0
    6.8317  -11.9197   28.4244 C   0  0  0  0  0  0  0  0  0  0  0  0
    6.2699  -12.3569   26.7468 S   0  0  0  0  0  0  0  0  0  0  0  0
    7.5676  -13.3419   25.9765 C   0  0  0  0  0  0  0  0  0  0  0  0
    7.1755  -13.5679   24.5299 C   0  0  0  0  0  0  0  0  0  0  0  0
    8.3585  -14.1313   23.7766 C   0  0  2  0  0  0  0  0  0  0  0  0
    7.9479  -14.3060   22.3872 N   0  0  0  0  0  0  0  0  0  0  0  0
    8.6906  -15.4432   24.3968 C   0  0  0  0  0  0  0  0  0  0  0  0
    7.7967  -16.3430   24.3865 O   0  0  0  0  0  0  0  0  0  0  0  0
   16.3397  -19.7247   24.3824 N   0  0  0  0  0  0  0  0  0  0  0  0
   15.3054  -20.5426   23.8034 C   0  0  0  0  0  0  0  0  0  0  0  0
   15.6012  -21.5382   23.0403 N   0  0  0  0  0  0  0  0  0  0  0  0
   13.9385  -20.2600   24.0613 N   0  0  0  0  0  0  0  0  0  0  0  0
   13.4593  -18.8985   23.9864 C   0  0  0  0  0  0  0  0  0  0  0  0
   12.1491  -18.7594   24.6885 C   0  0  0  0  0  0  0  0  0  0  0  0
   11.6148  -17.3674   24.5598 C   0  0  0  0  0  0  0  0  0  0  0  0
   10.2934  -17.1415   25.2053 C   0  0  2  0  0  0  0  0  0  0  0  0
    9.9265  -15.7320   24.9841 N   0  0  0  0  0  0  0  0  0  0  0  0
   10.2715  -17.4329   26.6533 C   0  0  0  0  0  0  0  0  0  0  0  0
   10.0506  -16.4882   27.6379 O   0  0  0  0  0  0  0  0  0  0  0  0
   10.4652  -18.6160   27.0340 O   0  0  0  0  0  0  0  0  0  0  0  0
  1  5  1  0
  2  3  1  0
  2  1  1  0
  3  4  1  0
  4  5  1  0
  5  6  1  1
  6  7  2  0
  9  8  1  0
 10  9  1  0
 11 10  1  0
 12 11  1  1
 12 14  1  0
 13  6  1  0
 13 12  1  0
 14 24  1  0
 14 15  2  0
 16 17  1  0
 17 19  1  0
 18 17  2  0
 19 20  1  0
 20 21  1  0
 21 22  1  0
 23 22  1  1
 23 25  1  0
 24 23  1  0
 25 27  2  0
 25 26  1  0
M  END
$$$$
