PMR.pdb
     RDKit          3D

 27 27  0  0  1  0  0  0  0  0999 V2000
    6.8195  -14.7551   19.9637 N   0  0  0  0  0  0  0  0  0  0  0  0
    6.5742  -14.5171   18.5527 C   0  0  0  0  0  0  0  0  0  0  0  0
    7.1998  -13.1661   18.2752 C   0  0  0  0  0  0  0  0  0  0  0  0
    7.9646  -12.8111   19.5599 C   0  0  0  0  0  0  0  0  0  0  0  0
    8.1292  -14.1872   20.1430 C   0  0  1  0  0  0  0  0  0  0  0  0
    8.6107  -14.2284   21.5220 C   0  0  0  0  0  0  0  0  0  0  0  0
    9.8206  -14.0658   21.7594 O   0  0  0  0  0  0  0  0  0  0  0  0
    6.6963  -11.0842   26.9614 C   0  0  0  0  0  0  0  0  0  0  0  0
    6.0731  -12.7936   27.0637 S   0  0  0  0  0  0  0  0  0  0  0  0
    7.2792  -13.8629   26.2576 C   0  0  0  0  0  0  0  0  0  0  0  0
    6.8990  -13.9628   24.7938 C   0  0  0  0  0  0  0  0  0  0  0  0
    8.1135  -14.3700   23.9916 C   0  0  2  0  0  0  0  0  0  0  0  0
    7.7046  -14.4540   22.5933 N   0  0  0  0  0  0  0  0  0  0  0  0
    8.5466  -15.7023   24.4948 C   0  0  0  0  0  0  0  0  0  0  0  0
    7.7448  -16.6749   24.3530 O   0  0  0  0  0  0  0  0  0  0  0  0
   16.0201  -19.6411   23.2479 N   0  0  0  0  0  0  0  0  0  0  0  0
   15.3094  -20.6102   24.0415 C   0  0  0  0  0  0  0  0  0  0  0  0
   15.7836  -21.7959   24.2155 N   0  0  0  0  0  0  0  0  0  0  0  0
   14.0680  -20.2743   24.6420 N   0  0  0  0  0  0  0  0  0  0  0  0
   13.5086  -18.9558   24.4474 C   0  0  0  0  0  0  0  0  0  0  0  0
   12.1203  -18.8845   24.9917 C   0  0  0  0  0  0  0  0  0  0  0  0
   11.5177  -17.5353   24.7540 C   0  0  0  0  0  0  0  0  0  0  0  0
   10.1858  -17.3245   25.3826 C   0  0  2  0  0  0  0  0  0  0  0  0
    9.7810  -15.9347   25.1095 N   0  0  0  0  0  0  0  0  0  0  0  0
   10.1613  -17.5656   26.8398 C   0  0  0  0  0  0  0  0  0  0  0  0
    9.8518  -16.6067   27.7860 O   0  0  0  0  0  0  0  0  0  0  0  0
   10.4385  -18.7161   27.2660 O   0  0  0  0  0  0  0  0  0  0  0  0
  1  5  1  0
  2  3  1  0
  2  1  1  0
  3  4  1  0
  4  5  1  0
  5  6  1  1
  6  7  2  0
  9  8  1  0
 10  9  1  0
 11 10  1  0
 12 11  1  1
 12 14  1  0
 13  6  1  0
 13 12  1  0
 14 24  1  0
 14 15  2  0
 16 17  1  0
 17 19  1  0
 18 17  2  0
 19 20  1  0
 20 21  1  0
 21 22  1  0
 23 22  1  1
 23 25  1  0
 24 23  1  0
 25 27  2  0
 25 26  1  0
M  END
$$$$
