HWW.pdb
     RDKit          3D

 39 43  0  0  1  0  0  0  0  0999 V2000
   28.4101  -23.8680  -16.6464 N   0  0  0  0  0  0  0  0  0  0  0  0
   27.8436  -22.5386  -16.5523 C   0  0  1  0  0  0  0  0  0  0  0  0
   27.3336  -22.2092  -17.9375 C   0  0  0  0  0  0  0  0  0  0  0  0
   28.4824  -21.8319  -18.7972 C   0  0  0  0  0  0  0  0  0  0  0  0
   29.1459  -20.6213  -18.8599 C   0  0  0  0  0  0  0  0  0  0  0  0
   30.1292  -20.6795  -19.7744 N   0  0  0  0  0  0  0  0  0  0  0  0
   30.0929  -21.9167  -20.2906 C   0  0  0  0  0  0  0  0  0  0  0  0
   29.0912  -22.6293  -19.7010 N   0  0  0  0  0  0  0  0  0  0  0  0
   26.7998  -22.4367  -15.5137 C   0  0  0  0  0  0  0  0  0  0  0  0
   26.1669  -23.4764  -15.1961 O   0  0  0  0  0  0  0  0  0  0  0  0
   26.4585  -21.2431  -14.8442 N   0  0  0  0  0  0  0  0  0  0  0  0
   25.5608  -21.1442  -13.7070 C   0  0  1  0  0  0  0  0  0  0  0  0
   25.9547  -20.1063  -12.7135 C   0  0  0  0  0  0  0  0  0  0  0  0
   26.4156  -20.6344  -11.4114 C   0  0  0  0  0  0  0  0  0  0  0  0
   25.7093  -20.8895  -10.2715 C   0  0  0  0  0  0  0  0  0  0  0  0
   26.5492  -21.3518   -9.3474 N   0  0  0  0  0  0  0  0  0  0  0  0
   27.7995  -21.4170   -9.8239 C   0  0  0  0  0  0  0  0  0  0  0  0
   28.9983  -21.8191   -9.2641 C   0  0  0  0  0  0  0  0  0  0  0  0
   30.1625  -21.7800   -9.9993 C   0  0  0  0  0  0  0  0  0  0  0  0
   30.0886  -21.3329  -11.2919 C   0  0  0  0  0  0  0  0  0  0  0  0
   28.8933  -20.9268  -11.8642 C   0  0  0  0  0  0  0  0  0  0  0  0
   27.7434  -20.9719  -11.1177 C   0  0  0  0  0  0  0  0  0  0  0  0
   24.2383  -20.7308  -14.3263 C   0  0  0  0  0  0  0  0  0  0  0  0
   24.2193  -19.7953  -15.2012 O   0  0  0  0  0  0  0  0  0  0  0  0
   23.0174  -21.3312  -13.9864 N   0  0  0  0  0  0  0  0  0  0  0  0
   21.7683  -20.8166  -14.5361 C   0  0  1  0  0  0  0  0  0  0  0  0
   20.9220  -21.9151  -15.0705 C   0  0  0  0  0  0  0  0  0  0  0  0
   20.4109  -22.7948  -14.0196 C   0  0  0  0  0  0  0  0  0  0  0  0
   19.3304  -22.4833  -13.1812 C   0  0  0  0  0  0  0  0  0  0  0  0
   19.1283  -23.4608  -12.2943 N   0  0  0  0  0  0  0  0  0  0  0  0
   20.0525  -24.4284  -12.5198 C   0  0  0  0  0  0  0  0  0  0  0  0
   20.2331  -25.6301  -11.8791 C   0  0  0  0  0  0  0  0  0  0  0  0
   21.2418  -26.4742  -12.3066 C   0  0  0  0  0  0  0  0  0  0  0  0
   22.0297  -26.0807  -13.3585 C   0  0  0  0  0  0  0  0  0  0  0  0
   21.8518  -24.8843  -13.9968 C   0  0  0  0  0  0  0  0  0  0  0  0
   20.8386  -24.0230  -13.5757 C   0  0  0  0  0  0  0  0  0  0  0  0
   21.1243  -19.8960  -13.6159 C   0  0  0  0  0  0  0  0  0  0  0  0
   20.1221  -19.0330  -14.0847 O   0  0  0  0  0  0  0  0  0  0  0  0
   21.4096  -19.8183  -12.4072 O   0  0  0  0  0  0  0  0  0  0  0  0
  2  9  1  0
  2  1  1  6
  2  3  1  0
  3  4  1  0
  4  8  1  0
  4  5  2  0
  5  6  1  0
  7  6  1  0
  8  7  2  0
  9 10  2  0
 11 12  1  0
 11  9  1  0
 12 23  1  0
 12 13  1  1
 14 13  1  0
 14 22  1  0
 15 16  1  0
 15 14  2  0
 16 17  1  0
 17 18  2  0
 17 22  1  0
 18 19  1  0
 19 20  2  0
 21 20  1  0
 22 21  2  0
 23 25  1  0
 23 24  2  0
 25 26  1  0
 26 37  1  0
 26 27  1  1
 27 28  1  0
 28 36  1  0
 29 30  1  0
 29 28  2  0
 30 31  1  0
 31 36  2  0
 31 32  1  0
 32 33  2  0
 33 34  1  0
 35 34  2  0
 36 35  1  0
 37 38  1  0
 39 37  2  0
M  END
$$$$
