HWW.pdb
     RDKit          3D

 39 43  0  0  1  0  0  0  0  0999 V2000
   24.6508  -20.6843  -13.6399 N   0  0  0  0  0  0  0  0  0  0  0  0
   23.8370  -20.1559  -12.5648 C   0  0  1  0  0  0  0  0  0  0  0  0
   22.4313  -20.0699  -13.1163 C   0  0  0  0  0  0  0  0  0  0  0  0
   22.3973  -19.0499  -14.1930 C   0  0  0  0  0  0  0  0  0  0  0  0
   21.9572  -17.7419  -14.1220 C   0  0  0  0  0  0  0  0  0  0  0  0
   22.0833  -17.1457  -15.3200 N   0  0  0  0  0  0  0  0  0  0  0  0
   22.5993  -18.0658  -16.1480 C   0  0  0  0  0  0  0  0  0  0  0  0
   22.7954  -19.2325  -15.4704 N   0  0  0  0  0  0  0  0  0  0  0  0
   23.9253  -20.9649  -11.3335 C   0  0  0  0  0  0  0  0  0  0  0  0
   23.8385  -22.2161  -11.4309 O   0  0  0  0  0  0  0  0  0  0  0  0
   24.1030  -20.4286  -10.0411 N   0  0  0  0  0  0  0  0  0  0  0  0
   24.1287  -21.1962   -8.8086 C   0  0  1  0  0  0  0  0  0  0  0  0
   25.0685  -20.6629   -7.7830 C   0  0  0  0  0  0  0  0  0  0  0  0
   26.5010  -20.8795   -8.0789 C   0  0  0  0  0  0  0  0  0  0  0  0
   27.0888  -21.5624   -9.1043 C   0  0  0  0  0  0  0  0  0  0  0  0
   28.4103  -21.4944   -8.9558 N   0  0  0  0  0  0  0  0  0  0  0  0
   28.7357  -20.7893   -7.8643 C   0  0  0  0  0  0  0  0  0  0  0  0
   29.9480  -20.4465   -7.2943 C   0  0  0  0  0  0  0  0  0  0  0  0
   29.9918  -19.6961   -6.1400 C   0  0  0  0  0  0  0  0  0  0  0  0
   28.8020  -19.3064   -5.5842 C   0  0  0  0  0  0  0  0  0  0  0  0
   27.5806  -19.6439   -6.1457 C   0  0  0  0  0  0  0  0  0  0  0  0
   27.5552  -20.3919   -7.2952 C   0  0  0  0  0  0  0  0  0  0  0  0
   22.7153  -21.0638   -8.2717 C   0  0  0  0  0  0  0  0  0  0  0  0
   22.1008  -19.9459   -8.3885 O   0  0  0  0  0  0  0  0  0  0  0  0
   22.0360  -22.1196   -7.6468 N   0  0  0  0  0  0  0  0  0  0  0  0
   20.6613  -21.9415   -7.1933 C   0  0  1  0  0  0  0  0  0  0  0  0
   19.8213  -21.3216   -8.2509 C   0  0  0  0  0  0  0  0  0  0  0  0
   19.5826  -22.2205   -9.3799 C   0  0  0  0  0  0  0  0  0  0  0  0
   19.6148  -23.6205   -9.2988 C   0  0  0  0  0  0  0  0  0  0  0  0
   19.4038  -24.1645  -10.4999 N   0  0  0  0  0  0  0  0  0  0  0  0
   19.2279  -23.1564  -11.3911 C   0  0  0  0  0  0  0  0  0  0  0  0
   18.9654  -23.2174  -12.7381 C   0  0  0  0  0  0  0  0  0  0  0  0
   18.8002  -22.0397  -13.4441 C   0  0  0  0  0  0  0  0  0  0  0  0
   18.9051  -20.8479  -12.7727 C   0  0  0  0  0  0  0  0  0  0  0  0
   19.1674  -20.7855  -11.4320 C   0  0  0  0  0  0  0  0  0  0  0  0
   19.3367  -21.9656  -10.7076 C   0  0  0  0  0  0  0  0  0  0  0  0
   20.1425  -23.1546   -6.5865 C   0  0  0  0  0  0  0  0  0  0  0  0
   18.8760  -23.1421   -5.9823 O   0  0  0  0  0  0  0  0  0  0  0  0
   20.7625  -24.2333   -6.5649 O   0  0  0  0  0  0  0  0  0  0  0  0
  2  9  1  0
  2  1  1  6
  2  3  1  0
  3  4  1  0
  4  8  1  0
  4  5  2  0
  5  6  1  0
  7  6  1  0
  8  7  2  0
  9 10  2  0
 11 12  1  0
 11  9  1  0
 12 23  1  0
 12 13  1  1
 14 13  1  0
 14 22  1  0
 15 16  1  0
 15 14  2  0
 16 17  1  0
 17 18  2  0
 17 22  1  0
 18 19  1  0
 19 20  2  0
 21 20  1  0
 22 21  2  0
 23 25  1  0
 23 24  2  0
 25 26  1  0
 26 37  1  0
 26 27  1  6
 27 28  1  0
 28 36  1  0
 29 30  1  0
 29 28  2  0
 30 31  1  0
 31 36  2  0
 31 32  1  0
 32 33  2  0
 33 34  1  0
 35 34  2  0
 36 35  1  0
 37 38  1  0
 39 37  2  0
M  END
$$$$
