HWW.pdb
     RDKit          3D

 39 43  0  0  1  0  0  0  0  0999 V2000
   25.6248  -19.6162  -18.7624 N   0  0  0  0  0  0  0  0  0  0  0  0
   24.3113  -19.3471  -18.2153 C   0  0  1  0  0  0  0  0  0  0  0  0
   23.3289  -19.9969  -19.1640 C   0  0  0  0  0  0  0  0  0  0  0  0
   23.2243  -19.1696  -20.3911 C   0  0  0  0  0  0  0  0  0  0  0  0
   23.4725  -19.5398  -21.6991 C   0  0  0  0  0  0  0  0  0  0  0  0
   23.2707  -18.4961  -22.5215 N   0  0  0  0  0  0  0  0  0  0  0  0
   22.8971  -17.4689  -21.7445 C   0  0  0  0  0  0  0  0  0  0  0  0
   22.8650  -17.8689  -20.4415 N   0  0  0  0  0  0  0  0  0  0  0  0
   24.1669  -19.8174  -16.8237 C   0  0  0  0  0  0  0  0  0  0  0  0
   24.6328  -20.9461  -16.5212 O   0  0  0  0  0  0  0  0  0  0  0  0
   23.5372  -19.0825  -15.7976 N   0  0  0  0  0  0  0  0  0  0  0  0
   23.3945  -19.5161  -14.4191 C   0  0  1  0  0  0  0  0  0  0  0  0
   24.1690  -18.6981  -13.4440 C   0  0  0  0  0  0  0  0  0  0  0  0
   25.6348  -18.7220  -13.6374 C   0  0  0  0  0  0  0  0  0  0  0  0
   26.4269  -17.9315  -14.4190 C   0  0  0  0  0  0  0  0  0  0  0  0
   27.6905  -18.3278  -14.2790 N   0  0  0  0  0  0  0  0  0  0  0  0
   27.7790  -19.3600  -13.4297 C   0  0  0  0  0  0  0  0  0  0  0  0
   28.8467  -20.1082  -12.9687 C   0  0  0  0  0  0  0  0  0  0  0  0
   28.6462  -21.1398  -12.0783 C   0  0  0  0  0  0  0  0  0  0  0  0
   27.3633  -21.3936  -11.6708 C   0  0  0  0  0  0  0  0  0  0  0  0
   26.2850  -20.6512  -12.1258 C   0  0  0  0  0  0  0  0  0  0  0  0
   26.5024  -19.6276  -13.0126 C   0  0  0  0  0  0  0  0  0  0  0  0
   21.9167  -19.3240  -14.1316 C   0  0  0  0  0  0  0  0  0  0  0  0
   21.4909  -18.1700  -13.7741 O   0  0  0  0  0  0  0  0  0  0  0  0
   20.9784  -20.3605  -14.2414 N   0  0  0  0  0  0  0  0  0  0  0  0
   19.7096  -20.1325  -14.9235 C   0  0  1  0  0  0  0  0  0  0  0  0
   19.9019  -19.3473  -16.1705 C   0  0  0  0  0  0  0  0  0  0  0  0
   18.6457  -19.0926  -16.8753 C   0  0  0  0  0  0  0  0  0  0  0  0
   17.6756  -18.1695  -16.4576 C   0  0  0  0  0  0  0  0  0  0  0  0
   16.6221  -18.1933  -17.2777 N   0  0  0  0  0  0  0  0  0  0  0  0
   16.8640  -19.1155  -18.2434 C   0  0  0  0  0  0  0  0  0  0  0  0
   16.0867  -19.4825  -19.3149 C   0  0  0  0  0  0  0  0  0  0  0  0
   16.5601  -20.4427  -20.1904 C   0  0  0  0  0  0  0  0  0  0  0  0
   17.7929  -20.9975  -19.9572 C   0  0  0  0  0  0  0  0  0  0  0  0
   18.5675  -20.6340  -18.8903 C   0  0  0  0  0  0  0  0  0  0  0  0
   18.1022  -19.6670  -17.9991 C   0  0  0  0  0  0  0  0  0  0  0  0
   18.9465  -21.3619  -15.0471 C   0  0  0  0  0  0  0  0  0  0  0  0
   19.5220  -22.4762  -15.6765 O   0  0  0  0  0  0  0  0  0  0  0  0
   17.7849  -21.4972  -14.6217 O   0  0  0  0  0  0  0  0  0  0  0  0
  2  9  1  0
  2  1  1  6
  2  3  1  0
  3  4  1  0
  4  8  1  0
  4  5  2  0
  5  6  1  0
  7  6  1  0
  8  7  2  0
  9 10  2  0
 11 12  1  0
 11  9  1  0
 12 23  1  0
 12 13  1  1
 14 13  1  0
 14 22  1  0
 15 16  1  0
 15 14  2  0
 16 17  1  0
 17 18  2  0
 17 22  1  0
 18 19  1  0
 19 20  2  0
 21 20  1  0
 22 21  2  0
 23 25  1  0
 23 24  2  0
 25 26  1  0
 26 37  1  0
 26 27  1  6
 27 28  1  0
 28 36  1  0
 29 30  1  0
 29 28  2  0
 30 31  1  0
 31 36  2  0
 31 32  1  0
 32 33  2  0
 33 34  1  0
 35 34  2  0
 36 35  1  0
 37 38  1  0
 39 37  2  0
M  END
$$$$
