HWW.pdb
     RDKit          3D

 39 43  0  0  1  0  0  0  0  0999 V2000
   25.1899  -23.6234  -16.6132 N   0  0  0  0  0  0  0  0  0  0  0  0
   24.6446  -23.4785  -15.2796 C   0  0  1  0  0  0  0  0  0  0  0  0
   24.2764  -24.8752  -14.8311 C   0  0  0  0  0  0  0  0  0  0  0  0
   23.1058  -25.3405  -15.6148 C   0  0  0  0  0  0  0  0  0  0  0  0
   21.7648  -25.1115  -15.3717 C   0  0  0  0  0  0  0  0  0  0  0  0
   21.0151  -25.7123  -16.3116 N   0  0  0  0  0  0  0  0  0  0  0  0
   21.8708  -26.3193  -17.1471 C   0  0  0  0  0  0  0  0  0  0  0  0
   23.1503  -26.0987  -16.7313 N   0  0  0  0  0  0  0  0  0  0  0  0
   25.5746  -22.8018  -14.3546 C   0  0  0  0  0  0  0  0  0  0  0  0
   26.7237  -23.2889  -14.1974 O   0  0  0  0  0  0  0  0  0  0  0  0
   25.2630  -21.6344  -13.6270 N   0  0  0  0  0  0  0  0  0  0  0  0
   26.1383  -20.9818  -12.6695 C   0  0  1  0  0  0  0  0  0  0  0  0
   26.0110  -19.4976  -12.6467 C   0  0  0  0  0  0  0  0  0  0  0  0
   26.3069  -18.8278  -13.9314 C   0  0  0  0  0  0  0  0  0  0  0  0
   25.4886  -18.1027  -14.7486 C   0  0  0  0  0  0  0  0  0  0  0  0
   26.1935  -17.6990  -15.8038 N   0  0  0  0  0  0  0  0  0  0  0  0
   27.4604  -18.1274  -15.7277 C   0  0  0  0  0  0  0  0  0  0  0  0
   28.5549  -17.9753  -16.5590 C   0  0  0  0  0  0  0  0  0  0  0  0
   29.7683  -18.5378  -16.2293 C   0  0  0  0  0  0  0  0  0  0  0  0
   29.8489  -19.2457  -15.0593 C   0  0  0  0  0  0  0  0  0  0  0  0
   28.7592  -19.4056  -14.2180 C   0  0  0  0  0  0  0  0  0  0  0  0
   27.5582  -18.8390  -14.5618 C   0  0  0  0  0  0  0  0  0  0  0  0
   25.6709  -21.5189  -11.3291 C   0  0  0  0  0  0  0  0  0  0  0  0
   24.9775  -22.5953  -11.2906 O   0  0  0  0  0  0  0  0  0  0  0  0
   25.9658  -20.8887  -10.1115 N   0  0  0  0  0  0  0  0  0  0  0  0
   25.5134  -21.4734   -8.8541 C   0  0  1  0  0  0  0  0  0  0  0  0
   26.6508  -21.6967   -7.9240 C   0  0  0  0  0  0  0  0  0  0  0  0
   27.1173  -20.4601   -7.2974 C   0  0  0  0  0  0  0  0  0  0  0  0
   26.7841  -19.1719   -7.7415 C   0  0  0  0  0  0  0  0  0  0  0  0
   27.3958  -18.2469   -6.9978 N   0  0  0  0  0  0  0  0  0  0  0  0
   28.1353  -18.8876   -6.0575 C   0  0  0  0  0  0  0  0  0  0  0  0
   28.9203  -18.3652   -5.0585 C   0  0  0  0  0  0  0  0  0  0  0  0
   29.5692  -19.2277   -4.1939 C   0  0  0  0  0  0  0  0  0  0  0  0
   29.4063  -20.5791   -4.3647 C   0  0  0  0  0  0  0  0  0  0  0  0
   28.6259  -21.1008   -5.3594 C   0  0  0  0  0  0  0  0  0  0  0  0
   27.9661  -20.2424   -6.2389 C   0  0  0  0  0  0  0  0  0  0  0  0
   24.3723  -20.7544   -8.3161 C   0  0  0  0  0  0  0  0  0  0  0  0
   23.6371  -21.3103   -7.2580 O   0  0  0  0  0  0  0  0  0  0  0  0
   23.9916  -19.6488   -8.7421 O   0  0  0  0  0  0  0  0  0  0  0  0
  2  9  1  0
  2  1  1  6
  2  3  1  0
  3  4  1  0
  4  8  1  0
  4  5  2  0
  5  6  1  0
  7  6  1  0
  8  7  2  0
  9 10  2  0
 11 12  1  0
 11  9  1  0
 12 23  1  0
 12 13  1  1
 14 13  1  0
 14 22  1  0
 15 16  1  0
 15 14  2  0
 16 17  1  0
 17 18  2  0
 17 22  1  0
 18 19  1  0
 19 20  2  0
 21 20  1  0
 22 21  2  0
 23 25  1  0
 23 24  2  0
 25 26  1  0
 26 37  1  0
 26 27  1  1
 27 28  1  0
 28 36  1  0
 29 30  1  0
 29 28  2  0
 30 31  1  0
 31 36  2  0
 31 32  1  0
 32 33  2  0
 33 34  1  0
 35 34  2  0
 36 35  1  0
 37 38  1  0
 39 37  2  0
M  END
$$$$
