HWW.pdb
     RDKit          3D

 39 43  0  0  1  0  0  0  0  0999 V2000
   29.3818  -24.0573  -18.4687 N   0  0  0  0  0  0  0  0  0  0  0  0
   28.5280  -24.2087  -17.3088 C   0  0  1  0  0  0  0  0  0  0  0  0
   29.2118  -25.2271  -16.4241 C   0  0  0  0  0  0  0  0  0  0  0  0
   28.9850  -26.5821  -16.9843 C   0  0  0  0  0  0  0  0  0  0  0  0
   27.9143  -27.4297  -16.7728 C   0  0  0  0  0  0  0  0  0  0  0  0
   28.0882  -28.5741  -17.4560 N   0  0  0  0  0  0  0  0  0  0  0  0
   29.2601  -28.4572  -18.0977 C   0  0  0  0  0  0  0  0  0  0  0  0
   29.8164  -27.2445  -17.8170 N   0  0  0  0  0  0  0  0  0  0  0  0
   28.2691  -22.9285  -16.6214 C   0  0  0  0  0  0  0  0  0  0  0  0
   29.2500  -22.2003  -16.3213 O   0  0  0  0  0  0  0  0  0  0  0  0
   26.9855  -22.4581  -16.2741 N   0  0  0  0  0  0  0  0  0  0  0  0
   26.7048  -21.2082  -15.5902 C   0  0  1  0  0  0  0  0  0  0  0  0
   25.7439  -20.3266  -16.3106 C   0  0  0  0  0  0  0  0  0  0  0  0
   25.4394  -19.0500  -15.6293 C   0  0  0  0  0  0  0  0  0  0  0  0
   24.3012  -18.6487  -14.9915 C   0  0  0  0  0  0  0  0  0  0  0  0
   24.4854  -17.4114  -14.5349 N   0  0  0  0  0  0  0  0  0  0  0  0
   25.7094  -16.9626  -14.8432 C   0  0  0  0  0  0  0  0  0  0  0  0
   26.3609  -15.7677  -14.5987 C   0  0  0  0  0  0  0  0  0  0  0  0
   27.6495  -15.5691  -15.0429 C   0  0  0  0  0  0  0  0  0  0  0  0
   28.2548  -16.5889  -15.7283 C   0  0  0  0  0  0  0  0  0  0  0  0
   27.6123  -17.7910  -15.9801 C   0  0  0  0  0  0  0  0  0  0  0  0
   26.3289  -17.9719  -15.5308 C   0  0  0  0  0  0  0  0  0  0  0  0
   26.0615  -21.6466  -14.2872 C   0  0  0  0  0  0  0  0  0  0  0  0
   25.1901  -22.5854  -14.3013 O   0  0  0  0  0  0  0  0  0  0  0  0
   26.3789  -21.0693  -13.0492 N   0  0  0  0  0  0  0  0  0  0  0  0
   25.7032  -21.5161  -11.8364 C   0  0  1  0  0  0  0  0  0  0  0  0
   26.6806  -21.8656  -10.7729 C   0  0  0  0  0  0  0  0  0  0  0  0
   26.7699  -20.8424   -9.7314 C   0  0  0  0  0  0  0  0  0  0  0  0
   25.9165  -19.7333   -9.6348 C   0  0  0  0  0  0  0  0  0  0  0  0
   26.2730  -18.9555   -8.6097 N   0  0  0  0  0  0  0  0  0  0  0  0
   27.3516  -19.5205   -8.0107 C   0  0  0  0  0  0  0  0  0  0  0  0
   28.0591  -19.1011   -6.9104 C   0  0  0  0  0  0  0  0  0  0  0  0
   29.1220  -19.8651   -6.4641 C   0  0  0  0  0  0  0  0  0  0  0  0
   29.4341  -21.0185   -7.1382 C   0  0  0  0  0  0  0  0  0  0  0  0
   28.7314  -21.4369   -8.2343 C   0  0  0  0  0  0  0  0  0  0  0  0
   27.6573  -20.6758   -8.6956 C   0  0  0  0  0  0  0  0  0  0  0  0
   24.6370  -20.6056  -11.4581 C   0  0  0  0  0  0  0  0  0  0  0  0
   23.6709  -21.0161  -10.5268 O   0  0  0  0  0  0  0  0  0  0  0  0
   24.5187  -19.4550  -11.9171 O   0  0  0  0  0  0  0  0  0  0  0  0
  2  9  1  0
  2  1  1  6
  2  3  1  0
  3  4  1  0
  4  8  1  0
  4  5  2  0
  5  6  1  0
  7  6  1  0
  8  7  2  0
  9 10  2  0
 11 12  1  0
 11  9  1  0
 12 23  1  0
 12 13  1  6
 14 13  1  0
 14 22  1  0
 15 16  1  0
 15 14  2  0
 16 17  1  0
 17 18  2  0
 17 22  1  0
 18 19  1  0
 19 20  2  0
 21 20  1  0
 22 21  2  0
 23 25  1  0
 23 24  2  0
 25 26  1  0
 26 37  1  0
 26 27  1  1
 27 28  1  0
 28 36  1  0
 29 30  1  0
 29 28  2  0
 30 31  1  0
 31 36  2  0
 31 32  1  0
 32 33  2  0
 33 34  1  0
 35 34  2  0
 36 35  1  0
 37 38  1  0
 39 37  2  0
M  END
$$$$
