HWW.pdb
     RDKit          3D

 39 43  0  0  1  0  0  0  0  0999 V2000
   27.7741  -22.3161  -15.6647 N   0  0  0  0  0  0  0  0  0  0  0  0
   27.3950  -21.1904  -14.8362 C   0  0  1  0  0  0  0  0  0  0  0  0
   26.7404  -20.1952  -15.7680 C   0  0  0  0  0  0  0  0  0  0  0  0
   27.7744  -19.6206  -16.6635 C   0  0  0  0  0  0  0  0  0  0  0  0
   28.8015  -18.7537  -16.3426 C   0  0  0  0  0  0  0  0  0  0  0  0
   29.5193  -18.4604  -17.4404 N   0  0  0  0  0  0  0  0  0  0  0  0
   28.9546  -19.1346  -18.4529 C   0  0  0  0  0  0  0  0  0  0  0  0
   27.8882  -19.8468  -17.9899 N   0  0  0  0  0  0  0  0  0  0  0  0
   26.5279  -21.5808  -13.7074 C   0  0  0  0  0  0  0  0  0  0  0  0
   25.9483  -22.6963  -13.7548 O   0  0  0  0  0  0  0  0  0  0  0  0
   26.3012  -20.7833  -12.5663 N   0  0  0  0  0  0  0  0  0  0  0  0
   25.5254  -21.1794  -11.4044 C   0  0  1  0  0  0  0  0  0  0  0  0
   25.9096  -20.4725  -10.1505 C   0  0  0  0  0  0  0  0  0  0  0  0
   27.2692  -20.7775   -9.6557 C   0  0  0  0  0  0  0  0  0  0  0  0
   28.3148  -21.3847  -10.2892 C   0  0  0  0  0  0  0  0  0  0  0  0
   29.3417  -21.4504   -9.4440 N   0  0  0  0  0  0  0  0  0  0  0  0
   29.0253  -20.9088   -8.2603 C   0  0  0  0  0  0  0  0  0  0  0  0
   29.7332  -20.7424   -7.0841 C   0  0  0  0  0  0  0  0  0  0  0  0
   29.1470  -20.1388   -5.9935 C   0  0  0  0  0  0  0  0  0  0  0  0
   27.8506  -19.7141   -6.1167 C   0  0  0  0  0  0  0  0  0  0  0  0
   27.1304  -19.8756   -7.2899 C   0  0  0  0  0  0  0  0  0  0  0  0
   27.7294  -20.4790   -8.3663 C   0  0  0  0  0  0  0  0  0  0  0  0
   24.1072  -20.7740  -11.7623 C   0  0  0  0  0  0  0  0  0  0  0  0
   23.1701  -20.9433  -10.9055 O   0  0  0  0  0  0  0  0  0  0  0  0
   23.7652  -20.2128  -13.0012 N   0  0  0  0  0  0  0  0  0  0  0  0
   22.4238  -19.6848  -13.2223 C   0  0  1  0  0  0  0  0  0  0  0  0
   22.4718  -18.3315  -13.8348 C   0  0  0  0  0  0  0  0  0  0  0  0
   23.2516  -18.3004  -15.0719 C   0  0  0  0  0  0  0  0  0  0  0  0
   22.9331  -19.0279  -16.2281 C   0  0  0  0  0  0  0  0  0  0  0  0
   23.8538  -18.8302  -17.1748 N   0  0  0  0  0  0  0  0  0  0  0  0
   24.7882  -17.9802  -16.6790 C   0  0  0  0  0  0  0  0  0  0  0  0
   25.9118  -17.4694  -17.2820 C   0  0  0  0  0  0  0  0  0  0  0  0
   26.7121  -16.5899  -16.5759 C   0  0  0  0  0  0  0  0  0  0  0  0
   26.3551  -16.2575  -15.2936 C   0  0  0  0  0  0  0  0  0  0  0  0
   25.2373  -16.7659  -14.6915 C   0  0  0  0  0  0  0  0  0  0  0  0
   24.4215  -17.6544  -15.3920 C   0  0  0  0  0  0  0  0  0  0  0  0
   21.5726  -20.6602  -13.8802 C   0  0  0  0  0  0  0  0  0  0  0  0
   20.1947  -20.4179  -13.9899 O   0  0  0  0  0  0  0  0  0  0  0  0
   21.9939  -21.7258  -14.3657 O   0  0  0  0  0  0  0  0  0  0  0  0
  2  9  1  0
  2  1  1  6
  2  3  1  0
  3  4  1  0
  4  8  1  0
  4  5  2  0
  5  6  1  0
  7  6  1  0
  8  7  2  0
  9 10  2  0
 11 12  1  0
 11  9  1  0
 12 23  1  0
 12 13  1  1
 14 13  1  0
 14 22  1  0
 15 16  1  0
 15 14  2  0
 16 17  1  0
 17 18  2  0
 17 22  1  0
 18 19  1  0
 19 20  2  0
 21 20  1  0
 22 21  2  0
 23 25  1  0
 23 24  2  0
 25 26  1  0
 26 37  1  0
 26 27  1  6
 27 28  1  0
 28 36  1  0
 29 30  1  0
 29 28  2  0
 30 31  1  0
 31 36  2  0
 31 32  1  0
 32 33  2  0
 33 34  1  0
 35 34  2  0
 36 35  1  0
 37 38  1  0
 39 37  2  0
M  END
$$$$
