HWW.pdb
     RDKit          3D

 39 43  0  0  1  0  0  0  0  0999 V2000
   28.8892  -23.1720  -17.6443 N   0  0  0  0  0  0  0  0  0  0  0  0
   28.0672  -22.0309  -17.2986 C   0  0  1  0  0  0  0  0  0  0  0  0
   26.9736  -21.9798  -18.3421 C   0  0  0  0  0  0  0  0  0  0  0  0
   27.5316  -21.4220  -19.5985 C   0  0  0  0  0  0  0  0  0  0  0  0
   27.9863  -20.1396  -19.8402 C   0  0  0  0  0  0  0  0  0  0  0  0
   28.4072  -20.0301  -21.1120 N   0  0  0  0  0  0  0  0  0  0  0  0
   28.2224  -21.2325  -21.6765 C   0  0  0  0  0  0  0  0  0  0  0  0
   27.6884  -22.0904  -20.7613 N   0  0  0  0  0  0  0  0  0  0  0  0
   27.5461  -22.1016  -15.9195 C   0  0  0  0  0  0  0  0  0  0  0  0
   27.1548  -23.2146  -15.4830 O   0  0  0  0  0  0  0  0  0  0  0  0
   27.4556  -20.9975  -15.0465 N   0  0  0  0  0  0  0  0  0  0  0  0
   27.0475  -21.0580  -13.6541 C   0  0  1  0  0  0  0  0  0  0  0  0
   27.5953  -19.9560  -12.8144 C   0  0  0  0  0  0  0  0  0  0  0  0
   27.2439  -20.0329  -11.3802 C   0  0  0  0  0  0  0  0  0  0  0  0
   26.0787  -19.7103  -10.7466 C   0  0  0  0  0  0  0  0  0  0  0  0
   26.2284  -19.9375   -9.4430 N   0  0  0  0  0  0  0  0  0  0  0  0
   27.4557  -20.4021   -9.1740 C   0  0  0  0  0  0  0  0  0  0  0  0
   28.0819  -20.7760   -7.9992 C   0  0  0  0  0  0  0  0  0  0  0  0
   29.3834  -21.2269   -8.0123 C   0  0  0  0  0  0  0  0  0  0  0  0
   30.0269  -21.2904   -9.2199 C   0  0  0  0  0  0  0  0  0  0  0  0
   29.4103  -20.9181  -10.4040 C   0  0  0  0  0  0  0  0  0  0  0  0
   28.1139  -20.4710  -10.3729 C   0  0  0  0  0  0  0  0  0  0  0  0
   25.5387  -20.9044  -13.7135 C   0  0  0  0  0  0  0  0  0  0  0  0
   25.0321  -19.9203  -14.3584 O   0  0  0  0  0  0  0  0  0  0  0  0
   24.6570  -21.7996  -13.0908 N   0  0  0  0  0  0  0  0  0  0  0  0
   23.2282  -21.5099  -13.0447 C   0  0  1  0  0  0  0  0  0  0  0  0
   22.4543  -22.4860  -13.8551 C   0  0  0  0  0  0  0  0  0  0  0  0
   22.8042  -22.4426  -15.2747 C   0  0  0  0  0  0  0  0  0  0  0  0
   23.8085  -23.2221  -15.8676 C   0  0  0  0  0  0  0  0  0  0  0  0
   23.9246  -22.9291  -17.1651 N   0  0  0  0  0  0  0  0  0  0  0  0
   23.0150  -21.9661  -17.4599 C   0  0  0  0  0  0  0  0  0  0  0  0
   22.7447  -21.3586  -18.6619 C   0  0  0  0  0  0  0  0  0  0  0  0
   21.7421  -20.4081  -18.7236 C   0  0  0  0  0  0  0  0  0  0  0  0
   21.0505  -20.1037  -17.5785 C   0  0  0  0  0  0  0  0  0  0  0  0
   21.3189  -20.7069  -16.3808 C   0  0  0  0  0  0  0  0  0  0  0  0
   22.3279  -21.6671  -16.3042 C   0  0  0  0  0  0  0  0  0  0  0  0
   22.7742  -21.3004  -11.6813 C   0  0  0  0  0  0  0  0  0  0  0  0
   21.4667  -20.8482  -11.4465 O   0  0  0  0  0  0  0  0  0  0  0  0
   23.4859  -21.4994  -10.6801 O   0  0  0  0  0  0  0  0  0  0  0  0
  2  9  1  0
  2  1  1  6
  2  3  1  0
  3  4  1  0
  4  8  1  0
  4  5  2  0
  5  6  1  0
  7  6  1  0
  8  7  2  0
  9 10  2  0
 11 12  1  0
 11  9  1  0
 12 23  1  0
 12 13  1  1
 14 13  1  0
 14 22  1  0
 15 16  1  0
 15 14  2  0
 16 17  1  0
 17 18  2  0
 17 22  1  0
 18 19  1  0
 19 20  2  0
 21 20  1  0
 22 21  2  0
 23 25  1  0
 23 24  2  0
 25 26  1  0
 26 37  1  0
 26 27  1  1
 27 28  1  0
 28 36  1  0
 29 30  1  0
 29 28  2  0
 30 31  1  0
 31 36  2  0
 31 32  1  0
 32 33  2  0
 33 34  1  0
 35 34  2  0
 36 35  1  0
 37 38  1  0
 39 37  2  0
M  END
$$$$
