REH.pdb
     RDKit          3D

 31 31  0  0  1  0  0  0  0  0999 V2000
    7.9814  -13.0199   14.2096 N   0  0  0  0  0  0  0  0  0  0  0  0
    8.2983  -14.2693   14.8388 C   0  0  0  0  0  0  0  0  0  0  0  0
    9.5216  -14.6638   14.8576 N   0  0  0  0  0  0  0  0  0  0  0  0
    7.3179  -15.0859   15.4398 N   0  0  0  0  0  0  0  0  0  0  0  0
    7.6624  -16.2459   16.1968 C   0  0  0  0  0  0  0  0  0  0  0  0
    8.0269  -15.9793   17.6269 C   0  0  0  0  0  0  0  0  0  0  0  0
    6.9083  -15.4201   18.4516 C   0  0  0  0  0  0  0  0  0  0  0  0
    7.4873  -14.6087   19.5901 C   0  0  2  0  0  0  0  0  0  0  0  0
    8.4802  -13.7026   18.9902 N   0  0  0  0  0  0  0  0  0  0  0  0
    8.2389  -15.4466   20.5577 C   0  0  0  0  0  0  0  0  0  0  0  0
    7.7805  -16.5080   21.0678 O   0  0  0  0  0  0  0  0  0  0  0  0
    9.7840  -15.5824   15.2670 N   0  0  0  0  0  0  0  0  0  0  0  0
    9.5617  -15.0557   20.9544 C   0  0  1  0  0  0  0  0  0  0  0  0
   10.3875  -15.8210   21.8221 C   0  0  0  0  0  0  0  0  0  0  0  0
   11.8468  -15.8375   21.5794 C   0  0  0  0  0  0  0  0  0  0  0  0
   12.3562  -16.1613   20.2375 C   0  0  0  0  0  0  0  0  0  0  0  0
   13.7821  -16.0936   19.9944 O   0  0  0  0  0  0  0  0  0  0  0  0
   14.5667  -15.5183   20.7699 C   0  0  0  0  0  0  0  0  0  0  0  0
   10.1118  -15.4190   23.2190 O   0  0  0  0  0  0  0  0  0  0  0  0
    9.9378  -14.2204   23.5542 O   0  0  0  0  0  0  0  0  0  0  0  0
   14.3151  -16.6851   18.8613 N   0  0  0  0  0  0  0  0  0  0  0  0
   10.0351  -16.4056   24.2423 C   0  0  1  0  0  0  0  0  0  0  0  0
    9.3114  -16.1387   25.4954 C   0  0  0  0  0  0  0  0  0  0  0  0
    7.8289  -16.1838   25.1584 C   0  0  0  0  0  0  0  0  0  0  0  0
    7.2530  -14.8512   25.3916 C   0  0  0  0  0  0  0  0  0  0  0  0
    7.9687  -13.7518   25.8665 N   0  0  0  0  0  0  0  0  0  0  0  0
    7.1539  -12.6956   25.9674 C   0  0  0  0  0  0  0  0  0  0  0  0
    5.9400  -13.0926   25.5699 N   0  0  0  0  0  0  0  0  0  0  0  0
    6.0142  -14.4015   25.2237 C   0  0  0  0  0  0  0  0  0  0  0  0
    9.6045  -17.2499   26.4199 O   0  0  0  0  0  0  0  0  0  0  0  0
    9.3921  -17.0549   27.7885 O   0  0  0  0  0  0  0  0  0  0  0  0
  1  2  1  0
  2  3  2  0
  4  5  1  0
  4  2  1  0
  6  5  1  0
  7  6  1  0
  8  7  1  0
  8  9  1  6
 10  8  1  0
 10 11  2  0
 12 10  1  0
 13 12  1  0
 13 14  1  1
 14 15  1  0
 15 16  1  0
 16 20  1  0
 16 17  2  0
 18 13  1  0
 19 18  2  0
 21 18  1  0
 22 29  1  0
 22 21  1  0
 22 23  1  1
 24 23  1  0
 25 24  2  0
 26 27  1  0
 26 25  1  0
 27 28  2  0
 28 24  1  0
 29 30  1  0
 31 29  2  0
M  END
$$$$
