REH.pdb
     RDKit          3D

 31 31  0  0  1  0  0  0  0  0999 V2000
    8.8784  -17.3063   22.7363 N   0  0  0  0  0  0  0  0  0  0  0  0
    7.6107  -17.3223   22.0655 C   0  0  0  0  0  0  0  0  0  0  0  0
    7.1188  -18.4496   21.6916 N   0  0  0  0  0  0  0  0  0  0  0  0
    6.8792  -16.1464   21.7983 N   0  0  0  0  0  0  0  0  0  0  0  0
    7.3935  -14.8511   22.1066 C   0  0  0  0  0  0  0  0  0  0  0  0
    8.4392  -14.3465   21.1575 C   0  0  0  0  0  0  0  0  0  0  0  0
    7.9196  -14.0106   19.7932 C   0  0  0  0  0  0  0  0  0  0  0  0
    9.0615  -13.5119   18.9349 C   0  0  2  0  0  0  0  0  0  0  0  0
    8.4905  -13.2311   17.6076 N   0  0  0  0  0  0  0  0  0  0  0  0
   10.1002  -14.5495   18.7156 C   0  0  0  0  0  0  0  0  0  0  0  0
    9.9739  -15.5036   17.8968 O   0  0  0  0  0  0  0  0  0  0  0  0
    6.2041  -18.5007   21.2009 N   0  0  0  0  0  0  0  0  0  0  0  0
   11.3262  -14.4918   19.4595 C   0  0  1  0  0  0  0  0  0  0  0  0
   12.4215  -15.3737   19.2516 C   0  0  0  0  0  0  0  0  0  0  0  0
   13.7231  -14.8024   18.8416 C   0  0  0  0  0  0  0  0  0  0  0  0
   13.8700  -14.2203   17.4982 C   0  0  0  0  0  0  0  0  0  0  0  0
   15.1757  -13.7609   17.0728 O   0  0  0  0  0  0  0  0  0  0  0  0
   15.8418  -14.3502   16.2027 C   0  0  0  0  0  0  0  0  0  0  0  0
   12.5947  -16.2109   20.4592 O   0  0  0  0  0  0  0  0  0  0  0  0
   13.4504  -17.1288   20.5265 O   0  0  0  0  0  0  0  0  0  0  0  0
   15.7236  -12.6238   17.6426 N   0  0  0  0  0  0  0  0  0  0  0  0
   11.7752  -15.9906   21.6021 C   0  0  1  0  0  0  0  0  0  0  0  0
   11.8244  -16.9055   22.7537 C   0  0  0  0  0  0  0  0  0  0  0  0
   12.5688  -16.1722   23.8590 C   0  0  0  0  0  0  0  0  0  0  0  0
   14.0134  -16.2959   23.6150 C   0  0  0  0  0  0  0  0  0  0  0  0
   14.5779  -16.9546   22.5224 N   0  0  0  0  0  0  0  0  0  0  0  0
   15.9119  -16.8863   22.5975 C   0  0  0  0  0  0  0  0  0  0  0  0
   16.2114  -16.2026   23.7074 N   0  0  0  0  0  0  0  0  0  0  0  0
   15.0513  -15.8508   24.3148 C   0  0  0  0  0  0  0  0  0  0  0  0
   10.4368  -17.1240   23.2035 O   0  0  0  0  0  0  0  0  0  0  0  0
    9.3986  -16.5189   22.4879 O   0  0  0  0  0  0  0  0  0  0  0  0
  1  2  1  0
  2  3  2  0
  4  5  1  0
  4  2  1  0
  6  5  1  0
  7  6  1  0
  8  7  1  0
  8  9  1  6
 10  8  1  0
 10 11  2  0
 12 10  1  0
 13 12  1  0
 13 14  1  1
 14 15  1  0
 15 16  1  0
 16 20  1  0
 16 17  2  0
 18 13  1  0
 19 18  2  0
 21 18  1  0
 22 29  1  0
 22 21  1  0
 22 23  1  6
 24 23  1  0
 25 24  2  0
 26 27  1  0
 26 25  1  0
 27 28  2  0
 28 24  1  0
 29 30  1  0
 31 29  2  0
M  END
$$$$
