REH.pdb
     RDKit          3D

 31 31  0  0  1  0  0  0  0  0999 V2000
   13.3686  -15.0923   16.9356 N   0  0  0  0  0  0  0  0  0  0  0  0
   12.9259  -14.4454   18.1367 C   0  0  0  0  0  0  0  0  0  0  0  0
   13.7385  -14.3513   19.1285 N   0  0  0  0  0  0  0  0  0  0  0  0
   11.6299  -13.9063   18.2744 N   0  0  0  0  0  0  0  0  0  0  0  0
   10.5700  -14.2520   17.3830 C   0  0  0  0  0  0  0  0  0  0  0  0
    9.7807  -15.4629   17.7827 C   0  0  0  0  0  0  0  0  0  0  0  0
   10.3100  -16.7508   17.2302 C   0  0  0  0  0  0  0  0  0  0  0  0
    9.5182  -17.9030   17.8091 C   0  0  2  0  0  0  0  0  0  0  0  0
    8.1084  -17.6482   17.4715 N   0  0  0  0  0  0  0  0  0  0  0  0
    9.5770  -17.9420   19.2918 C   0  0  0  0  0  0  0  0  0  0  0  0
    8.5667  -17.7931   20.0361 O   0  0  0  0  0  0  0  0  0  0  0  0
   13.4243  -13.9817   20.0476 N   0  0  0  0  0  0  0  0  0  0  0  0
   10.8364  -18.1598   19.9447 C   0  0  2  0  0  0  0  0  0  0  0  0
   10.9749  -18.4052   21.3380 C   0  0  0  0  0  0  0  0  0  0  0  0
   12.1878  -19.1036   21.8173 C   0  0  0  0  0  0  0  0  0  0  0  0
   12.3241  -19.4240   23.2470 C   0  0  0  0  0  0  0  0  0  0  0  0
   13.5108  -20.1200   23.6988 O   0  0  0  0  0  0  0  0  0  0  0  0
   14.6583  -19.7705   23.3684 C   0  0  0  0  0  0  0  0  0  0  0  0
   10.8061  -17.1280   22.0654 O   0  0  0  0  0  0  0  0  0  0  0  0
   11.2211  -16.0326   21.6103 O   0  0  0  0  0  0  0  0  0  0  0  0
   13.3876  -21.2197   24.5315 N   0  0  0  0  0  0  0  0  0  0  0  0
   10.1531  -17.1095   23.3302 C   0  0  2  0  0  0  0  0  0  0  0  0
    9.5187  -15.8811   23.8342 C   0  0  0  0  0  0  0  0  0  0  0  0
    8.0978  -15.8725   23.2918 C   0  0  0  0  0  0  0  0  0  0  0  0
    8.0446  -14.9768   22.1270 C   0  0  0  0  0  0  0  0  0  0  0  0
    9.1357  -14.2687   21.6227 N   0  0  0  0  0  0  0  0  0  0  0  0
    8.7520  -13.5485   20.5626 C   0  0  0  0  0  0  0  0  0  0  0  0
    7.4474  -13.7788   20.3786 N   0  0  0  0  0  0  0  0  0  0  0  0
    7.0311  -14.6464   21.3340 C   0  0  0  0  0  0  0  0  0  0  0  0
    9.4471  -15.9918   25.3032 O   0  0  0  0  0  0  0  0  0  0  0  0
    8.9945  -17.1914   25.8621 O   0  0  0  0  0  0  0  0  0  0  0  0
  1  2  1  0
  2  3  2  0
  4  5  1  0
  4  2  1  0
  6  5  1  0
  7  6  1  0
  8  7  1  0
  8  9  1  1
 10  8  1  0
 10 11  2  0
 12 10  1  0
 13 12  1  0
 13 14  1  6
 14 15  1  0
 15 16  1  0
 16 20  1  0
 16 17  2  0
 18 13  1  0
 19 18  2  0
 21 18  1  0
 22 29  1  0
 22 21  1  0
 22 23  1  6
 24 23  1  0
 25 24  2  0
 26 27  1  0
 26 25  1  0
 27 28  2  0
 28 24  1  0
 29 30  1  0
 31 29  2  0
M  END
$$$$
