REH.pdb
     RDKit          3D

 31 31  0  0  1  0  0  0  0  0999 V2000
    7.7665  -12.4955   17.6532 N   0  0  0  0  0  0  0  0  0  0  0  0
    8.6376  -12.9026   18.7175 C   0  0  0  0  0  0  0  0  0  0  0  0
    9.5565  -12.0950   19.1127 N   0  0  0  0  0  0  0  0  0  0  0  0
    8.5266  -14.1582   19.3503 N   0  0  0  0  0  0  0  0  0  0  0  0
    7.2769  -14.8384   19.4635 C   0  0  0  0  0  0  0  0  0  0  0  0
    6.5650  -14.6348   20.7677 C   0  0  0  0  0  0  0  0  0  0  0  0
    6.4558  -15.8707   21.6071 C   0  0  0  0  0  0  0  0  0  0  0  0
    7.5319  -16.8503   21.1925 C   0  0  2  0  0  0  0  0  0  0  0  0
    6.8342  -18.0605   20.7283 N   0  0  0  0  0  0  0  0  0  0  0  0
    8.3739  -17.2839   22.3355 C   0  0  0  0  0  0  0  0  0  0  0  0
    7.9359  -17.9565   23.3115 O   0  0  0  0  0  0  0  0  0  0  0  0
   10.2581  -12.3850   19.8224 N   0  0  0  0  0  0  0  0  0  0  0  0
    9.7659  -16.9354   22.3613 C   0  0  2  0  0  0  0  0  0  0  0  0
   10.6404  -17.2442   23.4386 C   0  0  0  0  0  0  0  0  0  0  0  0
   12.0999  -17.2061   23.1998 C   0  0  0  0  0  0  0  0  0  0  0  0
   13.0253  -17.4577   24.3158 C   0  0  0  0  0  0  0  0  0  0  0  0
   14.4485  -17.4947   24.0510 O   0  0  0  0  0  0  0  0  0  0  0  0
   15.1932  -16.5197   24.2573 C   0  0  0  0  0  0  0  0  0  0  0  0
   10.2945  -16.3866   24.5935 O   0  0  0  0  0  0  0  0  0  0  0  0
   10.3457  -15.1320   24.5412 O   0  0  0  0  0  0  0  0  0  0  0  0
   15.0243  -18.6497   23.5487 N   0  0  0  0  0  0  0  0  0  0  0  0
    9.8851  -16.9773   25.8222 C   0  0  1  0  0  0  0  0  0  0  0  0
    9.6446  -16.1493   27.0146 C   0  0  0  0  0  0  0  0  0  0  0  0
    8.1397  -15.9483   27.1070 C   0  0  0  0  0  0  0  0  0  0  0  0
    7.8361  -14.5367   26.8294 C   0  0  0  0  0  0  0  0  0  0  0  0
    6.5506  -13.9956   26.7951 N   0  0  0  0  0  0  0  0  0  0  0  0
    6.6209  -12.6893   26.5154 C   0  0  0  0  0  0  0  0  0  0  0  0
    7.9153  -12.3845   26.3708 N   0  0  0  0  0  0  0  0  0  0  0  0
    8.6409  -13.5136   26.5637 C   0  0  0  0  0  0  0  0  0  0  0  0
   10.0747  -16.9309   28.1891 O   0  0  0  0  0  0  0  0  0  0  0  0
   10.1738  -16.2823   29.4243 O   0  0  0  0  0  0  0  0  0  0  0  0
  1  2  1  0
  2  3  2  0
  4  5  1  0
  4  2  1  0
  6  5  1  0
  7  6  1  0
  8  7  1  0
  8  9  1  1
 10  8  1  0
 10 11  2  0
 12 10  1  0
 13 12  1  0
 13 14  1  6
 14 15  1  0
 15 16  1  0
 16 20  1  0
 16 17  2  0
 18 13  1  0
 19 18  2  0
 21 18  1  0
 22 29  1  0
 22 21  1  0
 22 23  1  1
 24 23  1  0
 25 24  2  0
 26 27  1  0
 26 25  1  0
 27 28  2  0
 28 24  1  0
 29 30  1  0
 31 29  2  0
M  END
$$$$
