REH.pdb
     RDKit          3D

 31 31  0  0  1  0  0  0  0  0999 V2000
    7.4544  -13.4920   13.6001 N   0  0  0  0  0  0  0  0  0  0  0  0
    6.6101  -14.1890   14.5266 C   0  0  0  0  0  0  0  0  0  0  0  0
    5.5772  -14.8111   14.0806 N   0  0  0  0  0  0  0  0  0  0  0  0
    6.8681  -14.2195   15.9129 N   0  0  0  0  0  0  0  0  0  0  0  0
    8.0208  -13.5973   16.4799 C   0  0  0  0  0  0  0  0  0  0  0  0
    9.2989  -14.3623   16.3064 C   0  0  0  0  0  0  0  0  0  0  0  0
   10.4805  -13.7474   16.9918 C   0  0  0  0  0  0  0  0  0  0  0  0
   11.7025  -14.6037   16.7404 C   0  0  2  0  0  0  0  0  0  0  0  0
   11.2398  -15.7706   15.9716 N   0  0  0  0  0  0  0  0  0  0  0  0
   12.2790  -15.1499   17.9945 C   0  0  0  0  0  0  0  0  0  0  0  0
   11.9120  -16.2409   18.5160 O   0  0  0  0  0  0  0  0  0  0  0  0
    5.0055  -15.4177   14.7012 N   0  0  0  0  0  0  0  0  0  0  0  0
   13.3120  -14.4217   18.6744 C   0  0  2  0  0  0  0  0  0  0  0  0
   13.9493  -14.8729   19.8622 C   0  0  0  0  0  0  0  0  0  0  0  0
   15.2014  -14.2111   20.2897 C   0  0  0  0  0  0  0  0  0  0  0  0
   15.9581  -14.7549   21.4286 C   0  0  0  0  0  0  0  0  0  0  0  0
   17.2208  -14.1432   21.7868 O   0  0  0  0  0  0  0  0  0  0  0  0
   17.6371  -14.1047   22.9586 C   0  0  0  0  0  0  0  0  0  0  0  0
   12.9652  -14.8549   20.9669 O   0  0  0  0  0  0  0  0  0  0  0  0
   11.9337  -14.1375   20.9397 O   0  0  0  0  0  0  0  0  0  0  0  0
   18.0119  -13.5731   20.8035 N   0  0  0  0  0  0  0  0  0  0  0  0
   13.1689  -15.6703   22.1158 C   0  0  1  0  0  0  0  0  0  0  0  0
   12.0447  -16.0314   22.9940 C   0  0  0  0  0  0  0  0  0  0  0  0
   11.0842  -16.8571   22.1520 C   0  0  0  0  0  0  0  0  0  0  0  0
   10.0198  -15.9748   21.6518 C   0  0  0  0  0  0  0  0  0  0  0  0
    9.9533  -14.6016   21.8891 N   0  0  0  0  0  0  0  0  0  0  0  0
    8.8648  -14.0962   21.2980 C   0  0  0  0  0  0  0  0  0  0  0  0
    8.2371  -15.1097   20.6913 N   0  0  0  0  0  0  0  0  0  0  0  0
    8.9479  -16.2428   20.9139 C   0  0  0  0  0  0  0  0  0  0  0  0
   12.5788  -16.8982   24.0612 O   0  0  0  0  0  0  0  0  0  0  0  0
   11.9254  -16.9164   25.2976 O   0  0  0  0  0  0  0  0  0  0  0  0
  1  2  1  0
  2  3  2  0
  4  5  1  0
  4  2  1  0
  6  5  1  0
  7  6  1  0
  8  7  1  0
  8  9  1  6
 10  8  1  0
 10 11  2  0
 12 10  1  0
 13 12  1  0
 13 14  1  1
 14 15  1  0
 15 16  1  0
 16 20  1  0
 16 17  2  0
 18 13  1  0
 19 18  2  0
 21 18  1  0
 22 29  1  0
 22 21  1  0
 22 23  1  1
 24 23  1  0
 25 24  2  0
 26 27  1  0
 26 25  1  0
 27 28  2  0
 28 24  1  0
 29 30  1  0
 31 29  2  0
M  END
$$$$
