REH.pdb
     RDKit          3D

 31 31  0  0  1  0  0  0  0  0999 V2000
    8.9009  -15.4732   16.4471 N   0  0  0  0  0  0  0  0  0  0  0  0
    7.9688  -14.4815   15.9941 C   0  0  0  0  0  0  0  0  0  0  0  0
    7.5997  -14.4912   14.7627 N   0  0  0  0  0  0  0  0  0  0  0  0
    7.4390  -13.4923   16.8484 N   0  0  0  0  0  0  0  0  0  0  0  0
    8.0135  -13.2104   18.1243 C   0  0  0  0  0  0  0  0  0  0  0  0
    7.0592  -13.2981   19.2779 C   0  0  0  0  0  0  0  0  0  0  0  0
    7.6087  -14.0087   20.4767 C   0  0  0  0  0  0  0  0  0  0  0  0
    7.5931  -15.5000   20.2213 C   0  0  2  0  0  0  0  0  0  0  0  0
    6.1927  -15.9304   20.3642 N   0  0  0  0  0  0  0  0  0  0  0  0
    8.3543  -16.2580   21.2459 C   0  0  0  0  0  0  0  0  0  0  0  0
    7.8176  -16.8202   22.2422 O   0  0  0  0  0  0  0  0  0  0  0  0
    7.0829  -13.6894   14.3503 N   0  0  0  0  0  0  0  0  0  0  0  0
    9.7795  -16.3765   21.1247 C   0  0  1  0  0  0  0  0  0  0  0  0
   10.5840  -17.1755   21.9819 C   0  0  0  0  0  0  0  0  0  0  0  0
   11.8540  -17.7220   21.4556 C   0  0  0  0  0  0  0  0  0  0  0  0
   12.6411  -18.6529   22.2797 C   0  0  0  0  0  0  0  0  0  0  0  0
   13.8773  -19.1865   21.7471 O   0  0  0  0  0  0  0  0  0  0  0  0
   13.9725  -19.6230   20.5859 C   0  0  0  0  0  0  0  0  0  0  0  0
   10.8358  -16.4269   23.2330 O   0  0  0  0  0  0  0  0  0  0  0  0
   11.4232  -15.3160   23.2477 O   0  0  0  0  0  0  0  0  0  0  0  0
   15.0100  -19.2222   22.5430 N   0  0  0  0  0  0  0  0  0  0  0  0
   10.4076  -16.9608   24.4812 C   0  0  2  0  0  0  0  0  0  0  0  0
   10.7788  -16.3100   25.7477 C   0  0  0  0  0  0  0  0  0  0  0  0
    9.4777  -15.9611   26.4540 C   0  0  0  0  0  0  0  0  0  0  0  0
    9.7969  -15.3069   27.7314 C   0  0  0  0  0  0  0  0  0  0  0  0
    9.9546  -13.9308   27.8982 N   0  0  0  0  0  0  0  0  0  0  0  0
   10.2405  -13.6637   29.1775 C   0  0  0  0  0  0  0  0  0  0  0  0
   10.2691  -14.8316   29.8289 N   0  0  0  0  0  0  0  0  0  0  0  0
    9.9986  -15.8196   28.9404 C   0  0  0  0  0  0  0  0  0  0  0  0
   11.4898  -17.3101   26.5662 O   0  0  0  0  0  0  0  0  0  0  0  0
   12.5538  -16.8840   27.3676 O   0  0  0  0  0  0  0  0  0  0  0  0
  1  2  1  0
  2  3  2  0
  4  5  1  0
  4  2  1  0
  6  5  1  0
  7  6  1  0
  8  7  1  0
  8  9  1  1
 10  8  1  0
 10 11  2  0
 12 10  1  0
 13 12  1  0
 13 14  1  6
 14 15  1  0
 15 16  1  0
 16 20  1  0
 16 17  2  0
 18 13  1  0
 19 18  2  0
 21 18  1  0
 22 29  1  0
 22 21  1  0
 22 23  1  1
 24 23  1  0
 25 24  2  0
 26 27  1  0
 26 25  1  0
 27 28  2  0
 28 24  1  0
 29 30  1  0
 31 29  2  0
M  END
$$$$
