TFA.pdb
     RDKit          3D

 24 24  0  0  1  0  0  0  0  0999 V2000
   25.1540  -38.1235   -9.5317 C   0  0  0  0  0  0  0  0  0  0  0  0
   25.9145  -37.6631   -8.3069 C   0  0  1  0  0  0  0  0  0  0  0  0
   26.0204  -38.7596   -7.4348 O   0  0  0  0  0  0  0  0  0  0  0  0
   27.3121  -37.2966   -8.7503 C   0  0  2  0  0  0  0  0  0  0  0  0
   27.9676  -38.4067   -9.3968 N   0  0  0  0  0  0  0  0  0  0  0  0
   28.1483  -36.7851   -7.6652 C   0  0  0  0  0  0  0  0  0  0  0  0
   29.1773  -37.3711   -7.2302 O   0  0  0  0  0  0  0  0  0  0  0  0
   27.7916  -35.5515   -7.0527 N   0  0  0  0  0  0  0  0  0  0  0  0
   28.5644  -34.9060   -6.0367 C   0  0  1  0  0  0  0  0  0  0  0  0
   28.7957  -33.4685   -6.4665 C   0  0  0  0  0  0  0  0  0  0  0  0
   27.5740  -32.7857   -6.8911 C   0  0  0  0  0  0  0  0  0  0  0  0
   26.6713  -32.3113   -5.9676 C   0  0  0  0  0  0  0  0  0  0  0  0
   25.5302  -31.6741   -6.4047 C   0  0  0  0  0  0  0  0  0  0  0  0
   25.2624  -31.4955   -7.7449 C   0  0  0  0  0  0  0  0  0  0  0  0
   26.1705  -31.9727   -8.6754 C   0  0  0  0  0  0  0  0  0  0  0  0
   27.3172  -32.6132   -8.2313 C   0  0  0  0  0  0  0  0  0  0  0  0
   27.9602  -34.9331   -4.7046 C   0  0  0  0  0  0  0  0  0  0  0  0
   26.7041  -35.0897   -4.6434 O   0  0  0  0  0  0  0  0  0  0  0  0
   27.0273  -33.5125   -2.2413 C   0  0  0  0  0  0  0  0  0  0  0  0
   27.9863  -34.6885   -2.2597 C   0  0  2  0  0  0  0  0  0  0  0  0
   28.6954  -34.7952   -3.4953 N   0  0  0  0  0  0  0  0  0  0  0  0
   27.2550  -35.9395   -2.0118 C   0  0  0  0  0  0  0  0  0  0  0  0
   27.8239  -37.0426   -2.1800 O   0  0  0  0  0  0  0  0  0  0  0  0
   25.9247  -35.8983   -1.5882 O   0  0  0  0  0  0  0  0  0  0  0  0
  2  1  1  6
  3  2  1  0
  4  6  1  0
  4  2  1  0
  4  5  1  1
  6  8  1  0
  7  6  2  0
  8  9  1  0
  9 10  1  6
 10 11  1  0
 11 16  2  0
 11 12  1  0
 12 13  2  0
 13 14  1  0
 15 14  2  0
 16 15  1  0
 17  9  1  0
 18 17  2  0
 20 19  1  6
 20 21  1  0
 21 17  1  0
 22 24  1  0
 22 20  1  0
 23 22  2  0
M  END
$$$$
