TFA.pdb
     RDKit          3D

 24 24  0  0  1  0  0  0  0  0999 V2000
   40.7646   -4.9533   -7.1629 C   0  0  0  0  0  0  0  0  0  0  0  0
   39.5298   -5.0197   -8.0353 C   0  0  1  0  0  0  0  0  0  0  0  0
   39.6427   -6.1614   -8.8464 O   0  0  0  0  0  0  0  0  0  0  0  0
   38.3403   -5.2228   -7.1253 C   0  0  2  0  0  0  0  0  0  0  0  0
   37.1494   -5.5347   -7.8768 N   0  0  0  0  0  0  0  0  0  0  0  0
   38.0890   -4.0874   -6.2388 C   0  0  0  0  0  0  0  0  0  0  0  0
   37.3974   -3.0818   -6.5578 O   0  0  0  0  0  0  0  0  0  0  0  0
   38.6532   -4.1039   -4.9328 N   0  0  0  0  0  0  0  0  0  0  0  0
   38.5407   -3.0293   -3.9955 C   0  0  1  0  0  0  0  0  0  0  0  0
   38.3017   -3.6292   -2.6216 C   0  0  0  0  0  0  0  0  0  0  0  0
   36.8847   -3.7829   -2.2936 C   0  0  0  0  0  0  0  0  0  0  0  0
   36.1947   -2.7814   -1.6505 C   0  0  0  0  0  0  0  0  0  0  0  0
   34.8605   -2.9621   -1.3564 C   0  0  0  0  0  0  0  0  0  0  0  0
   34.1910   -4.1204   -1.6877 C   0  0  0  0  0  0  0  0  0  0  0  0
   34.8847   -5.1293   -2.3352 C   0  0  0  0  0  0  0  0  0  0  0  0
   36.2269   -4.9433   -2.6291 C   0  0  0  0  0  0  0  0  0  0  0  0
   39.6999   -2.1378   -3.9513 C   0  0  0  0  0  0  0  0  0  0  0  0
   40.8445   -2.6805   -3.9141 O   0  0  0  0  0  0  0  0  0  0  0  0
   40.5877    1.4843   -4.3900 C   0  0  0  0  0  0  0  0  0  0  0  0
   40.8145    0.0520   -3.9428 C   0  0  2  0  0  0  0  0  0  0  0  0
   39.6117   -0.7186   -3.9482 N   0  0  0  0  0  0  0  0  0  0  0  0
   41.3966    0.0313   -2.5929 C   0  0  0  0  0  0  0  0  0  0  0  0
   40.7015   -0.3296   -1.6155 O   0  0  0  0  0  0  0  0  0  0  0  0
   42.7258    0.4143   -2.3998 O   0  0  0  0  0  0  0  0  0  0  0  0
  2  1  1  1
  3  2  1  0
  4  6  1  0
  4  2  1  0
  4  5  1  6
  6  8  1  0
  7  6  2  0
  8  9  1  0
  9 10  1  1
 10 11  1  0
 11 16  2  0
 11 12  1  0
 12 13  2  0
 13 14  1  0
 15 14  2  0
 16 15  1  0
 17  9  1  0
 18 17  2  0
 20 19  1  1
 20 21  1  0
 21 17  1  0
 22 24  1  0
 22 20  1  0
 23 22  2  0
M  END
$$$$
