TFA.pdb
     RDKit          3D

 24 24  0  0  1  0  0  0  0  0999 V2000
   27.4508  -19.4428  -14.7603 C   0  0  0  0  0  0  0  0  0  0  0  0
   26.8422  -19.7207  -13.4028 C   0  0  1  0  0  0  0  0  0  0  0  0
   25.4596  -19.8930  -13.5836 O   0  0  0  0  0  0  0  0  0  0  0  0
   27.4052  -21.0347  -12.9122 C   0  0  2  0  0  0  0  0  0  0  0  0
   27.0439  -22.1222  -13.7879 N   0  0  0  0  0  0  0  0  0  0  0  0
   27.0218  -21.3515  -11.5371 C   0  0  0  0  0  0  0  0  0  0  0  0
   26.1604  -22.2191  -11.2261 O   0  0  0  0  0  0  0  0  0  0  0  0
   27.6507  -20.6457  -10.4739 N   0  0  0  0  0  0  0  0  0  0  0  0
   27.2636  -20.7498   -9.1008 C   0  0  1  0  0  0  0  0  0  0  0  0
   28.2990  -20.0184   -8.2655 C   0  0  0  0  0  0  0  0  0  0  0  0
   28.0336  -20.0789   -6.8285 C   0  0  0  0  0  0  0  0  0  0  0  0
   28.1270  -21.2670   -6.1412 C   0  0  0  0  0  0  0  0  0  0  0  0
   27.8686  -21.2861   -4.7877 C   0  0  0  0  0  0  0  0  0  0  0  0
   27.5175  -20.1467   -4.0960 C   0  0  0  0  0  0  0  0  0  0  0  0
   27.4232  -18.9500   -4.7870 C   0  0  0  0  0  0  0  0  0  0  0  0
   27.6841  -18.9355   -6.1487 C   0  0  0  0  0  0  0  0  0  0  0  0
   25.9297  -20.2271   -8.8044 C   0  0  0  0  0  0  0  0  0  0  0  0
   25.7669  -18.9738   -8.8971 O   0  0  0  0  0  0  0  0  0  0  0  0
   22.7637  -20.5252   -9.6447 C   0  0  0  0  0  0  0  0  0  0  0  0
   23.5275  -20.4459   -8.3358 C   0  0  2  0  0  0  0  0  0  0  0  0
   24.8248  -21.0375   -8.4241 N   0  0  0  0  0  0  0  0  0  0  0  0
   22.7657  -21.1073   -7.2665 C   0  0  0  0  0  0  0  0  0  0  0  0
   21.5720  -20.7903   -7.0582 O   0  0  0  0  0  0  0  0  0  0  0  0
   23.3733  -22.0902   -6.4818 O   0  0  0  0  0  0  0  0  0  0  0  0
  2  1  1  6
  3  2  1  0
  4  6  1  0
  4  2  1  0
  4  5  1  6
  6  8  1  0
  7  6  2  0
  8  9  1  0
  9 10  1  1
 10 11  1  0
 11 16  2  0
 11 12  1  0
 12 13  2  0
 13 14  1  0
 15 14  2  0
 16 15  1  0
 17  9  1  0
 18 17  2  0
 20 19  1  6
 20 21  1  0
 21 17  1  0
 22 24  1  0
 22 20  1  0
 23 22  2  0
M  END
$$$$
