TFA.pdb
     RDKit          3D

 24 24  0  0  1  0  0  0  0  0999 V2000
   20.8791    0.4379  -17.7367 C   0  0  0  0  0  0  0  0  0  0  0  0
   19.7536    1.4437  -17.6264 C   0  0  1  0  0  0  0  0  0  0  0  0
   18.5575    0.7808  -17.9484 O   0  0  0  0  0  0  0  0  0  0  0  0
   19.6638    1.8689  -16.1789 C   0  0  2  0  0  0  0  0  0  0  0  0
   18.4797    2.6548  -15.9334 N   0  0  0  0  0  0  0  0  0  0  0  0
   20.8478    2.5895  -15.7126 C   0  0  0  0  0  0  0  0  0  0  0  0
   21.2072    3.7162  -16.1515 O   0  0  0  0  0  0  0  0  0  0  0  0
   21.6537    1.9953  -14.7019 N   0  0  0  0  0  0  0  0  0  0  0  0
   22.8264    2.6008  -14.1502 C   0  0  1  0  0  0  0  0  0  0  0  0
   22.6533    2.6698  -12.6436 C   0  0  0  0  0  0  0  0  0  0  0  0
   23.8013    3.2572  -11.9536 C   0  0  0  0  0  0  0  0  0  0  0  0
   24.1910    4.5525  -12.2050 C   0  0  0  0  0  0  0  0  0  0  0  0
   25.2785    5.0720  -11.5368 C   0  0  0  0  0  0  0  0  0  0  0  0
   25.9927    4.3318  -10.6193 C   0  0  0  0  0  0  0  0  0  0  0  0
   25.6012    3.0277  -10.3654 C   0  0  0  0  0  0  0  0  0  0  0  0
   24.5065    2.5090  -11.0400 C   0  0  0  0  0  0  0  0  0  0  0  0
   24.0755    1.9113  -14.4737 C   0  0  0  0  0  0  0  0  0  0  0  0
   24.1492    0.6811  -14.1787 O   0  0  0  0  0  0  0  0  0  0  0  0
   26.6252    1.6841  -16.8853 C   0  0  0  0  0  0  0  0  0  0  0  0
   26.3481    1.7551  -15.3950 C   0  0  2  0  0  0  0  0  0  0  0  0
   25.1926    2.5382  -15.0912 N   0  0  0  0  0  0  0  0  0  0  0  0
   27.5112    2.3158  -14.6919 C   0  0  0  0  0  0  0  0  0  0  0  0
   27.4269    3.4326  -14.1314 O   0  0  0  0  0  0  0  0  0  0  0  0
   28.7114    1.6026  -14.6489 O   0  0  0  0  0  0  0  0  0  0  0  0
  2  1  1  1
  3  2  1  0
  4  6  1  0
  4  2  1  0
  4  5  1  6
  6  8  1  0
  7  6  2  0
  8  9  1  0
  9 10  1  1
 10 11  1  0
 11 16  2  0
 11 12  1  0
 12 13  2  0
 13 14  1  0
 15 14  2  0
 16 15  1  0
 17  9  1  0
 18 17  2  0
 20 19  1  6
 20 21  1  0
 21 17  1  0
 22 24  1  0
 22 20  1  0
 23 22  2  0
M  END
$$$$
