TFA.pdb
     RDKit          3D

 24 24  0  0  1  0  0  0  0  0999 V2000
   23.4793   -7.8693  -21.9385 C   0  0  0  0  0  0  0  0  0  0  0  0
   22.6508   -7.4037  -20.7606 C   0  0  1  0  0  0  0  0  0  0  0  0
   21.3322   -7.8424  -20.9680 O   0  0  0  0  0  0  0  0  0  0  0  0
   23.1762   -8.1051  -19.5293 C   0  0  2  0  0  0  0  0  0  0  0  0
   23.1233   -9.5388  -19.6769 N   0  0  0  0  0  0  0  0  0  0  0  0
   22.4949   -7.7036  -18.2993 C   0  0  0  0  0  0  0  0  0  0  0  0
   21.7237   -8.4547  -17.6417 O   0  0  0  0  0  0  0  0  0  0  0  0
   22.7052   -6.3875  -17.8015 N   0  0  0  0  0  0  0  0  0  0  0  0
   22.0645   -5.8567  -16.6380 C   0  0  1  0  0  0  0  0  0  0  0  0
   23.0903   -5.8074  -15.5199 C   0  0  0  0  0  0  0  0  0  0  0  0
   23.3921   -7.1204  -14.9506 C   0  0  0  0  0  0  0  0  0  0  0  0
   22.5870   -7.6733  -13.9815 C   0  0  0  0  0  0  0  0  0  0  0  0
   22.9032   -8.9121  -13.4672 C   0  0  0  0  0  0  0  0  0  0  0  0
   24.0063   -9.6194  -13.8946 C   0  0  0  0  0  0  0  0  0  0  0  0
   24.8175   -9.0637  -14.8701 C   0  0  0  0  0  0  0  0  0  0  0  0
   24.4956   -7.8171  -15.3848 C   0  0  0  0  0  0  0  0  0  0  0  0
   21.4697   -4.5329  -16.8225 C   0  0  0  0  0  0  0  0  0  0  0  0
   22.1979   -3.6416  -17.3530 O   0  0  0  0  0  0  0  0  0  0  0  0
   18.2021   -2.9582  -17.2837 C   0  0  0  0  0  0  0  0  0  0  0  0
   19.6294   -2.9055  -16.7710 C   0  0  2  0  0  0  0  0  0  0  0  0
   20.1402   -4.1990  -16.4444 N   0  0  0  0  0  0  0  0  0  0  0  0
   19.7076   -2.0406  -15.5847 C   0  0  0  0  0  0  0  0  0  0  0  0
   19.6878   -2.5448  -14.4384 O   0  0  0  0  0  0  0  0  0  0  0  0
   19.8041   -0.6554  -15.7358 O   0  0  0  0  0  0  0  0  0  0  0  0
  2  1  1  6
  3  2  1  0
  4  6  1  0
  4  2  1  0
  4  5  1  6
  6  8  1  0
  7  6  2  0
  8  9  1  0
  9 10  1  1
 10 11  1  0
 11 16  2  0
 11 12  1  0
 12 13  2  0
 13 14  1  0
 15 14  2  0
 16 15  1  0
 17  9  1  0
 18 17  2  0
 20 19  1  1
 20 21  1  0
 21 17  1  0
 22 24  1  0
 22 20  1  0
 23 22  2  0
M  END
$$$$
