TFA.pdb
     RDKit          3D

 24 24  0  0  1  0  0  0  0  0999 V2000
   27.5592   -6.1489  -24.2665 C   0  0  0  0  0  0  0  0  0  0  0  0
   26.6722   -6.6157  -23.1325 C   0  0  1  0  0  0  0  0  0  0  0  0
   25.3380   -6.4669  -23.5471 O   0  0  0  0  0  0  0  0  0  0  0  0
   26.9261   -8.0924  -22.9347 C   0  0  2  0  0  0  0  0  0  0  0  0
   26.6661   -8.8378  -24.1417 N   0  0  0  0  0  0  0  0  0  0  0  0
   26.1716   -8.6654  -21.8208 C   0  0  0  0  0  0  0  0  0  0  0  0
   25.1169   -9.3439  -21.9571 O   0  0  0  0  0  0  0  0  0  0  0  0
   26.6444   -8.4529  -20.4959 N   0  0  0  0  0  0  0  0  0  0  0  0
   25.9815   -8.9274  -19.3205 C   0  0  1  0  0  0  0  0  0  0  0  0
   27.0278   -9.5433  -18.4091 C   0  0  0  0  0  0  0  0  0  0  0  0
   26.4609  -10.1740  -17.2175 C   0  0  0  0  0  0  0  0  0  0  0  0
   26.9011   -9.8332  -15.9594 C   0  0  0  0  0  0  0  0  0  0  0  0
   26.3446  -10.4494  -14.8595 C   0  0  0  0  0  0  0  0  0  0  0  0
   25.3554  -11.4017  -14.9796 C   0  0  0  0  0  0  0  0  0  0  0  0
   24.9115  -11.7455  -16.2458 C   0  0  0  0  0  0  0  0  0  0  0  0
   25.4742  -11.1230  -17.3496 C   0  0  0  0  0  0  0  0  0  0  0  0
   25.2306   -7.9049  -18.5919 C   0  0  0  0  0  0  0  0  0  0  0  0
   25.8770   -6.8934  -18.1859 O   0  0  0  0  0  0  0  0  0  0  0  0
   21.6973   -6.8258  -18.0406 C   0  0  0  0  0  0  0  0  0  0  0  0
   23.1808   -6.8649  -17.7233 C   0  0  2  0  0  0  0  0  0  0  0  0
   23.8372   -7.9848  -18.3197 N   0  0  0  0  0  0  0  0  0  0  0  0
   23.3844   -6.9033  -16.2678 C   0  0  0  0  0  0  0  0  0  0  0  0
   23.5700   -7.9984  -15.6890 O   0  0  0  0  0  0  0  0  0  0  0  0
   23.3710   -5.7176  -15.5295 O   0  0  0  0  0  0  0  0  0  0  0  0
  2  1  1  6
  3  2  1  0
  4  6  1  0
  4  2  1  0
  4  5  1  6
  6  8  1  0
  7  6  2  0
  8  9  1  0
  9 10  1  1
 10 11  1  0
 11 16  2  0
 11 12  1  0
 12 13  2  0
 13 14  1  0
 15 14  2  0
 16 15  1  0
 17  9  1  0
 18 17  2  0
 20 19  1  1
 20 21  1  0
 21 17  1  0
 22 24  1  0
 22 20  1  0
 23 22  2  0
M  END
$$$$
