TFA.pdb
     RDKit          3D

 24 24  0  0  1  0  0  0  0  0999 V2000
   16.3474  -10.4007  -18.8626 C   0  0  0  0  0  0  0  0  0  0  0  0
   15.9802  -11.5579  -17.9590 C   0  0  1  0  0  0  0  0  0  0  0  0
   15.7238  -12.6714  -18.7765 O   0  0  0  0  0  0  0  0  0  0  0  0
   17.1932  -11.8802  -17.1169 C   0  0  2  0  0  0  0  0  0  0  0  0
   17.0143  -13.1097  -16.3846 N   0  0  0  0  0  0  0  0  0  0  0  0
   17.5653  -10.8024  -16.2014 C   0  0  0  0  0  0  0  0  0  0  0  0
   16.9371  -10.5264  -15.1429 O   0  0  0  0  0  0  0  0  0  0  0  0
   18.7041  -10.0076  -16.5106 N   0  0  0  0  0  0  0  0  0  0  0  0
   19.0936   -8.8425  -15.7779 C   0  0  1  0  0  0  0  0  0  0  0  0
   20.6019   -8.8773  -15.6100 C   0  0  0  0  0  0  0  0  0  0  0  0
   21.1382   -7.6968  -14.9332 C   0  0  0  0  0  0  0  0  0  0  0  0
   21.7438   -6.6873  -15.6451 C   0  0  0  0  0  0  0  0  0  0  0  0
   22.2387   -5.5904  -14.9735 C   0  0  0  0  0  0  0  0  0  0  0  0
   22.1459   -5.4712  -13.6034 C   0  0  0  0  0  0  0  0  0  0  0  0
   21.5364   -6.4869  -12.8857 C   0  0  0  0  0  0  0  0  0  0  0  0
   21.0400   -7.5887  -13.5656 C   0  0  0  0  0  0  0  0  0  0  0  0
   18.6931   -7.5765  -16.3921 C   0  0  0  0  0  0  0  0  0  0  0  0
   19.0416   -7.3826  -17.5950 O   0  0  0  0  0  0  0  0  0  0  0  0
   16.2548   -4.9260  -16.3855 C   0  0  0  0  0  0  0  0  0  0  0  0
   17.7201   -5.3202  -16.3778 C   0  0  2  0  0  0  0  0  0  0  0  0
   17.9461   -6.5690  -15.7220 N   0  0  0  0  0  0  0  0  0  0  0  0
   18.5197   -4.2765  -15.7200 C   0  0  0  0  0  0  0  0  0  0  0  0
   18.8381   -3.2408  -16.3481 O   0  0  0  0  0  0  0  0  0  0  0  0
   18.9249   -4.4398  -14.3933 O   0  0  0  0  0  0  0  0  0  0  0  0
  2  1  1  6
  3  2  1  0
  4  6  1  0
  4  2  1  0
  4  5  1  1
  6  8  1  0
  7  6  2  0
  8  9  1  0
  9 10  1  6
 10 11  1  0
 11 16  2  0
 11 12  1  0
 12 13  2  0
 13 14  1  0
 15 14  2  0
 16 15  1  0
 17  9  1  0
 18 17  2  0
 20 19  1  1
 20 21  1  0
 21 17  1  0
 22 24  1  0
 22 20  1  0
 23 22  2  0
M  END
$$$$
