TFA.pdb
     RDKit          3D

 24 24  0  0  1  0  0  0  0  0999 V2000
   26.9512  -17.9963  -19.1796 C   0  0  0  0  0  0  0  0  0  0  0  0
   26.3010  -18.6984  -18.0070 C   0  0  1  0  0  0  0  0  0  0  0  0
   25.1912  -19.4067  -18.4974 O   0  0  0  0  0  0  0  0  0  0  0  0
   27.2903  -19.7108  -17.4774 C   0  0  2  0  0  0  0  0  0  0  0  0
   27.6821  -20.6492  -18.5002 N   0  0  0  0  0  0  0  0  0  0  0  0
   26.8087  -20.4287  -16.2981 C   0  0  0  0  0  0  0  0  0  0  0  0
   26.3434  -21.6010  -16.3260 O   0  0  0  0  0  0  0  0  0  0  0  0
   26.8619  -19.7775  -15.0342 N   0  0  0  0  0  0  0  0  0  0  0  0
   26.2921  -20.3063  -13.8334 C   0  0  1  0  0  0  0  0  0  0  0  0
   26.9750  -19.6346  -12.6557 C   0  0  0  0  0  0  0  0  0  0  0  0
   26.4835  -20.0975  -11.3583 C   0  0  0  0  0  0  0  0  0  0  0  0
   25.6420  -19.3159  -10.6007 C   0  0  0  0  0  0  0  0  0  0  0  0
   25.2000  -19.7844   -9.3825 C   0  0  0  0  0  0  0  0  0  0  0  0
   25.5757  -21.0179   -8.8954 C   0  0  0  0  0  0  0  0  0  0  0  0
   26.4229  -21.8055   -9.6573 C   0  0  0  0  0  0  0  0  0  0  0  0
   26.8652  -21.3301  -10.8824 C   0  0  0  0  0  0  0  0  0  0  0  0
   24.8426  -20.1412  -13.7249 C   0  0  0  0  0  0  0  0  0  0  0  0
   24.3730  -18.9890  -13.9661 O   0  0  0  0  0  0  0  0  0  0  0  0
   21.7141  -21.7766  -14.1842 C   0  0  0  0  0  0  0  0  0  0  0  0
   22.5514  -20.9029  -13.2685 C   0  0  2  0  0  0  0  0  0  0  0  0
   23.9477  -21.1875  -13.3692 N   0  0  0  0  0  0  0  0  0  0  0  0
   22.1214  -21.0769  -11.8735 C   0  0  0  0  0  0  0  0  0  0  0  0
   22.9027  -21.5811  -11.0344 O   0  0  0  0  0  0  0  0  0  0  0  0
   20.8405  -20.6796  -11.4831 O   0  0  0  0  0  0  0  0  0  0  0  0
  2  1  1  6
  3  2  1  0
  4  6  1  0
  4  2  1  0
  4  5  1  6
  6  8  1  0
  7  6  2  0
  8  9  1  0
  9 10  1  1
 10 11  1  0
 11 16  2  0
 11 12  1  0
 12 13  2  0
 13 14  1  0
 15 14  2  0
 16 15  1  0
 17  9  1  0
 18 17  2  0
 20 19  1  6
 20 21  1  0
 21 17  1  0
 22 24  1  0
 22 20  1  0
 23 22  2  0
M  END
$$$$
