FEP.pdb
     RDKit          3D

 28 29  0  0  1  0  0  0  0  0999 V2000
   18.9717  -11.6746  -18.5600 N   0  0  0  0  0  0  0  0  0  0  0  0
   19.0439  -11.2864  -17.1865 C   0  0  1  0  0  0  0  0  0  0  0  0
   19.9801  -12.1561  -16.4105 C   0  0  0  0  0  0  0  0  0  0  0  0
   19.4899  -13.5442  -16.4610 C   0  0  0  0  0  0  0  0  0  0  0  0
   20.0811  -14.4873  -17.2724 C   0  0  0  0  0  0  0  0  0  0  0  0
   19.6150  -15.7949  -17.3179 C   0  0  0  0  0  0  0  0  0  0  0  0
   18.5432  -16.1746  -16.5451 C   0  0  0  0  0  0  0  0  0  0  0  0
   17.9413  -15.2444  -15.7291 C   0  0  0  0  0  0  0  0  0  0  0  0
   18.4201  -13.9349  -15.6934 C   0  0  0  0  0  0  0  0  0  0  0  0
   19.3038   -9.8346  -17.0116 C   0  0  0  0  0  0  0  0  0  0  0  0
   20.3901   -9.3678  -17.4373 O   0  0  0  0  0  0  0  0  0  0  0  0
   18.3843   -8.9606  -16.3888 N   0  0  0  0  0  0  0  0  0  0  0  0
   18.6992   -7.5565  -16.1933 C   0  0  1  0  0  0  0  0  0  0  0  0
   17.4323   -6.8126  -15.8959 C   0  0  0  0  0  0  0  0  0  0  0  0
   17.5092   -5.3942  -15.5264 C   0  0  0  0  0  0  0  0  0  0  0  0
   16.5819   -4.4372  -16.0861 C   0  0  0  0  0  0  0  0  0  0  0  0
   15.9079   -4.6584  -17.1065 O   0  0  0  0  0  0  0  0  0  0  0  0
   19.7504   -7.3642  -15.2085 C   0  0  0  0  0  0  0  0  0  0  0  0
   19.8121   -8.2096  -14.2456 O   0  0  0  0  0  0  0  0  0  0  0  0
   16.4324   -3.2080  -15.4566 O   0  0  0  0  0  0  0  0  0  0  0  0
   20.7137   -6.3303  -15.2157 N   0  0  0  0  0  0  0  0  0  0  0  0
   20.7536   -5.2151  -16.1998 C   0  0  0  0  0  0  0  0  0  0  0  0
   22.1709   -4.7592  -16.2823 C   0  0  0  0  0  0  0  0  0  0  0  0
   22.9570   -5.7300  -15.3955 C   0  0  0  0  0  0  0  0  0  0  0  0
   21.8554   -6.0610  -14.3778 C   0  0  1  0  0  0  0  0  0  0  0  0
   21.6788   -4.8203  -13.5540 C   0  0  0  0  0  0  0  0  0  0  0  0
   20.6840   -4.0947  -13.7269 O   0  0  0  0  0  0  0  0  0  0  0  0
   22.6092   -4.4638  -12.5971 O   0  0  0  0  0  0  0  0  0  0  0  0
  2  1  1  6
  2  3  1  0
  3  4  1  0
  4  9  1  0
  5  4  2  0
  5  6  1  0
  6  7  2  0
  7  8  1  0
  9  8  2  0
 10 12  1  0
 10  2  1  0
 11 10  2  0
 13 12  1  0
 13 14  1  1
 14 15  1  0
 15 16  1  0
 16 17  2  0
 18 13  1  0
 19 18  2  0
 20 16  1  0
 21 18  1  0
 21 25  1  0
 22 23  1  0
 22 21  1  0
 23 24  1  0
 25 24  1  0
 26 28  1  0
 25 26  1  1
 27 26  2  0
M  END
$$$$
