FEP.pdb
     RDKit          3D

 28 29  0  0  1  0  0  0  0  0999 V2000
   26.2848  -20.8700  -14.3473 N   0  0  0  0  0  0  0  0  0  0  0  0
   25.8564  -22.2030  -14.0610 C   0  0  1  0  0  0  0  0  0  0  0  0
   24.5341  -22.2255  -13.3640 C   0  0  0  0  0  0  0  0  0  0  0  0
   24.6975  -21.6500  -12.0181 C   0  0  0  0  0  0  0  0  0  0  0  0
   25.7965  -21.9398  -11.2398 C   0  0  0  0  0  0  0  0  0  0  0  0
   25.9461  -21.3959   -9.9705 C   0  0  0  0  0  0  0  0  0  0  0  0
   24.9888  -20.5494   -9.4634 C   0  0  0  0  0  0  0  0  0  0  0  0
   23.8849  -20.2498  -10.2282 C   0  0  0  0  0  0  0  0  0  0  0  0
   23.7478  -20.8031  -11.5011 C   0  0  0  0  0  0  0  0  0  0  0  0
   25.9140  -23.0935  -15.2482 C   0  0  0  0  0  0  0  0  0  0  0  0
   25.6493  -22.6035  -16.3747 O   0  0  0  0  0  0  0  0  0  0  0  0
   26.2522  -24.4631  -15.1637 N   0  0  0  0  0  0  0  0  0  0  0  0
   26.3479  -25.2867  -16.3560 C   0  0  1  0  0  0  0  0  0  0  0  0
   26.9347  -26.6143  -15.9822 C   0  0  0  0  0  0  0  0  0  0  0  0
   27.1340  -27.6248  -17.0279 C   0  0  0  0  0  0  0  0  0  0  0  0
   28.4203  -27.7751  -17.6697 C   0  0  0  0  0  0  0  0  0  0  0  0
   29.4886  -27.8655  -17.0412 O   0  0  0  0  0  0  0  0  0  0  0  0
   25.0819  -25.3711  -17.0648 C   0  0  0  0  0  0  0  0  0  0  0  0
   24.0115  -25.2951  -16.3620 O   0  0  0  0  0  0  0  0  0  0  0  0
   28.4710  -27.8217  -19.0571 O   0  0  0  0  0  0  0  0  0  0  0  0
   24.9222  -25.5274  -18.4602 N   0  0  0  0  0  0  0  0  0  0  0  0
   26.0407  -25.6111  -19.4377 C   0  0  0  0  0  0  0  0  0  0  0  0
   25.5097  -25.1346  -20.7470 C   0  0  0  0  0  0  0  0  0  0  0  0
   24.0802  -24.6681  -20.4545 C   0  0  0  0  0  0  0  0  0  0  0  0
   23.7539  -25.6256  -19.2988 C   0  0  1  0  0  0  0  0  0  0  0  0
   23.6123  -26.9815  -19.9238 C   0  0  0  0  0  0  0  0  0  0  0  0
   22.5872  -27.2663  -20.5672 O   0  0  0  0  0  0  0  0  0  0  0  0
   24.6085  -27.9303  -19.7974 O   0  0  0  0  0  0  0  0  0  0  0  0
  2  1  1  6
  2  3  1  0
  3  4  1  0
  4  9  1  0
  5  4  2  0
  5  6  1  0
  6  7  2  0
  7  8  1  0
  9  8  2  0
 10 12  1  0
 10  2  1  0
 11 10  2  0
 13 12  1  0
 13 14  1  1
 14 15  1  0
 15 16  1  0
 16 17  2  0
 18 13  1  0
 19 18  2  0
 20 16  1  0
 21 18  1  0
 21 25  1  0
 22 23  1  0
 22 21  1  0
 23 24  1  0
 25 24  1  0
 26 28  1  0
 25 26  1  6
 27 26  2  0
M  END
$$$$
