FEP.pdb
     RDKit          3D

 28 29  0  0  1  0  0  0  0  0999 V2000
   19.3874  -12.7362  -15.8841 N   0  0  0  0  0  0  0  0  0  0  0  0
   19.7511  -11.6340  -16.7178 C   0  0  1  0  0  0  0  0  0  0  0  0
   19.1598  -11.7515  -18.0859 C   0  0  0  0  0  0  0  0  0  0  0  0
   19.7125  -12.9499  -18.7401 C   0  0  0  0  0  0  0  0  0  0  0  0
   20.9448  -12.9306  -19.3553 C   0  0  0  0  0  0  0  0  0  0  0  0
   21.4616  -14.0628  -19.9720 C   0  0  0  0  0  0  0  0  0  0  0  0
   20.7439  -15.2353  -19.9792 C   0  0  0  0  0  0  0  0  0  0  0  0
   19.5111  -15.2712  -19.3691 C   0  0  0  0  0  0  0  0  0  0  0  0
   19.0045  -14.1267  -18.7535 C   0  0  0  0  0  0  0  0  0  0  0  0
   19.4983  -10.3187  -16.0758 C   0  0  0  0  0  0  0  0  0  0  0  0
   18.4218  -10.1588  -15.4477 O   0  0  0  0  0  0  0  0  0  0  0  0
   20.4143   -9.2445  -16.1421 N   0  0  0  0  0  0  0  0  0  0  0  0
   20.0965   -7.9515  -15.5623 C   0  0  1  0  0  0  0  0  0  0  0  0
   21.3278   -7.3958  -14.9128 C   0  0  0  0  0  0  0  0  0  0  0  0
   21.2625   -6.0757  -14.2747 C   0  0  0  0  0  0  0  0  0  0  0  0
   22.4210   -5.5213  -13.6117 C   0  0  0  0  0  0  0  0  0  0  0  0
   22.3836   -5.0335  -12.4693 O   0  0  0  0  0  0  0  0  0  0  0  0
   19.4743   -7.0588  -16.5256 C   0  0  0  0  0  0  0  0  0  0  0  0
   19.9170   -7.0960  -17.7290 O   0  0  0  0  0  0  0  0  0  0  0  0
   23.6391   -5.5317  -14.2795 O   0  0  0  0  0  0  0  0  0  0  0  0
   18.4229   -6.1534  -16.2576 N   0  0  0  0  0  0  0  0  0  0  0  0
   17.7658   -5.9846  -14.9335 C   0  0  0  0  0  0  0  0  0  0  0  0
   16.3875   -5.4789  -15.1939 C   0  0  0  0  0  0  0  0  0  0  0  0
   16.2432   -5.4742  -16.7190 C   0  0  0  0  0  0  0  0  0  0  0  0
   17.7110   -5.2177  -17.0917 C   0  0  1  0  0  0  0  0  0  0  0  0
   17.9825   -3.7927  -16.7113 C   0  0  0  0  0  0  0  0  0  0  0  0
   17.4729   -2.8660  -17.3650 O   0  0  0  0  0  0  0  0  0  0  0  0
   18.7960   -3.4860  -15.6377 O   0  0  0  0  0  0  0  0  0  0  0  0
  2  1  1  1
  2  3  1  0
  3  4  1  0
  4  9  1  0
  5  4  2  0
  5  6  1  0
  6  7  2  0
  7  8  1  0
  9  8  2  0
 10 12  1  0
 10  2  1  0
 11 10  2  0
 13 12  1  0
 13 14  1  6
 14 15  1  0
 15 16  1  0
 16 17  2  0
 18 13  1  0
 19 18  2  0
 20 16  1  0
 21 18  1  0
 21 25  1  0
 22 23  1  0
 22 21  1  0
 23 24  1  0
 25 24  1  0
 26 28  1  0
 25 26  1  1
 27 26  2  0
M  END
$$$$
