FEP.pdb
     RDKit          3D

 28 29  0  0  1  0  0  0  0  0999 V2000
   26.8742  -18.2556   -8.4033 N   0  0  0  0  0  0  0  0  0  0  0  0
   26.7943  -19.6534   -8.6896 C   0  0  1  0  0  0  0  0  0  0  0  0
   26.4450  -20.4517   -7.4749 C   0  0  0  0  0  0  0  0  0  0  0  0
   27.4913  -20.2502   -6.4579 C   0  0  0  0  0  0  0  0  0  0  0  0
   28.6464  -21.0006   -6.4550 C   0  0  0  0  0  0  0  0  0  0  0  0
   29.6300  -20.8082   -5.4933 C   0  0  0  0  0  0  0  0  0  0  0  0
   29.4656  -19.8546   -4.5168 C   0  0  0  0  0  0  0  0  0  0  0  0
   28.3173  -19.0965   -4.5056 C   0  0  0  0  0  0  0  0  0  0  0  0
   27.3380  -19.3006   -5.4776 C   0  0  0  0  0  0  0  0  0  0  0  0
   25.9322  -19.9526   -9.8614 C   0  0  0  0  0  0  0  0  0  0  0  0
   24.7971  -19.4166   -9.9190 O   0  0  0  0  0  0  0  0  0  0  0  0
   26.3337  -20.8116  -10.9094 N   0  0  0  0  0  0  0  0  0  0  0  0
   25.6417  -20.8110  -12.1861 C   0  0  1  0  0  0  0  0  0  0  0  0
   26.3978  -21.6772  -13.1477 C   0  0  0  0  0  0  0  0  0  0  0  0
   25.8925  -21.8305  -14.5171 C   0  0  0  0  0  0  0  0  0  0  0  0
   26.6302  -22.6029  -15.4910 C   0  0  0  0  0  0  0  0  0  0  0  0
   26.5426  -23.8387  -15.5880 O   0  0  0  0  0  0  0  0  0  0  0  0
   24.2373  -21.1579  -12.0464 C   0  0  0  0  0  0  0  0  0  0  0  0
   23.9271  -21.9764  -11.1087 O   0  0  0  0  0  0  0  0  0  0  0  0
   27.4803  -21.9363  -16.3642 O   0  0  0  0  0  0  0  0  0  0  0  0
   23.1802  -20.6734  -12.8494 N   0  0  0  0  0  0  0  0  0  0  0  0
   23.3563  -19.8669  -14.0872 C   0  0  0  0  0  0  0  0  0  0  0  0
   22.1187  -19.0522  -14.2544 C   0  0  0  0  0  0  0  0  0  0  0  0
   21.2784  -19.3379  -13.0058 C   0  0  0  0  0  0  0  0  0  0  0  0
   21.7470  -20.7748  -12.7326 C   0  0  1  0  0  0  0  0  0  0  0  0
   21.1434  -21.6115  -13.8210 C   0  0  0  0  0  0  0  0  0  0  0  0
   21.8294  -21.9447  -14.8030 O   0  0  0  0  0  0  0  0  0  0  0  0
   19.8266  -22.0238  -13.7535 O   0  0  0  0  0  0  0  0  0  0  0  0
  2  1  1  1
  2  3  1  0
  3  4  1  0
  4  9  1  0
  5  4  2  0
  5  6  1  0
  6  7  2  0
  7  8  1  0
  9  8  2  0
 10 12  1  0
 10  2  1  0
 11 10  2  0
 13 12  1  0
 13 14  1  6
 14 15  1  0
 15 16  1  0
 16 17  2  0
 18 13  1  0
 19 18  2  0
 20 16  1  0
 21 18  1  0
 21 25  1  0
 22 23  1  0
 22 21  1  0
 23 24  1  0
 25 24  1  0
 26 28  1  0
 25 26  1  6
 27 26  2  0
M  END
$$$$
