FEP.pdb
     RDKit          3D

 28 29  0  0  1  0  0  0  0  0999 V2000
   26.1851  -18.5631   -7.6843 N   0  0  0  0  0  0  0  0  0  0  0  0
   26.9080  -19.6375   -8.2887 C   0  0  1  0  0  0  0  0  0  0  0  0
   27.0232  -20.8149   -7.3747 C   0  0  0  0  0  0  0  0  0  0  0  0
   27.9103  -20.4601   -6.2537 C   0  0  0  0  0  0  0  0  0  0  0  0
   27.4070  -20.0356   -5.0438 C   0  0  0  0  0  0  0  0  0  0  0  0
   28.2472  -19.7009   -3.9897 C   0  0  0  0  0  0  0  0  0  0  0  0
   29.6112  -19.7884   -4.1375 C   0  0  0  0  0  0  0  0  0  0  0  0
   30.1301  -20.2108   -5.3399 C   0  0  0  0  0  0  0  0  0  0  0  0
   29.2744  -20.5438   -6.3898 C   0  0  0  0  0  0  0  0  0  0  0  0
   26.3988  -19.9858   -9.6397 C   0  0  0  0  0  0  0  0  0  0  0  0
   25.1651  -19.8846   -9.8564 O   0  0  0  0  0  0  0  0  0  0  0  0
   27.2404  -20.4246  -10.6868 N   0  0  0  0  0  0  0  0  0  0  0  0
   26.7771  -20.4440  -12.0630 C   0  0  1  0  0  0  0  0  0  0  0  0
   27.9419  -20.7279  -12.9626 C   0  0  0  0  0  0  0  0  0  0  0  0
   27.7079  -20.8843  -14.4031 C   0  0  0  0  0  0  0  0  0  0  0  0
   27.4164  -19.7351  -15.2298 C   0  0  0  0  0  0  0  0  0  0  0  0
   26.5771  -19.7505  -16.1461 O   0  0  0  0  0  0  0  0  0  0  0  0
   25.6479  -21.3401  -12.2467 C   0  0  0  0  0  0  0  0  0  0  0  0
   25.7035  -22.4797  -11.6602 O   0  0  0  0  0  0  0  0  0  0  0  0
   28.1053  -18.5523  -14.9929 O   0  0  0  0  0  0  0  0  0  0  0  0
   24.4911  -21.0695  -13.0120 N   0  0  0  0  0  0  0  0  0  0  0  0
   24.2852  -19.8468  -13.8344 C   0  0  0  0  0  0  0  0  0  0  0  0
   22.8128  -19.6335  -13.9342 C   0  0  0  0  0  0  0  0  0  0  0  0
   22.1896  -20.7130  -13.0438 C   0  0  0  0  0  0  0  0  0  0  0  0
   23.2633  -21.7990  -13.2072 C   0  0  1  0  0  0  0  0  0  0  0  0
   23.1171  -22.3053  -14.6112 C   0  0  0  0  0  0  0  0  0  0  0  0
   22.1671  -23.0502  -14.9086 O   0  0  0  0  0  0  0  0  0  0  0  0
   24.0266  -21.9568  -15.5910 O   0  0  0  0  0  0  0  0  0  0  0  0
  2  1  1  1
  2  3  1  0
  3  4  1  0
  4  9  1  0
  5  4  2  0
  5  6  1  0
  6  7  2  0
  7  8  1  0
  9  8  2  0
 10 12  1  0
 10  2  1  0
 11 10  2  0
 13 12  1  0
 13 14  1  6
 14 15  1  0
 15 16  1  0
 16 17  2  0
 18 13  1  0
 19 18  2  0
 20 16  1  0
 21 18  1  0
 21 25  1  0
 22 23  1  0
 22 21  1  0
 23 24  1  0
 25 24  1  0
 26 28  1  0
 25 26  1  6
 27 26  2  0
M  END
$$$$
