FEP.pdb
     RDKit          3D

 28 29  0  0  1  0  0  0  0  0999 V2000
   31.9770  -32.2407  -16.0408 N   0  0  0  0  0  0  0  0  0  0  0  0
   31.1170  -31.8651  -17.1186 C   0  0  1  0  0  0  0  0  0  0  0  0
   31.3919  -32.6611  -18.3538 C   0  0  0  0  0  0  0  0  0  0  0  0
   32.7273  -32.3029  -18.8616 C   0  0  0  0  0  0  0  0  0  0  0  0
   32.9337  -31.1579  -19.5991 C   0  0  0  0  0  0  0  0  0  0  0  0
   34.1945  -30.8244  -20.0771 C   0  0  0  0  0  0  0  0  0  0  0  0
   35.2702  -31.6408  -19.8195 C   0  0  0  0  0  0  0  0  0  0  0  0
   35.0809  -32.7883  -19.0842 C   0  0  0  0  0  0  0  0  0  0  0  0
   33.8093  -33.1106  -18.6105 C   0  0  0  0  0  0  0  0  0  0  0  0
   29.6830  -31.8498  -16.7323 C   0  0  0  0  0  0  0  0  0  0  0  0
   29.2782  -32.7077  -15.9082 O   0  0  0  0  0  0  0  0  0  0  0  0
   28.7591  -30.9147  -17.2512 N   0  0  0  0  0  0  0  0  0  0  0  0
   27.3829  -30.8845  -16.7884 C   0  0  1  0  0  0  0  0  0  0  0  0
   26.7601  -29.5860  -17.2039 C   0  0  0  0  0  0  0  0  0  0  0  0
   26.6201  -29.2887  -18.6344 C   0  0  0  0  0  0  0  0  0  0  0  0
   25.9870  -28.0656  -19.0728 C   0  0  0  0  0  0  0  0  0  0  0  0
   24.7631  -27.9620  -19.2616 O   0  0  0  0  0  0  0  0  0  0  0  0
   26.6409  -32.0630  -17.2035 C   0  0  0  0  0  0  0  0  0  0  0  0
   27.0766  -32.6977  -18.2297 O   0  0  0  0  0  0  0  0  0  0  0  0
   26.7807  -26.9474  -19.2954 O   0  0  0  0  0  0  0  0  0  0  0  0
   25.4822  -32.5759  -16.5778 N   0  0  0  0  0  0  0  0  0  0  0  0
   24.8085  -31.9583  -15.4038 C   0  0  0  0  0  0  0  0  0  0  0  0
   24.0949  -33.0536  -14.6867 C   0  0  0  0  0  0  0  0  0  0  0  0
   24.4800  -34.3370  -15.4292 C   0  0  0  0  0  0  0  0  0  0  0  0
   24.6777  -33.7446  -16.8324 C   0  0  1  0  0  0  0  0  0  0  0  0
   23.3037  -33.3961  -17.3222 C   0  0  0  0  0  0  0  0  0  0  0  0
   22.5028  -34.2981  -17.6234 O   0  0  0  0  0  0  0  0  0  0  0  0
   22.9061  -32.0789  -17.4466 O   0  0  0  0  0  0  0  0  0  0  0  0
  2  1  1  1
  2  3  1  0
  3  4  1  0
  4  9  1  0
  5  4  2  0
  5  6  1  0
  6  7  2  0
  7  8  1  0
  9  8  2  0
 10 12  1  0
 10  2  1  0
 11 10  2  0
 13 12  1  0
 13 14  1  6
 14 15  1  0
 15 16  1  0
 16 17  2  0
 18 13  1  0
 19 18  2  0
 20 16  1  0
 21 18  1  0
 21 25  1  0
 22 23  1  0
 22 21  1  0
 23 24  1  0
 25 24  1  0
 26 28  1  0
 25 26  1  1
 27 26  2  0
M  END
$$$$
