FEP.pdb
     RDKit          3D

 28 29  0  0  1  0  0  0  0  0999 V2000
   29.1912  -31.4277   -9.1719 N   0  0  0  0  0  0  0  0  0  0  0  0
   29.5573  -32.4023   -8.1929 C   0  0  1  0  0  0  0  0  0  0  0  0
   30.6013  -31.8855   -7.2559 C   0  0  0  0  0  0  0  0  0  0  0  0
   31.9243  -32.3257   -7.7304 C   0  0  0  0  0  0  0  0  0  0  0  0
   32.7086  -31.5197   -8.5258 C   0  0  0  0  0  0  0  0  0  0  0  0
   33.9553  -31.9392   -8.9721 C   0  0  0  0  0  0  0  0  0  0  0  0
   34.4331  -33.1803   -8.6238 C   0  0  0  0  0  0  0  0  0  0  0  0
   33.6619  -33.9977   -7.8298 C   0  0  0  0  0  0  0  0  0  0  0  0
   32.4120  -33.5633   -7.3888 C   0  0  0  0  0  0  0  0  0  0  0  0
   28.3830  -32.9932   -7.5017 C   0  0  0  0  0  0  0  0  0  0  0  0
   27.3888  -32.2572   -7.2804 O   0  0  0  0  0  0  0  0  0  0  0  0
   28.3379  -34.3426   -7.0842 N   0  0  0  0  0  0  0  0  0  0  0  0
   27.1861  -34.8695   -6.3739 C   0  0  1  0  0  0  0  0  0  0  0  0
   27.1009  -36.3462   -6.6166 C   0  0  0  0  0  0  0  0  0  0  0  0
   25.9679  -37.0953   -6.0602 C   0  0  0  0  0  0  0  0  0  0  0  0
   25.8625  -38.5232   -6.2576 C   0  0  0  0  0  0  0  0  0  0  0  0
   26.3626  -39.3566   -5.4830 O   0  0  0  0  0  0  0  0  0  0  0  0
   27.1911  -34.4940   -4.9700 C   0  0  0  0  0  0  0  0  0  0  0  0
   28.3328  -34.4065   -4.3916 O   0  0  0  0  0  0  0  0  0  0  0  0
   25.1691  -38.9931   -7.3657 O   0  0  0  0  0  0  0  0  0  0  0  0
   26.0513  -34.2139   -4.1829 N   0  0  0  0  0  0  0  0  0  0  0  0
   24.6449  -34.3417   -4.6514 C   0  0  0  0  0  0  0  0  0  0  0  0
   23.8281  -33.3978   -3.8359 C   0  0  0  0  0  0  0  0  0  0  0  0
   24.8372  -32.6439   -2.9639 C   0  0  0  0  0  0  0  0  0  0  0  0
   25.8979  -33.7463   -2.8281 C   0  0  1  0  0  0  0  0  0  0  0  0
   25.2911  -34.7840   -1.9314 C   0  0  0  0  0  0  0  0  0  0  0  0
   25.1825  -34.5665   -0.7120 O   0  0  0  0  0  0  0  0  0  0  0  0
   24.8458  -35.9894   -2.4385 O   0  0  0  0  0  0  0  0  0  0  0  0
  2  1  1  1
  2  3  1  0
  3  4  1  0
  4  9  1  0
  5  4  2  0
  5  6  1  0
  6  7  2  0
  7  8  1  0
  9  8  2  0
 10 12  1  0
 10  2  1  0
 11 10  2  0
 13 12  1  0
 13 14  1  1
 14 15  1  0
 15 16  1  0
 16 17  2  0
 18 13  1  0
 19 18  2  0
 20 16  1  0
 21 18  1  0
 21 25  1  0
 22 23  1  0
 22 21  1  0
 23 24  1  0
 25 24  1  0
 26 28  1  0
 25 26  1  1
 27 26  2  0
M  END
$$$$
