FEP.pdb
     RDKit          3D

 28 29  0  0  1  0  0  0  0  0999 V2000
   25.6147  -21.2850   -6.9131 N   0  0  0  0  0  0  0  0  0  0  0  0
   26.3304  -20.5443   -7.9037 C   0  0  1  0  0  0  0  0  0  0  0  0
   27.8056  -20.5729   -7.6628 C   0  0  0  0  0  0  0  0  0  0  0  0
   28.0829  -19.9740   -6.3460 C   0  0  0  0  0  0  0  0  0  0  0  0
   28.5145  -20.7380   -5.2842 C   0  0  0  0  0  0  0  0  0  0  0  0
   28.7737  -20.1694   -4.0437 C   0  0  0  0  0  0  0  0  0  0  0  0
   28.6018  -18.8189   -3.8523 C   0  0  0  0  0  0  0  0  0  0  0  0
   28.1711  -18.0416   -4.9029 C   0  0  0  0  0  0  0  0  0  0  0  0
   27.9148  -18.6261   -6.1430 C   0  0  0  0  0  0  0  0  0  0  0  0
   25.9505  -20.9200   -9.2895 C   0  0  0  0  0  0  0  0  0  0  0  0
   26.4503  -21.9619   -9.7831 O   0  0  0  0  0  0  0  0  0  0  0  0
   25.0545  -20.1575  -10.0724 N   0  0  0  0  0  0  0  0  0  0  0  0
   24.8477  -20.4549  -11.4787 C   0  0  1  0  0  0  0  0  0  0  0  0
   23.4534  -20.0570  -11.8584 C   0  0  0  0  0  0  0  0  0  0  0  0
   22.3274  -20.8754  -11.3931 C   0  0  0  0  0  0  0  0  0  0  0  0
   20.9713  -20.5382  -11.7621 C   0  0  0  0  0  0  0  0  0  0  0  0
   20.4623  -20.8566  -12.8502 O   0  0  0  0  0  0  0  0  0  0  0  0
   25.8837  -19.8761  -12.3176 C   0  0  0  0  0  0  0  0  0  0  0  0
   26.4009  -18.7685  -11.9287 O   0  0  0  0  0  0  0  0  0  0  0  0
   20.1937  -19.8232  -10.8600 O   0  0  0  0  0  0  0  0  0  0  0  0
   26.3757  -20.4240  -13.5238 N   0  0  0  0  0  0  0  0  0  0  0  0
   25.8941  -21.6903  -14.1387 C   0  0  0  0  0  0  0  0  0  0  0  0
   27.0164  -22.2288  -14.9595 C   0  0  0  0  0  0  0  0  0  0  0  0
   28.1935  -21.2836  -14.6992 C   0  0  0  0  0  0  0  0  0  0  0  0
   27.4032  -19.9928  -14.4382 C   0  0  1  0  0  0  0  0  0  0  0  0
   26.8473  -19.5820  -15.7691 C   0  0  0  0  0  0  0  0  0  0  0  0
   25.6398  -19.7454  -16.0166 O   0  0  0  0  0  0  0  0  0  0  0  0
   27.6586  -19.0199  -16.7357 O   0  0  0  0  0  0  0  0  0  0  0  0
  2  1  1  1
  2  3  1  0
  3  4  1  0
  4  9  1  0
  5  4  2  0
  5  6  1  0
  6  7  2  0
  7  8  1  0
  9  8  2  0
 10 12  1  0
 10  2  1  0
 11 10  2  0
 13 12  1  0
 13 14  1  6
 14 15  1  0
 15 16  1  0
 16 17  2  0
 18 13  1  0
 19 18  2  0
 20 16  1  0
 21 18  1  0
 21 25  1  0
 22 23  1  0
 22 21  1  0
 23 24  1  0
 25 24  1  0
 26 28  1  0
 25 26  1  6
 27 26  2  0
M  END
$$$$
