FEP.pdb
     RDKit          3D

 28 29  0  0  1  0  0  0  0  0999 V2000
   24.7469  -20.4103   -7.4974 N   0  0  0  0  0  0  0  0  0  0  0  0
   25.9413  -20.1953   -8.2520 C   0  0  1  0  0  0  0  0  0  0  0  0
   27.0503  -21.0939   -7.8073 C   0  0  0  0  0  0  0  0  0  0  0  0
   27.7165  -20.4849   -6.6434 C   0  0  0  0  0  0  0  0  0  0  0  0
   27.4278  -20.8856   -5.3575 C   0  0  0  0  0  0  0  0  0  0  0  0
   28.0576  -20.3077   -4.2626 C   0  0  0  0  0  0  0  0  0  0  0  0
   28.9904  -19.3146   -4.4456 C   0  0  0  0  0  0  0  0  0  0  0  0
   29.2901  -18.9028   -5.7239 C   0  0  0  0  0  0  0  0  0  0  0  0
   28.6500  -19.4920   -6.8140 C   0  0  0  0  0  0  0  0  0  0  0  0
   25.7088  -20.2248   -9.7186 C   0  0  0  0  0  0  0  0  0  0  0  0
   24.6161  -20.6801  -10.1401 O   0  0  0  0  0  0  0  0  0  0  0  0
   26.6616  -19.7643  -10.6554 N   0  0  0  0  0  0  0  0  0  0  0  0
   26.2853  -19.4783  -12.0285 C   0  0  1  0  0  0  0  0  0  0  0  0
   27.4591  -18.8719  -12.7365 C   0  0  0  0  0  0  0  0  0  0  0  0
   27.2475  -18.2126  -14.0306 C   0  0  0  0  0  0  0  0  0  0  0  0
   27.7373  -18.8131  -15.2506 C   0  0  0  0  0  0  0  0  0  0  0  0
   28.9184  -19.1656  -15.4098 O   0  0  0  0  0  0  0  0  0  0  0  0
   25.7215  -20.6408  -12.6939 C   0  0  0  0  0  0  0  0  0  0  0  0
   26.2806  -21.7731  -12.4680 O   0  0  0  0  0  0  0  0  0  0  0  0
   26.8488  -19.0085  -16.3003 O   0  0  0  0  0  0  0  0  0  0  0  0
   24.6104  -20.6382  -13.5671 N   0  0  0  0  0  0  0  0  0  0  0  0
   23.8932  -19.4171  -14.0234 C   0  0  0  0  0  0  0  0  0  0  0  0
   22.4996  -19.8305  -14.3553 C   0  0  0  0  0  0  0  0  0  0  0  0
   22.4153  -21.3089  -13.9631 C   0  0  0  0  0  0  0  0  0  0  0  0
   23.8795  -21.7003  -14.2118 C   0  0  1  0  0  0  0  0  0  0  0  0
   24.0540  -21.6910  -15.7012 C   0  0  0  0  0  0  0  0  0  0  0  0
   23.5226  -22.5749  -16.3958 O   0  0  0  0  0  0  0  0  0  0  0  0
   24.8012  -20.7097  -16.3234 O   0  0  0  0  0  0  0  0  0  0  0  0
  2  1  1  1
  2  3  1  0
  3  4  1  0
  4  9  1  0
  5  4  2  0
  5  6  1  0
  6  7  2  0
  7  8  1  0
  9  8  2  0
 10 12  1  0
 10  2  1  0
 11 10  2  0
 13 12  1  0
 13 14  1  6
 14 15  1  0
 15 16  1  0
 16 17  2  0
 18 13  1  0
 19 18  2  0
 20 16  1  0
 21 18  1  0
 21 25  1  0
 22 23  1  0
 22 21  1  0
 23 24  1  0
 25 24  1  0
 26 28  1  0
 25 26  1  6
 27 26  2  0
M  END
$$$$
