FEP.pdb
     RDKit          3D

 28 29  0  0  1  0  0  0  0  0999 V2000
   28.6278  -20.6643   -9.0670 N   0  0  0  0  0  0  0  0  0  0  0  0
   27.2040  -20.5676   -8.9909 C   0  0  1  0  0  0  0  0  0  0  0  0
   26.7684  -19.4176   -8.1409 C   0  0  0  0  0  0  0  0  0  0  0  0
   27.4423  -19.5114   -6.8345 C   0  0  0  0  0  0  0  0  0  0  0  0
   28.5146  -18.7068   -6.5181 C   0  0  0  0  0  0  0  0  0  0  0  0
   29.1479  -18.7995   -5.2854 C   0  0  0  0  0  0  0  0  0  0  0  0
   28.7104  -19.7062   -4.3493 C   0  0  0  0  0  0  0  0  0  0  0  0
   27.6403  -20.5175   -4.6497 C   0  0  0  0  0  0  0  0  0  0  0  0
   27.0139  -20.4135   -5.8915 C   0  0  0  0  0  0  0  0  0  0  0  0
   26.5530  -20.5958  -10.3256 C   0  0  0  0  0  0  0  0  0  0  0  0
   26.7014  -19.6038  -11.0825 O   0  0  0  0  0  0  0  0  0  0  0  0
   25.7769  -21.6872  -10.7773 N   0  0  0  0  0  0  0  0  0  0  0  0
   25.1424  -21.6662  -12.0834 C   0  0  1  0  0  0  0  0  0  0  0  0
   25.1569  -23.0531  -12.6516 C   0  0  0  0  0  0  0  0  0  0  0  0
   24.4889  -23.3044  -13.9341 C   0  0  0  0  0  0  0  0  0  0  0  0
   24.5040  -24.6234  -14.5251 C   0  0  0  0  0  0  0  0  0  0  0  0
   23.6085  -25.4643  -14.3369 O   0  0  0  0  0  0  0  0  0  0  0  0
   23.8263  -21.0513  -12.0416 C   0  0  0  0  0  0  0  0  0  0  0  0
   23.2507  -20.9776  -10.8975 O   0  0  0  0  0  0  0  0  0  0  0  0
   25.5693  -24.9739  -15.3447 O   0  0  0  0  0  0  0  0  0  0  0  0
   23.1222  -20.5243  -13.1478 N   0  0  0  0  0  0  0  0  0  0  0  0
   23.6076  -20.5531  -14.5539 C   0  0  0  0  0  0  0  0  0  0  0  0
   22.9633  -19.4084  -15.2593 C   0  0  0  0  0  0  0  0  0  0  0  0
   22.1821  -18.6578  -14.1761 C   0  0  0  0  0  0  0  0  0  0  0  0
   21.8555  -19.8454  -13.2586 C   0  0  1  0  0  0  0  0  0  0  0  0
   20.8345  -20.6588  -13.9968 C   0  0  0  0  0  0  0  0  0  0  0  0
   21.1955  -21.6059  -14.7171 O   0  0  0  0  0  0  0  0  0  0  0  0
   19.4868  -20.3739  -13.8914 O   0  0  0  0  0  0  0  0  0  0  0  0
  2  1  1  6
  2  3  1  0
  3  4  1  0
  4  9  1  0
  5  4  2  0
  5  6  1  0
  6  7  2  0
  7  8  1  0
  9  8  2  0
 10 12  1  0
 10  2  1  0
 11 10  2  0
 13 12  1  0
 13 14  1  1
 14 15  1  0
 15 16  1  0
 16 17  2  0
 18 13  1  0
 19 18  2  0
 20 16  1  0
 21 18  1  0
 21 25  1  0
 22 23  1  0
 22 21  1  0
 23 24  1  0
 25 24  1  0
 26 28  1  0
 25 26  1  6
 27 26  2  0
M  END
$$$$
