FEP.pdb
     RDKit          3D

 28 29  0  0  1  0  0  0  0  0999 V2000
   25.7933  -21.5503   -6.7588 N   0  0  0  0  0  0  0  0  0  0  0  0
   26.2148  -20.6541   -7.7891 C   0  0  1  0  0  0  0  0  0  0  0  0
   27.6984  -20.4704   -7.7949 C   0  0  0  0  0  0  0  0  0  0  0  0
   28.1087  -19.8833   -6.5078 C   0  0  0  0  0  0  0  0  0  0  0  0
   28.6749  -20.6511   -5.5142 C   0  0  0  0  0  0  0  0  0  0  0  0
   29.0593  -20.0936   -4.3015 C   0  0  0  0  0  0  0  0  0  0  0  0
   28.8790  -18.7506   -4.0694 C   0  0  0  0  0  0  0  0  0  0  0  0
   28.3147  -17.9697   -5.0518 C   0  0  0  0  0  0  0  0  0  0  0  0
   27.9335  -18.5430   -6.2647 C   0  0  0  0  0  0  0  0  0  0  0  0
   25.6575  -21.0045   -9.1204 C   0  0  0  0  0  0  0  0  0  0  0  0
   25.9705  -22.1119   -9.6252 O   0  0  0  0  0  0  0  0  0  0  0  0
   24.7939  -20.1478   -9.8398 N   0  0  0  0  0  0  0  0  0  0  0  0
   24.3901  -20.4599  -11.1994 C   0  0  1  0  0  0  0  0  0  0  0  0
   23.0265  -19.8874  -11.4435 C   0  0  0  0  0  0  0  0  0  0  0  0
   22.4345  -20.0031  -12.7816 C   0  0  0  0  0  0  0  0  0  0  0  0
   21.2749  -20.8369  -13.0031 C   0  0  0  0  0  0  0  0  0  0  0  0
   20.3258  -20.9099  -12.2041 O   0  0  0  0  0  0  0  0  0  0  0  0
   25.3907  -20.0561  -12.1729 C   0  0  0  0  0  0  0  0  0  0  0  0
   26.0596  -18.9916  -11.9177 O   0  0  0  0  0  0  0  0  0  0  0  0
   21.2125  -21.5962  -14.1646 O   0  0  0  0  0  0  0  0  0  0  0  0
   25.6963  -20.7313  -13.3762 N   0  0  0  0  0  0  0  0  0  0  0  0
   25.0630  -22.0025  -13.8196 C   0  0  0  0  0  0  0  0  0  0  0  0
   26.0402  -22.6851  -14.7154 C   0  0  0  0  0  0  0  0  0  0  0  0
   27.2987  -21.8125  -14.6755 C   0  0  0  0  0  0  0  0  0  0  0  0
   26.6307  -20.4502  -14.4371 C   0  0  1  0  0  0  0  0  0  0  0  0
   25.9448  -20.1043  -15.7251 C   0  0  0  0  0  0  0  0  0  0  0  0
   24.7066  -20.1783  -15.8104 O   0  0  0  0  0  0  0  0  0  0  0  0
   26.6690  -19.7010  -16.8303 O   0  0  0  0  0  0  0  0  0  0  0  0
  2  1  1  1
  2  3  1  0
  3  4  1  0
  4  9  1  0
  5  4  2  0
  5  6  1  0
  6  7  2  0
  7  8  1  0
  9  8  2  0
 10 12  1  0
 10  2  1  0
 11 10  2  0
 13 12  1  0
 13 14  1  6
 14 15  1  0
 15 16  1  0
 16 17  2  0
 18 13  1  0
 19 18  2  0
 20 16  1  0
 21 18  1  0
 21 25  1  0
 22 23  1  0
 22 21  1  0
 23 24  1  0
 25 24  1  0
 26 28  1  0
 25 26  1  6
 27 26  2  0
M  END
$$$$
