LFN.pdb
     RDKit          3D

 28 28  0  0  1  0  0  0  0  0999 V2000
   27.8824  -21.5740  -19.9523 C   0  0  0  0  0  0  0  0  0  0  0  0
   27.4542  -23.0060  -19.9434 C   0  0  2  0  0  0  0  0  0  0  0  0
   26.6435  -23.2884  -21.1888 C   0  0  0  0  0  0  0  0  0  0  0  0
   26.6750  -23.3601  -18.6800 C   0  0  0  0  0  0  0  0  0  0  0  0
   27.5741  -23.0430  -17.5138 C   0  0  2  0  0  0  0  0  0  0  0  0
   28.6196  -24.0407  -17.4503 N   0  0  0  0  0  0  0  0  0  0  0  0
   26.8825  -22.9576  -16.2345 C   0  0  0  0  0  0  0  0  0  0  0  0
   26.2538  -23.9577  -15.8168 O   0  0  0  0  0  0  0  0  0  0  0  0
   26.8614  -21.8047  -15.4000 N   0  0  0  0  0  0  0  0  0  0  0  0
   26.1428  -21.6730  -14.1808 C   0  0  1  0  0  0  0  0  0  0  0  0
   26.6256  -20.5745  -13.2807 C   0  0  0  0  0  0  0  0  0  0  0  0
   25.9208  -20.6065  -11.9869 C   0  0  0  0  0  0  0  0  0  0  0  0
   24.7494  -19.9258  -11.7811 C   0  0  0  0  0  0  0  0  0  0  0  0
   24.0972  -19.9661  -10.5536 C   0  0  0  0  0  0  0  0  0  0  0  0
   24.6391  -20.7001   -9.5366 C   0  0  0  0  0  0  0  0  0  0  0  0
   25.8161  -21.3965   -9.7105 C   0  0  0  0  0  0  0  0  0  0  0  0
   26.4500  -21.3372  -10.9570 C   0  0  0  0  0  0  0  0  0  0  0  0
   24.7071  -21.4280  -14.4699 C   0  0  0  0  0  0  0  0  0  0  0  0
   24.3567  -20.4955  -15.2422 O   0  0  0  0  0  0  0  0  0  0  0  0
   19.4045  -23.8930  -14.8894 N   0  0  0  0  0  0  0  0  0  0  0  0
   20.0809  -23.0862  -13.9122 C   0  0  0  0  0  0  0  0  0  0  0  0
   19.4320  -22.3341  -13.1640 O   0  0  0  0  0  0  0  0  0  0  0  0
   21.5287  -23.1964  -13.8499 C   0  0  0  0  0  0  0  0  0  0  0  0
   22.2388  -21.9162  -14.1126 C   0  0  2  0  0  0  0  0  0  0  0  0
   23.6816  -22.2150  -13.9030 N   0  0  0  0  0  0  0  0  0  0  0  0
   21.8607  -20.7955  -13.2170 C   0  0  0  0  0  0  0  0  0  0  0  0
   22.2558  -20.8809  -11.8775 O   0  0  0  0  0  0  0  0  0  0  0  0
   21.2203  -19.8018  -13.5951 O   0  0  0  0  0  0  0  0  0  0  0  0
  2  1  1  1
  3  2  1  0
  4  2  1  0
  5  4  1  0
  5  6  1  1
  7  8  2  0
  7  5  1  0
  9  7  1  0
 10  9  1  0
 10 11  1  6
 11 12  1  0
 12 17  2  0
 12 13  1  0
 13 14  2  0
 14 15  1  0
 16 15  2  0
 17 16  1  0
 18 10  1  0
 19 18  2  0
 21 22  2  0
 21 20  1  0
 23 21  1  0
 24 23  1  1
 24 25  1  0
 25 18  1  0
 26 24  1  0
 27 26  1  0
 28 26  2  0
M  END
$$$$
