LFN.pdb
     RDKit          3D

 28 28  0  0  1  0  0  0  0  0999 V2000
   20.5853  -21.6907  -15.2410 C   0  0  0  0  0  0  0  0  0  0  0  0
   20.1914  -20.5796  -14.3220 C   0  0  2  0  0  0  0  0  0  0  0  0
   19.3635  -19.5725  -15.0891 C   0  0  0  0  0  0  0  0  0  0  0  0
   21.4042  -19.9220  -13.6701 C   0  0  0  0  0  0  0  0  0  0  0  0
   22.1623  -21.0155  -12.9641 C   0  0  2  0  0  0  0  0  0  0  0  0
   21.2924  -21.6211  -11.9797 N   0  0  0  0  0  0  0  0  0  0  0  0
   23.4002  -20.5727  -12.3365 C   0  0  0  0  0  0  0  0  0  0  0  0
   23.7863  -19.3950  -12.5210 O   0  0  0  0  0  0  0  0  0  0  0  0
   24.2268  -21.3864  -11.5116 N   0  0  0  0  0  0  0  0  0  0  0  0
   25.4473  -20.9855  -10.9036 C   0  0  1  0  0  0  0  0  0  0  0  0
   25.8853  -21.8373   -9.7491 C   0  0  0  0  0  0  0  0  0  0  0  0
   26.7155  -21.0631   -8.8094 C   0  0  0  0  0  0  0  0  0  0  0  0
   28.0532  -21.3122   -8.6472 C   0  0  0  0  0  0  0  0  0  0  0  0
   28.8223  -20.5725   -7.7555 C   0  0  0  0  0  0  0  0  0  0  0  0
   28.2276  -19.5794   -7.0297 C   0  0  0  0  0  0  0  0  0  0  0  0
   26.8843  -19.3031   -7.1689 C   0  0  0  0  0  0  0  0  0  0  0  0
   26.1356  -20.0642   -8.0741 C   0  0  0  0  0  0  0  0  0  0  0  0
   26.5356  -20.9917  -11.9138 C   0  0  0  0  0  0  0  0  0  0  0  0
   27.4287  -21.8808  -11.8913 O   0  0  0  0  0  0  0  0  0  0  0  0
   28.9868  -20.6531  -16.3175 N   0  0  0  0  0  0  0  0  0  0  0  0
   28.0627  -21.6763  -15.9147 C   0  0  0  0  0  0  0  0  0  0  0  0
   27.9599  -22.7233  -16.5779 O   0  0  0  0  0  0  0  0  0  0  0  0
   27.2756  -21.4244  -14.7192 C   0  0  0  0  0  0  0  0  0  0  0  0
   27.5847  -20.1270  -14.0609 C   0  0  2  0  0  0  0  0  0  0  0  0
   26.6212  -20.0179  -12.9319 N   0  0  0  0  0  0  0  0  0  0  0  0
   27.4250  -18.9324  -14.9261 C   0  0  0  0  0  0  0  0  0  0  0  0
   28.4944  -18.5969  -15.7636 O   0  0  0  0  0  0  0  0  0  0  0  0
   26.4029  -18.2283  -14.9409 O   0  0  0  0  0  0  0  0  0  0  0  0
  2  1  1  6
  3  2  1  0
  4  2  1  0
  5  4  1  0
  5  6  1  1
  7  8  2  0
  7  5  1  0
  9  7  1  0
 10  9  1  0
 10 11  1  1
 11 12  1  0
 12 17  2  0
 12 13  1  0
 13 14  2  0
 14 15  1  0
 16 15  2  0
 17 16  1  0
 18 10  1  0
 19 18  2  0
 21 22  2  0
 21 20  1  0
 23 21  1  0
 24 23  1  6
 24 25  1  0
 25 18  1  0
 26 24  1  0
 27 26  1  0
 28 26  2  0
M  END
$$$$
