LFN.pdb
     RDKit          3D

 28 28  0  0  1  0  0  0  0  0999 V2000
   24.5324  -18.9748  -14.2881 C   0  0  0  0  0  0  0  0  0  0  0  0
   24.1594  -20.4210  -14.2279 C   0  0  2  0  0  0  0  0  0  0  0  0
   22.7548  -20.5928  -14.7625 C   0  0  0  0  0  0  0  0  0  0  0  0
   24.2905  -20.9852  -12.8161 C   0  0  0  0  0  0  0  0  0  0  0  0
   25.7519  -20.9183  -12.4572 C   0  0  2  0  0  0  0  0  0  0  0  0
   26.4666  -21.9028  -13.2398 N   0  0  0  0  0  0  0  0  0  0  0  0
   26.0262  -21.1079  -11.0391 C   0  0  0  0  0  0  0  0  0  0  0  0
   25.8320  -22.2358  -10.5292 O   0  0  0  0  0  0  0  0  0  0  0  0
   26.5080  -20.0937  -10.1642 N   0  0  0  0  0  0  0  0  0  0  0  0
   26.7610  -20.2455   -8.7739 C   0  0  1  0  0  0  0  0  0  0  0  0
   27.6126  -19.1697   -8.1676 C   0  0  0  0  0  0  0  0  0  0  0  0
   27.9391  -19.4848   -6.7656 C   0  0  0  0  0  0  0  0  0  0  0  0
   27.4936  -18.7125   -5.7250 C   0  0  0  0  0  0  0  0  0  0  0  0
   27.8114  -19.0236   -4.4074 C   0  0  0  0  0  0  0  0  0  0  0  0
   28.5831  -20.1215   -4.1512 C   0  0  0  0  0  0  0  0  0  0  0  0
   29.0475  -20.9195   -5.1749 C   0  0  0  0  0  0  0  0  0  0  0  0
   28.7114  -20.5816   -6.4909 C   0  0  0  0  0  0  0  0  0  0  0  0
   25.4753  -20.2819   -8.0321 C   0  0  0  0  0  0  0  0  0  0  0  0
   24.5646  -19.4473   -8.2826 O   0  0  0  0  0  0  0  0  0  0  0  0
   21.1481  -21.6596   -5.7870 N   0  0  0  0  0  0  0  0  0  0  0  0
   22.0084  -22.7890   -6.0052 C   0  0  0  0  0  0  0  0  0  0  0  0
   21.6663  -23.9204   -5.6186 O   0  0  0  0  0  0  0  0  0  0  0  0
   23.2683  -22.5401   -6.6856 C   0  0  0  0  0  0  0  0  0  0  0  0
   23.9313  -21.2738   -6.2741 C   0  0  2  0  0  0  0  0  0  0  0  0
   25.2147  -21.2377   -7.0267 N   0  0  0  0  0  0  0  0  0  0  0  0
   24.2378  -21.1696   -4.8262 C   0  0  0  0  0  0  0  0  0  0  0  0
   25.4543  -21.7024   -4.3860 O   0  0  0  0  0  0  0  0  0  0  0  0
   23.4768  -20.6402   -4.0008 O   0  0  0  0  0  0  0  0  0  0  0  0
  2  1  1  1
  3  2  1  0
  4  2  1  0
  5  4  1  0
  5  6  1  6
  7  8  2  0
  7  5  1  0
  9  7  1  0
 10  9  1  0
 10 11  1  1
 11 12  1  0
 12 17  2  0
 12 13  1  0
 13 14  2  0
 14 15  1  0
 16 15  2  0
 17 16  1  0
 18 10  1  0
 19 18  2  0
 21 22  2  0
 21 20  1  0
 23 21  1  0
 24 23  1  1
 24 25  1  0
 25 18  1  0
 26 24  1  0
 27 26  1  0
 28 26  2  0
M  END
$$$$
