LFN.pdb
     RDKit          3D

 28 28  0  0  1  0  0  0  0  0999 V2000
   28.8177  -22.1664  -19.5056 C   0  0  0  0  0  0  0  0  0  0  0  0
   29.4434  -22.2822  -18.1531 C   0  0  2  0  0  0  0  0  0  0  0  0
   30.7303  -23.0687  -18.2685 C   0  0  0  0  0  0  0  0  0  0  0  0
   28.4946  -22.9132  -17.1382 C   0  0  0  0  0  0  0  0  0  0  0  0
   27.2885  -22.0145  -17.0561 C   0  0  2  0  0  0  0  0  0  0  0  0
   27.7146  -20.6475  -17.2616 N   0  0  0  0  0  0  0  0  0  0  0  0
   26.5455  -22.1273  -15.8081 C   0  0  0  0  0  0  0  0  0  0  0  0
   26.2077  -23.2641  -15.4038 O   0  0  0  0  0  0  0  0  0  0  0  0
   26.1625  -21.0267  -14.9906 N   0  0  0  0  0  0  0  0  0  0  0  0
   25.3884  -21.1035  -13.8012 C   0  0  1  0  0  0  0  0  0  0  0  0
   25.7231  -20.0727  -12.7642 C   0  0  0  0  0  0  0  0  0  0  0  0
   25.0263  -20.3556  -11.4969 C   0  0  0  0  0  0  0  0  0  0  0  0
   23.7285  -19.9728  -11.2806 C   0  0  0  0  0  0  0  0  0  0  0  0
   23.0857  -20.2473  -10.0784 C   0  0  0  0  0  0  0  0  0  0  0  0
   23.7660  -20.9118   -9.0974 C   0  0  0  0  0  0  0  0  0  0  0  0
   25.0725  -21.3109   -9.2828 C   0  0  0  0  0  0  0  0  0  0  0  0
   25.6934  -21.0207  -10.5032 C   0  0  0  0  0  0  0  0  0  0  0  0
   23.9474  -20.9666  -14.1321 C   0  0  0  0  0  0  0  0  0  0  0  0
   23.5119  -19.9229  -14.6888 O   0  0  0  0  0  0  0  0  0  0  0  0
   21.6589  -21.5199  -16.8902 N   0  0  0  0  0  0  0  0  0  0  0  0
   21.3437  -22.8508  -16.4512 C   0  0  0  0  0  0  0  0  0  0  0  0
   21.1473  -23.7542  -17.2830 O   0  0  0  0  0  0  0  0  0  0  0  0
   21.2696  -23.0749  -15.0172 C   0  0  0  0  0  0  0  0  0  0  0  0
   21.5715  -21.8656  -14.2055 C   0  0  2  0  0  0  0  0  0  0  0  0
   23.0104  -21.9821  -13.8439 N   0  0  0  0  0  0  0  0  0  0  0  0
   20.7857  -21.7401  -12.9534 C   0  0  0  0  0  0  0  0  0  0  0  0
   21.2498  -22.4334  -11.8302 O   0  0  0  0  0  0  0  0  0  0  0  0
   19.7521  -21.0595  -12.8580 O   0  0  0  0  0  0  0  0  0  0  0  0
  2  1  1  6
  3  2  1  0
  4  2  1  0
  5  4  1  0
  5  6  1  1
  7  8  2  0
  7  5  1  0
  9  7  1  0
 10  9  1  0
 10 11  1  1
 11 12  1  0
 12 17  2  0
 12 13  1  0
 13 14  2  0
 14 15  1  0
 16 15  2  0
 17 16  1  0
 18 10  1  0
 19 18  2  0
 21 22  2  0
 21 20  1  0
 23 21  1  0
 24 23  1  1
 24 25  1  0
 25 18  1  0
 26 24  1  0
 27 26  1  0
 28 26  2  0
M  END
$$$$
