LFN.pdb
     RDKit          3D

 28 28  0  0  1  0  0  0  0  0999 V2000
   20.4286  -37.6325   -7.1790 C   0  0  0  0  0  0  0  0  0  0  0  0
   21.0543  -37.7398   -8.5322 C   0  0  2  0  0  0  0  0  0  0  0  0
   20.7675  -39.1109   -9.1031 C   0  0  0  0  0  0  0  0  0  0  0  0
   22.5531  -37.4563   -8.4912 C   0  0  0  0  0  0  0  0  0  0  0  0
   22.7181  -36.0855   -7.8888 C   0  0  2  0  0  0  0  0  0  0  0  0
   22.2891  -35.0996   -8.8564 N   0  0  0  0  0  0  0  0  0  0  0  0
   24.0721  -35.7919   -7.4384 C   0  0  0  0  0  0  0  0  0  0  0  0
   25.0391  -36.2999   -8.0522 O   0  0  0  0  0  0  0  0  0  0  0  0
   24.3949  -34.9559   -6.3325 N   0  0  0  0  0  0  0  0  0  0  0  0
   25.6991  -34.5236   -5.9691 C   0  0  1  0  0  0  0  0  0  0  0  0
   25.8855  -33.0354   -5.9456 C   0  0  0  0  0  0  0  0  0  0  0  0
   25.7274  -32.4640   -7.2947 C   0  0  0  0  0  0  0  0  0  0  0  0
   24.6594  -31.6724   -7.6275 C   0  0  0  0  0  0  0  0  0  0  0  0
   24.5250  -31.1414   -8.9057 C   0  0  0  0  0  0  0  0  0  0  0  0
   25.4791  -31.4175   -9.8439 C   0  0  0  0  0  0  0  0  0  0  0  0
   26.5657  -32.2101   -9.5419 C   0  0  0  0  0  0  0  0  0  0  0  0
   26.6743  -32.7305   -8.2471 C   0  0  0  0  0  0  0  0  0  0  0  0
   26.0434  -35.0479   -4.6233 C   0  0  0  0  0  0  0  0  0  0  0  0
   25.1614  -35.1525   -3.7290 O   0  0  0  0  0  0  0  0  0  0  0  0
   30.7456  -38.0397   -2.0237 N   0  0  0  0  0  0  0  0  0  0  0  0
   29.5052  -37.3227   -1.9208 C   0  0  0  0  0  0  0  0  0  0  0  0
   28.9051  -37.2629   -0.8332 O   0  0  0  0  0  0  0  0  0  0  0  0
   29.0052  -36.6879   -3.1287 C   0  0  0  0  0  0  0  0  0  0  0  0
   27.7001  -35.9981   -2.9466 C   0  0  2  0  0  0  0  0  0  0  0  0
   27.3542  -35.4482   -4.2856 N   0  0  0  0  0  0  0  0  0  0  0  0
   27.7143  -34.8785   -1.9732 C   0  0  0  0  0  0  0  0  0  0  0  0
   28.3002  -33.6762   -2.3839 O   0  0  0  0  0  0  0  0  0  0  0  0
   27.2382  -34.9582   -0.8297 O   0  0  0  0  0  0  0  0  0  0  0  0
  2  1  1  1
  3  2  1  0
  4  2  1  0
  5  4  1  0
  5  6  1  6
  7  8  2  0
  7  5  1  0
  9  7  1  0
 10  9  1  0
 10 11  1  1
 11 12  1  0
 12 17  2  0
 12 13  1  0
 13 14  2  0
 14 15  1  0
 16 15  2  0
 17 16  1  0
 18 10  1  0
 19 18  2  0
 21 22  2  0
 21 20  1  0
 23 21  1  0
 24 23  1  6
 24 25  1  0
 25 18  1  0
 26 24  1  0
 27 26  1  0
 28 26  2  0
M  END
$$$$
