LFN.pdb
     RDKit          3D

 28 28  0  0  1  0  0  0  0  0999 V2000
   28.8253  -17.9803  -14.9117 C   0  0  0  0  0  0  0  0  0  0  0  0
   28.0352  -18.9314  -15.7517 C   0  0  2  0  0  0  0  0  0  0  0  0
   27.6175  -18.2354  -17.0281 C   0  0  0  0  0  0  0  0  0  0  0  0
   26.8290  -19.4881  -15.0010 C   0  0  0  0  0  0  0  0  0  0  0  0
   27.3685  -20.2456  -13.8159 C   0  0  2  0  0  0  0  0  0  0  0  0
   28.2656  -21.2750  -14.2935 N   0  0  0  0  0  0  0  0  0  0  0  0
   26.3409  -20.8297  -12.9644 C   0  0  0  0  0  0  0  0  0  0  0  0
   26.0198  -22.0285  -13.1364 O   0  0  0  0  0  0  0  0  0  0  0  0
   25.6553  -20.1347  -11.9285 N   0  0  0  0  0  0  0  0  0  0  0  0
   24.4418  -20.5452  -11.3130 C   0  0  1  0  0  0  0  0  0  0  0  0
   24.1335  -19.8641  -10.0126 C   0  0  0  0  0  0  0  0  0  0  0  0
   25.1902  -20.1243   -9.0189 C   0  0  0  0  0  0  0  0  0  0  0  0
   25.2532  -21.2993   -8.3166 C   0  0  0  0  0  0  0  0  0  0  0  0
   26.2570  -21.5287   -7.3819 C   0  0  0  0  0  0  0  0  0  0  0  0
   27.1958  -20.5604   -7.1635 C   0  0  0  0  0  0  0  0  0  0  0  0
   27.1611  -19.3672   -7.8530 C   0  0  0  0  0  0  0  0  0  0  0  0
   26.1391  -19.1646   -8.7876 C   0  0  0  0  0  0  0  0  0  0  0  0
   23.3047  -20.3016  -12.2364 C   0  0  0  0  0  0  0  0  0  0  0  0
   23.4442  -19.5611  -13.2467 O   0  0  0  0  0  0  0  0  0  0  0  0
   20.9205  -24.3133  -14.9397 N   0  0  0  0  0  0  0  0  0  0  0  0
   21.2971  -22.9299  -15.0280 C   0  0  0  0  0  0  0  0  0  0  0  0
   21.0402  -22.2756  -16.0539 O   0  0  0  0  0  0  0  0  0  0  0  0
   21.9774  -22.3542  -13.8800 C   0  0  0  0  0  0  0  0  0  0  0  0
   21.1726  -21.3341  -13.1562 C   0  0  2  0  0  0  0  0  0  0  0  0
   22.0330  -20.8784  -12.0307 N   0  0  0  0  0  0  0  0  0  0  0  0
   19.8933  -21.8309  -12.5925 C   0  0  0  0  0  0  0  0  0  0  0  0
   19.9661  -22.6873  -11.4885 O   0  0  0  0  0  0  0  0  0  0  0  0
   18.7794  -21.5267  -13.0479 O   0  0  0  0  0  0  0  0  0  0  0  0
  2  1  1  1
  3  2  1  0
  4  2  1  0
  5  4  1  0
  5  6  1  6
  7  8  2  0
  7  5  1  0
  9  7  1  0
 10  9  1  0
 10 11  1  1
 11 12  1  0
 12 17  2  0
 12 13  1  0
 13 14  2  0
 14 15  1  0
 16 15  2  0
 17 16  1  0
 18 10  1  0
 19 18  2  0
 21 22  2  0
 21 20  1  0
 23 21  1  0
 24 23  1  1
 24 25  1  0
 25 18  1  0
 26 24  1  0
 27 26  1  0
 28 26  2  0
M  END
$$$$
