LFN.pdb
     RDKit          3D

 28 28  0  0  1  0  0  0  0  0999 V2000
   27.7541  -24.1859  -19.8434 C   0  0  0  0  0  0  0  0  0  0  0  0
   28.9025  -24.1156  -18.8891 C   0  0  2  0  0  0  0  0  0  0  0  0
   29.8483  -25.2629  -19.1671 C   0  0  0  0  0  0  0  0  0  0  0  0
   28.4370  -24.1176  -17.4359 C   0  0  0  0  0  0  0  0  0  0  0  0
   27.4835  -22.9612  -17.2852 C   0  0  2  0  0  0  0  0  0  0  0  0
   28.1931  -21.7348  -17.5766 N   0  0  0  0  0  0  0  0  0  0  0  0
   26.8515  -22.8772  -15.9753 C   0  0  0  0  0  0  0  0  0  0  0  0
   26.4040  -23.9228  -15.4496 O   0  0  0  0  0  0  0  0  0  0  0  0
   26.6966  -21.6772  -15.2257 N   0  0  0  0  0  0  0  0  0  0  0  0
   25.9679  -21.5419  -14.0130 C   0  0  1  0  0  0  0  0  0  0  0  0
   26.3966  -20.3961  -13.1451 C   0  0  0  0  0  0  0  0  0  0  0  0
   25.7282  -20.4511  -11.8329 C   0  0  0  0  0  0  0  0  0  0  0  0
   26.2867  -21.0950  -10.7599 C   0  0  0  0  0  0  0  0  0  0  0  0
   25.6423  -21.1380   -9.5284 C   0  0  0  0  0  0  0  0  0  0  0  0
   24.4291  -20.5249   -9.3912 C   0  0  0  0  0  0  0  0  0  0  0  0
   23.8396  -19.8686  -10.4505 C   0  0  0  0  0  0  0  0  0  0  0  0
   24.5118  -19.8419  -11.6779 C   0  0  0  0  0  0  0  0  0  0  0  0
   24.5237  -21.3715  -14.3131 C   0  0  0  0  0  0  0  0  0  0  0  0
   24.1382  -20.5125  -15.1510 O   0  0  0  0  0  0  0  0  0  0  0  0
   19.4102  -24.5171  -13.6662 N   0  0  0  0  0  0  0  0  0  0  0  0
   19.9793  -23.2042  -13.5406 C   0  0  0  0  0  0  0  0  0  0  0  0
   19.2585  -22.1966  -13.6484 O   0  0  0  0  0  0  0  0  0  0  0  0
   21.4081  -23.1233  -13.2869 C   0  0  0  0  0  0  0  0  0  0  0  0
   22.0835  -22.0148  -14.0130 C   0  0  2  0  0  0  0  0  0  0  0  0
   23.5287  -22.1508  -13.6847 N   0  0  0  0  0  0  0  0  0  0  0  0
   21.6441  -20.6522  -13.6237 C   0  0  0  0  0  0  0  0  0  0  0  0
   22.0054  -20.1989  -12.3503 O   0  0  0  0  0  0  0  0  0  0  0  0
   20.9813  -19.9081  -14.3637 O   0  0  0  0  0  0  0  0  0  0  0  0
  2  1  1  6
  3  2  1  0
  4  2  1  0
  5  4  1  0
  5  6  1  1
  7  8  2  0
  7  5  1  0
  9  7  1  0
 10  9  1  0
 10 11  1  6
 11 12  1  0
 12 17  2  0
 12 13  1  0
 13 14  2  0
 14 15  1  0
 16 15  2  0
 17 16  1  0
 18 10  1  0
 19 18  2  0
 21 22  2  0
 21 20  1  0
 23 21  1  0
 24 23  1  1
 24 25  1  0
 25 18  1  0
 26 24  1  0
 27 26  1  0
 28 26  2  0
M  END
$$$$
