LFN.pdb
     RDKit          3D

 28 28  0  0  1  0  0  0  0  0999 V2000
   18.0041  -11.2596  -18.7483 C   0  0  0  0  0  0  0  0  0  0  0  0
   18.2737  -12.5024  -17.9627 C   0  0  2  0  0  0  0  0  0  0  0  0
   17.0471  -13.3869  -17.9987 C   0  0  0  0  0  0  0  0  0  0  0  0
   18.6932  -12.1907  -16.5291 C   0  0  0  0  0  0  0  0  0  0  0  0
   19.8587  -11.2404  -16.6160 C   0  0  2  0  0  0  0  0  0  0  0  0
   21.0512  -11.9972  -16.9284 N   0  0  0  0  0  0  0  0  0  0  0  0
   20.0691  -10.4443  -15.4142 C   0  0  0  0  0  0  0  0  0  0  0  0
   20.0338  -11.0111  -14.2973 O   0  0  0  0  0  0  0  0  0  0  0  0
   20.3172   -9.0428  -15.4036 N   0  0  0  0  0  0  0  0  0  0  0  0
   20.5749   -8.2521  -14.2511 C   0  0  1  0  0  0  0  0  0  0  0  0
   21.8265   -7.4282  -14.3195 C   0  0  0  0  0  0  0  0  0  0  0  0
   23.0137   -8.2871  -14.4766 C   0  0  0  0  0  0  0  0  0  0  0  0
   23.8365   -8.1960  -15.5687 C   0  0  0  0  0  0  0  0  0  0  0  0
   24.9528   -9.0145  -15.7017 C   0  0  0  0  0  0  0  0  0  0  0  0
   25.2298   -9.9255  -14.7218 C   0  0  0  0  0  0  0  0  0  0  0  0
   24.4225  -10.0427  -13.6105 C   0  0  0  0  0  0  0  0  0  0  0  0
   23.3060   -9.2054  -13.5040 C   0  0  0  0  0  0  0  0  0  0  0  0
   19.4352   -7.3312  -14.0107 C   0  0  0  0  0  0  0  0  0  0  0  0
   18.8288   -6.7930  -14.9757 O   0  0  0  0  0  0  0  0  0  0  0  0
   16.5665   -4.9285   -9.1697 N   0  0  0  0  0  0  0  0  0  0  0  0
   16.5265   -5.2616  -10.5664 C   0  0  0  0  0  0  0  0  0  0  0  0
   15.6862   -4.7296  -11.3130 O   0  0  0  0  0  0  0  0  0  0  0  0
   17.4988   -6.2304  -11.0442 C   0  0  0  0  0  0  0  0  0  0  0  0
   17.9089   -6.0200  -12.4584 C   0  0  2  0  0  0  0  0  0  0  0  0
   18.9828   -7.0189  -12.7106 N   0  0  0  0  0  0  0  0  0  0  0  0
   18.4480   -4.6710  -12.7596 C   0  0  0  0  0  0  0  0  0  0  0  0
   17.5655   -3.7326  -13.3056 O   0  0  0  0  0  0  0  0  0  0  0  0
   19.6269   -4.3420  -12.5531 O   0  0  0  0  0  0  0  0  0  0  0  0
  2  1  1  6
  3  2  1  0
  4  2  1  0
  5  4  1  0
  5  6  1  1
  7  8  2  0
  7  5  1  0
  9  7  1  0
 10  9  1  0
 10 11  1  6
 11 12  1  0
 12 17  2  0
 12 13  1  0
 13 14  2  0
 14 15  1  0
 16 15  2  0
 17 16  1  0
 18 10  1  0
 19 18  2  0
 21 22  2  0
 21 20  1  0
 23 21  1  0
 24 23  1  1
 24 25  1  0
 25 18  1  0
 26 24  1  0
 27 26  1  0
 28 26  2  0
M  END
$$$$
