LFN.pdb
     RDKit          3D

 28 28  0  0  1  0  0  0  0  0999 V2000
   27.7580  -22.9057  -19.7286 C   0  0  0  0  0  0  0  0  0  0  0  0
   28.5934  -23.2464  -18.5369 C   0  0  2  0  0  0  0  0  0  0  0  0
   29.4912  -24.4147  -18.8792 C   0  0  0  0  0  0  0  0  0  0  0  0
   27.7391  -23.5425  -17.3077 C   0  0  0  0  0  0  0  0  0  0  0  0
   26.9570  -22.2895  -17.0121 C   0  0  2  0  0  0  0  0  0  0  0  0
   27.8515  -21.1555  -17.0919 N   0  0  0  0  0  0  0  0  0  0  0  0
   26.2755  -22.3026  -15.7246 C   0  0  0  0  0  0  0  0  0  0  0  0
   25.6054  -23.3113  -15.4032 O   0  0  0  0  0  0  0  0  0  0  0  0
   26.3088  -21.2389  -14.7792 N   0  0  0  0  0  0  0  0  0  0  0  0
   25.5950  -21.1949  -13.5510 C   0  0  1  0  0  0  0  0  0  0  0  0
   26.1715  -20.2699  -12.5204 C   0  0  0  0  0  0  0  0  0  0  0  0
   25.4895  -20.4353  -11.2246 C   0  0  0  0  0  0  0  0  0  0  0  0
   26.0238  -21.1908  -10.2139 C   0  0  0  0  0  0  0  0  0  0  0  0
   25.3668  -21.3370   -8.9971 C   0  0  0  0  0  0  0  0  0  0  0  0
   24.1654  -20.7133   -8.8111 C   0  0  0  0  0  0  0  0  0  0  0  0
   23.6002  -19.9462   -9.8073 C   0  0  0  0  0  0  0  0  0  0  0  0
   24.2847  -19.8172  -11.0214 C   0  0  0  0  0  0  0  0  0  0  0  0
   24.1916  -20.7800  -13.8022 C   0  0  0  0  0  0  0  0  0  0  0  0
   23.9375  -19.7511  -14.4844 O   0  0  0  0  0  0  0  0  0  0  0  0
   19.1686  -22.1050  -15.7518 N   0  0  0  0  0  0  0  0  0  0  0  0
   19.9802  -21.0303  -15.2523 C   0  0  0  0  0  0  0  0  0  0  0  0
   19.5047  -19.8867  -15.1403 O   0  0  0  0  0  0  0  0  0  0  0  0
   21.3526  -21.3479  -14.8948 C   0  0  0  0  0  0  0  0  0  0  0  0
   21.6859  -21.0513  -13.4758 C   0  0  2  0  0  0  0  0  0  0  0  0
   23.0916  -21.5063  -13.2973 N   0  0  0  0  0  0  0  0  0  0  0  0
   20.8405  -21.7483  -12.4755 C   0  0  0  0  0  0  0  0  0  0  0  0
   19.6124  -21.1620  -12.1506 O   0  0  0  0  0  0  0  0  0  0  0  0
   21.1674  -22.8103  -11.9224 O   0  0  0  0  0  0  0  0  0  0  0  0
  2  1  1  6
  3  2  1  0
  4  2  1  0
  5  4  1  0
  5  6  1  1
  7  8  2  0
  7  5  1  0
  9  7  1  0
 10  9  1  0
 10 11  1  1
 11 12  1  0
 12 17  2  0
 12 13  1  0
 13 14  2  0
 14 15  1  0
 16 15  2  0
 17 16  1  0
 18 10  1  0
 19 18  2  0
 21 22  2  0
 21 20  1  0
 23 21  1  0
 24 23  1  6
 24 25  1  0
 25 18  1  0
 26 24  1  0
 27 26  1  0
 28 26  2  0
M  END
$$$$
