LFE.pdb
     RDKit          3D

 29 29  0  0  1  0  0  0  0  0999 V2000
   22.9793  -14.5366  -14.9811 C   0  0  0  0  0  0  0  0  0  0  0  0
   24.1024  -14.1162  -15.9062 C   0  0  2  0  0  0  0  0  0  0  0  0
   25.4049  -14.2971  -15.1995 C   0  0  0  0  0  0  0  0  0  0  0  0
   23.8301  -12.6864  -16.3123 C   0  0  0  0  0  0  0  0  0  0  0  0
   22.4911  -12.5463  -17.0179 C   0  0  2  0  0  0  0  0  0  0  0  0
   22.4785  -13.2646  -18.2619 N   0  0  0  0  0  0  0  0  0  0  0  0
   22.2582  -11.1028  -17.2242 C   0  0  0  0  0  0  0  0  0  0  0  0
   23.0280  -10.4717  -17.9778 O   0  0  0  0  0  0  0  0  0  0  0  0
   21.1974  -10.4241  -16.5972 N   0  0  0  0  0  0  0  0  0  0  0  0
   20.9076   -9.0724  -16.9327 C   0  0  1  0  0  0  0  0  0  0  0  0
   19.4223   -8.9748  -17.2436 C   0  0  0  0  0  0  0  0  0  0  0  0
   19.1202   -9.4267  -18.6125 C   0  0  0  0  0  0  0  0  0  0  0  0
   18.7787  -10.7351  -18.8864 C   0  0  0  0  0  0  0  0  0  0  0  0
   18.4965  -11.1436  -20.1873 C   0  0  0  0  0  0  0  0  0  0  0  0
   18.5539  -10.2502  -21.2167 C   0  0  0  0  0  0  0  0  0  0  0  0
   18.8921   -8.9400  -20.9689 C   0  0  0  0  0  0  0  0  0  0  0  0
   19.1689   -8.5497  -19.6762 C   0  0  0  0  0  0  0  0  0  0  0  0
   21.1637   -8.1249  -15.8014 C   0  0  0  0  0  0  0  0  0  0  0  0
   20.8073   -8.4021  -14.6285 O   0  0  0  0  0  0  0  0  0  0  0  0
   21.8115   -6.9144  -16.0681 N   0  0  0  0  0  0  0  0  0  0  0  0
   22.1801   -5.9679  -14.9890 C   0  0  1  0  0  0  0  0  0  0  0  0
   22.9895   -4.8448  -15.5568 C   0  0  0  0  0  0  0  0  0  0  0  0
   22.2125   -3.9988  -16.4960 C   0  0  0  0  0  0  0  0  0  0  0  0
   23.0102   -2.8378  -16.9985 C   0  0  0  0  0  0  0  0  0  0  0  0
   23.1734   -1.7781  -16.3652 O   0  0  0  0  0  0  0  0  0  0  0  0
   20.9520   -5.4543  -14.3625 C   0  0  0  0  0  0  0  0  0  0  0  0
   21.0590   -4.8702  -13.0916 O   0  0  0  0  0  0  0  0  0  0  0  0
   23.5932   -2.9713  -18.2450 O   0  0  0  0  0  0  0  0  0  0  0  0
   19.8254   -5.4909  -14.8579 O   0  0  0  0  0  0  0  0  0  0  0  0
  2  4  1  0
  2  1  1  1
  3  2  1  0
  5  6  1  6
  5  4  1  0
  7  8  2  0
  7  5  1  0
  9  7  1  0
 10  9  1  0
 10 11  1  1
 12 17  2  0
 12 11  1  0
 13 12  1  0
 14 15  1  0
 14 13  2  0
 15 16  2  0
 16 17  1  0
 18 10  1  0
 18 20  1  0
 19 18  2  0
 21 20  1  0
 21 26  1  0
 21 22  1  6
 23 22  1  0
 24 23  1  0
 24 25  2  0
 26 29  2  0
 26 27  1  0
 28 24  1  0
M  END
$$$$
