LFE.pdb
     RDKit          3D

 29 29  0  0  1  0  0  0  0  0999 V2000
   28.1049  -19.3859  -18.0558 C   0  0  0  0  0  0  0  0  0  0  0  0
   26.9746  -20.3616  -18.3098 C   0  0  2  0  0  0  0  0  0  0  0  0
   26.0744  -19.7971  -19.3584 C   0  0  0  0  0  0  0  0  0  0  0  0
   26.2853  -20.5954  -16.9855 C   0  0  0  0  0  0  0  0  0  0  0  0
   26.9841  -21.6699  -16.1685 C   0  0  2  0  0  0  0  0  0  0  0  0
   26.9776  -22.9331  -16.8524 N   0  0  0  0  0  0  0  0  0  0  0  0
   26.2835  -21.7532  -14.8713 C   0  0  0  0  0  0  0  0  0  0  0  0
   25.1749  -22.3254  -14.8230 O   0  0  0  0  0  0  0  0  0  0  0  0
   26.8296  -21.2077  -13.6952 N   0  0  0  0  0  0  0  0  0  0  0  0
   26.0878  -21.2221  -12.4814 C   0  0  1  0  0  0  0  0  0  0  0  0
   26.9665  -20.6347  -11.3882 C   0  0  0  0  0  0  0  0  0  0  0  0
   26.2334  -20.4860  -10.1194 C   0  0  0  0  0  0  0  0  0  0  0  0
   26.4955  -19.4501   -9.2465 C   0  0  0  0  0  0  0  0  0  0  0  0
   25.7917  -19.3262   -8.0515 C   0  0  0  0  0  0  0  0  0  0  0  0
   24.8266  -20.2331   -7.7242 C   0  0  0  0  0  0  0  0  0  0  0  0
   24.5471  -21.2748   -8.5781 C   0  0  0  0  0  0  0  0  0  0  0  0
   25.2517  -21.3850   -9.7577 C   0  0  0  0  0  0  0  0  0  0  0  0
   24.8603  -20.3660  -12.5401 C   0  0  0  0  0  0  0  0  0  0  0  0
   24.9263  -19.1582  -12.8814 O   0  0  0  0  0  0  0  0  0  0  0  0
   23.6257  -20.9324  -12.2069 N   0  0  0  0  0  0  0  0  0  0  0  0
   22.3504  -20.2029  -12.4009 C   0  0  1  0  0  0  0  0  0  0  0  0
   22.0814  -20.0357  -13.8632 C   0  0  0  0  0  0  0  0  0  0  0  0
   20.7410  -19.4603  -14.1352 C   0  0  0  0  0  0  0  0  0  0  0  0
   20.4029  -19.4863  -15.5918 C   0  0  0  0  0  0  0  0  0  0  0  0
   20.4941  -20.4992  -16.3105 O   0  0  0  0  0  0  0  0  0  0  0  0
   21.2638  -20.9591  -11.7590 C   0  0  0  0  0  0  0  0  0  0  0  0
   20.1264  -20.2498  -11.3457 O   0  0  0  0  0  0  0  0  0  0  0  0
   19.9643  -18.3019  -16.1540 O   0  0  0  0  0  0  0  0  0  0  0  0
   21.2619  -22.1723  -11.5488 O   0  0  0  0  0  0  0  0  0  0  0  0
  2  4  1  0
  2  1  1  1
  3  2  1  0
  5  6  1  6
  5  4  1  0
  7  8  2  0
  7  5  1  0
  9  7  1  0
 10  9  1  0
 10 11  1  1
 12 17  2  0
 12 11  1  0
 13 12  1  0
 14 15  1  0
 14 13  2  0
 15 16  2  0
 16 17  1  0
 18 10  1  0
 18 20  1  0
 19 18  2  0
 21 20  1  0
 21 26  1  0
 21 22  1  6
 23 22  1  0
 24 23  1  0
 24 25  2  0
 26 29  2  0
 26 27  1  0
 28 24  1  0
M  END
$$$$
