LFE.pdb
     RDKit          3D

 29 29  0  0  1  0  0  0  0  0999 V2000
   27.1885  -13.7626  -15.0541 C   0  0  0  0  0  0  0  0  0  0  0  0
   26.1536  -13.7455  -16.1598 C   0  0  2  0  0  0  0  0  0  0  0  0
   25.0826  -12.7677  -15.8053 C   0  0  0  0  0  0  0  0  0  0  0  0
   25.6495  -15.1614  -16.3166 C   0  0  0  0  0  0  0  0  0  0  0  0
   26.7905  -16.1487  -16.5006 C   0  0  2  0  0  0  0  0  0  0  0  0
   27.3720  -16.0369  -17.8094 N   0  0  0  0  0  0  0  0  0  0  0  0
   26.2387  -17.4982  -16.2670 C   0  0  0  0  0  0  0  0  0  0  0  0
   25.3339  -17.9158  -17.0193 O   0  0  0  0  0  0  0  0  0  0  0  0
   26.7033  -18.3211  -15.2249 N   0  0  0  0  0  0  0  0  0  0  0  0
   26.1374  -19.6095  -15.0163 C   0  0  1  0  0  0  0  0  0  0  0  0
   27.1460  -20.4449  -14.2436 C   0  0  0  0  0  0  0  0  0  0  0  0
   26.6708  -21.8240  -14.0398 C   0  0  0  0  0  0  0  0  0  0  0  0
   26.7736  -22.7809  -15.0284 C   0  0  0  0  0  0  0  0  0  0  0  0
   26.3186  -24.0798  -14.8170 C   0  0  0  0  0  0  0  0  0  0  0  0
   25.7609  -24.4273  -13.6215 C   0  0  0  0  0  0  0  0  0  0  0  0
   25.6473  -23.4909  -12.6202 C   0  0  0  0  0  0  0  0  0  0  0  0
   26.1020  -22.2090  -12.8435 C   0  0  0  0  0  0  0  0  0  0  0  0
   24.8951  -19.5705  -14.1807 C   0  0  0  0  0  0  0  0  0  0  0  0
   24.9113  -19.1028  -13.0142 O   0  0  0  0  0  0  0  0  0  0  0  0
   23.7033  -20.0660  -14.7193 N   0  0  0  0  0  0  0  0  0  0  0  0
   22.4293  -20.0375  -13.9627 C   0  0  1  0  0  0  0  0  0  0  0  0
   21.3669  -19.3812  -14.7869 C   0  0  0  0  0  0  0  0  0  0  0  0
   21.0217  -20.1621  -16.0005 C   0  0  0  0  0  0  0  0  0  0  0  0
   20.0500  -19.4385  -16.8772 C   0  0  0  0  0  0  0  0  0  0  0  0
   18.8162  -19.6021  -16.8337 O   0  0  0  0  0  0  0  0  0  0  0  0
   22.0426  -21.4159  -13.6240 C   0  0  0  0  0  0  0  0  0  0  0  0
   22.5653  -22.4552  -14.4080 O   0  0  0  0  0  0  0  0  0  0  0  0
   20.5758  -18.5373  -17.7843 O   0  0  0  0  0  0  0  0  0  0  0  0
   21.2930  -21.7445  -12.7042 O   0  0  0  0  0  0  0  0  0  0  0  0
  2  4  1  0
  2  1  1  1
  3  2  1  0
  5  6  1  6
  5  4  1  0
  7  8  2  0
  7  5  1  0
  9  7  1  0
 10  9  1  0
 10 11  1  1
 12 17  2  0
 12 11  1  0
 13 12  1  0
 14 15  1  0
 14 13  2  0
 15 16  2  0
 16 17  1  0
 18 10  1  0
 18 20  1  0
 19 18  2  0
 21 20  1  0
 21 26  1  0
 21 22  1  6
 23 22  1  0
 24 23  1  0
 24 25  2  0
 26 29  2  0
 26 27  1  0
 28 24  1  0
M  END
$$$$
