LFE.pdb
     RDKit          3D

 29 29  0  0  1  0  0  0  0  0999 V2000
   26.3755  -20.2680  -15.6437 C   0  0  0  0  0  0  0  0  0  0  0  0
   27.6856  -20.2352  -14.8844 C   0  0  2  0  0  0  0  0  0  0  0  0
   28.7600  -20.8083  -15.7480 C   0  0  0  0  0  0  0  0  0  0  0  0
   27.4720  -21.0011  -13.5994 C   0  0  0  0  0  0  0  0  0  0  0  0
   26.3896  -20.3688  -12.7398 C   0  0  2  0  0  0  0  0  0  0  0  0
   26.3472  -18.9439  -12.9174 N   0  0  0  0  0  0  0  0  0  0  0  0
   26.6814  -20.7311  -11.3384 C   0  0  0  0  0  0  0  0  0  0  0  0
   26.8136  -21.9374  -11.0447 O   0  0  0  0  0  0  0  0  0  0  0  0
   26.8136  -19.7579  -10.3312 N   0  0  0  0  0  0  0  0  0  0  0  0
   26.8451  -20.1379   -8.9607 C   0  0  1  0  0  0  0  0  0  0  0  0
   27.8387  -19.2350   -8.2467 C   0  0  0  0  0  0  0  0  0  0  0  0
   27.9875  -19.6012   -6.8279 C   0  0  0  0  0  0  0  0  0  0  0  0
   28.6580  -20.7426   -6.4390 C   0  0  0  0  0  0  0  0  0  0  0  0
   28.7883  -21.0721   -5.0925 C   0  0  0  0  0  0  0  0  0  0  0  0
   28.2514  -20.2661   -4.1318 C   0  0  0  0  0  0  0  0  0  0  0  0
   27.5782  -19.1225   -4.4944 C   0  0  0  0  0  0  0  0  0  0  0  0
   27.4569  -18.8087   -5.8311 C   0  0  0  0  0  0  0  0  0  0  0  0
   25.5291  -19.9424   -8.2728 C   0  0  0  0  0  0  0  0  0  0  0  0
   24.7883  -18.9665   -8.5530 O   0  0  0  0  0  0  0  0  0  0  0  0
   25.1295  -20.8686   -7.3041 N   0  0  0  0  0  0  0  0  0  0  0  0
   23.7075  -21.2396   -7.1133 C   0  0  1  0  0  0  0  0  0  0  0  0
   23.1843  -21.8909   -8.3545 C   0  0  0  0  0  0  0  0  0  0  0  0
   21.7618  -22.2946   -8.2316 C   0  0  0  0  0  0  0  0  0  0  0  0
   20.8359  -21.2778   -8.8193 C   0  0  0  0  0  0  0  0  0  0  0  0
   20.1579  -20.4802   -8.1448 O   0  0  0  0  0  0  0  0  0  0  0  0
   23.6011  -22.1543   -5.9659 C   0  0  0  0  0  0  0  0  0  0  0  0
   24.6323  -23.0853   -5.7715 O   0  0  0  0  0  0  0  0  0  0  0  0
   20.7427  -21.2388  -10.1982 O   0  0  0  0  0  0  0  0  0  0  0  0
   22.6784  -22.1774   -5.1509 O   0  0  0  0  0  0  0  0  0  0  0  0
  2  4  1  0
  2  1  1  6
  3  2  1  0
  5  6  1  1
  5  4  1  0
  7  8  2  0
  7  5  1  0
  9  7  1  0
 10  9  1  0
 10 11  1  1
 12 17  2  0
 12 11  1  0
 13 12  1  0
 14 15  1  0
 14 13  2  0
 15 16  2  0
 16 17  1  0
 18 10  1  0
 18 20  1  0
 19 18  2  0
 21 20  1  0
 21 26  1  0
 21 22  1  6
 23 22  1  0
 24 23  1  0
 24 25  2  0
 26 29  2  0
 26 27  1  0
 28 24  1  0
M  END
$$$$
