LFE.pdb
     RDKit          3D

 29 29  0  0  1  0  0  0  0  0999 V2000
   28.6883  -18.9923  -18.1723 C   0  0  0  0  0  0  0  0  0  0  0  0
   27.5561  -19.8324  -18.7255 C   0  0  2  0  0  0  0  0  0  0  0  0
   26.7489  -18.9986  -19.6646 C   0  0  0  0  0  0  0  0  0  0  0  0
   26.7665  -20.3452  -17.5435 C   0  0  0  0  0  0  0  0  0  0  0  0
   27.6394  -21.1369  -16.5835 C   0  0  2  0  0  0  0  0  0  0  0  0
   28.1065  -22.3547  -17.1854 N   0  0  0  0  0  0  0  0  0  0  0  0
   26.8277  -21.4051  -15.3795 C   0  0  0  0  0  0  0  0  0  0  0  0
   25.9776  -22.3187  -15.4192 O   0  0  0  0  0  0  0  0  0  0  0  0
   26.9864  -20.6621  -14.1955 N   0  0  0  0  0  0  0  0  0  0  0  0
   26.1793  -20.9383  -13.0570 C   0  0  1  0  0  0  0  0  0  0  0  0
   26.7765  -20.2006  -11.8690 C   0  0  0  0  0  0  0  0  0  0  0  0
   25.9411  -20.3396  -10.6640 C   0  0  0  0  0  0  0  0  0  0  0  0
   24.6547  -19.8436  -10.6110 C   0  0  0  0  0  0  0  0  0  0  0  0
   23.8802  -19.9848   -9.4626 C   0  0  0  0  0  0  0  0  0  0  0  0
   24.3853  -20.6196   -8.3659 C   0  0  0  0  0  0  0  0  0  0  0  0
   25.6653  -21.1227   -8.3941 C   0  0  0  0  0  0  0  0  0  0  0  0
   26.4206  -20.9757   -9.5377 C   0  0  0  0  0  0  0  0  0  0  0  0
   24.7763  -20.4348  -13.2031 C   0  0  0  0  0  0  0  0  0  0  0  0
   24.5433  -19.2277  -13.4642 O   0  0  0  0  0  0  0  0  0  0  0  0
   23.7165  -21.3333  -13.0437 N   0  0  0  0  0  0  0  0  0  0  0  0
   22.3160  -20.9560  -13.3477 C   0  0  1  0  0  0  0  0  0  0  0  0
   21.7968  -21.8012  -14.4679 C   0  0  0  0  0  0  0  0  0  0  0  0
   20.3577  -21.5653  -14.7417 C   0  0  0  0  0  0  0  0  0  0  0  0
   20.0304  -21.7109  -16.1937 C   0  0  0  0  0  0  0  0  0  0  0  0
   20.0659  -22.7917  -16.8112 O   0  0  0  0  0  0  0  0  0  0  0  0
   21.4974  -21.1402  -12.1393 C   0  0  0  0  0  0  0  0  0  0  0  0
   20.2424  -20.5150  -12.0957 O   0  0  0  0  0  0  0  0  0  0  0  0
   19.6686  -20.5619  -16.8723 O   0  0  0  0  0  0  0  0  0  0  0  0
   21.8173  -21.8010  -11.1508 O   0  0  0  0  0  0  0  0  0  0  0  0
  2  4  1  0
  2  1  1  1
  3  2  1  0
  5  6  1  6
  5  4  1  0
  7  8  2  0
  7  5  1  0
  9  7  1  0
 10  9  1  0
 10 11  1  1
 12 17  2  0
 12 11  1  0
 13 12  1  0
 14 15  1  0
 14 13  2  0
 15 16  2  0
 16 17  1  0
 18 10  1  0
 18 20  1  0
 19 18  2  0
 21 20  1  0
 21 26  1  0
 21 22  1  6
 23 22  1  0
 24 23  1  0
 24 25  2  0
 26 29  2  0
 26 27  1  0
 28 24  1  0
M  END
$$$$
