LFE.pdb
     RDKit          3D

 29 29  0  0  1  0  0  0  0  0999 V2000
   13.6477  -18.6434    3.5039 C   0  0  0  0  0  0  0  0  0  0  0  0
   14.6492  -19.6108    4.0997 C   0  0  2  0  0  0  0  0  0  0  0  0
   13.9670  -20.4323    5.1430 C   0  0  0  0  0  0  0  0  0  0  0  0
   15.7964  -18.7864    4.6362 C   0  0  0  0  0  0  0  0  0  0  0  0
   16.4800  -17.9896    3.5371 C   0  0  2  0  0  0  0  0  0  0  0  0
   17.1290  -18.8545    2.5913 N   0  0  0  0  0  0  0  0  0  0  0  0
   17.4446  -17.0843    4.1931 C   0  0  0  0  0  0  0  0  0  0  0  0
   18.5221  -17.5561    4.6119 O   0  0  0  0  0  0  0  0  0  0  0  0
   17.1827  -15.7120    4.3574 N   0  0  0  0  0  0  0  0  0  0  0  0
   18.0671  -14.8946    5.1147 C   0  0  1  0  0  0  0  0  0  0  0  0
   17.7440  -13.4415    4.8039 C   0  0  0  0  0  0  0  0  0  0  0  0
   18.7155  -12.5222    5.4208 C   0  0  0  0  0  0  0  0  0  0  0  0
   18.4387  -11.8555    6.5966 C   0  0  0  0  0  0  0  0  0  0  0  0
   19.3701  -10.9902    7.1647 C   0  0  0  0  0  0  0  0  0  0  0  0
   20.5776  -10.7878    6.5631 C   0  0  0  0  0  0  0  0  0  0  0  0
   20.8769  -11.4412    5.3901 C   0  0  0  0  0  0  0  0  0  0  0  0
   19.9454  -12.2948    4.8391 C   0  0  0  0  0  0  0  0  0  0  0  0
   17.8881  -15.0585    6.5926 C   0  0  0  0  0  0  0  0  0  0  0  0
   16.7448  -15.1880    7.0982 O   0  0  0  0  0  0  0  0  0  0  0  0
   19.0208  -15.0660    7.4131 N   0  0  0  0  0  0  0  0  0  0  0  0
   18.9385  -15.3727    8.8606 C   0  0  1  0  0  0  0  0  0  0  0  0
   19.5487  -16.7123    9.1287 C   0  0  0  0  0  0  0  0  0  0  0  0
   19.3831  -17.1434   10.5388 C   0  0  0  0  0  0  0  0  0  0  0  0
   19.5966  -18.6141   10.7059 C   0  0  0  0  0  0  0  0  0  0  0  0
   19.9448  -19.3769    9.7853 O   0  0  0  0  0  0  0  0  0  0  0  0
   19.6441  -14.3237    9.6131 C   0  0  0  0  0  0  0  0  0  0  0  0
   19.2914  -14.1309   10.9571 O   0  0  0  0  0  0  0  0  0  0  0  0
   19.3890  -19.1374   11.9687 O   0  0  0  0  0  0  0  0  0  0  0  0
   20.5264  -13.5908    9.1654 O   0  0  0  0  0  0  0  0  0  0  0  0
  2  4  1  0
  2  1  1  1
  3  2  1  0
  5  6  1  6
  5  4  1  0
  7  8  2  0
  7  5  1  0
  9  7  1  0
 10  9  1  0
 10 11  1  6
 12 17  2  0
 12 11  1  0
 13 12  1  0
 14 15  1  0
 14 13  2  0
 15 16  2  0
 16 17  1  0
 18 10  1  0
 18 20  1  0
 19 18  2  0
 21 20  1  0
 21 26  1  0
 21 22  1  6
 23 22  1  0
 24 23  1  0
 24 25  2  0
 26 29  2  0
 26 27  1  0
 28 24  1  0
M  END
$$$$
