YPH.pdb
     RDKit          3D

 30 32  0  0  1  0  0  0  0  0999 V2000
    7.9746  -13.5620   15.4124 O   0  0  0  0  0  0  0  0  0  0  0  0
    8.0239  -13.7979   16.8012 C   0  0  0  0  0  0  0  0  0  0  0  0
    8.8485  -14.7691   17.3229 C   0  0  0  0  0  0  0  0  0  0  0  0
    8.8996  -15.0038   18.6864 C   0  0  0  0  0  0  0  0  0  0  0  0
    8.1380  -14.2868   19.5806 C   0  0  0  0  0  0  0  0  0  0  0  0
    8.1552  -14.4868   21.0211 C   0  0  0  0  0  0  0  0  0  0  0  0
    7.9356  -15.9093   21.4829 C   0  0  2  0  0  0  0  0  0  0  0  0
    6.6887  -16.3853   20.9396 N   0  0  0  0  0  0  0  0  0  0  0  0
    8.1715  -16.1540   22.8947 C   0  0  0  0  0  0  0  0  0  0  0  0
    7.3062  -15.5539   23.6715 O   0  0  0  0  0  0  0  0  0  0  0  0
    7.3200  -13.3167   19.0116 C   0  0  0  0  0  0  0  0  0  0  0  0
    7.2493  -13.0632   17.6668 C   0  0  0  0  0  0  0  0  0  0  0  0
    9.1298  -16.9008   23.5607 N   0  0  0  0  0  0  0  0  0  0  0  0
    9.3976  -18.3414   23.1812 C   0  0  0  0  0  0  0  0  0  0  0  0
   10.9019  -18.1699   22.8885 C   0  0  0  0  0  0  0  0  0  0  0  0
   11.3590  -17.0173   23.8191 C   0  0  0  0  0  0  0  0  0  0  0  0
   10.0756  -16.8005   24.6130 C   0  0  1  0  0  0  0  0  0  0  0  0
   10.0588  -15.7936   25.6087 C   0  0  0  0  0  0  0  0  0  0  0  0
   10.5041  -14.6318   25.2935 O   0  0  0  0  0  0  0  0  0  0  0  0
    9.6124  -15.8960   26.9458 N   0  0  0  0  0  0  0  0  0  0  0  0
    9.8207  -14.8308   27.9228 C   0  0  1  0  0  0  0  0  0  0  0  0
    8.5404  -14.2732   28.4528 C   0  0  0  0  0  0  0  0  0  0  0  0
    7.7592  -13.5786   27.3970 C   0  0  0  0  0  0  0  0  0  0  0  0
    6.4297  -13.7702   27.0721 C   0  0  0  0  0  0  0  0  0  0  0  0
    6.0742  -12.9608   26.0629 N   0  0  0  0  0  0  0  0  0  0  0  0
    7.1665  -12.2432   25.7295 C   0  0  0  0  0  0  0  0  0  0  0  0
    8.1801  -12.6185   26.5359 N   0  0  0  0  0  0  0  0  0  0  0  0
   10.5308  -15.4673   29.0880 C   0  0  0  0  0  0  0  0  0  0  0  0
   10.6938  -16.7076   29.0370 O   0  0  0  0  0  0  0  0  0  0  0  0
   10.9882  -14.7481   30.1669 O   0  0  0  0  0  0  0  0  0  0  0  0
  2  1  1  0
  3  2  2  0
  4  3  1  0
  5  4  2  0
  5 11  1  0
  6  5  1  0
  7  6  1  0
  7  8  1  1
  9 10  2  0
  9  7  1  0
 11 12  2  0
 12  2  1  0
 13  9  1  0
 14 13  1  0
 15 14  1  0
 16 15  1  0
 16 17  1  0
 17 13  1  0
 17 18  1  6
 19 18  2  0
 20 18  1  0
 21 28  1  0
 21 20  1  0
 21 22  1  1
 23 22  1  0
 24 23  2  0
 25 24  1  0
 26 25  1  0
 26 27  2  0
 27 23  1  0
 28 30  1  0
 29 28  2  0
M  END
$$$$
