YPH.pdb
     RDKit          3D

 30 32  0  0  1  0  0  0  0  0999 V2000
    7.5531  -12.3465   16.8481 O   0  0  0  0  0  0  0  0  0  0  0  0
    7.5297  -13.1148   18.0295 C   0  0  0  0  0  0  0  0  0  0  0  0
    7.0348  -12.5905   19.2024 C   0  0  0  0  0  0  0  0  0  0  0  0
    7.0102  -13.3420   20.3649 C   0  0  0  0  0  0  0  0  0  0  0  0
    7.4735  -14.6370   20.4080 C   0  0  0  0  0  0  0  0  0  0  0  0
    7.4674  -15.4734   21.5978 C   0  0  0  0  0  0  0  0  0  0  0  0
    8.7863  -15.5727   22.3299 C   0  0  2  0  0  0  0  0  0  0  0  0
    9.6584  -16.4537   21.5955 N   0  0  0  0  0  0  0  0  0  0  0  0
    8.6936  -15.7869   23.7631 C   0  0  0  0  0  0  0  0  0  0  0  0
    8.9650  -17.0171   24.1171 O   0  0  0  0  0  0  0  0  0  0  0  0
    7.9643  -15.1269   19.2025 C   0  0  0  0  0  0  0  0  0  0  0  0
    8.0009  -14.4060   18.0377 C   0  0  0  0  0  0  0  0  0  0  0  0
    8.3791  -14.9369   24.8111 N   0  0  0  0  0  0  0  0  0  0  0  0
    8.5358  -13.4378   24.6725 C   0  0  0  0  0  0  0  0  0  0  0  0
    7.0748  -13.0760   25.0081 C   0  0  0  0  0  0  0  0  0  0  0  0
    6.5967  -14.1992   25.9636 C   0  0  0  0  0  0  0  0  0  0  0  0
    7.9063  -14.9577   26.1482 C   0  0  1  0  0  0  0  0  0  0  0  0
    7.9119  -16.1041   26.9797 C   0  0  0  0  0  0  0  0  0  0  0  0
    7.0493  -17.0235   26.7385 O   0  0  0  0  0  0  0  0  0  0  0  0
    8.7577  -16.3816   28.0776 N   0  0  0  0  0  0  0  0  0  0  0  0
    9.5059  -17.6305   28.1912 C   0  0  1  0  0  0  0  0  0  0  0  0
   10.3979  -17.8794   27.0194 C   0  0  0  0  0  0  0  0  0  0  0  0
   11.1855  -19.1293   27.1778 C   0  0  0  0  0  0  0  0  0  0  0  0
   11.1690  -20.0030   28.2484 C   0  0  0  0  0  0  0  0  0  0  0  0
   12.0149  -21.0217   28.0329 N   0  0  0  0  0  0  0  0  0  0  0  0
   12.5819  -20.8150   26.8266 C   0  0  0  0  0  0  0  0  0  0  0  0
   12.0794  -19.6732   26.3144 N   0  0  0  0  0  0  0  0  0  0  0  0
   10.4017  -17.4716   29.3910 C   0  0  0  0  0  0  0  0  0  0  0  0
   10.9749  -16.3662   29.5216 O   0  0  0  0  0  0  0  0  0  0  0  0
   10.5992  -18.4722   30.3131 O   0  0  0  0  0  0  0  0  0  0  0  0
  2  1  1  0
  3  2  2  0
  4  3  1  0
  5  4  2  0
  5 11  1  0
  6  5  1  0
  7  6  1  0
  7  8  1  6
  9 10  2  0
  9  7  1  0
 11 12  2  0
 12  2  1  0
 13  9  1  0
 14 13  1  0
 15 14  1  0
 16 15  1  0
 16 17  1  0
 17 13  1  0
 17 18  1  6
 19 18  2  0
 20 18  1  0
 21 28  1  0
 21 20  1  0
 21 22  1  6
 23 22  1  0
 24 23  2  0
 25 24  1  0
 26 25  1  0
 26 27  2  0
 27 23  1  0
 28 30  1  0
 29 28  2  0
M  END
$$$$
