YPH.pdb
     RDKit          3D

 30 32  0  0  1  0  0  0  0  0999 V2000
    5.4887  -10.9771   28.4869 O   0  0  0  0  0  0  0  0  0  0  0  0
    6.0923  -11.8185   27.5307 C   0  0  0  0  0  0  0  0  0  0  0  0
    5.3649  -12.3245   26.4769 C   0  0  0  0  0  0  0  0  0  0  0  0
    5.9542  -13.1513   25.5357 C   0  0  0  0  0  0  0  0  0  0  0  0
    7.2820  -13.5061   25.6036 C   0  0  0  0  0  0  0  0  0  0  0  0
    7.9537  -14.3658   24.6417 C   0  0  0  0  0  0  0  0  0  0  0  0
    7.0608  -15.3348   23.9008 C   0  0  2  0  0  0  0  0  0  0  0  0
    6.5179  -16.2786   24.8445 N   0  0  0  0  0  0  0  0  0  0  0  0
    7.6095  -15.8788   22.6713 C   0  0  0  0  0  0  0  0  0  0  0  0
    7.9699  -17.1320   22.7802 O   0  0  0  0  0  0  0  0  0  0  0  0
    7.9790  -12.9736   26.6828 C   0  0  0  0  0  0  0  0  0  0  0  0
    7.4217  -12.1534   27.6285 C   0  0  0  0  0  0  0  0  0  0  0  0
    7.8140  -15.3224   21.4191 N   0  0  0  0  0  0  0  0  0  0  0  0
    6.7554  -14.4585   20.7678 C   0  0  0  0  0  0  0  0  0  0  0  0
    7.6408  -13.2110   20.5735 C   0  0  0  0  0  0  0  0  0  0  0  0
    9.0783  -13.7663   20.4041 C   0  0  0  0  0  0  0  0  0  0  0  0
    8.7778  -15.2608   20.3801 C   0  0  1  0  0  0  0  0  0  0  0  0
    9.8583  -16.1652   20.2385 C   0  0  0  0  0  0  0  0  0  0  0  0
   10.7089  -15.9410   19.3038 O   0  0  0  0  0  0  0  0  0  0  0  0
   10.1346  -17.3212   21.0034 N   0  0  0  0  0  0  0  0  0  0  0  0
   11.4463  -17.9632   21.0030 C   0  0  1  0  0  0  0  0  0  0  0  0
   12.2797  -17.5761   19.8255 C   0  0  0  0  0  0  0  0  0  0  0  0
   11.8205  -18.2412   18.5788 C   0  0  0  0  0  0  0  0  0  0  0  0
   10.5960  -18.8382   18.3467 C   0  0  0  0  0  0  0  0  0  0  0  0
   10.5463  -19.3332   17.1008 N   0  0  0  0  0  0  0  0  0  0  0  0
   11.7332  -19.0609   16.5207 C   0  0  0  0  0  0  0  0  0  0  0  0
   12.4985  -18.4027   17.4148 N   0  0  0  0  0  0  0  0  0  0  0  0
   12.1606  -17.4515   22.2258 C   0  0  0  0  0  0  0  0  0  0  0  0
   12.4673  -16.2377   22.2304 O   0  0  0  0  0  0  0  0  0  0  0  0
   12.4733  -18.2535   23.2980 O   0  0  0  0  0  0  0  0  0  0  0  0
  2  1  1  0
  3  2  2  0
  4  3  1  0
  5  4  2  0
  5 11  1  0
  6  5  1  0
  7  6  1  0
  7  8  1  1
  9 10  2  0
  9  7  1  0
 11 12  2  0
 12  2  1  0
 13  9  1  0
 14 13  1  0
 15 14  1  0
 16 15  1  0
 16 17  1  0
 17 13  1  0
 17 18  1  1
 19 18  2  0
 20 18  1  0
 21 28  1  0
 21 20  1  0
 21 22  1  6
 23 22  1  0
 24 23  2  0
 25 24  1  0
 26 25  1  0
 26 27  2  0
 27 23  1  0
 28 30  1  0
 29 28  2  0
M  END
$$$$
