YPH.pdb
     RDKit          3D

 30 32  0  0  1  0  0  0  0  0999 V2000
   10.1052  -19.9971   35.0387 O   0  0  0  0  0  0  0  0  0  0  0  0
   10.4984  -20.6278   33.8410 C   0  0  0  0  0  0  0  0  0  0  0  0
   11.7363  -20.3853   33.2895 C   0  0  0  0  0  0  0  0  0  0  0  0
   12.1261  -21.0028   32.1133 C   0  0  0  0  0  0  0  0  0  0  0  0
   11.3061  -21.8809   31.4422 C   0  0  0  0  0  0  0  0  0  0  0  0
   11.6648  -22.5611   30.2077 C   0  0  0  0  0  0  0  0  0  0  0  0
   11.4791  -21.7543   28.9429 C   0  0  2  0  0  0  0  0  0  0  0  0
   11.1194  -22.6486   27.8718 N   0  0  0  0  0  0  0  0  0  0  0  0
   12.5183  -20.7797   28.6622 C   0  0  0  0  0  0  0  0  0  0  0  0
   13.6277  -21.3222   28.2296 O   0  0  0  0  0  0  0  0  0  0  0  0
   10.0660  -22.0969   32.0334 C   0  0  0  0  0  0  0  0  0  0  0  0
    9.6542  -21.4998   33.1959 C   0  0  0  0  0  0  0  0  0  0  0  0
   12.5480  -19.3983   28.7629 N   0  0  0  0  0  0  0  0  0  0  0  0
   11.3856  -18.5566   28.2818 C   0  0  0  0  0  0  0  0  0  0  0  0
   11.1215  -17.8388   29.6208 C   0  0  0  0  0  0  0  0  0  0  0  0
   12.5047  -17.7767   30.3180 C   0  0  0  0  0  0  0  0  0  0  0  0
   13.3817  -18.3392   29.2050 C   0  0  1  0  0  0  0  0  0  0  0  0
   14.7732  -18.4620   29.4378 C   0  0  0  0  0  0  0  0  0  0  0  0
   15.2192  -18.1275   30.5939 O   0  0  0  0  0  0  0  0  0  0  0  0
   15.7715  -18.9091   28.5427 N   0  0  0  0  0  0  0  0  0  0  0  0
   17.0859  -19.3543   28.9974 C   0  0  1  0  0  0  0  0  0  0  0  0
   17.0096  -20.4895   29.9650 C   0  0  0  0  0  0  0  0  0  0  0  0
   18.3580  -20.9621   30.3726 C   0  0  0  0  0  0  0  0  0  0  0  0
   19.5368  -20.2408   30.3727 C   0  0  0  0  0  0  0  0  0  0  0  0
   20.5511  -21.0038   30.8071 N   0  0  0  0  0  0  0  0  0  0  0  0
   20.0378  -22.2187   31.0898 C   0  0  0  0  0  0  0  0  0  0  0  0
   18.7155  -22.1895   30.8265 N   0  0  0  0  0  0  0  0  0  0  0  0
   17.7953  -19.8742   27.7753 C   0  0  0  0  0  0  0  0  0  0  0  0
   17.1339  -19.9058   26.7127 O   0  0  0  0  0  0  0  0  0  0  0  0
   19.1027  -20.2994   27.7952 O   0  0  0  0  0  0  0  0  0  0  0  0
  2  1  1  0
  3  2  2  0
  4  3  1  0
  5  4  2  0
  5 11  1  0
  6  5  1  0
  7  6  1  0
  7  8  1  6
  9 10  2  0
  9  7  1  0
 11 12  2  0
 12  2  1  0
 13  9  1  0
 14 13  1  0
 15 14  1  0
 16 15  1  0
 16 17  1  0
 17 13  1  0
 17 18  1  1
 19 18  2  0
 20 18  1  0
 21 28  1  0
 21 20  1  0
 21 22  1  1
 23 22  1  0
 24 23  2  0
 25 24  1  0
 26 25  1  0
 26 27  2  0
 27 23  1  0
 28 30  1  0
 29 28  2  0
M  END
$$$$
