YPH.pdb
     RDKit          3D

 30 32  0  0  1  0  0  0  0  0999 V2000
    5.3538  -10.0601   27.6674 O   0  0  0  0  0  0  0  0  0  0  0  0
    5.9795  -11.1763   27.0764 C   0  0  0  0  0  0  0  0  0  0  0  0
    5.4215  -12.4312   27.1733 C   0  0  0  0  0  0  0  0  0  0  0  0
    6.0331  -13.5300   26.5941 C   0  0  0  0  0  0  0  0  0  0  0  0
    7.2164  -13.4262   25.8994 C   0  0  0  0  0  0  0  0  0  0  0  0
    7.8997  -14.5438   25.2673 C   0  0  0  0  0  0  0  0  0  0  0  0
    7.0154  -15.4896   24.4872 C   0  0  2  0  0  0  0  0  0  0  0  0
    6.1930  -16.2253   25.4138 N   0  0  0  0  0  0  0  0  0  0  0  0
    7.6799  -16.2566   23.4485 C   0  0  0  0  0  0  0  0  0  0  0  0
    7.9506  -17.4846   23.8106 O   0  0  0  0  0  0  0  0  0  0  0  0
    7.7450  -12.1419   25.8260 C   0  0  0  0  0  0  0  0  0  0  0  0
    7.1617  -11.0373   26.3893 C   0  0  0  0  0  0  0  0  0  0  0  0
    8.0701  -15.9318   22.1595 N   0  0  0  0  0  0  0  0  0  0  0  0
    7.1038  -15.2807   21.1933 C   0  0  0  0  0  0  0  0  0  0  0  0
    7.9616  -14.0333   20.8997 C   0  0  0  0  0  0  0  0  0  0  0  0
    9.4270  -14.5094   21.0705 C   0  0  0  0  0  0  0  0  0  0  0  0
    9.1913  -15.9992   21.2932 C   0  0  1  0  0  0  0  0  0  0  0  0
   10.3137  -16.8369   21.5033 C   0  0  0  0  0  0  0  0  0  0  0  0
   10.1084  -17.9976   22.0112 O   0  0  0  0  0  0  0  0  0  0  0  0
   11.6724  -16.5603   21.2292 N   0  0  0  0  0  0  0  0  0  0  0  0
   12.7405  -16.8810   22.1721 C   0  0  1  0  0  0  0  0  0  0  0  0
   12.8071  -18.3371   22.4977 C   0  0  0  0  0  0  0  0  0  0  0  0
   12.0773  -18.6588   23.7513 C   0  0  0  0  0  0  0  0  0  0  0  0
   11.5754  -17.7703   24.6832 C   0  0  0  0  0  0  0  0  0  0  0  0
   10.9777  -18.4324   25.6852 N   0  0  0  0  0  0  0  0  0  0  0  0
   11.0882  -19.7481   25.4097 C   0  0  0  0  0  0  0  0  0  0  0  0
   11.7517  -19.8805   24.2432 N   0  0  0  0  0  0  0  0  0  0  0  0
   14.0293  -16.5340   21.4751 C   0  0  0  0  0  0  0  0  0  0  0  0
   15.0748  -16.6033   22.1604 O   0  0  0  0  0  0  0  0  0  0  0  0
   14.0856  -16.1568   20.1541 O   0  0  0  0  0  0  0  0  0  0  0  0
  2  1  1  0
  3  2  2  0
  4  3  1  0
  5  4  2  0
  5 11  1  0
  6  5  1  0
  7  6  1  0
  7  8  1  1
  9 10  2  0
  9  7  1  0
 11 12  2  0
 12  2  1  0
 13  9  1  0
 14 13  1  0
 15 14  1  0
 16 15  1  0
 16 17  1  0
 17 13  1  0
 17 18  1  1
 19 18  2  0
 20 18  1  0
 21 28  1  0
 21 20  1  0
 21 22  1  6
 23 22  1  0
 24 23  2  0
 25 24  1  0
 26 25  1  0
 26 27  2  0
 27 23  1  0
 28 30  1  0
 29 28  2  0
M  END
$$$$
