YPH.pdb
     RDKit          3D

 30 32  0  0  1  0  0  0  0  0999 V2000
    5.2261  -12.3145   27.8287 O   0  0  0  0  0  0  0  0  0  0  0  0
    5.8485  -13.0204   26.7793 C   0  0  0  0  0  0  0  0  0  0  0  0
    6.4226  -12.3510   25.7220 C   0  0  0  0  0  0  0  0  0  0  0  0
    7.0349  -13.0408   24.6895 C   0  0  0  0  0  0  0  0  0  0  0  0
    7.1008  -14.4151   24.6666 C   0  0  0  0  0  0  0  0  0  0  0  0
    7.7347  -15.1905   23.6119 C   0  0  0  0  0  0  0  0  0  0  0  0
    9.2352  -15.3358   23.7237 C   0  0  2  0  0  0  0  0  0  0  0  0
    9.7254  -15.9999   22.5426 N   0  0  0  0  0  0  0  0  0  0  0  0
    9.7248  -15.8232   25.0009 C   0  0  0  0  0  0  0  0  0  0  0  0
    9.6871  -17.1274   25.1014 O   0  0  0  0  0  0  0  0  0  0  0  0
    6.5089  -15.0508   25.7527 C   0  0  0  0  0  0  0  0  0  0  0  0
    5.8964  -14.3939   26.7876 C   0  0  0  0  0  0  0  0  0  0  0  0
   10.2226  -15.1689   26.1160 N   0  0  0  0  0  0  0  0  0  0  0  0
   10.7974  -13.7728   26.0085 C   0  0  0  0  0  0  0  0  0  0  0  0
    9.8620  -13.1167   27.0441 C   0  0  0  0  0  0  0  0  0  0  0  0
    9.5150  -14.2515   28.0416 C   0  0  0  0  0  0  0  0  0  0  0  0
   10.4244  -15.3528   27.5080 C   0  0  1  0  0  0  0  0  0  0  0  0
   10.4140  -16.6115   28.1571 C   0  0  0  0  0  0  0  0  0  0  0  0
   10.2141  -16.6303   29.4248 O   0  0  0  0  0  0  0  0  0  0  0  0
   10.6067  -17.8896   27.5854 N   0  0  0  0  0  0  0  0  0  0  0  0
   10.2706  -19.1213   28.2944 C   0  0  1  0  0  0  0  0  0  0  0  0
    9.6953  -20.1672   27.3968 C   0  0  0  0  0  0  0  0  0  0  0  0
    8.5865  -19.6341   26.5638 C   0  0  0  0  0  0  0  0  0  0  0  0
    7.6416  -18.6926   26.9252 C   0  0  0  0  0  0  0  0  0  0  0  0
    6.7986  -18.4625   25.9073 N   0  0  0  0  0  0  0  0  0  0  0  0
    7.1906  -19.2500   24.8848 C   0  0  0  0  0  0  0  0  0  0  0  0
    8.2686  -19.9547   25.2845 N   0  0  0  0  0  0  0  0  0  0  0  0
   11.5719  -19.6685   28.8183 C   0  0  0  0  0  0  0  0  0  0  0  0
   12.6123  -19.0539   28.4906 O   0  0  0  0  0  0  0  0  0  0  0  0
   11.6445  -20.7848   29.6177 O   0  0  0  0  0  0  0  0  0  0  0  0
  2  1  1  0
  3  2  2  0
  4  3  1  0
  5  4  2  0
  5 11  1  0
  6  5  1  0
  7  6  1  0
  7  8  1  6
  9 10  2  0
  9  7  1  0
 11 12  2  0
 12  2  1  0
 13  9  1  0
 14 13  1  0
 15 14  1  0
 16 15  1  0
 16 17  1  0
 17 13  1  0
 17 18  1  1
 19 18  2  0
 20 18  1  0
 21 28  1  0
 21 20  1  0
 21 22  1  6
 23 22  1  0
 24 23  2  0
 25 24  1  0
 26 25  1  0
 26 27  2  0
 27 23  1  0
 28 30  1  0
 29 28  2  0
M  END
$$$$
