YPH.pdb
     RDKit          3D

 30 32  0  0  1  0  0  0  0  0999 V2000
    7.4255  -13.1065   16.7612 O   0  0  0  0  0  0  0  0  0  0  0  0
    7.6738  -13.7290   18.0011 C   0  0  0  0  0  0  0  0  0  0  0  0
    7.6891  -15.1014   18.1109 C   0  0  0  0  0  0  0  0  0  0  0  0
    7.9326  -15.7165   19.3271 C   0  0  0  0  0  0  0  0  0  0  0  0
    8.1693  -14.9968   20.4758 C   0  0  0  0  0  0  0  0  0  0  0  0
    8.4354  -15.5892   21.7773 C   0  0  0  0  0  0  0  0  0  0  0  0
    7.2211  -15.8189   22.6478 C   0  0  2  0  0  0  0  0  0  0  0  0
    6.6269  -14.5437   22.9595 N   0  0  0  0  0  0  0  0  0  0  0  0
    7.4069  -16.7431   23.7524 C   0  0  0  0  0  0  0  0  0  0  0  0
    8.0536  -16.2154   24.7602 O   0  0  0  0  0  0  0  0  0  0  0  0
    8.1447  -13.6151   20.3202 C   0  0  0  0  0  0  0  0  0  0  0  0
    7.9064  -12.9798   19.1297 C   0  0  0  0  0  0  0  0  0  0  0  0
    7.0254  -18.0625   23.9338 N   0  0  0  0  0  0  0  0  0  0  0  0
    5.5870  -18.4917   23.7394 C   0  0  0  0  0  0  0  0  0  0  0  0
    5.8669  -19.5674   22.6705 C   0  0  0  0  0  0  0  0  0  0  0  0
    7.2926  -20.0848   22.9911 C   0  0  0  0  0  0  0  0  0  0  0  0
    7.5573  -19.3289   24.2884 C   0  0  1  0  0  0  0  0  0  0  0  0
    8.8002  -19.5191   24.9399 C   0  0  0  0  0  0  0  0  0  0  0  0
    9.8699  -19.2915   24.2681 O   0  0  0  0  0  0  0  0  0  0  0  0
    9.0334  -19.9454   26.2671 N   0  0  0  0  0  0  0  0  0  0  0  0
   10.3754  -20.0275   26.8370 C   0  0  1  0  0  0  0  0  0  0  0  0
   11.0315  -18.6920   26.9670 C   0  0  0  0  0  0  0  0  0  0  0  0
   11.7646  -18.3119   25.7319 C   0  0  0  0  0  0  0  0  0  0  0  0
   11.8673  -19.0357   24.5591 C   0  0  0  0  0  0  0  0  0  0  0  0
   12.6123  -18.3704   23.6634 N   0  0  0  0  0  0  0  0  0  0  0  0
   12.9949  -17.2167   24.2479 C   0  0  0  0  0  0  0  0  0  0  0  0
   12.4820  -17.1851   25.4947 N   0  0  0  0  0  0  0  0  0  0  0  0
   10.2029  -20.5628   28.2337 C   0  0  0  0  0  0  0  0  0  0  0  0
    9.1415  -20.2593   28.8244 O   0  0  0  0  0  0  0  0  0  0  0  0
   11.1460  -21.3475   28.8543 O   0  0  0  0  0  0  0  0  0  0  0  0
  2  1  1  0
  3  2  2  0
  4  3  1  0
  5  4  2  0
  5 11  1  0
  6  5  1  0
  7  6  1  0
  7  8  1  1
  9 10  2  0
  9  7  1  0
 11 12  2  0
 12  2  1  0
 13  9  1  0
 14 13  1  0
 15 14  1  0
 16 15  1  0
 16 17  1  0
 17 13  1  0
 17 18  1  6
 19 18  2  0
 20 18  1  0
 21 28  1  0
 21 20  1  0
 21 22  1  1
 23 22  1  0
 24 23  2  0
 25 24  1  0
 26 25  1  0
 26 27  2  0
 27 23  1  0
 28 30  1  0
 29 28  2  0
M  END
$$$$
