EQT.pdb
     RDKit          3D

 26 25  0  0  1  0  0  0  0  0999 V2000
   20.1512  -12.6152  -15.8592 N   0  0  0  0  0  0  0  0  0  0  0  0
   19.5707  -11.8396  -16.9789 C   0  0  1  0  0  0  0  0  0  0  0  0
   18.3825  -12.6235  -17.4203 C   0  0  0  0  0  0  0  0  0  0  0  0
   18.6412  -14.0098  -17.9017 C   0  0  0  0  0  0  0  0  0  0  0  0
   17.6606  -14.2596  -19.0240 C   0  0  0  0  0  0  0  0  0  0  0  0
   16.6724  -13.5122  -19.2354 O   0  0  0  0  0  0  0  0  0  0  0  0
   19.3123  -10.4912  -16.4901 C   0  0  0  0  0  0  0  0  0  0  0  0
   18.7723   -9.6214  -17.2581 O   0  0  0  0  0  0  0  0  0  0  0  0
   17.8170  -15.3445  -19.8801 O   0  0  0  0  0  0  0  0  0  0  0  0
   17.1571   -9.0848  -11.1623 N   0  0  0  0  0  0  0  0  0  0  0  0
   16.4279   -9.3331  -12.3552 C   0  0  0  0  0  0  0  0  0  0  0  0
   15.2421   -9.7314  -12.2587 O   0  0  0  0  0  0  0  0  0  0  0  0
   17.0773   -9.1183  -13.6679 C   0  0  0  0  0  0  0  0  0  0  0  0
   18.5410   -8.8113  -13.4222 C   0  0  0  0  0  0  0  0  0  0  0  0
   19.2844   -8.6667  -14.7552 C   0  0  2  0  0  0  0  0  0  0  0  0
   19.6065  -10.0057  -15.1834 N   0  0  0  0  0  0  0  0  0  0  0  0
   20.5357   -7.9387  -14.4535 C   0  0  0  0  0  0  0  0  0  0  0  0
   21.4280   -8.5230  -13.7949 O   0  0  0  0  0  0  0  0  0  0  0  0
   23.0986   -6.4259  -16.6023 C   0  0  0  0  0  0  0  0  0  0  0  0
   22.5639   -5.3210  -15.7514 C   0  0  1  0  0  0  0  0  0  0  0  0
   21.6711   -4.4981  -16.4113 O   0  0  0  0  0  0  0  0  0  0  0  0
   21.9649   -5.9370  -14.4945 C   0  0  2  0  0  0  0  0  0  0  0  0
   20.7629   -6.6049  -14.8818 N   0  0  0  0  0  0  0  0  0  0  0  0
   21.7454   -4.9123  -13.4540 C   0  0  0  0  0  0  0  0  0  0  0  0
   20.5848   -4.5945  -13.0929 O   0  0  0  0  0  0  0  0  0  0  0  0
   22.8061   -4.2661  -12.8397 O   0  0  0  0  0  0  0  0  0  0  0  0
  2  1  1  1
  2  7  1  0
  3  2  1  0
  4  3  1  0
  5  6  2  0
  5  4  1  0
  7 16  1  0
  8  7  2  0
  9  5  1  0
 10 11  1  0
 11 12  2  0
 11 13  1  0
 13 14  1  0
 15 14  1  1
 16 15  1  0
 17 18  2  0
 17 15  1  0
 20 19  1  6
 20 22  1  0
 21 20  1  0
 22 24  1  0
 22 23  1  6
 23 17  1  0
 24 26  1  0
 25 24  2  0
M  END
$$$$
