EQT.pdb
     RDKit          3D

 26 25  0  0  1  0  0  0  0  0999 V2000
   18.1054  -11.8989  -18.7577 N   0  0  0  0  0  0  0  0  0  0  0  0
   16.8626  -11.5897  -18.0146 C   0  0  1  0  0  0  0  0  0  0  0  0
   16.4301  -12.8874  -17.4229 C   0  0  0  0  0  0  0  0  0  0  0  0
   17.4989  -13.8966  -17.1786 C   0  0  0  0  0  0  0  0  0  0  0  0
   17.2119  -14.4994  -15.8230 C   0  0  0  0  0  0  0  0  0  0  0  0
   17.4271  -13.8806  -14.7502 O   0  0  0  0  0  0  0  0  0  0  0  0
   17.1689  -10.5190  -17.0747 C   0  0  0  0  0  0  0  0  0  0  0  0
   16.2761  -10.1081  -16.2550 O   0  0  0  0  0  0  0  0  0  0  0  0
   16.6900  -15.7835  -15.7088 O   0  0  0  0  0  0  0  0  0  0  0  0
   22.3741   -9.2680  -14.2526 N   0  0  0  0  0  0  0  0  0  0  0  0
   21.6598   -8.1018  -13.8704 C   0  0  0  0  0  0  0  0  0  0  0  0
   22.1777   -7.3346  -13.0234 O   0  0  0  0  0  0  0  0  0  0  0  0
   20.3371   -7.8232  -14.4736 C   0  0  0  0  0  0  0  0  0  0  0  0
   20.0163   -8.9465  -15.4392 C   0  0  0  0  0  0  0  0  0  0  0  0
   18.6269   -8.7386  -16.0531 C   0  0  2  0  0  0  0  0  0  0  0  0
   18.4172   -9.8425  -16.9571 N   0  0  0  0  0  0  0  0  0  0  0  0
   18.7021   -7.4822  -16.8294 C   0  0  0  0  0  0  0  0  0  0  0  0
   19.3486   -7.4762  -17.9033 O   0  0  0  0  0  0  0  0  0  0  0  0
   15.7757   -5.0601  -17.7443 C   0  0  0  0  0  0  0  0  0  0  0  0
   16.8671   -4.3332  -17.0293 C   0  0  1  0  0  0  0  0  0  0  0  0
   16.5883   -4.0891  -15.6979 O   0  0  0  0  0  0  0  0  0  0  0  0
   18.1603   -5.1143  -17.2173 C   0  0  2  0  0  0  0  0  0  0  0  0
   18.0700   -6.2850  -16.4036 N   0  0  0  0  0  0  0  0  0  0  0  0
   19.3359   -4.2795  -16.8979 C   0  0  0  0  0  0  0  0  0  0  0  0
   19.6035   -3.2532  -17.5714 O   0  0  0  0  0  0  0  0  0  0  0  0
   20.1838   -4.5952  -15.8485 O   0  0  0  0  0  0  0  0  0  0  0  0
  2  1  1  1
  2  7  1  0
  3  2  1  0
  4  3  1  0
  5  6  2  0
  5  4  1  0
  7 16  1  0
  8  7  2  0
  9  5  1  0
 10 11  1  0
 11 12  2  0
 11 13  1  0
 13 14  1  0
 15 14  1  6
 16 15  1  0
 17 18  2  0
 17 15  1  0
 20 19  1  1
 20 22  1  0
 21 20  1  0
 22 24  1  0
 22 23  1  1
 23 17  1  0
 24 26  1  0
 25 24  2  0
M  END
$$$$
