EQT.pdb
     RDKit          3D

 26 25  0  0  1  0  0  0  0  0999 V2000
   27.1416  -19.1411  -13.7554 N   0  0  0  0  0  0  0  0  0  0  0  0
   26.8871  -20.4589  -14.3806 C   0  0  1  0  0  0  0  0  0  0  0  0
   27.3083  -21.4610  -13.3610 C   0  0  0  0  0  0  0  0  0  0  0  0
   26.9181  -21.1799  -11.9506 C   0  0  0  0  0  0  0  0  0  0  0  0
   25.6487  -21.9597  -11.6977 C   0  0  0  0  0  0  0  0  0  0  0  0
   24.7803  -21.5850  -10.8697 O   0  0  0  0  0  0  0  0  0  0  0  0
   25.4861  -20.4909  -14.7805 C   0  0  0  0  0  0  0  0  0  0  0  0
   25.0486  -21.4437  -15.5143 O   0  0  0  0  0  0  0  0  0  0  0  0
   25.3885  -23.1416  -12.3830 O   0  0  0  0  0  0  0  0  0  0  0  0
   20.7821  -19.8991  -11.3784 N   0  0  0  0  0  0  0  0  0  0  0  0
   21.2429  -21.1314  -11.9128 C   0  0  0  0  0  0  0  0  0  0  0  0
   20.9256  -22.1935  -11.3251 O   0  0  0  0  0  0  0  0  0  0  0  0
   22.0766  -21.1325  -13.1359 C   0  0  0  0  0  0  0  0  0  0  0  0
   22.2821  -19.6933  -13.5645 C   0  0  0  0  0  0  0  0  0  0  0  0
   23.1190  -19.6356  -14.8477 C   0  0  2  0  0  0  0  0  0  0  0  0
   24.4943  -19.5312  -14.4266 N   0  0  0  0  0  0  0  0  0  0  0  0
   22.7270  -18.3896  -15.5408 C   0  0  0  0  0  0  0  0  0  0  0  0
   22.8798  -17.2966  -14.9464 O   0  0  0  0  0  0  0  0  0  0  0  0
   23.8929  -16.8065  -18.5939 C   0  0  0  0  0  0  0  0  0  0  0  0
   22.4347  -17.0522  -18.8035 C   0  0  1  0  0  0  0  0  0  0  0  0
   22.1682  -18.1498  -19.6000 O   0  0  0  0  0  0  0  0  0  0  0  0
   21.7687  -17.1512  -17.4380 C   0  0  2  0  0  0  0  0  0  0  0  0
   22.1849  -18.3860  -16.8524 N   0  0  0  0  0  0  0  0  0  0  0  0
   20.3012  -17.0336  -17.5534 C   0  0  0  0  0  0  0  0  0  0  0  0
   19.5477  -17.9843  -17.2265 O   0  0  0  0  0  0  0  0  0  0  0  0
   19.7029  -15.8758  -18.0242 O   0  0  0  0  0  0  0  0  0  0  0  0
  2  1  1  1
  2  7  1  0
  3  2  1  0
  4  3  1  0
  5  6  2  0
  5  4  1  0
  7 16  1  0
  8  7  2  0
  9  5  1  0
 10 11  1  0
 11 12  2  0
 11 13  1  0
 13 14  1  0
 15 14  1  1
 16 15  1  0
 17 18  2  0
 17 15  1  0
 20 19  1  1
 20 22  1  0
 21 20  1  0
 22 24  1  0
 22 23  1  6
 23 17  1  0
 24 26  1  0
 25 24  2  0
M  END
$$$$
