EQT.pdb
     RDKit          3D

 26 25  0  0  1  0  0  0  0  0999 V2000
   19.9429  -12.8336  -18.1700 N   0  0  0  0  0  0  0  0  0  0  0  0
   19.5555  -12.6750  -16.7498 C   0  0  1  0  0  0  0  0  0  0  0  0
   19.8918  -13.9769  -16.1071 C   0  0  0  0  0  0  0  0  0  0  0  0
   19.2651  -15.1927  -16.6985 C   0  0  0  0  0  0  0  0  0  0  0  0
   17.9219  -15.3489  -16.0242 C   0  0  0  0  0  0  0  0  0  0  0  0
   17.7782  -15.9741  -14.9432 O   0  0  0  0  0  0  0  0  0  0  0  0
   20.2479  -11.5004  -16.2354 C   0  0  0  0  0  0  0  0  0  0  0  0
   20.1298  -11.1724  -15.0039 O   0  0  0  0  0  0  0  0  0  0  0  0
   16.7741  -14.7976  -16.5836 O   0  0  0  0  0  0  0  0  0  0  0  0
   25.0256   -8.4906  -18.7849 N   0  0  0  0  0  0  0  0  0  0  0  0
   24.7283   -7.5857  -17.7317 C   0  0  0  0  0  0  0  0  0  0  0  0
   25.4592   -6.5763  -17.5870 O   0  0  0  0  0  0  0  0  0  0  0  0
   23.5767   -7.8526  -16.8409 C   0  0  0  0  0  0  0  0  0  0  0  0
   22.8985   -9.1210  -17.3188 C   0  0  0  0  0  0  0  0  0  0  0  0
   21.6980   -9.4508  -16.4240 C   0  0  2  0  0  0  0  0  0  0  0  0
   21.0881  -10.6299  -16.9876 N   0  0  0  0  0  0  0  0  0  0  0  0
   20.7631   -8.3121  -16.5509 C   0  0  0  0  0  0  0  0  0  0  0  0
   20.3446   -8.0013  -17.6909 O   0  0  0  0  0  0  0  0  0  0  0  0
   17.4511   -7.9108  -15.4411 C   0  0  0  0  0  0  0  0  0  0  0  0
   18.1718   -6.7694  -14.8019 C   0  0  1  0  0  0  0  0  0  0  0  0
   18.4616   -6.9772  -13.4667 O   0  0  0  0  0  0  0  0  0  0  0  0
   19.4169   -6.4725  -15.6263 C   0  0  2  0  0  0  0  0  0  0  0  0
   20.3231   -7.5596  -15.4311 N   0  0  0  0  0  0  0  0  0  0  0  0
   19.9973   -5.1652  -15.2592 C   0  0  0  0  0  0  0  0  0  0  0  0
   21.1398   -5.0860  -14.7427 O   0  0  0  0  0  0  0  0  0  0  0  0
   19.3070   -3.9824  -15.4697 O   0  0  0  0  0  0  0  0  0  0  0  0
  2  1  1  6
  2  7  1  0
  3  2  1  0
  4  3  1  0
  5  6  2  0
  5  4  1  0
  7 16  1  0
  8  7  2  0
  9  5  1  0
 10 11  1  0
 11 12  2  0
 11 13  1  0
 13 14  1  0
 15 14  1  6
 16 15  1  0
 17 18  2  0
 17 15  1  0
 20 19  1  6
 20 22  1  0
 21 20  1  0
 22 24  1  0
 22 23  1  1
 23 17  1  0
 24 26  1  0
 25 24  2  0
M  END
$$$$
