EQT.pdb
     RDKit          3D

 26 25  0  0  1  0  0  0  0  0999 V2000
   18.0744  -14.8672  -16.9696 N   0  0  0  0  0  0  0  0  0  0  0  0
   18.7471  -13.6618  -16.4339 C   0  0  1  0  0  0  0  0  0  0  0  0
   19.9479  -13.4711  -17.2959 C   0  0  0  0  0  0  0  0  0  0  0  0
   21.1219  -14.3409  -17.0038 C   0  0  0  0  0  0  0  0  0  0  0  0
   22.2099  -13.9231  -17.9656 C   0  0  0  0  0  0  0  0  0  0  0  0
   22.9361  -14.7553  -18.5656 O   0  0  0  0  0  0  0  0  0  0  0  0
   17.7713  -12.5794  -16.4332 C   0  0  0  0  0  0  0  0  0  0  0  0
   17.0367  -12.3755  -17.4612 O   0  0  0  0  0  0  0  0  0  0  0  0
   22.4532  -12.5791  -18.2278 O   0  0  0  0  0  0  0  0  0  0  0  0
   12.7832  -11.1589  -13.1749 N   0  0  0  0  0  0  0  0  0  0  0  0
   13.6448  -12.2184  -13.5643 C   0  0  0  0  0  0  0  0  0  0  0  0
   13.5732  -13.3059  -12.9427 O   0  0  0  0  0  0  0  0  0  0  0  0
   14.5951  -12.0160  -14.6809 C   0  0  0  0  0  0  0  0  0  0  0  0
   15.5468  -10.9028  -14.2906 C   0  0  0  0  0  0  0  0  0  0  0  0
   16.5379  -10.6284  -15.4276 C   0  0  2  0  0  0  0  0  0  0  0  0
   17.5278  -11.6750  -15.3598 N   0  0  0  0  0  0  0  0  0  0  0  0
   17.1781   -9.3328  -15.1138 C   0  0  0  0  0  0  0  0  0  0  0  0
   18.0917   -9.3051  -14.2560 O   0  0  0  0  0  0  0  0  0  0  0  0
   16.5986   -5.9968  -17.4882 C   0  0  0  0  0  0  0  0  0  0  0  0
   17.8358   -6.1964  -16.6756 C   0  0  1  0  0  0  0  0  0  0  0  0
   18.5402   -5.0297  -16.4462 O   0  0  0  0  0  0  0  0  0  0  0  0
   17.4469   -6.9026  -15.3841 C   0  0  2  0  0  0  0  0  0  0  0  0
   16.7965   -8.1216  -15.7474 N   0  0  0  0  0  0  0  0  0  0  0  0
   16.6084   -6.0326  -14.5351 C   0  0  0  0  0  0  0  0  0  0  0  0
   15.4064   -6.3167  -14.3049 O   0  0  0  0  0  0  0  0  0  0  0  0
   17.1133   -4.8760  -13.9632 O   0  0  0  0  0  0  0  0  0  0  0  0
  2  1  1  6
  2  7  1  0
  3  2  1  0
  4  3  1  0
  5  6  2  0
  5  4  1  0
  7 16  1  0
  8  7  2  0
  9  5  1  0
 10 11  1  0
 11 12  2  0
 11 13  1  0
 13 14  1  0
 15 14  1  1
 16 15  1  0
 17 18  2  0
 17 15  1  0
 20 19  1  1
 20 22  1  0
 21 20  1  0
 22 24  1  0
 22 23  1  6
 23 17  1  0
 24 26  1  0
 25 24  2  0
M  END
$$$$
