EQT.pdb
     RDKit          3D

 26 25  0  0  1  0  0  0  0  0999 V2000
   19.2825  -12.7916  -15.6110 N   0  0  0  0  0  0  0  0  0  0  0  0
   19.9485  -12.3019  -16.8394 C   0  0  1  0  0  0  0  0  0  0  0  0
   19.2624  -13.0045  -17.9604 C   0  0  0  0  0  0  0  0  0  0  0  0
   18.9748  -14.4530  -17.7614 C   0  0  0  0  0  0  0  0  0  0  0  0
   19.0636  -15.0951  -19.1264 C   0  0  0  0  0  0  0  0  0  0  0  0
   20.0681  -14.9629  -19.8703 O   0  0  0  0  0  0  0  0  0  0  0  0
   19.8600  -10.8473  -16.8354 C   0  0  0  0  0  0  0  0  0  0  0  0
   20.3626  -10.1700  -17.7981 O   0  0  0  0  0  0  0  0  0  0  0  0
   18.0193  -15.8700  -19.6199 O   0  0  0  0  0  0  0  0  0  0  0  0
   15.3142   -7.7081  -14.2854 N   0  0  0  0  0  0  0  0  0  0  0  0
   16.0547   -6.6094  -14.7961 C   0  0  0  0  0  0  0  0  0  0  0  0
   15.5538   -5.4619  -14.7154 O   0  0  0  0  0  0  0  0  0  0  0  0
   17.3841   -6.8422  -15.4041 C   0  0  0  0  0  0  0  0  0  0  0  0
   17.6705   -8.3296  -15.3494 C   0  0  0  0  0  0  0  0  0  0  0  0
   19.0401   -8.6298  -15.9694 C   0  0  2  0  0  0  0  0  0  0  0  0
   19.2428  -10.0507  -15.8284 N   0  0  0  0  0  0  0  0  0  0  0  0
   20.0341   -7.9126  -15.1423 C   0  0  0  0  0  0  0  0  0  0  0  0
   20.3265   -8.3769  -14.0152 O   0  0  0  0  0  0  0  0  0  0  0  0
   22.5464   -5.3851  -16.9766 C   0  0  0  0  0  0  0  0  0  0  0  0
   22.9551   -6.0902  -15.7249 C   0  0  1  0  0  0  0  0  0  0  0  0
   24.0478   -5.5189  -15.1006 O   0  0  0  0  0  0  0  0  0  0  0  0
   21.7418   -6.1736  -14.8090 C   0  0  2  0  0  0  0  0  0  0  0  0
   20.6682   -6.7198  -15.5772 N   0  0  0  0  0  0  0  0  0  0  0  0
   21.4226   -4.8535  -14.2293 C   0  0  0  0  0  0  0  0  0  0  0  0
   20.3286   -4.2864  -14.4738 O   0  0  0  0  0  0  0  0  0  0  0  0
   22.3134   -4.1939  -13.3979 O   0  0  0  0  0  0  0  0  0  0  0  0
  2  1  1  1
  2  7  1  0
  3  2  1  0
  4  3  1  0
  5  6  2  0
  5  4  1  0
  7 16  1  0
  8  7  2  0
  9  5  1  0
 10 11  1  0
 11 12  2  0
 11 13  1  0
 13 14  1  0
 15 14  1  1
 16 15  1  0
 17 18  2  0
 17 15  1  0
 20 19  1  6
 20 22  1  0
 21 20  1  0
 22 24  1  0
 22 23  1  6
 23 17  1  0
 24 26  1  0
 25 24  2  0
M  END
$$$$
