VML.pdb
     RDKit          3D

 24 23  0  0  1  0  0  0  0  0999 V2000
    8.6730  -19.2412   20.3845 C   0  0  0  0  0  0  0  0  0  0  0  0
    9.1433  -18.4503   21.5859 C   0  0  2  0  0  0  0  0  0  0  0  0
    8.4669  -19.0055   22.8123 C   0  0  0  0  0  0  0  0  0  0  0  0
    8.8203  -16.9757   21.3741 C   0  0  2  0  0  0  0  0  0  0  0  0
    9.3245  -16.6087   20.0885 N   0  0  0  0  0  0  0  0  0  0  0  0
    9.3505  -16.1432   22.4709 C   0  0  0  0  0  0  0  0  0  0  0  0
   10.5902  -15.9481   22.5398 O   0  0  0  0  0  0  0  0  0  0  0  0
    6.7508  -11.5223   26.4932 C   0  0  0  0  0  0  0  0  0  0  0  0
    5.9466  -13.1590   26.5347 S   0  0  0  0  0  0  0  0  0  0  0  0
    6.9505  -14.3902   25.6252 C   0  0  0  0  0  0  0  0  0  0  0  0
    8.0688  -13.6999   24.9042 C   0  0  0  0  0  0  0  0  0  0  0  0
    9.1370  -14.6922   24.4918 C   0  0  2  0  0  0  0  0  0  0  0  0
    8.5275  -15.5589   23.4425 N   0  0  0  0  0  0  0  0  0  0  0  0
    9.4828  -15.5981   25.5895 C   0  0  0  0  0  0  0  0  0  0  0  0
    9.7393  -15.1560   26.7644 O   0  0  0  0  0  0  0  0  0  0  0  0
    7.3087  -18.2739   28.1942 C   0  0  0  0  0  0  0  0  0  0  0  0
    7.6301  -18.6321   26.7248 C   0  0  2  0  0  0  0  0  0  0  0  0
    6.7699  -19.8248   26.3623 C   0  0  0  0  0  0  0  0  0  0  0  0
    9.0806  -19.0336   26.7361 C   0  0  0  0  0  0  0  0  0  0  0  0
    9.9721  -17.8469   26.6311 C   0  0  2  0  0  0  0  0  0  0  0  0
    9.5644  -17.0219   25.4783 N   0  0  0  0  0  0  0  0  0  0  0  0
   11.4047  -18.1331   26.5729 C   0  0  0  0  0  0  0  0  0  0  0  0
   11.9993  -18.8920   27.5968 O   0  0  0  0  0  0  0  0  0  0  0  0
   12.1428  -17.7386   25.6548 O   0  0  0  0  0  0  0  0  0  0  0  0
  2  1  1  6
  3  2  1  0
  4  5  1  6
  4  6  1  0
  4  2  1  0
  6  7  2  0
  9  8  1  0
 10  9  1  0
 11 10  1  0
 12 11  1  1
 12 14  1  0
 13  6  1  0
 13 12  1  0
 14 21  1  0
 14 15  2  0
 17 16  1  1
 17 19  1  0
 18 17  1  0
 20 19  1  6
 20 22  1  0
 21 20  1  0
 22 24  2  0
 22 23  1  0
M  END
$$$$
