VML.pdb
     RDKit          3D

 24 23  0  0  1  0  0  0  0  0999 V2000
    6.3295  -21.6389   23.6316 C   0  0  0  0  0  0  0  0  0  0  0  0
    6.5196  -20.1820   23.2692 C   0  0  2  0  0  0  0  0  0  0  0  0
    7.9316  -19.7882   23.6174 C   0  0  0  0  0  0  0  0  0  0  0  0
    5.4916  -19.3403   24.0165 C   0  0  2  0  0  0  0  0  0  0  0  0
    4.1988  -19.7360   23.5542 N   0  0  0  0  0  0  0  0  0  0  0  0
    5.7550  -17.8974   23.8562 C   0  0  0  0  0  0  0  0  0  0  0  0
    5.4696  -17.3463   22.7633 O   0  0  0  0  0  0  0  0  0  0  0  0
    5.7507  -12.3780   27.9922 C   0  0  0  0  0  0  0  0  0  0  0  0
    7.4218  -12.7714   27.3756 S   0  0  0  0  0  0  0  0  0  0  0  0
    7.3256  -13.6023   25.7474 C   0  0  0  0  0  0  0  0  0  0  0  0
    6.8497  -15.0126   25.9249 C   0  0  0  0  0  0  0  0  0  0  0  0
    6.6926  -15.7005   24.5840 C   0  0  2  0  0  0  0  0  0  0  0  0
    6.3117  -17.1127   24.8746 N   0  0  0  0  0  0  0  0  0  0  0  0
    7.9680  -15.7829   23.8685 C   0  0  0  0  0  0  0  0  0  0  0  0
    8.8469  -16.6650   24.1702 O   0  0  0  0  0  0  0  0  0  0  0  0
    8.3501  -13.2545   18.9549 C   0  0  0  0  0  0  0  0  0  0  0  0
    8.1406  -14.0596   20.2582 C   0  0  2  0  0  0  0  0  0  0  0  0
    7.4378  -13.1418   21.2366 C   0  0  0  0  0  0  0  0  0  0  0  0
    9.5305  -14.3618   20.7502 C   0  0  0  0  0  0  0  0  0  0  0  0
    9.5027  -15.2697   21.9288 C   0  0  2  0  0  0  0  0  0  0  0  0
    8.3573  -14.9251   22.7920 N   0  0  0  0  0  0  0  0  0  0  0  0
   10.7346  -15.3275   22.7141 C   0  0  0  0  0  0  0  0  0  0  0  0
   11.9125  -15.8100   22.1161 O   0  0  0  0  0  0  0  0  0  0  0  0
   10.8047  -14.9684   23.9013 O   0  0  0  0  0  0  0  0  0  0  0  0
  2  1  1  1
  3  2  1  0
  4  5  1  6
  4  6  1  0
  4  2  1  0
  6  7  2  0
  9  8  1  0
 10  9  1  0
 11 10  1  0
 12 11  1  1
 12 14  1  0
 13  6  1  0
 13 12  1  0
 14 21  1  0
 14 15  2  0
 17 16  1  6
 17 19  1  0
 18 17  1  0
 20 19  1  6
 20 22  1  0
 21 20  1  0
 22 24  2  0
 22 23  1  0
M  END
$$$$
