VML.pdb
     RDKit          3D

 24 23  0  0  1  0  0  0  0  0999 V2000
    9.7788  -19.1916   19.4238 C   0  0  0  0  0  0  0  0  0  0  0  0
   10.0709  -18.2489   20.5711 C   0  0  2  0  0  0  0  0  0  0  0  0
    9.7873  -18.9724   21.8619 C   0  0  0  0  0  0  0  0  0  0  0  0
    9.2176  -16.9948   20.4203 C   0  0  2  0  0  0  0  0  0  0  0  0
    9.5448  -16.4049   19.1608 N   0  0  0  0  0  0  0  0  0  0  0  0
    9.3985  -16.0775   21.5618 C   0  0  0  0  0  0  0  0  0  0  0  0
   10.4687  -15.4247   21.6518 O   0  0  0  0  0  0  0  0  0  0  0  0
    5.5780  -11.0866   25.1734 C   0  0  0  0  0  0  0  0  0  0  0  0
    5.7096  -12.8423   25.6502 S   0  0  0  0  0  0  0  0  0  0  0  0
    7.3673  -13.4976   25.2339 C   0  0  0  0  0  0  0  0  0  0  0  0
    7.2727  -14.3919   24.0347 C   0  0  0  0  0  0  0  0  0  0  0  0
    8.6441  -14.8880   23.6236 C   0  0  2  0  0  0  0  0  0  0  0  0
    8.4242  -15.9026   22.5532 N   0  0  0  0  0  0  0  0  0  0  0  0
    9.3039  -15.6113   24.7130 C   0  0  0  0  0  0  0  0  0  0  0  0
    8.9936  -16.8221   24.9944 O   0  0  0  0  0  0  0  0  0  0  0  0
   10.4711  -14.2502   30.2833 C   0  0  0  0  0  0  0  0  0  0  0  0
   10.7873  -15.3728   29.2681 C   0  0  2  0  0  0  0  0  0  0  0  0
   12.2217  -15.7952   29.5088 C   0  0  0  0  0  0  0  0  0  0  0  0
   10.6684  -14.7151   27.9195 C   0  0  0  0  0  0  0  0  0  0  0  0
   10.6889  -15.7205   26.8227 C   0  0  2  0  0  0  0  0  0  0  0  0
   10.3314  -15.0699   25.5481 N   0  0  0  0  0  0  0  0  0  0  0  0
    9.8662  -16.9099   27.0372 C   0  0  0  0  0  0  0  0  0  0  0  0
   10.4842  -18.1700   27.1264 O   0  0  0  0  0  0  0  0  0  0  0  0
    8.6293  -16.8734   27.1481 O   0  0  0  0  0  0  0  0  0  0  0  0
  2  1  1  6
  3  2  1  0
  4  5  1  6
  4  6  1  0
  4  2  1  0
  6  7  2  0
  9  8  1  0
 10  9  1  0
 11 10  1  0
 12 11  1  1
 12 14  1  0
 13  6  1  0
 13 12  1  0
 14 21  1  0
 14 15  2  0
 17 16  1  1
 17 19  1  0
 18 17  1  0
 20 19  1  1
 20 22  1  0
 21 20  1  0
 22 24  2  0
 22 23  1  0
M  END
$$$$
