VML.pdb
     RDKit          3D

 24 23  0  0  1  0  0  0  0  0999 V2000
   10.6893  -18.8379   19.6339 C   0  0  0  0  0  0  0  0  0  0  0  0
   10.7304  -18.0408   20.9196 C   0  0  2  0  0  0  0  0  0  0  0  0
   10.3766  -18.9614   22.0586 C   0  0  0  0  0  0  0  0  0  0  0  0
    9.7643  -16.8665   20.8135 C   0  0  2  0  0  0  0  0  0  0  0  0
   10.1417  -16.1058   19.6644 N   0  0  0  0  0  0  0  0  0  0  0  0
    9.7378  -16.0742   22.0580 C   0  0  0  0  0  0  0  0  0  0  0  0
   10.7205  -15.3397   22.3306 O   0  0  0  0  0  0  0  0  0  0  0  0
    6.1684  -12.8542   26.5390 C   0  0  0  0  0  0  0  0  0  0  0  0
    6.6255  -12.2797   24.8692 S   0  0  0  0  0  0  0  0  0  0  0  0
    6.8550  -13.7033   23.7415 C   0  0  0  0  0  0  0  0  0  0  0  0
    7.2846  -14.9069   24.5250 C   0  0  0  0  0  0  0  0  0  0  0  0
    8.7147  -15.2823   24.1938 C   0  0  2  0  0  0  0  0  0  0  0  0
    8.6595  -16.1061   22.9520 N   0  0  0  0  0  0  0  0  0  0  0  0
    9.2914  -16.1596   25.2151 C   0  0  0  0  0  0  0  0  0  0  0  0
    9.5700  -17.3845   24.9629 O   0  0  0  0  0  0  0  0  0  0  0  0
   11.4601  -13.8728   27.8738 C   0  0  0  0  0  0  0  0  0  0  0  0
   10.2912  -14.4904   28.6756 C   0  0  2  0  0  0  0  0  0  0  0  0
   10.3400  -13.8870   30.0639 C   0  0  0  0  0  0  0  0  0  0  0  0
   10.6086  -15.9600   28.7463 C   0  0  0  0  0  0  0  0  0  0  0  0
   10.4292  -16.6173   27.4235 C   0  0  2  0  0  0  0  0  0  0  0  0
    9.6006  -15.7613   26.5537 N   0  0  0  0  0  0  0  0  0  0  0  0
    9.8953  -17.9779   27.4587 C   0  0  0  0  0  0  0  0  0  0  0  0
    8.6313  -18.2383   26.8999 O   0  0  0  0  0  0  0  0  0  0  0  0
   10.5035  -18.9371   27.9623 O   0  0  0  0  0  0  0  0  0  0  0  0
  2  1  1  6
  3  2  1  0
  4  5  1  6
  4  6  1  0
  4  2  1  0
  6  7  2  0
  9  8  1  0
 10  9  1  0
 11 10  1  0
 12 11  1  1
 12 14  1  0
 13  6  1  0
 13 12  1  0
 14 21  1  0
 14 15  2  0
 17 16  1  6
 17 19  1  0
 18 17  1  0
 20 19  1  1
 20 22  1  0
 21 20  1  0
 22 24  2  0
 22 23  1  0
M  END
$$$$
