VML.pdb
     RDKit          3D

 24 23  0  0  1  0  0  0  0  0999 V2000
    7.2889  -16.3112   19.4305 C   0  0  0  0  0  0  0  0  0  0  0  0
    8.4814  -17.2368   19.5368 C   0  0  2  0  0  0  0  0  0  0  0  0
    8.1947  -18.4731   18.7247 C   0  0  0  0  0  0  0  0  0  0  0  0
    8.7342  -17.5636   21.0040 C   0  0  2  0  0  0  0  0  0  0  0  0
    7.6585  -18.3925   21.4481 N   0  0  0  0  0  0  0  0  0  0  0  0
    8.9014  -16.3387   21.8096 C   0  0  0  0  0  0  0  0  0  0  0  0
    9.8941  -15.5996   21.5910 O   0  0  0  0  0  0  0  0  0  0  0  0
    5.9466  -11.0708   25.1896 C   0  0  0  0  0  0  0  0  0  0  0  0
    5.9208  -12.6852   26.0383 S   0  0  0  0  0  0  0  0  0  0  0  0
    7.4598  -13.6150   25.6952 C   0  0  0  0  0  0  0  0  0  0  0  0
    7.1868  -14.6956   24.6929 C   0  0  0  0  0  0  0  0  0  0  0  0
    8.3434  -14.8360   23.7242 C   0  0  2  0  0  0  0  0  0  0  0  0
    7.9970  -15.9633   22.8116 N   0  0  0  0  0  0  0  0  0  0  0  0
    9.5700  -15.2537   24.4071 C   0  0  0  0  0  0  0  0  0  0  0  0
   10.6544  -14.5792   24.3036 O   0  0  0  0  0  0  0  0  0  0  0  0
    9.7323  -14.4536   29.6559 C   0  0  0  0  0  0  0  0  0  0  0  0
   10.6641  -15.1747   28.6546 C   0  0  2  0  0  0  0  0  0  0  0  0
   11.7901  -14.2156   28.3290 C   0  0  0  0  0  0  0  0  0  0  0  0
    9.8146  -15.3981   27.4324 C   0  0  0  0  0  0  0  0  0  0  0  0
   10.4537  -16.3633   26.4974 C   0  0  2  0  0  0  0  0  0  0  0  0
    9.6883  -16.4125   25.2374 N   0  0  0  0  0  0  0  0  0  0  0  0
   10.6607  -17.7121   27.0220 C   0  0  0  0  0  0  0  0  0  0  0  0
    9.5779  -18.6083   27.0692 O   0  0  0  0  0  0  0  0  0  0  0  0
   11.7577  -18.1225   27.4363 O   0  0  0  0  0  0  0  0  0  0  0  0
  2  1  1  1
  3  2  1  0
  4  5  1  1
  4  6  1  0
  4  2  1  0
  6  7  2  0
  9  8  1  0
 10  9  1  0
 11 10  1  0
 12 11  1  1
 12 14  1  0
 13  6  1  0
 13 12  1  0
 14 21  1  0
 14 15  2  0
 17 16  1  1
 17 19  1  0
 18 17  1  0
 20 19  1  1
 20 22  1  0
 21 20  1  0
 22 24  2  0
 22 23  1  0
M  END
$$$$
