VML.pdb
     RDKit          3D

 24 23  0  0  1  0  0  0  0  0999 V2000
    9.1583  -17.8178   18.2276 C   0  0  0  0  0  0  0  0  0  0  0  0
    9.5245  -16.7959   19.2820 C   0  0  2  0  0  0  0  0  0  0  0  0
   10.9721  -16.4219   19.0959 C   0  0  0  0  0  0  0  0  0  0  0  0
    9.2598  -17.3830   20.6637 C   0  0  2  0  0  0  0  0  0  0  0  0
    7.9007  -17.8235   20.6869 N   0  0  0  0  0  0  0  0  0  0  0  0
    9.5811  -16.4172   21.7319 C   0  0  0  0  0  0  0  0  0  0  0  0
   10.7653  -16.0123   21.8476 O   0  0  0  0  0  0  0  0  0  0  0  0
    5.1968  -13.1693   25.9312 C   0  0  0  0  0  0  0  0  0  0  0  0
    6.6400  -12.1538   25.4694 S   0  0  0  0  0  0  0  0  0  0  0  0
    8.1016  -13.2147   25.1710 C   0  0  0  0  0  0  0  0  0  0  0  0
    7.7854  -14.2280   24.1126 C   0  0  0  0  0  0  0  0  0  0  0  0
    9.0322  -14.9849   23.7023 C   0  0  2  0  0  0  0  0  0  0  0  0
    8.6185  -15.9306   22.6261 N   0  0  0  0  0  0  0  0  0  0  0  0
    9.5313  -15.8300   24.7895 C   0  0  0  0  0  0  0  0  0  0  0  0
    9.3405  -17.0969   24.7916 O   0  0  0  0  0  0  0  0  0  0  0  0
   10.3571  -13.4366   27.9304 C   0  0  0  0  0  0  0  0  0  0  0  0
   10.5264  -14.7411   28.7430 C   0  0  2  0  0  0  0  0  0  0  0  0
   11.0978  -14.3515   30.0904 C   0  0  0  0  0  0  0  0  0  0  0  0
   11.5391  -15.5447   27.9722 C   0  0  0  0  0  0  0  0  0  0  0  0
   10.8995  -16.2992   26.8605 C   0  0  2  0  0  0  0  0  0  0  0  0
   10.2630  -15.3548   25.9231 N   0  0  0  0  0  0  0  0  0  0  0  0
    9.9513  -17.3372   27.2618 C   0  0  0  0  0  0  0  0  0  0  0  0
   10.4187  -18.4696   27.9526 O   0  0  0  0  0  0  0  0  0  0  0  0
    8.7332  -17.2777   27.0248 O   0  0  0  0  0  0  0  0  0  0  0  0
  2  1  1  6
  3  2  1  0
  4  5  1  6
  4  6  1  0
  4  2  1  0
  6  7  2  0
  9  8  1  0
 10  9  1  0
 11 10  1  0
 12 11  1  1
 12 14  1  0
 13  6  1  0
 13 12  1  0
 14 21  1  0
 14 15  2  0
 17 16  1  6
 17 19  1  0
 18 17  1  0
 20 19  1  1
 20 22  1  0
 21 20  1  0
 22 24  2  0
 22 23  1  0
M  END
$$$$
