VML.pdb
     RDKit          3D

 24 23  0  0  1  0  0  0  0  0999 V2000
    6.9924  -14.9955   19.8293 C   0  0  0  0  0  0  0  0  0  0  0  0
    8.4359  -15.1185   19.3917 C   0  0  2  0  0  0  0  0  0  0  0  0
    8.4693  -15.8354   18.0669 C   0  0  0  0  0  0  0  0  0  0  0  0
    9.2238  -15.8628   20.4635 C   0  0  2  0  0  0  0  0  0  0  0  0
    8.8340  -17.2361   20.4034 N   0  0  0  0  0  0  0  0  0  0  0  0
    9.0310  -15.2566   21.7949 C   0  0  0  0  0  0  0  0  0  0  0  0
    9.3847  -14.0642   21.9756 O   0  0  0  0  0  0  0  0  0  0  0  0
    6.3188  -12.1495   27.3347 C   0  0  0  0  0  0  0  0  0  0  0  0
    6.6282  -12.9909   25.7461 S   0  0  0  0  0  0  0  0  0  0  0  0
    6.7130  -14.8036   25.9861 C   0  0  0  0  0  0  0  0  0  0  0  0
    6.9364  -15.4800   24.6671 C   0  0  0  0  0  0  0  0  0  0  0  0
    8.3661  -15.2927   24.2016 C   0  0  2  0  0  0  0  0  0  0  0  0
    8.4683  -15.9566   22.8702 N   0  0  0  0  0  0  0  0  0  0  0  0
    9.3110  -16.0064   25.0636 C   0  0  0  0  0  0  0  0  0  0  0  0
    9.8241  -17.1256   24.7089 O   0  0  0  0  0  0  0  0  0  0  0  0
   11.1227  -13.3608   27.2222 C   0  0  0  0  0  0  0  0  0  0  0  0
   10.4877  -14.1981   28.3564 C   0  0  2  0  0  0  0  0  0  0  0  0
   10.8214  -13.5023   29.6596 C   0  0  0  0  0  0  0  0  0  0  0  0
   11.1916  -15.5270   28.2926 C   0  0  0  0  0  0  0  0  0  0  0  0
   10.7248  -16.3321   27.1315 C   0  0  2  0  0  0  0  0  0  0  0  0
    9.7531  -15.5492   26.3449 N   0  0  0  0  0  0  0  0  0  0  0  0
   10.1786  -17.6498   27.4521 C   0  0  0  0  0  0  0  0  0  0  0  0
    8.8212  -17.9151   27.1977 O   0  0  0  0  0  0  0  0  0  0  0  0
   10.8553  -18.5677   27.9452 O   0  0  0  0  0  0  0  0  0  0  0  0
  2  1  1  1
  3  2  1  0
  4  5  1  1
  4  6  1  0
  4  2  1  0
  6  7  2  0
  9  8  1  0
 10  9  1  0
 11 10  1  0
 12 11  1  1
 12 14  1  0
 13  6  1  0
 13 12  1  0
 14 21  1  0
 14 15  2  0
 17 16  1  6
 17 19  1  0
 18 17  1  0
 20 19  1  1
 20 22  1  0
 21 20  1  0
 22 24  2  0
 22 23  1  0
M  END
$$$$
