VIR.pdb
     RDKit          3D

 27 26  0  0  1  0  0  0  0  0999 V2000
    6.7201  -16.0302   20.2035 C   0  0  0  0  0  0  0  0  0  0  0  0
    7.2187  -14.7931   19.5378 C   0  0  1  0  0  0  0  0  0  0  0  0
    6.3892  -14.5853   18.2763 C   0  0  0  0  0  0  0  0  0  0  0  0
    7.1090  -13.5389   20.3445 C   0  0  2  0  0  0  0  0  0  0  0  0
    7.6502  -12.4657   19.4988 N   0  0  0  0  0  0  0  0  0  0  0  0
    7.8789  -13.5342   21.5990 C   0  0  0  0  0  0  0  0  0  0  0  0
    9.1335  -13.5779   21.5310 O   0  0  0  0  0  0  0  0  0  0  0  0
    7.2587  -12.1148   27.5911 C   0  0  0  0  0  0  0  0  0  0  0  0
    8.0775  -12.8527   26.5516 C   0  0  0  0  0  0  0  0  0  0  0  0
    7.2502  -12.9327   25.2933 C   0  0  2  0  0  0  0  0  0  0  0  0
    6.0067  -13.7516   25.5758 C   0  0  0  0  0  0  0  0  0  0  0  0
    8.0414  -13.5075   24.1333 C   0  0  2  0  0  0  0  0  0  0  0  0
    7.3006  -13.4824   22.9014 N   0  0  0  0  0  0  0  0  0  0  0  0
    8.4022  -14.9096   24.5268 C   0  0  0  0  0  0  0  0  0  0  0  0
    7.5043  -15.7840   24.4488 O   0  0  0  0  0  0  0  0  0  0  0  0
   16.2149  -18.5998   24.1168 N   0  0  0  0  0  0  0  0  0  0  0  0
   15.2501  -19.6238   24.3114 C   0  0  0  0  0  0  0  0  0  0  0  0
   15.5720  -20.6733   24.9630 N   0  0  0  0  0  0  0  0  0  0  0  0
   13.9436  -19.4436   23.7679 N   0  0  0  0  0  0  0  0  0  0  0  0
   13.4186  -18.0809   23.7712 C   0  0  0  0  0  0  0  0  0  0  0  0
   12.0886  -18.0501   24.4460 C   0  0  0  0  0  0  0  0  0  0  0  0
   11.5103  -16.6775   24.3812 C   0  0  0  0  0  0  0  0  0  0  0  0
   10.1669  -16.6528   25.0637 C   0  0  2  0  0  0  0  0  0  0  0  0
    9.6779  -15.2698   24.9689 N   0  0  0  0  0  0  0  0  0  0  0  0
   10.4364  -16.9873   26.5000 C   0  0  0  0  0  0  0  0  0  0  0  0
   10.5703  -18.3101   26.8903 O   0  0  0  0  0  0  0  0  0  0  0  0
   10.5467  -16.0976   27.3749 O   0  0  0  0  0  0  0  0  0  0  0  0
  2  4  1  0
  2  1  1  1
  3  2  1  0
  4  5  1  6
  6  4  1  0
  7  6  2  0
  9  8  1  0
 10  9  1  0
 10 11  1  1
 12 10  1  0
 12 13  1  6
 13  6  1  0
 14 15  2  0
 14 12  1  0
 16 17  1  0
 17 18  2  0
 19 17  1  0
 20 19  1  0
 21 20  1  0
 21 22  1  0
 23 22  1  6
 23 24  1  0
 24 14  1  0
 25 26  1  0
 25 23  1  0
 27 25  2  0
M  END
$$$$
