VIR.pdb
     RDKit          3D

 27 26  0  0  1  0  0  0  0  0999 V2000
    6.1045  -17.1863   20.3222 C   0  0  0  0  0  0  0  0  0  0  0  0
    6.8186  -16.7374   21.5514 C   0  0  1  0  0  0  0  0  0  0  0  0
    7.8769  -17.7852   21.8750 C   0  0  0  0  0  0  0  0  0  0  0  0
    7.5235  -15.4232   21.4429 C   0  0  2  0  0  0  0  0  0  0  0  0
    8.5661  -15.6068   20.4236 N   0  0  0  0  0  0  0  0  0  0  0  0
    8.1927  -14.9704   22.6732 C   0  0  0  0  0  0  0  0  0  0  0  0
    9.4325  -15.1499   22.7804 O   0  0  0  0  0  0  0  0  0  0  0  0
    5.7665  -11.0710   25.8000 C   0  0  0  0  0  0  0  0  0  0  0  0
    6.8691  -11.7552   25.0178 C   0  0  0  0  0  0  0  0  0  0  0  0
    7.2880  -12.9772   25.7958 C   0  0  2  0  0  0  0  0  0  0  0  0
    7.9795  -12.5340   27.0693 C   0  0  0  0  0  0  0  0  0  0  0  0
    8.1747  -13.8933   24.9730 C   0  0  2  0  0  0  0  0  0  0  0  0
    7.5318  -14.3350   23.7652 N   0  0  0  0  0  0  0  0  0  0  0  0
    8.5217  -15.0501   25.8631 C   0  0  0  0  0  0  0  0  0  0  0  0
    9.1739  -14.8040   26.9075 O   0  0  0  0  0  0  0  0  0  0  0  0
    4.9532  -22.8950   26.5519 N   0  0  0  0  0  0  0  0  0  0  0  0
    6.0733  -23.0472   27.4119 C   0  0  0  0  0  0  0  0  0  0  0  0
    6.1686  -24.0923   28.1388 N   0  0  0  0  0  0  0  0  0  0  0  0
    7.0618  -22.0191   27.4345 N   0  0  0  0  0  0  0  0  0  0  0  0
    6.7529  -20.8015   26.6896 C   0  0  0  0  0  0  0  0  0  0  0  0
    7.9567  -19.9225   26.6305 C   0  0  0  0  0  0  0  0  0  0  0  0
    7.6490  -18.6790   25.8679 C   0  0  0  0  0  0  0  0  0  0  0  0
    8.3919  -17.5120   26.4657 C   0  0  2  0  0  0  0  0  0  0  0  0
    8.1517  -16.3667   25.5762 N   0  0  0  0  0  0  0  0  0  0  0  0
    9.8427  -17.8862   26.4134 C   0  0  0  0  0  0  0  0  0  0  0  0
   10.4005  -18.6428   27.4314 O   0  0  0  0  0  0  0  0  0  0  0  0
   10.5812  -17.5328   25.4654 O   0  0  0  0  0  0  0  0  0  0  0  0
  2  4  1  0
  2  1  1  6
  3  2  1  0
  4  5  1  6
  6  4  1  0
  7  6  2  0
  9  8  1  0
 10  9  1  0
 10 11  1  1
 12 10  1  0
 12 13  1  6
 13  6  1  0
 14 15  2  0
 14 12  1  0
 16 17  1  0
 17 18  2  0
 19 17  1  0
 20 19  1  0
 21 20  1  0
 21 22  1  0
 23 22  1  6
 23 24  1  0
 24 14  1  0
 25 26  1  0
 25 23  1  0
 27 25  2  0
M  END
$$$$
