VIR.pdb
     RDKit          3D

 27 26  0  0  1  0  0  0  0  0999 V2000
    3.8990  -19.4999   23.1564 C   0  0  0  0  0  0  0  0  0  0  0  0
    4.4003  -19.4217   24.5582 C   0  0  1  0  0  0  0  0  0  0  0  0
    4.1101  -20.7616   25.2240 C   0  0  0  0  0  0  0  0  0  0  0  0
    5.8669  -19.1696   24.7045 C   0  0  2  0  0  0  0  0  0  0  0  0
    6.1686  -19.3556   26.1308 N   0  0  0  0  0  0  0  0  0  0  0  0
    6.3064  -17.8129   24.3402 C   0  0  0  0  0  0  0  0  0  0  0  0
    6.2282  -17.4622   23.1353 O   0  0  0  0  0  0  0  0  0  0  0  0
    6.2185  -13.3589   27.7425 C   0  0  0  0  0  0  0  0  0  0  0  0
    6.0715  -14.2099   26.4976 C   0  0  0  0  0  0  0  0  0  0  0  0
    7.4551  -14.6225   26.0624 C   0  0  2  0  0  0  0  0  0  0  0  0
    8.2506  -13.3801   25.7157 C   0  0  0  0  0  0  0  0  0  0  0  0
    7.4138  -15.5971   24.9002 C   0  0  2  0  0  0  0  0  0  0  0  0
    6.8196  -16.8550   25.2633 N   0  0  0  0  0  0  0  0  0  0  0  0
    8.8343  -15.7722   24.4502 C   0  0  0  0  0  0  0  0  0  0  0  0
    9.5799  -16.5003   25.1507 O   0  0  0  0  0  0  0  0  0  0  0  0
    8.4717  -12.5388   17.6371 N   0  0  0  0  0  0  0  0  0  0  0  0
    8.1548  -13.9202   17.5422 C   0  0  0  0  0  0  0  0  0  0  0  0
    7.7639  -14.3988   16.4252 N   0  0  0  0  0  0  0  0  0  0  0  0
    8.2850  -14.7324   18.7076 N   0  0  0  0  0  0  0  0  0  0  0  0
    9.0492  -14.1653   19.8153 C   0  0  0  0  0  0  0  0  0  0  0  0
    9.9637  -15.1978   20.3833 C   0  0  0  0  0  0  0  0  0  0  0  0
   10.7842  -14.6108   21.4810 C   0  0  0  0  0  0  0  0  0  0  0  0
   10.6656  -15.4584   22.7214 C   0  0  2  0  0  0  0  0  0  0  0  0
    9.3470  -15.1648   23.3009 N   0  0  0  0  0  0  0  0  0  0  0  0
   11.7365  -14.9694   23.6496 C   0  0  0  0  0  0  0  0  0  0  0  0
   13.0635  -15.2832   23.4033 O   0  0  0  0  0  0  0  0  0  0  0  0
   11.4693  -14.2752   24.6574 O   0  0  0  0  0  0  0  0  0  0  0  0
  2  4  1  0
  2  1  1  6
  3  2  1  0
  4  5  1  1
  6  4  1  0
  7  6  2  0
  9  8  1  0
 10  9  1  0
 10 11  1  6
 12 10  1  0
 12 13  1  1
 13  6  1  0
 14 15  2  0
 14 12  1  0
 16 17  1  0
 17 18  2  0
 19 17  1  0
 20 19  1  0
 21 20  1  0
 21 22  1  0
 23 22  1  6
 23 24  1  0
 24 14  1  0
 25 26  1  0
 25 23  1  0
 27 25  2  0
M  END
$$$$
