VIR.pdb
     RDKit          3D

 27 26  0  0  1  0  0  0  0  0999 V2000
    6.7722  -20.5478   27.7734 C   0  0  0  0  0  0  0  0  0  0  0  0
    7.1362  -19.3576   26.9529 C   0  0  1  0  0  0  0  0  0  0  0  0
    7.9189  -19.8564   25.7441 C   0  0  0  0  0  0  0  0  0  0  0  0
    5.9850  -18.5599   26.4293 C   0  0  2  0  0  0  0  0  0  0  0  0
    5.1758  -19.4930   25.6328 N   0  0  0  0  0  0  0  0  0  0  0  0
    6.3514  -17.4398   25.5475 C   0  0  0  0  0  0  0  0  0  0  0  0
    6.3736  -17.6383   24.3062 O   0  0  0  0  0  0  0  0  0  0  0  0
    6.4055  -12.0826   27.3343 C   0  0  0  0  0  0  0  0  0  0  0  0
    6.1223  -13.1845   26.3336 C   0  0  0  0  0  0  0  0  0  0  0  0
    7.4445  -13.7963   25.9441 C   0  0  2  0  0  0  0  0  0  0  0  0
    8.2316  -12.7866   25.1331 C   0  0  0  0  0  0  0  0  0  0  0  0
    7.2624  -15.0971   25.1846 C   0  0  2  0  0  0  0  0  0  0  0  0
    6.6864  -16.1304   26.0018 N   0  0  0  0  0  0  0  0  0  0  0  0
    8.6238  -15.4863   24.6887 C   0  0  0  0  0  0  0  0  0  0  0  0
    9.4692  -15.8543   25.5412 O   0  0  0  0  0  0  0  0  0  0  0  0
   10.7039  -18.5212   17.5682 N   0  0  0  0  0  0  0  0  0  0  0  0
   11.9419  -18.8272   18.1936 C   0  0  0  0  0  0  0  0  0  0  0  0
   12.9084  -19.2713   17.4878 N   0  0  0  0  0  0  0  0  0  0  0  0
   12.0645  -18.6263   19.6005 N   0  0  0  0  0  0  0  0  0  0  0  0
   10.9175  -18.0252   20.2755 C   0  0  0  0  0  0  0  0  0  0  0  0
   11.2079  -16.5980   20.5980 C   0  0  0  0  0  0  0  0  0  0  0  0
   10.0293  -15.9699   21.2607 C   0  0  0  0  0  0  0  0  0  0  0  0
   10.0681  -16.2401   22.7427 C   0  0  2  0  0  0  0  0  0  0  0  0
    8.9774  -15.4541   23.3372 N   0  0  0  0  0  0  0  0  0  0  0  0
   11.3844  -15.7023   23.2178 C   0  0  0  0  0  0  0  0  0  0  0  0
   12.4820  -16.5425   23.3153 O   0  0  0  0  0  0  0  0  0  0  0  0
   11.5295  -14.4993   23.5353 O   0  0  0  0  0  0  0  0  0  0  0  0
  2  4  1  0
  2  1  1  6
  3  2  1  0
  4  5  1  6
  6  4  1  0
  7  6  2  0
  9  8  1  0
 10  9  1  0
 10 11  1  6
 12 10  1  0
 12 13  1  1
 13  6  1  0
 14 15  2  0
 14 12  1  0
 16 17  1  0
 17 18  2  0
 19 17  1  0
 20 19  1  0
 21 20  1  0
 21 22  1  0
 23 22  1  6
 23 24  1  0
 24 14  1  0
 25 26  1  0
 25 23  1  0
 27 25  2  0
M  END
$$$$
