VIR.pdb
     RDKit          3D

 27 26  0  0  1  0  0  0  0  0999 V2000
    7.0338  -13.5434   18.6292 C   0  0  0  0  0  0  0  0  0  0  0  0
    7.8380  -13.4327   19.8795 C   0  0  1  0  0  0  0  0  0  0  0  0
    7.1910  -12.3597   20.7471 C   0  0  0  0  0  0  0  0  0  0  0  0
    7.9160  -14.6756   20.7071 C   0  0  2  0  0  0  0  0  0  0  0  0
    6.5273  -15.1054   20.9227 N   0  0  0  0  0  0  0  0  0  0  0  0
    8.5294  -14.5044   22.0342 C   0  0  0  0  0  0  0  0  0  0  0  0
    9.7801  -14.3979   22.1058 O   0  0  0  0  0  0  0  0  0  0  0  0
    5.7606  -12.0762   26.2068 C   0  0  0  0  0  0  0  0  0  0  0  0
    6.8286  -12.4344   25.1936 C   0  0  0  0  0  0  0  0  0  0  0  0
    7.3952  -13.7760   25.5848 C   0  0  2  0  0  0  0  0  0  0  0  0
    8.0234  -13.6608   26.9591 C   0  0  0  0  0  0  0  0  0  0  0  0
    8.3910  -14.2882   24.5608 C   0  0  2  0  0  0  0  0  0  0  0  0
    7.8018  -14.4489   23.2592 N   0  0  0  0  0  0  0  0  0  0  0  0
    8.9056  -15.5929   25.0937 C   0  0  0  0  0  0  0  0  0  0  0  0
    8.0808  -16.5294   25.2325 O   0  0  0  0  0  0  0  0  0  0  0  0
   17.1401  -17.5182   25.3113 N   0  0  0  0  0  0  0  0  0  0  0  0
   16.2368  -17.2497   24.2485 C   0  0  0  0  0  0  0  0  0  0  0  0
   16.6804  -16.7568   23.1577 N   0  0  0  0  0  0  0  0  0  0  0  0
   14.8536  -17.5424   24.4373 N   0  0  0  0  0  0  0  0  0  0  0  0
   14.4762  -18.0995   25.7334 C   0  0  0  0  0  0  0  0  0  0  0  0
   12.9960  -18.2707   25.8018 C   0  0  0  0  0  0  0  0  0  0  0  0
   12.3139  -16.9822   25.4901 C   0  0  0  0  0  0  0  0  0  0  0  0
   10.8340  -17.1091   25.7444 C   0  0  2  0  0  0  0  0  0  0  0  0
   10.2450  -15.7984   25.4346 N   0  0  0  0  0  0  0  0  0  0  0  0
   10.6974  -17.3807   27.2125 C   0  0  0  0  0  0  0  0  0  0  0  0
   10.8562  -18.6693   27.6966 O   0  0  0  0  0  0  0  0  0  0  0  0
   10.4404  -16.4681   28.0311 O   0  0  0  0  0  0  0  0  0  0  0  0
  2  4  1  0
  2  1  1  6
  3  2  1  0
  4  5  1  1
  6  4  1  0
  7  6  2  0
  9  8  1  0
 10  9  1  0
 10 11  1  1
 12 10  1  0
 12 13  1  6
 13  6  1  0
 14 15  2  0
 14 12  1  0
 16 17  1  0
 17 18  2  0
 19 17  1  0
 20 19  1  0
 21 20  1  0
 21 22  1  0
 23 22  1  1
 23 24  1  0
 24 14  1  0
 25 26  1  0
 25 23  1  0
 27 25  2  0
M  END
$$$$
