VIR.pdb
     RDKit          3D

 27 26  0  0  1  0  0  0  0  0999 V2000
    5.8987  -15.7746   19.3437 C   0  0  0  0  0  0  0  0  0  0  0  0
    6.5696  -15.6802   20.6716 C   0  0  1  0  0  0  0  0  0  0  0  0
    7.6980  -16.7044   20.6887 C   0  0  0  0  0  0  0  0  0  0  0  0
    7.1791  -14.3530   20.9923 C   0  0  2  0  0  0  0  0  0  0  0  0
    8.1808  -14.1049   19.9460 N   0  0  0  0  0  0  0  0  0  0  0  0
    7.8757  -14.2825   22.2870 C   0  0  0  0  0  0  0  0  0  0  0  0
    9.0895  -14.6070   22.3316 O   0  0  0  0  0  0  0  0  0  0  0  0
    5.7423  -11.2392   26.4697 C   0  0  0  0  0  0  0  0  0  0  0  0
    6.7758  -11.7520   25.4876 C   0  0  0  0  0  0  0  0  0  0  0  0
    7.0867  -13.1802   25.8585 C   0  0  2  0  0  0  0  0  0  0  0  0
    7.7865  -13.1962   27.2026 C   0  0  0  0  0  0  0  0  0  0  0  0
    7.9162  -13.8721   24.7929 C   0  0  2  0  0  0  0  0  0  0  0  0
    7.2692  -13.8679   23.5090 N   0  0  0  0  0  0  0  0  0  0  0  0
    8.1474  -15.2705   25.2850 C   0  0  0  0  0  0  0  0  0  0  0  0
    7.1404  -16.0025   25.4485 O   0  0  0  0  0  0  0  0  0  0  0  0
   14.6718  -20.5685   23.5670 N   0  0  0  0  0  0  0  0  0  0  0  0
   13.9207  -21.3879   24.4512 C   0  0  0  0  0  0  0  0  0  0  0  0
   14.2580  -22.6083   24.6146 N   0  0  0  0  0  0  0  0  0  0  0  0
   12.8059  -20.8151   25.1324 N   0  0  0  0  0  0  0  0  0  0  0  0
   12.3982  -19.4791   24.7064 C   0  0  0  0  0  0  0  0  0  0  0  0
   11.2816  -18.9900   25.5662 C   0  0  0  0  0  0  0  0  0  0  0  0
   10.8314  -17.6443   25.1090 C   0  0  0  0  0  0  0  0  0  0  0  0
    9.6938  -17.1621   25.9717 C   0  0  2  0  0  0  0  0  0  0  0  0
    9.4198  -15.7771   25.5624 N   0  0  0  0  0  0  0  0  0  0  0  0
   10.2189  -17.1707   27.3759 C   0  0  0  0  0  0  0  0  0  0  0  0
   10.5392  -15.9774   28.0034 O   0  0  0  0  0  0  0  0  0  0  0  0
   10.3810  -18.2369   28.0130 O   0  0  0  0  0  0  0  0  0  0  0  0
  2  4  1  0
  2  1  1  6
  3  2  1  0
  4  5  1  6
  6  4  1  0
  7  6  2  0
  9  8  1  0
 10  9  1  0
 10 11  1  1
 12 10  1  0
 12 13  1  6
 13  6  1  0
 14 15  2  0
 14 12  1  0
 16 17  1  0
 17 18  2  0
 19 17  1  0
 20 19  1  0
 21 20  1  0
 21 22  1  0
 23 22  1  6
 23 24  1  0
 24 14  1  0
 25 26  1  0
 25 23  1  0
 27 25  2  0
M  END
$$$$
