VIR.pdb
     RDKit          3D

 27 26  0  0  1  0  0  0  0  0999 V2000
    8.5673  -19.0262   27.5189 C   0  0  0  0  0  0  0  0  0  0  0  0
    7.4069  -19.7327   26.9052 C   0  0  1  0  0  0  0  0  0  0  0  0
    6.9408  -20.7938   27.8950 C   0  0  0  0  0  0  0  0  0  0  0  0
    6.2222  -18.8752   26.5936 C   0  0  2  0  0  0  0  0  0  0  0  0
    5.2495  -19.7552   25.9307 N   0  0  0  0  0  0  0  0  0  0  0  0
    6.4874  -17.7528   25.6791 C   0  0  0  0  0  0  0  0  0  0  0  0
    6.4163  -17.9603   24.4411 O   0  0  0  0  0  0  0  0  0  0  0  0
    6.0537  -12.4680   27.2903 C   0  0  0  0  0  0  0  0  0  0  0  0
    5.9262  -13.5610   26.2487 C   0  0  0  0  0  0  0  0  0  0  0  0
    7.3181  -14.0344   25.9132 C   0  0  2  0  0  0  0  0  0  0  0  0
    7.9971  -12.9884   25.0522 C   0  0  0  0  0  0  0  0  0  0  0  0
    7.3040  -15.3900   25.2318 C   0  0  2  0  0  0  0  0  0  0  0  0
    6.8221  -16.4315   26.0979 N   0  0  0  0  0  0  0  0  0  0  0  0
    8.7144  -15.6522   24.7924 C   0  0  0  0  0  0  0  0  0  0  0  0
    9.5918  -15.7516   25.6852 O   0  0  0  0  0  0  0  0  0  0  0  0
    7.6094  -13.9716   17.9227 N   0  0  0  0  0  0  0  0  0  0  0  0
    8.5604  -13.0371   18.4126 C   0  0  0  0  0  0  0  0  0  0  0  0
    8.5263  -11.8308   17.9963 N   0  0  0  0  0  0  0  0  0  0  0  0
    9.5290  -13.4815   19.3607 N   0  0  0  0  0  0  0  0  0  0  0  0
    9.3392  -14.8227   19.9065 C   0  0  0  0  0  0  0  0  0  0  0  0
   10.3477  -15.0846   20.9740 C   0  0  0  0  0  0  0  0  0  0  0  0
   10.2167  -16.4830   21.4739 C   0  0  0  0  0  0  0  0  0  0  0  0
   10.2760  -16.4985   22.9797 C   0  0  2  0  0  0  0  0  0  0  0  0
    9.0789  -15.7870   23.4502 N   0  0  0  0  0  0  0  0  0  0  0  0
   11.4981  -15.7105   23.3447 C   0  0  0  0  0  0  0  0  0  0  0  0
   12.7532  -16.2873   23.2347 O   0  0  0  0  0  0  0  0  0  0  0  0
   11.4233  -14.5285   23.7526 O   0  0  0  0  0  0  0  0  0  0  0  0
  2  4  1  0
  2  1  1  1
  3  2  1  0
  4  5  1  6
  6  4  1  0
  7  6  2  0
  9  8  1  0
 10  9  1  0
 10 11  1  6
 12 10  1  0
 12 13  1  1
 13  6  1  0
 14 15  2  0
 14 12  1  0
 16 17  1  0
 17 18  2  0
 19 17  1  0
 20 19  1  0
 21 20  1  0
 21 22  1  0
 23 22  1  6
 23 24  1  0
 24 14  1  0
 25 26  1  0
 25 23  1  0
 27 25  2  0
M  END
$$$$
