VIR.pdb
     RDKit          3D

 27 26  0  0  1  0  0  0  0  0999 V2000
    7.1656  -15.6851   20.3488 C   0  0  0  0  0  0  0  0  0  0  0  0
    7.8803  -14.4971   19.8009 C   0  0  1  0  0  0  0  0  0  0  0  0
    7.3109  -14.2187   18.4150 C   0  0  0  0  0  0  0  0  0  0  0  0
    7.7370  -13.2373   20.5935 C   0  0  2  0  0  0  0  0  0  0  0  0
    8.5745  -12.2368   19.9171 N   0  0  0  0  0  0  0  0  0  0  0  0
    8.2000  -13.3211   21.9881 C   0  0  0  0  0  0  0  0  0  0  0  0
    9.4370  -13.2871   22.2108 O   0  0  0  0  0  0  0  0  0  0  0  0
    5.3818  -11.2883   26.2494 C   0  0  0  0  0  0  0  0  0  0  0  0
    6.5179  -11.6604   25.3186 C   0  0  0  0  0  0  0  0  0  0  0  0
    6.7828  -13.1349   25.4906 C   0  0  2  0  0  0  0  0  0  0  0  0
    7.2585  -13.3852   26.9075 C   0  0  0  0  0  0  0  0  0  0  0  0
    7.7806  -13.6517   24.4710 C   0  0  2  0  0  0  0  0  0  0  0  0
    7.3398  -13.4386   23.1192 N   0  0  0  0  0  0  0  0  0  0  0  0
    7.9606  -15.1119   24.7645 C   0  0  0  0  0  0  0  0  0  0  0  0
    7.0444  -15.8932   24.4084 O   0  0  0  0  0  0  0  0  0  0  0  0
   13.8321  -18.1496   20.5015 N   0  0  0  0  0  0  0  0  0  0  0  0
   12.9910  -19.2927   20.5580 C   0  0  0  0  0  0  0  0  0  0  0  0
   13.3206  -20.3464   19.9170 N   0  0  0  0  0  0  0  0  0  0  0  0
   11.7968  -19.2244   21.3352 N   0  0  0  0  0  0  0  0  0  0  0  0
   11.4387  -17.9117   21.8656 C   0  0  0  0  0  0  0  0  0  0  0  0
   10.8705  -18.0554   23.2374 C   0  0  0  0  0  0  0  0  0  0  0  0
   10.3270  -16.7496   23.7087 C   0  0  0  0  0  0  0  0  0  0  0  0
    9.7251  -16.9084   25.0812 C   0  0  2  0  0  0  0  0  0  0  0  0
    9.0906  -15.6234   25.4080 N   0  0  0  0  0  0  0  0  0  0  0  0
   10.8820  -17.1409   26.0060 C   0  0  0  0  0  0  0  0  0  0  0  0
   11.2725  -18.4337   26.3160 O   0  0  0  0  0  0  0  0  0  0  0  0
   11.5190  -16.1912   26.5171 O   0  0  0  0  0  0  0  0  0  0  0  0
  2  4  1  0
  2  1  1  1
  3  2  1  0
  4  5  1  6
  6  4  1  0
  7  6  2  0
  9  8  1  0
 10  9  1  0
 10 11  1  1
 12 10  1  0
 12 13  1  6
 13  6  1  0
 14 15  2  0
 14 12  1  0
 16 17  1  0
 17 18  2  0
 19 17  1  0
 20 19  1  0
 21 20  1  0
 21 22  1  0
 23 22  1  6
 23 24  1  0
 24 14  1  0
 25 26  1  0
 25 23  1  0
 27 25  2  0
M  END
$$$$
