VIR.pdb
     RDKit          3D

 27 26  0  0  1  0  0  0  0  0999 V2000
    6.5204  -17.6655   20.0151 C   0  0  0  0  0  0  0  0  0  0  0  0
    7.1170  -16.9955   21.2057 C   0  0  1  0  0  0  0  0  0  0  0  0
    8.4873  -17.6188   21.4436 C   0  0  0  0  0  0  0  0  0  0  0  0
    7.3243  -15.5202   21.0779 C   0  0  2  0  0  0  0  0  0  0  0  0
    8.2292  -15.3367   19.9345 N   0  0  0  0  0  0  0  0  0  0  0  0
    7.9561  -14.8756   22.2405 C   0  0  0  0  0  0  0  0  0  0  0  0
    9.2088  -14.7698   22.2584 O   0  0  0  0  0  0  0  0  0  0  0  0
    6.4687  -11.7130   27.4066 C   0  0  0  0  0  0  0  0  0  0  0  0
    7.5152  -12.5135   26.6585 C   0  0  0  0  0  0  0  0  0  0  0  0
    6.8744  -13.0323   25.3958 C   0  0  2  0  0  0  0  0  0  0  0  0
    5.6641  -13.8653   25.7671 C   0  0  0  0  0  0  0  0  0  0  0  0
    7.8544  -13.8238   24.5499 C   0  0  2  0  0  0  0  0  0  0  0  0
    7.2446  -14.3552   23.3613 N   0  0  0  0  0  0  0  0  0  0  0  0
    8.3798  -14.9179   25.4317 C   0  0  0  0  0  0  0  0  0  0  0  0
    7.5893  -15.8421   25.7442 O   0  0  0  0  0  0  0  0  0  0  0  0
   15.6488  -16.9281   23.3857 N   0  0  0  0  0  0  0  0  0  0  0  0
   15.3344  -16.2397   24.5877 C   0  0  0  0  0  0  0  0  0  0  0  0
   16.1533  -15.3753   25.0481 N   0  0  0  0  0  0  0  0  0  0  0  0
   14.1045  -16.5397   25.2450 N   0  0  0  0  0  0  0  0  0  0  0  0
   13.0148  -17.0214   24.4006 C   0  0  0  0  0  0  0  0  0  0  0  0
   11.7883  -17.2306   25.2234 C   0  0  0  0  0  0  0  0  0  0  0  0
   11.6943  -16.1852   26.2821 C   0  0  0  0  0  0  0  0  0  0  0  0
   10.2619  -16.0273   26.7232 C   0  0  2  0  0  0  0  0  0  0  0  0
    9.6930  -14.9441   25.9086 N   0  0  0  0  0  0  0  0  0  0  0  0
   10.3255  -15.5908   28.1561 C   0  0  0  0  0  0  0  0  0  0  0  0
   10.4910  -16.5310   29.1604 O   0  0  0  0  0  0  0  0  0  0  0  0
   10.2327  -14.3851   28.4830 O   0  0  0  0  0  0  0  0  0  0  0  0
  2  4  1  0
  2  1  1  6
  3  2  1  0
  4  5  1  6
  6  4  1  0
  7  6  2  0
  9  8  1  0
 10  9  1  0
 10 11  1  1
 12 10  1  0
 12 13  1  6
 13  6  1  0
 14 15  2  0
 14 12  1  0
 16 17  1  0
 17 18  2  0
 19 17  1  0
 20 19  1  0
 21 20  1  0
 21 22  1  0
 23 22  1  6
 23 24  1  0
 24 14  1  0
 25 26  1  0
 25 23  1  0
 27 25  2  0
M  END
$$$$
