TAY.pdb
     RDKit          3D

 25 25  0  0  1  0  0  0  0  0999 V2000
   15.4644  -11.5582  -15.6936 C   0  0  0  0  0  0  0  0  0  0  0  0
   15.9141  -12.4449  -16.8129 C   0  0  1  0  0  0  0  0  0  0  0  0
   16.4067  -11.7229  -17.8933 O   0  0  0  0  0  0  0  0  0  0  0  0
   16.9860  -13.3856  -16.2990 C   0  0  2  0  0  0  0  0  0  0  0  0
   16.5295  -14.2221  -15.2315 N   0  0  0  0  0  0  0  0  0  0  0  0
   18.1276  -12.5636  -15.8573 C   0  0  0  0  0  0  0  0  0  0  0  0
   18.0317  -11.9054  -14.7745 O   0  0  0  0  0  0  0  0  0  0  0  0
   21.6877  -12.0185  -16.7953 C   0  0  0  0  0  0  0  0  0  0  0  0
   20.3928  -11.6368  -16.0861 C   0  0  2  0  0  0  0  0  0  0  0  0
   19.3456  -12.4612  -16.5791 N   0  0  0  0  0  0  0  0  0  0  0  0
   20.1483  -10.1875  -16.2779 C   0  0  0  0  0  0  0  0  0  0  0  0
   19.3580   -9.7097  -17.1127 O   0  0  0  0  0  0  0  0  0  0  0  0
   21.5698   -1.6572  -14.0506 O   0  0  0  0  0  0  0  0  0  0  0  0
   21.5621   -3.0385  -14.1461 C   0  0  0  0  0  0  0  0  0  0  0  0
   22.6613   -3.7053  -14.6304 C   0  0  0  0  0  0  0  0  0  0  0  0
   22.6901   -5.0751  -14.7395 C   0  0  0  0  0  0  0  0  0  0  0  0
   21.5872   -5.8057  -14.3533 C   0  0  0  0  0  0  0  0  0  0  0  0
   21.4932   -7.2591  -14.4245 C   0  0  0  0  0  0  0  0  0  0  0  0
   20.7626   -7.8240  -15.5922 C   0  0  2  0  0  0  0  0  0  0  0  0
   20.8663   -9.2855  -15.4515 N   0  0  0  0  0  0  0  0  0  0  0  0
   21.3762   -7.3865  -16.8673 C   0  0  0  0  0  0  0  0  0  0  0  0
   22.4729   -8.0357  -17.4007 O   0  0  0  0  0  0  0  0  0  0  0  0
   20.4889   -5.1118  -13.8675 C   0  0  0  0  0  0  0  0  0  0  0  0
   20.4547   -3.7389  -13.7560 C   0  0  0  0  0  0  0  0  0  0  0  0
   20.9021   -6.4068  -17.4886 O   0  0  0  0  0  0  0  0  0  0  0  0
  2  4  1  0
  2  1  1  1
  3  2  1  0
  4  6  1  0
  4  5  1  1
  6 10  1  0
  6  7  2  0
  9  8  1  6
  9 11  1  0
 10  9  1  0
 11 12  2  0
 13 14  1  0
 14 15  2  0
 15 16  1  0
 17 18  1  0
 17 16  2  0
 19 18  1  1
 19 21  1  0
 20 19  1  0
 20 11  1  0
 21 22  1  0
 23 17  1  0
 24 23  2  0
 24 14  1  0
 25 21  2  0
M  END
$$$$
