TAY.pdb
     RDKit          3D

 25 25  0  0  1  0  0  0  0  0999 V2000
   26.5756  -29.7534  -18.8022 C   0  0  0  0  0  0  0  0  0  0  0  0
   28.0556  -29.7678  -18.5777 C   0  0  1  0  0  0  0  0  0  0  0  0
   28.6691  -28.6043  -19.0263 O   0  0  0  0  0  0  0  0  0  0  0  0
   28.3300  -29.9490  -17.0979 C   0  0  2  0  0  0  0  0  0  0  0  0
   29.7233  -29.8902  -16.7772 N   0  0  0  0  0  0  0  0  0  0  0  0
   27.7628  -31.2487  -16.6941 C   0  0  0  0  0  0  0  0  0  0  0  0
   26.5001  -31.3894  -16.6682 O   0  0  0  0  0  0  0  0  0  0  0  0
   28.7974  -34.7446  -16.1668 C   0  0  0  0  0  0  0  0  0  0  0  0
   27.9283  -33.5403  -15.8204 C   0  0  2  0  0  0  0  0  0  0  0  0
   28.5533  -32.3690  -16.3271 N   0  0  0  0  0  0  0  0  0  0  0  0
   27.7096  -33.5104  -14.3548 C   0  0  0  0  0  0  0  0  0  0  0  0
   28.2480  -32.7007  -13.5774 O   0  0  0  0  0  0  0  0  0  0  0  0
   24.0439  -32.8158   -6.7095 O   0  0  0  0  0  0  0  0  0  0  0  0
   24.4615  -32.9488   -8.0230 C   0  0  0  0  0  0  0  0  0  0  0  0
   23.6879  -33.6320   -8.9297 C   0  0  0  0  0  0  0  0  0  0  0  0
   24.0697  -33.7843  -10.2413 C   0  0  0  0  0  0  0  0  0  0  0  0
   25.2622  -33.2379  -10.6643 C   0  0  0  0  0  0  0  0  0  0  0  0
   25.7782  -33.3344  -12.0246 C   0  0  0  0  0  0  0  0  0  0  0  0
   26.5489  -34.5632  -12.3602 C   0  0  2  0  0  0  0  0  0  0  0  0
   26.8252  -34.4724  -13.8031 N   0  0  0  0  0  0  0  0  0  0  0  0
   25.7626  -35.7830  -12.0641 C   0  0  0  0  0  0  0  0  0  0  0  0
   26.0154  -36.5503  -10.9434 O   0  0  0  0  0  0  0  0  0  0  0  0
   26.0269  -32.5527   -9.7318 C   0  0  0  0  0  0  0  0  0  0  0  0
   25.6489  -32.3970   -8.4161 C   0  0  0  0  0  0  0  0  0  0  0  0
   24.8441  -36.1412  -12.8378 O   0  0  0  0  0  0  0  0  0  0  0  0
  2  4  1  0
  2  1  1  1
  3  2  1  0
  4  6  1  0
  4  5  1  6
  6 10  1  0
  6  7  2  0
  9  8  1  1
  9 11  1  0
 10  9  1  0
 11 12  2  0
 13 14  1  0
 14 15  2  0
 15 16  1  0
 17 18  1  0
 17 16  2  0
 19 18  1  6
 19 21  1  0
 20 19  1  0
 20 11  1  0
 21 22  1  0
 23 17  1  0
 24 23  2  0
 24 14  1  0
 25 21  2  0
M  END
$$$$
