TAY.pdb
     RDKit          3D

 25 25  0  0  1  0  0  0  0  0999 V2000
   20.0774  -10.7990  -16.3660 C   0  0  0  0  0  0  0  0  0  0  0  0
   19.1386  -10.6784  -17.5259 C   0  0  1  0  0  0  0  0  0  0  0  0
   18.1141   -9.7710  -17.2840 O   0  0  0  0  0  0  0  0  0  0  0  0
   19.9194  -10.2483  -18.7520 C   0  0  2  0  0  0  0  0  0  0  0  0
   20.9503  -11.1738  -19.1102 N   0  0  0  0  0  0  0  0  0  0  0  0
   20.4942   -8.9196  -18.4724 C   0  0  0  0  0  0  0  0  0  0  0  0
   21.6140   -8.8449  -17.8764 O   0  0  0  0  0  0  0  0  0  0  0  0
   19.8259   -5.3608  -19.3360 C   0  0  0  0  0  0  0  0  0  0  0  0
   20.4770   -6.4618  -18.5057 C   0  0  2  0  0  0  0  0  0  0  0  0
   19.8632   -7.7007  -18.8340 N   0  0  0  0  0  0  0  0  0  0  0  0
   20.3711   -6.1083  -17.0702 C   0  0  0  0  0  0  0  0  0  0  0  0
   19.4560   -6.4870  -16.3159 O   0  0  0  0  0  0  0  0  0  0  0  0
   23.9429  -10.6995  -14.6109 O   0  0  0  0  0  0  0  0  0  0  0  0
   23.6250   -9.3520  -14.5874 C   0  0  0  0  0  0  0  0  0  0  0  0
   22.7093   -8.8722  -13.6827 C   0  0  0  0  0  0  0  0  0  0  0  0
   22.3689   -7.5416  -13.6298 C   0  0  0  0  0  0  0  0  0  0  0  0
   22.9605   -6.6589  -14.5075 C   0  0  0  0  0  0  0  0  0  0  0  0
   22.6810   -5.2285  -14.5539 C   0  0  0  0  0  0  0  0  0  0  0  0
   21.3659   -4.8238  -15.1223 C   0  0  2  0  0  0  0  0  0  0  0  0
   21.3843   -5.2813  -16.5212 N   0  0  0  0  0  0  0  0  0  0  0  0
   21.1901   -3.3543  -15.0654 C   0  0  0  0  0  0  0  0  0  0  0  0
   21.1639   -2.5855  -16.2130 O   0  0  0  0  0  0  0  0  0  0  0  0
   23.8819   -7.1653  -15.4121 C   0  0  0  0  0  0  0  0  0  0  0  0
   24.2267   -8.4980  -15.4693 C   0  0  0  0  0  0  0  0  0  0  0  0
   21.0612   -2.7796  -13.9591 O   0  0  0  0  0  0  0  0  0  0  0  0
  2  4  1  0
  2  1  1  1
  3  2  1  0
  4  6  1  0
  4  5  1  1
  6 10  1  0
  6  7  2  0
  9  8  1  6
  9 11  1  0
 10  9  1  0
 11 12  2  0
 13 14  1  0
 14 15  2  0
 15 16  1  0
 17 18  1  0
 17 16  2  0
 19 18  1  6
 19 21  1  0
 20 19  1  0
 20 11  1  0
 21 22  1  0
 23 17  1  0
 24 23  2  0
 24 14  1  0
 25 21  2  0
M  END
$$$$
