TAY.pdb
     RDKit          3D

 25 25  0  0  1  0  0  0  0  0999 V2000
   21.4630   -9.5610  -22.3685 C   0  0  0  0  0  0  0  0  0  0  0  0
   22.5700  -10.3646  -21.7600 C   0  0  1  0  0  0  0  0  0  0  0  0
   22.7716  -11.5707  -22.4203 O   0  0  0  0  0  0  0  0  0  0  0  0
   23.8476   -9.5492  -21.7897 C   0  0  2  0  0  0  0  0  0  0  0  0
   24.9945  -10.2930  -21.3667 N   0  0  0  0  0  0  0  0  0  0  0  0
   23.6475   -8.3734  -20.9227 C   0  0  0  0  0  0  0  0  0  0  0  0
   23.8609   -8.4836  -19.6748 O   0  0  0  0  0  0  0  0  0  0  0  0
   22.6576   -4.7844  -21.2925 C   0  0  0  0  0  0  0  0  0  0  0  0
   23.1247   -6.0073  -20.5102 C   0  0  2  0  0  0  0  0  0  0  0  0
   23.2248   -7.1070  -21.4046 N   0  0  0  0  0  0  0  0  0  0  0  0
   22.1921   -6.2419  -19.3822 C   0  0  0  0  0  0  0  0  0  0  0  0
   21.2315   -7.0330  -19.4137 O   0  0  0  0  0  0  0  0  0  0  0  0
   19.2386   -8.1234  -11.5824 O   0  0  0  0  0  0  0  0  0  0  0  0
   19.9725   -7.7520  -12.6963 C   0  0  0  0  0  0  0  0  0  0  0  0
   21.0989   -6.9780  -12.5568 C   0  0  0  0  0  0  0  0  0  0  0  0
   21.8522   -6.5900  -13.6390 C   0  0  0  0  0  0  0  0  0  0  0  0
   21.4710   -6.9861  -14.9028 C   0  0  0  0  0  0  0  0  0  0  0  0
   22.1819   -6.6370  -16.1271 C   0  0  0  0  0  0  0  0  0  0  0  0
   21.5338   -5.6291  -17.0105 C   0  0  2  0  0  0  0  0  0  0  0  0
   22.4125   -5.5128  -18.1856 N   0  0  0  0  0  0  0  0  0  0  0  0
   21.4143   -4.3202  -16.3277 C   0  0  0  0  0  0  0  0  0  0  0  0
   20.3496   -4.0351  -15.4947 O   0  0  0  0  0  0  0  0  0  0  0  0
   20.3307   -7.7670  -15.0199 C   0  0  0  0  0  0  0  0  0  0  0  0
   19.5720   -8.1587  -13.9385 C   0  0  0  0  0  0  0  0  0  0  0  0
   22.2901   -3.4402  -16.4991 O   0  0  0  0  0  0  0  0  0  0  0  0
  2  4  1  0
  2  1  1  6
  3  2  1  0
  4  6  1  0
  4  5  1  1
  6 10  1  0
  6  7  2  0
  9  8  1  6
  9 11  1  0
 10  9  1  0
 11 12  2  0
 13 14  1  0
 14 15  2  0
 15 16  1  0
 17 18  1  0
 17 16  2  0
 19 18  1  1
 19 21  1  0
 20 19  1  0
 20 11  1  0
 21 22  1  0
 23 17  1  0
 24 23  2  0
 24 14  1  0
 25 21  2  0
M  END
$$$$
