TAY.pdb
     RDKit          3D

 25 25  0  0  1  0  0  0  0  0999 V2000
   20.6648  -12.8618  -20.4132 C   0  0  0  0  0  0  0  0  0  0  0  0
   20.8045  -11.9238  -19.2548 C   0  0  1  0  0  0  0  0  0  0  0  0
   19.8288  -10.9342  -19.2560 O   0  0  0  0  0  0  0  0  0  0  0  0
   20.7239  -12.7154  -17.9644 C   0  0  2  0  0  0  0  0  0  0  0  0
   19.4367  -13.3020  -17.7489 N   0  0  0  0  0  0  0  0  0  0  0  0
   21.0659  -11.8026  -16.8581 C   0  0  0  0  0  0  0  0  0  0  0  0
   20.1318  -11.1884  -16.2539 O   0  0  0  0  0  0  0  0  0  0  0  0
   24.0836  -10.7401  -14.9382 C   0  0  0  0  0  0  0  0  0  0  0  0
   22.6468  -10.5829  -15.4245 C   0  0  2  0  0  0  0  0  0  0  0  0
   22.3951  -11.5647  -16.4205 N   0  0  0  0  0  0  0  0  0  0  0  0
   22.4484   -9.1923  -15.8975 C   0  0  0  0  0  0  0  0  0  0  0  0
   22.7466   -8.7847  -17.0353 O   0  0  0  0  0  0  0  0  0  0  0  0
   18.8971   -1.3464  -16.9910 O   0  0  0  0  0  0  0  0  0  0  0  0
   19.2485   -2.6385  -16.6387 C   0  0  0  0  0  0  0  0  0  0  0  0
   19.1894   -3.0386  -15.3257 C   0  0  0  0  0  0  0  0  0  0  0  0
   19.5303   -4.3126  -14.9386 C   0  0  0  0  0  0  0  0  0  0  0  0
   19.9439   -5.2189  -15.8910 C   0  0  0  0  0  0  0  0  0  0  0  0
   20.3353   -6.5944  -15.6069 C   0  0  0  0  0  0  0  0  0  0  0  0
   21.7699   -6.8266  -15.2835 C   0  0  2  0  0  0  0  0  0  0  0  0
   21.8789   -8.2644  -14.9882 N   0  0  0  0  0  0  0  0  0  0  0  0
   22.1872   -6.0283  -14.1078 C   0  0  0  0  0  0  0  0  0  0  0  0
   22.8142   -4.8056  -14.2513 O   0  0  0  0  0  0  0  0  0  0  0  0
   19.9959   -4.7932  -17.2100 C   0  0  0  0  0  0  0  0  0  0  0  0
   19.6554   -3.5174  -17.6035 C   0  0  0  0  0  0  0  0  0  0  0  0
   21.9745   -6.4576  -12.9498 O   0  0  0  0  0  0  0  0  0  0  0  0
  2  4  1  0
  2  1  1  6
  3  2  1  0
  4  6  1  0
  4  5  1  1
  6 10  1  0
  6  7  2  0
  9  8  1  6
  9 11  1  0
 10  9  1  0
 11 12  2  0
 13 14  1  0
 14 15  2  0
 15 16  1  0
 17 18  1  0
 17 16  2  0
 19 18  1  1
 19 21  1  0
 20 19  1  0
 20 11  1  0
 21 22  1  0
 23 17  1  0
 24 23  2  0
 24 14  1  0
 25 21  2  0
M  END
$$$$
