TAY.pdb
     RDKit          3D

 25 25  0  0  1  0  0  0  0  0999 V2000
   28.7683  -19.7915  -17.1290 C   0  0  0  0  0  0  0  0  0  0  0  0
   27.4316  -20.3970  -16.8327 C   0  0  1  0  0  0  0  0  0  0  0  0
   27.4860  -21.7832  -16.7512 O   0  0  0  0  0  0  0  0  0  0  0  0
   26.9105  -19.8311  -15.5265 C   0  0  2  0  0  0  0  0  0  0  0  0
   27.6748  -20.2510  -14.3920 N   0  0  0  0  0  0  0  0  0  0  0  0
   25.5048  -20.2534  -15.3857 C   0  0  0  0  0  0  0  0  0  0  0  0
   24.7327  -20.1727  -16.3917 O   0  0  0  0  0  0  0  0  0  0  0  0
   23.3264  -22.0015  -12.9438 C   0  0  0  0  0  0  0  0  0  0  0  0
   23.5622  -21.0295  -14.0950 C   0  0  2  0  0  0  0  0  0  0  0  0
   24.9535  -20.7519  -14.1765 N   0  0  0  0  0  0  0  0  0  0  0  0
   22.7270  -19.8232  -13.8849 C   0  0  0  0  0  0  0  0  0  0  0  0
   22.7393  -19.1275  -12.8527 O   0  0  0  0  0  0  0  0  0  0  0  0
   26.0813  -14.5262  -15.6027 O   0  0  0  0  0  0  0  0  0  0  0  0
   24.9025  -15.2453  -15.7046 C   0  0  0  0  0  0  0  0  0  0  0  0
   24.8364  -16.3561  -16.5102 C   0  0  0  0  0  0  0  0  0  0  0  0
   23.6840  -17.0946  -16.6363 C   0  0  0  0  0  0  0  0  0  0  0  0
   22.5594  -16.7141  -15.9363 C   0  0  0  0  0  0  0  0  0  0  0  0
   21.2791  -17.4100  -15.9892 C   0  0  0  0  0  0  0  0  0  0  0  0
   20.9466  -18.2839  -14.8307 C   0  0  2  0  0  0  0  0  0  0  0  0
   21.8546  -19.4377  -14.9349 N   0  0  0  0  0  0  0  0  0  0  0  0
   19.5367  -18.7338  -14.8898 C   0  0  0  0  0  0  0  0  0  0  0  0
   18.5082  -17.9512  -14.4013 O   0  0  0  0  0  0  0  0  0  0  0  0
   22.6490  -15.5896  -15.1293 C   0  0  0  0  0  0  0  0  0  0  0  0
   23.8015  -14.8459  -14.9993 C   0  0  0  0  0  0  0  0  0  0  0  0
   19.2532  -19.8470  -15.3907 O   0  0  0  0  0  0  0  0  0  0  0  0
  2  4  1  0
  2  1  1  1
  3  2  1  0
  4  6  1  0
  4  5  1  1
  6 10  1  0
  6  7  2  0
  9  8  1  1
  9 11  1  0
 10  9  1  0
 11 12  2  0
 13 14  1  0
 14 15  2  0
 15 16  1  0
 17 18  1  0
 17 16  2  0
 19 18  1  6
 19 21  1  0
 20 19  1  0
 20 11  1  0
 21 22  1  0
 23 17  1  0
 24 23  2  0
 24 14  1  0
 25 21  2  0
M  END
$$$$
