TAY.pdb
     RDKit          3D

 25 25  0  0  1  0  0  0  0  0999 V2000
   24.8300  -23.5257  -17.8982 C   0  0  0  0  0  0  0  0  0  0  0  0
   25.8113  -22.5694  -18.5011 C   0  0  1  0  0  0  0  0  0  0  0  0
   26.4519  -23.1014  -19.6138 O   0  0  0  0  0  0  0  0  0  0  0  0
   25.0861  -21.2969  -18.8922 C   0  0  2  0  0  0  0  0  0  0  0  0
   25.9371  -20.3456  -19.5390 N   0  0  0  0  0  0  0  0  0  0  0  0
   24.5051  -20.7189  -17.6665 C   0  0  0  0  0  0  0  0  0  0  0  0
   25.2569  -20.0686  -16.8748 O   0  0  0  0  0  0  0  0  0  0  0  0
   21.1476  -20.3805  -16.0649 C   0  0  0  0  0  0  0  0  0  0  0  0
   22.6706  -20.3042  -16.0839 C   0  0  2  0  0  0  0  0  0  0  0  0
   23.1367  -20.8467  -17.3118 N   0  0  0  0  0  0  0  0  0  0  0  0
   23.2021  -20.9993  -14.8876 C   0  0  0  0  0  0  0  0  0  0  0  0
   23.3421  -22.2325  -14.7921 O   0  0  0  0  0  0  0  0  0  0  0  0
   27.3951  -20.8935   -7.0238 O   0  0  0  0  0  0  0  0  0  0  0  0
   26.8659  -20.6640   -8.2826 C   0  0  0  0  0  0  0  0  0  0  0  0
   27.3917  -21.2996   -9.3812 C   0  0  0  0  0  0  0  0  0  0  0  0
   26.8927  -21.0967  -10.6457 C   0  0  0  0  0  0  0  0  0  0  0  0
   25.8344  -20.2318  -10.8222 C   0  0  0  0  0  0  0  0  0  0  0  0
   25.2206  -19.9299  -12.1100 C   0  0  0  0  0  0  0  0  0  0  0  0
   24.0636  -20.7761  -12.5123 C   0  0  2  0  0  0  0  0  0  0  0  0
   23.5762  -20.2008  -13.7764 N   0  0  0  0  0  0  0  0  0  0  0  0
   22.9953  -20.7407  -11.4870 C   0  0  0  0  0  0  0  0  0  0  0  0
   21.9870  -19.7971  -11.5275 O   0  0  0  0  0  0  0  0  0  0  0  0
   25.3196  -19.6012   -9.6992 C   0  0  0  0  0  0  0  0  0  0  0  0
   25.8159  -19.8010   -8.4295 C   0  0  0  0  0  0  0  0  0  0  0  0
   22.9917  -21.5782  -10.5547 O   0  0  0  0  0  0  0  0  0  0  0  0
  2  4  1  0
  2  1  1  6
  3  2  1  0
  4  6  1  0
  4  5  1  1
  6 10  1  0
  6  7  2  0
  9  8  1  6
  9 11  1  0
 10  9  1  0
 11 12  2  0
 13 14  1  0
 14 15  2  0
 15 16  1  0
 17 18  1  0
 17 16  2  0
 19 18  1  1
 19 21  1  0
 20 19  1  0
 20 11  1  0
 21 22  1  0
 23 17  1  0
 24 23  2  0
 24 14  1  0
 25 21  2  0
M  END
$$$$
