TAY.pdb
     RDKit          3D

 25 25  0  0  1  0  0  0  0  0999 V2000
   26.9774  -15.8992  -15.3587 C   0  0  0  0  0  0  0  0  0  0  0  0
   25.6615  -16.0754  -16.0505 C   0  0  1  0  0  0  0  0  0  0  0  0
   25.2831  -14.9430  -16.7618 O   0  0  0  0  0  0  0  0  0  0  0  0
   25.7519  -17.2603  -16.9917 C   0  0  2  0  0  0  0  0  0  0  0  0
   24.6144  -17.3779  -17.8519 N   0  0  0  0  0  0  0  0  0  0  0  0
   25.9032  -18.4742  -16.1687 C   0  0  0  0  0  0  0  0  0  0  0  0
   24.9776  -18.7884  -15.3566 O   0  0  0  0  0  0  0  0  0  0  0  0
   28.2880  -21.3262  -15.8254 C   0  0  0  0  0  0  0  0  0  0  0  0
   27.1166  -20.4595  -15.3757 C   0  0  2  0  0  0  0  0  0  0  0  0
   27.0370  -19.3260  -16.2292 N   0  0  0  0  0  0  0  0  0  0  0  0
   27.2945  -20.1146  -13.9452 C   0  0  0  0  0  0  0  0  0  0  0  0
   28.0500  -19.2194  -13.5239 O   0  0  0  0  0  0  0  0  0  0  0  0
   20.3122  -20.5513  -12.1128 O   0  0  0  0  0  0  0  0  0  0  0  0
   21.6545  -20.3082  -11.8754 C   0  0  0  0  0  0  0  0  0  0  0  0
   22.1498  -20.3502  -10.5947 C   0  0  0  0  0  0  0  0  0  0  0  0
   23.4758  -20.1144  -10.3206 C   0  0  0  0  0  0  0  0  0  0  0  0
   24.3378  -19.8271  -11.3569 C   0  0  0  0  0  0  0  0  0  0  0  0
   25.7612  -19.5547  -11.1955 C   0  0  0  0  0  0  0  0  0  0  0  0
   26.6955  -20.6609  -11.5417 C   0  0  2  0  0  0  0  0  0  0  0  0
   26.5510  -20.8582  -12.9932 N   0  0  0  0  0  0  0  0  0  0  0  0
   26.3421  -21.9035  -10.8174 C   0  0  0  0  0  0  0  0  0  0  0  0
   26.4605  -21.9970   -9.4441 O   0  0  0  0  0  0  0  0  0  0  0  0
   23.8160  -19.7899  -12.6414 C   0  0  0  0  0  0  0  0  0  0  0  0
   22.4877  -20.0254  -12.9217 C   0  0  0  0  0  0  0  0  0  0  0  0
   25.9250  -22.9020  -11.4497 O   0  0  0  0  0  0  0  0  0  0  0  0
  2  4  1  0
  2  1  1  6
  3  2  1  0
  4  6  1  0
  4  5  1  1
  6 10  1  0
  6  7  2  0
  9  8  1  6
  9 11  1  0
 10  9  1  0
 11 12  2  0
 13 14  1  0
 14 15  2  0
 15 16  1  0
 17 18  1  0
 17 16  2  0
 19 18  1  1
 19 21  1  0
 20 19  1  0
 20 11  1  0
 21 22  1  0
 23 17  1  0
 24 23  2  0
 24 14  1  0
 25 21  2  0
M  END
$$$$
