TAY.pdb
     RDKit          3D

 25 25  0  0  1  0  0  0  0  0999 V2000
   26.5460  -25.7691  -17.4264 C   0  0  0  0  0  0  0  0  0  0  0  0
   27.6064  -25.9187  -16.3802 C   0  0  1  0  0  0  0  0  0  0  0  0
   28.2192  -27.1653  -16.4240 O   0  0  0  0  0  0  0  0  0  0  0  0
   28.6475  -24.8336  -16.5719 C   0  0  2  0  0  0  0  0  0  0  0  0
   29.7292  -24.9269  -15.6398 N   0  0  0  0  0  0  0  0  0  0  0  0
   27.9660  -23.5325  -16.4419 C   0  0  0  0  0  0  0  0  0  0  0  0
   27.5131  -23.1841  -15.3068 O   0  0  0  0  0  0  0  0  0  0  0  0
   27.4269  -20.4846  -18.5187 C   0  0  0  0  0  0  0  0  0  0  0  0
   27.1901  -21.3611  -17.2935 C   0  0  2  0  0  0  0  0  0  0  0  0
   27.7823  -22.6322  -17.5238 N   0  0  0  0  0  0  0  0  0  0  0  0
   25.7345  -21.4245  -17.0212 C   0  0  0  0  0  0  0  0  0  0  0  0
   24.9639  -22.2780  -17.4982 O   0  0  0  0  0  0  0  0  0  0  0  0
   18.4095  -17.7778  -13.3546 O   0  0  0  0  0  0  0  0  0  0  0  0
   19.6909  -18.1577  -13.7162 C   0  0  0  0  0  0  0  0  0  0  0  0
   20.2527  -19.2929  -13.1843 C   0  0  0  0  0  0  0  0  0  0  0  0
   21.5216  -19.7011  -13.5195 C   0  0  0  0  0  0  0  0  0  0  0  0
   22.2560  -18.9537  -14.4148 C   0  0  0  0  0  0  0  0  0  0  0  0
   23.6105  -19.2783  -14.8459 C   0  0  0  0  0  0  0  0  0  0  0  0
   23.7482  -20.3742  -15.8442 C   0  0  2  0  0  0  0  0  0  0  0  0
   25.1849  -20.4431  -16.1570 N   0  0  0  0  0  0  0  0  0  0  0  0
   22.9699  -20.0800  -17.0695 C   0  0  0  0  0  0  0  0  0  0  0  0
   21.7049  -20.6005  -17.2634 O   0  0  0  0  0  0  0  0  0  0  0  0
   21.6690  -17.8115  -14.9390 C   0  0  0  0  0  0  0  0  0  0  0  0
   20.3975  -17.3979  -14.6064 C   0  0  0  0  0  0  0  0  0  0  0  0
   23.4555  -19.3444  -17.9604 O   0  0  0  0  0  0  0  0  0  0  0  0
  2  4  1  0
  2  1  1  6
  3  2  1  0
  4  6  1  0
  4  5  1  1
  6 10  1  0
  6  7  2  0
  9  8  1  6
  9 11  1  0
 10  9  1  0
 11 12  2  0
 13 14  1  0
 14 15  2  0
 15 16  1  0
 17 18  1  0
 17 16  2  0
 19 18  1  1
 19 21  1  0
 20 19  1  0
 20 11  1  0
 21 22  1  0
 23 17  1  0
 24 23  2  0
 24 14  1  0
 25 21  2  0
M  END
$$$$
