TAY.pdb
     RDKit          3D

 25 25  0  0  1  0  0  0  0  0999 V2000
   22.4139   -8.4331  -17.0099 C   0  0  0  0  0  0  0  0  0  0  0  0
   21.9826   -8.2640  -18.4335 C   0  0  1  0  0  0  0  0  0  0  0  0
   23.0342   -7.8948  -19.2636 O   0  0  0  0  0  0  0  0  0  0  0  0
   21.3790   -9.5646  -18.9256 C   0  0  2  0  0  0  0  0  0  0  0  0
   21.1070   -9.5574  -20.3304 N   0  0  0  0  0  0  0  0  0  0  0  0
   20.1397   -9.7993  -18.1620 C   0  0  0  0  0  0  0  0  0  0  0  0
   19.0874   -9.1635  -18.4832 O   0  0  0  0  0  0  0  0  0  0  0  0
   18.7472  -12.2292  -15.7651 C   0  0  0  0  0  0  0  0  0  0  0  0
   18.8321  -10.8235  -16.3500 C   0  0  2  0  0  0  0  0  0  0  0  0
   20.0495  -10.7058  -17.0735 N   0  0  0  0  0  0  0  0  0  0  0  0
   18.6955   -9.8366  -15.2525 C   0  0  0  0  0  0  0  0  0  0  0  0
   17.7215   -9.7707  -14.4800 O   0  0  0  0  0  0  0  0  0  0  0  0
   25.1758   -5.4935  -16.4497 O   0  0  0  0  0  0  0  0  0  0  0  0
   24.1515   -6.0606  -15.7104 C   0  0  0  0  0  0  0  0  0  0  0  0
   24.0526   -7.4262  -15.5979 C   0  0  0  0  0  0  0  0  0  0  0  0
   23.0500   -8.0247  -14.8728 C   0  0  0  0  0  0  0  0  0  0  0  0
   22.1142   -7.2367  -14.2382 C   0  0  0  0  0  0  0  0  0  0  0  0
   21.0035   -7.7501  -13.4452 C   0  0  0  0  0  0  0  0  0  0  0  0
   19.6725   -7.7932  -14.1106 C   0  0  2  0  0  0  0  0  0  0  0  0
   19.7494   -8.9044  -15.0728 N   0  0  0  0  0  0  0  0  0  0  0  0
   19.3879   -6.5224  -14.8162 C   0  0  0  0  0  0  0  0  0  0  0  0
   19.3040   -6.4649  -16.1940 O   0  0  0  0  0  0  0  0  0  0  0  0
   22.2334   -5.8607  -14.3655 C   0  0  0  0  0  0  0  0  0  0  0  0
   23.2364   -5.2556  -15.0910 C   0  0  0  0  0  0  0  0  0  0  0  0
   19.2172   -5.4663  -14.1634 O   0  0  0  0  0  0  0  0  0  0  0  0
  2  4  1  0
  2  1  1  1
  3  2  1  0
  4  6  1  0
  4  5  1  6
  6 10  1  0
  6  7  2  0
  9  8  1  1
  9 11  1  0
 10  9  1  0
 11 12  2  0
 13 14  1  0
 14 15  2  0
 15 16  1  0
 17 18  1  0
 17 16  2  0
 19 18  1  6
 19 21  1  0
 20 19  1  0
 20 11  1  0
 21 22  1  0
 23 17  1  0
 24 23  2  0
 24 14  1  0
 25 21  2  0
M  END
$$$$
