TAY.pdb
     RDKit          3D

 25 25  0  0  1  0  0  0  0  0999 V2000
   25.1241  -24.0001  -17.0826 C   0  0  0  0  0  0  0  0  0  0  0  0
   26.4354  -23.5754  -16.4983 C   0  0  1  0  0  0  0  0  0  0  0  0
   27.4555  -24.4761  -16.7800 O   0  0  0  0  0  0  0  0  0  0  0  0
   26.8000  -22.2081  -17.0421 C   0  0  2  0  0  0  0  0  0  0  0  0
   28.0894  -21.7617  -16.6110 N   0  0  0  0  0  0  0  0  0  0  0  0
   25.7556  -21.2618  -16.6088 C   0  0  0  0  0  0  0  0  0  0  0  0
   25.7100  -20.9096  -15.3886 O   0  0  0  0  0  0  0  0  0  0  0  0
   23.0103  -19.2328  -18.1141 C   0  0  0  0  0  0  0  0  0  0  0  0
   23.7162  -19.9351  -16.9591 C   0  0  2  0  0  0  0  0  0  0  0  0
   24.7835  -20.7122  -17.4848 N   0  0  0  0  0  0  0  0  0  0  0  0
   22.7218  -20.7289  -16.1988 C   0  0  0  0  0  0  0  0  0  0  0  0
   22.3788  -21.8908  -16.4850 O   0  0  0  0  0  0  0  0  0  0  0  0
   26.6681  -22.6559  -11.3800 O   0  0  0  0  0  0  0  0  0  0  0  0
   25.4407  -22.1157  -11.7246 C   0  0  0  0  0  0  0  0  0  0  0  0
   25.2077  -20.7708  -11.5688 C   0  0  0  0  0  0  0  0  0  0  0  0
   24.0025  -20.1991  -11.8999 C   0  0  0  0  0  0  0  0  0  0  0  0
   22.9950  -20.9936  -12.4033 C   0  0  0  0  0  0  0  0  0  0  0  0
   21.6744  -20.5086  -12.7864 C   0  0  0  0  0  0  0  0  0  0  0  0
   21.2141  -20.8429  -14.1622 C   0  0  2  0  0  0  0  0  0  0  0  0
   22.1216  -20.1193  -15.0674 N   0  0  0  0  0  0  0  0  0  0  0  0
   19.8162  -20.4036  -14.3781 C   0  0  0  0  0  0  0  0  0  0  0  0
   18.7475  -21.1322  -13.8925 O   0  0  0  0  0  0  0  0  0  0  0  0
   23.2523  -22.3484  -12.5520 C   0  0  0  0  0  0  0  0  0  0  0  0
   24.4585  -22.9264  -12.2217 C   0  0  0  0  0  0  0  0  0  0  0  0
   19.5803  -19.3498  -15.0140 O   0  0  0  0  0  0  0  0  0  0  0  0
  2  4  1  0
  2  1  1  6
  3  2  1  0
  4  6  1  0
  4  5  1  1
  6 10  1  0
  6  7  2  0
  9  8  1  6
  9 11  1  0
 10  9  1  0
 11 12  2  0
 13 14  1  0
 14 15  2  0
 15 16  1  0
 17 18  1  0
 17 16  2  0
 19 18  1  1
 19 21  1  0
 20 19  1  0
 20 11  1  0
 21 22  1  0
 23 17  1  0
 24 23  2  0
 24 14  1  0
 25 21  2  0
M  END
$$$$
