RCS.pdb
     RDKit          3D

 24 23  0  0  1  0  0  0  0  0999 V2000
   26.1820  -23.4012  -15.6637 N   0  0  0  0  0  0  0  0  0  0  0  0
   25.3692  -24.5112  -15.2987 C   0  0  0  0  0  0  0  0  0  0  0  0
   25.8227  -25.7305  -15.2235 N   0  0  0  0  0  0  0  0  0  0  0  0
   23.9819  -24.3335  -14.9903 N   0  0  0  0  0  0  0  0  0  0  0  0
   23.3985  -23.0035  -14.9550 C   0  0  0  0  0  0  0  0  0  0  0  0
   24.0330  -22.1973  -13.8663 C   0  0  0  0  0  0  0  0  0  0  0  0
   23.4473  -20.8455  -13.6416 C   0  0  0  0  0  0  0  0  0  0  0  0
   22.4996  -20.3735  -14.6910 C   0  0  2  0  0  0  0  0  0  0  0  0
   22.9363  -19.2646  -15.4750 N   0  0  0  0  0  0  0  0  0  0  0  0
   21.2145  -19.9979  -14.0185 C   0  0  0  0  0  0  0  0  0  0  0  0
   21.1478  -19.0258  -13.2493 O   0  0  0  0  0  0  0  0  0  0  0  0
   25.1461  -26.4612  -14.9278 N   0  0  0  0  0  0  0  0  0  0  0  0
   20.0756  -20.8106  -14.3042 C   0  0  2  0  0  0  0  0  0  0  0  0
   18.8269  -20.4756  -13.5838 C   0  0  0  0  0  0  0  0  0  0  0  0
   17.9316  -19.8857  -14.6623 S   0  0  0  0  0  0  0  0  0  0  0  0
   16.2431  -19.6484  -14.0731 C   0  0  0  0  0  0  0  0  0  0  0  0
   18.2336  -21.7145  -13.0584 O   0  0  0  0  0  0  0  0  0  0  0  0
   18.1528  -22.7800  -13.7323 O   0  0  0  0  0  0  0  0  0  0  0  0
   17.5944  -24.7477   -9.7081 C   0  0  0  0  0  0  0  0  0  0  0  0
   18.0931  -23.5827  -10.2410 C   0  0  2  0  0  0  0  0  0  0  0  0
   17.1026  -22.9844  -11.2343 N   0  0  0  0  0  0  0  0  0  0  0  0
   17.7171  -21.7652  -11.7422 C   0  0  0  0  0  0  0  0  0  0  0  0
   15.8571  -22.6051  -10.5306 O   0  0  0  0  0  0  0  0  0  0  0  0
   15.5048  -21.3835  -10.4151 O   0  0  0  0  0  0  0  0  0  0  0  0
  1  2  1  0
  2  3  2  0
  4  5  1  0
  4  2  1  0
  6  7  1  0
  6  5  1  0
  7  8  1  0
  8 10  1  0
  8  9  1  1
 10 11  2  0
 10 12  1  0
 12 13  1  0
 13 16  1  0
 13 14  1  6
 14 15  1  0
 16 17  2  0
 18 19  1  0
 20 19  1  6
 21 20  1  0
 21 16  1  0
 22 24  1  0
 22 20  1  0
 23 22  2  0
M  END
$$$$
