RCS.pdb
     RDKit          3D

 24 23  0  0  1  0  0  0  0  0999 V2000
   17.0501  -23.9480  -12.3187 N   0  0  0  0  0  0  0  0  0  0  0  0
   18.0002  -24.5541  -11.4492 C   0  0  0  0  0  0  0  0  0  0  0  0
   17.9661  -25.8165  -11.1279 N   0  0  0  0  0  0  0  0  0  0  0  0
   19.0624  -23.7847  -10.8740 N   0  0  0  0  0  0  0  0  0  0  0  0
   19.4469  -22.5092  -11.4534 C   0  0  0  0  0  0  0  0  0  0  0  0
   20.5746  -22.7061  -12.4165 C   0  0  0  0  0  0  0  0  0  0  0  0
   21.0427  -21.4781  -13.1192 C   0  0  0  0  0  0  0  0  0  0  0  0
   21.3528  -20.3142  -12.2410 C   0  0  2  0  0  0  0  0  0  0  0  0
   20.6500  -19.1072  -12.5310 N   0  0  0  0  0  0  0  0  0  0  0  0
   22.8223  -20.0390  -12.3396 C   0  0  0  0  0  0  0  0  0  0  0  0
   23.2702  -19.1974  -13.1347 O   0  0  0  0  0  0  0  0  0  0  0  0
   18.7512  -26.1700  -10.5466 N   0  0  0  0  0  0  0  0  0  0  0  0
   23.6783  -20.7902  -11.4780 C   0  0  2  0  0  0  0  0  0  0  0  0
   25.1284  -20.5127  -11.5811 C   0  0  0  0  0  0  0  0  0  0  0  0
   25.6861  -20.9909  -10.2496 S   0  0  0  0  0  0  0  0  0  0  0  0
   25.6797  -19.6783   -9.0121 C   0  0  0  0  0  0  0  0  0  0  0  0
   25.6894  -21.3141  -12.6794 O   0  0  0  0  0  0  0  0  0  0  0  0
   25.5456  -22.5664  -12.7622 O   0  0  0  0  0  0  0  0  0  0  0  0
   25.0080  -20.8493  -16.0845 C   0  0  0  0  0  0  0  0  0  0  0  0
   25.7117  -21.9373  -15.6252 C   0  0  1  0  0  0  0  0  0  0  0  0
   26.9342  -21.4854  -14.8334 N   0  0  0  0  0  0  0  0  0  0  0  0
   26.4310  -20.6989  -13.7154 C   0  0  0  0  0  0  0  0  0  0  0  0
   27.7718  -20.5982  -15.6712 O   0  0  0  0  0  0  0  0  0  0  0  0
   27.8836  -19.3527  -15.4142 O   0  0  0  0  0  0  0  0  0  0  0  0
  1  2  1  0
  2  3  2  0
  4  5  1  0
  4  2  1  0
  6  7  1  0
  6  5  1  0
  7  8  1  0
  8 10  1  0
  8  9  1  6
 10 11  2  0
 10 12  1  0
 12 13  1  0
 13 16  1  0
 13 14  1  1
 14 15  1  0
 16 17  2  0
 18 19  1  0
 20 19  1  1
 21 20  1  0
 21 16  1  0
 22 24  1  0
 22 20  1  0
 23 22  2  0
M  END
$$$$
