RCS.pdb
     RDKit          3D

 24 23  0  0  1  0  0  0  0  0999 V2000
   20.1786  -23.2335  -13.3867 N   0  0  0  0  0  0  0  0  0  0  0  0
   19.5569  -22.2696  -12.5437 C   0  0  0  0  0  0  0  0  0  0  0  0
   18.3582  -22.4196  -12.0554 N   0  0  0  0  0  0  0  0  0  0  0  0
   20.2378  -21.0615  -12.1857 N   0  0  0  0  0  0  0  0  0  0  0  0
   21.5824  -20.8012  -12.6702 C   0  0  0  0  0  0  0  0  0  0  0  0
   22.5746  -21.0494  -11.5784 C   0  0  0  0  0  0  0  0  0  0  0  0
   24.0043  -20.8557  -11.9517 C   0  0  0  0  0  0  0  0  0  0  0  0
   24.9884  -21.0522  -10.8495 C   0  0  2  0  0  0  0  0  0  0  0  0
   24.6178  -20.5213   -9.5784 N   0  0  0  0  0  0  0  0  0  0  0  0
   26.2812  -20.4195  -11.2655 C   0  0  0  0  0  0  0  0  0  0  0  0
   26.4382  -19.1885  -11.2327 O   0  0  0  0  0  0  0  0  0  0  0  0
   17.9785  -21.6266  -11.5020 N   0  0  0  0  0  0  0  0  0  0  0  0
   27.3188  -21.2989  -11.7006 C   0  0  1  0  0  0  0  0  0  0  0  0
   28.2165  -20.7885  -12.7608 C   0  0  0  0  0  0  0  0  0  0  0  0
   29.6041  -21.1954  -12.2899 S   0  0  0  0  0  0  0  0  0  0  0  0
   29.6698  -21.3958  -10.4983 C   0  0  0  0  0  0  0  0  0  0  0  0
   27.8943  -21.4676  -14.0250 O   0  0  0  0  0  0  0  0  0  0  0  0
   27.0787  -22.4293  -14.1025 O   0  0  0  0  0  0  0  0  0  0  0  0
   25.9065  -19.4717  -17.1847 C   0  0  0  0  0  0  0  0  0  0  0  0
   26.6529  -19.8022  -16.0786 C   0  0  1  0  0  0  0  0  0  0  0  0
   27.6946  -20.8575  -16.4347 N   0  0  0  0  0  0  0  0  0  0  0  0
   28.4991  -21.0600  -15.2373 C   0  0  0  0  0  0  0  0  0  0  0  0
   28.5858  -20.3408  -17.4975 O   0  0  0  0  0  0  0  0  0  0  0  0
   29.6145  -19.6380  -17.2186 O   0  0  0  0  0  0  0  0  0  0  0  0
  1  2  1  0
  2  3  2  0
  4  5  1  0
  4  2  1  0
  6  7  1  0
  6  5  1  0
  7  8  1  0
  8 10  1  0
  8  9  1  1
 10 11  2  0
 10 12  1  0
 12 13  1  0
 13 16  1  0
 13 14  1  1
 14 15  1  0
 16 17  2  0
 18 19  1  0
 20 19  1  1
 21 20  1  0
 21 16  1  0
 22 24  1  0
 22 20  1  0
 23 22  2  0
M  END
$$$$
