RCS.pdb
     RDKit          3D

 24 23  0  0  1  0  0  0  0  0999 V2000
   19.7579  -28.1919  -14.0252 N   0  0  0  0  0  0  0  0  0  0  0  0
   20.1142  -29.2294  -13.1181 C   0  0  0  0  0  0  0  0  0  0  0  0
   20.4818  -30.4179  -13.5058 N   0  0  0  0  0  0  0  0  0  0  0  0
   20.0837  -29.0081  -11.7034 N   0  0  0  0  0  0  0  0  0  0  0  0
   19.2719  -27.9428  -11.1407 C   0  0  0  0  0  0  0  0  0  0  0  0
   19.6315  -26.6375  -11.7771 C   0  0  0  0  0  0  0  0  0  0  0  0
   20.1552  -25.5931  -10.8520 C   0  0  0  0  0  0  0  0  0  0  0  0
   19.1257  -24.7184  -10.2218 C   0  0  2  0  0  0  0  0  0  0  0  0
   19.2079  -23.3294  -10.5363 N   0  0  0  0  0  0  0  0  0  0  0  0
   19.2351  -24.8722   -8.7355 C   0  0  0  0  0  0  0  0  0  0  0  0
   20.3339  -24.8222   -8.1599 O   0  0  0  0  0  0  0  0  0  0  0  0
   20.7082  -31.1021  -12.7576 N   0  0  0  0  0  0  0  0  0  0  0  0
   18.0184  -25.0792   -8.0173 C   0  0  2  0  0  0  0  0  0  0  0  0
   18.1408  -25.2986   -6.5588 C   0  0  0  0  0  0  0  0  0  0  0  0
   17.5281  -24.0470   -5.9497 S   0  0  0  0  0  0  0  0  0  0  0  0
   15.9266  -23.6610   -6.6851 C   0  0  0  0  0  0  0  0  0  0  0  0
   17.3477  -26.4800   -6.1870 O   0  0  0  0  0  0  0  0  0  0  0  0
   16.7913  -27.2319   -7.0361 O   0  0  0  0  0  0  0  0  0  0  0  0
   18.2373  -29.4885   -4.2507 C   0  0  0  0  0  0  0  0  0  0  0  0
   17.1309  -29.2116   -5.0182 C   0  0  1  0  0  0  0  0  0  0  0  0
   16.3858  -28.0028   -4.4622 N   0  0  0  0  0  0  0  0  0  0  0  0
   17.1722  -26.8325   -4.8280 C   0  0  0  0  0  0  0  0  0  0  0  0
   16.3449  -28.0776   -2.9846 O   0  0  0  0  0  0  0  0  0  0  0  0
   17.0517  -27.2996   -2.2600 O   0  0  0  0  0  0  0  0  0  0  0  0
  1  2  1  0
  2  3  2  0
  4  5  1  0
  4  2  1  0
  6  7  1  0
  6  5  1  0
  7  8  1  0
  8 10  1  0
  8  9  1  1
 10 11  2  0
 10 12  1  0
 12 13  1  0
 13 16  1  0
 13 14  1  6
 14 15  1  0
 16 17  2  0
 18 19  1  0
 20 19  1  6
 21 20  1  0
 21 16  1  0
 22 24  1  0
 22 20  1  0
 23 22  2  0
M  END
$$$$
