RCS.pdb
     RDKit          3D

 24 23  0  0  1  0  0  0  0  0999 V2000
   12.9946  -11.7038  -11.4613 N   0  0  0  0  0  0  0  0  0  0  0  0
   12.4843  -11.1667  -10.2459 C   0  0  0  0  0  0  0  0  0  0  0  0
   11.7657  -11.8598   -9.4085 N   0  0  0  0  0  0  0  0  0  0  0  0
   12.7438   -9.8066   -9.8799 N   0  0  0  0  0  0  0  0  0  0  0  0
   14.0846   -9.2574   -9.9849 C   0  0  0  0  0  0  0  0  0  0  0  0
   14.0599   -8.0050  -10.8027 C   0  0  0  0  0  0  0  0  0  0  0  0
   15.3881   -7.3837  -11.0687 C   0  0  0  0  0  0  0  0  0  0  0  0
   16.4126   -7.5768  -10.0033 C   0  0  2  0  0  0  0  0  0  0  0  0
   16.1891   -6.8690   -8.7852 N   0  0  0  0  0  0  0  0  0  0  0  0
   17.7399   -7.1556  -10.5563 C   0  0  0  0  0  0  0  0  0  0  0  0
   18.1821   -6.0102  -10.3731 O   0  0  0  0  0  0  0  0  0  0  0  0
   11.4244  -11.3604   -8.5639 N   0  0  0  0  0  0  0  0  0  0  0  0
   18.4671   -8.1324  -11.3020 C   0  0  1  0  0  0  0  0  0  0  0  0
   19.8014   -7.7270  -11.7977 C   0  0  0  0  0  0  0  0  0  0  0  0
   20.4373   -9.0349  -12.2425 S   0  0  0  0  0  0  0  0  0  0  0  0
   22.0057   -8.7610  -13.0908 C   0  0  0  0  0  0  0  0  0  0  0  0
   19.6286   -6.8325  -12.9523 O   0  0  0  0  0  0  0  0  0  0  0  0
   18.8100   -7.0630  -13.8865 O   0  0  0  0  0  0  0  0  0  0  0  0
   19.8121   -2.9841  -12.7634 C   0  0  0  0  0  0  0  0  0  0  0  0
   19.3250   -3.6614  -13.8560 C   0  0  1  0  0  0  0  0  0  0  0  0
   20.2673   -4.7964  -14.2427 N   0  0  0  0  0  0  0  0  0  0  0  0
   20.3908   -5.6459  -13.0659 C   0  0  0  0  0  0  0  0  0  0  0  0
   21.6080   -4.2497  -14.5498 O   0  0  0  0  0  0  0  0  0  0  0  0
   22.6213   -4.5286  -13.8250 O   0  0  0  0  0  0  0  0  0  0  0  0
  1  2  1  0
  2  3  2  0
  4  5  1  0
  4  2  1  0
  6  7  1  0
  6  5  1  0
  7  8  1  0
  8 10  1  0
  8  9  1  1
 10 11  2  0
 10 12  1  0
 12 13  1  0
 13 16  1  0
 13 14  1  1
 14 15  1  0
 16 17  2  0
 18 19  1  0
 20 19  1  6
 21 20  1  0
 21 16  1  0
 22 24  1  0
 22 20  1  0
 23 22  2  0
M  END
$$$$
