PHA.pdb
     RDKit          3D

 23 24  0  0  1  0  0  0  0  0999 V2000
    9.4143  -14.5203   19.8909 N   0  0  0  0  0  0  0  0  0  0  0  0
    9.1136  -13.7952   18.6436 C   0  0  0  0  0  0  0  0  0  0  0  0
    7.6137  -13.6129   18.7923 C   0  0  0  0  0  0  0  0  0  0  0  0
    7.4289  -13.3228   20.2672 C   0  0  0  0  0  0  0  0  0  0  0  0
    8.7706  -13.6897   20.8569 C   0  0  1  0  0  0  0  0  0  0  0  0
    8.6230  -14.3333   22.2018 C   0  0  0  0  0  0  0  0  0  0  0  0
    7.7496  -13.9142   22.9700 O   0  0  0  0  0  0  0  0  0  0  0  0
    9.4575  -15.3944   22.5918 N   0  0  0  0  0  0  0  0  0  0  0  0
    9.5424  -16.1015   23.8165 C   0  0  1  0  0  0  0  0  0  0  0  0
   10.0682  -17.5219   23.7216 C   0  0  0  0  0  0  0  0  0  0  0  0
    9.3562  -18.3558   22.7228 C   0  0  0  0  0  0  0  0  0  0  0  0
    8.2801  -17.9484   21.9667 C   0  0  0  0  0  0  0  0  0  0  0  0
    7.8953  -18.9988   21.2378 N   0  0  0  0  0  0  0  0  0  0  0  0
    8.6828  -20.0379   21.5067 C   0  0  0  0  0  0  0  0  0  0  0  0
    9.5791  -19.6469   22.4164 N   0  0  0  0  0  0  0  0  0  0  0  0
   10.0549  -15.3981   24.9709 C   0  0  0  0  0  0  0  0  0  0  0  0
   11.2076  -14.8934   24.9921 O   0  0  0  0  0  0  0  0  0  0  0  0
    8.7106  -13.5617   27.7252 C   0  0  0  0  0  0  0  0  0  0  0  0
    9.8012  -14.5484   27.2935 C   0  0  2  0  0  0  0  0  0  0  0  0
    9.2729  -15.2443   26.1397 N   0  0  0  0  0  0  0  0  0  0  0  0
   10.1514  -15.4370   28.3953 C   0  0  0  0  0  0  0  0  0  0  0  0
   10.8180  -14.9692   29.5104 O   0  0  0  0  0  0  0  0  0  0  0  0
    9.8496  -16.6505   28.3461 O   0  0  0  0  0  0  0  0  0  0  0  0
  1  5  1  0
  2  1  1  0
  2  3  1  0
  4  3  1  0
  5  6  1  1
  5  4  1  0
  6  7  2  0
  6  8  1  0
  8  9  1  0
  9 16  1  0
  9 10  1  6
 10 11  1  0
 11 15  1  0
 12 11  2  0
 12 13  1  0
 13 14  1  0
 15 14  2  0
 16 20  1  0
 16 17  2  0
 19 18  1  1
 19 21  1  0
 20 19  1  0
 21 22  1  0
 23 21  2  0
M  END
$$$$
