PHA.pdb
     RDKit          3D

 23 24  0  0  1  0  0  0  0  0999 V2000
    5.4321  -18.7460   20.1184 N   0  0  0  0  0  0  0  0  0  0  0  0
    3.9966  -19.0653   20.2166 C   0  0  0  0  0  0  0  0  0  0  0  0
    3.8050  -18.9872   21.7206 C   0  0  0  0  0  0  0  0  0  0  0  0
    4.6688  -17.8143   22.1351 C   0  0  0  0  0  0  0  0  0  0  0  0
    5.5062  -17.5567   20.9042 C   0  0  1  0  0  0  0  0  0  0  0  0
    6.9051  -17.1588   21.2640 C   0  0  0  0  0  0  0  0  0  0  0  0
    7.7798  -18.0314   21.3082 O   0  0  0  0  0  0  0  0  0  0  0  0
    7.2266  -15.8206   21.5477 N   0  0  0  0  0  0  0  0  0  0  0  0
    8.4430  -15.2326   21.9737 C   0  0  1  0  0  0  0  0  0  0  0  0
    8.7751  -13.8864   21.3571 C   0  0  0  0  0  0  0  0  0  0  0  0
    8.4252  -13.7866   19.9191 C   0  0  0  0  0  0  0  0  0  0  0  0
    7.2643  -13.2424   19.4175 C   0  0  0  0  0  0  0  0  0  0  0  0
    7.3038  -13.3931   18.0915 N   0  0  0  0  0  0  0  0  0  0  0  0
    8.4350  -14.0051   17.7480 C   0  0  0  0  0  0  0  0  0  0  0  0
    9.1244  -14.2476   18.8659 N   0  0  0  0  0  0  0  0  0  0  0  0
    8.7674  -15.2911   23.3814 C   0  0  0  0  0  0  0  0  0  0  0  0
    9.5829  -14.4954   23.9158 O   0  0  0  0  0  0  0  0  0  0  0  0
    7.2983  -15.9361   26.4175 C   0  0  0  0  0  0  0  0  0  0  0  0
    8.5465  -16.3397   25.6247 C   0  0  2  0  0  0  0  0  0  0  0  0
    8.1743  -16.2564   24.2286 N   0  0  0  0  0  0  0  0  0  0  0  0
    8.9990  -17.6668   26.0251 C   0  0  0  0  0  0  0  0  0  0  0  0
    9.5048  -17.9018   27.2881 O   0  0  0  0  0  0  0  0  0  0  0  0
    8.9349  -18.6233   25.2207 O   0  0  0  0  0  0  0  0  0  0  0  0
  1  5  1  0
  2  1  1  0
  2  3  1  0
  4  3  1  0
  5  6  1  1
  5  4  1  0
  6  7  2  0
  6  8  1  0
  8  9  1  0
  9 16  1  0
  9 10  1  1
 10 11  1  0
 11 15  1  0
 12 11  2  0
 12 13  1  0
 13 14  1  0
 15 14  2  0
 16 20  1  0
 16 17  2  0
 19 18  1  1
 19 21  1  0
 20 19  1  0
 21 22  1  0
 23 21  2  0
M  END
$$$$
