PHA.pdb
     RDKit          3D

 23 24  0  0  1  0  0  0  0  0999 V2000
    8.9649  -18.8202   19.8818 N   0  0  0  0  0  0  0  0  0  0  0  0
    9.0210  -19.4598   18.5551 C   0  0  0  0  0  0  0  0  0  0  0  0
    9.0153  -18.2314   17.6628 C   0  0  0  0  0  0  0  0  0  0  0  0
    9.8839  -17.2391   18.4076 C   0  0  0  0  0  0  0  0  0  0  0  0
   10.0216  -17.8666   19.7751 C   0  0  1  0  0  0  0  0  0  0  0  0
   10.0109  -16.8320   20.8587 C   0  0  0  0  0  0  0  0  0  0  0  0
   11.0893  -16.3876   21.2686 O   0  0  0  0  0  0  0  0  0  0  0  0
    8.8020  -16.3693   21.4054 N   0  0  0  0  0  0  0  0  0  0  0  0
    8.5524  -15.4064   22.4142 C   0  0  1  0  0  0  0  0  0  0  0  0
    7.5492  -14.3248   22.0583 C   0  0  0  0  0  0  0  0  0  0  0  0
    7.6650  -13.8406   20.6611 C   0  0  0  0  0  0  0  0  0  0  0  0
    8.1753  -12.6198   20.2806 C   0  0  0  0  0  0  0  0  0  0  0  0
    8.0533  -12.5423   18.9533 N   0  0  0  0  0  0  0  0  0  0  0  0
    7.4913  -13.6581   18.4935 C   0  0  0  0  0  0  0  0  0  0  0  0
    7.2522  -14.4557   19.5377 N   0  0  0  0  0  0  0  0  0  0  0  0
    8.4032  -15.8731   23.7743 C   0  0  0  0  0  0  0  0  0  0  0  0
    7.3108  -15.7956   24.3944 O   0  0  0  0  0  0  0  0  0  0  0  0
    9.3341  -18.4837   25.6906 C   0  0  0  0  0  0  0  0  0  0  0  0
    9.3169  -16.9562   25.8170 C   0  0  2  0  0  0  0  0  0  0  0  0
    9.4914  -16.4447   24.4745 N   0  0  0  0  0  0  0  0  0  0  0  0
   10.3482  -16.5089   26.7457 C   0  0  0  0  0  0  0  0  0  0  0  0
   10.3016  -16.8421   28.0848 O   0  0  0  0  0  0  0  0  0  0  0  0
   11.3018  -15.8084   26.3382 O   0  0  0  0  0  0  0  0  0  0  0  0
  1  5  1  0
  2  1  1  0
  2  3  1  0
  4  3  1  0
  5  6  1  1
  5  4  1  0
  6  7  2  0
  6  8  1  0
  8  9  1  0
  9 16  1  0
  9 10  1  6
 10 11  1  0
 11 15  1  0
 12 11  2  0
 12 13  1  0
 13 14  1  0
 15 14  2  0
 16 20  1  0
 16 17  2  0
 19 18  1  6
 19 21  1  0
 20 19  1  0
 21 22  1  0
 23 21  2  0
M  END
$$$$
