PHA.pdb
     RDKit          3D

 23 24  0  0  1  0  0  0  0  0999 V2000
    9.2292  -14.3270   18.4047 N   0  0  0  0  0  0  0  0  0  0  0  0
    8.7456  -13.4403   17.3313 C   0  0  0  0  0  0  0  0  0  0  0  0
    7.2474  -13.5330   17.5591 C   0  0  0  0  0  0  0  0  0  0  0  0
    7.1115  -13.5564   19.0673 C   0  0  0  0  0  0  0  0  0  0  0  0
    8.5270  -13.8057   19.5328 C   0  0  1  0  0  0  0  0  0  0  0  0
    8.5618  -14.7037   20.7315 C   0  0  0  0  0  0  0  0  0  0  0  0
    7.7416  -14.5191   21.6381 O   0  0  0  0  0  0  0  0  0  0  0  0
    9.5060  -15.7395   20.8325 N   0  0  0  0  0  0  0  0  0  0  0  0
    9.7084  -16.7103   21.8443 C   0  0  1  0  0  0  0  0  0  0  0  0
   10.7406  -17.7788   21.5347 C   0  0  0  0  0  0  0  0  0  0  0  0
   10.4447  -18.5554   20.3062 C   0  0  0  0  0  0  0  0  0  0  0  0
    9.1861  -18.8842   19.8552 C   0  0  0  0  0  0  0  0  0  0  0  0
    9.3466  -19.6296   18.7593 N   0  0  0  0  0  0  0  0  0  0  0  0
   10.6458  -19.7779   18.5098 C   0  0  0  0  0  0  0  0  0  0  0  0
   11.3214  -19.1207   19.4561 N   0  0  0  0  0  0  0  0  0  0  0  0
    9.7768  -16.2560   23.2151 C   0  0  0  0  0  0  0  0  0  0  0  0
   10.7269  -15.5492   23.6413 O   0  0  0  0  0  0  0  0  0  0  0  0
    7.3776  -15.9242   25.9608 C   0  0  0  0  0  0  0  0  0  0  0  0
    8.8311  -16.1057   25.5094 C   0  0  2  0  0  0  0  0  0  0  0  0
    8.7662  -16.5898   24.1471 N   0  0  0  0  0  0  0  0  0  0  0  0
    9.5373  -17.0078   26.4115 C   0  0  0  0  0  0  0  0  0  0  0  0
    9.8385  -16.6367   27.7068 O   0  0  0  0  0  0  0  0  0  0  0  0
    9.8849  -18.1447   26.0204 O   0  0  0  0  0  0  0  0  0  0  0  0
  1  5  1  0
  2  1  1  0
  2  3  1  0
  4  3  1  0
  5  6  1  1
  5  4  1  0
  6  7  2  0
  6  8  1  0
  8  9  1  0
  9 16  1  0
  9 10  1  6
 10 11  1  0
 11 15  1  0
 12 11  2  0
 12 13  1  0
 13 14  1  0
 15 14  2  0
 16 20  1  0
 16 17  2  0
 19 18  1  1
 19 21  1  0
 20 19  1  0
 21 22  1  0
 23 21  2  0
M  END
$$$$
