PHA.pdb
     RDKit          3D

 23 24  0  0  1  0  0  0  0  0999 V2000
    9.2268  -13.9330   19.5914 N   0  0  0  0  0  0  0  0  0  0  0  0
    8.6595  -13.0033   18.5984 C   0  0  0  0  0  0  0  0  0  0  0  0
    7.2952  -13.6347   18.3861 C   0  0  0  0  0  0  0  0  0  0  0  0
    6.8903  -14.0955   19.7709 C   0  0  0  0  0  0  0  0  0  0  0  0
    8.1761  -13.9834   20.5563 C   0  0  1  0  0  0  0  0  0  0  0  0
    8.3175  -15.1022   21.5427 C   0  0  0  0  0  0  0  0  0  0  0  0
    7.3380  -15.4205   22.2267 O   0  0  0  0  0  0  0  0  0  0  0  0
    9.5373  -15.7830   21.6948 N   0  0  0  0  0  0  0  0  0  0  0  0
    9.9087  -16.8285   22.5757 C   0  0  1  0  0  0  0  0  0  0  0  0
   11.2201  -17.5227   22.2579 C   0  0  0  0  0  0  0  0  0  0  0  0
   11.3009  -18.0375   20.8691 C   0  0  0  0  0  0  0  0  0  0  0  0
   10.4076  -18.9102   20.2897 C   0  0  0  0  0  0  0  0  0  0  0  0
   10.8589  -19.1717   19.0606 N   0  0  0  0  0  0  0  0  0  0  0  0
   11.9900  -18.5016   18.8513 C   0  0  0  0  0  0  0  0  0  0  0  0
   12.2635  -17.8056   19.9578 N   0  0  0  0  0  0  0  0  0  0  0  0
    9.7245  -16.6171   23.9940 C   0  0  0  0  0  0  0  0  0  0  0  0
   10.3107  -15.6937   24.6165 O   0  0  0  0  0  0  0  0  0  0  0  0
    7.1694  -17.5570   26.4156 C   0  0  0  0  0  0  0  0  0  0  0  0
    8.6325  -17.1821   26.1547 C   0  0  2  0  0  0  0  0  0  0  0  0
    8.8665  -17.4484   24.7516 N   0  0  0  0  0  0  0  0  0  0  0  0
    9.5171  -17.9290   27.0413 C   0  0  0  0  0  0  0  0  0  0  0  0
    9.5458  -17.6837   28.3997 O   0  0  0  0  0  0  0  0  0  0  0  0
   10.2720  -18.8135   26.5787 O   0  0  0  0  0  0  0  0  0  0  0  0
  1  5  1  0
  2  1  1  0
  2  3  1  0
  4  3  1  0
  5  6  1  1
  5  4  1  0
  6  7  2  0
  6  8  1  0
  8  9  1  0
  9 16  1  0
  9 10  1  1
 10 11  1  0
 11 15  1  0
 12 11  2  0
 12 13  1  0
 13 14  1  0
 15 14  2  0
 16 20  1  0
 16 17  2  0
 19 18  1  1
 19 21  1  0
 20 19  1  0
 21 22  1  0
 23 21  2  0
M  END
$$$$
