PHA.pdb
     RDKit          3D

 23 24  0  0  1  0  0  0  0  0999 V2000
    9.0108  -14.2937   18.0733 N   0  0  0  0  0  0  0  0  0  0  0  0
    8.5695  -13.3244   17.0545 C   0  0  0  0  0  0  0  0  0  0  0  0
    7.1345  -13.1019   17.4974 C   0  0  0  0  0  0  0  0  0  0  0  0
    7.2190  -13.0978   19.0096 C   0  0  0  0  0  0  0  0  0  0  0  0
    8.6048  -13.6381   19.2745 C   0  0  1  0  0  0  0  0  0  0  0  0
    8.6280  -14.5247   20.4819 C   0  0  0  0  0  0  0  0  0  0  0  0
    8.0755  -14.1356   21.5172 O   0  0  0  0  0  0  0  0  0  0  0  0
    9.2640  -15.7773   20.4479 N   0  0  0  0  0  0  0  0  0  0  0  0
    9.3784  -16.7831   21.4390 C   0  0  1  0  0  0  0  0  0  0  0  0
    9.7239  -18.1710   20.9318 C   0  0  0  0  0  0  0  0  0  0  0  0
    8.8930  -18.6105   19.7845 C   0  0  0  0  0  0  0  0  0  0  0  0
    7.5180  -18.5638   19.7324 C   0  0  0  0  0  0  0  0  0  0  0  0
    7.1533  -19.0984   18.5646 N   0  0  0  0  0  0  0  0  0  0  0  0
    8.2380  -19.4740   17.8904 C   0  0  0  0  0  0  0  0  0  0  0  0
    9.3058  -19.1763   18.6354 N   0  0  0  0  0  0  0  0  0  0  0  0
   10.0736  -16.4525   22.6627 C   0  0  0  0  0  0  0  0  0  0  0  0
   11.2556  -16.0204   22.6672 O   0  0  0  0  0  0  0  0  0  0  0  0
    9.0982  -15.5295   26.0176 C   0  0  0  0  0  0  0  0  0  0  0  0
   10.1395  -16.2305   25.1379 C   0  0  2  0  0  0  0  0  0  0  0  0
    9.4473  -16.6015   23.9224 N   0  0  0  0  0  0  0  0  0  0  0  0
   10.7217  -17.3667   25.8425 C   0  0  0  0  0  0  0  0  0  0  0  0
   11.5570  -17.1872   26.9271 O   0  0  0  0  0  0  0  0  0  0  0  0
   10.4701  -18.5347   25.4703 O   0  0  0  0  0  0  0  0  0  0  0  0
  1  5  1  0
  2  1  1  0
  2  3  1  0
  4  3  1  0
  5  6  1  1
  5  4  1  0
  6  7  2  0
  6  8  1  0
  8  9  1  0
  9 16  1  0
  9 10  1  6
 10 11  1  0
 11 15  1  0
 12 11  2  0
 12 13  1  0
 13 14  1  0
 15 14  2  0
 16 20  1  0
 16 17  2  0
 19 18  1  1
 19 21  1  0
 20 19  1  0
 21 22  1  0
 23 21  2  0
M  END
$$$$
