PHA.pdb
     RDKit          3D

 23 24  0  0  1  0  0  0  0  0999 V2000
    7.8515  -14.7732   18.2142 N   0  0  0  0  0  0  0  0  0  0  0  0
    7.7887  -13.4691   17.5304 C   0  0  0  0  0  0  0  0  0  0  0  0
    7.4235  -12.5695   18.6976 C   0  0  0  0  0  0  0  0  0  0  0  0
    8.2254  -13.1321   19.8527 C   0  0  0  0  0  0  0  0  0  0  0  0
    8.6977  -14.4653   19.3217 C   0  0  1  0  0  0  0  0  0  0  0  0
    8.6964  -15.5149   20.3908 C   0  0  0  0  0  0  0  0  0  0  0  0
    7.6318  -16.0772   20.6720 O   0  0  0  0  0  0  0  0  0  0  0  0
    9.8786  -15.8607   21.0670 N   0  0  0  0  0  0  0  0  0  0  0  0
   10.1194  -16.8311   22.0707 C   0  0  1  0  0  0  0  0  0  0  0  0
   11.2649  -17.7888   21.7995 C   0  0  0  0  0  0  0  0  0  0  0  0
   11.0871  -18.5976   20.5689 C   0  0  0  0  0  0  0  0  0  0  0  0
   10.0203  -19.4280   20.3084 C   0  0  0  0  0  0  0  0  0  0  0  0
   10.2603  -20.0147   19.1333 N   0  0  0  0  0  0  0  0  0  0  0  0
   11.4258  -19.5865   18.6534 C   0  0  0  0  0  0  0  0  0  0  0  0
   11.9349  -18.7179   19.5309 N   0  0  0  0  0  0  0  0  0  0  0  0
   10.0702  -16.4046   23.4512 C   0  0  0  0  0  0  0  0  0  0  0  0
   10.8741  -15.5580   23.9211 O   0  0  0  0  0  0  0  0  0  0  0  0
    7.5731  -16.5100   26.1164 C   0  0  0  0  0  0  0  0  0  0  0  0
    9.0530  -16.4778   25.7185 C   0  0  2  0  0  0  0  0  0  0  0  0
    9.1042  -16.9263   24.3434 N   0  0  0  0  0  0  0  0  0  0  0  0
    9.8439  -17.3009   26.6258 C   0  0  0  0  0  0  0  0  0  0  0  0
   10.0540  -16.9244   27.9375 O   0  0  0  0  0  0  0  0  0  0  0  0
   10.3499  -18.3728   26.2245 O   0  0  0  0  0  0  0  0  0  0  0  0
  1  5  1  0
  2  1  1  0
  2  3  1  0
  4  3  1  0
  5  6  1  1
  5  4  1  0
  6  7  2  0
  6  8  1  0
  8  9  1  0
  9 16  1  0
  9 10  1  6
 10 11  1  0
 11 15  1  0
 12 11  2  0
 12 13  1  0
 13 14  1  0
 15 14  2  0
 16 20  1  0
 16 17  2  0
 19 18  1  1
 19 21  1  0
 20 19  1  0
 21 22  1  0
 23 21  2  0
M  END
$$$$
