PHA.pdb
     RDKit          3D

 23 24  0  0  1  0  0  0  0  0999 V2000
    8.6615  -14.9394   19.9157 N   0  0  0  0  0  0  0  0  0  0  0  0
    8.5760  -14.3279   18.5774 C   0  0  0  0  0  0  0  0  0  0  0  0
    7.4351  -13.3511   18.7993 C   0  0  0  0  0  0  0  0  0  0  0  0
    7.6751  -12.8266   20.1997 C   0  0  0  0  0  0  0  0  0  0  0  0
    8.7106  -13.7805   20.7476 C   0  0  1  0  0  0  0  0  0  0  0  0
    8.4778  -14.0707   22.1989 C   0  0  0  0  0  0  0  0  0  0  0  0
    8.3718  -13.1234   22.9862 O   0  0  0  0  0  0  0  0  0  0  0  0
    8.3806  -15.3924   22.6661 N   0  0  0  0  0  0  0  0  0  0  0  0
    8.0980  -15.8973   23.9593 C   0  0  1  0  0  0  0  0  0  0  0  0
    7.6760  -17.3537   24.0199 C   0  0  0  0  0  0  0  0  0  0  0  0
    6.5198  -17.6762   23.1485 C   0  0  0  0  0  0  0  0  0  0  0  0
    6.5326  -17.6664   21.7718 C   0  0  0  0  0  0  0  0  0  0  0  0
    5.2929  -17.9539   21.3680 N   0  0  0  0  0  0  0  0  0  0  0  0
    4.5126  -18.1416   22.4301 C   0  0  0  0  0  0  0  0  0  0  0  0
    5.2616  -17.9721   23.5228 N   0  0  0  0  0  0  0  0  0  0  0  0
    8.9896  -15.5346   25.0379 C   0  0  0  0  0  0  0  0  0  0  0  0
   10.2150  -15.8207   25.0207 O   0  0  0  0  0  0  0  0  0  0  0  0
    8.9389  -13.1540   27.8042 C   0  0  0  0  0  0  0  0  0  0  0  0
    9.4118  -14.5076   27.2623 C   0  0  2  0  0  0  0  0  0  0  0  0
    8.5174  -14.8332   26.1722 N   0  0  0  0  0  0  0  0  0  0  0  0
    9.4199  -15.5079   28.3231 C   0  0  0  0  0  0  0  0  0  0  0  0
   10.3087  -15.4294   29.3768 O   0  0  0  0  0  0  0  0  0  0  0  0
    8.6123  -16.4634   28.2939 O   0  0  0  0  0  0  0  0  0  0  0  0
  1  5  1  0
  2  1  1  0
  2  3  1  0
  4  3  1  0
  5  6  1  1
  5  4  1  0
  6  7  2  0
  6  8  1  0
  8  9  1  0
  9 16  1  0
  9 10  1  6
 10 11  1  0
 11 15  1  0
 12 11  2  0
 12 13  1  0
 13 14  1  0
 15 14  2  0
 16 20  1  0
 16 17  2  0
 19 18  1  1
 19 21  1  0
 20 19  1  0
 21 22  1  0
 23 21  2  0
M  END
$$$$
