PHA.pdb
     RDKit          3D

 23 24  0  0  1  0  0  0  0  0999 V2000
    8.8319  -14.9340   20.2187 N   0  0  0  0  0  0  0  0  0  0  0  0
    8.8077  -14.2929   18.8918 C   0  0  0  0  0  0  0  0  0  0  0  0
    7.5868  -13.4034   19.0441 C   0  0  0  0  0  0  0  0  0  0  0  0
    7.6796  -12.9026   20.4705 C   0  0  0  0  0  0  0  0  0  0  0  0
    8.7342  -13.7980   21.0775 C   0  0  1  0  0  0  0  0  0  0  0  0
    8.4106  -14.1437   22.4989 C   0  0  0  0  0  0  0  0  0  0  0  0
    8.1376  -13.2307   23.2866 O   0  0  0  0  0  0  0  0  0  0  0  0
    8.4147  -15.4786   22.9380 N   0  0  0  0  0  0  0  0  0  0  0  0
    8.1720  -16.0307   24.2199 C   0  0  1  0  0  0  0  0  0  0  0  0
    7.8534  -17.5142   24.2483 C   0  0  0  0  0  0  0  0  0  0  0  0
    6.8350  -17.9245   23.2511 C   0  0  0  0  0  0  0  0  0  0  0  0
    6.0490  -17.0661   22.5156 C   0  0  0  0  0  0  0  0  0  0  0  0
    5.2285  -17.8210   21.7810 N   0  0  0  0  0  0  0  0  0  0  0  0
    5.4695  -19.1069   22.0267 C   0  0  0  0  0  0  0  0  0  0  0  0
    6.4536  -19.1736   22.9272 N   0  0  0  0  0  0  0  0  0  0  0  0
    9.0390  -15.6304   25.3053 C   0  0  0  0  0  0  0  0  0  0  0  0
   10.2811  -15.8319   25.2813 O   0  0  0  0  0  0  0  0  0  0  0  0
    8.6544  -13.4044   28.2262 C   0  0  0  0  0  0  0  0  0  0  0  0
    9.4084  -14.5247   27.5011 C   0  0  2  0  0  0  0  0  0  0  0  0
    8.5224  -14.9866   26.4542 N   0  0  0  0  0  0  0  0  0  0  0  0
    9.7917  -15.5730   28.4395 C   0  0  0  0  0  0  0  0  0  0  0  0
    9.3087  -16.8603   28.3139 O   0  0  0  0  0  0  0  0  0  0  0  0
   10.5731  -15.3184   29.3833 O   0  0  0  0  0  0  0  0  0  0  0  0
  1  5  1  0
  2  1  1  0
  2  3  1  0
  4  3  1  0
  5  6  1  1
  5  4  1  0
  6  7  2  0
  6  8  1  0
  8  9  1  0
  9 16  1  0
  9 10  1  6
 10 11  1  0
 11 15  1  0
 12 11  2  0
 12 13  1  0
 13 14  1  0
 15 14  2  0
 16 20  1  0
 16 17  2  0
 19 18  1  1
 19 21  1  0
 20 19  1  0
 21 22  1  0
 23 21  2  0
M  END
$$$$
