MYI.pdb
     RDKit          3D

 29 29  0  0  1  0  0  0  0  0999 V2000
    8.1287  -12.0696   19.2800 C   0  0  0  0  0  0  0  0  0  0  0  0
    8.6874  -13.0172   17.8295 S   0  0  0  0  0  0  0  0  0  0  0  0
    8.4936  -14.7951   18.1061 C   0  0  0  0  0  0  0  0  0  0  0  0
    8.0735  -15.0514   19.5229 C   0  0  0  0  0  0  0  0  0  0  0  0
    7.8608  -16.5179   19.7946 C   0  0  2  0  0  0  0  0  0  0  0  0
    6.7495  -16.9826   18.9859 N   0  0  0  0  0  0  0  0  0  0  0  0
    7.4880  -16.7158   21.2277 C   0  0  0  0  0  0  0  0  0  0  0  0
    6.2705  -16.7341   21.6036 O   0  0  0  0  0  0  0  0  0  0  0  0
    8.0925  -19.8231   29.4754 O   0  0  0  0  0  0  0  0  0  0  0  0
    8.1994  -19.5228   28.1291 C   0  0  0  0  0  0  0  0  0  0  0  0
    9.4215  -19.2891   27.5681 C   0  0  0  0  0  0  0  0  0  0  0  0
    9.5054  -18.9865   26.2008 C   0  0  0  0  0  0  0  0  0  0  0  0
    8.3842  -18.9203   25.4142 C   0  0  0  0  0  0  0  0  0  0  0  0
    8.4623  -18.6118   23.9945 C   0  0  0  0  0  0  0  0  0  0  0  0
    8.1266  -17.2089   23.6257 C   0  0  2  0  0  0  0  0  0  0  0  0
    8.4580  -16.8939   22.2502 N   0  0  0  0  0  0  0  0  0  0  0  0
    8.6589  -16.1683   24.5347 C   0  0  0  0  0  0  0  0  0  0  0  0
    9.8914  -15.8300   24.4577 O   0  0  0  0  0  0  0  0  0  0  0  0
    7.1675  -19.1609   26.0094 C   0  0  0  0  0  0  0  0  0  0  0  0
    7.0700  -19.4632   27.3695 C   0  0  0  0  0  0  0  0  0  0  0  0
    5.8760  -11.8463   26.0395 C   0  0  0  0  0  0  0  0  0  0  0  0
    6.9274  -12.8835   25.6794 C   0  0  0  0  0  0  0  0  0  0  0  0
    7.5195  -13.5169   26.8900 C   0  0  2  0  0  0  0  0  0  0  0  0
    8.0642  -12.5443   27.8826 C   0  0  0  0  0  0  0  0  0  0  0  0
    8.5201  -14.5717   26.4979 C   0  0  2  0  0  0  0  0  0  0  0  0
    7.9164  -15.4851   25.5103 N   0  0  0  0  0  0  0  0  0  0  0  0
    9.1282  -15.3026   27.6039 C   0  0  0  0  0  0  0  0  0  0  0  0
    8.5697  -16.2973   28.1143 O   0  0  0  0  0  0  0  0  0  0  0  0
   10.3598  -14.9544   28.1675 O   0  0  0  0  0  0  0  0  0  0  0  0
  2  1  1  0
  3  2  1  0
  4  3  1  0
  4  5  1  0
  5  7  1  0
  5  6  1  6
  7  8  2  0
  9 10  1  0
 10 20  2  0
 10 11  1  0
 11 12  2  0
 12 13  1  0
 13 14  1  0
 15 14  1  1
 16 15  1  0
 16  7  1  0
 17 15  1  0
 18 17  2  0
 19 13  2  0
 20 19  1  0
 22 21  1  0
 23 24  1  1
 23 22  1  0
 25 23  1  0
 25 26  1  6
 26 17  1  0
 27 29  1  0
 27 25  1  0
 28 27  2  0
M  END
$$$$
