MYI.pdb
     RDKit          3D

 29 29  0  0  1  0  0  0  0  0999 V2000
    8.5626  -12.6941   17.9985 C   0  0  0  0  0  0  0  0  0  0  0  0
    8.0858  -12.2630   19.7015 S   0  0  0  0  0  0  0  0  0  0  0  0
    7.3278  -13.6778   20.5375 C   0  0  0  0  0  0  0  0  0  0  0  0
    6.8882  -14.6958   19.5274 C   0  0  0  0  0  0  0  0  0  0  0  0
    7.4718  -16.0569   19.8034 C   0  0  2  0  0  0  0  0  0  0  0  0
    6.7900  -17.0309   18.9720 N   0  0  0  0  0  0  0  0  0  0  0  0
    7.2255  -16.4311   21.2286 C   0  0  0  0  0  0  0  0  0  0  0  0
    6.0545  -16.4107   21.7306 O   0  0  0  0  0  0  0  0  0  0  0  0
    7.9663  -20.0275   29.2301 O   0  0  0  0  0  0  0  0  0  0  0  0
    8.1071  -19.6638   27.9027 C   0  0  0  0  0  0  0  0  0  0  0  0
    9.3388  -19.3698   27.3936 C   0  0  0  0  0  0  0  0  0  0  0  0
    9.4571  -19.0034   26.0446 C   0  0  0  0  0  0  0  0  0  0  0  0
    8.3601  -18.9343   25.2247 C   0  0  0  0  0  0  0  0  0  0  0  0
    8.4743  -18.5598   23.8234 C   0  0  0  0  0  0  0  0  0  0  0  0
    8.0668  -17.1649   23.4992 C   0  0  2  0  0  0  0  0  0  0  0  0
    8.2713  -16.8287   22.1041 N   0  0  0  0  0  0  0  0  0  0  0  0
    8.6425  -16.1159   24.3712 C   0  0  0  0  0  0  0  0  0  0  0  0
    9.8478  -15.7268   24.1833 O   0  0  0  0  0  0  0  0  0  0  0  0
    7.1329  -19.2365   25.7679 C   0  0  0  0  0  0  0  0  0  0  0  0
    7.0012  -19.6026   27.1092 C   0  0  0  0  0  0  0  0  0  0  0  0
    5.6990  -12.0091   26.0611 C   0  0  0  0  0  0  0  0  0  0  0  0
    6.8254  -12.9281   25.6165 C   0  0  0  0  0  0  0  0  0  0  0  0
    7.5748  -13.4880   26.7752 C   0  0  2  0  0  0  0  0  0  0  0  0
    8.1413  -12.4551   27.6917 C   0  0  0  0  0  0  0  0  0  0  0  0
    8.6059  -14.4805   26.3069 C   0  0  2  0  0  0  0  0  0  0  0  0
    7.9706  -15.4766   25.4247 N   0  0  0  0  0  0  0  0  0  0  0  0
    9.3883  -15.1174   27.3602 C   0  0  0  0  0  0  0  0  0  0  0  0
    8.9598  -16.1152   27.9789 O   0  0  0  0  0  0  0  0  0  0  0  0
   10.6544  -14.6703   27.7513 O   0  0  0  0  0  0  0  0  0  0  0  0
  2  1  1  0
  3  2  1  0
  4  3  1  0
  4  5  1  0
  5  7  1  0
  5  6  1  6
  7  8  2  0
  9 10  1  0
 10 20  2  0
 10 11  1  0
 11 12  2  0
 12 13  1  0
 13 14  1  0
 15 14  1  1
 16 15  1  0
 16  7  1  0
 17 15  1  0
 18 17  2  0
 19 13  2  0
 20 19  1  0
 22 21  1  0
 23 24  1  6
 23 22  1  0
 25 23  1  0
 25 26  1  1
 26 17  1  0
 27 29  1  0
 27 25  1  0
 28 27  2  0
M  END
$$$$
