MYI.pdb
     RDKit          3D

 29 29  0  0  1  0  0  0  0  0999 V2000
    8.7815  -12.0347   19.9109 C   0  0  0  0  0  0  0  0  0  0  0  0
    8.0229  -12.7057   18.3983 S   0  0  0  0  0  0  0  0  0  0  0  0
    7.9779  -14.5142   18.4460 C   0  0  0  0  0  0  0  0  0  0  0  0
    7.5226  -14.9808   19.7968 C   0  0  0  0  0  0  0  0  0  0  0  0
    7.6705  -16.4710   19.9613 C   0  0  2  0  0  0  0  0  0  0  0  0
    6.6873  -17.1298   19.1222 N   0  0  0  0  0  0  0  0  0  0  0  0
    7.3821  -16.8527   21.3766 C   0  0  0  0  0  0  0  0  0  0  0  0
    6.1896  -17.0287   21.7901 O   0  0  0  0  0  0  0  0  0  0  0  0
    8.0073  -19.8796   29.6101 O   0  0  0  0  0  0  0  0  0  0  0  0
    8.1544  -19.5869   28.2660 C   0  0  0  0  0  0  0  0  0  0  0  0
    9.3919  -19.3483   27.7420 C   0  0  0  0  0  0  0  0  0  0  0  0
    9.5166  -19.0536   26.3762 C   0  0  0  0  0  0  0  0  0  0  0  0
    8.4201  -18.9999   25.5544 C   0  0  0  0  0  0  0  0  0  0  0  0
    8.5408  -18.6995   24.1359 C   0  0  0  0  0  0  0  0  0  0  0  0
    8.1563  -17.3165   23.7403 C   0  0  2  0  0  0  0  0  0  0  0  0
    8.4092  -17.0410   22.3399 N   0  0  0  0  0  0  0  0  0  0  0  0
    8.7123  -16.2360   24.5862 C   0  0  0  0  0  0  0  0  0  0  0  0
    9.9489  -15.9214   24.4804 O   0  0  0  0  0  0  0  0  0  0  0  0
    7.1870  -19.2451   26.1128 C   0  0  0  0  0  0  0  0  0  0  0  0
    7.0490  -19.5396   27.4710 C   0  0  0  0  0  0  0  0  0  0  0  0
    6.1892  -11.6882   25.4494 C   0  0  0  0  0  0  0  0  0  0  0  0
    7.2173  -12.7970   25.2929 C   0  0  0  0  0  0  0  0  0  0  0  0
    7.6634  -13.3301   26.6098 C   0  0  2  0  0  0  0  0  0  0  0  0
    8.2034  -12.2921   27.5365 C   0  0  0  0  0  0  0  0  0  0  0  0
    8.6067  -14.4881   26.4182 C   0  0  2  0  0  0  0  0  0  0  0  0
    7.9890  -15.4890   25.5289 N   0  0  0  0  0  0  0  0  0  0  0  0
    9.1105  -15.0971   27.6440 C   0  0  0  0  0  0  0  0  0  0  0  0
   10.1613  -14.6953   28.1883 O   0  0  0  0  0  0  0  0  0  0  0  0
    8.4688  -16.1566   28.2933 O   0  0  0  0  0  0  0  0  0  0  0  0
  2  1  1  0
  3  2  1  0
  4  3  1  0
  4  5  1  0
  5  7  1  0
  5  6  1  6
  7  8  2  0
  9 10  1  0
 10 20  2  0
 10 11  1  0
 11 12  2  0
 12 13  1  0
 13 14  1  0
 15 14  1  1
 16 15  1  0
 16  7  1  0
 17 15  1  0
 18 17  2  0
 19 13  2  0
 20 19  1  0
 22 21  1  0
 23 24  1  6
 23 22  1  0
 25 23  1  0
 25 26  1  1
 26 17  1  0
 27 29  1  0
 27 25  1  0
 28 27  2  0
M  END
$$$$
