MYI.pdb
     RDKit          3D

 29 29  0  0  1  0  0  0  0  0999 V2000
    6.7639  -13.4313   21.1608 C   0  0  0  0  0  0  0  0  0  0  0  0
    5.9661  -14.4897   22.4086 S   0  0  0  0  0  0  0  0  0  0  0  0
    5.3674  -16.0267   21.6640 C   0  0  0  0  0  0  0  0  0  0  0  0
    6.0693  -17.2017   22.2775 C   0  0  0  0  0  0  0  0  0  0  0  0
    7.1236  -17.7720   21.3649 C   0  0  2  0  0  0  0  0  0  0  0  0
    6.9888  -19.2164   21.3467 N   0  0  0  0  0  0  0  0  0  0  0  0
    8.4807  -17.4536   21.9022 C   0  0  0  0  0  0  0  0  0  0  0  0
    9.2423  -18.3615   22.3708 O   0  0  0  0  0  0  0  0  0  0  0  0
    8.7457  -13.9456   16.4551 O   0  0  0  0  0  0  0  0  0  0  0  0
    9.2861  -14.1200   17.7166 C   0  0  0  0  0  0  0  0  0  0  0  0
    9.0876  -13.1831   18.6891 C   0  0  0  0  0  0  0  0  0  0  0  0
    9.6453  -13.3815   19.9610 C   0  0  0  0  0  0  0  0  0  0  0  0
   10.3869  -14.4983   20.2491 C   0  0  0  0  0  0  0  0  0  0  0  0
   10.9650  -14.7143   21.5666 C   0  0  0  0  0  0  0  0  0  0  0  0
   10.3416  -15.8037   22.3676 C   0  0  2  0  0  0  0  0  0  0  0  0
    9.0012  -16.1319   21.9242 N   0  0  0  0  0  0  0  0  0  0  0  0
   10.3645  -15.6063   23.8349 C   0  0  0  0  0  0  0  0  0  0  0  0
   11.4855  -15.5791   24.4530 O   0  0  0  0  0  0  0  0  0  0  0  0
   10.5688  -15.4238   19.2476 C   0  0  0  0  0  0  0  0  0  0  0  0
   10.0191  -15.2385   17.9771 C   0  0  0  0  0  0  0  0  0  0  0  0
    6.2765  -13.0533   26.8338 C   0  0  0  0  0  0  0  0  0  0  0  0
    7.0893  -14.2110   26.2769 C   0  0  0  0  0  0  0  0  0  0  0  0
    8.5478  -14.0317   26.5179 C   0  0  2  0  0  0  0  0  0  0  0  0
    9.1152  -12.7853   25.9242 C   0  0  0  0  0  0  0  0  0  0  0  0
    9.3057  -15.2681   26.1123 C   0  0  2  0  0  0  0  0  0  0  0  0
    9.2342  -15.4358   24.6492 N   0  0  0  0  0  0  0  0  0  0  0  0
    8.9314  -16.4918   26.8121 C   0  0  0  0  0  0  0  0  0  0  0  0
    9.0404  -16.5935   28.0529 O   0  0  0  0  0  0  0  0  0  0  0  0
    8.4305  -17.6240   26.1616 O   0  0  0  0  0  0  0  0  0  0  0  0
  2  1  1  0
  3  2  1  0
  4  3  1  0
  4  5  1  0
  5  7  1  0
  5  6  1  1
  7  8  2  0
  9 10  1  0
 10 20  2  0
 10 11  1  0
 11 12  2  0
 12 13  1  0
 13 14  1  0
 15 14  1  6
 16 15  1  0
 16  7  1  0
 17 15  1  0
 18 17  2  0
 19 13  2  0
 20 19  1  0
 22 21  1  0
 23 24  1  6
 23 22  1  0
 25 23  1  0
 25 26  1  6
 26 17  1  0
 27 29  1  0
 27 25  1  0
 28 27  2  0
M  END
$$$$
