DKA.pdb
     RDKit          3D

 23 22  0  0  1  0  0  0  0  0999 V2000
   10.7051  -18.1513   21.6066 N   0  0  0  0  0  0  0  0  0  0  0  0
   10.8005  -16.7223   21.5666 C   0  0  1  0  0  0  0  0  0  0  0  0
   10.3302  -16.1972   20.2199 C   0  0  0  0  0  0  0  0  0  0  0  0
   11.2177  -16.6927   19.1407 C   0  0  0  0  0  0  0  0  0  0  0  0
   12.4666  -16.5965   19.2335 O   0  0  0  0  0  0  0  0  0  0  0  0
   10.0040  -16.1642   22.6718 C   0  0  0  0  0  0  0  0  0  0  0  0
    9.8079  -14.9055   22.7851 O   0  0  0  0  0  0  0  0  0  0  0  0
   10.6990  -17.2773   17.9963 O   0  0  0  0  0  0  0  0  0  0  0  0
    9.4354  -17.0293   23.6395 N   0  0  0  0  0  0  0  0  0  0  0  0
    8.6637  -16.5228   24.7314 C   0  0  1  0  0  0  0  0  0  0  0  0
    7.9138  -17.7141   25.3402 C   0  0  0  0  0  0  0  0  0  0  0  0
    6.7620  -18.0738   24.4231 C   0  0  0  0  0  0  0  0  0  0  0  0
    6.8350  -19.5488   24.1499 C   0  0  0  0  0  0  0  0  0  0  0  0
    5.7289  -19.8896   23.1730 C   0  0  0  0  0  0  0  0  0  0  0  0
    5.7738  -21.2866   22.8290 N   0  0  0  0  0  0  0  0  0  0  0  0
    9.5782  -16.0316   25.7903 C   0  0  0  0  0  0  0  0  0  0  0  0
   10.7064  -16.5336   25.9442 O   0  0  0  0  0  0  0  0  0  0  0  0
    9.3927  -13.1617   28.1915 C   0  0  0  0  0  0  0  0  0  0  0  0
    9.9686  -14.4942   27.7399 C   0  0  2  0  0  0  0  0  0  0  0  0
    9.1457  -14.9691   26.6364 N   0  0  0  0  0  0  0  0  0  0  0  0
    9.9094  -15.4690   28.8511 C   0  0  0  0  0  0  0  0  0  0  0  0
    9.0879  -16.5888   28.7746 O   0  0  0  0  0  0  0  0  0  0  0  0
   10.6117  -15.2834   29.8801 O   0  0  0  0  0  0  0  0  0  0  0  0
  2  1  1  6
  2  6  1  0
  3  2  1  0
  3  4  1  0
  4  8  1  0
  5  4  2  0
  6  7  2  0
  9 10  1  0
  9  6  1  0
 10 16  1  0
 10 11  1  1
 12 11  1  0
 12 13  1  0
 13 14  1  0
 14 15  1  0
 16 17  2  0
 16 20  1  0
 19 18  1  1
 19 21  1  0
 20 19  1  0
 21 23  2  0
 21 22  1  0
M  END
$$$$
