DKA.pdb
     RDKit          3D

 23 22  0  0  1  0  0  0  0  0999 V2000
   10.0171  -16.7308   20.2176 N   0  0  0  0  0  0  0  0  0  0  0  0
   10.7300  -16.8546   21.4542 C   0  0  1  0  0  0  0  0  0  0  0  0
   12.0211  -16.0540   21.4041 C   0  0  0  0  0  0  0  0  0  0  0  0
   13.0309  -16.7650   20.5839 C   0  0  0  0  0  0  0  0  0  0  0  0
   12.8649  -17.9637   20.2473 O   0  0  0  0  0  0  0  0  0  0  0  0
    9.8570  -16.4032   22.5504 C   0  0  0  0  0  0  0  0  0  0  0  0
    9.1444  -15.3465   22.4453 O   0  0  0  0  0  0  0  0  0  0  0  0
   14.1890  -16.1311   20.1624 O   0  0  0  0  0  0  0  0  0  0  0  0
    9.7949  -17.1465   23.7553 N   0  0  0  0  0  0  0  0  0  0  0  0
    8.8962  -16.7875   24.8078 C   0  0  1  0  0  0  0  0  0  0  0  0
    8.3770  -18.0951   25.4184 C   0  0  0  0  0  0  0  0  0  0  0  0
    7.3545  -18.6922   24.4723 C   0  0  0  0  0  0  0  0  0  0  0  0
    6.9043  -20.0034   25.0498 C   0  0  0  0  0  0  0  0  0  0  0  0
    5.8673  -20.5857   24.1119 C   0  0  0  0  0  0  0  0  0  0  0  0
    5.4562  -21.8894   24.5630 N   0  0  0  0  0  0  0  0  0  0  0  0
    9.6527  -16.1056   25.8856 C   0  0  0  0  0  0  0  0  0  0  0  0
   10.7895  -16.4924   26.2121 O   0  0  0  0  0  0  0  0  0  0  0  0
    8.9302  -13.0413   27.9340 C   0  0  0  0  0  0  0  0  0  0  0  0
    9.7584  -14.2717   27.6010 C   0  0  2  0  0  0  0  0  0  0  0  0
    9.0571  -14.9930   26.5481 N   0  0  0  0  0  0  0  0  0  0  0  0
    9.8743  -15.1370   28.7952 C   0  0  0  0  0  0  0  0  0  0  0  0
    9.2514  -16.3800   28.8387 O   0  0  0  0  0  0  0  0  0  0  0  0
   10.5454  -14.7440   29.7860 O   0  0  0  0  0  0  0  0  0  0  0  0
  2  1  1  6
  2  6  1  0
  3  2  1  0
  3  4  1  0
  4  8  1  0
  5  4  2  0
  6  7  2  0
  9 10  1  0
  9  6  1  0
 10 16  1  0
 10 11  1  1
 12 11  1  0
 12 13  1  0
 13 14  1  0
 14 15  1  0
 16 17  2  0
 16 20  1  0
 19 18  1  1
 19 21  1  0
 20 19  1  0
 21 23  2  0
 21 22  1  0
M  END
$$$$
