DKA.pdb
     RDKit          3D

 23 22  0  0  1  0  0  0  0  0999 V2000
   10.9548  -16.7207   18.3394 N   0  0  0  0  0  0  0  0  0  0  0  0
   11.3997  -17.1253   19.6397 C   0  0  1  0  0  0  0  0  0  0  0  0
   12.5924  -16.2897   20.0756 C   0  0  0  0  0  0  0  0  0  0  0  0
   13.7870  -16.6487   19.2745 C   0  0  0  0  0  0  0  0  0  0  0  0
   13.7683  -17.6257   18.4853 O   0  0  0  0  0  0  0  0  0  0  0  0
   10.2775  -16.9981   20.5842 C   0  0  0  0  0  0  0  0  0  0  0  0
    9.6738  -15.8842   20.7586 O   0  0  0  0  0  0  0  0  0  0  0  0
   14.9615  -15.9193   19.3703 O   0  0  0  0  0  0  0  0  0  0  0  0
    9.8455  -18.1271   21.3236 N   0  0  0  0  0  0  0  0  0  0  0  0
    8.7007  -18.0660   22.1779 C   0  0  1  0  0  0  0  0  0  0  0  0
    8.1882  -19.5020   22.3430 C   0  0  0  0  0  0  0  0  0  0  0  0
    6.9980  -19.4804   23.2812 C   0  0  0  0  0  0  0  0  0  0  0  0
    6.5220  -20.8945   23.4528 C   0  0  0  0  0  0  0  0  0  0  0  0
    5.3001  -20.8617   24.3472 C   0  0  0  0  0  0  0  0  0  0  0  0
    4.8293  -22.1973   24.6053 N   0  0  0  0  0  0  0  0  0  0  0  0
    9.1220  -17.6248   23.5295 C   0  0  0  0  0  0  0  0  0  0  0  0
   10.0795  -18.1679   24.1097 O   0  0  0  0  0  0  0  0  0  0  0  0
    7.9969  -14.7842   25.7135 C   0  0  0  0  0  0  0  0  0  0  0  0
    8.8340  -16.0247   25.4461 C   0  0  2  0  0  0  0  0  0  0  0  0
    8.4112  -16.5627   24.1607 N   0  0  0  0  0  0  0  0  0  0  0  0
    8.5917  -17.0311   26.5030 C   0  0  0  0  0  0  0  0  0  0  0  0
    9.3432  -17.0314   27.6734 O   0  0  0  0  0  0  0  0  0  0  0  0
    7.6934  -17.8992   26.3417 O   0  0  0  0  0  0  0  0  0  0  0  0
  2  1  1  6
  2  6  1  0
  3  2  1  0
  3  4  1  0
  4  8  1  0
  5  4  2  0
  6  7  2  0
  9 10  1  0
  9  6  1  0
 10 16  1  0
 10 11  1  1
 12 11  1  0
 12 13  1  0
 13 14  1  0
 14 15  1  0
 16 17  2  0
 16 20  1  0
 19 18  1  1
 19 21  1  0
 20 19  1  0
 21 23  2  0
 21 22  1  0
M  END
$$$$
