DKA.pdb
     RDKit          3D

 23 22  0  0  1  0  0  0  0  0999 V2000
    9.2620  -19.1785   18.4807 N   0  0  0  0  0  0  0  0  0  0  0  0
    9.5879  -17.7974   18.2839 C   0  0  1  0  0  0  0  0  0  0  0  0
    9.2943  -17.3824   16.8513 C   0  0  0  0  0  0  0  0  0  0  0  0
   10.3246  -17.9339   15.9391 C   0  0  0  0  0  0  0  0  0  0  0  0
   10.8077  -19.0786   16.1236 O   0  0  0  0  0  0  0  0  0  0  0  0
    8.8227  -16.9891   19.2476 C   0  0  0  0  0  0  0  0  0  0  0  0
    8.8584  -15.7109   19.2249 O   0  0  0  0  0  0  0  0  0  0  0  0
   10.7874  -17.2056   14.8547 O   0  0  0  0  0  0  0  0  0  0  0  0
    8.0241  -17.6283   20.2282 N   0  0  0  0  0  0  0  0  0  0  0  0
    7.2048  -16.8778   21.1282 C   0  0  1  0  0  0  0  0  0  0  0  0
    6.2159  -17.8642   21.7616 C   0  0  0  0  0  0  0  0  0  0  0  0
    5.0685  -18.0788   20.7948 C   0  0  0  0  0  0  0  0  0  0  0  0
    4.1696  -19.1330   21.3746 C   0  0  0  0  0  0  0  0  0  0  0  0
    3.0674  -19.3988   20.3703 C   0  0  0  0  0  0  0  0  0  0  0  0
    2.1555  -20.3917   20.8749 N   0  0  0  0  0  0  0  0  0  0  0  0
    8.0413  -16.3671   22.2410 C   0  0  0  0  0  0  0  0  0  0  0  0
    9.0498  -16.9895   22.6205 O   0  0  0  0  0  0  0  0  0  0  0  0
    7.8968  -13.2289   24.2984 C   0  0  0  0  0  0  0  0  0  0  0  0
    8.4095  -14.6333   24.0229 C   0  0  2  0  0  0  0  0  0  0  0  0
    7.6731  -15.1450   22.8755 N   0  0  0  0  0  0  0  0  0  0  0  0
    8.1553  -15.4993   25.1950 C   0  0  0  0  0  0  0  0  0  0  0  0
    9.0656  -15.5640   26.2448 O   0  0  0  0  0  0  0  0  0  0  0  0
    7.1014  -16.1872   25.2439 O   0  0  0  0  0  0  0  0  0  0  0  0
  2  1  1  6
  2  6  1  0
  3  2  1  0
  3  4  1  0
  4  8  1  0
  5  4  2  0
  6  7  2  0
  9 10  1  0
  9  6  1  0
 10 16  1  0
 10 11  1  1
 12 11  1  0
 12 13  1  0
 13 14  1  0
 14 15  1  0
 16 17  2  0
 16 20  1  0
 19 18  1  1
 19 21  1  0
 20 19  1  0
 21 23  2  0
 21 22  1  0
M  END
$$$$
