DKA.pdb
     RDKit          3D

 23 22  0  0  1  0  0  0  0  0999 V2000
   11.5362  -19.7511   18.1149 N   0  0  0  0  0  0  0  0  0  0  0  0
   11.8409  -18.4114   18.5211 C   0  0  1  0  0  0  0  0  0  0  0  0
   11.8053  -17.4738   17.3251 C   0  0  0  0  0  0  0  0  0  0  0  0
   13.1443  -17.4024   16.6927 C   0  0  0  0  0  0  0  0  0  0  0  0
   14.0157  -18.2780   16.9198 O   0  0  0  0  0  0  0  0  0  0  0  0
   10.8790  -18.0011   19.5573 C   0  0  0  0  0  0  0  0  0  0  0  0
   10.9374  -16.8464   20.1039 O   0  0  0  0  0  0  0  0  0  0  0  0
   13.4775  -16.3687   15.8319 O   0  0  0  0  0  0  0  0  0  0  0  0
    9.8598  -18.8957   19.9685 N   0  0  0  0  0  0  0  0  0  0  0  0
    8.9809  -18.5787   21.0507 C   0  0  1  0  0  0  0  0  0  0  0  0
    8.0441  -19.7793   21.2330 C   0  0  0  0  0  0  0  0  0  0  0  0
    7.0734  -19.4631   22.3533 C   0  0  0  0  0  0  0  0  0  0  0  0
    6.0966  -20.5997   22.4498 C   0  0  0  0  0  0  0  0  0  0  0  0
    5.0416  -20.2128   23.4653 C   0  0  0  0  0  0  0  0  0  0  0  0
    4.0325  -21.2352   23.5573 N   0  0  0  0  0  0  0  0  0  0  0  0
    9.7656  -18.4790   22.3050 C   0  0  0  0  0  0  0  0  0  0  0  0
   10.6673  -19.2971   22.5617 O   0  0  0  0  0  0  0  0  0  0  0  0
    9.8381  -15.9222   25.0503 C   0  0  0  0  0  0  0  0  0  0  0  0
   10.2097  -17.2757   24.4665 C   0  0  2  0  0  0  0  0  0  0  0  0
    9.4719  -17.4262   23.2201 N   0  0  0  0  0  0  0  0  0  0  0  0
    9.8160  -18.3514   25.4027 C   0  0  0  0  0  0  0  0  0  0  0  0
    8.5878  -18.9921   25.2772 O   0  0  0  0  0  0  0  0  0  0  0  0
   10.6025  -18.6920   26.3257 O   0  0  0  0  0  0  0  0  0  0  0  0
  2  1  1  6
  2  6  1  0
  3  2  1  0
  3  4  1  0
  4  8  1  0
  5  4  2  0
  6  7  2  0
  9 10  1  0
  9  6  1  0
 10 16  1  0
 10 11  1  1
 12 11  1  0
 12 13  1  0
 13 14  1  0
 14 15  1  0
 16 17  2  0
 16 20  1  0
 19 18  1  1
 19 21  1  0
 20 19  1  0
 21 23  2  0
 21 22  1  0
M  END
$$$$
