WPR.pdb
     RDKit          3D

 33 35  0  0  1  0  0  0  0  0999 V2000
    5.8837  -17.6052   23.7106 N   0  0  0  0  0  0  0  0  0  0  0  0
    6.5766  -16.3967   23.3912 C   0  0  1  0  0  0  0  0  0  0  0  0
    7.4564  -16.0502   24.5719 C   0  0  0  0  0  0  0  0  0  0  0  0
    6.8406  -15.1143   25.5197 C   0  0  0  0  0  0  0  0  0  0  0  0
    5.7603  -15.3994   26.3271 C   0  0  0  0  0  0  0  0  0  0  0  0
    5.4531  -14.3136   27.0747 N   0  0  0  0  0  0  0  0  0  0  0  0
    6.3196  -13.3052   26.7734 C   0  0  0  0  0  0  0  0  0  0  0  0
    6.4196  -12.0212   27.2571 C   0  0  0  0  0  0  0  0  0  0  0  0
    7.4051  -11.1959   26.7717 C   0  0  0  0  0  0  0  0  0  0  0  0
    8.2622  -11.6993   25.8072 C   0  0  0  0  0  0  0  0  0  0  0  0
    8.1592  -12.9867   25.3246 C   0  0  0  0  0  0  0  0  0  0  0  0
    7.1800  -13.8129   25.8041 C   0  0  0  0  0  0  0  0  0  0  0  0
    7.3431  -16.4502   22.1248 C   0  0  0  0  0  0  0  0  0  0  0  0
    7.5032  -17.6200   21.6363 O   0  0  0  0  0  0  0  0  0  0  0  0
    7.8823  -15.3270   21.4588 N   0  0  0  0  0  0  0  0  0  0  0  0
    7.7023  -13.9549   21.8793 C   0  0  0  0  0  0  0  0  0  0  0  0
    8.2428  -13.1025   20.7446 C   0  0  0  0  0  0  0  0  0  0  0  0
    8.4071  -14.0337   19.5756 C   0  0  0  0  0  0  0  0  0  0  0  0
    8.6812  -15.3664   20.2860 C   0  0  1  0  0  0  0  0  0  0  0  0
   10.1439  -15.3791   20.5606 C   0  0  0  0  0  0  0  0  0  0  0  0
   10.5477  -14.5768   21.4333 O   0  0  0  0  0  0  0  0  0  0  0  0
   10.3575  -22.0267   23.9937 N   0  0  0  0  0  0  0  0  0  0  0  0
   11.1176  -20.8969   24.4582 C   0  0  0  0  0  0  0  0  0  0  0  0
   10.7787  -20.3187   25.5530 N   0  0  0  0  0  0  0  0  0  0  0  0
   12.2253  -20.4062   23.7420 N   0  0  0  0  0  0  0  0  0  0  0  0
   12.2718  -20.4288   22.2483 C   0  0  0  0  0  0  0  0  0  0  0  0
   12.7141  -19.1278   21.7329 C   0  0  0  0  0  0  0  0  0  0  0  0
   11.8689  -18.1864   21.0425 C   0  0  0  0  0  0  0  0  0  0  0  0
   12.2251  -16.8578   20.5597 C   0  0  2  0  0  0  0  0  0  0  0  0
   11.0407  -16.2353   19.8903 N   0  0  0  0  0  0  0  0  0  0  0  0
   13.3483  -16.8046   19.6064 C   0  0  0  0  0  0  0  0  0  0  0  0
   14.6502  -17.0203   20.1485 O   0  0  0  0  0  0  0  0  0  0  0  0
   13.3126  -16.6001   18.4014 O   0  0  0  0  0  0  0  0  0  0  0  0
  2  3  1  0
  2  1  1  1
  4  3  1  0
  5  4  2  0
  6  5  1  0
  7  6  1  0
  7 12  2  0
  8  7  1  0
  9  8  2  0
  9 10  1  0
 10 11  2  0
 11 12  1  0
 12  4  1  0
 13  2  1  0
 14 13  2  0
 15 13  1  0
 15 16  1  0
 17 16  1  0
 18 17  1  0
 19 18  1  0
 19 15  1  0
 20 21  2  0
 19 20  1  1
 23 22  1  0
 23 25  1  0
 24 23  2  0
 25 26  1  0
 26 27  1  0
 28 27  1  0
 29 28  1  6
 29 30  1  0
 30 20  1  0
 31 32  1  0
 31 29  1  0
 33 31  2  0
M  END
$$$$
