WPR.pdb
     RDKit          3D

 33 35  0  0  1  0  0  0  0  0999 V2000
    6.4382  -17.7363   24.3876 N   0  0  0  0  0  0  0  0  0  0  0  0
    6.7036  -16.4908   23.7388 C   0  0  1  0  0  0  0  0  0  0  0  0
    7.5548  -15.6617   24.6749 C   0  0  0  0  0  0  0  0  0  0  0  0
    6.7855  -14.7538   25.5336 C   0  0  0  0  0  0  0  0  0  0  0  0
    5.4769  -14.9476   25.9214 C   0  0  0  0  0  0  0  0  0  0  0  0
    5.0799  -13.9209   26.7090 N   0  0  0  0  0  0  0  0  0  0  0  0
    6.1128  -13.0424   26.8506 C   0  0  0  0  0  0  0  0  0  0  0  0
    6.2069  -11.8585   27.5448 C   0  0  0  0  0  0  0  0  0  0  0  0
    7.3884  -11.1575   27.5193 C   0  0  0  0  0  0  0  0  0  0  0  0
    8.4422  -11.6801   26.7881 C   0  0  0  0  0  0  0  0  0  0  0  0
    8.3444  -12.8671   26.0934 C   0  0  0  0  0  0  0  0  0  0  0  0
    7.1706  -13.5693   26.1152 C   0  0  0  0  0  0  0  0  0  0  0  0
    7.3192  -16.6214   22.3979 C   0  0  0  0  0  0  0  0  0  0  0  0
    7.3545  -17.8099   21.9301 O   0  0  0  0  0  0  0  0  0  0  0  0
    7.8459  -15.5496   21.6430 N   0  0  0  0  0  0  0  0  0  0  0  0
    7.7826  -14.1581   22.0324 C   0  0  0  0  0  0  0  0  0  0  0  0
    8.2483  -13.3701   20.8205 C   0  0  0  0  0  0  0  0  0  0  0  0
    8.2428  -14.3421   19.6735 C   0  0  0  0  0  0  0  0  0  0  0  0
    8.5175  -15.6672   20.3978 C   0  0  1  0  0  0  0  0  0  0  0  0
    9.9978  -15.7538   20.5242 C   0  0  0  0  0  0  0  0  0  0  0  0
   10.5333  -14.9334   21.3042 O   0  0  0  0  0  0  0  0  0  0  0  0
    8.4399  -22.2075   21.7592 N   0  0  0  0  0  0  0  0  0  0  0  0
    9.3336  -21.9285   22.8517 C   0  0  0  0  0  0  0  0  0  0  0  0
    9.0030  -22.2831   24.0403 N   0  0  0  0  0  0  0  0  0  0  0  0
   10.5636  -21.2743   22.6521 N   0  0  0  0  0  0  0  0  0  0  0  0
   11.0961  -20.9959   21.2837 C   0  0  0  0  0  0  0  0  0  0  0  0
   10.9226  -19.5776   20.9486 C   0  0  0  0  0  0  0  0  0  0  0  0
   11.9291  -18.7488   20.3343 C   0  0  0  0  0  0  0  0  0  0  0  0
   12.0275  -17.2948   20.3686 C   0  0  2  0  0  0  0  0  0  0  0  0
   10.7721  -16.6959   19.8173 N   0  0  0  0  0  0  0  0  0  0  0  0
   13.1577  -16.7134   19.6220 C   0  0  0  0  0  0  0  0  0  0  0  0
   14.4347  -16.7760   20.2552 O   0  0  0  0  0  0  0  0  0  0  0  0
   13.1472  -16.1810   18.5212 O   0  0  0  0  0  0  0  0  0  0  0  0
  2  3  1  0
  2  1  1  1
  4  3  1  0
  5  4  2  0
  6  5  1  0
  7  6  1  0
  7 12  2  0
  8  7  1  0
  9  8  2  0
  9 10  1  0
 10 11  2  0
 11 12  1  0
 12  4  1  0
 13  2  1  0
 14 13  2  0
 15 13  1  0
 15 16  1  0
 17 16  1  0
 18 17  1  0
 19 18  1  0
 19 15  1  0
 20 21  2  0
 19 20  1  1
 23 22  1  0
 23 25  1  0
 24 23  2  0
 25 26  1  0
 26 27  1  0
 28 27  1  0
 29 28  1  6
 29 30  1  0
 30 20  1  0
 31 32  1  0
 31 29  1  0
 33 31  2  0
M  END
$$$$
