WPR.pdb
     RDKit          3D

 33 35  0  0  1  0  0  0  0  0999 V2000
    6.4159  -17.5382   24.4576 N   0  0  0  0  0  0  0  0  0  0  0  0
    6.8121  -16.3396   23.7876 C   0  0  1  0  0  0  0  0  0  0  0  0
    7.6441  -15.5295   24.7570 C   0  0  0  0  0  0  0  0  0  0  0  0
    6.8613  -14.6098   25.5905 C   0  0  0  0  0  0  0  0  0  0  0  0
    5.6220  -14.8860   26.1274 C   0  0  0  0  0  0  0  0  0  0  0  0
    5.1883  -13.8204   26.8405 N   0  0  0  0  0  0  0  0  0  0  0  0
    6.1280  -12.8342   26.7844 C   0  0  0  0  0  0  0  0  0  0  0  0
    6.1550  -11.5755   27.3389 C   0  0  0  0  0  0  0  0  0  0  0  0
    7.2460  -10.7692   27.1207 C   0  0  0  0  0  0  0  0  0  0  0  0
    8.2801  -11.2654   26.3444 C   0  0  0  0  0  0  0  0  0  0  0  0
    8.2497  -12.5275   25.7901 C   0  0  0  0  0  0  0  0  0  0  0  0
    7.1661  -13.3348   26.0039 C   0  0  0  0  0  0  0  0  0  0  0  0
    7.5166  -16.5635   22.5040 C   0  0  0  0  0  0  0  0  0  0  0  0
    7.6510  -17.7881   22.1649 O   0  0  0  0  0  0  0  0  0  0  0  0
    8.0251  -15.5407   21.6725 N   0  0  0  0  0  0  0  0  0  0  0  0
    7.9629  -14.1273   21.9730 C   0  0  0  0  0  0  0  0  0  0  0  0
    8.4033  -13.4173   20.7049 C   0  0  0  0  0  0  0  0  0  0  0  0
    8.3813  -14.4609   19.6227 C   0  0  0  0  0  0  0  0  0  0  0  0
    8.6746  -15.7358   20.4253 C   0  0  1  0  0  0  0  0  0  0  0  0
   10.1573  -15.8096   20.5299 C   0  0  0  0  0  0  0  0  0  0  0  0
   10.6979  -14.9781   21.2946 O   0  0  0  0  0  0  0  0  0  0  0  0
   13.4109  -21.0084   24.5783 N   0  0  0  0  0  0  0  0  0  0  0  0
   11.9892  -21.2025   24.4720 C   0  0  0  0  0  0  0  0  0  0  0  0
   11.3451  -21.6892   25.4700 N   0  0  0  0  0  0  0  0  0  0  0  0
   11.2837  -20.8731   23.2996 N   0  0  0  0  0  0  0  0  0  0  0  0
   11.9858  -20.5633   22.0171 C   0  0  0  0  0  0  0  0  0  0  0  0
   11.9522  -19.1198   21.7540 C   0  0  0  0  0  0  0  0  0  0  0  0
   12.4316  -18.4925   20.5483 C   0  0  0  0  0  0  0  0  0  0  0  0
   12.3416  -17.0846   20.1810 C   0  0  2  0  0  0  0  0  0  0  0  0
   10.9284  -16.7518   19.8196 N   0  0  0  0  0  0  0  0  0  0  0  0
   13.1951  -16.6623   19.0558 C   0  0  0  0  0  0  0  0  0  0  0  0
   14.5651  -16.4062   19.3609 O   0  0  0  0  0  0  0  0  0  0  0  0
   12.8832  -16.5024   17.8843 O   0  0  0  0  0  0  0  0  0  0  0  0
  2  3  1  0
  2  1  1  1
  4  3  1  0
  5  4  2  0
  6  5  1  0
  7  6  1  0
  7 12  2  0
  8  7  1  0
  9  8  2  0
  9 10  1  0
 10 11  2  0
 11 12  1  0
 12  4  1  0
 13  2  1  0
 14 13  2  0
 15 13  1  0
 15 16  1  0
 17 16  1  0
 18 17  1  0
 19 18  1  0
 19 15  1  0
 20 21  2  0
 19 20  1  1
 23 22  1  0
 23 25  1  0
 24 23  2  0
 25 26  1  0
 26 27  1  0
 28 27  1  0
 29 28  1  6
 29 30  1  0
 30 20  1  0
 31 32  1  0
 31 29  1  0
 33 31  2  0
M  END
$$$$
