WPR.pdb
     RDKit          3D

 33 35  0  0  1  0  0  0  0  0999 V2000
    5.4925  -18.2409   23.7668 N   0  0  0  0  0  0  0  0  0  0  0  0
    6.2289  -17.0187   23.6860 C   0  0  1  0  0  0  0  0  0  0  0  0
    6.8923  -16.7969   25.0272 C   0  0  0  0  0  0  0  0  0  0  0  0
    6.5369  -15.5238   25.6647 C   0  0  0  0  0  0  0  0  0  0  0  0
    5.2664  -15.1617   26.0586 C   0  0  0  0  0  0  0  0  0  0  0  0
    5.2968  -13.9256   26.6093 N   0  0  0  0  0  0  0  0  0  0  0  0
    6.5776  -13.4588   26.5867 C   0  0  0  0  0  0  0  0  0  0  0  0
    7.1172  -12.2710   27.0232 C   0  0  0  0  0  0  0  0  0  0  0  0
    8.4657  -12.0524   26.8766 C   0  0  0  0  0  0  0  0  0  0  0  0
    9.2288  -13.0482   26.2898 C   0  0  0  0  0  0  0  0  0  0  0  0
    8.6847  -14.2375   25.8533 C   0  0  0  0  0  0  0  0  0  0  0  0
    7.3427  -14.4608   25.9967 C   0  0  0  0  0  0  0  0  0  0  0  0
    7.2018  -16.9662   22.5702 C   0  0  0  0  0  0  0  0  0  0  0  0
    7.4970  -18.0970   22.0537 O   0  0  0  0  0  0  0  0  0  0  0  0
    7.7939  -15.7851   22.0697 N   0  0  0  0  0  0  0  0  0  0  0  0
    7.4533  -14.4467   22.4992 C   0  0  0  0  0  0  0  0  0  0  0  0
    8.1552  -13.5123   21.5294 C   0  0  0  0  0  0  0  0  0  0  0  0
    8.6019  -14.3741   20.3813 C   0  0  0  0  0  0  0  0  0  0  0  0
    8.8094  -15.7252   21.0794 C   0  0  1  0  0  0  0  0  0  0  0  0
   10.1872  -15.6778   21.6398 C   0  0  0  0  0  0  0  0  0  0  0  0
   11.1169  -15.5663   20.8082 O   0  0  0  0  0  0  0  0  0  0  0  0
   10.2814  -17.5405   27.8481 N   0  0  0  0  0  0  0  0  0  0  0  0
   11.2015  -17.0568   28.8429 C   0  0  0  0  0  0  0  0  0  0  0  0
   11.1961  -17.5842   30.0132 N   0  0  0  0  0  0  0  0  0  0  0  0
   12.1092  -16.0172   28.5671 N   0  0  0  0  0  0  0  0  0  0  0  0
   11.8579  -15.0167   27.4857 C   0  0  0  0  0  0  0  0  0  0  0  0
   12.1549  -15.6008   26.1725 C   0  0  0  0  0  0  0  0  0  0  0  0
   11.7680  -15.0240   24.9096 C   0  0  0  0  0  0  0  0  0  0  0  0
   11.8332  -15.6427   23.5912 C   0  0  2  0  0  0  0  0  0  0  0  0
   10.4539  -15.7521   23.0219 N   0  0  0  0  0  0  0  0  0  0  0  0
   12.4364  -16.9870   23.5457 C   0  0  0  0  0  0  0  0  0  0  0  0
   13.8354  -17.0447   23.2716 O   0  0  0  0  0  0  0  0  0  0  0  0
   11.8932  -18.0693   23.7148 O   0  0  0  0  0  0  0  0  0  0  0  0
  2  3  1  0
  2  1  1  1
  4  3  1  0
  5  4  2  0
  6  5  1  0
  7  6  1  0
  7 12  2  0
  8  7  1  0
  9  8  2  0
  9 10  1  0
 10 11  2  0
 11 12  1  0
 12  4  1  0
 13  2  1  0
 14 13  2  0
 15 13  1  0
 15 16  1  0
 17 16  1  0
 18 17  1  0
 19 18  1  0
 19 15  1  0
 20 21  2  0
 19 20  1  1
 23 22  1  0
 23 25  1  0
 24 23  2  0
 25 26  1  0
 26 27  1  0
 28 27  1  0
 29 28  1  1
 29 30  1  0
 30 20  1  0
 31 32  1  0
 31 29  1  0
 33 31  2  0
M  END
$$$$
