WPR.pdb
     RDKit          3D

 33 35  0  0  1  0  0  0  0  0999 V2000
    6.0270  -16.9790   23.3764 N   0  0  0  0  0  0  0  0  0  0  0  0
    6.6592  -15.8061   22.8597 C   0  0  1  0  0  0  0  0  0  0  0  0
    7.6387  -15.3186   23.9043 C   0  0  0  0  0  0  0  0  0  0  0  0
    7.0036  -14.7104   25.0791 C   0  0  0  0  0  0  0  0  0  0  0  0
    6.0283  -15.3056   25.8505 C   0  0  0  0  0  0  0  0  0  0  0  0
    5.6668  -14.4684   26.8508 N   0  0  0  0  0  0  0  0  0  0  0  0
    6.3928  -13.3185   26.7540 C   0  0  0  0  0  0  0  0  0  0  0  0
    6.3923  -12.1788   27.5245 C   0  0  0  0  0  0  0  0  0  0  0  0
    7.2411  -11.1484   27.1993 C   0  0  0  0  0  0  0  0  0  0  0  0
    8.0675  -11.3054   26.0990 C   0  0  0  0  0  0  0  0  0  0  0  0
    8.0654  -12.4491   25.3289 C   0  0  0  0  0  0  0  0  0  0  0  0
    7.2225  -13.4783   25.6479 C   0  0  0  0  0  0  0  0  0  0  0  0
    7.3035  -15.9927   21.5390 C   0  0  0  0  0  0  0  0  0  0  0  0
    7.2788  -17.1876   21.0869 O   0  0  0  0  0  0  0  0  0  0  0  0
    7.9166  -14.9659   20.7869 N   0  0  0  0  0  0  0  0  0  0  0  0
    8.0320  -13.5887   21.2135 C   0  0  0  0  0  0  0  0  0  0  0  0
    8.5314  -12.8228   20.0009 C   0  0  0  0  0  0  0  0  0  0  0  0
    8.3625  -13.7526   18.8315 C   0  0  0  0  0  0  0  0  0  0  0  0
    8.5140  -15.1216   19.5085 C   0  0  1  0  0  0  0  0  0  0  0  0
    9.9785  -15.3808   19.5620 C   0  0  0  0  0  0  0  0  0  0  0  0
   10.6480  -14.6127   20.2901 O   0  0  0  0  0  0  0  0  0  0  0  0
   12.8103  -18.6343   25.2140 N   0  0  0  0  0  0  0  0  0  0  0  0
   11.8849  -19.4307   24.4528 C   0  0  0  0  0  0  0  0  0  0  0  0
   11.4517  -20.5339   24.9459 N   0  0  0  0  0  0  0  0  0  0  0  0
   11.4411  -19.0324   23.1780 N   0  0  0  0  0  0  0  0  0  0  0  0
   12.3811  -18.8876   22.0251 C   0  0  0  0  0  0  0  0  0  0  0  0
   11.6641  -18.3984   20.8418 C   0  0  0  0  0  0  0  0  0  0  0  0
   12.2941  -17.9507   19.6253 C   0  0  0  0  0  0  0  0  0  0  0  0
   12.0665  -16.6991   18.9134 C   0  0  2  0  0  0  0  0  0  0  0  0
   10.5976  -16.4239   18.8439 N   0  0  0  0  0  0  0  0  0  0  0  0
   12.5908  -16.6430   17.5368 C   0  0  0  0  0  0  0  0  0  0  0  0
   13.9913  -16.4070   17.4013 O   0  0  0  0  0  0  0  0  0  0  0  0
   11.9802  -16.7747   16.4856 O   0  0  0  0  0  0  0  0  0  0  0  0
  2  3  1  0
  2  1  1  1
  4  3  1  0
  5  4  2  0
  6  5  1  0
  7  6  1  0
  7 12  2  0
  8  7  1  0
  9  8  2  0
  9 10  1  0
 10 11  2  0
 11 12  1  0
 12  4  1  0
 13  2  1  0
 14 13  2  0
 15 13  1  0
 15 16  1  0
 17 16  1  0
 18 17  1  0
 19 18  1  0
 19 15  1  0
 20 21  2  0
 19 20  1  1
 23 22  1  0
 23 25  1  0
 24 23  2  0
 25 26  1  0
 26 27  1  0
 28 27  1  0
 29 28  1  6
 29 30  1  0
 30 20  1  0
 31 32  1  0
 31 29  1  0
 33 31  2  0
M  END
$$$$
