WPR.pdb
     RDKit          3D

 33 35  0  0  1  0  0  0  0  0999 V2000
    5.4791  -17.1332   24.5542 N   0  0  0  0  0  0  0  0  0  0  0  0
    6.5080  -16.1964   24.2279 C   0  0  1  0  0  0  0  0  0  0  0  0
    7.6470  -16.4140   25.1992 C   0  0  0  0  0  0  0  0  0  0  0  0
    7.9656  -15.2383   26.0174 C   0  0  0  0  0  0  0  0  0  0  0  0
    9.1066  -15.0853   26.7756 C   0  0  0  0  0  0  0  0  0  0  0  0
    9.0786  -13.8854   27.4013 N   0  0  0  0  0  0  0  0  0  0  0  0
    7.9279  -13.2351   27.0671 C   0  0  0  0  0  0  0  0  0  0  0  0
    7.4425  -12.0028   27.4389 C   0  0  0  0  0  0  0  0  0  0  0  0
    6.2310  -11.5819   26.9459 C   0  0  0  0  0  0  0  0  0  0  0  0
    5.5461  -12.4263   26.0879 C   0  0  0  0  0  0  0  0  0  0  0  0
    6.0355  -13.6609   25.7174 C   0  0  0  0  0  0  0  0  0  0  0  0
    7.2411  -14.0852   26.2051 C   0  0  0  0  0  0  0  0  0  0  0  0
    6.9612  -16.2554   22.8189 C   0  0  0  0  0  0  0  0  0  0  0  0
    6.7494  -17.3676   22.2266 O   0  0  0  0  0  0  0  0  0  0  0  0
    7.5872  -15.1948   22.1267 N   0  0  0  0  0  0  0  0  0  0  0  0
    8.0014  -13.9475   22.7306 C   0  0  0  0  0  0  0  0  0  0  0  0
    8.3911  -13.0409   21.5763 C   0  0  0  0  0  0  0  0  0  0  0  0
    7.8636  -13.7075   20.3362 C   0  0  0  0  0  0  0  0  0  0  0  0
    7.9096  -15.1864   20.7442 C   0  0  1  0  0  0  0  0  0  0  0  0
    9.2972  -15.6382   20.4524 C   0  0  0  0  0  0  0  0  0  0  0  0
   10.1048  -15.5909   21.4084 O   0  0  0  0  0  0  0  0  0  0  0  0
    7.9220  -15.8957   13.5980 N   0  0  0  0  0  0  0  0  0  0  0  0
    9.0274  -15.1098   14.0780 C   0  0  0  0  0  0  0  0  0  0  0  0
    9.3557  -14.0385   13.4514 N   0  0  0  0  0  0  0  0  0  0  0  0
    9.7614  -15.4852   15.2186 N   0  0  0  0  0  0  0  0  0  0  0  0
   10.7524  -16.6035   15.1861 C   0  0  0  0  0  0  0  0  0  0  0  0
   11.3514  -16.7917   16.5127 C   0  0  0  0  0  0  0  0  0  0  0  0
   10.7600  -17.5577   17.5807 C   0  0  0  0  0  0  0  0  0  0  0  0
   10.6870  -17.2063   18.9936 C   0  0  2  0  0  0  0  0  0  0  0  0
    9.7013  -16.0966   19.1822 N   0  0  0  0  0  0  0  0  0  0  0  0
   11.9551  -16.7788   19.6116 C   0  0  0  0  0  0  0  0  0  0  0  0
   12.5649  -17.7032   20.5112 O   0  0  0  0  0  0  0  0  0  0  0  0
   12.5609  -15.7284   19.4535 O   0  0  0  0  0  0  0  0  0  0  0  0
  2  3  1  0
  2  1  1  6
  4  3  1  0
  5  4  2  0
  6  5  1  0
  7  6  1  0
  7 12  2  0
  8  7  1  0
  9  8  2  0
  9 10  1  0
 10 11  2  0
 11 12  1  0
 12  4  1  0
 13  2  1  0
 14 13  2  0
 15 13  1  0
 15 16  1  0
 17 16  1  0
 18 17  1  0
 19 18  1  0
 19 15  1  0
 20 21  2  0
 19 20  1  1
 23 22  1  0
 23 25  1  0
 24 23  2  0
 25 26  1  0
 26 27  1  0
 28 27  1  0
 29 28  1  6
 29 30  1  0
 30 20  1  0
 31 32  1  0
 31 29  1  0
 33 31  2  0
M  END
$$$$
