WPR.pdb
     RDKit          3D

 33 35  0  0  1  0  0  0  0  0999 V2000
    6.8490  -17.6630   25.6497 N   0  0  0  0  0  0  0  0  0  0  0  0
    6.3866  -17.0147   24.4629 C   0  0  1  0  0  0  0  0  0  0  0  0
    5.9787  -15.6081   24.8414 C   0  0  0  0  0  0  0  0  0  0  0  0
    6.9305  -14.9299   25.7288 C   0  0  0  0  0  0  0  0  0  0  0  0
    8.1141  -15.4707   26.1840 C   0  0  0  0  0  0  0  0  0  0  0  0
    8.7451  -14.5766   26.9806 N   0  0  0  0  0  0  0  0  0  0  0  0
    7.9926  -13.4425   27.0614 C   0  0  0  0  0  0  0  0  0  0  0  0
    8.2006  -12.2631   27.7383 C   0  0  0  0  0  0  0  0  0  0  0  0
    7.2638  -11.2622   27.6463 C   0  0  0  0  0  0  0  0  0  0  0  0
    6.1407  -11.4883   26.8680 C   0  0  0  0  0  0  0  0  0  0  0  0
    5.9353  -12.6717   26.1909 C   0  0  0  0  0  0  0  0  0  0  0  0
    6.8646  -13.6718   26.2788 C   0  0  0  0  0  0  0  0  0  0  0  0
    7.3565  -17.0291   23.3434 C   0  0  0  0  0  0  0  0  0  0  0  0
    7.7665  -18.1882   22.9952 O   0  0  0  0  0  0  0  0  0  0  0  0
    7.8310  -15.8808   22.6710 N   0  0  0  0  0  0  0  0  0  0  0  0
    7.6462  -14.5218   23.1301 C   0  0  0  0  0  0  0  0  0  0  0  0
    8.1003  -13.6349   21.9840 C   0  0  0  0  0  0  0  0  0  0  0  0
    8.2161  -14.5388   20.7881 C   0  0  0  0  0  0  0  0  0  0  0  0
    8.5605  -15.8786   21.4530 C   0  0  1  0  0  0  0  0  0  0  0  0
   10.0366  -15.8630   21.6417 C   0  0  0  0  0  0  0  0  0  0  0  0
   10.4514  -15.3373   22.7000 O   0  0  0  0  0  0  0  0  0  0  0  0
   12.8431  -21.3221   15.7586 N   0  0  0  0  0  0  0  0  0  0  0  0
   11.6274  -21.3468   16.5276 C   0  0  0  0  0  0  0  0  0  0  0  0
   10.6377  -22.0533   16.1160 N   0  0  0  0  0  0  0  0  0  0  0  0
   11.4929  -20.6145   17.7218 N   0  0  0  0  0  0  0  0  0  0  0  0
   12.4585  -19.5382   18.1002 C   0  0  0  0  0  0  0  0  0  0  0  0
   12.0449  -18.9016   19.3562 C   0  0  0  0  0  0  0  0  0  0  0  0
   12.7534  -17.8278   20.0060 C   0  0  0  0  0  0  0  0  0  0  0  0
   12.2707  -16.9605   21.0737 C   0  0  2  0  0  0  0  0  0  0  0  0
   10.9342  -16.4026   20.6983 N   0  0  0  0  0  0  0  0  0  0  0  0
   13.1429  -15.8224   21.4155 C   0  0  0  0  0  0  0  0  0  0  0  0
   14.3343  -16.1315   22.1370 O   0  0  0  0  0  0  0  0  0  0  0  0
   12.9811  -14.6378   21.1593 O   0  0  0  0  0  0  0  0  0  0  0  0
  2  3  1  0
  2  1  1  1
  4  3  1  0
  5  4  2  0
  6  5  1  0
  7  6  1  0
  7 12  2  0
  8  7  1  0
  9  8  2  0
  9 10  1  0
 10 11  2  0
 11 12  1  0
 12  4  1  0
 13  2  1  0
 14 13  2  0
 15 13  1  0
 15 16  1  0
 17 16  1  0
 18 17  1  0
 19 18  1  0
 19 15  1  0
 20 21  2  0
 19 20  1  1
 23 22  1  0
 23 25  1  0
 24 23  2  0
 25 26  1  0
 26 27  1  0
 28 27  1  0
 29 28  1  6
 29 30  1  0
 30 20  1  0
 31 32  1  0
 31 29  1  0
 33 31  2  0
M  END
$$$$
