WPR.pdb
     RDKit          3D

 33 35  0  0  1  0  0  0  0  0999 V2000
    8.3247  -17.5653   26.8266 N   0  0  0  0  0  0  0  0  0  0  0  0
    7.9380  -17.0992   25.5321 C   0  0  1  0  0  0  0  0  0  0  0  0
    8.6777  -15.8053   25.2739 C   0  0  0  0  0  0  0  0  0  0  0  0
    8.3869  -14.7476   26.2487 C   0  0  0  0  0  0  0  0  0  0  0  0
    8.9353  -14.6594   27.5104 C   0  0  0  0  0  0  0  0  0  0  0  0
    8.4502  -13.5642   28.1407 N   0  0  0  0  0  0  0  0  0  0  0  0
    7.5819  -12.9198   27.3103 C   0  0  0  0  0  0  0  0  0  0  0  0
    6.8403  -11.7746   27.4864 C   0  0  0  0  0  0  0  0  0  0  0  0
    6.0295  -11.3366   26.4673 C   0  0  0  0  0  0  0  0  0  0  0  0
    5.9952  -12.0757   25.2964 C   0  0  0  0  0  0  0  0  0  0  0  0
    6.7398  -13.2232   25.1233 C   0  0  0  0  0  0  0  0  0  0  0  0
    7.5488  -13.6640   26.1346 C   0  0  0  0  0  0  0  0  0  0  0  0
    8.1437  -18.0828   24.4438 C   0  0  0  0  0  0  0  0  0  0  0  0
    8.5965  -19.2180   24.8166 O   0  0  0  0  0  0  0  0  0  0  0  0
    7.8781  -17.8427   23.0771 N   0  0  0  0  0  0  0  0  0  0  0  0
    7.2407  -16.6526   22.5583 C   0  0  0  0  0  0  0  0  0  0  0  0
    6.9511  -16.9450   21.0965 C   0  0  0  0  0  0  0  0  0  0  0  0
    7.1415  -18.4270   20.9299 C   0  0  0  0  0  0  0  0  0  0  0  0
    8.1950  -18.7201   22.0070 C   0  0  1  0  0  0  0  0  0  0  0  0
    9.5087  -18.4332   21.3693 C   0  0  0  0  0  0  0  0  0  0  0  0
    9.6080  -18.7263   20.1558 O   0  0  0  0  0  0  0  0  0  0  0  0
    8.1020  -13.4856   17.2270 N   0  0  0  0  0  0  0  0  0  0  0  0
    8.9056  -12.7614   18.1756 C   0  0  0  0  0  0  0  0  0  0  0  0
    8.8881  -11.4778   18.1637 N   0  0  0  0  0  0  0  0  0  0  0  0
    9.7135  -13.4239   19.1184 N   0  0  0  0  0  0  0  0  0  0  0  0
    9.5376  -14.8758   19.4265 C   0  0  0  0  0  0  0  0  0  0  0  0
   10.4763  -15.2912   20.4754 C   0  0  0  0  0  0  0  0  0  0  0  0
   11.4133  -16.3798   20.3562 C   0  0  0  0  0  0  0  0  0  0  0  0
   11.8107  -17.3293   21.3884 C   0  0  2  0  0  0  0  0  0  0  0  0
   10.5916  -17.8652   22.0704 N   0  0  0  0  0  0  0  0  0  0  0  0
   12.7033  -16.7987   22.4347 C   0  0  0  0  0  0  0  0  0  0  0  0
   13.9837  -16.3409   22.0029 O   0  0  0  0  0  0  0  0  0  0  0  0
   12.4902  -16.6959   23.6344 O   0  0  0  0  0  0  0  0  0  0  0  0
  2  3  1  0
  2  1  1  1
  4  3  1  0
  5  4  2  0
  6  5  1  0
  7  6  1  0
  7 12  2  0
  8  7  1  0
  9  8  2  0
  9 10  1  0
 10 11  2  0
 11 12  1  0
 12  4  1  0
 13  2  1  0
 14 13  2  0
 15 13  1  0
 15 16  1  0
 17 16  1  0
 18 17  1  0
 19 18  1  0
 19 15  1  0
 20 21  2  0
 19 20  1  6
 23 22  1  0
 23 25  1  0
 24 23  2  0
 25 26  1  0
 26 27  1  0
 28 27  1  0
 29 28  1  6
 29 30  1  0
 30 20  1  0
 31 32  1  0
 31 29  1  0
 33 31  2  0
M  END
$$$$
