WPR.pdb
     RDKit          3D

 33 35  0  0  1  0  0  0  0  0999 V2000
   10.3256  -16.1377   22.7360 N   0  0  0  0  0  0  0  0  0  0  0  0
    9.8343  -15.4833   23.9077 C   0  0  1  0  0  0  0  0  0  0  0  0
    8.3276  -15.6173   23.9065 C   0  0  0  0  0  0  0  0  0  0  0  0
    7.6152  -14.3374   23.9945 C   0  0  0  0  0  0  0  0  0  0  0  0
    7.4586  -13.4441   22.9563 C   0  0  0  0  0  0  0  0  0  0  0  0
    6.7521  -12.3713   23.3831 N   0  0  0  0  0  0  0  0  0  0  0  0
    6.4354  -12.5406   24.6984 C   0  0  0  0  0  0  0  0  0  0  0  0
    5.7364  -11.7407   25.5725 C   0  0  0  0  0  0  0  0  0  0  0  0
    5.5586  -12.1589   26.8692 C   0  0  0  0  0  0  0  0  0  0  0  0
    6.0967  -13.3796   27.2414 C   0  0  0  0  0  0  0  0  0  0  0  0
    6.7968  -14.1787   26.3627 C   0  0  0  0  0  0  0  0  0  0  0  0
    6.9770  -13.7676   25.0704 C   0  0  0  0  0  0  0  0  0  0  0  0
   10.4336  -15.9677   25.1728 C   0  0  0  0  0  0  0  0  0  0  0  0
   11.1041  -17.0511   25.0759 O   0  0  0  0  0  0  0  0  0  0  0  0
   10.3083  -15.3244   26.4243 N   0  0  0  0  0  0  0  0  0  0  0  0
    9.4361  -14.2016   26.6900 C   0  0  0  0  0  0  0  0  0  0  0  0
    9.8147  -13.7050   28.0743 C   0  0  0  0  0  0  0  0  0  0  0  0
   11.1230  -14.3688   28.4037 C   0  0  0  0  0  0  0  0  0  0  0  0
   11.0079  -15.6765   27.6084 C   0  0  1  0  0  0  0  0  0  0  0  0
   10.2581  -16.6141   28.4879 C   0  0  0  0  0  0  0  0  0  0  0  0
    9.0447  -16.3567   28.6605 O   0  0  0  0  0  0  0  0  0  0  0  0
   10.0971  -24.8900   25.3343 N   0  0  0  0  0  0  0  0  0  0  0  0
   10.3428  -23.4961   25.5924 C   0  0  0  0  0  0  0  0  0  0  0  0
   11.5141  -23.1221   25.9612 N   0  0  0  0  0  0  0  0  0  0  0  0
    9.3303  -22.5286   25.4521 N   0  0  0  0  0  0  0  0  0  0  0  0
    9.5984  -21.0717   25.6504 C   0  0  0  0  0  0  0  0  0  0  0  0
    9.8322  -20.7857   27.0707 C   0  0  0  0  0  0  0  0  0  0  0  0
   10.1236  -19.4811   27.6096 C   0  0  0  0  0  0  0  0  0  0  0  0
   10.2875  -19.1130   29.0106 C   0  0  2  0  0  0  0  0  0  0  0  0
   10.8578  -17.7328   29.1010 N   0  0  0  0  0  0  0  0  0  0  0  0
   11.1539  -20.0007   29.8070 C   0  0  0  0  0  0  0  0  0  0  0  0
   12.4966  -19.5622   30.0078 O   0  0  0  0  0  0  0  0  0  0  0  0
   10.8723  -21.0719   30.3250 O   0  0  0  0  0  0  0  0  0  0  0  0
  2  3  1  0
  2  1  1  6
  4  3  1  0
  5  4  2  0
  6  5  1  0
  7  6  1  0
  7 12  2  0
  8  7  1  0
  9  8  2  0
  9 10  1  0
 10 11  2  0
 11 12  1  0
 12  4  1  0
 13  2  1  0
 14 13  2  0
 15 13  1  0
 15 16  1  0
 17 16  1  0
 18 17  1  0
 19 18  1  0
 19 15  1  0
 20 21  2  0
 19 20  1  1
 23 22  1  0
 23 25  1  0
 24 23  2  0
 25 26  1  0
 26 27  1  0
 28 27  1  0
 29 28  1  6
 29 30  1  0
 30 20  1  0
 31 32  1  0
 31 29  1  0
 33 31  2  0
M  END
$$$$
