WPR.pdb
     RDKit          3D

 33 35  0  0  1  0  0  0  0  0999 V2000
    6.6372  -17.4339   23.3375 N   0  0  0  0  0  0  0  0  0  0  0  0
    7.1465  -16.1516   22.9647 C   0  0  1  0  0  0  0  0  0  0  0  0
    8.0062  -15.6536   24.1053 C   0  0  0  0  0  0  0  0  0  0  0  0
    7.2490  -15.0130   25.1868 C   0  0  0  0  0  0  0  0  0  0  0  0
    6.1580  -15.5633   25.8249 C   0  0  0  0  0  0  0  0  0  0  0  0
    5.7040  -14.7060   26.7688 N   0  0  0  0  0  0  0  0  0  0  0  0
    6.4830  -13.5872   26.7667 C   0  0  0  0  0  0  0  0  0  0  0  0
    6.4290  -12.4437   27.5297 C   0  0  0  0  0  0  0  0  0  0  0  0
    7.3546  -11.4507   27.3172 C   0  0  0  0  0  0  0  0  0  0  0  0
    8.3101  -11.6479   26.3342 C   0  0  0  0  0  0  0  0  0  0  0  0
    8.3613  -12.7952   25.5712 C   0  0  0  0  0  0  0  0  0  0  0  0
    7.4424  -13.7873   25.7783 C   0  0  0  0  0  0  0  0  0  0  0  0
    7.8734  -16.1365   21.6741 C   0  0  0  0  0  0  0  0  0  0  0  0
    8.1227  -17.2873   21.1779 O   0  0  0  0  0  0  0  0  0  0  0  0
    8.2871  -14.9695   20.9937 N   0  0  0  0  0  0  0  0  0  0  0  0
    7.9807  -13.6194   21.4121 C   0  0  0  0  0  0  0  0  0  0  0  0
    8.4139  -12.7245   20.2641 C   0  0  0  0  0  0  0  0  0  0  0  0
    8.6478  -13.6418   19.0959 C   0  0  0  0  0  0  0  0  0  0  0  0
    9.0646  -14.9369   19.8063 C   0  0  1  0  0  0  0  0  0  0  0  0
   10.5262  -14.8041   20.0536 C   0  0  0  0  0  0  0  0  0  0  0  0
   10.8932  -13.7607   20.6409 O   0  0  0  0  0  0  0  0  0  0  0  0
   10.1433  -19.3157   26.7145 N   0  0  0  0  0  0  0  0  0  0  0  0
   11.3884  -19.4582   26.0078 C   0  0  0  0  0  0  0  0  0  0  0  0
   12.4866  -19.4981   26.6713 N   0  0  0  0  0  0  0  0  0  0  0  0
   11.4352  -19.5543   24.6045 N   0  0  0  0  0  0  0  0  0  0  0  0
   10.7688  -18.5488   23.7222 C   0  0  0  0  0  0  0  0  0  0  0  0
   11.6962  -18.0906   22.6812 C   0  0  0  0  0  0  0  0  0  0  0  0
   11.3785  -17.1164   21.6677 C   0  0  0  0  0  0  0  0  0  0  0  0
   12.2610  -16.5841   20.6367 C   0  0  2  0  0  0  0  0  0  0  0  0
   11.4608  -15.7827   19.6591 N   0  0  0  0  0  0  0  0  0  0  0  0
   13.0213  -17.5857   19.8675 C   0  0  0  0  0  0  0  0  0  0  0  0
   12.3136  -18.2547   18.8248 O   0  0  0  0  0  0  0  0  0  0  0  0
   14.1891  -17.9218   20.0038 O   0  0  0  0  0  0  0  0  0  0  0  0
  2  3  1  0
  2  1  1  1
  4  3  1  0
  5  4  2  0
  6  5  1  0
  7  6  1  0
  7 12  2  0
  8  7  1  0
  9  8  2  0
  9 10  1  0
 10 11  2  0
 11 12  1  0
 12  4  1  0
 13  2  1  0
 14 13  2  0
 15 13  1  0
 15 16  1  0
 17 16  1  0
 18 17  1  0
 19 18  1  0
 19 15  1  0
 20 21  2  0
 19 20  1  1
 23 22  1  0
 23 25  1  0
 24 23  2  0
 25 26  1  0
 26 27  1  0
 28 27  1  0
 29 28  1  1
 29 30  1  0
 30 20  1  0
 31 32  1  0
 31 29  1  0
 33 31  2  0
M  END
$$$$
