PFG.pdb
     RDKit          3D

 23 24  0  0  1  0  0  0  0  0999 V2000
    7.3138  -14.9619   20.8274 N   0  0  0  0  0  0  0  0  0  0  0  0
    6.7787  -14.4417   19.5759 C   0  0  0  0  0  0  0  0  0  0  0  0
    7.0233  -12.9498   19.6840 C   0  0  0  0  0  0  0  0  0  0  0  0
    8.2846  -12.8458   20.5148 C   0  0  0  0  0  0  0  0  0  0  0  0
    8.5676  -14.2460   20.9607 C   0  0  1  0  0  0  0  0  0  0  0  0
    9.1241  -14.3622   22.3154 C   0  0  0  0  0  0  0  0  0  0  0  0
   10.2180  -13.8531   22.6599 O   0  0  0  0  0  0  0  0  0  0  0  0
    8.4112  -15.0819   23.3099 N   0  0  0  0  0  0  0  0  0  0  0  0
    8.9282  -15.1572   24.6667 C   0  0  1  0  0  0  0  0  0  0  0  0
    7.7409  -15.2064   25.6276 C   0  0  0  0  0  0  0  0  0  0  0  0
    7.3185  -13.8333   26.0077 C   0  0  0  0  0  0  0  0  0  0  0  0
    5.9819  -13.4751   26.0137 C   0  0  0  0  0  0  0  0  0  0  0  0
    5.5421  -12.2299   26.3541 C   0  0  0  0  0  0  0  0  0  0  0  0
    6.4750  -11.2679   26.7137 C   0  0  0  0  0  0  0  0  0  0  0  0
    7.8002  -11.5810   26.7204 C   0  0  0  0  0  0  0  0  0  0  0  0
    8.2190  -12.8539   26.3701 C   0  0  0  0  0  0  0  0  0  0  0  0
    9.7061  -16.4135   24.8716 C   0  0  0  0  0  0  0  0  0  0  0  0
    9.8565  -16.8157   26.0482 O   0  0  0  0  0  0  0  0  0  0  0  0
   10.2618  -17.1413   23.8058 N   0  0  0  0  0  0  0  0  0  0  0  0
   10.9364  -18.3823   24.0499 C   0  0  0  0  0  0  0  0  0  0  0  0
   12.3415  -18.3364   23.5095 C   0  0  0  0  0  0  0  0  0  0  0  0
   13.1680  -19.4353   23.5941 O   0  0  0  0  0  0  0  0  0  0  0  0
   12.7635  -17.2812   22.9750 O   0  0  0  0  0  0  0  0  0  0  0  0
  1  2  1  0
  3  2  1  0
  4  5  1  0
  4  3  1  0
  5  1  1  0
  6  8  1  0
  5  6  1  1
  7  6  2  0
  9  8  1  0
  9 10  1  1
 10 11  1  0
 11 12  2  0
 11 16  1  0
 12 13  1  0
 13 14  2  0
 15 14  1  0
 16 15  2  0
 17  9  1  0
 18 17  2  0
 19 17  1  0
 20 21  1  0
 20 19  1  0
 21 22  1  0
 23 21  2  0
M  END
$$$$
