PFG.pdb
     RDKit          3D

 23 24  0  0  1  0  0  0  0  0999 V2000
    7.3703  -15.1437   20.6201 N   0  0  0  0  0  0  0  0  0  0  0  0
    7.0090  -14.6421   19.3005 C   0  0  0  0  0  0  0  0  0  0  0  0
    7.1357  -13.1392   19.4507 C   0  0  0  0  0  0  0  0  0  0  0  0
    8.2388  -12.9661   20.4730 C   0  0  0  0  0  0  0  0  0  0  0  0
    8.5374  -14.3512   20.9544 C   0  0  1  0  0  0  0  0  0  0  0  0
    8.8770  -14.4495   22.3804 C   0  0  0  0  0  0  0  0  0  0  0  0
    9.8994  -13.9262   22.8858 O   0  0  0  0  0  0  0  0  0  0  0  0
    8.0243  -15.1677   23.2591 N   0  0  0  0  0  0  0  0  0  0  0  0
    8.4157  -15.3803   24.6432 C   0  0  1  0  0  0  0  0  0  0  0  0
    7.1684  -15.2524   25.5168 C   0  0  0  0  0  0  0  0  0  0  0  0
    7.0086  -13.8559   25.9990 C   0  0  0  0  0  0  0  0  0  0  0  0
    8.0833  -12.9846   26.0274 C   0  0  0  0  0  0  0  0  0  0  0  0
    7.9899  -11.6947   26.4602 C   0  0  0  0  0  0  0  0  0  0  0  0
    6.7594  -11.2244   26.8956 C   0  0  0  0  0  0  0  0  0  0  0  0
    5.6772  -12.0508   26.8833 C   0  0  0  0  0  0  0  0  0  0  0  0
    5.8007  -13.3567   26.4384 C   0  0  0  0  0  0  0  0  0  0  0  0
    8.9459  -16.7606   24.8410 C   0  0  0  0  0  0  0  0  0  0  0  0
    8.4139  -17.4627   25.7314 O   0  0  0  0  0  0  0  0  0  0  0  0
   10.0010  -17.2827   24.0739 N   0  0  0  0  0  0  0  0  0  0  0  0
   11.3059  -17.4369   24.6468 C   0  0  0  0  0  0  0  0  0  0  0  0
   11.3660  -18.6760   25.5009 C   0  0  0  0  0  0  0  0  0  0  0  0
   11.4619  -18.5855   26.8723 O   0  0  0  0  0  0  0  0  0  0  0  0
   11.3281  -19.8058   24.9538 O   0  0  0  0  0  0  0  0  0  0  0  0
  1  2  1  0
  3  2  1  0
  4  5  1  0
  4  3  1  0
  5  1  1  0
  6  8  1  0
  5  6  1  1
  7  6  2  0
  9  8  1  0
  9 10  1  1
 10 11  1  0
 11 12  2  0
 11 16  1  0
 12 13  1  0
 13 14  2  0
 15 14  1  0
 16 15  2  0
 17  9  1  0
 18 17  2  0
 19 17  1  0
 20 21  1  0
 20 19  1  0
 21 22  1  0
 23 21  2  0
M  END
$$$$
