PFG.pdb
     RDKit          3D

 23 24  0  0  1  0  0  0  0  0999 V2000
    7.1945  -14.9665   20.8399 N   0  0  0  0  0  0  0  0  0  0  0  0
    6.6384  -14.4270   19.6059 C   0  0  0  0  0  0  0  0  0  0  0  0
    6.9669  -12.9498   19.6905 C   0  0  0  0  0  0  0  0  0  0  0  0
    8.2642  -12.9082   20.4697 C   0  0  0  0  0  0  0  0  0  0  0  0
    8.4892  -14.3184   20.9169 C   0  0  1  0  0  0  0  0  0  0  0  0
    9.0924  -14.4549   22.2496 C   0  0  0  0  0  0  0  0  0  0  0  0
   10.2352  -14.0249   22.5390 O   0  0  0  0  0  0  0  0  0  0  0  0
    8.3704  -15.1026   23.2861 N   0  0  0  0  0  0  0  0  0  0  0  0
    8.9420  -15.2046   24.6191 C   0  0  1  0  0  0  0  0  0  0  0  0
    7.7949  -15.3119   25.6231 C   0  0  0  0  0  0  0  0  0  0  0  0
    7.2835  -13.9627   25.9791 C   0  0  0  0  0  0  0  0  0  0  0  0
    8.1302  -12.9891   26.4792 C   0  0  0  0  0  0  0  0  0  0  0  0
    7.7118  -11.7369   26.8209 C   0  0  0  0  0  0  0  0  0  0  0  0
    6.3716  -11.4147   26.6624 C   0  0  0  0  0  0  0  0  0  0  0  0
    5.5062  -12.3453   26.1732 C   0  0  0  0  0  0  0  0  0  0  0  0
    5.9585  -13.6097   25.8341 C   0  0  0  0  0  0  0  0  0  0  0  0
    9.7574  -16.4462   24.7557 C   0  0  0  0  0  0  0  0  0  0  0  0
    9.1691  -17.4866   25.1303 O   0  0  0  0  0  0  0  0  0  0  0  0
   11.1352  -16.4801   24.4822 N   0  0  0  0  0  0  0  0  0  0  0  0
   11.8614  -17.7129   24.5713 C   0  0  0  0  0  0  0  0  0  0  0  0
   13.2597  -17.5434   24.0382 C   0  0  0  0  0  0  0  0  0  0  0  0
   13.6695  -16.3448   23.4965 O   0  0  0  0  0  0  0  0  0  0  0  0
   14.0614  -18.5087   24.0891 O   0  0  0  0  0  0  0  0  0  0  0  0
  1  2  1  0
  3  2  1  0
  4  5  1  0
  4  3  1  0
  5  1  1  0
  6  8  1  0
  5  6  1  1
  7  6  2  0
  9  8  1  0
  9 10  1  1
 10 11  1  0
 11 12  2  0
 11 16  1  0
 12 13  1  0
 13 14  2  0
 15 14  1  0
 16 15  2  0
 17  9  1  0
 18 17  2  0
 19 17  1  0
 20 21  1  0
 20 19  1  0
 21 22  1  0
 23 21  2  0
M  END
$$$$
