PFG.pdb
     RDKit          3D

 23 24  0  0  1  0  0  0  0  0999 V2000
    7.2477  -14.9228   20.8293 N   0  0  0  0  0  0  0  0  0  0  0  0
    6.8394  -14.2805   19.5867 C   0  0  0  0  0  0  0  0  0  0  0  0
    7.2528  -12.8362   19.7872 C   0  0  0  0  0  0  0  0  0  0  0  0
    8.4755  -12.9262   20.6753 C   0  0  0  0  0  0  0  0  0  0  0  0
    8.5692  -14.3707   21.0550 C   0  0  1  0  0  0  0  0  0  0  0  0
    9.0413  -14.6200   22.4237 C   0  0  0  0  0  0  0  0  0  0  0  0
   10.1683  -14.2612   22.8429 O   0  0  0  0  0  0  0  0  0  0  0  0
    8.2023  -15.3006   23.3447 N   0  0  0  0  0  0  0  0  0  0  0  0
    8.6427  -15.5108   24.7143 C   0  0  1  0  0  0  0  0  0  0  0  0
    7.4367  -15.3330   25.6358 C   0  0  0  0  0  0  0  0  0  0  0  0
    7.2645  -13.9031   26.0019 C   0  0  0  0  0  0  0  0  0  0  0  0
    6.0222  -13.2966   25.9405 C   0  0  0  0  0  0  0  0  0  0  0  0
    5.8107  -11.9890   26.2652 C   0  0  0  0  0  0  0  0  0  0  0  0
    6.8898  -11.2213   26.6788 C   0  0  0  0  0  0  0  0  0  0  0  0
    8.1288  -11.7812   26.7525 C   0  0  0  0  0  0  0  0  0  0  0  0
    8.3149  -13.1120   26.4166 C   0  0  0  0  0  0  0  0  0  0  0  0
    9.1359  -16.9054   24.9073 C   0  0  0  0  0  0  0  0  0  0  0  0
    8.3594  -17.8408   24.6057 O   0  0  0  0  0  0  0  0  0  0  0  0
   10.4178  -17.1920   25.4064 N   0  0  0  0  0  0  0  0  0  0  0  0
   10.8723  -18.5483   25.4996 C   0  0  0  0  0  0  0  0  0  0  0  0
   10.8871  -19.0043   26.9349 C   0  0  0  0  0  0  0  0  0  0  0  0
   11.4287  -20.2218   27.2846 O   0  0  0  0  0  0  0  0  0  0  0  0
   10.3986  -18.2633   27.8235 O   0  0  0  0  0  0  0  0  0  0  0  0
  1  2  1  0
  3  2  1  0
  4  5  1  0
  4  3  1  0
  5  1  1  0
  6  8  1  0
  5  6  1  1
  7  6  2  0
  9  8  1  0
  9 10  1  1
 10 11  1  0
 11 12  2  0
 11 16  1  0
 12 13  1  0
 13 14  2  0
 15 14  1  0
 16 15  2  0
 17  9  1  0
 18 17  2  0
 19 17  1  0
 20 21  1  0
 20 19  1  0
 21 22  1  0
 23 21  2  0
M  END
$$$$
