PFG.pdb
     RDKit          3D

 23 24  0  0  1  0  0  0  0  0999 V2000
    7.5849  -15.2555   19.2118 N   0  0  0  0  0  0  0  0  0  0  0  0
    7.4116  -14.9887   17.7899 C   0  0  0  0  0  0  0  0  0  0  0  0
    7.5550  -13.4828   17.6964 C   0  0  0  0  0  0  0  0  0  0  0  0
    8.5192  -13.1378   18.8113 C   0  0  0  0  0  0  0  0  0  0  0  0
    8.7178  -14.4195   19.5579 C   0  0  1  0  0  0  0  0  0  0  0  0
    8.8658  -14.2707   21.0120 C   0  0  0  0  0  0  0  0  0  0  0  0
    9.8231  -13.6648   21.5516 O   0  0  0  0  0  0  0  0  0  0  0  0
    7.8916  -14.8304   21.8796 N   0  0  0  0  0  0  0  0  0  0  0  0
    7.9744  -14.6019   23.3130 C   0  0  1  0  0  0  0  0  0  0  0  0
    6.6443  -14.0118   23.7797 C   0  0  0  0  0  0  0  0  0  0  0  0
    6.7881  -13.3968   25.1249 C   0  0  0  0  0  0  0  0  0  0  0  0
    6.2565  -14.0066   26.2476 C   0  0  0  0  0  0  0  0  0  0  0  0
    6.3607  -13.4844   27.5032 C   0  0  0  0  0  0  0  0  0  0  0  0
    7.0318  -12.2819   27.6722 C   0  0  0  0  0  0  0  0  0  0  0  0
    7.5692  -11.6503   26.5921 C   0  0  0  0  0  0  0  0  0  0  0  0
    7.4484  -12.2034   25.3280 C   0  0  0  0  0  0  0  0  0  0  0  0
    8.1621  -15.8866   24.0476 C   0  0  0  0  0  0  0  0  0  0  0  0
    7.2964  -16.7773   23.8861 O   0  0  0  0  0  0  0  0  0  0  0  0
    9.2577  -16.1198   24.8959 N   0  0  0  0  0  0  0  0  0  0  0  0
    9.6015  -17.4560   25.2845 C   0  0  0  0  0  0  0  0  0  0  0  0
   10.7908  -17.4492   26.2086 C   0  0  0  0  0  0  0  0  0  0  0  0
   10.6602  -17.8099   27.5318 O   0  0  0  0  0  0  0  0  0  0  0  0
   11.9157  -17.1099   25.7652 O   0  0  0  0  0  0  0  0  0  0  0  0
  1  2  1  0
  3  2  1  0
  4  5  1  0
  4  3  1  0
  5  1  1  0
  6  8  1  0
  5  6  1  1
  7  6  2  0
  9  8  1  0
  9 10  1  1
 10 11  1  0
 11 12  2  0
 11 16  1  0
 12 13  1  0
 13 14  2  0
 15 14  1  0
 16 15  2  0
 17  9  1  0
 18 17  2  0
 19 17  1  0
 20 21  1  0
 20 19  1  0
 21 22  1  0
 23 21  2  0
M  END
$$$$
