PFG.pdb
     RDKit          3D

 23 24  0  0  1  0  0  0  0  0999 V2000
    7.2744  -14.8455   20.6355 N   0  0  0  0  0  0  0  0  0  0  0  0
    6.8536  -14.1737   19.4128 C   0  0  0  0  0  0  0  0  0  0  0  0
    7.2186  -12.7247   19.6664 C   0  0  0  0  0  0  0  0  0  0  0  0
    8.4377  -12.8062   20.5602 C   0  0  0  0  0  0  0  0  0  0  0  0
    8.5757  -14.2593   20.8903 C   0  0  1  0  0  0  0  0  0  0  0  0
    9.0468  -14.5409   22.2531 C   0  0  0  0  0  0  0  0  0  0  0  0
   10.2052  -14.2726   22.6540 O   0  0  0  0  0  0  0  0  0  0  0  0
    8.1697  -15.1483   23.1896 N   0  0  0  0  0  0  0  0  0  0  0  0
    8.5750  -15.2971   24.5780 C   0  0  1  0  0  0  0  0  0  0  0  0
    7.3184  -15.2717   25.4472 C   0  0  0  0  0  0  0  0  0  0  0  0
    7.0149  -13.8853   25.8875 C   0  0  0  0  0  0  0  0  0  0  0  0
    8.0284  -12.9676   26.1008 C   0  0  0  0  0  0  0  0  0  0  0  0
    7.8037  -11.6845   26.5047 C   0  0  0  0  0  0  0  0  0  0  0  0
    6.4962  -11.2703   26.7146 C   0  0  0  0  0  0  0  0  0  0  0  0
    5.4705  -12.1436   26.5156 C   0  0  0  0  0  0  0  0  0  0  0  0
    5.7277  -13.4412   26.1052 C   0  0  0  0  0  0  0  0  0  0  0  0
    9.2329  -16.6169   24.8025 C   0  0  0  0  0  0  0  0  0  0  0  0
    9.5198  -16.9274   25.9815 O   0  0  0  0  0  0  0  0  0  0  0  0
    9.5326  -17.5011   23.7523 N   0  0  0  0  0  0  0  0  0  0  0  0
   10.0990  -18.7886   24.0285 C   0  0  0  0  0  0  0  0  0  0  0  0
   11.5839  -18.7788   23.7768 C   0  0  0  0  0  0  0  0  0  0  0  0
   12.3029  -19.9534   23.7417 O   0  0  0  0  0  0  0  0  0  0  0  0
   12.1726  -17.6842   23.5966 O   0  0  0  0  0  0  0  0  0  0  0  0
  1  2  1  0
  3  2  1  0
  4  5  1  0
  4  3  1  0
  5  1  1  0
  6  8  1  0
  5  6  1  1
  7  6  2  0
  9  8  1  0
  9 10  1  1
 10 11  1  0
 11 12  2  0
 11 16  1  0
 12 13  1  0
 13 14  2  0
 15 14  1  0
 16 15  2  0
 17  9  1  0
 18 17  2  0
 19 17  1  0
 20 21  1  0
 20 19  1  0
 21 22  1  0
 23 21  2  0
M  END
$$$$
