PFG.pdb
     RDKit          3D

 23 24  0  0  1  0  0  0  0  0999 V2000
    7.3311  -15.0349   20.6553 N   0  0  0  0  0  0  0  0  0  0  0  0
    6.8528  -14.5007   19.3869 C   0  0  0  0  0  0  0  0  0  0  0  0
    7.1373  -13.0165   19.5028 C   0  0  0  0  0  0  0  0  0  0  0  0
    8.3731  -12.9484   20.3745 C   0  0  0  0  0  0  0  0  0  0  0  0
    8.6002  -14.3558   20.8297 C   0  0  1  0  0  0  0  0  0  0  0  0
    9.1083  -14.4867   22.2020 C   0  0  0  0  0  0  0  0  0  0  0  0
   10.2283  -14.0561   22.5690 O   0  0  0  0  0  0  0  0  0  0  0  0
    8.3147  -15.1292   23.1881 N   0  0  0  0  0  0  0  0  0  0  0  0
    8.7765  -15.1971   24.5651 C   0  0  1  0  0  0  0  0  0  0  0  0
    7.5520  -15.2016   25.4793 C   0  0  0  0  0  0  0  0  0  0  0  0
    7.1533  -13.8127   25.8264 C   0  0  0  0  0  0  0  0  0  0  0  0
    8.0879  -12.7932   25.8704 C   0  0  0  0  0  0  0  0  0  0  0  0
    7.7743  -11.5033   26.1830 C   0  0  0  0  0  0  0  0  0  0  0  0
    6.4544  -11.1889   26.4726 C   0  0  0  0  0  0  0  0  0  0  0  0
    5.5046  -12.1641   26.4401 C   0  0  0  0  0  0  0  0  0  0  0  0
    5.8512  -13.4662   26.1194 C   0  0  0  0  0  0  0  0  0  0  0  0
    9.5130  -16.4695   24.8180 C   0  0  0  0  0  0  0  0  0  0  0  0
    9.8661  -16.7096   25.9955 O   0  0  0  0  0  0  0  0  0  0  0  0
    9.8146  -17.3849   23.7954 N   0  0  0  0  0  0  0  0  0  0  0  0
   10.4431  -18.6355   24.1048 C   0  0  0  0  0  0  0  0  0  0  0  0
   11.9033  -18.5994   23.7376 C   0  0  0  0  0  0  0  0  0  0  0  0
   12.7602  -17.7001   24.3334 O   0  0  0  0  0  0  0  0  0  0  0  0
   12.3437  -19.4005   22.8765 O   0  0  0  0  0  0  0  0  0  0  0  0
  1  2  1  0
  3  2  1  0
  4  5  1  0
  4  3  1  0
  5  1  1  0
  6  8  1  0
  5  6  1  1
  7  6  2  0
  9  8  1  0
  9 10  1  1
 10 11  1  0
 11 12  2  0
 11 16  1  0
 12 13  1  0
 13 14  2  0
 15 14  1  0
 16 15  2  0
 17  9  1  0
 18 17  2  0
 19 17  1  0
 20 21  1  0
 20 19  1  0
 21 22  1  0
 23 21  2  0
M  END
$$$$
