PFG.pdb
     RDKit          3D

 23 24  0  0  1  0  0  0  0  0999 V2000
    7.3262  -14.9999   20.6654 N   0  0  0  0  0  0  0  0  0  0  0  0
    6.9429  -14.4121   19.3884 C   0  0  0  0  0  0  0  0  0  0  0  0
    7.1828  -12.9305   19.5992 C   0  0  0  0  0  0  0  0  0  0  0  0
    8.3401  -12.8830   20.5740 C   0  0  0  0  0  0  0  0  0  0  0  0
    8.5606  -14.3068   20.9783 C   0  0  1  0  0  0  0  0  0  0  0  0
    8.9558  -14.4965   22.3806 C   0  0  0  0  0  0  0  0  0  0  0  0
   10.0287  -14.0590   22.8622 O   0  0  0  0  0  0  0  0  0  0  0  0
    8.1010  -15.2080   23.2627 N   0  0  0  0  0  0  0  0  0  0  0  0
    8.4823  -15.3972   24.6530 C   0  0  1  0  0  0  0  0  0  0  0  0
    7.2232  -15.2884   25.5121 C   0  0  0  0  0  0  0  0  0  0  0  0
    7.0328  -13.8931   25.9867 C   0  0  0  0  0  0  0  0  0  0  0  0
    8.0658  -13.1992   26.5918 C   0  0  0  0  0  0  0  0  0  0  0  0
    7.9432  -11.9185   27.0444 C   0  0  0  0  0  0  0  0  0  0  0  0
    6.7249  -11.2717   26.8947 C   0  0  0  0  0  0  0  0  0  0  0  0
    5.6834  -11.9205   26.3042 C   0  0  0  0  0  0  0  0  0  0  0  0
    5.8360  -13.2213   25.8536 C   0  0  0  0  0  0  0  0  0  0  0  0
    9.0413  -16.7629   24.8711 C   0  0  0  0  0  0  0  0  0  0  0  0
    8.3078  -17.6045   25.4391 O   0  0  0  0  0  0  0  0  0  0  0  0
   10.3378  -17.1231   24.4663 N   0  0  0  0  0  0  0  0  0  0  0  0
   10.8093  -18.4636   24.6547 C   0  0  0  0  0  0  0  0  0  0  0  0
   12.1780  -18.6333   24.0494 C   0  0  0  0  0  0  0  0  0  0  0  0
   12.8774  -19.8104   24.2016 O   0  0  0  0  0  0  0  0  0  0  0  0
   12.6867  -17.6880   23.3976 O   0  0  0  0  0  0  0  0  0  0  0  0
  1  2  1  0
  3  2  1  0
  4  5  1  0
  4  3  1  0
  5  1  1  0
  6  8  1  0
  5  6  1  1
  7  6  2  0
  9  8  1  0
  9 10  1  1
 10 11  1  0
 11 12  2  0
 11 16  1  0
 12 13  1  0
 13 14  2  0
 15 14  1  0
 16 15  2  0
 17  9  1  0
 18 17  2  0
 19 17  1  0
 20 21  1  0
 20 19  1  0
 21 22  1  0
 23 21  2  0
M  END
$$$$
