PFG.pdb
     RDKit          3D

 23 24  0  0  1  0  0  0  0  0999 V2000
    7.3340  -14.9616   20.5824 N   0  0  0  0  0  0  0  0  0  0  0  0
    6.9115  -14.3753   19.3172 C   0  0  0  0  0  0  0  0  0  0  0  0
    7.2052  -12.8996   19.4999 C   0  0  0  0  0  0  0  0  0  0  0  0
    8.4060  -12.8776   20.4215 C   0  0  0  0  0  0  0  0  0  0  0  0
    8.6016  -14.3034   20.8319 C   0  0  1  0  0  0  0  0  0  0  0  0
    9.0536  -14.4908   22.2172 C   0  0  0  0  0  0  0  0  0  0  0  0
   10.1614  -14.0848   22.6444 O   0  0  0  0  0  0  0  0  0  0  0  0
    8.2164  -15.1628   23.1460 N   0  0  0  0  0  0  0  0  0  0  0  0
    8.5666  -15.1893   24.5569 C   0  0  1  0  0  0  0  0  0  0  0  0
    7.2729  -15.1699   25.3700 C   0  0  0  0  0  0  0  0  0  0  0  0
    7.0162  -13.8103   25.9122 C   0  0  0  0  0  0  0  0  0  0  0  0
    8.0512  -13.0286   26.3945 C   0  0  0  0  0  0  0  0  0  0  0  0
    7.8694  -11.7758   26.9019 C   0  0  0  0  0  0  0  0  0  0  0  0
    6.5855  -11.2513   26.9401 C   0  0  0  0  0  0  0  0  0  0  0  0
    5.5398  -11.9891   26.4749 C   0  0  0  0  0  0  0  0  0  0  0  0
    5.7534  -13.2590   25.9648 C   0  0  0  0  0  0  0  0  0  0  0  0
    9.2804  -16.4520   24.9051 C   0  0  0  0  0  0  0  0  0  0  0  0
    9.5761  -16.6369   26.1081 O   0  0  0  0  0  0  0  0  0  0  0  0
    9.6225  -17.4175   23.9431 N   0  0  0  0  0  0  0  0  0  0  0  0
   10.2166  -18.6594   24.3425 C   0  0  0  0  0  0  0  0  0  0  0  0
   11.5043  -18.8940   23.5974 C   0  0  0  0  0  0  0  0  0  0  0  0
   12.6174  -18.1221   23.8485 O   0  0  0  0  0  0  0  0  0  0  0  0
   11.5621  -19.8061   22.7359 O   0  0  0  0  0  0  0  0  0  0  0  0
  1  2  1  0
  3  2  1  0
  4  5  1  0
  4  3  1  0
  5  1  1  0
  6  8  1  0
  5  6  1  1
  7  6  2  0
  9  8  1  0
  9 10  1  1
 10 11  1  0
 11 12  2  0
 11 16  1  0
 12 13  1  0
 13 14  2  0
 15 14  1  0
 16 15  2  0
 17  9  1  0
 18 17  2  0
 19 17  1  0
 20 21  1  0
 20 19  1  0
 21 22  1  0
 23 21  2  0
M  END
$$$$
