PFG.pdb
     RDKit          3D

 23 24  0  0  1  0  0  0  0  0999 V2000
    7.0542  -14.9389   20.7259 N   0  0  0  0  0  0  0  0  0  0  0  0
    6.4784  -14.3326   19.5325 C   0  0  0  0  0  0  0  0  0  0  0  0
    6.8884  -12.8779   19.6465 C   0  0  0  0  0  0  0  0  0  0  0  0
    8.2164  -12.9285   20.3716 C   0  0  0  0  0  0  0  0  0  0  0  0
    8.3837  -14.3619   20.7675 C   0  0  1  0  0  0  0  0  0  0  0  0
    9.0319  -14.5715   22.0692 C   0  0  0  0  0  0  0  0  0  0  0  0
   10.2227  -14.2558   22.3078 O   0  0  0  0  0  0  0  0  0  0  0  0
    8.2999  -15.1601   23.1335 N   0  0  0  0  0  0  0  0  0  0  0  0
    8.9076  -15.2993   24.4470 C   0  0  1  0  0  0  0  0  0  0  0  0
    7.7895  -15.3424   25.4878 C   0  0  0  0  0  0  0  0  0  0  0  0
    7.3512  -13.9673   25.8418 C   0  0  0  0  0  0  0  0  0  0  0  0
    6.0490  -13.5553   25.6194 C   0  0  0  0  0  0  0  0  0  0  0  0
    5.5965  -12.3058   25.9258 C   0  0  0  0  0  0  0  0  0  0  0  0
    6.4796  -11.3959   26.4892 C   0  0  0  0  0  0  0  0  0  0  0  0
    7.7698  -11.7629   26.7239 C   0  0  0  0  0  0  0  0  0  0  0  0
    8.2024  -13.0388   26.4027 C   0  0  0  0  0  0  0  0  0  0  0  0
    9.6530  -16.5869   24.5555 C   0  0  0  0  0  0  0  0  0  0  0  0
    8.9857  -17.6260   24.7650 O   0  0  0  0  0  0  0  0  0  0  0  0
   11.0505  -16.6646   24.4320 N   0  0  0  0  0  0  0  0  0  0  0  0
   11.7102  -17.9371   24.4540 C   0  0  0  0  0  0  0  0  0  0  0  0
   13.2017  -17.7623   24.3396 C   0  0  0  0  0  0  0  0  0  0  0  0
   14.0635  -18.7568   24.7472 O   0  0  0  0  0  0  0  0  0  0  0  0
   13.6641  -16.6949   23.8661 O   0  0  0  0  0  0  0  0  0  0  0  0
  1  2  1  0
  3  2  1  0
  4  5  1  0
  4  3  1  0
  5  1  1  0
  6  8  1  0
  5  6  1  1
  7  6  2  0
  9  8  1  0
  9 10  1  1
 10 11  1  0
 11 12  2  0
 11 16  1  0
 12 13  1  0
 13 14  2  0
 15 14  1  0
 16 15  2  0
 17  9  1  0
 18 17  2  0
 19 17  1  0
 20 21  1  0
 20 19  1  0
 21 22  1  0
 23 21  2  0
M  END
$$$$
