PFG.pdb
     RDKit          3D

 23 24  0  0  1  0  0  0  0  0999 V2000
    7.5819  -15.0629   20.8299 N   0  0  0  0  0  0  0  0  0  0  0  0
    7.1363  -14.5649   19.5351 C   0  0  0  0  0  0  0  0  0  0  0  0
    7.4010  -13.0751   19.6232 C   0  0  0  0  0  0  0  0  0  0  0  0
    8.6092  -12.9719   20.5295 C   0  0  0  0  0  0  0  0  0  0  0  0
    8.8378  -14.3652   21.0254 C   0  0  1  0  0  0  0  0  0  0  0  0
    9.3057  -14.4571   22.4150 C   0  0  0  0  0  0  0  0  0  0  0  0
   10.4022  -13.9904   22.8081 O   0  0  0  0  0  0  0  0  0  0  0  0
    8.4983  -15.1019   23.3885 N   0  0  0  0  0  0  0  0  0  0  0  0
    8.9367  -15.1654   24.7733 C   0  0  1  0  0  0  0  0  0  0  0  0
    7.6975  -15.1476   25.6673 C   0  0  0  0  0  0  0  0  0  0  0  0
    7.3432  -13.7540   26.0425 C   0  0  0  0  0  0  0  0  0  0  0  0
    6.0265  -13.3282   26.0394 C   0  0  0  0  0  0  0  0  0  0  0  0
    5.6486  -12.0615   26.3750 C   0  0  0  0  0  0  0  0  0  0  0  0
    6.6271  -11.1477   26.7390 C   0  0  0  0  0  0  0  0  0  0  0  0
    7.9346  -11.5278   26.7547 C   0  0  0  0  0  0  0  0  0  0  0  0
    8.2901  -12.8211   26.4091 C   0  0  0  0  0  0  0  0  0  0  0  0
    9.6527  -16.4451   25.0474 C   0  0  0  0  0  0  0  0  0  0  0  0
    9.9489  -16.6990   26.2376 O   0  0  0  0  0  0  0  0  0  0  0  0
    9.9959  -17.3524   24.0308 N   0  0  0  0  0  0  0  0  0  0  0  0
   10.6705  -18.5764   24.3498 C   0  0  0  0  0  0  0  0  0  0  0  0
   12.0581  -18.5842   23.7643 C   0  0  0  0  0  0  0  0  0  0  0  0
   12.7071  -19.7702   23.4992 O   0  0  0  0  0  0  0  0  0  0  0  0
   12.6296  -17.4940   23.5152 O   0  0  0  0  0  0  0  0  0  0  0  0
  1  2  1  0
  3  2  1  0
  4  5  1  0
  4  3  1  0
  5  1  1  0
  6  8  1  0
  5  6  1  1
  7  6  2  0
  9  8  1  0
  9 10  1  1
 10 11  1  0
 11 12  2  0
 11 16  1  0
 12 13  1  0
 13 14  2  0
 15 14  1  0
 16 15  2  0
 17  9  1  0
 18 17  2  0
 19 17  1  0
 20 21  1  0
 20 19  1  0
 21 22  1  0
 23 21  2  0
M  END
$$$$
