ATC.pdb
     RDKit          3D

 19 18  0  0  1  0  0  0  0  0999 V2000
    8.7443  -12.1955   19.4099 C   0  0  0  0  0  0  0  0  0  0  0  0
    8.6769  -13.7083   19.2247 C   0  0  2  0  0  0  0  0  0  0  0  0
    7.9221  -14.0602   18.0467 N   0  0  0  0  0  0  0  0  0  0  0  0
    8.0309  -14.3030   20.4227 C   0  0  0  0  0  0  0  0  0  0  0  0
    6.7815  -14.2686   20.5543 O   0  0  0  0  0  0  0  0  0  0  0  0
    7.6203  -17.5289   21.4754 C   0  0  0  0  0  0  0  0  0  0  0  0
    8.4557  -16.9831   22.6289 C   0  0  1  0  0  0  0  0  0  0  0  0
    9.8055  -17.2690   22.4391 O   0  0  0  0  0  0  0  0  0  0  0  0
    8.2620  -15.4673   22.6563 C   0  0  2  0  0  0  0  0  0  0  0  0
    8.7992  -14.9225   21.4455 N   0  0  0  0  0  0  0  0  0  0  0  0
    8.9151  -14.9529   23.8738 C   0  0  0  0  0  0  0  0  0  0  0  0
   10.1171  -14.6057   23.9710 O   0  0  0  0  0  0  0  0  0  0  0  0
    8.1342  -14.8310   25.0529 N   0  0  0  0  0  0  0  0  0  0  0  0
    8.6790  -14.3318   26.2621 C   0  0  1  0  0  0  0  0  0  0  0  0
    7.7167  -13.6220   27.1569 C   0  0  0  0  0  0  0  0  0  0  0  0
    7.0897  -12.1653   26.2788 S   0  0  0  0  0  0  0  0  0  0  0  0
    9.2591  -15.4667   27.0209 C   0  0  0  0  0  0  0  0  0  0  0  0
    9.9769  -15.2401   28.2079 O   0  0  0  0  0  0  0  0  0  0  0  0
    9.1211  -16.6407   26.6208 O   0  0  0  0  0  0  0  0  0  0  0  0
  2  3  1  0
  2  4  1  0
  2  1  1  1
  4 10  1  0
  5  4  2  0
  7  8  1  0
  7  6  1  6
  9  7  1  0
  9 10  1  6
 11 13  1  0
 11  9  1  0
 12 11  2  0
 14 13  1  0
 14 17  1  0
 14 15  1  1
 16 15  1  0
 17 18  1  0
 19 17  2  0
M  END
$$$$
