ATC.pdb
     RDKit          3D

 19 18  0  0  1  0  0  0  0  0999 V2000
   13.8899  -20.9930   17.5370 C   0  0  0  0  0  0  0  0  0  0  0  0
   12.6922  -20.2381   16.9686 C   0  0  2  0  0  0  0  0  0  0  0  0
   13.0153  -19.6116   15.7098 N   0  0  0  0  0  0  0  0  0  0  0  0
   12.2801  -19.1996   17.9471 C   0  0  0  0  0  0  0  0  0  0  0  0
   12.8226  -18.0659   17.9376 O   0  0  0  0  0  0  0  0  0  0  0  0
    8.8055  -18.2148   18.2960 C   0  0  0  0  0  0  0  0  0  0  0  0
    9.2035  -18.5449   19.7309 C   0  0  1  0  0  0  0  0  0  0  0  0
    8.7839  -19.8271   20.0767 O   0  0  0  0  0  0  0  0  0  0  0  0
   10.7284  -18.4767   19.8094 C   0  0  2  0  0  0  0  0  0  0  0  0
   11.2698  -19.4547   18.9139 N   0  0  0  0  0  0  0  0  0  0  0  0
   11.1156  -18.6884   21.2161 C   0  0  0  0  0  0  0  0  0  0  0  0
   11.5514  -19.7592   21.7042 O   0  0  0  0  0  0  0  0  0  0  0  0
   10.9929  -17.5979   22.1164 N   0  0  0  0  0  0  0  0  0  0  0  0
   11.2785  -17.7333   23.4979 C   0  0  1  0  0  0  0  0  0  0  0  0
   11.5802  -16.4614   24.2203 C   0  0  0  0  0  0  0  0  0  0  0  0
   13.0293  -15.6957   23.4459 S   0  0  0  0  0  0  0  0  0  0  0  0
   10.1136  -18.3709   24.1590 C   0  0  0  0  0  0  0  0  0  0  0  0
   10.2239  -18.8817   25.4638 O   0  0  0  0  0  0  0  0  0  0  0  0
    9.0171  -18.4655   23.5708 O   0  0  0  0  0  0  0  0  0  0  0  0
  2  3  1  0
  2  4  1  0
  2  1  1  1
  4 10  1  0
  5  4  2  0
  7  8  1  0
  7  6  1  6
  9  7  1  0
  9 10  1  6
 11 13  1  0
 11  9  1  0
 12 11  2  0
 14 13  1  0
 14 17  1  0
 14 15  1  1
 16 15  1  0
 17 18  1  0
 19 17  2  0
M  END
$$$$
