ATC.pdb
     RDKit          3D

 19 18  0  0  1  0  0  0  0  0999 V2000
    3.3038  -17.8209   22.2470 C   0  0  0  0  0  0  0  0  0  0  0  0
    4.4754  -18.4385   21.4897 C   0  0  2  0  0  0  0  0  0  0  0  0
    4.3783  -19.8775   21.4547 N   0  0  0  0  0  0  0  0  0  0  0  0
    5.7370  -18.0437   22.1670 C   0  0  0  0  0  0  0  0  0  0  0  0
    6.1788  -18.7178   23.1313 O   0  0  0  0  0  0  0  0  0  0  0  0
    8.8422  -17.1032   20.2828 C   0  0  0  0  0  0  0  0  0  0  0  0
    8.6193  -15.9455   21.2505 C   0  0  1  0  0  0  0  0  0  0  0  0
    8.0216  -14.8679   20.6015 O   0  0  0  0  0  0  0  0  0  0  0  0
    7.6889  -16.4459   22.3551 C   0  0  2  0  0  0  0  0  0  0  0  0
    6.4745  -16.9029   21.7485 N   0  0  0  0  0  0  0  0  0  0  0  0
    7.4901  -15.3404   23.3099 C   0  0  0  0  0  0  0  0  0  0  0  0
    6.6837  -14.3886   23.1733 O   0  0  0  0  0  0  0  0  0  0  0  0
    8.2693  -15.3312   24.4963 N   0  0  0  0  0  0  0  0  0  0  0  0
    8.2231  -14.2512   25.4128 C   0  0  1  0  0  0  0  0  0  0  0  0
    6.8806  -13.9627   26.0002 C   0  0  0  0  0  0  0  0  0  0  0  0
    7.0598  -12.6124   27.1963 S   0  0  0  0  0  0  0  0  0  0  0  0
    9.1590  -14.5390   26.5270 C   0  0  0  0  0  0  0  0  0  0  0  0
    9.4302  -13.5639   27.5022 O   0  0  0  0  0  0  0  0  0  0  0  0
    9.7215  -15.6492   26.6192 O   0  0  0  0  0  0  0  0  0  0  0  0
  2  3  1  0
  2  4  1  0
  2  1  1  1
  4 10  1  0
  5  4  2  0
  7  8  1  0
  7  6  1  6
  9  7  1  0
  9 10  1  6
 11 13  1  0
 11  9  1  0
 12 11  2  0
 14 13  1  0
 14 17  1  0
 14 15  1  1
 16 15  1  0
 17 18  1  0
 19 17  2  0
M  END
$$$$
