ATC.pdb
     RDKit          3D

 19 18  0  0  1  0  0  0  0  0999 V2000
   14.1276  -18.5612   16.1586 C   0  0  0  0  0  0  0  0  0  0  0  0
   12.9252  -17.9149   15.4775 C   0  0  2  0  0  0  0  0  0  0  0  0
   13.3343  -17.0601   14.3897 N   0  0  0  0  0  0  0  0  0  0  0  0
   12.1850  -17.1136   16.4855 C   0  0  0  0  0  0  0  0  0  0  0  0
   12.5342  -15.9335   16.7407 O   0  0  0  0  0  0  0  0  0  0  0  0
    8.3229  -17.2483   16.8191 C   0  0  0  0  0  0  0  0  0  0  0  0
    8.9037  -17.5000   18.2067 C   0  0  1  0  0  0  0  0  0  0  0  0
    8.9214  -18.8626   18.4945 O   0  0  0  0  0  0  0  0  0  0  0  0
   10.3364  -16.9677   18.2059 C   0  0  2  0  0  0  0  0  0  0  0  0
   11.0708  -17.6525   17.1845 N   0  0  0  0  0  0  0  0  0  0  0  0
   10.8887  -17.1625   19.5589 C   0  0  0  0  0  0  0  0  0  0  0  0
   11.7387  -18.0252   19.8875 O   0  0  0  0  0  0  0  0  0  0  0  0
   10.4329  -16.3097   20.5980 N   0  0  0  0  0  0  0  0  0  0  0  0
   10.9160  -16.4245   21.9254 C   0  0  1  0  0  0  0  0  0  0  0  0
   10.3965  -15.4090   22.8894 C   0  0  0  0  0  0  0  0  0  0  0  0
   11.2109  -15.6708   24.4876 S   0  0  0  0  0  0  0  0  0  0  0  0
   10.5614  -17.7695   22.4407 C   0  0  0  0  0  0  0  0  0  0  0  0
   11.5196  -18.5566   23.1024 O   0  0  0  0  0  0  0  0  0  0  0  0
    9.4089  -18.2262   22.2967 O   0  0  0  0  0  0  0  0  0  0  0  0
  2  3  1  0
  2  4  1  0
  2  1  1  1
  4 10  1  0
  5  4  2  0
  7  8  1  0
  7  6  1  6
  9  7  1  0
  9 10  1  6
 11 13  1  0
 11  9  1  0
 12 11  2  0
 14 13  1  0
 14 17  1  0
 14 15  1  1
 16 15  1  0
 17 18  1  0
 19 17  2  0
M  END
$$$$
