ATC.pdb
     RDKit          3D

 19 18  0  0  1  0  0  0  0  0999 V2000
    4.5386  -23.0430   22.0095 C   0  0  0  0  0  0  0  0  0  0  0  0
    3.6954  -21.8941   21.4650 C   0  0  2  0  0  0  0  0  0  0  0  0
    4.5245  -20.8155   20.9849 N   0  0  0  0  0  0  0  0  0  0  0  0
    2.8160  -21.3958   22.5534 C   0  0  0  0  0  0  0  0  0  0  0  0
    3.2650  -20.6071   23.4228 O   0  0  0  0  0  0  0  0  0  0  0  0
   -0.3215  -19.6621   21.9827 C   0  0  0  0  0  0  0  0  0  0  0  0
   -0.7319  -20.8274   22.8771 C   0  0  1  0  0  0  0  0  0  0  0  0
   -1.2422  -21.8770   22.1170 O   0  0  0  0  0  0  0  0  0  0  0  0
    0.5209  -21.3023   23.6126 C   0  0  2  0  0  0  0  0  0  0  0  0
    1.4541  -21.7926   22.6429 N   0  0  0  0  0  0  0  0  0  0  0  0
    0.1060  -22.3187   24.5965 C   0  0  0  0  0  0  0  0  0  0  0  0
    0.3362  -23.5501   24.5213 O   0  0  0  0  0  0  0  0  0  0  0  0
   -0.6196  -21.8894   25.7385 N   0  0  0  0  0  0  0  0  0  0  0  0
   -1.0269  -22.7950   26.7496 C   0  0  1  0  0  0  0  0  0  0  0  0
   -0.4629  -22.5385   28.1085 C   0  0  0  0  0  0  0  0  0  0  0  0
   -1.2248  -23.7021   29.2711 S   0  0  0  0  0  0  0  0  0  0  0  0
   -2.5061  -22.7526   26.8515 C   0  0  0  0  0  0  0  0  0  0  0  0
   -3.2199  -23.8562   27.3495 O   0  0  0  0  0  0  0  0  0  0  0  0
   -3.1427  -21.7391   26.4979 O   0  0  0  0  0  0  0  0  0  0  0  0
  2  3  1  0
  2  4  1  0
  2  1  1  1
  4 10  1  0
  5  4  2  0
  7  8  1  0
  7  6  1  6
  9  7  1  0
  9 10  1  6
 11 13  1  0
 11  9  1  0
 12 11  2  0
 14 13  1  0
 14 17  1  0
 14 15  1  1
 16 15  1  0
 17 18  1  0
 19 17  2  0
M  END
$$$$
