TWI.pdb
     RDKit          3D

 30 31  0  0  1  0  0  0  0  0999 V2000
   10.8796  -20.9173   20.1901 C   0  0  0  0  0  0  0  0  0  0  0  0
   10.8081  -19.7934   21.1989 C   0  0  1  0  0  0  0  0  0  0  0  0
   11.8852  -19.9184   22.0649 O   0  0  0  0  0  0  0  0  0  0  0  0
   10.7613  -18.4300   20.5169 C   0  0  2  0  0  0  0  0  0  0  0  0
   11.9129  -18.1822   19.6981 N   0  0  0  0  0  0  0  0  0  0  0  0
   10.6278  -17.3842   21.5863 C   0  0  0  0  0  0  0  0  0  0  0  0
   11.6287  -16.7179   21.8669 O   0  0  0  0  0  0  0  0  0  0  0  0
    9.4109  -17.1484   22.2631 N   0  0  0  0  0  0  0  0  0  0  0  0
    9.1833  -16.0781   23.2305 C   0  0  1  0  0  0  0  0  0  0  0  0
    7.9402  -15.3287   22.9349 C   0  0  0  0  0  0  0  0  0  0  0  0
    7.7299  -14.0648   23.6191 C   0  0  0  0  0  0  0  0  0  0  0  0
    8.2336  -12.8484   23.2095 C   0  0  0  0  0  0  0  0  0  0  0  0
    7.8096  -11.9074   24.0565 N   0  0  0  0  0  0  0  0  0  0  0  0
    7.0317  -12.4583   25.0292 C   0  0  0  0  0  0  0  0  0  0  0  0
    6.3878  -11.8929   26.1115 C   0  0  0  0  0  0  0  0  0  0  0  0
    5.6681  -12.7216   26.9505 C   0  0  0  0  0  0  0  0  0  0  0  0
    5.6019  -14.0823   26.7022 C   0  0  0  0  0  0  0  0  0  0  0  0
    6.2562  -14.6123   25.6129 C   0  0  0  0  0  0  0  0  0  0  0  0
    6.9947  -13.8034   24.7395 C   0  0  0  0  0  0  0  0  0  0  0  0
    9.5357  -16.4509   24.5863 C   0  0  0  0  0  0  0  0  0  0  0  0
    8.9893  -17.4709   25.1694 O   0  0  0  0  0  0  0  0  0  0  0  0
   10.0455  -12.7252   28.2674 C   0  0  0  0  0  0  0  0  0  0  0  0
   10.6399  -13.7545   27.3374 C   0  0  0  0  0  0  0  0  0  0  0  0
   10.1339  -15.1212   27.7369 C   0  0  2  0  0  0  0  0  0  0  0  0
   10.6586  -15.3982   29.1140 C   0  0  0  0  0  0  0  0  0  0  0  0
   10.7403  -16.1876   26.7887 C   0  0  2  0  0  0  0  0  0  0  0  0
   10.4864  -15.7990   25.4245 N   0  0  0  0  0  0  0  0  0  0  0  0
   10.3749  -17.5125   27.2053 C   0  0  0  0  0  0  0  0  0  0  0  0
   11.2420  -18.1837   28.0922 O   0  0  0  0  0  0  0  0  0  0  0  0
    9.3652  -18.1429   26.8677 O   0  0  0  0  0  0  0  0  0  0  0  0
  2  3  1  0
  2  1  1  6
  4  2  1  0
  4  5  1  1
  6  4  1  0
  6  8  1  0
  7  6  2  0
  9  8  1  0
 10 11  1  0
  9 10  1  1
 11 19  1  0
 12 11  2  0
 12 13  1  0
 13 14  1  0
 14 15  1  0
 15 16  2  0
 17 16  1  0
 18 17  2  0
 19 14  2  0
 19 18  1  0
 20  9  1  0
 21 20  2  0
 22 23  1  0
 23 24  1  0
 24 26  1  0
 24 25  1  1
 26 27  1  6
 26 28  1  0
 27 20  1  0
 28 29  1  0
 30 28  2  0
M  END
$$$$
