TWI.pdb
     RDKit          3D

 30 31  0  0  1  0  0  0  0  0999 V2000
   12.3783  -19.0511   19.4532 C   0  0  0  0  0  0  0  0  0  0  0  0
   11.9033  -18.2861   20.6678 C   0  0  1  0  0  0  0  0  0  0  0  0
   12.8838  -18.3724   21.6460 O   0  0  0  0  0  0  0  0  0  0  0  0
   11.5503  -16.8438   20.3193 C   0  0  2  0  0  0  0  0  0  0  0  0
   12.6602  -16.1214   19.7678 N   0  0  0  0  0  0  0  0  0  0  0  0
   11.0436  -16.1791   21.5668 C   0  0  0  0  0  0  0  0  0  0  0  0
   11.8021  -15.4000   22.1517 O   0  0  0  0  0  0  0  0  0  0  0  0
    9.7478  -16.4171   22.0754 N   0  0  0  0  0  0  0  0  0  0  0  0
    9.2008  -15.8185   23.2902 C   0  0  1  0  0  0  0  0  0  0  0  0
    7.7445  -15.5743   23.1719 C   0  0  0  0  0  0  0  0  0  0  0  0
    7.0493  -15.0385   24.3292 C   0  0  0  0  0  0  0  0  0  0  0  0
    6.3200  -15.7842   25.2310 C   0  0  0  0  0  0  0  0  0  0  0  0
    5.8558  -14.9668   26.1792 N   0  0  0  0  0  0  0  0  0  0  0  0
    6.2531  -13.6864   25.9400 C   0  0  0  0  0  0  0  0  0  0  0  0
    6.0143  -12.5136   26.6280 C   0  0  0  0  0  0  0  0  0  0  0  0
    6.5477  -11.3415   26.1276 C   0  0  0  0  0  0  0  0  0  0  0  0
    7.3002  -11.3552   24.9652 C   0  0  0  0  0  0  0  0  0  0  0  0
    7.5189  -12.5434   24.3049 C   0  0  0  0  0  0  0  0  0  0  0  0
    6.9952  -13.7518   24.7826 C   0  0  0  0  0  0  0  0  0  0  0  0
    9.7790  -16.3616   24.5034 C   0  0  0  0  0  0  0  0  0  0  0  0
   10.2647  -17.5623   24.5407 O   0  0  0  0  0  0  0  0  0  0  0  0
   10.1942  -13.0202   28.8574 C   0  0  0  0  0  0  0  0  0  0  0  0
   10.6211  -13.9642   27.7600 C   0  0  0  0  0  0  0  0  0  0  0  0
   10.2284  -15.3708   28.1480 C   0  0  2  0  0  0  0  0  0  0  0  0
   11.1709  -15.8070   29.2295 C   0  0  0  0  0  0  0  0  0  0  0  0
   10.4468  -16.3145   26.9371 C   0  0  2  0  0  0  0  0  0  0  0  0
    9.9036  -15.6929   25.7559 N   0  0  0  0  0  0  0  0  0  0  0  0
   10.0464  -17.6568   27.2534 C   0  0  0  0  0  0  0  0  0  0  0  0
    8.7443  -18.0563   26.8876 O   0  0  0  0  0  0  0  0  0  0  0  0
   10.7288  -18.5189   27.8209 O   0  0  0  0  0  0  0  0  0  0  0  0
  2  3  1  0
  2  1  1  6
  4  2  1  0
  4  5  1  1
  6  4  1  0
  6  8  1  0
  7  6  2  0
  9  8  1  0
 10 11  1  0
  9 10  1  1
 11 19  1  0
 12 11  2  0
 12 13  1  0
 13 14  1  0
 14 15  1  0
 15 16  2  0
 17 16  1  0
 18 17  2  0
 19 14  2  0
 19 18  1  0
 20  9  1  0
 21 20  2  0
 22 23  1  0
 23 24  1  0
 24 26  1  0
 24 25  1  1
 26 27  1  6
 26 28  1  0
 27 20  1  0
 28 29  1  0
 30 28  2  0
M  END
$$$$
