TWI.pdb
     RDKit          3D

 30 31  0  0  1  0  0  0  0  0999 V2000
    6.1215  -22.5064   22.3869 C   0  0  0  0  0  0  0  0  0  0  0  0
    6.3444  -21.0269   22.6049 C   0  0  1  0  0  0  0  0  0  0  0  0
    6.5249  -20.4280   21.3663 O   0  0  0  0  0  0  0  0  0  0  0  0
    5.2026  -20.3987   23.3975 C   0  0  2  0  0  0  0  0  0  0  0  0
    3.9251  -20.5939   22.7747 N   0  0  0  0  0  0  0  0  0  0  0  0
    5.5036  -18.9364   23.5586 C   0  0  0  0  0  0  0  0  0  0  0  0
    5.0016  -18.1533   22.7467 O   0  0  0  0  0  0  0  0  0  0  0  0
    6.3279  -18.4455   24.5950 N   0  0  0  0  0  0  0  0  0  0  0  0
    6.7992  -17.0680   24.7103 C   0  0  1  0  0  0  0  0  0  0  0  0
    6.8526  -16.6243   26.1226 C   0  0  0  0  0  0  0  0  0  0  0  0
    7.0721  -15.2123   26.3834 C   0  0  0  0  0  0  0  0  0  0  0  0
    6.1399  -14.2158   26.1859 C   0  0  0  0  0  0  0  0  0  0  0  0
    6.6763  -13.0531   26.5644 N   0  0  0  0  0  0  0  0  0  0  0  0
    7.9488  -13.2394   27.0124 C   0  0  0  0  0  0  0  0  0  0  0  0
    8.8875  -12.3471   27.4903 C   0  0  0  0  0  0  0  0  0  0  0  0
   10.1235  -12.8366   27.8659 C   0  0  0  0  0  0  0  0  0  0  0  0
   10.4021  -14.1890   27.7610 C   0  0  0  0  0  0  0  0  0  0  0  0
    9.4418  -15.0507   27.2806 C   0  0  0  0  0  0  0  0  0  0  0  0
    8.1770  -14.5914   26.8911 C   0  0  0  0  0  0  0  0  0  0  0  0
    7.8629  -16.7496   23.7783 C   0  0  0  0  0  0  0  0  0  0  0  0
    8.8551  -17.5602   23.5842 O   0  0  0  0  0  0  0  0  0  0  0  0
    6.9358  -12.8961   19.9167 C   0  0  0  0  0  0  0  0  0  0  0  0
    7.2604  -14.1800   20.6405 C   0  0  0  0  0  0  0  0  0  0  0  0
    8.6698  -14.0924   21.1784 C   0  0  2  0  0  0  0  0  0  0  0  0
    9.5904  -14.0663   19.9951 C   0  0  0  0  0  0  0  0  0  0  0  0
    8.9899  -15.3781   21.9839 C   0  0  2  0  0  0  0  0  0  0  0  0
    7.9638  -15.5758   22.9763 N   0  0  0  0  0  0  0  0  0  0  0  0
   10.3634  -15.3929   22.4031 C   0  0  0  0  0  0  0  0  0  0  0  0
   11.3532  -15.4915   21.4032 O   0  0  0  0  0  0  0  0  0  0  0  0
   10.7840  -15.3267   23.5648 O   0  0  0  0  0  0  0  0  0  0  0  0
  2  3  1  0
  2  1  1  6
  4  2  1  0
  4  5  1  6
  6  4  1  0
  6  8  1  0
  7  6  2  0
  9  8  1  0
 10 11  1  0
  9 10  1  1
 11 19  1  0
 12 11  2  0
 12 13  1  0
 13 14  1  0
 14 15  1  0
 15 16  2  0
 17 16  1  0
 18 17  2  0
 19 14  2  0
 19 18  1  0
 20  9  1  0
 21 20  2  0
 22 23  1  0
 23 24  1  0
 24 26  1  0
 24 25  1  6
 26 27  1  1
 26 28  1  0
 27 20  1  0
 28 29  1  0
 30 28  2  0
M  END
$$$$
