TWI.pdb
     RDKit          3D

 30 31  0  0  1  0  0  0  0  0999 V2000
   12.7626  -19.3035   19.7014 C   0  0  0  0  0  0  0  0  0  0  0  0
   12.2038  -18.4057   20.7820 C   0  0  1  0  0  0  0  0  0  0  0  0
   13.2521  -18.0039   21.5977 O   0  0  0  0  0  0  0  0  0  0  0  0
   11.4379  -17.2266   20.1908 C   0  0  2  0  0  0  0  0  0  0  0  0
   12.2508  -16.4151   19.3312 N   0  0  0  0  0  0  0  0  0  0  0  0
   10.8868  -16.4176   21.3296 C   0  0  0  0  0  0  0  0  0  0  0  0
   11.5287  -15.4283   21.6954 O   0  0  0  0  0  0  0  0  0  0  0  0
    9.6774  -16.7526   21.9771 N   0  0  0  0  0  0  0  0  0  0  0  0
    9.1431  -16.0778   23.1571 C   0  0  1  0  0  0  0  0  0  0  0  0
    7.6727  -15.9175   23.0769 C   0  0  0  0  0  0  0  0  0  0  0  0
    6.9989  -15.2653   24.1862 C   0  0  0  0  0  0  0  0  0  0  0  0
    6.2945  -15.9145   25.1778 C   0  0  0  0  0  0  0  0  0  0  0  0
    5.8452  -15.0034   26.0442 N   0  0  0  0  0  0  0  0  0  0  0  0
    6.2282  -13.7536   25.6619 C   0  0  0  0  0  0  0  0  0  0  0  0
    5.9961  -12.5156   26.2269 C   0  0  0  0  0  0  0  0  0  0  0  0
    6.5102  -11.4008   25.5934 C   0  0  0  0  0  0  0  0  0  0  0  0
    7.2374  -11.5341   24.4225 C   0  0  0  0  0  0  0  0  0  0  0  0
    7.4502  -12.7846   23.8872 C   0  0  0  0  0  0  0  0  0  0  0  0
    6.9455  -13.9379   24.5017 C   0  0  0  0  0  0  0  0  0  0  0  0
    9.7923  -16.4831   24.3882 C   0  0  0  0  0  0  0  0  0  0  0  0
   10.3567  -17.6438   24.5030 O   0  0  0  0  0  0  0  0  0  0  0  0
    9.8560  -12.9276   28.6583 C   0  0  0  0  0  0  0  0  0  0  0  0
   10.3635  -13.8412   27.5695 C   0  0  0  0  0  0  0  0  0  0  0  0
   10.0889  -15.2727   27.9682 C   0  0  2  0  0  0  0  0  0  0  0  0
   10.9937  -15.5882   29.1215 C   0  0  0  0  0  0  0  0  0  0  0  0
   10.4846  -16.2130   26.8005 C   0  0  2  0  0  0  0  0  0  0  0  0
    9.9104  -15.7085   25.5788 N   0  0  0  0  0  0  0  0  0  0  0  0
   10.2595  -17.5877   27.1492 C   0  0  0  0  0  0  0  0  0  0  0  0
   11.3590  -18.3323   27.6245 O   0  0  0  0  0  0  0  0  0  0  0  0
    9.1888  -18.2039   27.0791 O   0  0  0  0  0  0  0  0  0  0  0  0
  2  3  1  0
  2  1  1  6
  4  2  1  0
  4  5  1  1
  6  4  1  0
  6  8  1  0
  7  6  2  0
  9  8  1  0
 10 11  1  0
  9 10  1  1
 11 19  1  0
 12 11  2  0
 12 13  1  0
 13 14  1  0
 14 15  1  0
 15 16  2  0
 17 16  1  0
 18 17  2  0
 19 14  2  0
 19 18  1  0
 20  9  1  0
 21 20  2  0
 22 23  1  0
 23 24  1  0
 24 26  1  0
 24 25  1  1
 26 27  1  6
 26 28  1  0
 27 20  1  0
 28 29  1  0
 30 28  2  0
M  END
$$$$
