TWI.pdb
     RDKit          3D

 30 31  0  0  1  0  0  0  0  0999 V2000
   10.8005  -21.1051   20.2847 C   0  0  0  0  0  0  0  0  0  0  0  0
   10.7176  -19.9062   21.2021 C   0  0  1  0  0  0  0  0  0  0  0  0
   11.8396  -19.9059   22.0185 O   0  0  0  0  0  0  0  0  0  0  0  0
   10.5662  -18.6080   20.4158 C   0  0  2  0  0  0  0  0  0  0  0  0
   11.6544  -18.3815   19.5089 N   0  0  0  0  0  0  0  0  0  0  0  0
   10.4467  -17.4827   21.4030 C   0  0  0  0  0  0  0  0  0  0  0  0
   11.4415  -16.7763   21.5925 O   0  0  0  0  0  0  0  0  0  0  0  0
    9.2494  -17.2175   22.1034 N   0  0  0  0  0  0  0  0  0  0  0  0
    9.0873  -16.1889   23.1275 C   0  0  1  0  0  0  0  0  0  0  0  0
    7.8391  -15.4154   22.9333 C   0  0  0  0  0  0  0  0  0  0  0  0
    7.7306  -14.1245   23.5903 C   0  0  0  0  0  0  0  0  0  0  0  0
    8.3822  -12.9760   23.1934 C   0  0  0  0  0  0  0  0  0  0  0  0
    8.0185  -11.9805   24.0055 N   0  0  0  0  0  0  0  0  0  0  0  0
    7.1372  -12.4283   24.9422 C   0  0  0  0  0  0  0  0  0  0  0  0
    6.5029  -11.7787   25.9821 C   0  0  0  0  0  0  0  0  0  0  0  0
    5.6565  -12.5113   26.7917 C   0  0  0  0  0  0  0  0  0  0  0  0
    5.4577  -13.8614   26.5566 C   0  0  0  0  0  0  0  0  0  0  0  0
    6.1064  -14.4770   25.5098 C   0  0  0  0  0  0  0  0  0  0  0  0
    6.9712  -13.7667   24.6671 C   0  0  0  0  0  0  0  0  0  0  0  0
    9.5084  -16.6245   24.4445 C   0  0  0  0  0  0  0  0  0  0  0  0
    9.4519  -17.8713   24.7929 O   0  0  0  0  0  0  0  0  0  0  0  0
   10.3031  -12.8485   28.4084 C   0  0  0  0  0  0  0  0  0  0  0  0
   10.7174  -13.9112   27.4201 C   0  0  0  0  0  0  0  0  0  0  0  0
   10.1263  -15.2334   27.8510 C   0  0  2  0  0  0  0  0  0  0  0  0
   10.8401  -15.6458   29.1035 C   0  0  0  0  0  0  0  0  0  0  0  0
   10.4307  -16.3047   26.7722 C   0  0  2  0  0  0  0  0  0  0  0  0
   10.0271  -15.7994   25.4843 N   0  0  0  0  0  0  0  0  0  0  0  0
    9.9563  -17.5965   27.1830 C   0  0  0  0  0  0  0  0  0  0  0  0
    8.5965  -17.8970   26.9604 O   0  0  0  0  0  0  0  0  0  0  0  0
   10.6195  -18.4926   27.7197 O   0  0  0  0  0  0  0  0  0  0  0  0
  2  3  1  0
  2  1  1  6
  4  2  1  0
  4  5  1  6
  6  4  1  0
  6  8  1  0
  7  6  2  0
  9  8  1  0
 10 11  1  0
  9 10  1  1
 11 19  1  0
 12 11  2  0
 12 13  1  0
 13 14  1  0
 14 15  1  0
 15 16  2  0
 17 16  1  0
 18 17  2  0
 19 14  2  0
 19 18  1  0
 20  9  1  0
 21 20  2  0
 22 23  1  0
 23 24  1  0
 24 26  1  0
 24 25  1  1
 26 27  1  6
 26 28  1  0
 27 20  1  0
 28 29  1  0
 30 28  2  0
M  END
$$$$
