TWI.pdb
     RDKit          3D

 30 31  0  0  1  0  0  0  0  0999 V2000
    4.7638  -21.7095   21.4491 C   0  0  0  0  0  0  0  0  0  0  0  0
    5.3824  -20.3632   21.7507 C   0  0  1  0  0  0  0  0  0  0  0  0
    5.5366  -19.6784   20.5536 O   0  0  0  0  0  0  0  0  0  0  0  0
    4.5575  -19.5826   22.7688 C   0  0  2  0  0  0  0  0  0  0  0  0
    3.1863  -19.4366   22.3734 N   0  0  0  0  0  0  0  0  0  0  0  0
    5.2075  -18.2421   22.9579 C   0  0  0  0  0  0  0  0  0  0  0  0
    4.7084  -17.2741   22.3762 O   0  0  0  0  0  0  0  0  0  0  0  0
    6.3502  -18.0654   23.7687 N   0  0  0  0  0  0  0  0  0  0  0  0
    7.0901  -16.8145   23.9138 C   0  0  1  0  0  0  0  0  0  0  0  0
    7.4011  -16.5242   25.3326 C   0  0  0  0  0  0  0  0  0  0  0  0
    6.7952  -15.3492   25.9344 C   0  0  0  0  0  0  0  0  0  0  0  0
    5.4812  -15.2554   26.3413 C   0  0  0  0  0  0  0  0  0  0  0  0
    5.2890  -14.0479   26.8777 N   0  0  0  0  0  0  0  0  0  0  0  0
    6.4412  -13.3228   26.8428 C   0  0  0  0  0  0  0  0  0  0  0  0
    6.7244  -12.0394   27.2653 C   0  0  0  0  0  0  0  0  0  0  0  0
    8.0068  -11.5590   27.0832 C   0  0  0  0  0  0  0  0  0  0  0  0
    8.9743  -12.3531   26.4908 C   0  0  0  0  0  0  0  0  0  0  0  0
    8.6569  -13.6288   26.0818 C   0  0  0  0  0  0  0  0  0  0  0  0
    7.3678  -14.1507   26.2508 C   0  0  0  0  0  0  0  0  0  0  0  0
    8.0728  -16.6091   22.8682 C   0  0  0  0  0  0  0  0  0  0  0  0
    8.8135  -17.5814   22.4378 O   0  0  0  0  0  0  0  0  0  0  0  0
    7.4249  -12.2703   19.6385 C   0  0  0  0  0  0  0  0  0  0  0  0
    7.6163  -13.6650   20.1823 C   0  0  0  0  0  0  0  0  0  0  0  0
    9.0915  -13.9003   20.4100 C   0  0  2  0  0  0  0  0  0  0  0  0
    9.7355  -13.9891   19.0588 C   0  0  0  0  0  0  0  0  0  0  0  0
    9.2886  -15.2717   21.1063 C   0  0  2  0  0  0  0  0  0  0  0  0
    8.3459  -15.3855   22.1903 N   0  0  0  0  0  0  0  0  0  0  0  0
   10.6779  -15.5163   21.3751 C   0  0  0  0  0  0  0  0  0  0  0  0
   11.5365  -15.7026   20.2718 O   0  0  0  0  0  0  0  0  0  0  0  0
   11.2166  -15.5824   22.4869 O   0  0  0  0  0  0  0  0  0  0  0  0
  2  3  1  0
  2  1  1  6
  4  2  1  0
  4  5  1  6
  6  4  1  0
  6  8  1  0
  7  6  2  0
  9  8  1  0
 10 11  1  0
  9 10  1  1
 11 19  1  0
 12 11  2  0
 12 13  1  0
 13 14  1  0
 14 15  1  0
 15 16  2  0
 17 16  1  0
 18 17  2  0
 19 14  2  0
 19 18  1  0
 20  9  1  0
 21 20  2  0
 22 23  1  0
 23 24  1  0
 24 26  1  0
 24 25  1  6
 26 27  1  1
 26 28  1  0
 27 20  1  0
 28 29  1  0
 30 28  2  0
M  END
$$$$
