TWI.pdb
     RDKit          3D

 30 31  0  0  1  0  0  0  0  0999 V2000
   11.3985  -17.0199   17.6830 C   0  0  0  0  0  0  0  0  0  0  0  0
   10.6555  -16.4754   18.8819 C   0  0  1  0  0  0  0  0  0  0  0  0
    9.3083  -16.7700   18.7282 O   0  0  0  0  0  0  0  0  0  0  0  0
   11.2270  -17.0161   20.1886 C   0  0  2  0  0  0  0  0  0  0  0  0
   11.0327  -18.4301   20.3332 N   0  0  0  0  0  0  0  0  0  0  0  0
   10.5813  -16.2671   21.3187 C   0  0  0  0  0  0  0  0  0  0  0  0
   10.7384  -15.0431   21.3610 O   0  0  0  0  0  0  0  0  0  0  0  0
    9.8140  -16.9145   22.3119 N   0  0  0  0  0  0  0  0  0  0  0  0
    9.2333  -16.2607   23.4817 C   0  0  1  0  0  0  0  0  0  0  0  0
    7.7545  -16.2182   23.4070 C   0  0  0  0  0  0  0  0  0  0  0  0
    7.0380  -15.5658   24.4891 C   0  0  0  0  0  0  0  0  0  0  0  0
    6.3570  -16.2178   25.4951 C   0  0  0  0  0  0  0  0  0  0  0  0
    5.8542  -15.3033   26.3280 N   0  0  0  0  0  0  0  0  0  0  0  0
    6.1783  -14.0487   25.9090 C   0  0  0  0  0  0  0  0  0  0  0  0
    5.8792  -12.8066   26.4320 C   0  0  0  0  0  0  0  0  0  0  0  0
    6.3435  -11.6880   25.7673 C   0  0  0  0  0  0  0  0  0  0  0  0
    7.0881  -11.8217   24.6075 C   0  0  0  0  0  0  0  0  0  0  0  0
    7.3682  -13.0763   24.1144 C   0  0  0  0  0  0  0  0  0  0  0  0
    6.9155  -14.2335   24.7614 C   0  0  0  0  0  0  0  0  0  0  0  0
    9.9176  -16.5892   24.7166 C   0  0  0  0  0  0  0  0  0  0  0  0
   10.6301  -17.6658   24.8275 O   0  0  0  0  0  0  0  0  0  0  0  0
    9.6355  -13.0302   28.9856 C   0  0  0  0  0  0  0  0  0  0  0  0
   10.2495  -13.9021   27.9176 C   0  0  0  0  0  0  0  0  0  0  0  0
   10.0564  -15.3508   28.3017 C   0  0  2  0  0  0  0  0  0  0  0  0
   10.9495  -15.6162   29.4765 C   0  0  0  0  0  0  0  0  0  0  0  0
   10.5408  -16.2562   27.1398 C   0  0  2  0  0  0  0  0  0  0  0  0
    9.9192  -15.8185   25.9155 N   0  0  0  0  0  0  0  0  0  0  0  0
   10.4510  -17.6438   27.4984 C   0  0  0  0  0  0  0  0  0  0  0  0
    9.1996  -18.2784   27.3557 O   0  0  0  0  0  0  0  0  0  0  0  0
   11.3658  -18.3591   27.9257 O   0  0  0  0  0  0  0  0  0  0  0  0
  2  3  1  0
  2  1  1  6
  4  2  1  0
  4  5  1  1
  6  4  1  0
  6  8  1  0
  7  6  2  0
  9  8  1  0
 10 11  1  0
  9 10  1  1
 11 19  1  0
 12 11  2  0
 12 13  1  0
 13 14  1  0
 14 15  1  0
 15 16  2  0
 17 16  1  0
 18 17  2  0
 19 14  2  0
 19 18  1  0
 20  9  1  0
 21 20  2  0
 22 23  1  0
 23 24  1  0
 24 26  1  0
 24 25  1  1
 26 27  1  6
 26 28  1  0
 27 20  1  0
 28 29  1  0
 30 28  2  0
M  END
$$$$
