TWI.pdb
     RDKit          3D

 30 31  0  0  1  0  0  0  0  0999 V2000
   12.1510  -19.0630   19.3758 C   0  0  0  0  0  0  0  0  0  0  0  0
   11.6569  -18.2836   20.5735 C   0  0  1  0  0  0  0  0  0  0  0  0
   12.7437  -18.0106   21.3920 O   0  0  0  0  0  0  0  0  0  0  0  0
   10.9104  -17.0220   20.1523 C   0  0  2  0  0  0  0  0  0  0  0  0
   11.7183  -16.1411   19.3589 N   0  0  0  0  0  0  0  0  0  0  0  0
   10.4295  -16.3339   21.3974 C   0  0  0  0  0  0  0  0  0  0  0  0
   10.9886  -15.2833   21.7260 O   0  0  0  0  0  0  0  0  0  0  0  0
    9.3747  -16.8474   22.1837 N   0  0  0  0  0  0  0  0  0  0  0  0
    8.9244  -16.2840   23.4536 C   0  0  1  0  0  0  0  0  0  0  0  0
    7.4875  -16.5529   23.6927 C   0  0  0  0  0  0  0  0  0  0  0  0
    6.7552  -15.6286   24.5407 C   0  0  0  0  0  0  0  0  0  0  0  0
    5.5061  -15.8632   25.0752 C   0  0  0  0  0  0  0  0  0  0  0  0
    5.1633  -14.8145   25.8273 N   0  0  0  0  0  0  0  0  0  0  0  0
    6.1503  -13.8763   25.8136 C   0  0  0  0  0  0  0  0  0  0  0  0
    6.2435  -12.6415   26.4238 C   0  0  0  0  0  0  0  0  0  0  0  0
    7.3843  -11.8916   26.2117 C   0  0  0  0  0  0  0  0  0  0  0  0
    8.4007  -12.3761   25.4058 C   0  0  0  0  0  0  0  0  0  0  0  0
    8.2744  -13.6125   24.8133 C   0  0  0  0  0  0  0  0  0  0  0  0
    7.1332  -14.4019   25.0059 C   0  0  0  0  0  0  0  0  0  0  0  0
    9.9036  -16.4151   24.5145 C   0  0  0  0  0  0  0  0  0  0  0  0
   10.9157  -17.2166   24.4033 O   0  0  0  0  0  0  0  0  0  0  0  0
    9.8933  -12.9530   28.8772 C   0  0  0  0  0  0  0  0  0  0  0  0
   10.3954  -13.7988   27.7326 C   0  0  0  0  0  0  0  0  0  0  0  0
   10.2830  -15.2556   28.1181 C   0  0  2  0  0  0  0  0  0  0  0  0
   11.2985  -15.5047   29.1928 C   0  0  0  0  0  0  0  0  0  0  0  0
   10.6712  -16.1369   26.9029 C   0  0  2  0  0  0  0  0  0  0  0  0
    9.9063  -15.7159   25.7564 N   0  0  0  0  0  0  0  0  0  0  0  0
   10.6698  -17.5287   27.2566 C   0  0  0  0  0  0  0  0  0  0  0  0
   11.8933  -18.1050   27.6568 O   0  0  0  0  0  0  0  0  0  0  0  0
    9.6972  -18.2935   27.2503 O   0  0  0  0  0  0  0  0  0  0  0  0
  2  3  1  0
  2  1  1  6
  4  2  1  0
  4  5  1  1
  6  4  1  0
  6  8  1  0
  7  6  2  0
  9  8  1  0
 10 11  1  0
  9 10  1  1
 11 19  1  0
 12 11  2  0
 12 13  1  0
 13 14  1  0
 14 15  1  0
 15 16  2  0
 17 16  1  0
 18 17  2  0
 19 14  2  0
 19 18  1  0
 20  9  1  0
 21 20  2  0
 22 23  1  0
 23 24  1  0
 24 26  1  0
 24 25  1  1
 26 27  1  6
 26 28  1  0
 27 20  1  0
 28 29  1  0
 30 28  2  0
M  END
$$$$
