TWI.pdb
     RDKit          3D

 30 31  0  0  1  0  0  0  0  0999 V2000
   10.3866  -18.5114   18.9419 C   0  0  0  0  0  0  0  0  0  0  0  0
   10.3498  -17.8772   20.3139 C   0  0  1  0  0  0  0  0  0  0  0  0
   11.6568  -17.6786   20.7356 O   0  0  0  0  0  0  0  0  0  0  0  0
    9.5331  -16.5889   20.3142 C   0  0  2  0  0  0  0  0  0  0  0  0
    9.9831  -15.6496   19.3278 N   0  0  0  0  0  0  0  0  0  0  0  0
    9.6069  -15.9971   21.6924 C   0  0  0  0  0  0  0  0  0  0  0  0
   10.3845  -15.0550   21.8725 O   0  0  0  0  0  0  0  0  0  0  0  0
    8.8241  -16.4803   22.7639 N   0  0  0  0  0  0  0  0  0  0  0  0
    8.9210  -16.0211   24.1469 C   0  0  1  0  0  0  0  0  0  0  0  0
    7.6891  -16.3241   24.9117 C   0  0  0  0  0  0  0  0  0  0  0  0
    6.8091  -15.2185   25.2482 C   0  0  0  0  0  0  0  0  0  0  0  0
    5.4815  -15.3410   25.5994 C   0  0  0  0  0  0  0  0  0  0  0  0
    5.0022  -14.1254   25.8743 N   0  0  0  0  0  0  0  0  0  0  0  0
    5.9736  -13.1840   25.7168 C   0  0  0  0  0  0  0  0  0  0  0  0
    5.9492  -11.8128   25.8747 C   0  0  0  0  0  0  0  0  0  0  0  0
    7.1093  -11.1051   25.6258 C   0  0  0  0  0  0  0  0  0  0  0  0
    8.2601  -11.7647   25.2285 C   0  0  0  0  0  0  0  0  0  0  0  0
    8.2487  -13.1336   25.0815 C   0  0  0  0  0  0  0  0  0  0  0  0
    7.0918  -13.8850   25.3258 C   0  0  0  0  0  0  0  0  0  0  0  0
   10.2359  -16.2218   24.7233 C   0  0  0  0  0  0  0  0  0  0  0  0
   11.2210  -15.4255   24.4504 O   0  0  0  0  0  0  0  0  0  0  0  0
   10.1272  -13.6074   28.2378 C   0  0  0  0  0  0  0  0  0  0  0  0
   10.8115  -14.5826   27.3114 C   0  0  0  0  0  0  0  0  0  0  0  0
   10.4095  -15.9866   27.6997 C   0  0  2  0  0  0  0  0  0  0  0  0
   10.7606  -16.1591   29.1472 C   0  0  0  0  0  0  0  0  0  0  0  0
   11.2599  -17.0026   26.8942 C   0  0  2  0  0  0  0  0  0  0  0  0
   10.6152  -17.2538   25.6302 N   0  0  0  0  0  0  0  0  0  0  0  0
   11.6309  -18.1237   27.7114 C   0  0  0  0  0  0  0  0  0  0  0  0
   12.8296  -18.0299   28.4486 O   0  0  0  0  0  0  0  0  0  0  0  0
   11.0047  -19.1825   27.8446 O   0  0  0  0  0  0  0  0  0  0  0  0
  2  3  1  0
  2  1  1  6
  4  2  1  0
  4  5  1  6
  6  4  1  0
  6  8  1  0
  7  6  2  0
  9  8  1  0
 10 11  1  0
  9 10  1  1
 11 19  1  0
 12 11  2  0
 12 13  1  0
 13 14  1  0
 14 15  1  0
 15 16  2  0
 17 16  1  0
 18 17  2  0
 19 14  2  0
 19 18  1  0
 20  9  1  0
 21 20  2  0
 22 23  1  0
 23 24  1  0
 24 26  1  0
 24 25  1  1
 26 27  1  6
 26 28  1  0
 27 20  1  0
 28 29  1  0
 30 28  2  0
M  END
$$$$
