IPR.pdb
     RDKit          3D

 27 27  0  0  1  0  0  0  0  0999 V2000
    6.6797  -11.0859   27.3830 C   0  0  0  0  0  0  0  0  0  0  0  0
    5.9421  -12.1082   26.6061 C   0  0  0  0  0  0  0  0  0  0  0  0
    6.8606  -13.0947   25.9473 C   0  0  2  0  0  0  0  0  0  0  0  0
    7.7540  -12.3495   24.9341 C   0  0  0  0  0  0  0  0  0  0  0  0
    6.0678  -14.1144   25.1669 C   0  0  2  0  0  0  0  0  0  0  0  0
    5.0977  -14.7439   25.9862 N   0  0  0  0  0  0  0  0  0  0  0  0
    6.9430  -15.0440   24.4103 C   0  0  0  0  0  0  0  0  0  0  0  0
    7.0261  -16.2141   24.9653 O   0  0  0  0  0  0  0  0  0  0  0  0
    7.6232  -14.7621   23.2415 N   0  0  0  0  0  0  0  0  0  0  0  0
    7.8781  -13.5679   22.5307 C   0  0  0  0  0  0  0  0  0  0  0  0
    7.3761  -13.9766   21.1314 C   0  0  0  0  0  0  0  0  0  0  0  0
    7.8822  -15.4009   21.0598 C   0  0  0  0  0  0  0  0  0  0  0  0
    8.3173  -15.7884   22.4511 C   0  0  1  0  0  0  0  0  0  0  0  0
    9.7776  -15.7635   22.6490 C   0  0  0  0  0  0  0  0  0  0  0  0
   10.3645  -14.6956   22.8681 O   0  0  0  0  0  0  0  0  0  0  0  0
   13.5167  -22.0385   24.5983 N   0  0  0  0  0  0  0  0  0  0  0  0
   13.3815  -22.0031   26.0018 C   0  0  0  0  0  0  0  0  0  0  0  0
   14.1967  -22.6700   26.7332 N   0  0  0  0  0  0  0  0  0  0  0  0
   12.3406  -21.2243   26.5686 N   0  0  0  0  0  0  0  0  0  0  0  0
   11.4394  -20.5331   25.7008 C   0  0  0  0  0  0  0  0  0  0  0  0
   12.0321  -19.2360   25.1499 C   0  0  0  0  0  0  0  0  0  0  0  0
   11.0695  -18.6864   24.1471 C   0  0  0  0  0  0  0  0  0  0  0  0
   11.5099  -17.3665   23.5674 C   0  0  2  0  0  0  0  0  0  0  0  0
   10.5523  -16.9444   22.5968 N   0  0  0  0  0  0  0  0  0  0  0  0
   12.8120  -17.5978   22.8553 C   0  0  0  0  0  0  0  0  0  0  0  0
   14.0243  -17.3363   23.4572 O   0  0  0  0  0  0  0  0  0  0  0  0
   12.8187  -18.0412   21.6785 O   0  0  0  0  0  0  0  0  0  0  0  0
  1  2  1  0
  3  2  1  0
  3  5  1  0
  3  4  1  6
  5  7  1  0
  5  6  1  1
  7  8  2  0
  9 13  1  0
  9  7  1  0
 10  9  1  0
 11 12  1  0
 11 10  1  0
 12 13  1  0
 13 14  1  6
 14 15  2  0
 16 17  1  0
 17 19  1  0
 17 18  2  0
 19 20  1  0
 20 21  1  0
 21 22  1  0
 23 22  1  6
 23 25  1  0
 24 23  1  0
 24 14  1  0
 25 27  2  0
 25 26  1  0
M  END
$$$$
