IPR.pdb
     RDKit          3D

 27 27  0  0  1  0  0  0  0  0999 V2000
    8.7420  -12.4734   27.4360 C   0  0  0  0  0  0  0  0  0  0  0  0
    7.6879  -13.3346   26.8529 C   0  0  0  0  0  0  0  0  0  0  0  0
    6.8827  -12.6202   25.8079 C   0  0  2  0  0  0  0  0  0  0  0  0
    6.0529  -11.5102   26.4856 C   0  0  0  0  0  0  0  0  0  0  0  0
    5.9028  -13.5664   25.1584 C   0  0  2  0  0  0  0  0  0  0  0  0
    5.0420  -14.1511   26.1206 N   0  0  0  0  0  0  0  0  0  0  0  0
    6.5738  -14.5325   24.2533 C   0  0  0  0  0  0  0  0  0  0  0  0
    6.2003  -15.7571   24.4652 O   0  0  0  0  0  0  0  0  0  0  0  0
    7.5009  -14.2317   23.2745 N   0  0  0  0  0  0  0  0  0  0  0  0
    8.0807  -13.0243   22.8248 C   0  0  0  0  0  0  0  0  0  0  0  0
    7.7932  -13.1352   21.3142 C   0  0  0  0  0  0  0  0  0  0  0  0
    8.0604  -14.6073   21.0879 C   0  0  0  0  0  0  0  0  0  0  0  0
    8.1527  -15.2562   22.4465 C   0  0  1  0  0  0  0  0  0  0  0  0
    9.5322  -15.5408   22.8802 C   0  0  0  0  0  0  0  0  0  0  0  0
   10.2537  -14.6346   23.3172 O   0  0  0  0  0  0  0  0  0  0  0  0
    6.9986  -21.4310   25.4084 N   0  0  0  0  0  0  0  0  0  0  0  0
    7.7366  -21.0123   26.5351 C   0  0  0  0  0  0  0  0  0  0  0  0
    7.8724  -21.8057   27.5334 N   0  0  0  0  0  0  0  0  0  0  0  0
    8.3125  -19.7163   26.5317 N   0  0  0  0  0  0  0  0  0  0  0  0
    9.5763  -19.5200   25.8935 C   0  0  0  0  0  0  0  0  0  0  0  0
    9.4371  -19.0980   24.4308 C   0  0  0  0  0  0  0  0  0  0  0  0
   10.8103  -18.8406   23.8993 C   0  0  0  0  0  0  0  0  0  0  0  0
   11.0887  -17.3778   23.6656 C   0  0  2  0  0  0  0  0  0  0  0  0
   10.0754  -16.8439   22.8139 N   0  0  0  0  0  0  0  0  0  0  0  0
   12.3984  -17.2779   22.9373 C   0  0  0  0  0  0  0  0  0  0  0  0
   12.4642  -16.9107   21.6101 O   0  0  0  0  0  0  0  0  0  0  0  0
   13.4752  -17.5315   23.5354 O   0  0  0  0  0  0  0  0  0  0  0  0
  1  2  1  0
  3  2  1  0
  3  5  1  0
  3  4  1  1
  5  7  1  0
  5  6  1  1
  7  8  2  0
  9 13  1  0
  9  7  1  0
 10  9  1  0
 11 12  1  0
 11 10  1  0
 12 13  1  0
 13 14  1  1
 14 15  2  0
 16 17  1  0
 17 19  1  0
 17 18  2  0
 19 20  1  0
 20 21  1  0
 21 22  1  0
 23 22  1  6
 23 25  1  0
 24 23  1  0
 24 14  1  0
 25 27  2  0
 25 26  1  0
M  END
$$$$
