IPR.pdb
     RDKit          3D

 27 27  0  0  1  0  0  0  0  0999 V2000
    6.2199  -11.2165   26.1955 C   0  0  0  0  0  0  0  0  0  0  0  0
    6.7052  -12.4507   26.8541 C   0  0  0  0  0  0  0  0  0  0  0  0
    7.3117  -13.4158   25.8786 C   0  0  2  0  0  0  0  0  0  0  0  0
    6.2029  -13.9568   24.9526 C   0  0  0  0  0  0  0  0  0  0  0  0
    7.8957  -14.6030   26.6044 C   0  0  2  0  0  0  0  0  0  0  0  0
    8.7595  -14.1894   27.6492 N   0  0  0  0  0  0  0  0  0  0  0  0
    8.4788  -15.5984   25.6706 C   0  0  0  0  0  0  0  0  0  0  0  0
    9.6776  -15.2812   25.2880 O   0  0  0  0  0  0  0  0  0  0  0  0
    7.8705  -16.7530   25.2178 N   0  0  0  0  0  0  0  0  0  0  0  0
    6.5673  -17.2813   25.3544 C   0  0  0  0  0  0  0  0  0  0  0  0
    6.9030  -18.6884   25.8878 C   0  0  0  0  0  0  0  0  0  0  0  0
    8.1170  -19.0214   25.0480 C   0  0  0  0  0  0  0  0  0  0  0  0
    8.5578  -17.7440   24.3778 C   0  0  1  0  0  0  0  0  0  0  0  0
    8.1702  -17.6493   22.9590 C   0  0  0  0  0  0  0  0  0  0  0  0
    6.9935  -17.4317   22.6416 O   0  0  0  0  0  0  0  0  0  0  0  0
    9.1607  -12.3631   20.7102 N   0  0  0  0  0  0  0  0  0  0  0  0
    8.3217  -12.3715   19.5764 C   0  0  0  0  0  0  0  0  0  0  0  0
    7.6546  -11.3187   19.2749 N   0  0  0  0  0  0  0  0  0  0  0  0
    8.2399  -13.5525   18.7956 N   0  0  0  0  0  0  0  0  0  0  0  0
    9.2450  -14.5571   18.9489 C   0  0  0  0  0  0  0  0  0  0  0  0
    8.9665  -15.4929   20.1253 C   0  0  0  0  0  0  0  0  0  0  0  0
    9.4888  -16.8458   19.7635 C   0  0  0  0  0  0  0  0  0  0  0  0
    8.8260  -17.9600   20.5326 C   0  0  2  0  0  0  0  0  0  0  0  0
    9.1171  -17.8014   21.9209 N   0  0  0  0  0  0  0  0  0  0  0  0
    9.4444  -19.2516   20.0798 C   0  0  0  0  0  0  0  0  0  0  0  0
    9.1819  -19.7848   18.8358 O   0  0  0  0  0  0  0  0  0  0  0  0
   10.2252  -19.8793   20.8401 O   0  0  0  0  0  0  0  0  0  0  0  0
  1  2  1  0
  3  2  1  0
  3  5  1  0
  3  4  1  6
  5  7  1  0
  5  6  1  1
  7  8  2  0
  9 13  1  0
  9  7  1  0
 10  9  1  0
 11 12  1  0
 11 10  1  0
 12 13  1  0
 13 14  1  6
 14 15  2  0
 16 17  1  0
 17 19  1  0
 17 18  2  0
 19 20  1  0
 20 21  1  0
 21 22  1  0
 23 22  1  6
 23 25  1  0
 24 23  1  0
 24 14  1  0
 25 27  2  0
 25 26  1  0
M  END
$$$$
