IPR.pdb
     RDKit          3D

 27 27  0  0  1  0  0  0  0  0999 V2000
    5.8835  -14.0966   19.2227 C   0  0  0  0  0  0  0  0  0  0  0  0
    6.8607  -13.3167   20.0162 C   0  0  0  0  0  0  0  0  0  0  0  0
    7.3290  -14.0600   21.2324 C   0  0  2  0  0  0  0  0  0  0  0  0
    6.1416  -14.2352   22.2015 C   0  0  0  0  0  0  0  0  0  0  0  0
    8.3804  -13.2635   21.9655 C   0  0  2  0  0  0  0  0  0  0  0  0
    9.4247  -12.8694   21.0921 N   0  0  0  0  0  0  0  0  0  0  0  0
    8.8287  -13.9392   23.2085 C   0  0  0  0  0  0  0  0  0  0  0  0
    9.9236  -14.6155   23.0418 O   0  0  0  0  0  0  0  0  0  0  0  0
    8.2002  -13.8963   24.4379 N   0  0  0  0  0  0  0  0  0  0  0  0
    6.8861  -13.5752   24.8455 C   0  0  0  0  0  0  0  0  0  0  0  0
    7.1912  -12.5160   25.9235 C   0  0  0  0  0  0  0  0  0  0  0  0
    8.4028  -13.1349   26.5859 C   0  0  0  0  0  0  0  0  0  0  0  0
    8.8723  -14.2572   25.6942 C   0  0  1  0  0  0  0  0  0  0  0  0
    8.4941  -15.5988   26.1730 C   0  0  0  0  0  0  0  0  0  0  0  0
    7.3090  -15.9566   26.1706 O   0  0  0  0  0  0  0  0  0  0  0  0
   11.1664  -20.2986   22.5546 N   0  0  0  0  0  0  0  0  0  0  0  0
   12.1137  -19.2858   22.2976 C   0  0  0  0  0  0  0  0  0  0  0  0
   12.7571  -19.2877   21.1884 N   0  0  0  0  0  0  0  0  0  0  0  0
   12.3287  -18.2860   23.2802 N   0  0  0  0  0  0  0  0  0  0  0  0
   12.0271  -18.5789   24.6462 C   0  0  0  0  0  0  0  0  0  0  0  0
   10.5274  -18.5348   24.9399 C   0  0  0  0  0  0  0  0  0  0  0  0
   10.3468  -18.7208   26.4119 C   0  0  0  0  0  0  0  0  0  0  0  0
    9.2294  -17.8839   26.9803 C   0  0  2  0  0  0  0  0  0  0  0  0
    9.4600  -16.5154   26.6469 N   0  0  0  0  0  0  0  0  0  0  0  0
    9.2886  -18.0069   28.4760 C   0  0  0  0  0  0  0  0  0  0  0  0
    8.9899  -19.1893   29.1190 O   0  0  0  0  0  0  0  0  0  0  0  0
    9.6170  -17.0173   29.1791 O   0  0  0  0  0  0  0  0  0  0  0  0
  1  2  1  0
  3  2  1  0
  3  5  1  0
  3  4  1  1
  5  7  1  0
  5  6  1  6
  7  8  2  0
  9 13  1  0
  9  7  1  0
 10  9  1  0
 11 12  1  0
 11 10  1  0
 12 13  1  0
 13 14  1  1
 14 15  2  0
 16 17  1  0
 17 19  1  0
 17 18  2  0
 19 20  1  0
 20 21  1  0
 21 22  1  0
 23 22  1  6
 23 25  1  0
 24 23  1  0
 24 14  1  0
 25 27  2  0
 25 26  1  0
M  END
$$$$
