IPR.pdb
     RDKit          3D

 27 27  0  0  1  0  0  0  0  0999 V2000
    7.4507  -15.1119   18.4075 C   0  0  0  0  0  0  0  0  0  0  0  0
    6.9924  -14.1034   19.3901 C   0  0  0  0  0  0  0  0  0  0  0  0
    7.5416  -14.3559   20.7632 C   0  0  2  0  0  0  0  0  0  0  0  0
    6.5134  -15.1728   21.5726 C   0  0  0  0  0  0  0  0  0  0  0  0
    7.7444  -13.0536   21.4983 C   0  0  2  0  0  0  0  0  0  0  0  0
    8.4582  -12.1230   20.7024 N   0  0  0  0  0  0  0  0  0  0  0  0
    8.2949  -13.2600   22.8610 C   0  0  0  0  0  0  0  0  0  0  0  0
    9.5921  -13.2916   22.8757 O   0  0  0  0  0  0  0  0  0  0  0  0
    7.5673  -13.4099   24.0256 N   0  0  0  0  0  0  0  0  0  0  0  0
    6.1836  -13.4748   24.3041 C   0  0  0  0  0  0  0  0  0  0  0  0
    6.0775  -12.3856   25.3901 C   0  0  0  0  0  0  0  0  0  0  0  0
    7.3463  -12.6481   26.1717 C   0  0  0  0  0  0  0  0  0  0  0  0
    8.1927  -13.5831   25.3443 C   0  0  1  0  0  0  0  0  0  0  0  0
    8.1624  -14.9826   25.8054 C   0  0  0  0  0  0  0  0  0  0  0  0
    7.1823  -15.7014   25.5699 O   0  0  0  0  0  0  0  0  0  0  0  0
   14.2623  -20.2584   25.4638 N   0  0  0  0  0  0  0  0  0  0  0  0
   13.8866  -20.2034   24.1055 C   0  0  0  0  0  0  0  0  0  0  0  0
   14.2513  -21.1403   23.3095 N   0  0  0  0  0  0  0  0  0  0  0  0
   13.1097  -19.1057   23.6553 N   0  0  0  0  0  0  0  0  0  0  0  0
   12.8888  -18.0032   24.5377 C   0  0  0  0  0  0  0  0  0  0  0  0
   11.6389  -18.1812   25.3997 C   0  0  0  0  0  0  0  0  0  0  0  0
   10.9940  -16.8408   25.5475 C   0  0  0  0  0  0  0  0  0  0  0  0
    9.7401  -16.8776   26.3832 C   0  0  2  0  0  0  0  0  0  0  0  0
    9.2390  -15.5486   26.5251 N   0  0  0  0  0  0  0  0  0  0  0  0
   10.1220  -17.3711   27.7494 C   0  0  0  0  0  0  0  0  0  0  0  0
   10.3115  -18.7116   28.0096 O   0  0  0  0  0  0  0  0  0  0  0  0
   10.2780  -16.5566   28.6949 O   0  0  0  0  0  0  0  0  0  0  0  0
  1  2  1  0
  3  2  1  0
  3  5  1  0
  3  4  1  1
  5  7  1  0
  5  6  1  6
  7  8  2  0
  9 13  1  0
  9  7  1  0
 10  9  1  0
 11 12  1  0
 11 10  1  0
 12 13  1  0
 13 14  1  1
 14 15  2  0
 16 17  1  0
 17 19  1  0
 17 18  2  0
 19 20  1  0
 20 21  1  0
 21 22  1  0
 23 22  1  6
 23 25  1  0
 24 23  1  0
 24 14  1  0
 25 27  2  0
 25 26  1  0
M  END
$$$$
