IPR.pdb
     RDKit          3D

 27 27  0  0  1  0  0  0  0  0999 V2000
    7.1417  -11.3407   27.5713 C   0  0  0  0  0  0  0  0  0  0  0  0
    6.2468  -12.1477   26.7107 C   0  0  0  0  0  0  0  0  0  0  0  0
    7.0047  -13.1164   25.8517 C   0  0  2  0  0  0  0  0  0  0  0  0
    7.9014  -12.3268   24.8758 C   0  0  0  0  0  0  0  0  0  0  0  0
    6.0534  -13.9327   25.0113 C   0  0  2  0  0  0  0  0  0  0  0  0
    5.0270  -14.5007   25.8066 N   0  0  0  0  0  0  0  0  0  0  0  0
    6.7661  -14.8941   24.1334 C   0  0  0  0  0  0  0  0  0  0  0  0
    6.5590  -16.1290   24.4741 O   0  0  0  0  0  0  0  0  0  0  0  0
    7.5750  -14.5795   23.0588 N   0  0  0  0  0  0  0  0  0  0  0  0
    7.9945  -13.3588   22.4841 C   0  0  0  0  0  0  0  0  0  0  0  0
    7.5950  -13.6029   21.0151 C   0  0  0  0  0  0  0  0  0  0  0  0
    7.9854  -15.0565   20.8589 C   0  0  0  0  0  0  0  0  0  0  0  0
    8.2531  -15.5959   22.2419 C   0  0  1  0  0  0  0  0  0  0  0  0
    9.6850  -15.7206   22.5677 C   0  0  0  0  0  0  0  0  0  0  0  0
   10.4259  -14.7292   22.5360 O   0  0  0  0  0  0  0  0  0  0  0  0
    6.7692  -19.6403   25.9372 N   0  0  0  0  0  0  0  0  0  0  0  0
    7.3150  -20.8060   25.3606 C   0  0  0  0  0  0  0  0  0  0  0  0
    6.5464  -21.6267   24.7441 N   0  0  0  0  0  0  0  0  0  0  0  0
    8.7089  -21.0388   25.4792 N   0  0  0  0  0  0  0  0  0  0  0  0
    9.5726  -19.9413   25.7834 C   0  0  0  0  0  0  0  0  0  0  0  0
    9.9660  -19.1409   24.5417 C   0  0  0  0  0  0  0  0  0  0  0  0
   10.8459  -18.0170   24.9854 C   0  0  0  0  0  0  0  0  0  0  0  0
   11.3316  -17.1610   23.8437 C   0  0  2  0  0  0  0  0  0  0  0  0
   10.2579  -16.9624   22.9244 N   0  0  0  0  0  0  0  0  0  0  0  0
   12.4088  -17.9274   23.1308 C   0  0  0  0  0  0  0  0  0  0  0  0
   13.6548  -18.1173   23.6894 O   0  0  0  0  0  0  0  0  0  0  0  0
   12.1890  -18.4170   21.9935 O   0  0  0  0  0  0  0  0  0  0  0  0
  1  2  1  0
  3  2  1  0
  3  5  1  0
  3  4  1  6
  5  7  1  0
  5  6  1  1
  7  8  2  0
  9 13  1  0
  9  7  1  0
 10  9  1  0
 11 12  1  0
 11 10  1  0
 12 13  1  0
 13 14  1  1
 14 15  2  0
 16 17  1  0
 17 19  1  0
 17 18  2  0
 19 20  1  0
 20 21  1  0
 21 22  1  0
 23 22  1  1
 23 25  1  0
 24 23  1  0
 24 14  1  0
 25 27  2  0
 25 26  1  0
M  END
$$$$
