IPR.pdb
     RDKit          3D

 27 27  0  0  1  0  0  0  0  0999 V2000
    6.7140  -11.3298   27.2857 C   0  0  0  0  0  0  0  0  0  0  0  0
    5.9883  -12.4451   26.6359 C   0  0  0  0  0  0  0  0  0  0  0  0
    6.9099  -13.3701   25.8971 C   0  0  2  0  0  0  0  0  0  0  0  0
    7.6364  -12.5770   24.7912 C   0  0  0  0  0  0  0  0  0  0  0  0
    6.1244  -14.4610   25.2113 C   0  0  2  0  0  0  0  0  0  0  0  0
    5.2965  -15.1509   26.1318 N   0  0  0  0  0  0  0  0  0  0  0  0
    6.9882  -15.3317   24.3755 C   0  0  0  0  0  0  0  0  0  0  0  0
    7.0288  -16.5552   24.8061 O   0  0  0  0  0  0  0  0  0  0  0  0
    7.6979  -14.9492   23.2539 N   0  0  0  0  0  0  0  0  0  0  0  0
    8.0040  -13.6950   22.6798 C   0  0  0  0  0  0  0  0  0  0  0  0
    7.5141  -13.9338   21.2375 C   0  0  0  0  0  0  0  0  0  0  0  0
    7.9750  -15.3585   21.0199 C   0  0  0  0  0  0  0  0  0  0  0  0
    8.3724  -15.9079   22.3672 C   0  0  1  0  0  0  0  0  0  0  0  0
    9.8290  -15.9542   22.5875 C   0  0  0  0  0  0  0  0  0  0  0  0
   10.4425  -14.9425   22.9521 O   0  0  0  0  0  0  0  0  0  0  0  0
   13.4216  -23.8266   23.1992 N   0  0  0  0  0  0  0  0  0  0  0  0
   14.5662  -23.0023   23.2061 C   0  0  0  0  0  0  0  0  0  0  0  0
   15.7293  -23.5335   23.1089 N   0  0  0  0  0  0  0  0  0  0  0  0
   14.3969  -21.5989   23.3202 N   0  0  0  0  0  0  0  0  0  0  0  0
   13.0948  -21.0766   23.5935 C   0  0  0  0  0  0  0  0  0  0  0  0
   13.0890  -19.5541   23.7317 C   0  0  0  0  0  0  0  0  0  0  0  0
   11.8642  -19.0402   23.0462 C   0  0  0  0  0  0  0  0  0  0  0  0
   11.7279  -17.5411   23.1258 C   0  0  2  0  0  0  0  0  0  0  0  0
   10.5700  -17.1418   22.3930 N   0  0  0  0  0  0  0  0  0  0  0  0
   12.9273  -16.9418   22.4489 C   0  0  0  0  0  0  0  0  0  0  0  0
   14.1058  -16.7158   23.1275 O   0  0  0  0  0  0  0  0  0  0  0  0
   12.8762  -16.6308   21.2314 O   0  0  0  0  0  0  0  0  0  0  0  0
  1  2  1  0
  3  2  1  0
  3  5  1  0
  3  4  1  6
  5  7  1  0
  5  6  1  1
  7  8  2  0
  9 13  1  0
  9  7  1  0
 10  9  1  0
 11 12  1  0
 11 10  1  0
 12 13  1  0
 13 14  1  6
 14 15  2  0
 16 17  1  0
 17 19  1  0
 17 18  2  0
 19 20  1  0
 20 21  1  0
 21 22  1  0
 23 22  1  6
 23 25  1  0
 24 23  1  0
 24 14  1  0
 25 27  2  0
 25 26  1  0
M  END
$$$$
