IPR.pdb
     RDKit          3D

 27 27  0  0  1  0  0  0  0  0999 V2000
    7.2713  -16.4918   19.3348 C   0  0  0  0  0  0  0  0  0  0  0  0
    8.0286  -15.2713   19.6948 C   0  0  0  0  0  0  0  0  0  0  0  0
    7.1275  -14.1077   19.9863 C   0  0  2  0  0  0  0  0  0  0  0  0
    6.4788  -13.6331   18.6696 C   0  0  0  0  0  0  0  0  0  0  0  0
    7.9243  -12.9457   20.5270 C   0  0  2  0  0  0  0  0  0  0  0  0
    8.8529  -12.4716   19.5670 N   0  0  0  0  0  0  0  0  0  0  0  0
    8.5020  -13.2366   21.8628 C   0  0  0  0  0  0  0  0  0  0  0  0
    9.7960  -13.1402   21.8785 O   0  0  0  0  0  0  0  0  0  0  0  0
    7.8010  -13.5781   23.0030 N   0  0  0  0  0  0  0  0  0  0  0  0
    6.4298  -13.7847   23.2741 C   0  0  0  0  0  0  0  0  0  0  0  0
    6.2499  -12.8411   24.4799 C   0  0  0  0  0  0  0  0  0  0  0  0
    7.5437  -13.0909   25.2237 C   0  0  0  0  0  0  0  0  0  0  0  0
    8.4522  -13.8531   24.2915 C   0  0  1  0  0  0  0  0  0  0  0  0
    8.5372  -15.2947   24.5863 C   0  0  0  0  0  0  0  0  0  0  0  0
    7.5563  -16.0305   24.4153 O   0  0  0  0  0  0  0  0  0  0  0  0
   14.9453  -14.9622   22.5540 N   0  0  0  0  0  0  0  0  0  0  0  0
   14.2007  -15.1968   21.3793 C   0  0  0  0  0  0  0  0  0  0  0  0
   14.4582  -14.5199   20.3211 N   0  0  0  0  0  0  0  0  0  0  0  0
   13.1814  -16.1826   21.4018 N   0  0  0  0  0  0  0  0  0  0  0  0
   12.9310  -16.8947   22.6155 C   0  0  0  0  0  0  0  0  0  0  0  0
   11.5188  -16.6624   23.1529 C   0  0  0  0  0  0  0  0  0  0  0  0
   11.3614  -17.4876   24.3892 C   0  0  0  0  0  0  0  0  0  0  0  0
   10.0361  -17.2765   25.0756 C   0  0  2  0  0  0  0  0  0  0  0  0
    9.7281  -15.8829   25.0692 N   0  0  0  0  0  0  0  0  0  0  0  0
   10.1955  -17.7036   26.5067 C   0  0  0  0  0  0  0  0  0  0  0  0
   10.3315  -19.0300   26.8570 O   0  0  0  0  0  0  0  0  0  0  0  0
   10.2077  -16.8445   27.4250 O   0  0  0  0  0  0  0  0  0  0  0  0
  1  2  1  0
  3  2  1  0
  3  5  1  0
  3  4  1  6
  5  7  1  0
  5  6  1  6
  7  8  2  0
  9 13  1  0
  9  7  1  0
 10  9  1  0
 11 12  1  0
 11 10  1  0
 12 13  1  0
 13 14  1  1
 14 15  2  0
 16 17  1  0
 17 19  1  0
 17 18  2  0
 19 20  1  0
 20 21  1  0
 21 22  1  0
 23 22  1  6
 23 25  1  0
 24 23  1  0
 24 14  1  0
 25 27  2  0
 25 26  1  0
M  END
$$$$
