QYK.pdb
     RDKit          3D

 31 31  0  0  1  0  0  0  0  0999 V2000
    8.7610  -12.8265   16.3210 N   0  0  0  0  0  0  0  0  0  0  0  0
    8.3256  -14.1147   15.9014 C   0  0  0  0  0  0  0  0  0  0  0  0
    7.9413  -14.2349   14.7254 O   0  0  0  0  0  0  0  0  0  0  0  0
    8.3656  -15.2010   16.8832 C   0  0  0  0  0  0  0  0  0  0  0  0
    8.8108  -14.8770   18.2543 C   0  0  0  0  0  0  0  0  0  0  0  0
    8.8374  -15.9649   19.2580 C   0  0  2  0  0  0  0  0  0  0  0  0
    7.6145  -16.7174   19.2436 N   0  0  0  0  0  0  0  0  0  0  0  0
    9.0959  -15.4844   20.6412 C   0  0  0  0  0  0  0  0  0  0  0  0
   10.2276  -15.0309   20.9471 O   0  0  0  0  0  0  0  0  0  0  0  0
    7.1618  -11.9072   28.5386 O   0  0  0  0  0  0  0  0  0  0  0  0
    7.1306  -12.4671   27.2453 C   0  0  0  0  0  0  0  0  0  0  0  0
    6.5042  -13.6684   27.0055 C   0  0  0  0  0  0  0  0  0  0  0  0
    6.4935  -14.1854   25.7293 C   0  0  0  0  0  0  0  0  0  0  0  0
    7.0854  -13.5586   24.6531 C   0  0  0  0  0  0  0  0  0  0  0  0
    7.0477  -14.1463   23.3115 C   0  0  0  0  0  0  0  0  0  0  0  0
    8.2950  -14.9600   22.9898 C   0  0  2  0  0  0  0  0  0  0  0  0
    8.0969  -15.5170   21.6526 N   0  0  0  0  0  0  0  0  0  0  0  0
    8.5876  -15.9804   23.9887 C   0  0  0  0  0  0  0  0  0  0  0  0
    7.7894  -16.9729   24.0870 O   0  0  0  0  0  0  0  0  0  0  0  0
    7.7073  -12.3582   24.9111 C   0  0  0  0  0  0  0  0  0  0  0  0
    7.7267  -11.8287   26.1805 C   0  0  0  0  0  0  0  0  0  0  0  0
    9.6907  -15.9470   24.8499 N   0  0  0  0  0  0  0  0  0  0  0  0
    9.9401  -17.0936   25.7510 C   0  0  1  0  0  0  0  0  0  0  0  0
   11.1641  -17.8239   25.3013 C   0  0  0  0  0  0  0  0  0  0  0  0
   10.8312  -18.7889   24.2006 C   0  0  0  0  0  0  0  0  0  0  0  0
   12.0834  -19.5104   23.7101 C   0  0  0  0  0  0  0  0  0  0  0  0
   11.6527  -20.3816   22.5407 C   0  0  0  0  0  0  0  0  0  0  0  0
   12.8487  -21.0111   22.0230 N   0  0  0  0  0  0  0  0  0  0  0  0
   10.1457  -16.5464   27.1042 C   0  0  0  0  0  0  0  0  0  0  0  0
   10.4637  -15.3152   27.2231 O   0  0  0  0  0  0  0  0  0  0  0  0
   10.0198  -17.2625   28.2873 O   0  0  0  0  0  0  0  0  0  0  0  0
  1  2  1  0
  2  3  2  0
  4  5  1  0
  4  2  1  0
  6  5  1  0
  6  7  1  1
  8  9  2  0
  8  6  1  0
 10 11  1  0
 11 12  2  0
 12 13  1  0
 14 13  2  0
 14 15  1  0
 16 15  1  1
 16 17  1  0
 17  8  1  0
 18 16  1  0
 19 18  2  0
 20 14  1  0
 21 11  1  0
 21 20  2  0
 22 18  1  0
 23 29  1  0
 23 22  1  0
 23 24  1  6
 25 24  1  0
 26 25  1  0
 26 27  1  0
 27 28  1  0
 29 31  1  0
 30 29  2  0
M  END
$$$$
