QYK.pdb
     RDKit          3D

 31 31  0  0  1  0  0  0  0  0999 V2000
    9.2791  -12.8292   15.9561 N   0  0  0  0  0  0  0  0  0  0  0  0
    8.3608  -13.8648   15.6254 C   0  0  0  0  0  0  0  0  0  0  0  0
    8.0235  -13.9727   14.4338 O   0  0  0  0  0  0  0  0  0  0  0  0
    7.8850  -14.7262   16.7103 C   0  0  0  0  0  0  0  0  0  0  0  0
    8.4471  -14.5116   18.0598 C   0  0  0  0  0  0  0  0  0  0  0  0
    8.6651  -15.6935   18.9243 C   0  0  2  0  0  0  0  0  0  0  0  0
    7.5500  -16.5960   18.8642 N   0  0  0  0  0  0  0  0  0  0  0  0
    8.9311  -15.3436   20.3448 C   0  0  0  0  0  0  0  0  0  0  0  0
   10.0789  -14.9695   20.6950 O   0  0  0  0  0  0  0  0  0  0  0  0
    6.9916  -12.3233   28.4764 O   0  0  0  0  0  0  0  0  0  0  0  0
    6.9464  -12.8166   27.1567 C   0  0  0  0  0  0  0  0  0  0  0  0
    6.6499  -14.1355   26.9005 C   0  0  0  0  0  0  0  0  0  0  0  0
    6.6146  -14.5826   25.5986 C   0  0  0  0  0  0  0  0  0  0  0  0
    6.8637  -13.7710   24.5119 C   0  0  0  0  0  0  0  0  0  0  0  0
    6.8134  -14.2909   23.1431 C   0  0  0  0  0  0  0  0  0  0  0  0
    8.1192  -14.9490   22.7149 C   0  0  2  0  0  0  0  0  0  0  0  0
    7.9215  -15.4159   21.3435 N   0  0  0  0  0  0  0  0  0  0  0  0
    8.5490  -16.0108   23.6163 C   0  0  0  0  0  0  0  0  0  0  0  0
    7.9026  -17.1125   23.6000 O   0  0  0  0  0  0  0  0  0  0  0  0
    7.1584  -12.4550   24.7867 C   0  0  0  0  0  0  0  0  0  0  0  0
    7.1977  -11.9932   26.0819 C   0  0  0  0  0  0  0  0  0  0  0  0
    9.6286  -15.9048   24.5010 N   0  0  0  0  0  0  0  0  0  0  0  0
   10.0947  -17.1102   25.2213 C   0  0  1  0  0  0  0  0  0  0  0  0
   11.5381  -17.3472   24.9144 C   0  0  0  0  0  0  0  0  0  0  0  0
   12.0344  -18.5772   25.6174 C   0  0  0  0  0  0  0  0  0  0  0  0
   13.5095  -18.8225   25.3122 C   0  0  0  0  0  0  0  0  0  0  0  0
   13.9090  -20.0746   26.0768 C   0  0  0  0  0  0  0  0  0  0  0  0
   15.2773  -20.3717   25.7108 N   0  0  0  0  0  0  0  0  0  0  0  0
    9.9196  -16.8507   26.6618 C   0  0  0  0  0  0  0  0  0  0  0  0
    8.9776  -17.4517   27.2804 O   0  0  0  0  0  0  0  0  0  0  0  0
   10.7043  -15.9958   27.4245 O   0  0  0  0  0  0  0  0  0  0  0  0
  1  2  1  0
  2  3  2  0
  4  5  1  0
  4  2  1  0
  6  5  1  0
  6  7  1  1
  8  9  2  0
  8  6  1  0
 10 11  1  0
 11 12  2  0
 12 13  1  0
 14 13  2  0
 14 15  1  0
 16 15  1  1
 16 17  1  0
 17  8  1  0
 18 16  1  0
 19 18  2  0
 20 14  1  0
 21 11  1  0
 21 20  2  0
 22 18  1  0
 23 29  1  0
 23 22  1  0
 23 24  1  1
 25 24  1  0
 26 25  1  0
 26 27  1  0
 27 28  1  0
 29 31  1  0
 30 29  2  0
M  END
$$$$
