QYK.pdb
     RDKit          3D

 31 31  0  0  1  0  0  0  0  0999 V2000
   12.1642  -19.2819   18.2797 N   0  0  0  0  0  0  0  0  0  0  0  0
   11.2341  -18.8904   17.2763 C   0  0  0  0  0  0  0  0  0  0  0  0
   11.1503  -19.6046   16.2624 O   0  0  0  0  0  0  0  0  0  0  0  0
   10.4445  -17.6797   17.5138 C   0  0  0  0  0  0  0  0  0  0  0  0
   10.5834  -17.0103   18.8237 C   0  0  0  0  0  0  0  0  0  0  0  0
    9.6815  -17.4251   19.9219 C   0  0  2  0  0  0  0  0  0  0  0  0
    8.3180  -17.4968   19.4776 N   0  0  0  0  0  0  0  0  0  0  0  0
    9.7582  -16.5394   21.1138 C   0  0  0  0  0  0  0  0  0  0  0  0
   10.8773  -16.1671   21.5485 O   0  0  0  0  0  0  0  0  0  0  0  0
    6.7072  -11.9384   28.1599 O   0  0  0  0  0  0  0  0  0  0  0  0
    6.8492  -12.6127   26.9301 C   0  0  0  0  0  0  0  0  0  0  0  0
    6.2577  -13.8366   26.7179 C   0  0  0  0  0  0  0  0  0  0  0  0
    6.4178  -14.4664   25.5039 C   0  0  0  0  0  0  0  0  0  0  0  0
    7.1510  -13.9333   24.4649 C   0  0  0  0  0  0  0  0  0  0  0  0
    7.2929  -14.6396   23.1891 C   0  0  0  0  0  0  0  0  0  0  0  0
    8.6467  -15.3231   23.0419 C   0  0  2  0  0  0  0  0  0  0  0  0
    8.5956  -16.0868   21.7962 N   0  0  0  0  0  0  0  0  0  0  0  0
    9.0033  -16.1435   24.1928 C   0  0  0  0  0  0  0  0  0  0  0  0
    8.2851  -17.1689   24.4467 O   0  0  0  0  0  0  0  0  0  0  0  0
    7.7356  -12.7086   24.6946 C   0  0  0  0  0  0  0  0  0  0  0  0
    7.5850  -12.0669   25.9019 C   0  0  0  0  0  0  0  0  0  0  0  0
   10.0859  -15.8832   25.0412 N   0  0  0  0  0  0  0  0  0  0  0  0
   10.4192  -16.8534   26.1073 C   0  0  1  0  0  0  0  0  0  0  0  0
   11.7265  -17.5072   25.7955 C   0  0  0  0  0  0  0  0  0  0  0  0
   11.5541  -18.5595   24.7388 C   0  0  0  0  0  0  0  0  0  0  0  0
   12.8757  -19.2672   24.4527 C   0  0  0  0  0  0  0  0  0  0  0  0
   12.6039  -20.2585   23.3322 C   0  0  0  0  0  0  0  0  0  0  0  0
   13.8650  -20.8970   23.0212 N   0  0  0  0  0  0  0  0  0  0  0  0
   10.5199  -16.0963   27.3681 C   0  0  0  0  0  0  0  0  0  0  0  0
   10.5620  -14.8211   27.3128 O   0  0  0  0  0  0  0  0  0  0  0  0
   10.5714  -16.6555   28.6381 O   0  0  0  0  0  0  0  0  0  0  0  0
  1  2  1  0
  2  3  2  0
  4  5  1  0
  4  2  1  0
  6  5  1  0
  6  7  1  6
  8  9  2  0
  8  6  1  0
 10 11  1  0
 11 12  2  0
 12 13  1  0
 14 13  2  0
 14 15  1  0
 16 15  1  1
 16 17  1  0
 17  8  1  0
 18 16  1  0
 19 18  2  0
 20 14  1  0
 21 11  1  0
 21 20  2  0
 22 18  1  0
 23 29  1  0
 23 22  1  0
 23 24  1  6
 25 24  1  0
 26 25  1  0
 26 27  1  0
 27 28  1  0
 29 31  1  0
 30 29  2  0
M  END
$$$$
