QYK.pdb
     RDKit          3D

 31 31  0  0  1  0  0  0  0  0999 V2000
    8.5688  -12.8579   16.1112 N   0  0  0  0  0  0  0  0  0  0  0  0
    7.7947  -14.0374   15.9254 C   0  0  0  0  0  0  0  0  0  0  0  0
    7.0341  -14.0749   14.9429 O   0  0  0  0  0  0  0  0  0  0  0  0
    7.9536  -15.1178   16.9016 C   0  0  0  0  0  0  0  0  0  0  0  0
    8.9356  -14.9275   17.9890 C   0  0  0  0  0  0  0  0  0  0  0  0
    9.0148  -15.9571   19.0499 C   0  0  2  0  0  0  0  0  0  0  0  0
    7.8699  -16.8232   19.0222 N   0  0  0  0  0  0  0  0  0  0  0  0
    9.1595  -15.3864   20.4153 C   0  0  0  0  0  0  0  0  0  0  0  0
   10.2107  -14.7744   20.7320 O   0  0  0  0  0  0  0  0  0  0  0  0
    6.8983  -12.1148   28.3436 O   0  0  0  0  0  0  0  0  0  0  0  0
    6.9158  -12.6489   27.0392 C   0  0  0  0  0  0  0  0  0  0  0  0
    7.4741  -11.9515   25.9928 C   0  0  0  0  0  0  0  0  0  0  0  0
    7.4733  -12.5044   24.7316 C   0  0  0  0  0  0  0  0  0  0  0  0
    6.9351  -13.7418   24.4473 C   0  0  0  0  0  0  0  0  0  0  0  0
    6.9582  -14.2907   23.0891 C   0  0  0  0  0  0  0  0  0  0  0  0
    8.2725  -14.9865   22.7574 C   0  0  2  0  0  0  0  0  0  0  0  0
    8.1382  -15.5063   21.3975 N   0  0  0  0  0  0  0  0  0  0  0  0
    8.6354  -16.0170   23.7224 C   0  0  0  0  0  0  0  0  0  0  0  0
    7.9404  -17.0885   23.7487 O   0  0  0  0  0  0  0  0  0  0  0  0
    6.3810  -14.4251   25.5057 C   0  0  0  0  0  0  0  0  0  0  0  0
    6.3740  -13.8863   26.7713 C   0  0  0  0  0  0  0  0  0  0  0  0
    9.7004  -15.9118   24.6248 N   0  0  0  0  0  0  0  0  0  0  0  0
   10.0577  -17.0786   25.4614 C   0  0  1  0  0  0  0  0  0  0  0  0
   11.3920  -17.6039   25.0403 C   0  0  0  0  0  0  0  0  0  0  0  0
   11.3174  -19.0770   24.7606 C   0  0  0  0  0  0  0  0  0  0  0  0
   12.6693  -19.6139   24.2987 C   0  0  0  0  0  0  0  0  0  0  0  0
   12.4503  -21.0683   23.9131 C   0  0  0  0  0  0  0  0  0  0  0  0
   13.7349  -21.5911   23.4993 N   0  0  0  0  0  0  0  0  0  0  0  0
   10.1158  -16.6106   26.8581 C   0  0  0  0  0  0  0  0  0  0  0  0
   10.3001  -15.3661   27.0779 O   0  0  0  0  0  0  0  0  0  0  0  0
    9.9828  -17.4168   27.9808 O   0  0  0  0  0  0  0  0  0  0  0  0
  1  2  1  0
  2  3  2  0
  4  5  1  0
  4  2  1  0
  6  5  1  0
  6  7  1  1
  8  9  2  0
  8  6  1  0
 10 11  1  0
 11 12  2  0
 12 13  1  0
 14 13  2  0
 14 15  1  0
 16 15  1  1
 16 17  1  0
 17  8  1  0
 18 16  1  0
 19 18  2  0
 20 14  1  0
 21 11  1  0
 21 20  2  0
 22 18  1  0
 23 29  1  0
 23 22  1  0
 23 24  1  6
 25 24  1  0
 26 25  1  0
 26 27  1  0
 27 28  1  0
 29 31  1  0
 30 29  2  0
M  END
$$$$
