QYK.pdb
     RDKit          3D

 31 31  0  0  1  0  0  0  0  0999 V2000
   11.5897  -16.9504   15.9541 N   0  0  0  0  0  0  0  0  0  0  0  0
   10.2339  -17.1471   15.5693 C   0  0  0  0  0  0  0  0  0  0  0  0
   10.0197  -17.5666   14.4189 O   0  0  0  0  0  0  0  0  0  0  0  0
    9.1945  -16.8444   16.5560 C   0  0  0  0  0  0  0  0  0  0  0  0
    9.6244  -16.4099   17.9012 C   0  0  0  0  0  0  0  0  0  0  0  0
    9.0503  -17.1010   19.0778 C   0  0  2  0  0  0  0  0  0  0  0  0
    7.6426  -17.3301   18.9122 N   0  0  0  0  0  0  0  0  0  0  0  0
    9.2776  -16.3761   20.3560 C   0  0  0  0  0  0  0  0  0  0  0  0
   10.4496  -16.1674   20.7597 O   0  0  0  0  0  0  0  0  0  0  0  0
    7.2671  -11.8611   27.8013 O   0  0  0  0  0  0  0  0  0  0  0  0
    7.2334  -12.5064   26.5484 C   0  0  0  0  0  0  0  0  0  0  0  0
    6.5682  -13.6990   26.3806 C   0  0  0  0  0  0  0  0  0  0  0  0
    6.5563  -14.3010   25.1422 C   0  0  0  0  0  0  0  0  0  0  0  0
    7.1844  -13.7697   24.0356 C   0  0  0  0  0  0  0  0  0  0  0  0
    7.1438  -14.4458   22.7364 C   0  0  0  0  0  0  0  0  0  0  0  0
    8.3985  -15.2646   22.4593 C   0  0  2  0  0  0  0  0  0  0  0  0
    8.2036  -15.8995   21.1568 N   0  0  0  0  0  0  0  0  0  0  0  0
    8.7027  -16.2230   23.5146 C   0  0  0  0  0  0  0  0  0  0  0  0
    7.9319  -17.2324   23.6515 O   0  0  0  0  0  0  0  0  0  0  0  0
    7.8448  -12.5766   24.2217 C   0  0  0  0  0  0  0  0  0  0  0  0
    7.8658  -11.9628   25.4525 C   0  0  0  0  0  0  0  0  0  0  0  0
    9.7888  -16.1123   24.3908 N   0  0  0  0  0  0  0  0  0  0  0  0
   10.0864  -17.2258   25.3185 C   0  0  1  0  0  0  0  0  0  0  0  0
   11.5156  -17.6348   25.1640 C   0  0  0  0  0  0  0  0  0  0  0  0
   11.8482  -18.7620   26.0980 C   0  0  0  0  0  0  0  0  0  0  0  0
   13.3160  -19.1604   25.9715 C   0  0  0  0  0  0  0  0  0  0  0  0
   13.5472  -20.2881   26.9650 C   0  0  0  0  0  0  0  0  0  0  0  0
   14.8907  -20.7772   26.7401 N   0  0  0  0  0  0  0  0  0  0  0  0
    9.8471  -16.7285   26.6854 C   0  0  0  0  0  0  0  0  0  0  0  0
   10.0431  -15.4900   26.9276 O   0  0  0  0  0  0  0  0  0  0  0  0
    9.4159  -17.5004   27.7562 O   0  0  0  0  0  0  0  0  0  0  0  0
  1  2  1  0
  2  3  2  0
  4  5  1  0
  4  2  1  0
  6  5  1  0
  6  7  1  6
  8  9  2  0
  8  6  1  0
 10 11  1  0
 11 12  2  0
 12 13  1  0
 14 13  2  0
 14 15  1  0
 16 15  1  1
 16 17  1  0
 17  8  1  0
 18 16  1  0
 19 18  2  0
 20 14  1  0
 21 11  1  0
 21 20  2  0
 22 18  1  0
 23 29  1  0
 23 22  1  0
 23 24  1  1
 25 24  1  0
 26 25  1  0
 26 27  1  0
 27 28  1  0
 29 31  1  0
 30 29  2  0
M  END
$$$$
