QYK.pdb
     RDKit          3D

 31 31  0  0  1  0  0  0  0  0999 V2000
    7.8511  -21.0650   19.9171 N   0  0  0  0  0  0  0  0  0  0  0  0
    9.2174  -20.8092   20.2222 C   0  0  0  0  0  0  0  0  0  0  0  0
    9.9116  -21.7714   20.5932 O   0  0  0  0  0  0  0  0  0  0  0  0
    9.7034  -19.4355   20.0737 C   0  0  0  0  0  0  0  0  0  0  0  0
    8.7396  -18.4053   19.6346 C   0  0  0  0  0  0  0  0  0  0  0  0
    9.2130  -17.0076   19.5161 C   0  0  2  0  0  0  0  0  0  0  0  0
   10.4490  -16.9359   18.7888 N   0  0  0  0  0  0  0  0  0  0  0  0
    9.3815  -16.3292   20.8285 C   0  0  0  0  0  0  0  0  0  0  0  0
   10.5081  -16.3105   21.3856 O   0  0  0  0  0  0  0  0  0  0  0  0
    6.9777  -11.9203   28.2248 O   0  0  0  0  0  0  0  0  0  0  0  0
    7.0152  -12.5169   26.9481 C   0  0  0  0  0  0  0  0  0  0  0  0
    7.7497  -11.9623   25.9255 C   0  0  0  0  0  0  0  0  0  0  0  0
    7.7631  -12.5725   24.6911 C   0  0  0  0  0  0  0  0  0  0  0  0
    7.0699  -13.7312   24.4114 C   0  0  0  0  0  0  0  0  0  0  0  0
    7.1149  -14.3460   23.0822 C   0  0  0  0  0  0  0  0  0  0  0  0
    8.4236  -15.0796   22.8167 C   0  0  2  0  0  0  0  0  0  0  0  0
    8.3002  -15.6879   21.4930 N   0  0  0  0  0  0  0  0  0  0  0  0
    8.7592  -16.0474   23.8537 C   0  0  0  0  0  0  0  0  0  0  0  0
    8.0496  -17.1060   23.9415 O   0  0  0  0  0  0  0  0  0  0  0  0
    6.3407  -14.2720   25.4458 C   0  0  0  0  0  0  0  0  0  0  0  0
    6.3172  -13.6744   26.6845 C   0  0  0  0  0  0  0  0  0  0  0  0
    9.8129  -15.8952   24.7627 N   0  0  0  0  0  0  0  0  0  0  0  0
   10.0922  -16.9757   25.7340 C   0  0  1  0  0  0  0  0  0  0  0  0
   11.4684  -17.5107   25.5024 C   0  0  0  0  0  0  0  0  0  0  0  0
   11.8047  -18.5655   26.5163 C   0  0  0  0  0  0  0  0  0  0  0  0
   13.2234  -19.0885   26.3097 C   0  0  0  0  0  0  0  0  0  0  0  0
   13.4705  -20.1171   27.4019 C   0  0  0  0  0  0  0  0  0  0  0  0
   14.8226  -20.6019   27.2242 N   0  0  0  0  0  0  0  0  0  0  0  0
    9.9992  -16.3841   27.0810 C   0  0  0  0  0  0  0  0  0  0  0  0
   10.0060  -17.1640   28.0923 O   0  0  0  0  0  0  0  0  0  0  0  0
    9.9056  -15.0263   27.3564 O   0  0  0  0  0  0  0  0  0  0  0  0
  1  2  1  0
  2  3  2  0
  4  5  1  0
  4  2  1  0
  6  5  1  0
  6  7  1  1
  8  9  2  0
  8  6  1  0
 10 11  1  0
 11 12  2  0
 12 13  1  0
 14 13  2  0
 14 15  1  0
 16 15  1  1
 16 17  1  0
 17  8  1  0
 18 16  1  0
 19 18  2  0
 20 14  1  0
 21 11  1  0
 21 20  2  0
 22 18  1  0
 23 29  1  0
 23 22  1  0
 23 24  1  6
 25 24  1  0
 26 25  1  0
 26 27  1  0
 27 28  1  0
 29 31  1  0
 30 29  2  0
M  END
$$$$
