QYK.pdb
     RDKit          3D

 31 31  0  0  1  0  0  0  0  0999 V2000
    8.6586  -14.5263   15.1708 N   0  0  0  0  0  0  0  0  0  0  0  0
    8.2302  -14.0627   16.4462 C   0  0  0  0  0  0  0  0  0  0  0  0
    8.0273  -12.8430   16.5742 O   0  0  0  0  0  0  0  0  0  0  0  0
    8.0576  -15.0552   17.5096 C   0  0  0  0  0  0  0  0  0  0  0  0
    9.2659  -15.5267   18.2172 C   0  0  0  0  0  0  0  0  0  0  0  0
    9.0928  -16.4536   19.3586 C   0  0  2  0  0  0  0  0  0  0  0  0
    7.8248  -17.1247   19.2973 N   0  0  0  0  0  0  0  0  0  0  0  0
    9.2279  -15.7901   20.6823 C   0  0  0  0  0  0  0  0  0  0  0  0
   10.3361  -15.3136   21.0357 O   0  0  0  0  0  0  0  0  0  0  0  0
    6.8789  -12.0023   28.3850 O   0  0  0  0  0  0  0  0  0  0  0  0
    6.9011  -12.5847   27.1014 C   0  0  0  0  0  0  0  0  0  0  0  0
    7.4955  -11.9428   26.0396 C   0  0  0  0  0  0  0  0  0  0  0  0
    7.4983  -12.5418   24.7997 C   0  0  0  0  0  0  0  0  0  0  0  0
    6.9290  -13.7730   24.5519 C   0  0  0  0  0  0  0  0  0  0  0  0
    6.9572  -14.3724   23.2153 C   0  0  0  0  0  0  0  0  0  0  0  0
    8.2630  -15.1017   22.9245 C   0  0  2  0  0  0  0  0  0  0  0  0
    8.1345  -15.6694   21.5833 N   0  0  0  0  0  0  0  0  0  0  0  0
    8.5981  -16.1014   23.9310 C   0  0  0  0  0  0  0  0  0  0  0  0
    7.8400  -17.1238   24.0397 O   0  0  0  0  0  0  0  0  0  0  0  0
    6.3389  -14.4007   25.6253 C   0  0  0  0  0  0  0  0  0  0  0  0
    6.3279  -13.8153   26.8701 C   0  0  0  0  0  0  0  0  0  0  0  0
    9.7010  -16.0171   24.7890 N   0  0  0  0  0  0  0  0  0  0  0  0
    9.9743  -17.1280   25.7271 C   0  0  1  0  0  0  0  0  0  0  0  0
   11.2587  -17.7934   25.3511 C   0  0  0  0  0  0  0  0  0  0  0  0
   11.0860  -18.6132   24.1054 C   0  0  0  0  0  0  0  0  0  0  0  0
   12.3848  -19.3243   23.7357 C   0  0  0  0  0  0  0  0  0  0  0  0
   12.0993  -20.1214   22.4727 C   0  0  0  0  0  0  0  0  0  0  0  0
   13.3373  -20.7696   22.0963 N   0  0  0  0  0  0  0  0  0  0  0  0
   10.0838  -16.5416   27.0752 C   0  0  0  0  0  0  0  0  0  0  0  0
   10.3012  -17.3201   28.0639 O   0  0  0  0  0  0  0  0  0  0  0  0
    9.9724  -15.1900   27.3739 O   0  0  0  0  0  0  0  0  0  0  0  0
  1  2  1  0
  2  3  2  0
  4  5  1  0
  4  2  1  0
  6  5  1  0
  6  7  1  1
  8  9  2  0
  8  6  1  0
 10 11  1  0
 11 12  2  0
 12 13  1  0
 14 13  2  0
 14 15  1  0
 16 15  1  1
 16 17  1  0
 17  8  1  0
 18 16  1  0
 19 18  2  0
 20 14  1  0
 21 11  1  0
 21 20  2  0
 22 18  1  0
 23 29  1  0
 23 22  1  0
 23 24  1  6
 25 24  1  0
 26 25  1  0
 26 27  1  0
 27 28  1  0
 29 31  1  0
 30 29  2  0
M  END
$$$$
