QYK.pdb
     RDKit          3D

 31 31  0  0  1  0  0  0  0  0999 V2000
    8.8839  -13.6570   15.2825 N   0  0  0  0  0  0  0  0  0  0  0  0
    8.1026  -14.5597   16.0571 C   0  0  0  0  0  0  0  0  0  0  0  0
    7.5058  -15.4664   15.4513 O   0  0  0  0  0  0  0  0  0  0  0  0
    8.0624  -14.3554   17.5069 C   0  0  0  0  0  0  0  0  0  0  0  0
    9.3020  -14.5979   18.2734 C   0  0  0  0  0  0  0  0  0  0  0  0
    9.2938  -15.6642   19.3005 C   0  0  2  0  0  0  0  0  0  0  0  0
    8.1180  -16.4814   19.1939 N   0  0  0  0  0  0  0  0  0  0  0  0
    9.4004  -15.1450   20.6897 C   0  0  0  0  0  0  0  0  0  0  0  0
   10.4991  -14.7047   21.1129 O   0  0  0  0  0  0  0  0  0  0  0  0
    7.0112  -12.0033   28.6461 O   0  0  0  0  0  0  0  0  0  0  0  0
    7.0439  -12.4723   27.3172 C   0  0  0  0  0  0  0  0  0  0  0  0
    6.3003  -13.5631   26.9297 C   0  0  0  0  0  0  0  0  0  0  0  0
    6.3568  -13.9934   25.6229 C   0  0  0  0  0  0  0  0  0  0  0  0
    7.1304  -13.3841   24.6575 C   0  0  0  0  0  0  0  0  0  0  0  0
    7.1581  -13.8767   23.2780 C   0  0  0  0  0  0  0  0  0  0  0  0
    8.3929  -14.7173   22.9776 C   0  0  2  0  0  0  0  0  0  0  0  0
    8.2898  -15.1253   21.5774 N   0  0  0  0  0  0  0  0  0  0  0  0
    8.5523  -15.8471   23.8846 C   0  0  0  0  0  0  0  0  0  0  0  0
    7.6571  -16.7583   23.8742 O   0  0  0  0  0  0  0  0  0  0  0  0
    7.8675  -12.2947   25.0627 C   0  0  0  0  0  0  0  0  0  0  0  0
    7.8218  -11.8527   26.3645 C   0  0  0  0  0  0  0  0  0  0  0  0
    9.6263  -16.0025   24.7690 N   0  0  0  0  0  0  0  0  0  0  0  0
    9.7233  -17.2365   25.5795 C   0  0  1  0  0  0  0  0  0  0  0  0
   10.9408  -18.0036   25.1757 C   0  0  0  0  0  0  0  0  0  0  0  0
   10.7949  -18.5319   23.7781 C   0  0  0  0  0  0  0  0  0  0  0  0
   12.0331  -19.3205   23.3608 C   0  0  0  0  0  0  0  0  0  0  0  0
   11.7424  -19.8871   21.9800 C   0  0  0  0  0  0  0  0  0  0  0  0
   12.9003  -20.6641   21.5925 N   0  0  0  0  0  0  0  0  0  0  0  0
    9.8307  -16.8225   26.9902 C   0  0  0  0  0  0  0  0  0  0  0  0
    9.9063  -17.7276   27.8881 O   0  0  0  0  0  0  0  0  0  0  0  0
    9.8605  -15.5096   27.4414 O   0  0  0  0  0  0  0  0  0  0  0  0
  1  2  1  0
  2  3  2  0
  4  5  1  0
  4  2  1  0
  6  5  1  0
  6  7  1  1
  8  9  2  0
  8  6  1  0
 10 11  1  0
 11 12  2  0
 12 13  1  0
 14 13  2  0
 14 15  1  0
 16 15  1  1
 16 17  1  0
 17  8  1  0
 18 16  1  0
 19 18  2  0
 20 14  1  0
 21 11  1  0
 21 20  2  0
 22 18  1  0
 23 29  1  0
 23 22  1  0
 23 24  1  6
 25 24  1  0
 26 25  1  0
 26 27  1  0
 27 28  1  0
 29 31  1  0
 30 29  2  0
M  END
$$$$
