QYK.pdb
     RDKit          3D

 31 31  0  0  1  0  0  0  0  0999 V2000
    8.6417  -12.5218   17.8661 N   0  0  0  0  0  0  0  0  0  0  0  0
    8.1646  -13.7605   17.3531 C   0  0  0  0  0  0  0  0  0  0  0  0
    7.6020  -13.7433   16.2448 O   0  0  0  0  0  0  0  0  0  0  0  0
    8.3742  -14.9609   18.1659 C   0  0  0  0  0  0  0  0  0  0  0  0
    9.0631  -14.8050   19.4637 C   0  0  0  0  0  0  0  0  0  0  0  0
    9.2446  -16.0063   20.3096 C   0  0  2  0  0  0  0  0  0  0  0  0
    8.1959  -16.9620   20.0896 N   0  0  0  0  0  0  0  0  0  0  0  0
    9.3241  -15.6978   21.7620 C   0  0  0  0  0  0  0  0  0  0  0  0
   10.2662  -14.9925   22.2035 O   0  0  0  0  0  0  0  0  0  0  0  0
    6.4072  -10.3883   26.8243 O   0  0  0  0  0  0  0  0  0  0  0  0
    6.5488  -11.6752   26.2665 C   0  0  0  0  0  0  0  0  0  0  0  0
    6.4825  -12.8022   27.0529 C   0  0  0  0  0  0  0  0  0  0  0  0
    6.6252  -14.0432   26.4736 C   0  0  0  0  0  0  0  0  0  0  0  0
    6.8351  -14.2295   25.1235 C   0  0  0  0  0  0  0  0  0  0  0  0
    6.9800  -15.5703   24.5510 C   0  0  0  0  0  0  0  0  0  0  0  0
    8.4095  -15.8755   24.1208 C   0  0  2  0  0  0  0  0  0  0  0  0
    8.3599  -16.1767   22.6910 N   0  0  0  0  0  0  0  0  0  0  0  0
    9.0284  -16.9400   24.9009 C   0  0  0  0  0  0  0  0  0  0  0  0
    8.5672  -18.1246   24.7750 O   0  0  0  0  0  0  0  0  0  0  0  0
    6.8986  -13.0914   24.3522 C   0  0  0  0  0  0  0  0  0  0  0  0
    6.7580  -11.8445   24.9159 C   0  0  0  0  0  0  0  0  0  0  0  0
   10.1004  -16.7511   25.7811 N   0  0  0  0  0  0  0  0  0  0  0  0
   10.6806  -17.9212   26.4762 C   0  0  1  0  0  0  0  0  0  0  0  0
   12.1431  -18.0025   26.1794 C   0  0  0  0  0  0  0  0  0  0  0  0
   12.4286  -19.1257   25.2253 C   0  0  0  0  0  0  0  0  0  0  0  0
   13.9258  -19.2443   24.9543 C   0  0  0  0  0  0  0  0  0  0  0  0
   14.0973  -20.3718   23.9486 C   0  0  0  0  0  0  0  0  0  0  0  0
   15.5166  -20.4948   23.6934 N   0  0  0  0  0  0  0  0  0  0  0  0
   10.4677  -17.7181   27.9207 C   0  0  0  0  0  0  0  0  0  0  0  0
    9.9446  -16.6210   28.3125 O   0  0  0  0  0  0  0  0  0  0  0  0
   10.7887  -18.6323   28.9155 O   0  0  0  0  0  0  0  0  0  0  0  0
  1  2  1  0
  2  3  2  0
  4  5  1  0
  4  2  1  0
  6  5  1  0
  6  7  1  1
  8  9  2  0
  8  6  1  0
 10 11  1  0
 11 12  2  0
 12 13  1  0
 14 13  2  0
 14 15  1  0
 16 15  1  1
 16 17  1  0
 17  8  1  0
 18 16  1  0
 19 18  2  0
 20 14  1  0
 21 11  1  0
 21 20  2  0
 22 18  1  0
 23 29  1  0
 23 22  1  0
 23 24  1  1
 25 24  1  0
 26 25  1  0
 26 27  1  0
 27 28  1  0
 29 31  1  0
 30 29  2  0
M  END
$$$$
