GDN.pdb
     RDKit          3D

 21 20  0  0  1  0  0  0  0  0999 V2000
   42.7862   -9.1803   -2.6858 N   0  0  0  0  0  0  0  0  0  0  0  0
   42.8947  -10.0901   -3.8116 C   0  0  0  0  0  0  0  0  0  0  0  0
   42.7460   -9.2590   -5.0443 C   0  0  0  0  0  0  0  0  0  0  0  0
   42.6280   -8.0112   -5.0264 O   0  0  0  0  0  0  0  0  0  0  0  0
   42.7278   -9.8410   -6.3589 N   0  0  0  0  0  0  0  0  0  0  0  0
   42.7301   -9.0832   -7.5487 C   0  0  1  0  0  0  0  0  0  0  0  0
   43.3191   -9.7446   -8.7531 C   0  0  0  0  0  0  0  0  0  0  0  0
   44.7794  -10.0110   -8.6220 C   0  0  0  0  0  0  0  0  0  0  0  0
   45.2276  -11.1623   -8.3512 O   0  0  0  0  0  0  0  0  0  0  0  0
   41.3449   -8.6804   -7.8881 C   0  0  0  0  0  0  0  0  0  0  0  0
   40.4422   -9.5548   -7.8971 O   0  0  0  0  0  0  0  0  0  0  0  0
   45.7343   -9.0104   -8.7892 O   0  0  0  0  0  0  0  0  0  0  0  0
   36.4910   -7.0144   -7.1445 N   0  0  0  0  0  0  0  0  0  0  0  0
   37.5474   -6.1134   -7.4187 C   0  0  0  0  0  0  0  0  0  0  0  0
   37.2928   -4.9777   -7.8603 O   0  0  0  0  0  0  0  0  0  0  0  0
   38.9429   -6.5145   -7.1838 C   0  0  0  0  0  0  0  0  0  0  0  0
   39.5669   -6.9840   -8.4522 C   0  0  2  0  0  0  0  0  0  0  0  0
   40.9735   -7.3542   -8.2062 N   0  0  0  0  0  0  0  0  0  0  0  0
   39.5022   -6.0297   -9.5598 C   0  0  0  0  0  0  0  0  0  0  0  0
   38.4698   -6.1555  -10.5059 O   0  0  0  0  0  0  0  0  0  0  0  0
   40.3348   -5.0995   -9.7002 O   0  0  0  0  0  0  0  0  0  0  0  0
  1  2  1  0
  2  3  1  0
  3  4  2  0
  5  6  1  0
  5  3  1  0
  7  8  1  0
  6  7  1  6
  8  9  2  0
 10  6  1  0
 11 10  2  0
 12  8  1  0
 13 14  1  0
 14 16  1  0
 14 15  2  0
 17 16  1  1
 17 18  1  0
 17 19  1  0
 18 10  1  0
 19 21  2  0
 19 20  1  0
M  END
$$$$
