GDN.pdb
     RDKit          3D

 21 20  0  0  1  0  0  0  0  0999 V2000
   25.9429  -21.6501  -13.9089 N   0  0  0  0  0  0  0  0  0  0  0  0
   24.8958  -21.4733  -14.8985 C   0  0  0  0  0  0  0  0  0  0  0  0
   23.6615  -21.0947  -14.1466 C   0  0  0  0  0  0  0  0  0  0  0  0
   23.6175  -20.9895  -12.8983 O   0  0  0  0  0  0  0  0  0  0  0  0
   22.4172  -20.8194  -14.8124 N   0  0  0  0  0  0  0  0  0  0  0  0
   21.2401  -20.4311  -14.1390 C   0  0  1  0  0  0  0  0  0  0  0  0
   20.3000  -19.5541  -14.9021 C   0  0  0  0  0  0  0  0  0  0  0  0
   20.7771  -18.1477  -15.0249 C   0  0  0  0  0  0  0  0  0  0  0  0
   21.4109  -17.7428  -16.0417 O   0  0  0  0  0  0  0  0  0  0  0  0
   20.4876  -21.6344  -13.7122 C   0  0  0  0  0  0  0  0  0  0  0  0
   20.4956  -22.6506  -14.4516 O   0  0  0  0  0  0  0  0  0  0  0  0
   20.5543  -17.1989  -14.0294 O   0  0  0  0  0  0  0  0  0  0  0  0
   17.9451  -25.2158  -11.1287 N   0  0  0  0  0  0  0  0  0  0  0  0
   18.6358  -24.4094  -10.1930 C   0  0  0  0  0  0  0  0  0  0  0  0
   18.6736  -24.7462   -8.9951 O   0  0  0  0  0  0  0  0  0  0  0  0
   19.3082  -23.1767  -10.6311 C   0  0  0  0  0  0  0  0  0  0  0  0
   19.0827  -22.9536  -12.0865 C   0  0  2  0  0  0  0  0  0  0  0  0
   19.7523  -21.7083  -12.5074 N   0  0  0  0  0  0  0  0  0  0  0  0
   17.6773  -22.9105  -12.4919 C   0  0  0  0  0  0  0  0  0  0  0  0
   16.9268  -21.7528  -12.2208 O   0  0  0  0  0  0  0  0  0  0  0  0
   17.1119  -23.8694  -13.0742 O   0  0  0  0  0  0  0  0  0  0  0  0
  1  2  1  0
  2  3  1  0
  3  4  2  0
  5  6  1  0
  5  3  1  0
  7  8  1  0
  6  7  1  6
  8  9  2  0
 10  6  1  0
 11 10  2  0
 12  8  1  0
 13 14  1  0
 14 16  1  0
 14 15  2  0
 17 16  1  1
 17 18  1  0
 17 19  1  0
 18 10  1  0
 19 21  2  0
 19 20  1  0
M  END
$$$$
