GDN.pdb
     RDKit          3D

 21 20  0  0  1  0  0  0  0  0999 V2000
   16.0172  -12.9892  -15.3625 N   0  0  0  0  0  0  0  0  0  0  0  0
   16.2824  -11.5942  -15.6632 C   0  0  0  0  0  0  0  0  0  0  0  0
   17.7528  -11.3949  -15.4885 C   0  0  0  0  0  0  0  0  0  0  0  0
   18.3275  -11.4299  -14.3751 O   0  0  0  0  0  0  0  0  0  0  0  0
   18.6263  -11.1454  -16.6029 N   0  0  0  0  0  0  0  0  0  0  0  0
   20.0089  -10.8984  -16.4717 C   0  0  1  0  0  0  0  0  0  0  0  0
   20.8786  -11.3995  -17.5797 C   0  0  0  0  0  0  0  0  0  0  0  0
   21.0013  -12.8844  -17.6048 C   0  0  0  0  0  0  0  0  0  0  0  0
   20.3156  -13.5990  -18.3913 O   0  0  0  0  0  0  0  0  0  0  0  0
   20.2465   -9.4419  -16.3361 C   0  0  0  0  0  0  0  0  0  0  0  0
   19.4863   -8.6430  -16.9389 O   0  0  0  0  0  0  0  0  0  0  0  0
   21.8758  -13.5710  -16.7653 O   0  0  0  0  0  0  0  0  0  0  0  0
   21.9929   -4.8215  -14.9376 N   0  0  0  0  0  0  0  0  0  0  0  0
   22.1860   -5.7035  -13.8476 C   0  0  0  0  0  0  0  0  0  0  0  0
   22.5689   -5.2566  -12.7506 O   0  0  0  0  0  0  0  0  0  0  0  0
   21.9357   -7.1441  -14.0071 C   0  0  0  0  0  0  0  0  0  0  0  0
   21.4322   -7.4331  -15.3788 C   0  0  2  0  0  0  0  0  0  0  0  0
   21.2903   -8.8904  -15.5588 N   0  0  0  0  0  0  0  0  0  0  0  0
   22.2503   -6.8871  -16.4623 C   0  0  0  0  0  0  0  0  0  0  0  0
   22.0323   -5.5613  -16.8767 O   0  0  0  0  0  0  0  0  0  0  0  0
   23.1426   -7.5571  -17.0394 O   0  0  0  0  0  0  0  0  0  0  0  0
  1  2  1  0
  2  3  1  0
  3  4  2  0
  5  6  1  0
  5  3  1  0
  7  8  1  0
  6  7  1  6
  8  9  2  0
 10  6  1  0
 11 10  2  0
 12  8  1  0
 13 14  1  0
 14 16  1  0
 14 15  2  0
 17 16  1  1
 17 18  1  0
 17 19  1  0
 18 10  1  0
 19 21  2  0
 19 20  1  0
M  END
$$$$
