GDN.pdb
     RDKit          3D

 21 20  0  0  1  0  0  0  0  0999 V2000
   20.4605  -13.0081  -17.8203 N   0  0  0  0  0  0  0  0  0  0  0  0
   21.0767  -12.1560  -16.8198 C   0  0  0  0  0  0  0  0  0  0  0  0
   20.1731  -10.9782  -16.6511 C   0  0  0  0  0  0  0  0  0  0  0  0
   20.1453  -10.0091  -17.4457 O   0  0  0  0  0  0  0  0  0  0  0  0
   19.2568  -10.8717  -15.5483 N   0  0  0  0  0  0  0  0  0  0  0  0
   18.3842   -9.7793  -15.3605 C   0  0  1  0  0  0  0  0  0  0  0  0
   17.1298  -10.0584  -14.5964 C   0  0  0  0  0  0  0  0  0  0  0  0
   16.2386  -11.0447  -15.2700 C   0  0  0  0  0  0  0  0  0  0  0  0
   15.7557  -10.8337  -16.4197 O   0  0  0  0  0  0  0  0  0  0  0  0
   19.0988   -8.6813  -14.6677 C   0  0  0  0  0  0  0  0  0  0  0  0
   19.8374   -8.9584  -13.6894 O   0  0  0  0  0  0  0  0  0  0  0  0
   15.8854  -12.2536  -14.6744 O   0  0  0  0  0  0  0  0  0  0  0  0
   22.4623   -5.4657  -12.8319 N   0  0  0  0  0  0  0  0  0  0  0  0
   22.1646   -5.5429  -14.2134 C   0  0  0  0  0  0  0  0  0  0  0  0
   22.6437   -4.7029  -14.9973 O   0  0  0  0  0  0  0  0  0  0  0  0
   21.2923   -6.6112  -14.7246 C   0  0  0  0  0  0  0  0  0  0  0  0
   19.8642   -6.2888  -14.4503 C   0  0  2  0  0  0  0  0  0  0  0  0
   18.9982   -7.3234  -15.0468 N   0  0  0  0  0  0  0  0  0  0  0  0
   19.4320   -4.9687  -14.9107 C   0  0  0  0  0  0  0  0  0  0  0  0
   19.0208   -4.8159  -16.2466 O   0  0  0  0  0  0  0  0  0  0  0  0
   19.4135   -3.9628  -14.1584 O   0  0  0  0  0  0  0  0  0  0  0  0
  1  2  1  0
  2  3  1  0
  3  4  2  0
  5  6  1  0
  5  3  1  0
  7  8  1  0
  6  7  1  1
  8  9  2  0
 10  6  1  0
 11 10  2  0
 12  8  1  0
 13 14  1  0
 14 16  1  0
 14 15  2  0
 17 16  1  6
 17 18  1  0
 17 19  1  0
 18 10  1  0
 19 21  2  0
 19 20  1  0
M  END
$$$$
