GDN.pdb
     RDKit          3D

 21 20  0  0  1  0  0  0  0  0999 V2000
   16.0162  -12.3506  -14.5790 N   0  0  0  0  0  0  0  0  0  0  0  0
   17.0771  -11.4900  -15.0696 C   0  0  0  0  0  0  0  0  0  0  0  0
   17.5236  -10.6631  -13.9081 C   0  0  0  0  0  0  0  0  0  0  0  0
   17.7258  -11.1318  -12.7632 O   0  0  0  0  0  0  0  0  0  0  0  0
   17.7570   -9.2491  -14.0234 N   0  0  0  0  0  0  0  0  0  0  0  0
   18.1932   -8.4396  -12.9536 C   0  0  1  0  0  0  0  0  0  0  0  0
   19.0748   -7.2869  -13.3131 C   0  0  0  0  0  0  0  0  0  0  0  0
   20.4054   -7.7057  -13.8371 C   0  0  0  0  0  0  0  0  0  0  0  0
   20.8170   -7.3496  -14.9788 O   0  0  0  0  0  0  0  0  0  0  0  0
   17.0215   -7.9003  -12.2239 C   0  0  0  0  0  0  0  0  0  0  0  0
   16.0240   -7.5083  -12.8803 O   0  0  0  0  0  0  0  0  0  0  0  0
   21.2718   -8.5125  -13.1026 O   0  0  0  0  0  0  0  0  0  0  0  0
   13.6159   -6.4342   -8.7094 N   0  0  0  0  0  0  0  0  0  0  0  0
   14.3472   -7.5188   -8.1691 C   0  0  0  0  0  0  0  0  0  0  0  0
   13.9747   -8.0470   -7.1051 O   0  0  0  0  0  0  0  0  0  0  0  0
   15.5438   -8.0229   -8.8600 C   0  0  0  0  0  0  0  0  0  0  0  0
   15.7592   -7.2782  -10.1318 C   0  0  2  0  0  0  0  0  0  0  0  0
   16.9580   -7.7995  -10.8155 N   0  0  0  0  0  0  0  0  0  0  0  0
   15.8773   -5.8272   -9.9828 C   0  0  0  0  0  0  0  0  0  0  0  0
   14.7072   -5.0617   -9.8350 O   0  0  0  0  0  0  0  0  0  0  0  0
   16.9855   -5.2356   -9.9817 O   0  0  0  0  0  0  0  0  0  0  0  0
  1  2  1  0
  2  3  1  0
  3  4  2  0
  5  6  1  0
  5  3  1  0
  7  8  1  0
  6  7  1  6
  8  9  2  0
 10  6  1  0
 11 10  2  0
 12  8  1  0
 13 14  1  0
 14 16  1  0
 14 15  2  0
 17 16  1  1
 17 18  1  0
 17 19  1  0
 18 10  1  0
 19 21  2  0
 19 20  1  0
M  END
$$$$
