GDN.pdb
     RDKit          3D

 21 20  0  0  1  0  0  0  0  0999 V2000
   18.9785  -14.8414  -17.0311 N   0  0  0  0  0  0  0  0  0  0  0  0
   18.3863  -13.5301  -17.2227 C   0  0  0  0  0  0  0  0  0  0  0  0
   19.2267  -12.5679  -16.4479 C   0  0  0  0  0  0  0  0  0  0  0  0
   18.8663  -12.0536  -15.3631 O   0  0  0  0  0  0  0  0  0  0  0  0
   20.5289  -12.1579  -16.8989 N   0  0  0  0  0  0  0  0  0  0  0  0
   21.3292  -11.2147  -16.2208 C   0  0  1  0  0  0  0  0  0  0  0  0
   22.7862  -11.2208  -16.5557 C   0  0  0  0  0  0  0  0  0  0  0  0
   23.6062  -10.3933  -15.6265 C   0  0  0  0  0  0  0  0  0  0  0  0
   23.0931   -9.7820  -14.6453 O   0  0  0  0  0  0  0  0  0  0  0  0
   20.8146   -9.8481  -16.4733 C   0  0  0  0  0  0  0  0  0  0  0  0
   20.7385   -9.4362  -17.6582 O   0  0  0  0  0  0  0  0  0  0  0  0
   24.9825  -10.2443  -15.7836 O   0  0  0  0  0  0  0  0  0  0  0  0
   16.9507   -5.9453  -16.3353 N   0  0  0  0  0  0  0  0  0  0  0  0
   17.8907   -6.2182  -15.3130 C   0  0  0  0  0  0  0  0  0  0  0  0
   18.2536   -5.3065  -14.5470 O   0  0  0  0  0  0  0  0  0  0  0  0
   18.4387   -7.5738  -15.1532 C   0  0  0  0  0  0  0  0  0  0  0  0
   19.8002   -7.6553  -15.7520 C   0  0  2  0  0  0  0  0  0  0  0  0
   20.3985   -8.9689  -15.4477 N   0  0  0  0  0  0  0  0  0  0  0  0
   20.7194   -6.5949  -15.3371 C   0  0  0  0  0  0  0  0  0  0  0  0
   21.9283   -6.9492  -14.7127 O   0  0  0  0  0  0  0  0  0  0  0  0
   20.4712   -5.3766  -15.5167 O   0  0  0  0  0  0  0  0  0  0  0  0
  1  2  1  0
  2  3  1  0
  3  4  2  0
  5  6  1  0
  5  3  1  0
  7  8  1  0
  6  7  1  6
  8  9  2  0
 10  6  1  0
 11 10  2  0
 12  8  1  0
 13 14  1  0
 14 16  1  0
 14 15  2  0
 17 16  1  1
 17 18  1  0
 17 19  1  0
 18 10  1  0
 19 21  2  0
 19 20  1  0
M  END
$$$$
