ARY.pdb
     RDKit          3D

 29 29  0  0  1  0  0  0  0  0999 V2000
   21.8231  -13.4257  -17.3583 C   0  0  0  0  0  0  0  0  0  0  0  0
   21.3857  -13.0385  -18.7509 C   0  0  2  0  0  0  0  0  0  0  0  0
   22.1088  -13.8548  -19.7043 N   0  0  0  0  0  0  0  0  0  0  0  0
   21.6289  -11.6062  -19.0474 C   0  0  0  0  0  0  0  0  0  0  0  0
   22.6721  -11.2021  -19.6224 O   0  0  0  0  0  0  0  0  0  0  0  0
   15.9230  -10.7630  -18.8424 N   0  0  0  0  0  0  0  0  0  0  0  0
   15.3574   -9.5040  -18.4846 C   0  0  0  0  0  0  0  0  0  0  0  0
   14.4264   -9.4578  -17.5965 N   0  0  0  0  0  0  0  0  0  0  0  0
   15.8574   -8.3520  -19.1351 N   0  0  0  0  0  0  0  0  0  0  0  0
   17.0182   -8.5916  -20.0582 C   0  0  0  0  0  0  0  0  0  0  0  0
   18.1951   -8.8488  -19.2129 C   0  0  0  0  0  0  0  0  0  0  0  0
   19.4964   -9.0232  -19.8583 C   0  0  0  0  0  0  0  0  0  0  0  0
   20.7729   -9.2176  -19.1305 C   0  0  2  0  0  0  0  0  0  0  0  0
   20.6743  -10.6558  -18.6812 N   0  0  0  0  0  0  0  0  0  0  0  0
   20.7908   -8.4884  -17.8428 C   0  0  0  0  0  0  0  0  0  0  0  0
   20.0299   -8.7718  -16.8520 O   0  0  0  0  0  0  0  0  0  0  0  0
   14.0115   -8.5643  -17.3087 O   0  0  0  0  0  0  0  0  0  0  0  0
   21.2241   -9.1660  -10.6061 C   0  0  0  0  0  0  0  0  0  0  0  0
   21.6130   -8.6208  -11.8262 C   0  0  0  0  0  0  0  0  0  0  0  0
   22.1478   -9.4685  -12.7721 C   0  0  0  0  0  0  0  0  0  0  0  0
   22.5326   -8.9294  -13.9817 C   0  0  0  0  0  0  0  0  0  0  0  0
   22.4096   -7.5831  -14.2935 C   0  0  0  0  0  0  0  0  0  0  0  0
   22.8658   -7.0922  -15.5986 C   0  0  2  0  0  0  0  0  0  0  0  0
   21.6879   -6.6455  -16.4191 N   0  0  0  0  0  0  0  0  0  0  0  0
   21.7055   -7.4007  -17.6784 C   0  0  0  0  0  0  0  0  0  0  0  0
   21.8486   -5.2178  -16.7642 O   0  0  0  0  0  0  0  0  0  0  0  0
   21.7035   -4.2525  -15.7724 C   0  0  0  0  0  0  0  0  0  0  0  0
   21.8784   -6.7713  -13.3383 C   0  0  0  0  0  0  0  0  0  0  0  0
   21.4792   -7.2784  -12.1079 O   0  0  0  0  0  0  0  0  0  0  0  0
  2  3  1  0
  2  1  1  1
  4  2  1  0
  5  4  2  0
  7  6  1  0
  7  9  1  0
  8  7  2  0
 10  9  1  0
 10 11  1  0
 12 11  1  0
 13 12  1  6
 13 14  1  0
 14  4  1  0
 15 24  1  0
 15 13  1  0
 16 15  2  0
 18 17  1  0
 18 28  2  0
 19 18  1  0
 20 19  2  0
 20 21  1  0
 21 27  2  0
 22 21  1  0
 23 22  1  1
 23 24  1  0
 25 23  1  0
 25 26  1  0
 27 28  1  0
 29 25  2  0
M  END
$$$$
