ARY.pdb
     RDKit          3D

 29 29  0  0  1  0  0  0  0  0999 V2000
   28.4544  -22.0216  -15.2753 C   0  0  0  0  0  0  0  0  0  0  0  0
   27.8925  -22.6742  -16.5160 C   0  0  2  0  0  0  0  0  0  0  0  0
   28.7292  -22.3171  -17.6432 N   0  0  0  0  0  0  0  0  0  0  0  0
   26.4948  -22.2637  -16.7928 C   0  0  0  0  0  0  0  0  0  0  0  0
   26.2112  -21.2300  -17.4510 O   0  0  0  0  0  0  0  0  0  0  0  0
   20.4584  -23.9577  -20.0561 N   0  0  0  0  0  0  0  0  0  0  0  0
   21.3765  -24.5331  -20.9827 C   0  0  0  0  0  0  0  0  0  0  0  0
   21.1876  -24.3691  -22.2457 N   0  0  0  0  0  0  0  0  0  0  0  0
   22.4657  -25.2665  -20.4571 N   0  0  0  0  0  0  0  0  0  0  0  0
   22.5396  -25.3156  -18.9574 C   0  0  0  0  0  0  0  0  0  0  0  0
   23.1242  -24.0403  -18.5126 C   0  0  0  0  0  0  0  0  0  0  0  0
   23.3966  -23.8539  -17.0874 C   0  0  0  0  0  0  0  0  0  0  0  0
   24.0000  -22.6329  -16.5027 C   0  0  2  0  0  0  0  0  0  0  0  0
   25.4408  -23.0424  -16.3122 N   0  0  0  0  0  0  0  0  0  0  0  0
   23.5521  -22.4080  -15.1101 C   0  0  0  0  0  0  0  0  0  0  0  0
   23.6218  -23.2933  -14.1869 O   0  0  0  0  0  0  0  0  0  0  0  0
   21.8109  -24.8028  -22.9362 O   0  0  0  0  0  0  0  0  0  0  0  0
   26.2178  -21.5253   -8.2962 C   0  0  0  0  0  0  0  0  0  0  0  0
   25.4575  -21.0943   -9.3795 C   0  0  0  0  0  0  0  0  0  0  0  0
   26.0389  -21.1206  -10.6287 C   0  0  0  0  0  0  0  0  0  0  0  0
   25.2861  -20.6946  -11.7028 C   0  0  0  0  0  0  0  0  0  0  0  0
   23.9791  -20.2426  -11.5904 C   0  0  0  0  0  0  0  0  0  0  0  0
   23.2598  -19.7872  -12.7851 C   0  0  2  0  0  0  0  0  0  0  0  0
   22.5001  -20.9327  -13.3944 N   0  0  0  0  0  0  0  0  0  0  0  0
   23.0070  -21.1331  -14.7579 C   0  0  0  0  0  0  0  0  0  0  0  0
   21.0737  -20.5644  -13.5088 O   0  0  0  0  0  0  0  0  0  0  0  0
   20.5276  -20.3204  -14.7653 C   0  0  0  0  0  0  0  0  0  0  0  0
   23.4331  -20.2279  -10.3433 C   0  0  0  0  0  0  0  0  0  0  0  0
   24.1608  -20.6497   -9.2373 O   0  0  0  0  0  0  0  0  0  0  0  0
  2  3  1  0
  2  1  1  1
  4  2  1  0
  5  4  2  0
  7  6  1  0
  7  9  1  0
  8  7  2  0
 10  9  1  0
 10 11  1  0
 12 11  1  0
 13 12  1  1
 13 14  1  0
 14  4  1  0
 15 24  1  0
 15 13  1  0
 16 15  2  0
 18 17  1  0
 18 28  2  0
 19 18  1  0
 20 19  2  0
 20 21  1  0
 21 27  2  0
 22 21  1  0
 23 22  1  1
 23 24  1  0
 25 23  1  0
 25 26  1  0
 27 28  1  0
 29 25  2  0
M  END
$$$$
