ARY.pdb
     RDKit          3D

 29 29  0  0  1  0  0  0  0  0999 V2000
   25.4318  -20.7099   -8.9274 C   0  0  0  0  0  0  0  0  0  0  0  0
   26.3361  -20.9114  -10.1201 C   0  0  2  0  0  0  0  0  0  0  0  0
   27.5821  -20.2141   -9.8763 N   0  0  0  0  0  0  0  0  0  0  0  0
   25.7350  -20.4155  -11.3816 C   0  0  0  0  0  0  0  0  0  0  0  0
   25.4624  -19.2020  -11.5696 O   0  0  0  0  0  0  0  0  0  0  0  0
   29.3403  -23.2318  -16.2936 N   0  0  0  0  0  0  0  0  0  0  0  0
   28.1010  -23.7744  -16.7437 C   0  0  0  0  0  0  0  0  0  0  0  0
   27.9843  -25.0479  -16.8925 N   0  0  0  0  0  0  0  0  0  0  0  0
   27.0463  -22.8696  -17.0074 N   0  0  0  0  0  0  0  0  0  0  0  0
   27.3113  -21.4450  -16.6108 C   0  0  0  0  0  0  0  0  0  0  0  0
   27.0180  -21.3363  -15.1728 C   0  0  0  0  0  0  0  0  0  0  0  0
   25.6721  -21.6687  -14.7054 C   0  0  0  0  0  0  0  0  0  0  0  0
   24.8975  -20.8568  -13.7371 C   0  0  2  0  0  0  0  0  0  0  0  0
   25.4540  -21.3158  -12.4106 N   0  0  0  0  0  0  0  0  0  0  0  0
   23.4865  -21.2955  -13.6528 C   0  0  0  0  0  0  0  0  0  0  0  0
   23.0802  -22.2503  -12.9017 O   0  0  0  0  0  0  0  0  0  0  0  0
   27.0973  -25.4681  -17.1924 O   0  0  0  0  0  0  0  0  0  0  0  0
   15.4168  -21.3336  -11.3946 C   0  0  0  0  0  0  0  0  0  0  0  0
   16.7353  -21.0579  -11.7450 C   0  0  0  0  0  0  0  0  0  0  0  0
   17.6432  -22.0941  -11.7121 C   0  0  0  0  0  0  0  0  0  0  0  0
   18.9496  -21.8221  -12.0600 C   0  0  0  0  0  0  0  0  0  0  0  0
   19.3947  -20.5640  -12.4394 C   0  0  0  0  0  0  0  0  0  0  0  0
   20.8090  -20.3606  -12.7722 C   0  0  1  0  0  0  0  0  0  0  0  0
   21.0844  -20.8545  -14.1653 N   0  0  0  0  0  0  0  0  0  0  0  0
   22.5064  -20.6246  -14.4503 C   0  0  0  0  0  0  0  0  0  0  0  0
   20.3098  -20.0466  -15.1300 O   0  0  0  0  0  0  0  0  0  0  0  0
   19.0382  -20.4654  -15.5094 C   0  0  0  0  0  0  0  0  0  0  0  0
   18.4743  -19.5611  -12.4613 C   0  0  0  0  0  0  0  0  0  0  0  0
   17.1489  -19.7971  -12.1175 O   0  0  0  0  0  0  0  0  0  0  0  0
  2  3  1  0
  2  1  1  1
  4  2  1  0
  5  4  2  0
  7  6  1  0
  7  9  1  0
  8  7  2  0
 10  9  1  0
 10 11  1  0
 12 11  1  0
 13 12  1  6
 13 14  1  0
 14  4  1  0
 15 24  1  0
 15 13  1  0
 16 15  2  0
 18 17  1  0
 18 28  2  0
 19 18  1  0
 20 19  2  0
 20 21  1  0
 21 27  2  0
 22 21  1  0
 23 22  1  1
 23 24  1  0
 25 23  1  0
 25 26  1  0
 27 28  1  0
 29 25  2  0
M  END
$$$$
