ARY.pdb
     RDKit          3D

 29 29  0  0  1  0  0  0  0  0999 V2000
   24.5191  -14.3059  -14.7575 C   0  0  0  0  0  0  0  0  0  0  0  0
   25.0354  -14.6435  -16.1361 C   0  0  2  0  0  0  0  0  0  0  0  0
   24.1890  -13.9949  -17.1164 N   0  0  0  0  0  0  0  0  0  0  0  0
   25.0565  -16.1033  -16.3952 C   0  0  0  0  0  0  0  0  0  0  0  0
   24.0110  -16.7655  -16.6201 O   0  0  0  0  0  0  0  0  0  0  0  0
   28.6126  -19.8503  -22.1249 N   0  0  0  0  0  0  0  0  0  0  0  0
   27.8901  -20.7373  -21.2740 C   0  0  0  0  0  0  0  0  0  0  0  0
   27.4319  -21.8410  -21.7531 N   0  0  0  0  0  0  0  0  0  0  0  0
   27.7118  -20.3520  -19.9249 N   0  0  0  0  0  0  0  0  0  0  0  0
   26.8875  -19.1133  -19.7171 C   0  0  0  0  0  0  0  0  0  0  0  0
   27.6574  -18.2272  -18.8294 C   0  0  0  0  0  0  0  0  0  0  0  0
   27.5799  -18.4439  -17.3846 C   0  0  0  0  0  0  0  0  0  0  0  0
   26.3467  -18.2820  -16.5785 C   0  0  2  0  0  0  0  0  0  0  0  0
   26.2745  -16.7851  -16.3932 N   0  0  0  0  0  0  0  0  0  0  0  0
   26.5281  -18.7605  -15.1897 C   0  0  0  0  0  0  0  0  0  0  0  0
   27.1590  -18.1065  -14.2868 O   0  0  0  0  0  0  0  0  0  0  0  0
   26.8866  -22.4865  -21.1706 O   0  0  0  0  0  0  0  0  0  0  0  0
   25.5249  -21.3204   -7.1959 C   0  0  0  0  0  0  0  0  0  0  0  0
   25.5565  -20.8503   -8.5055 C   0  0  0  0  0  0  0  0  0  0  0  0
   24.3812  -20.8616   -9.2251 C   0  0  0  0  0  0  0  0  0  0  0  0
   24.4113  -20.3952  -10.5225 C   0  0  0  0  0  0  0  0  0  0  0  0
   25.5594  -19.9175  -11.1378 C   0  0  0  0  0  0  0  0  0  0  0  0
   25.5040  -19.4607  -12.5308 C   0  0  1  0  0  0  0  0  0  0  0  0
   26.1308  -20.4874  -13.4327 N   0  0  0  0  0  0  0  0  0  0  0  0
   25.9725  -20.0252  -14.8175 C   0  0  0  0  0  0  0  0  0  0  0  0
   25.3898  -21.7600  -13.3101 O   0  0  0  0  0  0  0  0  0  0  0  0
   25.8026  -22.7062  -12.3770 C   0  0  0  0  0  0  0  0  0  0  0  0
   26.7044  -19.9198  -10.4013 C   0  0  0  0  0  0  0  0  0  0  0  0
   26.7129  -20.3819   -9.0909 O   0  0  0  0  0  0  0  0  0  0  0  0
  2  3  1  0
  2  1  1  1
  4  2  1  0
  5  4  2  0
  7  6  1  0
  7  9  1  0
  8  7  2  0
 10  9  1  0
 10 11  1  0
 12 11  1  0
 13 12  1  6
 13 14  1  0
 14  4  1  0
 15 24  1  0
 15 13  1  0
 16 15  2  0
 18 17  1  0
 18 28  2  0
 19 18  1  0
 20 19  2  0
 20 21  1  0
 21 27  2  0
 22 21  1  0
 23 22  1  1
 23 24  1  0
 25 23  1  0
 25 26  1  0
 27 28  1  0
 29 25  2  0
M  END
$$$$
