ARY.pdb
     RDKit          3D

 29 29  0  0  1  0  0  0  0  0999 V2000
   27.7882  -19.2297  -17.6217 C   0  0  0  0  0  0  0  0  0  0  0  0
   28.0615  -20.5350  -16.9132 C   0  0  2  0  0  0  0  0  0  0  0  0
   28.3653  -21.5438  -17.9073 N   0  0  0  0  0  0  0  0  0  0  0  0
   26.9147  -20.9876  -16.0894 C   0  0  0  0  0  0  0  0  0  0  0  0
   25.9744  -21.6777  -16.5603 O   0  0  0  0  0  0  0  0  0  0  0  0
   23.1771  -20.3344   -9.6837 N   0  0  0  0  0  0  0  0  0  0  0  0
   23.9553  -21.0084   -8.6974 C   0  0  0  0  0  0  0  0  0  0  0  0
   23.3685  -21.5362   -7.6802 N   0  0  0  0  0  0  0  0  0  0  0  0
   25.3552  -21.0630   -8.8913 N   0  0  0  0  0  0  0  0  0  0  0  0
   25.8711  -20.2675  -10.0566 C   0  0  0  0  0  0  0  0  0  0  0  0
   25.4233  -20.9538  -11.2791 C   0  0  0  0  0  0  0  0  0  0  0  0
   26.2052  -20.7842  -12.5039 C   0  0  0  0  0  0  0  0  0  0  0  0
   25.6811  -21.0159  -13.8708 C   0  0  2  0  0  0  0  0  0  0  0  0
   26.8601  -20.6438  -14.7377 N   0  0  0  0  0  0  0  0  0  0  0  0
   24.6764  -19.9999  -14.2566 C   0  0  0  0  0  0  0  0  0  0  0  0
   24.9591  -18.7749  -14.5027 O   0  0  0  0  0  0  0  0  0  0  0  0
   23.9040  -22.0210   -6.9511 O   0  0  0  0  0  0  0  0  0  0  0  0
   21.3034  -23.5738  -19.3235 C   0  0  0  0  0  0  0  0  0  0  0  0
   21.6309  -22.4599  -18.5560 C   0  0  0  0  0  0  0  0  0  0  0  0
   20.6452  -21.9043  -17.7692 C   0  0  0  0  0  0  0  0  0  0  0  0
   20.9690  -20.8011  -17.0077 C   0  0  0  0  0  0  0  0  0  0  0  0
   22.2308  -20.2244  -16.9935 C   0  0  0  0  0  0  0  0  0  0  0  0
   22.4806  -19.0371  -16.1687 C   0  0  1  0  0  0  0  0  0  0  0  0
   22.3040  -19.3760  -14.7146 N   0  0  0  0  0  0  0  0  0  0  0  0
   23.3050  -20.3922  -14.3657 C   0  0  0  0  0  0  0  0  0  0  0  0
   20.9736  -19.9875  -14.5156 O   0  0  0  0  0  0  0  0  0  0  0  0
   19.8297  -19.2414  -14.7820 C   0  0  0  0  0  0  0  0  0  0  0  0
   23.1826  -20.7956  -17.7816 C   0  0  0  0  0  0  0  0  0  0  0  0
   22.8937  -21.9080  -18.5624 O   0  0  0  0  0  0  0  0  0  0  0  0
  2  3  1  0
  2  1  1  6
  4  2  1  0
  5  4  2  0
  7  6  1  0
  7  9  1  0
  8  7  2  0
 10  9  1  0
 10 11  1  0
 12 11  1  0
 13 12  1  1
 13 14  1  0
 14  4  1  0
 15 24  1  0
 15 13  1  0
 16 15  2  0
 18 17  1  0
 18 28  2  0
 19 18  1  0
 20 19  2  0
 20 21  1  0
 21 27  2  0
 22 21  1  0
 23 22  1  1
 23 24  1  0
 25 23  1  0
 25 26  1  0
 27 28  1  0
 29 25  2  0
M  END
$$$$
