ARY.pdb
     RDKit          3D

 29 29  0  0  1  0  0  0  0  0999 V2000
   20.9968  -14.1859  -15.0458 C   0  0  0  0  0  0  0  0  0  0  0  0
   21.8448  -14.8125  -16.1272 C   0  0  2  0  0  0  0  0  0  0  0  0
   21.5210  -14.1812  -17.3900 N   0  0  0  0  0  0  0  0  0  0  0  0
   21.6331  -16.2756  -16.2416 C   0  0  0  0  0  0  0  0  0  0  0  0
   20.6295  -16.7710  -16.8156 O   0  0  0  0  0  0  0  0  0  0  0  0
   24.4023  -22.3981  -13.0568 N   0  0  0  0  0  0  0  0  0  0  0  0
   24.9876  -23.0975  -14.1527 C   0  0  0  0  0  0  0  0  0  0  0  0
   24.8347  -24.3726  -14.2441 N   0  0  0  0  0  0  0  0  0  0  0  0
   25.7180  -22.3409  -15.0986 N   0  0  0  0  0  0  0  0  0  0  0  0
   25.5666  -20.8510  -14.9802 C   0  0  0  0  0  0  0  0  0  0  0  0
   24.1813  -20.5272  -15.3570 C   0  0  0  0  0  0  0  0  0  0  0  0
   23.8090  -19.1213  -15.5159 C   0  0  0  0  0  0  0  0  0  0  0  0
   22.4435  -18.6487  -15.8458 C   0  0  2  0  0  0  0  0  0  0  0  0
   22.5736  -17.1517  -15.6971 N   0  0  0  0  0  0  0  0  0  0  0  0
   21.4707  -18.9851  -14.7823 C   0  0  0  0  0  0  0  0  0  0  0  0
   21.4763  -18.4538  -13.6167 O   0  0  0  0  0  0  0  0  0  0  0  0
   25.3755  -24.9249  -14.9193 O   0  0  0  0  0  0  0  0  0  0  0  0
   14.6929  -20.4661   -9.9284 C   0  0  0  0  0  0  0  0  0  0  0  0
   15.7163  -20.1149  -10.8039 C   0  0  0  0  0  0  0  0  0  0  0  0
   15.4532  -20.1569  -12.1561 C   0  0  0  0  0  0  0  0  0  0  0  0
   16.4663  -19.8083  -13.0244 C   0  0  0  0  0  0  0  0  0  0  0  0
   17.7313  -19.4195  -12.6080 C   0  0  0  0  0  0  0  0  0  0  0  0
   18.7563  -19.0865  -13.6035 C   0  0  1  0  0  0  0  0  0  0  0  0
   19.5206  -20.3233  -13.9863 N   0  0  0  0  0  0  0  0  0  0  0  0
   20.4586  -19.9586  -15.0556 C   0  0  0  0  0  0  0  0  0  0  0  0
   18.5847  -21.3194  -14.5478 O   0  0  0  0  0  0  0  0  0  0  0  0
   18.0093  -22.2685  -13.7085 C   0  0  0  0  0  0  0  0  0  0  0  0
   17.9605  -19.3887  -11.2664 C   0  0  0  0  0  0  0  0  0  0  0  0
   16.9642  -19.7329  -10.3611 O   0  0  0  0  0  0  0  0  0  0  0  0
  2  3  1  0
  2  1  1  1
  4  2  1  0
  5  4  2  0
  7  6  1  0
  7  9  1  0
  8  7  2  0
 10  9  1  0
 10 11  1  0
 12 11  1  0
 13 12  1  1
 13 14  1  0
 14  4  1  0
 15 24  1  0
 15 13  1  0
 16 15  2  0
 18 17  1  0
 18 28  2  0
 19 18  1  0
 20 19  2  0
 20 21  1  0
 21 27  2  0
 22 21  1  0
 23 22  1  1
 23 24  1  0
 25 23  1  0
 25 26  1  0
 27 28  1  0
 29 25  2  0
M  END
$$$$
