ARY.pdb
     RDKit          3D

 29 29  0  0  1  0  0  0  0  0999 V2000
   15.8194  -28.3893   -2.0562 C   0  0  0  0  0  0  0  0  0  0  0  0
   17.1992  -27.9337   -2.4678 C   0  0  2  0  0  0  0  0  0  0  0  0
   18.0710  -28.0047   -1.3132 N   0  0  0  0  0  0  0  0  0  0  0  0
   17.2068  -26.5513   -3.0041 C   0  0  0  0  0  0  0  0  0  0  0  0
   17.1293  -25.5379   -2.2630 O   0  0  0  0  0  0  0  0  0  0  0  0
   19.2706  -25.5038  -11.1299 N   0  0  0  0  0  0  0  0  0  0  0  0
   17.8679  -25.4621  -10.8777 C   0  0  0  0  0  0  0  0  0  0  0  0
   17.0461  -25.7748  -11.8182 N   0  0  0  0  0  0  0  0  0  0  0  0
   17.4453  -25.0728   -9.5853 N   0  0  0  0  0  0  0  0  0  0  0  0
   18.5337  -24.5668   -8.6818 C   0  0  0  0  0  0  0  0  0  0  0  0
   17.8999  -24.2068   -7.4033 C   0  0  0  0  0  0  0  0  0  0  0  0
   17.8737  -25.2008   -6.3301 C   0  0  0  0  0  0  0  0  0  0  0  0
   17.3074  -24.9623   -4.9813 C   0  0  2  0  0  0  0  0  0  0  0  0
   17.3031  -26.3481   -4.3817 N   0  0  0  0  0  0  0  0  0  0  0  0
   15.8636  -24.6416   -5.0375 C   0  0  0  0  0  0  0  0  0  0  0  0
   14.9444  -25.5178   -5.2058 O   0  0  0  0  0  0  0  0  0  0  0  0
   16.0313  -25.7100  -11.6794 O   0  0  0  0  0  0  0  0  0  0  0  0
    8.4329  -20.0322   -4.9298 C   0  0  0  0  0  0  0  0  0  0  0  0
    9.7211  -20.5019   -4.6909 C   0  0  0  0  0  0  0  0  0  0  0  0
   10.7682  -19.8675   -5.3238 C   0  0  0  0  0  0  0  0  0  0  0  0
   12.0451  -20.3315   -5.0871 C   0  0  0  0  0  0  0  0  0  0  0  0
   12.3282  -21.3998   -4.2483 C   0  0  0  0  0  0  0  0  0  0  0  0
   13.7163  -21.8404   -4.0717 C   0  0  1  0  0  0  0  0  0  0  0  0
   14.0292  -22.9497   -5.0371 N   0  0  0  0  0  0  0  0  0  0  0  0
   15.4536  -23.2781   -4.8974 C   0  0  0  0  0  0  0  0  0  0  0  0
   13.8265  -22.4647   -6.4180 O   0  0  0  0  0  0  0  0  0  0  0  0
   12.5342  -22.3465   -6.9202 C   0  0  0  0  0  0  0  0  0  0  0  0
   11.2727  -22.0059   -3.6384 C   0  0  0  0  0  0  0  0  0  0  0  0
    9.9721  -21.5664   -3.8524 O   0  0  0  0  0  0  0  0  0  0  0  0
  2  3  1  0
  2  1  1  1
  4  2  1  0
  5  4  2  0
  7  6  1  0
  7  9  1  0
  8  7  2  0
 10  9  1  0
 10 11  1  0
 12 11  1  0
 13 12  1  6
 13 14  1  0
 14  4  1  0
 15 24  1  0
 15 13  1  0
 16 15  2  0
 18 17  1  0
 18 28  2  0
 19 18  1  0
 20 19  2  0
 20 21  1  0
 21 27  2  0
 22 21  1  0
 23 22  1  1
 23 24  1  0
 25 23  1  0
 25 26  1  0
 27 28  1  0
 29 25  2  0
M  END
$$$$
