ARY.pdb
     RDKit          3D

 29 29  0  0  1  0  0  0  0  0999 V2000
   23.2437  -19.6138  -20.3804 C   0  0  0  0  0  0  0  0  0  0  0  0
   24.6148  -20.0827  -19.9548 C   0  0  2  0  0  0  0  0  0  0  0  0
   25.1235  -20.9917  -20.9613 N   0  0  0  0  0  0  0  0  0  0  0  0
   24.6007  -20.7657  -18.6388 C   0  0  0  0  0  0  0  0  0  0  0  0
   24.4040  -22.0025  -18.5208 O   0  0  0  0  0  0  0  0  0  0  0  0
   28.4733  -21.1860  -11.7785 N   0  0  0  0  0  0  0  0  0  0  0  0
   27.0515  -21.2847  -11.7388 C   0  0  0  0  0  0  0  0  0  0  0  0
   26.4458  -21.2470  -10.6034 N   0  0  0  0  0  0  0  0  0  0  0  0
   26.3691  -21.4209  -12.9702 N   0  0  0  0  0  0  0  0  0  0  0  0
   27.2371  -21.3472  -14.1942 C   0  0  0  0  0  0  0  0  0  0  0  0
   27.0015  -20.0320  -14.8111 C   0  0  0  0  0  0  0  0  0  0  0  0
   25.6660  -19.7289  -15.3259 C   0  0  0  0  0  0  0  0  0  0  0  0
   24.8378  -20.6730  -16.1130 C   0  0  2  0  0  0  0  0  0  0  0  0
   24.8119  -20.0233  -17.4758 N   0  0  0  0  0  0  0  0  0  0  0  0
   23.4132  -20.6218  -15.7151 C   0  0  0  0  0  0  0  0  0  0  0  0
   22.6747  -19.5825  -15.8402 O   0  0  0  0  0  0  0  0  0  0  0  0
   25.4219  -21.2890  -10.5465 O   0  0  0  0  0  0  0  0  0  0  0  0
   15.5113  -23.1223  -12.9017 C   0  0  0  0  0  0  0  0  0  0  0  0
   16.8639  -23.1173  -13.2297 C   0  0  0  0  0  0  0  0  0  0  0  0
   17.2054  -23.0945  -14.5646 C   0  0  0  0  0  0  0  0  0  0  0  0
   18.5454  -23.0887  -14.8905 C   0  0  0  0  0  0  0  0  0  0  0  0
   19.5627  -23.1047  -13.9473 C   0  0  0  0  0  0  0  0  0  0  0  0
   20.9629  -23.1192  -14.3851 C   0  0  2  0  0  0  0  0  0  0  0  0
   21.4177  -21.7203  -14.6958 N   0  0  0  0  0  0  0  0  0  0  0  0
   22.8101  -21.7927  -15.1565 C   0  0  0  0  0  0  0  0  0  0  0  0
   21.4100  -20.9190  -13.4544 O   0  0  0  0  0  0  0  0  0  0  0  0
   20.3436  -20.0625  -13.1981 C   0  0  0  0  0  0  0  0  0  0  0  0
   19.1934  -23.1278  -12.6371 C   0  0  0  0  0  0  0  0  0  0  0  0
   17.8532  -23.1342  -12.2703 O   0  0  0  0  0  0  0  0  0  0  0  0
  2  3  1  0
  2  1  1  6
  4  2  1  0
  5  4  2  0
  7  6  1  0
  7  9  1  0
  8  7  2  0
 10  9  1  0
 10 11  1  0
 12 11  1  0
 13 12  1  1
 13 14  1  0
 14  4  1  0
 15 24  1  0
 15 13  1  0
 16 15  2  0
 18 17  1  0
 18 28  2  0
 19 18  1  0
 20 19  2  0
 20 21  1  0
 21 27  2  0
 22 21  1  0
 23 22  1  6
 23 24  1  0
 25 23  1  0
 25 26  1  0
 27 28  1  0
 29 25  2  0
M  END
$$$$
