ARY.pdb
     RDKit          3D

 29 29  0  0  1  0  0  0  0  0999 V2000
   28.0261  -31.8656  -19.4241 C   0  0  0  0  0  0  0  0  0  0  0  0
   29.1029  -31.0243  -18.7810 C   0  0  2  0  0  0  0  0  0  0  0  0
   29.9802  -31.8965  -18.0275 N   0  0  0  0  0  0  0  0  0  0  0  0
   28.5515  -29.9847  -17.8789 C   0  0  0  0  0  0  0  0  0  0  0  0
   28.5293  -30.1171  -16.6282 O   0  0  0  0  0  0  0  0  0  0  0  0
   24.9922  -23.5087  -19.9409 N   0  0  0  0  0  0  0  0  0  0  0  0
   25.5683  -22.5529  -19.0536 C   0  0  0  0  0  0  0  0  0  0  0  0
   24.9104  -21.4864  -18.7582 N   0  0  0  0  0  0  0  0  0  0  0  0
   26.8546  -22.8312  -18.5354 N   0  0  0  0  0  0  0  0  0  0  0  0
   27.5084  -24.0703  -19.0776 C   0  0  0  0  0  0  0  0  0  0  0  0
   27.2128  -25.1613  -18.1351 C   0  0  0  0  0  0  0  0  0  0  0  0
   27.7513  -26.4927  -18.4137 C   0  0  0  0  0  0  0  0  0  0  0  0
   27.5476  -27.6769  -17.5459 C   0  0  2  0  0  0  0  0  0  0  0  0
   28.0329  -28.8077  -18.4211 N   0  0  0  0  0  0  0  0  0  0  0  0
   26.1128  -28.0016  -17.3826 C   0  0  0  0  0  0  0  0  0  0  0  0
   25.3746  -28.4629  -18.3224 O   0  0  0  0  0  0  0  0  0  0  0  0
   25.3613  -20.7018  -18.2740 O   0  0  0  0  0  0  0  0  0  0  0  0
   22.4781  -22.2215  -14.1881 C   0  0  0  0  0  0  0  0  0  0  0  0
   22.8099  -23.5699  -14.2828 C   0  0  0  0  0  0  0  0  0  0  0  0
   21.7829  -24.4888  -14.2992 C   0  0  0  0  0  0  0  0  0  0  0  0
   22.1106  -25.8250  -14.3939 C   0  0  0  0  0  0  0  0  0  0  0  0
   23.4156  -26.2894  -14.4728 C   0  0  0  0  0  0  0  0  0  0  0  0
   23.6729  -27.7317  -14.5489 C   0  0  1  0  0  0  0  0  0  0  0  0
   24.0736  -28.1082  -15.9483 N   0  0  0  0  0  0  0  0  0  0  0  0
   25.4992  -27.7939  -16.1071 C   0  0  0  0  0  0  0  0  0  0  0  0
   23.3315  -27.2669  -16.9099 O   0  0  0  0  0  0  0  0  0  0  0  0
   22.0414  -27.6296  -17.2847 C   0  0  0  0  0  0  0  0  0  0  0  0
   24.4077  -25.3574  -14.4535 C   0  0  0  0  0  0  0  0  0  0  0  0
   24.1163  -24.0021  -14.3592 O   0  0  0  0  0  0  0  0  0  0  0  0
  2  3  1  0
  2  1  1  1
  4  2  1  0
  5  4  2  0
  7  6  1  0
  7  9  1  0
  8  7  2  0
 10  9  1  0
 10 11  1  0
 12 11  1  0
 13 12  1  6
 13 14  1  0
 14  4  1  0
 15 24  1  0
 15 13  1  0
 16 15  2  0
 18 17  1  0
 18 28  2  0
 19 18  1  0
 20 19  2  0
 20 21  1  0
 21 27  2  0
 22 21  1  0
 23 22  1  1
 23 24  1  0
 25 23  1  0
 25 26  1  0
 27 28  1  0
 29 25  2  0
M  END
$$$$
