MFY.pdb
     RDKit          3D

 32 33  0  0  1  0  0  0  0  0999 V2000
   22.9122  -19.7993   -3.2044 C   0  0  0  0  0  0  0  0  0  0  0  0
   22.5800  -21.4292   -3.9134 S   0  0  0  0  0  0  0  0  0  0  0  0
   21.9783  -21.2232   -5.6153 C   0  0  0  0  0  0  0  0  0  0  0  0
   22.9417  -20.3081   -6.3544 C   0  0  0  0  0  0  0  0  0  0  0  0
   23.2198  -20.8708   -7.7360 C   0  0  2  0  0  0  0  0  0  0  0  0
   23.3934  -22.2933   -7.6091 N   0  0  0  0  0  0  0  0  0  0  0  0
   24.3893  -20.2160   -8.3660 C   0  0  0  0  0  0  0  0  0  0  0  0
   24.2792  -19.0053   -8.6870 O   0  0  0  0  0  0  0  0  0  0  0  0
   25.5970  -20.8836   -8.6150 N   0  0  0  0  0  0  0  0  0  0  0  0
   26.7359  -20.3040   -9.2859 C   0  0  1  0  0  0  0  0  0  0  0  0
   28.0407  -20.7881   -8.6869 C   0  0  0  0  0  0  0  0  0  0  0  0
   28.1838  -20.2744   -7.3245 C   0  0  0  0  0  0  0  0  0  0  0  0
   27.9294  -18.9554   -7.0284 C   0  0  0  0  0  0  0  0  0  0  0  0
   28.0780  -18.5063   -5.7170 C   0  0  0  0  0  0  0  0  0  0  0  0
   28.4755  -19.3593   -4.7106 C   0  0  0  0  0  0  0  0  0  0  0  0
   28.7311  -20.6798   -5.0034 C   0  0  0  0  0  0  0  0  0  0  0  0
   28.5792  -21.1042   -6.3014 C   0  0  0  0  0  0  0  0  0  0  0  0
   26.6550  -20.6331  -10.7237 C   0  0  0  0  0  0  0  0  0  0  0  0
   27.6219  -20.3485  -11.4685 O   0  0  0  0  0  0  0  0  0  0  0  0
   24.3447  -24.3053  -18.4510 O   0  0  0  0  0  0  0  0  0  0  0  0
   24.4835  -23.9809  -17.1008 C   0  0  0  0  0  0  0  0  0  0  0  0
   25.7175  -23.9754  -16.4817 C   0  0  0  0  0  0  0  0  0  0  0  0
   25.8393  -23.6510  -15.1393 C   0  0  0  0  0  0  0  0  0  0  0  0
   24.7447  -23.3224  -14.3695 C   0  0  0  0  0  0  0  0  0  0  0  0
   24.8516  -22.9737  -12.9404 C   0  0  0  0  0  0  0  0  0  0  0  0
   25.4293  -21.5941  -12.7236 C   0  0  2  0  0  0  0  0  0  0  0  0
   25.5346  -21.2608  -11.3241 N   0  0  0  0  0  0  0  0  0  0  0  0
   24.6051  -20.5413  -13.3660 C   0  0  0  0  0  0  0  0  0  0  0  0
   24.8565  -20.1152  -14.6637 O   0  0  0  0  0  0  0  0  0  0  0  0
   23.5095  -23.3287  -14.9927 C   0  0  0  0  0  0  0  0  0  0  0  0
   23.3831  -23.6543  -16.3415 C   0  0  0  0  0  0  0  0  0  0  0  0
   23.6325  -19.9759  -12.7714 O   0  0  0  0  0  0  0  0  0  0  0  0
  2  1  1  0
  3  4  1  0
  3  2  1  0
  5  7  1  0
  5  6  1  1
  5  4  1  0
  7  8  2  0
  9 10  1  0
  9  7  1  0
 10 18  1  0
 10 11  1  1
 12 17  1  0
 12 11  1  0
 13 12  2  0
 14 15  2  0
 14 13  1  0
 15 16  1  0
 16 17  2  0
 18 19  2  0
 20 21  1  0
 21 22  2  0
 21 31  1  0
 22 23  1  0
 23 24  2  0
 24 25  1  0
 26 25  1  1
 26 28  1  0
 27 18  1  0
 27 26  1  0
 28 32  2  0
 28 29  1  0
 30 24  1  0
 31 30  2  0
M  END
$$$$
