MFY.pdb
     RDKit          3D

 32 33  0  0  1  0  0  0  0  0999 V2000
   27.4257  -21.2843   -9.2903 C   0  0  0  0  0  0  0  0  0  0  0  0
   28.9929  -21.6998  -10.0910 S   0  0  0  0  0  0  0  0  0  0  0  0
   28.8308  -21.4376  -11.8816 C   0  0  0  0  0  0  0  0  0  0  0  0
   27.4567  -20.8467  -12.1547 C   0  0  0  0  0  0  0  0  0  0  0  0
   27.2166  -20.7870  -13.6519 C   0  0  2  0  0  0  0  0  0  0  0  0
   28.2302  -19.9459  -14.2306 N   0  0  0  0  0  0  0  0  0  0  0  0
   25.8483  -20.3155  -13.9661 C   0  0  0  0  0  0  0  0  0  0  0  0
   25.6704  -19.0770  -14.0905 O   0  0  0  0  0  0  0  0  0  0  0  0
   24.7590  -21.1837  -14.1280 N   0  0  0  0  0  0  0  0  0  0  0  0
   23.4164  -20.7687  -14.4570 C   0  0  1  0  0  0  0  0  0  0  0  0
   22.9333  -21.4130  -15.7406 C   0  0  0  0  0  0  0  0  0  0  0  0
   23.5295  -20.7358  -16.8923 C   0  0  0  0  0  0  0  0  0  0  0  0
   24.6719  -21.2152  -17.4899 C   0  0  0  0  0  0  0  0  0  0  0  0
   25.2078  -20.5397  -18.5853 C   0  0  0  0  0  0  0  0  0  0  0  0
   24.6143  -19.3995  -19.0816 C   0  0  0  0  0  0  0  0  0  0  0  0
   23.4709  -18.9169  -18.4860 C   0  0  0  0  0  0  0  0  0  0  0  0
   22.9574  -19.5961  -17.4074 C   0  0  0  0  0  0  0  0  0  0  0  0
   22.5278  -21.1037  -13.3254 C   0  0  0  0  0  0  0  0  0  0  0  0
   22.5905  -22.2491  -12.8208 O   0  0  0  0  0  0  0  0  0  0  0  0
   16.5234  -16.6674  -14.6202 O   0  0  0  0  0  0  0  0  0  0  0  0
   17.4204  -17.2887  -13.7502 C   0  0  0  0  0  0  0  0  0  0  0  0
   18.7754  -17.0294  -13.8022 C   0  0  0  0  0  0  0  0  0  0  0  0
   19.6541  -17.6546  -12.9311 C   0  0  0  0  0  0  0  0  0  0  0  0
   19.2190  -18.5546  -11.9826 C   0  0  0  0  0  0  0  0  0  0  0  0
   20.1361  -19.2306  -11.0459 C   0  0  0  0  0  0  0  0  0  0  0  0
   20.7443  -20.4825  -11.6347 C   0  0  2  0  0  0  0  0  0  0  0  0
   21.5934  -20.1966  -12.7651 N   0  0  0  0  0  0  0  0  0  0  0  0
   19.7075  -21.4389  -12.0938 C   0  0  0  0  0  0  0  0  0  0  0  0
   18.9236  -22.1462  -11.1915 O   0  0  0  0  0  0  0  0  0  0  0  0
   17.8606  -18.8123  -11.9328 C   0  0  0  0  0  0  0  0  0  0  0  0
   16.9745  -18.1860  -12.8067 C   0  0  0  0  0  0  0  0  0  0  0  0
   19.4803  -21.6626  -13.3256 O   0  0  0  0  0  0  0  0  0  0  0  0
  2  1  1  0
  3  4  1  0
  3  2  1  0
  5  7  1  0
  5  6  1  6
  5  4  1  0
  7  8  2  0
  9 10  1  0
  9  7  1  0
 10 18  1  0
 10 11  1  6
 12 17  1  0
 12 11  1  0
 13 12  2  0
 14 15  2  0
 14 13  1  0
 15 16  1  0
 16 17  2  0
 18 19  2  0
 20 21  1  0
 21 22  2  0
 21 31  1  0
 22 23  1  0
 23 24  2  0
 24 25  1  0
 26 25  1  6
 26 28  1  0
 27 18  1  0
 27 26  1  0
 28 32  2  0
 28 29  1  0
 30 24  1  0
 31 30  2  0
M  END
$$$$
