MFY.pdb
     RDKit          3D

 32 33  0  0  1  0  0  0  0  0999 V2000
   18.6253  -13.9378  -19.3694 C   0  0  0  0  0  0  0  0  0  0  0  0
   19.5387  -12.5915  -20.1585 S   0  0  0  0  0  0  0  0  0  0  0  0
   21.1448  -12.4007  -19.3307 C   0  0  0  0  0  0  0  0  0  0  0  0
   20.9182  -11.6827  -18.0097 C   0  0  0  0  0  0  0  0  0  0  0  0
   22.2477  -11.4773  -17.3073 C   0  0  2  0  0  0  0  0  0  0  0  0
   22.8093  -12.7730  -17.0327 N   0  0  0  0  0  0  0  0  0  0  0  0
   22.0961  -10.6593  -16.0820 C   0  0  0  0  0  0  0  0  0  0  0  0
   21.6243  -11.2191  -15.0597 O   0  0  0  0  0  0  0  0  0  0  0  0
   22.4529   -9.3047  -16.0182 N   0  0  0  0  0  0  0  0  0  0  0  0
   22.3183   -8.4714  -14.8476 C   0  0  1  0  0  0  0  0  0  0  0  0
   23.6052   -8.4207  -14.0493 C   0  0  0  0  0  0  0  0  0  0  0  0
   24.7263   -8.8517  -14.8847 C   0  0  0  0  0  0  0  0  0  0  0  0
   25.0978   -8.1420  -16.0028 C   0  0  0  0  0  0  0  0  0  0  0  0
   26.1721   -8.5872  -16.7718 C   0  0  0  0  0  0  0  0  0  0  0  0
   26.8696   -9.7261  -16.4329 C   0  0  0  0  0  0  0  0  0  0  0  0
   26.5005  -10.4389  -15.3147 C   0  0  0  0  0  0  0  0  0  0  0  0
   25.4393   -9.9847  -14.5691 C   0  0  0  0  0  0  0  0  0  0  0  0
   21.9029   -7.1197  -15.2751 C   0  0  0  0  0  0  0  0  0  0  0  0
   22.6722   -6.4480  -16.0014 O   0  0  0  0  0  0  0  0  0  0  0  0
   21.1335    1.2739  -14.3567 O   0  0  0  0  0  0  0  0  0  0  0  0
   21.2281   -0.1165  -14.2838 C   0  0  0  0  0  0  0  0  0  0  0  0
   20.2950   -0.8698  -13.5998 C   0  0  0  0  0  0  0  0  0  0  0  0
   20.4025   -2.2505  -13.5363 C   0  0  0  0  0  0  0  0  0  0  0  0
   21.4356   -2.9273  -14.1474 C   0  0  0  0  0  0  0  0  0  0  0  0
   21.5688   -4.3951  -14.0930 C   0  0  0  0  0  0  0  0  0  0  0  0
   20.4392   -5.1048  -14.8030 C   0  0  2  0  0  0  0  0  0  0  0  0
   20.6690   -6.5248  -14.9099 N   0  0  0  0  0  0  0  0  0  0  0  0
   20.2374   -4.5869  -16.1783 C   0  0  0  0  0  0  0  0  0  0  0  0
   19.3108   -3.5880  -16.4479 O   0  0  0  0  0  0  0  0  0  0  0  0
   22.3690   -2.1697  -14.8322 C   0  0  0  0  0  0  0  0  0  0  0  0
   22.2644   -0.7820  -14.8982 C   0  0  0  0  0  0  0  0  0  0  0  0
   20.8941   -5.0233  -17.1771 O   0  0  0  0  0  0  0  0  0  0  0  0
  2  1  1  0
  3  4  1  0
  3  2  1  0
  5  7  1  0
  5  6  1  1
  5  4  1  0
  7  8  2  0
  9 10  1  0
  9  7  1  0
 10 18  1  0
 10 11  1  6
 12 17  1  0
 12 11  1  0
 13 12  2  0
 14 15  2  0
 14 13  1  0
 15 16  1  0
 16 17  2  0
 18 19  2  0
 20 21  1  0
 21 22  2  0
 21 31  1  0
 22 23  1  0
 23 24  2  0
 24 25  1  0
 26 25  1  6
 26 28  1  0
 27 18  1  0
 27 26  1  0
 28 32  2  0
 28 29  1  0
 30 24  1  0
 31 30  2  0
M  END
$$$$
