MFY.pdb
     RDKit          3D

 32 33  0  0  1  0  0  0  0  0999 V2000
   28.5565  -17.6539  -17.2199 C   0  0  0  0  0  0  0  0  0  0  0  0
   28.7442  -18.0832  -18.9664 S   0  0  0  0  0  0  0  0  0  0  0  0
   28.3852  -19.8510  -19.1834 C   0  0  0  0  0  0  0  0  0  0  0  0
   27.3799  -20.2675  -18.1215 C   0  0  0  0  0  0  0  0  0  0  0  0
   28.0311  -21.2430  -17.1585 C   0  0  2  0  0  0  0  0  0  0  0  0
   28.2508  -22.4794  -17.8604 N   0  0  0  0  0  0  0  0  0  0  0  0
   27.2162  -21.4280  -15.9358 C   0  0  0  0  0  0  0  0  0  0  0  0
   26.2957  -22.2838  -15.9703 O   0  0  0  0  0  0  0  0  0  0  0  0
   27.4280  -20.6966  -14.7582 N   0  0  0  0  0  0  0  0  0  0  0  0
   26.6369  -20.8211  -13.5575 C   0  0  1  0  0  0  0  0  0  0  0  0
   27.3709  -20.2776  -12.3485 C   0  0  0  0  0  0  0  0  0  0  0  0
   26.4931  -20.3074  -11.1784 C   0  0  0  0  0  0  0  0  0  0  0  0
   25.5593  -19.3210  -10.9611 C   0  0  0  0  0  0  0  0  0  0  0  0
   24.7424  -19.3870   -9.8334 C   0  0  0  0  0  0  0  0  0  0  0  0
   24.8525  -20.4225   -8.9311 C   0  0  0  0  0  0  0  0  0  0  0  0
   25.7860  -21.4112   -9.1454 C   0  0  0  0  0  0  0  0  0  0  0  0
   26.5822  -21.3294  -10.2623 C   0  0  0  0  0  0  0  0  0  0  0  0
   25.3538  -20.1184  -13.7622 C   0  0  0  0  0  0  0  0  0  0  0  0
   25.3678  -18.9227  -14.1369 O   0  0  0  0  0  0  0  0  0  0  0  0
   17.4144  -17.5386  -16.1520 O   0  0  0  0  0  0  0  0  0  0  0  0
   18.6860  -18.0655  -15.9223 C   0  0  0  0  0  0  0  0  0  0  0  0
   19.7493  -17.2595  -15.5674 C   0  0  0  0  0  0  0  0  0  0  0  0
   21.0069  -17.7978  -15.3426 C   0  0  0  0  0  0  0  0  0  0  0  0
   21.2505  -19.1488  -15.4619 C   0  0  0  0  0  0  0  0  0  0  0  0
   22.5800  -19.7424  -15.2269 C   0  0  0  0  0  0  0  0  0  0  0  0
   22.8195  -20.0656  -13.7701 C   0  0  2  0  0  0  0  0  0  0  0  0
   24.0868  -20.7211  -13.5582 N   0  0  0  0  0  0  0  0  0  0  0  0
   21.7669  -20.9542  -13.2197 C   0  0  0  0  0  0  0  0  0  0  0  0
   21.8437  -22.3349  -13.3488 O   0  0  0  0  0  0  0  0  0  0  0  0
   20.1831  -19.9539  -15.8176 C   0  0  0  0  0  0  0  0  0  0  0  0
   18.9177  -19.4166  -16.0444 C   0  0  0  0  0  0  0  0  0  0  0  0
   20.7464  -20.5069  -12.6052 O   0  0  0  0  0  0  0  0  0  0  0  0
  2  1  1  0
  3  4  1  0
  3  2  1  0
  5  7  1  0
  5  6  1  6
  5  4  1  0
  7  8  2  0
  9 10  1  0
  9  7  1  0
 10 18  1  0
 10 11  1  1
 12 17  1  0
 12 11  1  0
 13 12  2  0
 14 15  2  0
 14 13  1  0
 15 16  1  0
 16 17  2  0
 18 19  2  0
 20 21  1  0
 21 22  2  0
 21 31  1  0
 22 23  1  0
 23 24  2  0
 24 25  1  0
 26 25  1  6
 26 28  1  0
 27 18  1  0
 27 26  1  0
 28 32  2  0
 28 29  1  0
 30 24  1  0
 31 30  2  0
M  END
$$$$
