MFY.pdb
     RDKit          3D

 32 33  0  0  1  0  0  0  0  0999 V2000
   42.0427  -27.4101    1.7863 C   0  0  0  0  0  0  0  0  0  0  0  0
   40.7080  -27.2979    3.0011 S   0  0  0  0  0  0  0  0  0  0  0  0
   40.5480  -25.5724    3.5472 C   0  0  0  0  0  0  0  0  0  0  0  0
   39.4221  -25.4971    4.5663 C   0  0  0  0  0  0  0  0  0  0  0  0
   39.2881  -24.0728    5.0727 C   0  0  2  0  0  0  0  0  0  0  0  0
   40.3873  -23.8135    5.9638 N   0  0  0  0  0  0  0  0  0  0  0  0
   37.9750  -23.8453    5.7188 C   0  0  0  0  0  0  0  0  0  0  0  0
   37.9535  -23.7125    6.9690 O   0  0  0  0  0  0  0  0  0  0  0  0
   36.7723  -23.7732    5.0014 N   0  0  0  0  0  0  0  0  0  0  0  0
   35.5342  -23.2427    5.5197 C   0  0  1  0  0  0  0  0  0  0  0  0
   34.9079  -22.2520    4.5595 C   0  0  0  0  0  0  0  0  0  0  0  0
   33.6535  -21.7446    5.1159 C   0  0  0  0  0  0  0  0  0  0  0  0
   33.5999  -21.2044    6.3798 C   0  0  0  0  0  0  0  0  0  0  0  0
   32.3842  -20.7323    6.8725 C   0  0  0  0  0  0  0  0  0  0  0  0
   31.2338  -20.7966    6.1169 C   0  0  0  0  0  0  0  0  0  0  0  0
   31.2838  -21.3366    4.8516 C   0  0  0  0  0  0  0  0  0  0  0  0
   32.4909  -21.7967    4.3830 C   0  0  0  0  0  0  0  0  0  0  0  0
   34.6179  -24.3675    5.7978 C   0  0  0  0  0  0  0  0  0  0  0  0
   33.5084  -24.1312    6.3303 O   0  0  0  0  0  0  0  0  0  0  0  0
   37.3438  -30.1695    1.5655 O   0  0  0  0  0  0  0  0  0  0  0  0
   36.9327  -29.5979    2.7705 C   0  0  0  0  0  0  0  0  0  0  0  0
   35.6586  -29.7925    3.2654 C   0  0  0  0  0  0  0  0  0  0  0  0
   35.2649  -29.2180    4.4641 C   0  0  0  0  0  0  0  0  0  0  0  0
   36.1192  -28.4342    5.2089 C   0  0  0  0  0  0  0  0  0  0  0  0
   35.7213  -27.8139    6.4865 C   0  0  0  0  0  0  0  0  0  0  0  0
   34.5716  -26.8462    6.3260 C   0  0  2  0  0  0  0  0  0  0  0  0
   34.9193  -25.7194    5.4954 N   0  0  0  0  0  0  0  0  0  0  0  0
   34.1153  -26.3073    7.6305 C   0  0  0  0  0  0  0  0  0  0  0  0
   34.9985  -25.6961    8.5111 O   0  0  0  0  0  0  0  0  0  0  0  0
   37.3952  -28.2411    4.7104 C   0  0  0  0  0  0  0  0  0  0  0  0
   37.7945  -28.8168    3.5061 C   0  0  0  0  0  0  0  0  0  0  0  0
   32.9031  -26.3735    8.0119 O   0  0  0  0  0  0  0  0  0  0  0  0
  2  1  1  0
  3  4  1  0
  3  2  1  0
  5  7  1  0
  5  6  1  1
  5  4  1  0
  7  8  2  0
  9 10  1  0
  9  7  1  0
 10 18  1  0
 10 11  1  6
 12 17  1  0
 12 11  1  0
 13 12  2  0
 14 15  2  0
 14 13  1  0
 15 16  1  0
 16 17  2  0
 18 19  2  0
 20 21  1  0
 21 22  2  0
 21 31  1  0
 22 23  1  0
 23 24  2  0
 24 25  1  0
 26 25  1  1
 26 28  1  0
 27 18  1  0
 27 26  1  0
 28 32  2  0
 28 29  1  0
 30 24  1  0
 31 30  2  0
M  END
$$$$
