MFY.pdb
     RDKit          3D

 32 33  0  0  1  0  0  0  0  0999 V2000
   29.0971  -16.3621  -17.6338 C   0  0  0  0  0  0  0  0  0  0  0  0
   28.8865  -17.9781  -16.8503 S   0  0  0  0  0  0  0  0  0  0  0  0
   27.1117  -18.3406  -16.7084 C   0  0  0  0  0  0  0  0  0  0  0  0
   26.9541  -19.7002  -16.0462 C   0  0  0  0  0  0  0  0  0  0  0  0
   27.6178  -19.6819  -14.6816 C   0  0  2  0  0  0  0  0  0  0  0  0
   28.9879  -20.0875  -14.8492 N   0  0  0  0  0  0  0  0  0  0  0  0
   26.8937  -20.5353  -13.7117 C   0  0  0  0  0  0  0  0  0  0  0  0
   26.5328  -21.6777  -14.0932 O   0  0  0  0  0  0  0  0  0  0  0  0
   26.5990  -20.1250  -12.4036 N   0  0  0  0  0  0  0  0  0  0  0  0
   25.8805  -20.9166  -11.4339 C   0  0  1  0  0  0  0  0  0  0  0  0
   26.4989  -20.8041  -10.0552 C   0  0  0  0  0  0  0  0  0  0  0  0
   27.9333  -21.0824  -10.1290 C   0  0  0  0  0  0  0  0  0  0  0  0
   28.8613  -20.0688  -10.0688 C   0  0  0  0  0  0  0  0  0  0  0  0
   30.2189  -20.3771  -10.1429 C   0  0  0  0  0  0  0  0  0  0  0  0
   30.6494  -21.6793  -10.2754 C   0  0  0  0  0  0  0  0  0  0  0  0
   29.7235  -22.6960  -10.3360 C   0  0  0  0  0  0  0  0  0  0  0  0
   28.3900  -22.3729  -10.2614 C   0  0  0  0  0  0  0  0  0  0  0  0
   24.4688  -20.4816  -11.4219 C   0  0  0  0  0  0  0  0  0  0  0  0
   24.1256  -19.5500  -10.6572 O   0  0  0  0  0  0  0  0  0  0  0  0
   23.9034  -20.5683  -18.4867 O   0  0  0  0  0  0  0  0  0  0  0  0
   23.4425  -20.2748  -17.2026 C   0  0  0  0  0  0  0  0  0  0  0  0
   24.1730  -19.4885  -16.3343 C   0  0  0  0  0  0  0  0  0  0  0  0
   23.7018  -19.2058  -15.0615 C   0  0  0  0  0  0  0  0  0  0  0  0
   22.4942  -19.6922  -14.6097 C   0  0  0  0  0  0  0  0  0  0  0  0
   21.9738  -19.4035  -13.2602 C   0  0  0  0  0  0  0  0  0  0  0  0
   22.1029  -20.5845  -12.3260 C   0  0  2  0  0  0  0  0  0  0  0  0
   23.4613  -21.0609  -12.2338 N   0  0  0  0  0  0  0  0  0  0  0  0
   21.2638  -21.7282  -12.7600 C   0  0  0  0  0  0  0  0  0  0  0  0
   21.8305  -22.9258  -13.1765 O   0  0  0  0  0  0  0  0  0  0  0  0
   21.7644  -20.4797  -15.4821 C   0  0  0  0  0  0  0  0  0  0  0  0
   22.2347  -20.7660  -16.7619 C   0  0  0  0  0  0  0  0  0  0  0  0
   19.9925  -21.6773  -12.7750 O   0  0  0  0  0  0  0  0  0  0  0  0
  2  1  1  0
  3  4  1  0
  3  2  1  0
  5  7  1  0
  5  6  1  6
  5  4  1  0
  7  8  2  0
  9 10  1  0
  9  7  1  0
 10 18  1  0
 10 11  1  1
 12 17  1  0
 12 11  1  0
 13 12  2  0
 14 15  2  0
 14 13  1  0
 15 16  1  0
 16 17  2  0
 18 19  2  0
 20 21  1  0
 21 22  2  0
 21 31  1  0
 22 23  1  0
 23 24  2  0
 24 25  1  0
 26 25  1  6
 26 28  1  0
 27 18  1  0
 27 26  1  0
 28 32  2  0
 28 29  1  0
 30 24  1  0
 31 30  2  0
M  END
$$$$
