HMW.pdb
     RDKit          3D

 33 35  0  0  1  0  0  0  0  0999 V2000
   28.2519  -21.3216  -16.2547 N   0  0  0  0  0  0  0  0  0  0  0  0
   27.5459  -20.4557  -15.3659 C   0  0  1  0  0  0  0  0  0  0  0  0
   26.9058  -19.2752  -16.0388 C   0  0  0  0  0  0  0  0  0  0  0  0
   27.9343  -18.4193  -16.6900 C   0  0  0  0  0  0  0  0  0  0  0  0
   28.2865  -18.4859  -18.0152 C   0  0  0  0  0  0  0  0  0  0  0  0
   29.2460  -17.5614  -18.2330 N   0  0  0  0  0  0  0  0  0  0  0  0
   29.4910  -16.9322  -17.0840 C   0  0  0  0  0  0  0  0  0  0  0  0
   28.6962  -17.4431  -16.1216 N   0  0  0  0  0  0  0  0  0  0  0  0
   26.5017  -21.1820  -14.5778 C   0  0  0  0  0  0  0  0  0  0  0  0
   25.8515  -22.1201  -15.1389 O   0  0  0  0  0  0  0  0  0  0  0  0
   26.6194  -19.4762   -7.7766 C   0  0  0  0  0  0  0  0  0  0  0  0
   25.9155  -20.9036   -8.6430 S   0  0  0  0  0  0  0  0  0  0  0  0
   26.0546  -20.6863  -10.4182 C   0  0  0  0  0  0  0  0  0  0  0  0
   25.5583  -21.9468  -11.0982 C   0  0  0  0  0  0  0  0  0  0  0  0
   25.1897  -21.6323  -12.5325 C   0  0  2  0  0  0  0  0  0  0  0  0
   26.1856  -20.8904  -13.2319 N   0  0  0  0  0  0  0  0  0  0  0  0
   23.8872  -20.9212  -12.4952 C   0  0  0  0  0  0  0  0  0  0  0  0
   23.8464  -19.8810  -11.7856 O   0  0  0  0  0  0  0  0  0  0  0  0
   22.7521  -21.3764  -13.2104 N   0  0  0  0  0  0  0  0  0  0  0  0
   21.5258  -20.6524  -13.0620 C   0  0  1  0  0  0  0  0  0  0  0  0
   20.8705  -20.3507  -14.3943 C   0  0  0  0  0  0  0  0  0  0  0  0
   21.6899  -19.3339  -15.0931 C   0  0  0  0  0  0  0  0  0  0  0  0
   22.8256  -19.5352  -15.8780 C   0  0  0  0  0  0  0  0  0  0  0  0
   23.2807  -18.3519  -16.3300 N   0  0  0  0  0  0  0  0  0  0  0  0
   22.4915  -17.3548  -15.8778 C   0  0  0  0  0  0  0  0  0  0  0  0
   22.4775  -15.9848  -16.0160 C   0  0  0  0  0  0  0  0  0  0  0  0
   21.5209  -15.1832  -15.4227 C   0  0  0  0  0  0  0  0  0  0  0  0
   20.5499  -15.8096  -14.6647 C   0  0  0  0  0  0  0  0  0  0  0  0
   20.5286  -17.1779  -14.5013 C   0  0  0  0  0  0  0  0  0  0  0  0
   21.5073  -17.9446  -15.1144 C   0  0  0  0  0  0  0  0  0  0  0  0
   20.6088  -21.4636  -12.2361 C   0  0  0  0  0  0  0  0  0  0  0  0
   19.4829  -20.8916  -11.6899 O   0  0  0  0  0  0  0  0  0  0  0  0
   20.8451  -22.6678  -12.0274 O   0  0  0  0  0  0  0  0  0  0  0  0
  2  1  1  6
  2  3  1  0
  3  4  1  0
  4  8  1  0
  5  4  2  0
  5  6  1  0
  6  7  1  0
  8  7  2  0
  9  2  1  0
  9 10  2  0
 11 12  1  0
 12 13  1  0
 13 14  1  0
 15 16  1  0
 15 14  1  1
 16  9  1  0
 17 15  1  0
 18 17  2  0
 19 17  1  0
 20 19  1  0
 20 21  1  6
 21 22  1  0
 22 30  1  0
 23 24  1  0
 23 22  2  0
 24 25  1  0
 25 30  2  0
 25 26  1  0
 26 27  2  0
 27 28  1  0
 29 28  2  0
 30 29  1  0
 31 32  1  0
 31 20  1  0
 33 31  2  0
M  END
$$$$
