HMW.pdb
     RDKit          3D

 33 35  0  0  1  0  0  0  0  0999 V2000
   27.6849  -18.7539  -17.7217 N   0  0  0  0  0  0  0  0  0  0  0  0
   27.1488  -18.1869  -16.5262 C   0  0  1  0  0  0  0  0  0  0  0  0
   26.3074  -16.9631  -16.7511 C   0  0  0  0  0  0  0  0  0  0  0  0
   27.1299  -15.7292  -16.6273 C   0  0  0  0  0  0  0  0  0  0  0  0
   27.1489  -14.9053  -15.5293 C   0  0  0  0  0  0  0  0  0  0  0  0
   28.0079  -13.8961  -15.7869 N   0  0  0  0  0  0  0  0  0  0  0  0
   28.5143  -14.0769  -17.0062 C   0  0  0  0  0  0  0  0  0  0  0  0
   27.9888  -15.1976  -17.5418 N   0  0  0  0  0  0  0  0  0  0  0  0
   26.3519  -19.1776  -15.7372 C   0  0  0  0  0  0  0  0  0  0  0  0
   25.7107  -20.0833  -16.3586 O   0  0  0  0  0  0  0  0  0  0  0  0
   25.2600  -20.0494   -8.9603 C   0  0  0  0  0  0  0  0  0  0  0  0
   25.6588  -21.5934   -9.8211 S   0  0  0  0  0  0  0  0  0  0  0  0
   25.1956  -21.4807  -11.5505 C   0  0  0  0  0  0  0  0  0  0  0  0
   25.8972  -20.2833  -12.1601 C   0  0  0  0  0  0  0  0  0  0  0  0
   25.5519  -20.1938  -13.6313 C   0  0  2  0  0  0  0  0  0  0  0  0
   26.2632  -19.1734  -14.3271 N   0  0  0  0  0  0  0  0  0  0  0  0
   24.0818  -20.0071  -13.7169 C   0  0  0  0  0  0  0  0  0  0  0  0
   23.6541  -18.8566  -13.4329 O   0  0  0  0  0  0  0  0  0  0  0  0
   23.2036  -21.0530  -14.0939 N   0  0  0  0  0  0  0  0  0  0  0  0
   21.8016  -20.7685  -14.1539 C   0  0  1  0  0  0  0  0  0  0  0  0
   21.2133  -21.0583  -15.5197 C   0  0  0  0  0  0  0  0  0  0  0  0
   19.7830  -20.6743  -15.4982 C   0  0  0  0  0  0  0  0  0  0  0  0
   19.2037  -19.5455  -14.9182 C   0  0  0  0  0  0  0  0  0  0  0  0
   17.8723  -19.5668  -15.1143 N   0  0  0  0  0  0  0  0  0  0  0  0
   17.5293  -20.6725  -15.8079 C   0  0  0  0  0  0  0  0  0  0  0  0
   16.3473  -21.1997  -16.2783 C   0  0  0  0  0  0  0  0  0  0  0  0
   16.2858  -22.3883  -16.9807 C   0  0  0  0  0  0  0  0  0  0  0  0
   17.4756  -23.0543  -17.2058 C   0  0  0  0  0  0  0  0  0  0  0  0
   18.6796  -22.5607  -16.7519 C   0  0  0  0  0  0  0  0  0  0  0  0
   18.6960  -21.3645  -16.0515 C   0  0  0  0  0  0  0  0  0  0  0  0
   21.1194  -21.5969  -13.1393 C   0  0  0  0  0  0  0  0  0  0  0  0
   21.4362  -22.9296  -13.0097 O   0  0  0  0  0  0  0  0  0  0  0  0
   20.2550  -21.0991  -12.3949 O   0  0  0  0  0  0  0  0  0  0  0  0
  2  1  1  6
  2  3  1  0
  3  4  1  0
  4  8  1  0
  5  4  2  0
  5  6  1  0
  6  7  1  0
  8  7  2  0
  9  2  1  0
  9 10  2  0
 11 12  1  0
 12 13  1  0
 13 14  1  0
 15 16  1  0
 15 14  1  1
 16  9  1  0
 17 15  1  0
 18 17  2  0
 19 17  1  0
 20 19  1  0
 20 21  1  6
 21 22  1  0
 22 30  1  0
 23 24  1  0
 23 22  2  0
 24 25  1  0
 25 30  2  0
 25 26  1  0
 26 27  2  0
 27 28  1  0
 29 28  2  0
 30 29  1  0
 31 32  1  0
 31 20  1  0
 33 31  2  0
M  END
$$$$
