HMW.pdb
     RDKit          3D

 33 35  0  0  1  0  0  0  0  0999 V2000
   28.2571  -21.3719  -16.0435 N   0  0  0  0  0  0  0  0  0  0  0  0
   27.5281  -20.3696  -15.3349 C   0  0  1  0  0  0  0  0  0  0  0  0
   27.0216  -19.2517  -16.2009 C   0  0  0  0  0  0  0  0  0  0  0  0
   28.1449  -18.5966  -16.9246 C   0  0  0  0  0  0  0  0  0  0  0  0
   28.2322  -18.4702  -18.2888 C   0  0  0  0  0  0  0  0  0  0  0  0
   29.3848  -17.8256  -18.5695 N   0  0  0  0  0  0  0  0  0  0  0  0
   30.0040  -17.5540  -17.4211 C   0  0  0  0  0  0  0  0  0  0  0  0
   29.2601  -18.0187  -16.3966 N   0  0  0  0  0  0  0  0  0  0  0  0
   26.3767  -20.9415  -14.5692 C   0  0  0  0  0  0  0  0  0  0  0  0
   25.6826  -21.8639  -15.1030 O   0  0  0  0  0  0  0  0  0  0  0  0
   24.7600  -20.4452   -8.1950 C   0  0  0  0  0  0  0  0  0  0  0  0
   26.3494  -21.1259   -8.7373 S   0  0  0  0  0  0  0  0  0  0  0  0
   26.3410  -21.3922  -10.5113 C   0  0  0  0  0  0  0  0  0  0  0  0
   25.0058  -20.9314  -11.0612 C   0  0  0  0  0  0  0  0  0  0  0  0
   24.9653  -21.1778  -12.5544 C   0  0  2  0  0  0  0  0  0  0  0  0
   26.0040  -20.5183  -13.2737 N   0  0  0  0  0  0  0  0  0  0  0  0
   23.6167  -20.7689  -13.0208 C   0  0  0  0  0  0  0  0  0  0  0  0
   23.2498  -19.6076  -12.6982 O   0  0  0  0  0  0  0  0  0  0  0  0
   22.7841  -21.6251  -13.7829 N   0  0  0  0  0  0  0  0  0  0  0  0
   21.5182  -21.1203  -14.2218 C   0  0  1  0  0  0  0  0  0  0  0  0
   21.2294  -21.4686  -15.6677 C   0  0  0  0  0  0  0  0  0  0  0  0
   19.9657  -20.8035  -16.0603 C   0  0  0  0  0  0  0  0  0  0  0  0
   19.7109  -19.4363  -16.1700 C   0  0  0  0  0  0  0  0  0  0  0  0
   18.4343  -19.2412  -16.5491 N   0  0  0  0  0  0  0  0  0  0  0  0
   17.8147  -20.4306  -16.7002 C   0  0  0  0  0  0  0  0  0  0  0  0
   16.5470  -20.8298  -17.0607 C   0  0  0  0  0  0  0  0  0  0  0  0
   16.1742  -22.1584  -17.1350 C   0  0  0  0  0  0  0  0  0  0  0  0
   17.1340  -23.1045  -16.8294 C   0  0  0  0  0  0  0  0  0  0  0  0
   18.4139  -22.7468  -16.4641 C   0  0  0  0  0  0  0  0  0  0  0  0
   18.7457  -21.4022  -16.4024 C   0  0  0  0  0  0  0  0  0  0  0  0
   20.4678  -21.6968  -13.3584 C   0  0  0  0  0  0  0  0  0  0  0  0
   19.3657  -20.9468  -13.0175 O   0  0  0  0  0  0  0  0  0  0  0  0
   20.5693  -22.8621  -12.9329 O   0  0  0  0  0  0  0  0  0  0  0  0
  2  1  1  6
  2  3  1  0
  3  4  1  0
  4  8  1  0
  5  4  2  0
  5  6  1  0
  6  7  1  0
  8  7  2  0
  9  2  1  0
  9 10  2  0
 11 12  1  0
 12 13  1  0
 13 14  1  0
 15 16  1  0
 15 14  1  1
 16  9  1  0
 17 15  1  0
 18 17  2  0
 19 17  1  0
 20 19  1  0
 20 21  1  6
 21 22  1  0
 22 30  1  0
 23 24  1  0
 23 22  2  0
 24 25  1  0
 25 30  2  0
 25 26  1  0
 26 27  2  0
 27 28  1  0
 29 28  2  0
 30 29  1  0
 31 32  1  0
 31 20  1  0
 33 31  2  0
M  END
$$$$
