HMW.pdb
     RDKit          3D

 33 35  0  0  1  0  0  0  0  0999 V2000
   25.1902  -19.8402  -17.3600 N   0  0  0  0  0  0  0  0  0  0  0  0
   25.2692  -18.5190  -16.8248 C   0  0  1  0  0  0  0  0  0  0  0  0
   24.7919  -17.4474  -17.7628 C   0  0  0  0  0  0  0  0  0  0  0  0
   25.5088  -17.5299  -19.0643 C   0  0  0  0  0  0  0  0  0  0  0  0
   25.2197  -18.4247  -20.0644 C   0  0  0  0  0  0  0  0  0  0  0  0
   26.0774  -18.1962  -21.0817 N   0  0  0  0  0  0  0  0  0  0  0  0
   26.8806  -17.1907  -20.7355 C   0  0  0  0  0  0  0  0  0  0  0  0
   26.5494  -16.7654  -19.4992 N   0  0  0  0  0  0  0  0  0  0  0  0
   24.5296  -18.3870  -15.5307 C   0  0  0  0  0  0  0  0  0  0  0  0
   24.3587  -17.2272  -15.0374 O   0  0  0  0  0  0  0  0  0  0  0  0
   19.0063  -21.1951  -13.1098 C   0  0  0  0  0  0  0  0  0  0  0  0
   19.7359  -20.9455  -14.7496 S   0  0  0  0  0  0  0  0  0  0  0  0
   21.5090  -20.7095  -14.6138 C   0  0  0  0  0  0  0  0  0  0  0  0
   21.7676  -19.4747  -13.7736 C   0  0  0  0  0  0  0  0  0  0  0  0
   23.2602  -19.2825  -13.6087 C   0  0  2  0  0  0  0  0  0  0  0  0
   24.0010  -19.4813  -14.8100 N   0  0  0  0  0  0  0  0  0  0  0  0
   23.6946  -20.2011  -12.5266 C   0  0  0  0  0  0  0  0  0  0  0  0
   23.9170  -21.3926  -12.8702 O   0  0  0  0  0  0  0  0  0  0  0  0
   23.8523  -19.7741  -11.1850 N   0  0  0  0  0  0  0  0  0  0  0  0
   24.0626  -20.7714  -10.1795 C   0  0  1  0  0  0  0  0  0  0  0  0
   24.8102  -20.2294   -8.9784 C   0  0  0  0  0  0  0  0  0  0  0  0
   26.2513  -20.5181   -9.1615 C   0  0  0  0  0  0  0  0  0  0  0  0
   26.8514  -21.3220  -10.1309 C   0  0  0  0  0  0  0  0  0  0  0  0
   28.1854  -21.3296   -9.9522 N   0  0  0  0  0  0  0  0  0  0  0  0
   28.5100  -20.5577   -8.8939 C   0  0  0  0  0  0  0  0  0  0  0  0
   29.6854  -20.2077   -8.2675 C   0  0  0  0  0  0  0  0  0  0  0  0
   29.7263  -19.3736   -7.1665 C   0  0  0  0  0  0  0  0  0  0  0  0
   28.5224  -18.8850   -6.6958 C   0  0  0  0  0  0  0  0  0  0  0  0
   27.3243  -19.2111   -7.2939 C   0  0  0  0  0  0  0  0  0  0  0  0
   27.3287  -20.0512   -8.3966 C   0  0  0  0  0  0  0  0  0  0  0  0
   22.7435  -21.2777   -9.7496 C   0  0  0  0  0  0  0  0  0  0  0  0
   22.6619  -22.2999   -8.8322 O   0  0  0  0  0  0  0  0  0  0  0  0
   21.6973  -20.7860  -10.2113 O   0  0  0  0  0  0  0  0  0  0  0  0
  2  1  1  6
  2  3  1  0
  3  4  1  0
  4  8  1  0
  5  4  2  0
  5  6  1  0
  6  7  1  0
  8  7  2  0
  9  2  1  0
  9 10  2  0
 11 12  1  0
 12 13  1  0
 13 14  1  0
 15 16  1  0
 15 14  1  6
 16  9  1  0
 17 15  1  0
 18 17  2  0
 19 17  1  0
 20 19  1  0
 20 21  1  1
 21 22  1  0
 22 30  1  0
 23 24  1  0
 23 22  2  0
 24 25  1  0
 25 30  2  0
 25 26  1  0
 26 27  2  0
 27 28  1  0
 29 28  2  0
 30 29  1  0
 31 32  1  0
 31 20  1  0
 33 31  2  0
M  END
$$$$
