HMW.pdb
     RDKit          3D

 33 35  0  0  1  0  0  0  0  0999 V2000
   13.0888  -21.0261    3.6577 N   0  0  0  0  0  0  0  0  0  0  0  0
   14.5160  -20.9887    3.6601 C   0  0  1  0  0  0  0  0  0  0  0  0
   15.1188  -20.4869    2.3790 C   0  0  0  0  0  0  0  0  0  0  0  0
   14.8143  -21.4143    1.2557 C   0  0  0  0  0  0  0  0  0  0  0  0
   15.6071  -22.4665    0.8696 C   0  0  0  0  0  0  0  0  0  0  0  0
   15.0069  -23.0713   -0.1777 N   0  0  0  0  0  0  0  0  0  0  0  0
   13.8733  -22.4229   -0.4434 C   0  0  0  0  0  0  0  0  0  0  0  0
   13.7343  -21.4006    0.4251 N   0  0  0  0  0  0  0  0  0  0  0  0
   15.0595  -20.1785    4.7946 C   0  0  0  0  0  0  0  0  0  0  0  0
   14.4734  -19.0949    5.1107 O   0  0  0  0  0  0  0  0  0  0  0  0
   18.4555  -20.1075   11.7931 C   0  0  0  0  0  0  0  0  0  0  0  0
   18.5429  -20.8088   10.1245 S   0  0  0  0  0  0  0  0  0  0  0  0
   17.5432  -19.8441    8.9895 C   0  0  0  0  0  0  0  0  0  0  0  0
   17.4072  -20.6158    7.6920 C   0  0  0  0  0  0  0  0  0  0  0  0
   16.5697  -19.8159    6.7170 C   0  0  2  0  0  0  0  0  0  0  0  0
   16.1973  -20.5428    5.5489 N   0  0  0  0  0  0  0  0  0  0  0  0
   17.3429  -18.5918    6.3899 C   0  0  0  0  0  0  0  0  0  0  0  0
   18.0625  -18.6530    5.3576 O   0  0  0  0  0  0  0  0  0  0  0  0
   17.2830  -17.4202    7.1842 N   0  0  0  0  0  0  0  0  0  0  0  0
   18.1508  -16.3320    6.8484 C   0  0  1  0  0  0  0  0  0  0  0  0
   17.6484  -15.0078    7.3867 C   0  0  0  0  0  0  0  0  0  0  0  0
   18.2966  -13.9202    6.6183 C   0  0  0  0  0  0  0  0  0  0  0  0
   17.8196  -13.2672    5.4815 C   0  0  0  0  0  0  0  0  0  0  0  0
   18.7108  -12.3410    5.0822 N   0  0  0  0  0  0  0  0  0  0  0  0
   19.7765  -12.3441    5.9102 C   0  0  0  0  0  0  0  0  0  0  0  0
   20.9539  -11.6340    5.9851 C   0  0  0  0  0  0  0  0  0  0  0  0
   21.8976  -11.8526    6.9708 C   0  0  0  0  0  0  0  0  0  0  0  0
   21.6218  -12.8308    7.9071 C   0  0  0  0  0  0  0  0  0  0  0  0
   20.4553  -13.5639    7.8675 C   0  0  0  0  0  0  0  0  0  0  0  0
   19.5355  -13.3119    6.8614 C   0  0  0  0  0  0  0  0  0  0  0  0
   19.4859  -16.6165    7.4119 C   0  0  0  0  0  0  0  0  0  0  0  0
   20.5904  -16.6411    6.5918 O   0  0  0  0  0  0  0  0  0  0  0  0
   19.6238  -16.8358    8.6294 O   0  0  0  0  0  0  0  0  0  0  0  0
  2  1  1  6
  2  3  1  0
  3  4  1  0
  4  8  1  0
  5  4  2  0
  5  6  1  0
  6  7  1  0
  8  7  2  0
  9  2  1  0
  9 10  2  0
 11 12  1  0
 12 13  1  0
 13 14  1  0
 15 16  1  0
 15 14  1  1
 16  9  1  0
 17 15  1  0
 18 17  2  0
 19 17  1  0
 20 19  1  0
 20 21  1  1
 21 22  1  0
 22 30  1  0
 23 24  1  0
 23 22  2  0
 24 25  1  0
 25 30  2  0
 25 26  1  0
 26 27  2  0
 27 28  1  0
 29 28  2  0
 30 29  1  0
 31 32  1  0
 31 20  1  0
 33 31  2  0
M  END
$$$$
