HMW.pdb
     RDKit          3D

 33 35  0  0  1  0  0  0  0  0999 V2000
   28.7761  -22.2543  -17.2491 N   0  0  0  0  0  0  0  0  0  0  0  0
   28.1346  -21.1028  -16.7008 C   0  0  1  0  0  0  0  0  0  0  0  0
   27.3748  -20.2864  -17.7070 C   0  0  0  0  0  0  0  0  0  0  0  0
   28.2965  -19.4031  -18.4717 C   0  0  0  0  0  0  0  0  0  0  0  0
   29.0505  -19.7995  -19.5484 C   0  0  0  0  0  0  0  0  0  0  0  0
   29.7557  -18.7295  -19.9732 N   0  0  0  0  0  0  0  0  0  0  0  0
   29.4568  -17.6926  -19.1913 C   0  0  0  0  0  0  0  0  0  0  0  0
   28.5617  -18.0833  -18.2612 N   0  0  0  0  0  0  0  0  0  0  0  0
   27.2147  -21.4500  -15.5730 C   0  0  0  0  0  0  0  0  0  0  0  0
   26.4986  -22.4970  -15.6654 O   0  0  0  0  0  0  0  0  0  0  0  0
   25.2420  -21.0927   -7.9811 C   0  0  0  0  0  0  0  0  0  0  0  0
   26.2479  -20.3981   -9.3188 S   0  0  0  0  0  0  0  0  0  0  0  0
   25.7514  -21.0915  -10.8969 C   0  0  0  0  0  0  0  0  0  0  0  0
   26.6485  -20.5212  -11.9774 C   0  0  0  0  0  0  0  0  0  0  0  0
   26.2665  -21.1185  -13.3150 C   0  0  2  0  0  0  0  0  0  0  0  0
   27.0869  -20.6805  -14.3949 N   0  0  0  0  0  0  0  0  0  0  0  0
   24.8343  -20.7967  -13.5358 C   0  0  0  0  0  0  0  0  0  0  0  0
   24.5887  -19.6376  -13.9641 O   0  0  0  0  0  0  0  0  0  0  0  0
   23.7981  -21.7292  -13.2829 N   0  0  0  0  0  0  0  0  0  0  0  0
   22.4440  -21.2954  -13.4506 C   0  0  1  0  0  0  0  0  0  0  0  0
   21.4457  -22.3934  -13.1450 C   0  0  0  0  0  0  0  0  0  0  0  0
   20.0870  -21.8743  -13.4245 C   0  0  0  0  0  0  0  0  0  0  0  0
   19.4325  -21.7943  -14.6538 C   0  0  0  0  0  0  0  0  0  0  0  0
   18.2106  -21.2560  -14.4836 N   0  0  0  0  0  0  0  0  0  0  0  0
   18.0147  -20.9683  -13.1797 C   0  0  0  0  0  0  0  0  0  0  0  0
   16.9852  -20.4210  -12.4469 C   0  0  0  0  0  0  0  0  0  0  0  0
   17.0574  -20.2346  -11.0795 C   0  0  0  0  0  0  0  0  0  0  0  0
   18.2233  -20.6228  -10.4471 C   0  0  0  0  0  0  0  0  0  0  0  0
   19.2768  -21.1742  -11.1440 C   0  0  0  0  0  0  0  0  0  0  0  0
   19.1622  -21.3437  -12.5151 C   0  0  0  0  0  0  0  0  0  0  0  0
   22.2104  -20.1531  -12.5442 C   0  0  0  0  0  0  0  0  0  0  0  0
   21.4731  -19.0727  -12.9710 O   0  0  0  0  0  0  0  0  0  0  0  0
   22.6766  -20.1572  -11.3900 O   0  0  0  0  0  0  0  0  0  0  0  0
  2  1  1  6
  2  3  1  0
  3  4  1  0
  4  8  1  0
  5  4  2  0
  5  6  1  0
  6  7  1  0
  8  7  2  0
  9  2  1  0
  9 10  2  0
 11 12  1  0
 12 13  1  0
 13 14  1  0
 15 16  1  0
 15 14  1  1
 16  9  1  0
 17 15  1  0
 18 17  2  0
 19 17  1  0
 20 19  1  0
 20 21  1  1
 21 22  1  0
 22 30  1  0
 23 24  1  0
 23 22  2  0
 24 25  1  0
 25 30  2  0
 25 26  1  0
 26 27  2  0
 27 28  1  0
 29 28  2  0
 30 29  1  0
 31 32  1  0
 31 20  1  0
 33 31  2  0
M  END
$$$$
