TPC.pdb
     RDKit          3D

 21 21  0  0  1  0  0  0  0  0999 V2000
   10.5238  -19.1945   21.8771 C   0  0  0  0  0  0  0  0  0  0  0  0
   11.3571  -18.2726   21.0242 C   0  0  1  0  0  0  0  0  0  0  0  0
   11.7133  -19.0280   19.8813 O   0  0  0  0  0  0  0  0  0  0  0  0
   10.5573  -17.0362   20.5681 C   0  0  2  0  0  0  0  0  0  0  0  0
   11.2170  -16.5439   19.4200 N   0  0  0  0  0  0  0  0  0  0  0  0
   10.3625  -16.1334   21.7019 C   0  0  0  0  0  0  0  0  0  0  0  0
   11.4423  -15.9034   22.3541 O   0  0  0  0  0  0  0  0  0  0  0  0
    9.2014  -15.5083   22.1555 N   0  0  0  0  0  0  0  0  0  0  0  0
    8.1213  -14.9178   21.3028 C   0  0  0  0  0  0  0  0  0  0  0  0
    6.8706  -15.4856   21.9977 C   0  0  0  0  0  0  0  0  0  0  0  0
    7.3592  -16.0386   23.3366 C   0  0  0  0  0  0  0  0  0  0  0  0
    8.6574  -15.2167   23.4487 C   0  0  1  0  0  0  0  0  0  0  0  0
    9.3737  -15.4441   24.6513 C   0  0  0  0  0  0  0  0  0  0  0  0
   10.0618  -16.4188   24.9338 O   0  0  0  0  0  0  0  0  0  0  0  0
    9.2990  -14.4223   25.6780 N   0  0  0  0  0  0  0  0  0  0  0  0
    9.9663  -14.5926   26.9277 C   0  0  1  0  0  0  0  0  0  0  0  0
    9.6221  -13.4840   27.9196 C   0  0  0  0  0  0  0  0  0  0  0  0
   10.6778  -13.7635   29.3901 S   0  0  0  0  0  0  0  0  0  0  0  0
    9.5501  -15.8635   27.5446 C   0  0  0  0  0  0  0  0  0  0  0  0
   10.3874  -16.6039   28.0728 O   0  0  0  0  0  0  0  0  0  0  0  0
    8.2043  -16.1972   27.5133 O   0  0  0  0  0  0  0  0  0  0  0  0
  2  1  1  1
  2  3  1  0
  4  2  1  0
  4  5  1  6
  6  4  1  0
  6  7  2  0
  8  6  1  0
  9  8  1  0
 10 11  1  0
 10  9  1  0
 11 12  1  0
 12  8  1  0
 12 13  1  1
 13 15  1  0
 14 13  2  0
 15 16  1  0
 16 19  1  0
 16 17  1  1
 17 18  1  0
 19 20  2  0
 19 21  1  0
M  END
$$$$
