TPC.pdb
     RDKit          3D

 21 21  0  0  1  0  0  0  0  0999 V2000
    7.2009  -17.5973   17.5041 C   0  0  0  0  0  0  0  0  0  0  0  0
    8.3210  -17.2991   16.5406 C   0  0  1  0  0  0  0  0  0  0  0  0
    7.8349  -17.6702   15.2639 O   0  0  0  0  0  0  0  0  0  0  0  0
    8.6713  -15.7981   16.5172 C   0  0  2  0  0  0  0  0  0  0  0  0
    9.3424  -15.5708   15.2951 N   0  0  0  0  0  0  0  0  0  0  0  0
    9.3461  -15.4334   17.7622 C   0  0  0  0  0  0  0  0  0  0  0  0
   10.3744  -16.1585   18.0091 O   0  0  0  0  0  0  0  0  0  0  0  0
    9.0349  -14.4371   18.6871 N   0  0  0  0  0  0  0  0  0  0  0  0
    8.6000  -13.0393   18.3719 C   0  0  0  0  0  0  0  0  0  0  0  0
    7.4105  -12.8891   19.3373 C   0  0  0  0  0  0  0  0  0  0  0  0
    7.5184  -14.0643   20.3091 C   0  0  0  0  0  0  0  0  0  0  0  0
    9.0171  -14.3653   20.1182 C   0  0  1  0  0  0  0  0  0  0  0  0
    9.4979  -15.4124   20.9448 C   0  0  0  0  0  0  0  0  0  0  0  0
    9.0861  -16.5660   20.9984 O   0  0  0  0  0  0  0  0  0  0  0  0
   10.6009  -15.1084   21.8362 N   0  0  0  0  0  0  0  0  0  0  0  0
   11.0554  -16.0680   22.7895 C   0  0  1  0  0  0  0  0  0  0  0  0
   12.2243  -15.5444   23.6207 C   0  0  0  0  0  0  0  0  0  0  0  0
   12.7582  -16.9331   24.6892 S   0  0  0  0  0  0  0  0  0  0  0  0
    9.9689  -16.3865   23.7313 C   0  0  0  0  0  0  0  0  0  0  0  0
    9.7114  -17.5626   24.0118 O   0  0  0  0  0  0  0  0  0  0  0  0
    9.2535  -15.3356   24.2858 O   0  0  0  0  0  0  0  0  0  0  0  0
  2  1  1  1
  2  3  1  0
  4  2  1  0
  4  5  1  6
  6  4  1  0
  6  7  2  0
  8  6  1  0
  9  8  1  0
 10 11  1  0
 10  9  1  0
 11 12  1  0
 12  8  1  0
 12 13  1  1
 13 15  1  0
 14 13  2  0
 15 16  1  0
 16 19  1  0
 16 17  1  1
 17 18  1  0
 19 20  2  0
 19 21  1  0
M  END
$$$$
