TPC.pdb
     RDKit          3D

 21 21  0  0  1  0  0  0  0  0999 V2000
    6.7910  -17.5988   17.7595 C   0  0  0  0  0  0  0  0  0  0  0  0
    8.0329  -17.4776   16.9140 C   0  0  1  0  0  0  0  0  0  0  0  0
    7.6590  -17.9177   15.6215 O   0  0  0  0  0  0  0  0  0  0  0  0
    8.5182  -16.0177   16.8161 C   0  0  2  0  0  0  0  0  0  0  0  0
    9.2120  -15.9163   15.5897 N   0  0  0  0  0  0  0  0  0  0  0  0
    9.2185  -15.6511   18.0464 C   0  0  0  0  0  0  0  0  0  0  0  0
   10.1574  -16.4682   18.3544 O   0  0  0  0  0  0  0  0  0  0  0  0
    9.0122  -14.5694   18.9021 N   0  0  0  0  0  0  0  0  0  0  0  0
    8.8423  -13.1379   18.4965 C   0  0  0  0  0  0  0  0  0  0  0  0
    7.6275  -12.7433   19.3555 C   0  0  0  0  0  0  0  0  0  0  0  0
    7.4652  -13.8668   20.3795 C   0  0  0  0  0  0  0  0  0  0  0  0
    8.9021  -14.4195   20.3229 C   0  0  1  0  0  0  0  0  0  0  0  0
    9.1385  -15.4858   21.2273 C   0  0  0  0  0  0  0  0  0  0  0  0
    8.4486  -16.4855   21.3947 O   0  0  0  0  0  0  0  0  0  0  0  0
   10.3241  -15.4073   22.0591 N   0  0  0  0  0  0  0  0  0  0  0  0
   10.6766  -16.4801   22.9314 C   0  0  1  0  0  0  0  0  0  0  0  0
   10.9980  -17.7619   22.1665 C   0  0  0  0  0  0  0  0  0  0  0  0
   11.3588  -19.0381   23.4300 S   0  0  0  0  0  0  0  0  0  0  0  0
   11.8839  -16.1234   23.6958 C   0  0  0  0  0  0  0  0  0  0  0  0
   12.6604  -15.2616   23.2687 O   0  0  0  0  0  0  0  0  0  0  0  0
   12.1170  -16.7788   24.8956 O   0  0  0  0  0  0  0  0  0  0  0  0
  2  1  1  1
  2  3  1  0
  4  2  1  0
  4  5  1  6
  6  4  1  0
  6  7  2  0
  8  6  1  0
  9  8  1  0
 10 11  1  0
 10  9  1  0
 11 12  1  0
 12  8  1  0
 12 13  1  1
 13 15  1  0
 14 13  2  0
 15 16  1  0
 16 19  1  0
 16 17  1  6
 17 18  1  0
 19 20  2  0
 19 21  1  0
M  END
$$$$
