TPC.pdb
     RDKit          3D

 21 21  0  0  1  0  0  0  0  0999 V2000
    6.6787  -18.1659   16.7825 C   0  0  0  0  0  0  0  0  0  0  0  0
    7.3345  -17.5744   18.0039 C   0  0  1  0  0  0  0  0  0  0  0  0
    7.9574  -18.6597   18.6658 O   0  0  0  0  0  0  0  0  0  0  0  0
    8.4146  -16.5403   17.6292 C   0  0  2  0  0  0  0  0  0  0  0  0
    9.2036  -17.1435   16.6246 N   0  0  0  0  0  0  0  0  0  0  0  0
    9.0760  -16.0617   18.8424 C   0  0  0  0  0  0  0  0  0  0  0  0
   10.0014  -16.8475   19.2554 O   0  0  0  0  0  0  0  0  0  0  0  0
    8.8462  -14.9052   19.5870 N   0  0  0  0  0  0  0  0  0  0  0  0
    8.7057  -13.5158   19.0463 C   0  0  0  0  0  0  0  0  0  0  0  0
    7.4616  -13.0375   19.8162 C   0  0  0  0  0  0  0  0  0  0  0  0
    7.2486  -14.0618   20.9310 C   0  0  0  0  0  0  0  0  0  0  0  0
    8.6814  -14.6255   20.9827 C   0  0  1  0  0  0  0  0  0  0  0  0
    8.8719  -15.6059   21.9893 C   0  0  0  0  0  0  0  0  0  0  0  0
    8.1407  -16.5546   22.2510 O   0  0  0  0  0  0  0  0  0  0  0  0
   10.0589  -15.4948   22.8155 N   0  0  0  0  0  0  0  0  0  0  0  0
   10.3399  -16.4640   23.8243 C   0  0  1  0  0  0  0  0  0  0  0  0
   11.7084  -17.1136   23.6330 C   0  0  0  0  0  0  0  0  0  0  0  0
   11.6815  -17.8910   21.9747 S   0  0  0  0  0  0  0  0  0  0  0  0
   10.3546  -15.8157   25.1466 C   0  0  0  0  0  0  0  0  0  0  0  0
   10.4938  -16.4927   26.1716 O   0  0  0  0  0  0  0  0  0  0  0  0
   10.2090  -14.4376   25.2022 O   0  0  0  0  0  0  0  0  0  0  0  0
  2  1  1  6
  2  3  1  0
  4  2  1  0
  4  5  1  6
  6  4  1  0
  6  7  2  0
  8  6  1  0
  9  8  1  0
 10 11  1  0
 10  9  1  0
 11 12  1  0
 12  8  1  0
 12 13  1  1
 13 15  1  0
 14 13  2  0
 15 16  1  0
 16 19  1  0
 16 17  1  6
 17 18  1  0
 19 20  2  0
 19 21  1  0
M  END
$$$$
