TPC.pdb
     RDKit          3D

 21 21  0  0  1  0  0  0  0  0999 V2000
    5.6639  -15.7726   19.8692 C   0  0  0  0  0  0  0  0  0  0  0  0
    6.5818  -16.1172   21.0141 C   0  0  1  0  0  0  0  0  0  0  0  0
    6.8943  -17.4884   20.8530 O   0  0  0  0  0  0  0  0  0  0  0  0
    7.8905  -15.3042   20.9629 C   0  0  2  0  0  0  0  0  0  0  0  0
    8.4610  -15.5585   19.6958 N   0  0  0  0  0  0  0  0  0  0  0  0
    8.6879  -15.5844   22.1562 C   0  0  0  0  0  0  0  0  0  0  0  0
    9.4178  -16.6322   22.0399 O   0  0  0  0  0  0  0  0  0  0  0  0
    8.7615  -14.8903   23.3635 N   0  0  0  0  0  0  0  0  0  0  0  0
    8.7707  -13.4023   23.5316 C   0  0  0  0  0  0  0  0  0  0  0  0
    7.7482  -13.2403   24.6708 C   0  0  0  0  0  0  0  0  0  0  0  0
    7.5380  -14.6445   25.2377 C   0  0  0  0  0  0  0  0  0  0  0  0
    8.8519  -15.2769   24.7404 C   0  0  1  0  0  0  0  0  0  0  0  0
    9.0266  -16.6234   25.1491 C   0  0  0  0  0  0  0  0  0  0  0  0
    8.1841  -17.5141   25.1543 O   0  0  0  0  0  0  0  0  0  0  0  0
   10.3421  -17.0149   25.6182 N   0  0  0  0  0  0  0  0  0  0  0  0
   10.6045  -18.3591   26.0188 C   0  0  1  0  0  0  0  0  0  0  0  0
   12.0353  -18.7858   25.6997 C   0  0  0  0  0  0  0  0  0  0  0  0
   13.1307  -17.5835   26.5421 S   0  0  0  0  0  0  0  0  0  0  0  0
   10.4348  -18.4859   27.4762 C   0  0  0  0  0  0  0  0  0  0  0  0
   10.1734  -17.4914   28.1625 O   0  0  0  0  0  0  0  0  0  0  0  0
   10.5763  -19.7427   28.0454 O   0  0  0  0  0  0  0  0  0  0  0  0
  2  1  1  6
  2  3  1  0
  4  2  1  0
  4  5  1  6
  6  4  1  0
  6  7  2  0
  8  6  1  0
  9  8  1  0
 10 11  1  0
 10  9  1  0
 11 12  1  0
 12  8  1  0
 12 13  1  6
 13 15  1  0
 14 13  2  0
 15 16  1  0
 16 19  1  0
 16 17  1  1
 17 18  1  0
 19 20  2  0
 19 21  1  0
M  END
$$$$
