IRF.pdb
     RDKit          3D

 31 31  0  0  1  0  0  0  0  0999 V2000
   11.9021  -20.2204   17.9919 C   0  0  0  0  0  0  0  0  0  0  0  0
   10.6825  -19.3387   17.9135 C   0  0  0  0  0  0  0  0  0  0  0  0
   10.8180  -18.1100   18.7779 C   0  0  2  0  0  0  0  0  0  0  0  0
   12.2557  -17.9128   19.1054 C   0  0  0  0  0  0  0  0  0  0  0  0
    9.9847  -18.2132   20.0333 C   0  0  2  0  0  0  0  0  0  0  0  0
    8.5572  -18.3713   19.6290 N   0  0  0  0  0  0  0  0  0  0  0  0
    9.9943  -16.9785   20.8458 C   0  0  0  0  0  0  0  0  0  0  0  0
   11.0678  -16.4744   21.3175 O   0  0  0  0  0  0  0  0  0  0  0  0
    8.6013  -15.4664   17.6091 N   0  0  0  0  0  0  0  0  0  0  0  0
    8.4684  -14.1352   17.1274 C   0  0  0  0  0  0  0  0  0  0  0  0
    8.7411  -13.8531   15.8996 N   0  0  0  0  0  0  0  0  0  0  0  0
    8.0343  -13.0604   17.9545 N   0  0  0  0  0  0  0  0  0  0  0  0
    8.1432  -13.1006   19.3912 C   0  0  0  0  0  0  0  0  0  0  0  0
    7.4296  -14.2934   19.9819 C   0  0  0  0  0  0  0  0  0  0  0  0
    7.5360  -14.3099   21.4935 C   0  0  0  0  0  0  0  0  0  0  0  0
    8.7483  -15.0967   21.9443 C   0  0  2  0  0  0  0  0  0  0  0  0
    8.8005  -16.3007   21.1300 N   0  0  0  0  0  0  0  0  0  0  0  0
    8.7200  -15.4527   23.3514 C   0  0  0  0  0  0  0  0  0  0  0  0
    7.9904  -16.4257   23.7173 O   0  0  0  0  0  0  0  0  0  0  0  0
    8.6774  -12.8664   15.5624 N   0  0  0  0  0  0  0  0  0  0  0  0
    9.4639  -14.7762   24.3647 C   0  0  2  0  0  0  0  0  0  0  0  0
    9.2935  -15.1652   25.7572 C   0  0  0  0  0  0  0  0  0  0  0  0
    7.8452  -15.1242   26.1552 C   0  0  0  0  0  0  0  0  0  0  0  0
    7.3559  -13.7574   26.2871 C   0  0  0  0  0  0  0  0  0  0  0  0
    8.1906  -12.6826   26.5975 C   0  0  0  0  0  0  0  0  0  0  0  0
    7.7232  -11.4066   26.7164 C   0  0  0  0  0  0  0  0  0  0  0  0
    6.3898  -11.1165   26.5335 C   0  0  0  0  0  0  0  0  0  0  0  0
    5.5430  -12.1433   26.2289 C   0  0  0  0  0  0  0  0  0  0  0  0
    6.0094  -13.4372   26.1070 C   0  0  0  0  0  0  0  0  0  0  0  0
    9.9083  -16.4751   26.0171 O   0  0  0  0  0  0  0  0  0  0  0  0
   10.5655  -17.2662   25.1008 O   0  0  0  0  0  0  0  0  0  0  0  0
  2  1  1  0
  3  2  1  0
  3  4  1  1
  5  3  1  0
  5  6  1  6
  7  5  1  0
  8  7  2  0
  9 10  1  0
 10 12  1  0
 11 10  2  0
 12 13  1  0
 13 14  1  0
 14 15  1  0
 16 15  1  6
 16 18  1  0
 16 17  1  0
 17  7  1  0
 18 19  2  0
 20 21  1  0
 20 18  1  0
 21 22  1  1
 22 23  1  0
 23 28  2  0
 24 23  1  0
 24 25  2  0
 25 26  1  0
 26 27  2  0
 28 27  1  0
 29 30  1  0
 29 21  1  0
 31 29  2  0
M  END
$$$$
