IRF.pdb
     RDKit          3D

 31 31  0  0  1  0  0  0  0  0999 V2000
    9.2338  -12.4550   18.9391 C   0  0  0  0  0  0  0  0  0  0  0  0
    8.0261  -13.2922   18.6052 C   0  0  0  0  0  0  0  0  0  0  0  0
    7.4413  -13.9524   19.8290 C   0  0  2  0  0  0  0  0  0  0  0  0
    6.7783  -12.9129   20.6615 C   0  0  0  0  0  0  0  0  0  0  0  0
    8.4915  -14.6940   20.6217 C   0  0  2  0  0  0  0  0  0  0  0  0
    8.9433  -15.8622   19.8111 N   0  0  0  0  0  0  0  0  0  0  0  0
    7.9685  -15.2987   21.8648 C   0  0  0  0  0  0  0  0  0  0  0  0
    7.3804  -14.6144   22.7676 O   0  0  0  0  0  0  0  0  0  0  0  0
    4.7068  -23.0416   23.9077 N   0  0  0  0  0  0  0  0  0  0  0  0
    5.9065  -22.5331   23.3385 C   0  0  0  0  0  0  0  0  0  0  0  0
    6.8353  -23.3352   22.9444 N   0  0  0  0  0  0  0  0  0  0  0  0
    6.1455  -21.1392   23.1727 N   0  0  0  0  0  0  0  0  0  0  0  0
    6.1676  -20.2230   24.2853 C   0  0  0  0  0  0  0  0  0  0  0  0
    7.5081  -19.5437   24.4354 C   0  0  0  0  0  0  0  0  0  0  0  0
    7.8938  -18.7948   23.1756 C   0  0  0  0  0  0  0  0  0  0  0  0
    7.7263  -17.3014   23.3585 C   0  0  2  0  0  0  0  0  0  0  0  0
    8.0990  -16.6746   22.1001 N   0  0  0  0  0  0  0  0  0  0  0  0
    8.5270  -16.7546   24.4390 C   0  0  0  0  0  0  0  0  0  0  0  0
    9.7328  -16.4359   24.2003 O   0  0  0  0  0  0  0  0  0  0  0  0
    7.6892  -22.9577   22.4757 N   0  0  0  0  0  0  0  0  0  0  0  0
    8.0470  -16.5486   25.7676 C   0  0  2  0  0  0  0  0  0  0  0  0
    8.9426  -15.9971   26.7741 C   0  0  0  0  0  0  0  0  0  0  0  0
    8.1959  -15.1173   27.7364 C   0  0  0  0  0  0  0  0  0  0  0  0
    7.5600  -13.9916   27.0629 C   0  0  0  0  0  0  0  0  0  0  0  0
    8.2258  -12.7928   26.8025 C   0  0  0  0  0  0  0  0  0  0  0  0
    7.6224  -11.7459   26.1695 C   0  0  0  0  0  0  0  0  0  0  0  0
    6.3125  -11.8245   25.7531 C   0  0  0  0  0  0  0  0  0  0  0  0
    5.6292  -12.9824   25.9912 C   0  0  0  0  0  0  0  0  0  0  0  0
    6.2339  -14.0459   26.6314 C   0  0  0  0  0  0  0  0  0  0  0  0
    9.6896  -17.0642   27.4558 O   0  0  0  0  0  0  0  0  0  0  0  0
   10.7493  -16.8971   28.3197 O   0  0  0  0  0  0  0  0  0  0  0  0
  2  1  1  0
  3  2  1  0
  3  4  1  1
  5  3  1  0
  5  6  1  6
  7  5  1  0
  8  7  2  0
  9 10  1  0
 10 12  1  0
 11 10  2  0
 12 13  1  0
 13 14  1  0
 14 15  1  0
 16 15  1  6
 16 18  1  0
 16 17  1  0
 17  7  1  0
 18 19  2  0
 20 21  1  0
 20 18  1  0
 21 22  1  6
 22 23  1  0
 23 28  2  0
 24 23  1  0
 24 25  2  0
 25 26  1  0
 26 27  2  0
 28 27  1  0
 29 30  1  0
 29 21  1  0
 31 29  2  0
M  END
$$$$
