IRF.pdb
     RDKit          3D

 31 31  0  0  1  0  0  0  0  0999 V2000
    7.5692  -11.2076   19.1611 C   0  0  0  0  0  0  0  0  0  0  0  0
    7.9427  -12.6312   18.8369 C   0  0  0  0  0  0  0  0  0  0  0  0
    7.8481  -13.5286   20.0456 C   0  0  2  0  0  0  0  0  0  0  0  0
    8.7355  -12.9896   21.1111 C   0  0  0  0  0  0  0  0  0  0  0  0
    8.2064  -14.9575   19.7123 C   0  0  2  0  0  0  0  0  0  0  0  0
    7.1629  -15.4926   18.7899 N   0  0  0  0  0  0  0  0  0  0  0  0
    8.1533  -15.8622   20.8799 C   0  0  0  0  0  0  0  0  0  0  0  0
    7.0541  -16.2763   21.3792 O   0  0  0  0  0  0  0  0  0  0  0  0
   11.7061  -21.4452   19.9624 N   0  0  0  0  0  0  0  0  0  0  0  0
   12.3621  -21.7183   21.1941 C   0  0  0  0  0  0  0  0  0  0  0  0
   13.5023  -22.3192   21.2092 N   0  0  0  0  0  0  0  0  0  0  0  0
   11.8107  -21.3505   22.4543 N   0  0  0  0  0  0  0  0  0  0  0  0
   10.4871  -20.7946   22.5841 C   0  0  0  0  0  0  0  0  0  0  0  0
   10.5066  -19.4224   23.2148 C   0  0  0  0  0  0  0  0  0  0  0  0
   10.4068  -18.3304   22.1687 C   0  0  0  0  0  0  0  0  0  0  0  0
    9.3474  -17.3155   22.5420 C   0  0  2  0  0  0  0  0  0  0  0  0
    9.3328  -16.3101   21.4911 N   0  0  0  0  0  0  0  0  0  0  0  0
    9.5764  -16.6825   23.8282 C   0  0  0  0  0  0  0  0  0  0  0  0
   10.5783  -15.9128   23.9567 O   0  0  0  0  0  0  0  0  0  0  0  0
   13.9915  -22.4913   22.1160 N   0  0  0  0  0  0  0  0  0  0  0  0
    8.7436  -16.8680   24.9728 C   0  0  1  0  0  0  0  0  0  0  0  0
    9.1910  -16.3805   26.2694 C   0  0  0  0  0  0  0  0  0  0  0  0
    8.0365  -15.8581   27.0768 C   0  0  0  0  0  0  0  0  0  0  0  0
    7.6566  -14.5098   26.6732 C   0  0  0  0  0  0  0  0  0  0  0  0
    6.4561  -14.2267   26.0198 C   0  0  0  0  0  0  0  0  0  0  0  0
    6.1088  -12.9610   25.6482 C   0  0  0  0  0  0  0  0  0  0  0  0
    6.9367  -11.8910   25.9037 C   0  0  0  0  0  0  0  0  0  0  0  0
    8.1202  -12.1301   26.5413 C   0  0  0  0  0  0  0  0  0  0  0  0
    8.4780  -13.4088   26.9202 C   0  0  0  0  0  0  0  0  0  0  0  0
    9.9529  -17.4135   26.9862 O   0  0  0  0  0  0  0  0  0  0  0  0
   10.7872  -17.2141   28.0640 O   0  0  0  0  0  0  0  0  0  0  0  0
  2  1  1  0
  3  2  1  0
  3  4  1  1
  5  3  1  0
  5  6  1  6
  7  5  1  0
  8  7  2  0
  9 10  1  0
 10 12  1  0
 11 10  2  0
 12 13  1  0
 13 14  1  0
 14 15  1  0
 16 15  1  6
 16 18  1  0
 16 17  1  0
 17  7  1  0
 18 19  2  0
 20 21  1  0
 20 18  1  0
 21 22  1  1
 22 23  1  0
 23 28  2  0
 24 23  1  0
 24 25  2  0
 25 26  1  0
 26 27  2  0
 28 27  1  0
 29 30  1  0
 29 21  1  0
 31 29  2  0
M  END
$$$$
