IRF.pdb
     RDKit          3D

 31 31  0  0  1  0  0  0  0  0999 V2000
    5.7513  -11.6968   26.5972 C   0  0  0  0  0  0  0  0  0  0  0  0
    5.4497  -13.0437   25.9923 C   0  0  0  0  0  0  0  0  0  0  0  0
    6.7037  -13.7609   25.5583 C   0  0  2  0  0  0  0  0  0  0  0  0
    7.4961  -12.8522   24.6868 C   0  0  0  0  0  0  0  0  0  0  0  0
    6.3911  -15.0572   24.8488 C   0  0  2  0  0  0  0  0  0  0  0  0
    5.5941  -15.9115   25.7768 N   0  0  0  0  0  0  0  0  0  0  0  0
    7.5914  -15.8678   24.5541 C   0  0  0  0  0  0  0  0  0  0  0  0
    8.1190  -16.6518   25.4120 O   0  0  0  0  0  0  0  0  0  0  0  0
    8.0089  -19.8478   18.4074 N   0  0  0  0  0  0  0  0  0  0  0  0
    6.7729  -19.3731   18.9261 C   0  0  0  0  0  0  0  0  0  0  0  0
    5.7113  -19.3779   18.1951 N   0  0  0  0  0  0  0  0  0  0  0  0
    6.6388  -18.8774   20.2542 N   0  0  0  0  0  0  0  0  0  0  0  0
    7.7671  -18.4125   21.0213 C   0  0  0  0  0  0  0  0  0  0  0  0
    8.1523  -16.9965   20.6641 C   0  0  0  0  0  0  0  0  0  0  0  0
    9.4146  -16.5673   21.3844 C   0  0  0  0  0  0  0  0  0  0  0  0
    9.2619  -16.7153   22.8833 C   0  0  2  0  0  0  0  0  0  0  0  0
    8.2038  -15.8060   23.2945 N   0  0  0  0  0  0  0  0  0  0  0  0
   10.4771  -16.4258   23.6228 C   0  0  0  0  0  0  0  0  0  0  0  0
   11.3452  -15.6663   23.0916 O   0  0  0  0  0  0  0  0  0  0  0  0
    4.8219  -18.9696   18.5608 N   0  0  0  0  0  0  0  0  0  0  0  0
   10.7678  -16.9427   24.9214 C   0  0  1  0  0  0  0  0  0  0  0  0
   12.1224  -16.8415   25.4448 C   0  0  0  0  0  0  0  0  0  0  0  0
   12.4028  -15.4549   25.9508 C   0  0  0  0  0  0  0  0  0  0  0  0
   11.6053  -15.1339   27.1282 C   0  0  0  0  0  0  0  0  0  0  0  0
   10.4807  -14.3088   27.0771 C   0  0  0  0  0  0  0  0  0  0  0  0
    9.7396  -14.0164   28.1844 C   0  0  0  0  0  0  0  0  0  0  0  0
   10.0710  -14.5280   29.4188 C   0  0  0  0  0  0  0  0  0  0  0  0
   11.1657  -15.3393   29.5072 C   0  0  0  0  0  0  0  0  0  0  0  0
   11.9202  -15.6394   28.3904 C   0  0  0  0  0  0  0  0  0  0  0  0
   12.3710  -17.8703   26.4651 O   0  0  0  0  0  0  0  0  0  0  0  0
   13.5752  -18.1415   27.0765 O   0  0  0  0  0  0  0  0  0  0  0  0
  2  1  1  0
  3  2  1  0
  3  4  1  6
  5  3  1  0
  5  6  1  1
  7  5  1  0
  8  7  2  0
  9 10  1  0
 10 12  1  0
 11 10  2  0
 12 13  1  0
 13 14  1  0
 14 15  1  0
 16 15  1  6
 16 18  1  0
 16 17  1  0
 17  7  1  0
 18 19  2  0
 20 21  1  0
 20 18  1  0
 21 22  1  6
 22 23  1  0
 23 28  2  0
 24 23  1  0
 24 25  2  0
 25 26  1  0
 26 27  2  0
 28 27  1  0
 29 30  1  0
 29 21  1  0
 31 29  2  0
M  END
$$$$
