IRF.pdb
     RDKit          3D

 31 31  0  0  1  0  0  0  0  0999 V2000
    6.9820  -12.8995   17.5883 C   0  0  0  0  0  0  0  0  0  0  0  0
    8.2067  -13.0861   18.4464 C   0  0  0  0  0  0  0  0  0  0  0  0
    7.8984  -13.8467   19.7120 C   0  0  2  0  0  0  0  0  0  0  0  0
    6.8754  -13.0924   20.4851 C   0  0  0  0  0  0  0  0  0  0  0  0
    9.1391  -14.0832   20.5402 C   0  0  2  0  0  0  0  0  0  0  0  0
   10.1206  -14.8292   19.6998 N   0  0  0  0  0  0  0  0  0  0  0  0
    8.9091  -14.9711   21.6993 C   0  0  0  0  0  0  0  0  0  0  0  0
    7.9687  -14.7747   22.5396 O   0  0  0  0  0  0  0  0  0  0  0  0
   11.6878  -21.5784   21.0537 N   0  0  0  0  0  0  0  0  0  0  0  0
   11.0328  -22.2374   22.1301 C   0  0  0  0  0  0  0  0  0  0  0  0
   10.4917  -23.3944   21.9572 N   0  0  0  0  0  0  0  0  0  0  0  0
   10.9402  -21.6709   23.4332 N   0  0  0  0  0  0  0  0  0  0  0  0
   11.2043  -20.2770   23.6884 C   0  0  0  0  0  0  0  0  0  0  0  0
    9.9556  -19.4338   23.5834 C   0  0  0  0  0  0  0  0  0  0  0  0
   10.0956  -18.3673   22.5159 C   0  0  0  0  0  0  0  0  0  0  0  0
    9.4752  -17.0621   22.9671 C   0  0  2  0  0  0  0  0  0  0  0  0
    9.7302  -16.0859   21.9196 N   0  0  0  0  0  0  0  0  0  0  0  0
    9.9969  -16.5772   24.2320 C   0  0  0  0  0  0  0  0  0  0  0  0
   11.0996  -17.0451   24.6538 O   0  0  0  0  0  0  0  0  0  0  0  0
   10.0533  -23.8933   22.7636 N   0  0  0  0  0  0  0  0  0  0  0  0
    9.3480  -15.5995   25.0449 C   0  0  2  0  0  0  0  0  0  0  0  0
    9.3574  -15.7525   26.4926 C   0  0  0  0  0  0  0  0  0  0  0  0
    8.0185  -15.4066   27.0801 C   0  0  0  0  0  0  0  0  0  0  0  0
    7.5926  -14.0626   26.7091 C   0  0  0  0  0  0  0  0  0  0  0  0
    8.4434  -12.9576   26.7663 C   0  0  0  0  0  0  0  0  0  0  0  0
    8.0358  -11.7042   26.4147 C   0  0  0  0  0  0  0  0  0  0  0  0
    6.7503  -11.4684   25.9818 C   0  0  0  0  0  0  0  0  0  0  0  0
    5.8894  -12.5260   25.9134 C   0  0  0  0  0  0  0  0  0  0  0  0
    6.2954  -13.7973   26.2678 C   0  0  0  0  0  0  0  0  0  0  0  0
    9.8061  -17.0987   26.8770 O   0  0  0  0  0  0  0  0  0  0  0  0
   10.1089  -18.1351   26.0216 O   0  0  0  0  0  0  0  0  0  0  0  0
  2  1  1  0
  3  2  1  0
  3  4  1  1
  5  3  1  0
  5  6  1  6
  7  5  1  0
  8  7  2  0
  9 10  1  0
 10 12  1  0
 11 10  2  0
 12 13  1  0
 13 14  1  0
 14 15  1  0
 16 15  1  6
 16 18  1  0
 16 17  1  0
 17  7  1  0
 18 19  2  0
 20 21  1  0
 20 18  1  0
 21 22  1  6
 22 23  1  0
 23 28  2  0
 24 23  1  0
 24 25  2  0
 25 26  1  0
 26 27  2  0
 28 27  1  0
 29 30  1  0
 29 21  1  0
 31 29  2  0
M  END
$$$$
