HAI.pdb
     RDKit          3D

 24 24  0  0  1  0  0  0  0  0999 V2000
   13.6844  -20.0943    0.9080 N   0  0  0  0  0  0  0  0  0  0  0  0
   14.5874  -20.3364    1.9938 C   0  0  1  0  0  0  0  0  0  0  0  0
   15.8996  -20.9368    1.5803 C   0  0  0  0  0  0  0  0  0  0  0  0
   15.7263  -22.1861    0.8081 C   0  0  0  0  0  0  0  0  0  0  0  0
   15.6516  -23.4761    1.2865 C   0  0  0  0  0  0  0  0  0  0  0  0
   15.4945  -24.2564    0.2034 N   0  0  0  0  0  0  0  0  0  0  0  0
   15.4698  -23.5077   -0.9103 C   0  0  0  0  0  0  0  0  0  0  0  0
   15.6125  -22.2409   -0.5296 N   0  0  0  0  0  0  0  0  0  0  0  0
   14.7789  -19.1269    2.8472 C   0  0  0  0  0  0  0  0  0  0  0  0
   15.0708  -18.0059    2.3594 O   0  0  0  0  0  0  0  0  0  0  0  0
   14.1922  -18.3131    6.4564 C   0  0  0  0  0  0  0  0  0  0  0  0
   14.7916  -17.9905    5.0987 C   0  0  2  0  0  0  0  0  0  0  0  0
   14.6403  -19.1763    4.2754 N   0  0  0  0  0  0  0  0  0  0  0  0
   16.1990  -17.5913    5.2415 C   0  0  0  0  0  0  0  0  0  0  0  0
   17.1007  -18.4542    5.1344 O   0  0  0  0  0  0  0  0  0  0  0  0
   17.8398  -12.5753    3.5153 C   0  0  0  0  0  0  0  0  0  0  0  0
   17.4887  -13.5452    4.6167 C   0  0  0  0  0  0  0  0  0  0  0  0
   18.2775  -14.8098    4.5441 C   0  0  2  0  0  0  0  0  0  0  0  0
   18.1179  -15.4106    3.1650 C   0  0  0  0  0  0  0  0  0  0  0  0
   17.9326  -15.8044    5.6282 C   0  0  2  0  0  0  0  0  0  0  0  0
   16.5404  -16.2417    5.4986 N   0  0  0  0  0  0  0  0  0  0  0  0
   18.1546  -15.2199    6.9524 C   0  0  0  0  0  0  0  0  0  0  0  0
   19.2720  -14.8936    7.4038 O   0  0  0  0  0  0  0  0  0  0  0  0
   17.0627  -15.0018    7.7872 O   0  0  0  0  0  0  0  0  0  0  0  0
  2  1  1  6
  3  2  1  0
  4  3  1  0
  4  5  2  0
  6  5  1  0
  7  8  2  0
  7  6  1  0
  8  4  1  0
  9  2  1  0
 10  9  2  0
 12 11  1  1
 12 13  1  0
 12 14  1  0
 13  9  1  0
 14 21  1  0
 15 14  2  0
 17 16  1  0
 18 17  1  0
 18 19  1  6
 20 18  1  0
 20 22  1  0
 20 21  1  1
 22 23  2  0
 22 24  1  0
M  END
$$$$
