HAI.pdb
     RDKit          3D

 24 24  0  0  1  0  0  0  0  0999 V2000
   16.2872  -10.0803  -14.6181 N   0  0  0  0  0  0  0  0  0  0  0  0
   15.7892  -10.4856  -13.3371 C   0  0  1  0  0  0  0  0  0  0  0  0
   16.0532  -11.9248  -13.0018 C   0  0  0  0  0  0  0  0  0  0  0  0
   15.5333  -12.8460  -14.0353 C   0  0  0  0  0  0  0  0  0  0  0  0
   14.4084  -13.6395  -13.9766 C   0  0  0  0  0  0  0  0  0  0  0  0
   14.3608  -14.2893  -15.1523 N   0  0  0  0  0  0  0  0  0  0  0  0
   15.3991  -13.9320  -15.9242 C   0  0  0  0  0  0  0  0  0  0  0  0
   16.1116  -13.0475  -15.2313 N   0  0  0  0  0  0  0  0  0  0  0  0
   16.2382   -9.5734  -12.2442 C   0  0  0  0  0  0  0  0  0  0  0  0
   15.9561   -9.7880  -11.0384 O   0  0  0  0  0  0  0  0  0  0  0  0
   18.4483   -6.5492  -12.0186 C   0  0  0  0  0  0  0  0  0  0  0  0
   17.3724   -7.4626  -11.4576 C   0  0  2  0  0  0  0  0  0  0  0  0
   17.0186   -8.3979  -12.5097 N   0  0  0  0  0  0  0  0  0  0  0  0
   16.2166   -6.6754  -11.0048 C   0  0  0  0  0  0  0  0  0  0  0  0
   15.3390   -6.3337  -11.8307 O   0  0  0  0  0  0  0  0  0  0  0  0
   11.7870   -6.1544   -7.4970 C   0  0  0  0  0  0  0  0  0  0  0  0
   13.1144   -5.4376   -7.4602 C   0  0  0  0  0  0  0  0  0  0  0  0
   14.2167   -6.2338   -8.0748 C   0  0  2  0  0  0  0  0  0  0  0  0
   15.1480   -6.7098   -6.9821 C   0  0  0  0  0  0  0  0  0  0  0  0
   14.9644   -5.4980   -9.1626 C   0  0  2  0  0  0  0  0  0  0  0  0
   16.0898   -6.3023   -9.6450 N   0  0  0  0  0  0  0  0  0  0  0  0
   15.4446   -4.2044   -8.6725 C   0  0  0  0  0  0  0  0  0  0  0  0
   16.5987   -3.9933   -8.2456 O   0  0  0  0  0  0  0  0  0  0  0  0
   14.5761   -3.1170   -8.6707 O   0  0  0  0  0  0  0  0  0  0  0  0
  2  1  1  6
  3  2  1  0
  4  3  1  0
  4  5  2  0
  6  5  1  0
  7  8  2  0
  7  6  1  0
  8  4  1  0
  9  2  1  0
 10  9  2  0
 12 11  1  6
 12 13  1  0
 12 14  1  0
 13  9  1  0
 14 21  1  0
 15 14  2  0
 17 16  1  0
 18 17  1  0
 18 19  1  1
 20 18  1  0
 20 22  1  0
 20 21  1  1
 22 23  2  0
 22 24  1  0
M  END
$$$$
