HAI.pdb
     RDKit          3D

 24 24  0  0  1  0  0  0  0  0999 V2000
   24.1258  -32.4147  -15.1472 N   0  0  0  0  0  0  0  0  0  0  0  0
   24.5425  -33.1735  -14.0054 C   0  0  1  0  0  0  0  0  0  0  0  0
   25.9733  -32.9523  -13.6087 C   0  0  0  0  0  0  0  0  0  0  0  0
   26.9162  -33.2974  -14.6945 C   0  0  0  0  0  0  0  0  0  0  0  0
   28.1212  -32.7002  -14.9939 C   0  0  0  0  0  0  0  0  0  0  0  0
   28.6009  -33.3648  -16.0592 N   0  0  0  0  0  0  0  0  0  0  0  0
   27.7497  -34.3363  -16.4240 C   0  0  0  0  0  0  0  0  0  0  0  0
   26.7207  -34.2871  -15.5821 N   0  0  0  0  0  0  0  0  0  0  0  0
   23.6164  -33.0026  -12.8474 C   0  0  0  0  0  0  0  0  0  0  0  0
   23.2154  -31.8710  -12.4754 O   0  0  0  0  0  0  0  0  0  0  0  0
   21.0141  -34.5888  -11.0902 C   0  0  0  0  0  0  0  0  0  0  0  0
   22.3725  -33.9474  -10.8672 C   0  0  2  0  0  0  0  0  0  0  0  0
   23.1311  -34.1231  -12.0921 N   0  0  0  0  0  0  0  0  0  0  0  0
   23.0426  -34.5555   -9.7088 C   0  0  0  0  0  0  0  0  0  0  0  0
   23.5398  -35.7006   -9.8126 O   0  0  0  0  0  0  0  0  0  0  0  0
   26.9501  -33.8217   -5.6166 C   0  0  0  0  0  0  0  0  0  0  0  0
   25.4473  -33.7975   -5.4817 C   0  0  0  0  0  0  0  0  0  0  0  0
   24.7634  -33.3559   -6.7323 C   0  0  2  0  0  0  0  0  0  0  0  0
   24.0282  -32.0622   -6.4603 C   0  0  0  0  0  0  0  0  0  0  0  0
   23.8491  -34.4018   -7.3269 C   0  0  2  0  0  0  0  0  0  0  0  0
   23.1290  -33.8570   -8.4805 N   0  0  0  0  0  0  0  0  0  0  0  0
   22.8983  -34.8848   -6.3232 C   0  0  0  0  0  0  0  0  0  0  0  0
   21.7247  -34.4757   -6.2053 O   0  0  0  0  0  0  0  0  0  0  0  0
   23.3037  -35.8676   -5.4253 O   0  0  0  0  0  0  0  0  0  0  0  0
  2  1  1  6
  3  2  1  0
  4  3  1  0
  4  5  2  0
  6  5  1  0
  7  8  2  0
  7  6  1  0
  8  4  1  0
  9  2  1  0
 10  9  2  0
 12 11  1  6
 12 13  1  0
 12 14  1  0
 13  9  1  0
 14 21  1  0
 15 14  2  0
 17 16  1  0
 18 17  1  0
 18 19  1  1
 20 18  1  0
 20 22  1  0
 20 21  1  6
 22 23  2  0
 22 24  1  0
M  END
$$$$
