HAI.pdb
     RDKit          3D

 24 24  0  0  1  0  0  0  0  0999 V2000
   27.2571  -16.6384  -17.9673 N   0  0  0  0  0  0  0  0  0  0  0  0
   27.1372  -17.9620  -17.4319 C   0  0  1  0  0  0  0  0  0  0  0  0
   28.4398  -18.5722  -17.0027 C   0  0  0  0  0  0  0  0  0  0  0  0
   29.4248  -18.6243  -18.1046 C   0  0  0  0  0  0  0  0  0  0  0  0
   29.4417  -19.4749  -19.1884 C   0  0  0  0  0  0  0  0  0  0  0  0
   30.5281  -19.1323  -19.9018 N   0  0  0  0  0  0  0  0  0  0  0  0
   31.1739  -18.1165  -19.3081 C   0  0  0  0  0  0  0  0  0  0  0  0
   30.4904  -17.8123  -18.2079 N   0  0  0  0  0  0  0  0  0  0  0  0
   26.1089  -18.0419  -16.3530 C   0  0  0  0  0  0  0  0  0  0  0  0
   26.3147  -17.5852  -15.2002 O   0  0  0  0  0  0  0  0  0  0  0  0
   22.4751  -18.4223  -16.2100 C   0  0  0  0  0  0  0  0  0  0  0  0
   23.8104  -18.6807  -15.5343 C   0  0  2  0  0  0  0  0  0  0  0  0
   24.8249  -18.6461  -16.5718 N   0  0  0  0  0  0  0  0  0  0  0  0
   23.7861  -19.9687  -14.8264 C   0  0  0  0  0  0  0  0  0  0  0  0
   23.9089  -21.0334  -15.4749 O   0  0  0  0  0  0  0  0  0  0  0  0
   25.5982  -20.4803   -9.4900 C   0  0  0  0  0  0  0  0  0  0  0  0
   24.5995  -20.2841  -10.6041 C   0  0  0  0  0  0  0  0  0  0  0  0
   24.7083  -21.3270  -11.6659 C   0  0  2  0  0  0  0  0  0  0  0  0
   26.0661  -21.2194  -12.3237 C   0  0  0  0  0  0  0  0  0  0  0  0
   23.5914  -21.2780  -12.6827 C   0  0  2  0  0  0  0  0  0  0  0  0
   23.6251  -20.0129  -13.4206 N   0  0  0  0  0  0  0  0  0  0  0  0
   22.2919  -21.4436  -12.0281 C   0  0  0  0  0  0  0  0  0  0  0  0
   21.4610  -20.5268  -11.8622 O   0  0  0  0  0  0  0  0  0  0  0  0
   21.9317  -22.6991  -11.5477 O   0  0  0  0  0  0  0  0  0  0  0  0
  2  1  1  1
  3  2  1  0
  4  3  1  0
  4  5  2  0
  6  5  1  0
  7  8  2  0
  7  6  1  0
  8  4  1  0
  9  2  1  0
 10  9  2  0
 12 11  1  6
 12 13  1  0
 12 14  1  0
 13  9  1  0
 14 21  1  0
 15 14  2  0
 17 16  1  0
 18 17  1  0
 18 19  1  6
 20 18  1  0
 20 22  1  0
 20 21  1  1
 22 23  2  0
 22 24  1  0
M  END
$$$$
