HAI.pdb
     RDKit          3D

 24 24  0  0  1  0  0  0  0  0999 V2000
   17.7622  -12.8983  -19.9031 N   0  0  0  0  0  0  0  0  0  0  0  0
   17.2804  -12.0971  -18.8173 C   0  0  1  0  0  0  0  0  0  0  0  0
   16.9718  -12.8731  -17.5699 C   0  0  0  0  0  0  0  0  0  0  0  0
   15.9589  -13.9258  -17.8004 C   0  0  0  0  0  0  0  0  0  0  0  0
   16.1268  -15.2922  -17.7436 C   0  0  0  0  0  0  0  0  0  0  0  0
   14.9226  -15.8179  -18.0266 N   0  0  0  0  0  0  0  0  0  0  0  0
   14.0297  -14.8416  -18.2528 C   0  0  0  0  0  0  0  0  0  0  0  0
   14.6740  -13.6862  -18.1119 N   0  0  0  0  0  0  0  0  0  0  0  0
   18.1728  -10.9340  -18.5366 C   0  0  0  0  0  0  0  0  0  0  0  0
   19.4060  -11.0724  -18.3376 O   0  0  0  0  0  0  0  0  0  0  0  0
   17.7103   -7.2035  -18.3984 C   0  0  0  0  0  0  0  0  0  0  0  0
   18.5451   -8.4597  -18.2204 C   0  0  2  0  0  0  0  0  0  0  0  0
   17.6715   -9.5899  -18.4779 N   0  0  0  0  0  0  0  0  0  0  0  0
   19.1238   -8.5035  -16.8699 C   0  0  0  0  0  0  0  0  0  0  0  0
   18.4326   -8.9254  -15.9142 O   0  0  0  0  0  0  0  0  0  0  0  0
   23.2430  -10.5874  -13.6304 C   0  0  0  0  0  0  0  0  0  0  0  0
   23.0142   -9.1611  -14.0668 C   0  0  0  0  0  0  0  0  0  0  0  0
   22.2869   -9.0656  -15.3663 C   0  0  2  0  0  0  0  0  0  0  0  0
   23.2613   -8.6495  -16.4459 C   0  0  0  0  0  0  0  0  0  0  0  0
   21.0816   -8.1552  -15.3229 C   0  0  2  0  0  0  0  0  0  0  0  0
   20.4533   -8.0732  -16.6437 N   0  0  0  0  0  0  0  0  0  0  0  0
   21.4630   -6.8179  -14.8637 C   0  0  0  0  0  0  0  0  0  0  0  0
   21.6468   -5.8375  -15.6144 O   0  0  0  0  0  0  0  0  0  0  0  0
   21.6399   -6.5955  -13.5014 O   0  0  0  0  0  0  0  0  0  0  0  0
  2  1  1  6
  3  2  1  0
  4  3  1  0
  4  5  2  0
  6  5  1  0
  7  8  2  0
  7  6  1  0
  8  4  1  0
  9  2  1  0
 10  9  2  0
 12 11  1  1
 12 13  1  0
 12 14  1  0
 13  9  1  0
 14 21  1  0
 15 14  2  0
 17 16  1  0
 18 17  1  0
 18 19  1  6
 20 18  1  0
 20 22  1  0
 20 21  1  6
 22 23  2  0
 22 24  1  0
M  END
$$$$
