HAI.pdb
     RDKit          3D

 24 24  0  0  1  0  0  0  0  0999 V2000
   25.6181  -18.8461  -15.8272 N   0  0  0  0  0  0  0  0  0  0  0  0
   26.3698  -19.5002  -14.7976 C   0  0  1  0  0  0  0  0  0  0  0  0
   27.8517  -19.2759  -14.8810 C   0  0  0  0  0  0  0  0  0  0  0  0
   28.4139  -19.7177  -16.1756 C   0  0  0  0  0  0  0  0  0  0  0  0
   28.8147  -20.9850  -16.5387 C   0  0  0  0  0  0  0  0  0  0  0  0
   29.2506  -20.8788  -17.8057 N   0  0  0  0  0  0  0  0  0  0  0  0
   29.1358  -19.6116  -18.2330 C   0  0  0  0  0  0  0  0  0  0  0  0
   28.6223  -18.9079  -17.2274 N   0  0  0  0  0  0  0  0  0  0  0  0
   25.8418  -19.1957  -13.4351 C   0  0  0  0  0  0  0  0  0  0  0  0
   26.0424  -18.0890  -12.8741 O   0  0  0  0  0  0  0  0  0  0  0  0
   23.0239  -20.1402  -11.4636 C   0  0  0  0  0  0  0  0  0  0  0  0
   24.5087  -19.8299  -11.3902 C   0  0  2  0  0  0  0  0  0  0  0  0
   25.0742  -20.1516  -12.6877 N   0  0  0  0  0  0  0  0  0  0  0  0
   25.1396  -20.5959  -10.3058 C   0  0  0  0  0  0  0  0  0  0  0  0
   25.4916  -21.7808  -10.5092 O   0  0  0  0  0  0  0  0  0  0  0  0
   28.3258  -18.2173   -6.3808 C   0  0  0  0  0  0  0  0  0  0  0  0
   27.7939  -19.2560   -7.3375 C   0  0  0  0  0  0  0  0  0  0  0  0
   26.5010  -19.8480   -6.8849 C   0  0  2  0  0  0  0  0  0  0  0  0
   26.7155  -20.5420   -5.5581 C   0  0  0  0  0  0  0  0  0  0  0  0
   25.8666  -20.7706   -7.8999 C   0  0  2  0  0  0  0  0  0  0  0  0
   25.3510  -20.0045   -9.0371 N   0  0  0  0  0  0  0  0  0  0  0  0
   24.7872  -21.5467   -7.2858 C   0  0  0  0  0  0  0  0  0  0  0  0
   24.9476  -22.6273   -6.6816 O   0  0  0  0  0  0  0  0  0  0  0  0
   23.4819  -21.0709   -7.3660 O   0  0  0  0  0  0  0  0  0  0  0  0
  2  1  1  6
  3  2  1  0
  4  3  1  0
  4  5  2  0
  6  5  1  0
  7  8  2  0
  7  6  1  0
  8  4  1  0
  9  2  1  0
 10  9  2  0
 12 11  1  6
 12 13  1  0
 12 14  1  0
 13  9  1  0
 14 21  1  0
 15 14  2  0
 17 16  1  0
 18 17  1  0
 18 19  1  1
 20 18  1  0
 20 22  1  0
 20 21  1  6
 22 23  2  0
 22 24  1  0
M  END
$$$$
