HAI.pdb
     RDKit          3D

 24 24  0  0  1  0  0  0  0  0999 V2000
   17.8761   -9.9088  -16.9093 N   0  0  0  0  0  0  0  0  0  0  0  0
   18.2702   -8.8106  -17.7410 C   0  0  1  0  0  0  0  0  0  0  0  0
   17.7635   -8.8944  -19.1515 C   0  0  0  0  0  0  0  0  0  0  0  0
   18.1044  -10.1819  -19.7944 C   0  0  0  0  0  0  0  0  0  0  0  0
   19.2987  -10.8668  -19.7417 C   0  0  0  0  0  0  0  0  0  0  0  0
   19.1149  -11.9743  -20.4809 N   0  0  0  0  0  0  0  0  0  0  0  0
   17.8696  -11.9990  -20.9811 C   0  0  0  0  0  0  0  0  0  0  0  0
   17.2583  -10.8968  -20.5550 N   0  0  0  0  0  0  0  0  0  0  0  0
   17.9537   -7.4912  -17.1188 C   0  0  0  0  0  0  0  0  0  0  0  0
   18.2253   -6.4036  -17.6870 O   0  0  0  0  0  0  0  0  0  0  0  0
   15.9223   -6.3055  -14.2308 C   0  0  0  0  0  0  0  0  0  0  0  0
   17.0708   -6.1068  -15.2044 C   0  0  2  0  0  0  0  0  0  0  0  0
   17.3202   -7.3905  -15.8343 N   0  0  0  0  0  0  0  0  0  0  0  0
   18.2561   -5.5955  -14.5014 C   0  0  0  0  0  0  0  0  0  0  0  0
   18.1480   -4.5983  -13.7509 O   0  0  0  0  0  0  0  0  0  0  0  0
   21.9780   -9.1528  -12.6803 C   0  0  0  0  0  0  0  0  0  0  0  0
   21.0643   -7.9630  -12.8431 C   0  0  0  0  0  0  0  0  0  0  0  0
   21.6573   -6.8936  -13.6983 C   0  0  2  0  0  0  0  0  0  0  0  0
   22.9469   -6.4176  -13.0670 C   0  0  0  0  0  0  0  0  0  0  0  0
   20.7156   -5.7447  -13.9754 C   0  0  2  0  0  0  0  0  0  0  0  0
   19.5152   -6.2213  -14.6668 N   0  0  0  0  0  0  0  0  0  0  0  0
   21.3815   -4.7151  -14.7761 C   0  0  0  0  0  0  0  0  0  0  0  0
   21.2803   -4.6070  -16.0157 O   0  0  0  0  0  0  0  0  0  0  0  0
   22.1893   -3.7790  -14.1375 O   0  0  0  0  0  0  0  0  0  0  0  0
  2  1  1  1
  3  2  1  0
  4  3  1  0
  4  5  2  0
  6  5  1  0
  7  8  2  0
  7  6  1  0
  8  4  1  0
  9  2  1  0
 10  9  2  0
 12 11  1  1
 12 13  1  0
 12 14  1  0
 13  9  1  0
 14 21  1  0
 15 14  2  0
 17 16  1  0
 18 17  1  0
 18 19  1  1
 20 18  1  0
 20 22  1  0
 20 21  1  6
 22 23  2  0
 22 24  1  0
M  END
$$$$
