HAI.pdb
     RDKit          3D

 24 24  0  0  1  0  0  0  0  0999 V2000
   16.4159  -11.1365  -17.2064 N   0  0  0  0  0  0  0  0  0  0  0  0
   16.3795  -10.2471  -16.0836 C   0  0  1  0  0  0  0  0  0  0  0  0
   16.6337  -10.9132  -14.7627 C   0  0  0  0  0  0  0  0  0  0  0  0
   15.6804  -12.0119  -14.4959 C   0  0  0  0  0  0  0  0  0  0  0  0
   14.3755  -11.9171  -14.0637 C   0  0  0  0  0  0  0  0  0  0  0  0
   13.9312  -13.1822  -13.9706 N   0  0  0  0  0  0  0  0  0  0  0  0
   14.8986  -14.0428  -14.3240 C   0  0  0  0  0  0  0  0  0  0  0  0
   15.9663  -13.3164  -14.6441 N   0  0  0  0  0  0  0  0  0  0  0  0
   17.2589   -9.0570  -16.2794 C   0  0  0  0  0  0  0  0  0  0  0  0
   18.5015   -9.1643  -16.4348 O   0  0  0  0  0  0  0  0  0  0  0  0
   16.6887   -5.3832  -16.7868 C   0  0  0  0  0  0  0  0  0  0  0  0
   17.5930   -6.5656  -16.4855 C   0  0  2  0  0  0  0  0  0  0  0  0
   16.7338   -7.7208  -16.3009 N   0  0  0  0  0  0  0  0  0  0  0  0
   18.4159   -6.2922  -15.2986 C   0  0  0  0  0  0  0  0  0  0  0  0
   17.9239   -6.4434  -14.1566 O   0  0  0  0  0  0  0  0  0  0  0  0
   22.9016   -8.7267  -14.6406 C   0  0  0  0  0  0  0  0  0  0  0  0
   21.6338   -7.9280  -14.4622 C   0  0  0  0  0  0  0  0  0  0  0  0
   21.8837   -6.4586  -14.3903 C   0  0  2  0  0  0  0  0  0  0  0  0
   22.8373   -6.1771  -13.2503 C   0  0  0  0  0  0  0  0  0  0  0  0
   20.6233   -5.6324  -14.2791 C   0  0  2  0  0  0  0  0  0  0  0  0
   19.7569   -5.8606  -15.4381 N   0  0  0  0  0  0  0  0  0  0  0  0
   20.9492   -4.2090  -14.1676 C   0  0  0  0  0  0  0  0  0  0  0  0
   21.3452   -3.6533  -13.1221 O   0  0  0  0  0  0  0  0  0  0  0  0
   20.8176   -3.3952  -15.2887 O   0  0  0  0  0  0  0  0  0  0  0  0
  2  1  1  6
  3  2  1  0
  4  3  1  0
  4  5  2  0
  6  5  1  0
  7  8  2  0
  7  6  1  0
  8  4  1  0
  9  2  1  0
 10  9  2  0
 12 11  1  1
 12 13  1  0
 12 14  1  0
 13  9  1  0
 14 21  1  0
 15 14  2  0
 17 16  1  0
 18 17  1  0
 18 19  1  1
 20 18  1  0
 20 22  1  0
 20 21  1  6
 22 23  2  0
 22 24  1  0
M  END
$$$$
