SNA.pdb
     RDKit          3D

 20 19  0  0  1  0  0  0  0  0999 V2000
   16.1875  -14.3773  -15.3834 O   0  0  0  0  0  0  0  0  0  0  0  0
   16.8783  -13.4002  -14.6747 C   0  0  0  0  0  0  0  0  0  0  0  0
   15.9723  -12.2428  -14.4570 C   0  0  2  0  0  0  0  0  0  0  0  0
   15.4698  -11.7153  -15.6952 N   0  0  0  0  0  0  0  0  0  0  0  0
   16.5597  -11.1933  -13.5659 C   0  0  0  0  0  0  0  0  0  0  0  0
   16.9269  -11.5871  -12.4328 O   0  0  0  0  0  0  0  0  0  0  0  0
   18.2969   -5.4479  -13.2616 N   0  0  0  0  0  0  0  0  0  0  0  0
   18.6779   -6.8217  -13.0853 C   0  0  0  0  0  0  0  0  0  0  0  0
   19.5461   -7.0729  -12.2031 O   0  0  0  0  0  0  0  0  0  0  0  0
   18.0509   -7.8646  -13.9324 C   0  0  0  0  0  0  0  0  0  0  0  0
   17.2574   -8.8378  -13.1025 C   0  0  2  0  0  0  0  0  0  0  0  0
   16.6937   -9.8498  -13.9690 N   0  0  0  0  0  0  0  0  0  0  0  0
   16.1898   -8.1690  -12.3037 C   0  0  0  0  0  0  0  0  0  0  0  0
   15.1233   -7.7368  -12.7827 O   0  0  0  0  0  0  0  0  0  0  0  0
   15.8875   -7.5786   -8.6269 C   0  0  0  0  0  0  0  0  0  0  0  0
   15.4994   -7.2155  -10.0574 C   0  0  2  0  0  0  0  0  0  0  0  0
   16.3803   -8.0068  -10.9098 N   0  0  0  0  0  0  0  0  0  0  0  0
   15.6730   -5.7845  -10.2270 C   0  0  0  0  0  0  0  0  0  0  0  0
   16.5905   -5.3037  -10.9090 O   0  0  0  0  0  0  0  0  0  0  0  0
   14.7771   -4.8961   -9.6035 O   0  0  0  0  0  0  0  0  0  0  0  0
  2  1  1  0
  3  2  1  0
  3  4  1  6
  5  3  1  0
  5  6  2  0
  8  7  1  0
  8 10  1  0
  9  8  2  0
 11 10  1  6
 11 12  1  0
 12  5  1  0
 13 11  1  0
 14 13  2  0
 16 15  1  1
 16 17  1  0
 17 13  1  0
 18 16  1  0
 18 20  1  0
 19 18  2  0
M  END
$$$$
