SNA.pdb
     RDKit          3D

 20 19  0  0  1  0  0  0  0  0999 V2000
   18.6420  -11.1308  -18.5892 O   0  0  0  0  0  0  0  0  0  0  0  0
   18.3723   -9.9419  -17.9200 C   0  0  0  0  0  0  0  0  0  0  0  0
   18.5901  -10.1563  -16.4659 C   0  0  2  0  0  0  0  0  0  0  0  0
   17.5513  -10.9578  -15.8809 N   0  0  0  0  0  0  0  0  0  0  0  0
   18.8477   -8.8876  -15.7145 C   0  0  0  0  0  0  0  0  0  0  0  0
   17.8950   -8.4692  -15.0136 O   0  0  0  0  0  0  0  0  0  0  0  0
   20.8881   -4.6110  -13.8109 N   0  0  0  0  0  0  0  0  0  0  0  0
   21.8074   -5.7008  -13.6349 C   0  0  0  0  0  0  0  0  0  0  0  0
   22.8086   -5.4991  -12.8918 O   0  0  0  0  0  0  0  0  0  0  0  0
   21.5487   -6.9887  -14.3226 C   0  0  0  0  0  0  0  0  0  0  0  0
   20.2883   -6.9261  -15.1428 C   0  0  2  0  0  0  0  0  0  0  0  0
   20.0779   -8.2044  -15.7864 N   0  0  0  0  0  0  0  0  0  0  0  0
   20.3155   -5.8243  -16.1481 C   0  0  0  0  0  0  0  0  0  0  0  0
   21.1092   -5.7709  -17.1076 O   0  0  0  0  0  0  0  0  0  0  0  0
   18.0284   -2.9008  -16.5941 C   0  0  0  0  0  0  0  0  0  0  0  0
   19.3285   -3.6240  -16.9334 C   0  0  2  0  0  0  0  0  0  0  0  0
   19.3867   -4.7626  -16.0228 N   0  0  0  0  0  0  0  0  0  0  0  0
   20.4274   -2.6926  -16.7557 C   0  0  0  0  0  0  0  0  0  0  0  0
   20.9996   -2.5416  -15.6658 O   0  0  0  0  0  0  0  0  0  0  0  0
   20.8736   -1.9263  -17.8486 O   0  0  0  0  0  0  0  0  0  0  0  0
  2  1  1  0
  3  2  1  0
  3  4  1  1
  5  3  1  0
  5  6  2  0
  8  7  1  0
  8 10  1  0
  9  8  2  0
 11 10  1  6
 11 12  1  0
 12  5  1  0
 13 11  1  0
 14 13  2  0
 16 15  1  1
 16 17  1  0
 17 13  1  0
 18 16  1  0
 18 20  1  0
 19 18  2  0
M  END
$$$$
