SNA.pdb
     RDKit          3D

 20 19  0  0  1  0  0  0  0  0999 V2000
   24.8137  -11.4151  -16.2325 O   0  0  0  0  0  0  0  0  0  0  0  0
   23.8124  -12.2036  -15.6759 C   0  0  0  0  0  0  0  0  0  0  0  0
   22.6306  -12.1744  -16.5761 C   0  0  2  0  0  0  0  0  0  0  0  0
   22.9620  -12.5945  -17.9094 N   0  0  0  0  0  0  0  0  0  0  0  0
   21.8905  -10.8739  -16.5361 C   0  0  0  0  0  0  0  0  0  0  0  0
   22.0395  -10.1338  -17.5380 O   0  0  0  0  0  0  0  0  0  0  0  0
   18.3799  -10.3523  -16.7963 N   0  0  0  0  0  0  0  0  0  0  0  0
   18.0823   -9.9809  -15.4409 C   0  0  0  0  0  0  0  0  0  0  0  0
   16.9135  -10.2111  -15.0211 O   0  0  0  0  0  0  0  0  0  0  0  0
   19.1377   -9.3523  -14.6107 C   0  0  0  0  0  0  0  0  0  0  0  0
   20.4249   -9.2123  -15.3781 C   0  0  2  0  0  0  0  0  0  0  0  0
   21.0782  -10.5012  -15.4468 N   0  0  0  0  0  0  0  0  0  0  0  0
   21.3337   -8.1880  -14.7865 C   0  0  0  0  0  0  0  0  0  0  0  0
   21.9989   -8.3587  -13.7463 O   0  0  0  0  0  0  0  0  0  0  0  0
   22.3641   -4.8513  -16.1303 C   0  0  0  0  0  0  0  0  0  0  0  0
   22.4245   -5.9119  -15.0349 C   0  0  2  0  0  0  0  0  0  0  0  0
   21.4644   -6.9353  -15.4342 N   0  0  0  0  0  0  0  0  0  0  0  0
   22.0946   -5.2800  -13.7705 C   0  0  0  0  0  0  0  0  0  0  0  0
   22.9041   -4.5744  -13.1502 O   0  0  0  0  0  0  0  0  0  0  0  0
   20.8147   -5.4626  -13.2145 O   0  0  0  0  0  0  0  0  0  0  0  0
  2  1  1  0
  3  2  1  0
  3  4  1  6
  5  3  1  0
  5  6  2  0
  8  7  1  0
  8 10  1  0
  9  8  2  0
 11 10  1  1
 11 12  1  0
 12  5  1  0
 13 11  1  0
 14 13  2  0
 16 15  1  6
 16 17  1  0
 17 13  1  0
 18 16  1  0
 18 20  1  0
 19 18  2  0
M  END
$$$$
