SNA.pdb
     RDKit          3D

 20 19  0  0  1  0  0  0  0  0999 V2000
   26.3928   -8.8759  -14.8342 O   0  0  0  0  0  0  0  0  0  0  0  0
   25.2216   -8.4742  -15.4676 C   0  0  0  0  0  0  0  0  0  0  0  0
   24.2449   -9.5925  -15.4117 C   0  0  2  0  0  0  0  0  0  0  0  0
   24.7172  -10.7523  -16.1157 N   0  0  0  0  0  0  0  0  0  0  0  0
   22.8600   -9.1866  -15.8094 C   0  0  0  0  0  0  0  0  0  0  0  0
   22.5459   -9.4246  -17.0005 O   0  0  0  0  0  0  0  0  0  0  0  0
   19.7580  -10.5518  -16.1467 N   0  0  0  0  0  0  0  0  0  0  0  0
   19.2008  -10.0495  -14.9216 C   0  0  0  0  0  0  0  0  0  0  0  0
   18.3722  -10.7870  -14.3176 O   0  0  0  0  0  0  0  0  0  0  0  0
   19.6110   -8.7120  -14.4307 C   0  0  0  0  0  0  0  0  0  0  0  0
   20.6612   -8.1025  -15.3201 C   0  0  2  0  0  0  0  0  0  0  0  0
   21.9642   -8.5772  -14.9086 N   0  0  0  0  0  0  0  0  0  0  0  0
   20.6152   -6.6114  -15.3186 C   0  0  0  0  0  0  0  0  0  0  0  0
   20.8879   -5.9031  -14.3298 O   0  0  0  0  0  0  0  0  0  0  0  0
   19.9179   -4.2189  -18.1122 C   0  0  0  0  0  0  0  0  0  0  0  0
   20.1846   -4.4861  -16.6337 C   0  0  2  0  0  0  0  0  0  0  0  0
   20.2421   -5.9386  -16.5075 N   0  0  0  0  0  0  0  0  0  0  0  0
   19.1113   -3.8868  -15.8618 C   0  0  0  0  0  0  0  0  0  0  0  0
   18.0604   -4.4930  -15.6048 O   0  0  0  0  0  0  0  0  0  0  0  0
   19.2517   -2.5724  -15.3788 O   0  0  0  0  0  0  0  0  0  0  0  0
  2  1  1  0
  3  2  1  0
  3  4  1  6
  5  3  1  0
  5  6  2  0
  8  7  1  0
  8 10  1  0
  9  8  2  0
 11 10  1  1
 11 12  1  0
 12  5  1  0
 13 11  1  0
 14 13  2  0
 16 15  1  6
 16 17  1  0
 17 13  1  0
 18 16  1  0
 18 20  1  0
 19 18  2  0
M  END
$$$$
