SNA.pdb
     RDKit          3D

 20 19  0  0  1  0  0  0  0  0999 V2000
   16.9225  -10.7416  -18.6879 O   0  0  0  0  0  0  0  0  0  0  0  0
   17.3041   -9.5893  -18.0091 C   0  0  0  0  0  0  0  0  0  0  0  0
   18.2431   -9.9686  -16.9218 C   0  0  2  0  0  0  0  0  0  0  0  0
   17.6806  -10.9627  -16.0505 N   0  0  0  0  0  0  0  0  0  0  0  0
   18.8014   -8.7902  -16.1866 C   0  0  0  0  0  0  0  0  0  0  0  0
   18.0849   -8.3392  -15.2608 O   0  0  0  0  0  0  0  0  0  0  0  0
   22.3686   -9.7900  -14.3281 N   0  0  0  0  0  0  0  0  0  0  0  0
   21.8825   -8.4509  -14.1437 C   0  0  0  0  0  0  0  0  0  0  0  0
   21.3933   -8.1631  -13.0153 O   0  0  0  0  0  0  0  0  0  0  0  0
   21.9706   -7.4844  -15.2646 C   0  0  0  0  0  0  0  0  0  0  0  0
   20.6036   -7.1085  -15.7700 C   0  0  2  0  0  0  0  0  0  0  0  0
   20.0494   -8.2215  -16.5096 N   0  0  0  0  0  0  0  0  0  0  0  0
   20.6240   -5.8736  -16.6064 C   0  0  0  0  0  0  0  0  0  0  0  0
   21.0944   -5.8158  -17.7592 O   0  0  0  0  0  0  0  0  0  0  0  0
   18.6715   -2.8410  -16.6051 C   0  0  0  0  0  0  0  0  0  0  0  0
   20.0795   -3.4026  -16.7802 C   0  0  2  0  0  0  0  0  0  0  0  0
   20.0767   -4.6802  -16.0754 N   0  0  0  0  0  0  0  0  0  0  0  0
   21.0228   -2.4471  -16.2289 C   0  0  0  0  0  0  0  0  0  0  0  0
   21.4253   -2.5124  -15.0577 O   0  0  0  0  0  0  0  0  0  0  0  0
   21.5093   -1.4035  -17.0382 O   0  0  0  0  0  0  0  0  0  0  0  0
  2  1  1  0
  3  2  1  0
  3  4  1  1
  5  3  1  0
  5  6  2  0
  8  7  1  0
  8 10  1  0
  9  8  2  0
 11 10  1  6
 11 12  1  0
 12  5  1  0
 13 11  1  0
 14 13  2  0
 16 15  1  1
 16 17  1  0
 17 13  1  0
 18 16  1  0
 18 20  1  0
 19 18  2  0
M  END
$$$$
