SNA.pdb
     RDKit          3D

 20 19  0  0  1  0  0  0  0  0999 V2000
   21.7527  -13.5278  -19.6794 O   0  0  0  0  0  0  0  0  0  0  0  0
   20.9132  -12.5378  -19.1801 C   0  0  0  0  0  0  0  0  0  0  0  0
   21.7467  -11.4898  -18.5362 C   0  0  2  0  0  0  0  0  0  0  0  0
   22.7075  -12.0520  -17.6280 N   0  0  0  0  0  0  0  0  0  0  0  0
   20.9399  -10.3848  -17.9289 C   0  0  0  0  0  0  0  0  0  0  0  0
   20.1385   -9.8093  -18.7037 O   0  0  0  0  0  0  0  0  0  0  0  0
   16.9878   -8.9951  -15.6725 N   0  0  0  0  0  0  0  0  0  0  0  0
   18.1529   -9.8344  -15.6302 C   0  0  0  0  0  0  0  0  0  0  0  0
   18.0569  -10.9840  -16.1445 O   0  0  0  0  0  0  0  0  0  0  0  0
   19.3920   -9.3268  -14.9937 C   0  0  0  0  0  0  0  0  0  0  0  0
   20.3848   -8.8624  -16.0252 C   0  0  2  0  0  0  0  0  0  0  0  0
   21.0684  -10.0122  -16.5762 N   0  0  0  0  0  0  0  0  0  0  0  0
   21.3614   -7.8782  -15.4751 C   0  0  0  0  0  0  0  0  0  0  0  0
   22.2924   -8.1730  -14.7006 O   0  0  0  0  0  0  0  0  0  0  0  0
   21.6843   -4.1964  -16.0853 C   0  0  0  0  0  0  0  0  0  0  0  0
   22.1084   -5.4583  -15.3395 C   0  0  2  0  0  0  0  0  0  0  0  0
   21.2412   -6.5167  -15.8461 N   0  0  0  0  0  0  0  0  0  0  0  0
   21.9500   -5.2210  -13.9163 C   0  0  0  0  0  0  0  0  0  0  0  0
   20.8923   -5.4649  -13.3166 O   0  0  0  0  0  0  0  0  0  0  0  0
   23.0251   -4.6970  -13.1745 O   0  0  0  0  0  0  0  0  0  0  0  0
  2  1  1  0
  3  2  1  0
  3  4  1  1
  5  3  1  0
  5  6  2  0
  8  7  1  0
  8 10  1  0
  9  8  2  0
 11 10  1  1
 11 12  1  0
 12  5  1  0
 13 11  1  0
 14 13  2  0
 16 15  1  6
 16 17  1  0
 17 13  1  0
 18 16  1  0
 18 20  1  0
 19 18  2  0
M  END
$$$$
