SNA.pdb
     RDKit          3D

 20 19  0  0  1  0  0  0  0  0999 V2000
   11.4283  -12.8020  -11.8453 O   0  0  0  0  0  0  0  0  0  0  0  0
   12.4123  -12.1141  -11.1433 C   0  0  0  0  0  0  0  0  0  0  0  0
   13.7160  -12.3257  -11.8240 C   0  0  2  0  0  0  0  0  0  0  0  0
   14.1699  -13.6833  -11.7024 N   0  0  0  0  0  0  0  0  0  0  0  0
   14.7549  -11.3210  -11.4342 C   0  0  0  0  0  0  0  0  0  0  0  0
   15.2930  -11.5031  -10.3157 O   0  0  0  0  0  0  0  0  0  0  0  0
   18.0985   -7.4559  -11.3818 N   0  0  0  0  0  0  0  0  0  0  0  0
   17.9472   -7.8743  -12.7477 C   0  0  0  0  0  0  0  0  0  0  0  0
   18.7486   -7.3879  -13.5941 O   0  0  0  0  0  0  0  0  0  0  0  0
   16.8755   -8.8368  -13.0989 C   0  0  0  0  0  0  0  0  0  0  0  0
   16.1040   -9.2639  -11.8792 C   0  0  2  0  0  0  0  0  0  0  0  0
   15.1089  -10.2401  -12.2659 N   0  0  0  0  0  0  0  0  0  0  0  0
   15.4711   -8.1130  -11.1721 C   0  0  0  0  0  0  0  0  0  0  0  0
   14.6770   -7.3139  -11.7054 O   0  0  0  0  0  0  0  0  0  0  0  0
   15.5867   -7.1274   -7.5687 C   0  0  0  0  0  0  0  0  0  0  0  0
   15.2383   -6.7963   -9.0170 C   0  0  2  0  0  0  0  0  0  0  0  0
   15.7780   -7.8985   -9.8062 N   0  0  0  0  0  0  0  0  0  0  0  0
   15.8311   -5.5130   -9.3461 C   0  0  0  0  0  0  0  0  0  0  0  0
   16.8162   -5.4089  -10.0922 O   0  0  0  0  0  0  0  0  0  0  0  0
   15.2807   -4.3341   -8.8093 O   0  0  0  0  0  0  0  0  0  0  0  0
  2  1  1  0
  3  2  1  0
  3  4  1  1
  5  3  1  0
  5  6  2  0
  8  7  1  0
  8 10  1  0
  9  8  2  0
 11 10  1  6
 11 12  1  0
 12  5  1  0
 13 11  1  0
 14 13  2  0
 16 15  1  1
 16 17  1  0
 17 13  1  0
 18 16  1  0
 18 20  1  0
 19 18  2  0
M  END
$$$$
