CVL.pdb
     RDKit          3D

 22 21  0  0  1  0  0  0  0  0999 V2000
    6.7192  -20.0130   21.8614 N   0  0  0  0  0  0  0  0  0  0  0  0
    6.5336  -18.8354   22.6538 C   0  0  1  0  0  0  0  0  0  0  0  0
    6.7093  -19.0916   24.1196 C   0  0  0  0  0  0  0  0  0  0  0  0
    5.7851  -20.5098   24.7081 S   0  0  0  0  0  0  0  0  0  0  0  0
    7.5237  -17.7617   22.2826 C   0  0  0  0  0  0  0  0  0  0  0  0
    8.6732  -18.0874   21.8901 O   0  0  0  0  0  0  0  0  0  0  0  0
    8.2836  -12.8954   21.7234 C   0  0  0  0  0  0  0  0  0  0  0  0
    7.4099  -14.1280   21.6861 C   0  0  1  0  0  0  0  0  0  0  0  0
    6.7696  -14.2357   20.3450 C   0  0  0  0  0  0  0  0  0  0  0  0
    8.1948  -15.3387   22.1208 C   0  0  2  0  0  0  0  0  0  0  0  0
    7.1810  -16.3846   22.3684 N   0  0  0  0  0  0  0  0  0  0  0  0
    8.8141  -15.0501   23.4652 C   0  0  0  0  0  0  0  0  0  0  0  0
    9.9608  -14.5267   23.5330 O   0  0  0  0  0  0  0  0  0  0  0  0
    8.2353  -11.8290   25.9448 C   0  0  0  0  0  0  0  0  0  0  0  0
    7.2127  -12.9151   26.0642 C   0  0  2  0  0  0  0  0  0  0  0  0
    5.9112  -12.4217   26.5676 C   0  0  0  0  0  0  0  0  0  0  0  0
    7.6582  -14.1774   26.6722 C   0  0  0  0  0  0  0  0  0  0  0  0
    8.7451  -14.8812   25.9421 C   0  0  2  0  0  0  0  0  0  0  0  0
    8.1447  -15.3478   24.6671 N   0  0  0  0  0  0  0  0  0  0  0  0
    9.3496  -16.0423   26.5695 C   0  0  0  0  0  0  0  0  0  0  0  0
    9.0413  -17.2302   26.1811 O   0  0  0  0  0  0  0  0  0  0  0  0
   10.2878  -16.0432   27.6016 O   0  0  0  0  0  0  0  0  0  0  0  0
  2  1  1  6
  2  3  1  0
  4  3  1  0
  5  2  1  0
  5  6  2  0
  8  7  1  6
  8 10  1  0
  9  8  1  0
 10 11  1  1
 10 12  1  0
 11  5  1  0
 12 19  1  0
 13 12  2  0
 15 16  1  1
 15 14  1  0
 17 15  1  0
 18 17  1  1
 19 18  1  0
 20 22  1  0
 20 18  1  0
 21 20  2  0
M  END
$$$$
