CVL.pdb
     RDKit          3D

 22 21  0  0  1  0  0  0  0  0999 V2000
    8.0114  -15.3977   17.7968 N   0  0  0  0  0  0  0  0  0  0  0  0
    8.4082  -14.6299   18.9378 C   0  0  1  0  0  0  0  0  0  0  0  0
    7.9474  -13.2059   18.8648 C   0  0  0  0  0  0  0  0  0  0  0  0
    9.0052  -12.0708   19.7617 S   0  0  0  0  0  0  0  0  0  0  0  0
    7.8385  -15.2020   20.2103 C   0  0  0  0  0  0  0  0  0  0  0  0
    6.6036  -15.4263   20.2906 O   0  0  0  0  0  0  0  0  0  0  0  0
    8.2900  -18.3403   21.3339 C   0  0  0  0  0  0  0  0  0  0  0  0
    8.7677  -17.5351   22.5201 C   0  0  1  0  0  0  0  0  0  0  0  0
   10.2575  -17.5366   22.5467 C   0  0  0  0  0  0  0  0  0  0  0  0
    8.1280  -16.1707   22.5179 C   0  0  2  0  0  0  0  0  0  0  0  0
    8.6734  -15.4932   21.3235 N   0  0  0  0  0  0  0  0  0  0  0  0
    8.6541  -15.3936   23.6984 C   0  0  0  0  0  0  0  0  0  0  0  0
    9.8068  -14.8809   23.6539 O   0  0  0  0  0  0  0  0  0  0  0  0
    7.5572  -11.8084   25.1625 C   0  0  0  0  0  0  0  0  0  0  0  0
    6.7133  -12.8126   25.8827 C   0  0  2  0  0  0  0  0  0  0  0  0
    5.5331  -12.2037   26.5363 C   0  0  0  0  0  0  0  0  0  0  0  0
    7.4227  -13.7987   26.7108 C   0  0  0  0  0  0  0  0  0  0  0  0
    8.5193  -14.5295   26.0229 C   0  0  2  0  0  0  0  0  0  0  0  0
    7.8898  -15.2160   24.8670 N   0  0  0  0  0  0  0  0  0  0  0  0
    9.2391  -15.5441   26.7709 C   0  0  0  0  0  0  0  0  0  0  0  0
    8.9433  -16.7896   26.6351 O   0  0  0  0  0  0  0  0  0  0  0  0
   10.2830  -15.3371   27.6725 O   0  0  0  0  0  0  0  0  0  0  0  0
  2  1  1  6
  2  3  1  0
  4  3  1  0
  5  2  1  0
  5  6  2  0
  8  7  1  6
  8 10  1  0
  9  8  1  0
 10 11  1  6
 10 12  1  0
 11  5  1  0
 12 19  1  0
 13 12  2  0
 15 16  1  1
 15 14  1  0
 17 15  1  0
 18 17  1  1
 19 18  1  0
 20 22  1  0
 20 18  1  0
 21 20  2  0
M  END
$$$$
