CVL.pdb
     RDKit          3D

 22 21  0  0  1  0  0  0  0  0999 V2000
    6.5948  -19.7267   21.1238 N   0  0  0  0  0  0  0  0  0  0  0  0
    6.4365  -18.7680   22.1750 C   0  0  1  0  0  0  0  0  0  0  0  0
    6.5482  -19.3809   23.5377 C   0  0  0  0  0  0  0  0  0  0  0  0
    6.0420  -18.2774   24.8559 S   0  0  0  0  0  0  0  0  0  0  0  0
    7.4882  -17.6913   22.0996 C   0  0  0  0  0  0  0  0  0  0  0  0
    8.7044  -18.0111   22.1073 O   0  0  0  0  0  0  0  0  0  0  0  0
    6.2722  -13.7323   21.4985 C   0  0  0  0  0  0  0  0  0  0  0  0
    7.5910  -14.2461   20.9688 C   0  0  1  0  0  0  0  0  0  0  0  0
    8.4826  -13.0911   20.6671 C   0  0  0  0  0  0  0  0  0  0  0  0
    8.1679  -15.2728   21.9090 C   0  0  2  0  0  0  0  0  0  0  0  0
    7.1294  -16.3180   22.0198 N   0  0  0  0  0  0  0  0  0  0  0  0
    8.2714  -14.6591   23.2826 C   0  0  0  0  0  0  0  0  0  0  0  0
    7.6429  -13.5971   23.5487 O   0  0  0  0  0  0  0  0  0  0  0  0
    5.8804  -12.5721   25.8059 C   0  0  0  0  0  0  0  0  0  0  0  0
    7.0728  -13.2222   26.4344 C   0  0  2  0  0  0  0  0  0  0  0  0
    8.2008  -12.2832   26.6264 C   0  0  0  0  0  0  0  0  0  0  0  0
    7.4630  -14.5374   25.9056 C   0  0  0  0  0  0  0  0  0  0  0  0
    8.9207  -14.7201   25.6790 C   0  0  2  0  0  0  0  0  0  0  0  0
    9.0566  -15.2410   24.2956 N   0  0  0  0  0  0  0  0  0  0  0  0
    9.6372  -15.6393   26.5444 C   0  0  0  0  0  0  0  0  0  0  0  0
   10.0935  -15.2454   27.6818 O   0  0  0  0  0  0  0  0  0  0  0  0
    9.9098  -16.9842   26.2949 O   0  0  0  0  0  0  0  0  0  0  0  0
  2  1  1  6
  2  3  1  0
  4  3  1  0
  5  2  1  0
  5  6  2  0
  8  7  1  1
  8 10  1  0
  9  8  1  0
 10 11  1  1
 10 12  1  0
 11  5  1  0
 12 19  1  0
 13 12  2  0
 15 16  1  6
 15 14  1  0
 17 15  1  0
 18 17  1  1
 19 18  1  0
 20 22  1  0
 20 18  1  0
 21 20  2  0
M  END
$$$$
