CVL.pdb
     RDKit          3D

 22 21  0  0  1  0  0  0  0  0999 V2000
   13.1408  -16.8269   20.3983 N   0  0  0  0  0  0  0  0  0  0  0  0
   12.2422  -17.2610   21.4245 C   0  0  1  0  0  0  0  0  0  0  0  0
   12.9513  -17.6581   22.6834 C   0  0  0  0  0  0  0  0  0  0  0  0
   13.0770  -19.4329   22.8976 S   0  0  0  0  0  0  0  0  0  0  0  0
   11.2719  -16.1717   21.8022 C   0  0  0  0  0  0  0  0  0  0  0  0
   11.7014  -15.0135   22.0384 O   0  0  0  0  0  0  0  0  0  0  0  0
    6.5805  -14.7136   21.7206 C   0  0  0  0  0  0  0  0  0  0  0  0
    7.7383  -15.5955   21.3139 C   0  0  1  0  0  0  0  0  0  0  0  0
    7.9916  -15.4314   19.8547 C   0  0  0  0  0  0  0  0  0  0  0  0
    8.9276  -15.3406   22.2035 C   0  0  2  0  0  0  0  0  0  0  0  0
    9.8771  -16.4301   21.8963 N   0  0  0  0  0  0  0  0  0  0  0  0
    8.5098  -15.5608   23.6357 C   0  0  0  0  0  0  0  0  0  0  0  0
    8.9348  -16.5662   24.2699 O   0  0  0  0  0  0  0  0  0  0  0  0
    6.3354  -11.6526   27.4179 C   0  0  0  0  0  0  0  0  0  0  0  0
    7.1102  -12.8682   27.0158 C   0  0  2  0  0  0  0  0  0  0  0  0
    8.4926  -12.5506   26.5928 C   0  0  0  0  0  0  0  0  0  0  0  0
    6.4191  -13.8352   26.1505 C   0  0  0  0  0  0  0  0  0  0  0  0
    7.2489  -14.9816   25.6955 C   0  0  2  0  0  0  0  0  0  0  0  0
    7.6491  -14.6675   24.3009 N   0  0  0  0  0  0  0  0  0  0  0  0
    6.6394  -16.2988   25.6693 C   0  0  0  0  0  0  0  0  0  0  0  0
    5.9557  -16.6828   24.6484 O   0  0  0  0  0  0  0  0  0  0  0  0
    6.7055  -17.2721   26.6662 O   0  0  0  0  0  0  0  0  0  0  0  0
  2  1  1  6
  2  3  1  0
  4  3  1  0
  5  2  1  0
  5  6  2  0
  8  7  1  1
  8 10  1  0
  9  8  1  0
 10 11  1  6
 10 12  1  0
 11  5  1  0
 12 19  1  0
 13 12  2  0
 15 16  1  6
 15 14  1  0
 17 15  1  0
 18 17  1  6
 19 18  1  0
 20 22  1  0
 20 18  1  0
 21 20  2  0
M  END
$$$$
