CVL.pdb
     RDKit          3D

 22 21  0  0  1  0  0  0  0  0999 V2000
    7.9165  -14.9398   17.9472 N   0  0  0  0  0  0  0  0  0  0  0  0
    8.4062  -14.3367   19.1495 C   0  0  1  0  0  0  0  0  0  0  0  0
    7.8366  -12.9709   19.3845 C   0  0  0  0  0  0  0  0  0  0  0  0
    8.7652  -12.0105   20.5791 S   0  0  0  0  0  0  0  0  0  0  0  0
    8.0570  -15.1630   20.3604 C   0  0  0  0  0  0  0  0  0  0  0  0
    6.8822  -15.5887   20.5025 O   0  0  0  0  0  0  0  0  0  0  0  0
    9.5081  -18.4591   23.5236 C   0  0  0  0  0  0  0  0  0  0  0  0
    9.6321  -17.5405   22.3300 C   0  0  1  0  0  0  0  0  0  0  0  0
    9.4533  -18.3322   21.0804 C   0  0  0  0  0  0  0  0  0  0  0  0
    8.7063  -16.3609   22.4796 C   0  0  2  0  0  0  0  0  0  0  0  0
    9.0335  -15.4705   21.3468 N   0  0  0  0  0  0  0  0  0  0  0  0
    9.0997  -15.5981   23.7196 C   0  0  0  0  0  0  0  0  0  0  0  0
   10.2612  -15.1142   23.8214 O   0  0  0  0  0  0  0  0  0  0  0  0
    7.8180  -11.8661   25.2687 C   0  0  0  0  0  0  0  0  0  0  0  0
    6.9170  -12.9773   25.7079 C   0  0  2  0  0  0  0  0  0  0  0  0
    5.5912  -12.4950   26.1557 C   0  0  0  0  0  0  0  0  0  0  0  0
    7.5115  -14.0061   26.5738 C   0  0  0  0  0  0  0  0  0  0  0  0
    8.6898  -14.7093   26.0021 C   0  0  2  0  0  0  0  0  0  0  0  0
    8.2000  -15.4025   24.7843 N   0  0  0  0  0  0  0  0  0  0  0  0
    9.3493  -15.7125   26.8180 C   0  0  0  0  0  0  0  0  0  0  0  0
   10.2653  -15.3743   27.6569 O   0  0  0  0  0  0  0  0  0  0  0  0
    9.1022  -17.0853   26.8199 O   0  0  0  0  0  0  0  0  0  0  0  0
  2  1  1  6
  2  3  1  0
  4  3  1  0
  5  2  1  0
  5  6  2  0
  8  7  1  1
  8 10  1  0
  9  8  1  0
 10 11  1  6
 10 12  1  0
 11  5  1  0
 12 19  1  0
 13 12  2  0
 15 16  1  1
 15 14  1  0
 17 15  1  0
 18 17  1  1
 19 18  1  0
 20 22  1  0
 20 18  1  0
 21 20  2  0
M  END
$$$$
