CVL.pdb
     RDKit          3D

 22 21  0  0  1  0  0  0  0  0999 V2000
    6.5057  -19.5597   21.1184 N   0  0  0  0  0  0  0  0  0  0  0  0
    6.3252  -18.4394   21.9909 C   0  0  1  0  0  0  0  0  0  0  0  0
    6.4317  -18.8113   23.4385 C   0  0  0  0  0  0  0  0  0  0  0  0
    5.9446  -17.4910   24.5482 S   0  0  0  0  0  0  0  0  0  0  0  0
    7.3636  -17.3761   21.7420 C   0  0  0  0  0  0  0  0  0  0  0  0
    8.5748  -17.7020   21.6504 O   0  0  0  0  0  0  0  0  0  0  0  0
    8.0816  -12.5628   20.7888 C   0  0  0  0  0  0  0  0  0  0  0  0
    7.2626  -13.8308   20.7161 C   0  0  1  0  0  0  0  0  0  0  0  0
    6.8157  -14.0469   19.3112 C   0  0  0  0  0  0  0  0  0  0  0  0
    8.0204  -14.9787   21.3315 C   0  0  2  0  0  0  0  0  0  0  0  0
    6.9980  -16.0088   21.6085 N   0  0  0  0  0  0  0  0  0  0  0  0
    8.5327  -14.5448   22.6819 C   0  0  0  0  0  0  0  0  0  0  0  0
    9.5351  -13.7815   22.7615 O   0  0  0  0  0  0  0  0  0  0  0  0
    5.7174  -12.3251   27.3372 C   0  0  0  0  0  0  0  0  0  0  0  0
    7.0241  -12.7294   26.7299 C   0  0  2  0  0  0  0  0  0  0  0  0
    8.0058  -11.6221   26.6968 C   0  0  0  0  0  0  0  0  0  0  0  0
    6.9602  -13.5194   25.4916 C   0  0  0  0  0  0  0  0  0  0  0  0
    8.2184  -14.2207   25.1241 C   0  0  2  0  0  0  0  0  0  0  0  0
    7.9198  -14.9675   23.8764 N   0  0  0  0  0  0  0  0  0  0  0  0
    8.7660  -15.1805   26.0653 C   0  0  0  0  0  0  0  0  0  0  0  0
    9.4389  -14.7825   27.0880 O   0  0  0  0  0  0  0  0  0  0  0  0
    8.6471  -16.5691   26.0101 O   0  0  0  0  0  0  0  0  0  0  0  0
  2  1  1  6
  2  3  1  0
  4  3  1  0
  5  2  1  0
  5  6  2  0
  8  7  1  6
  8 10  1  0
  9  8  1  0
 10 11  1  1
 10 12  1  0
 11  5  1  0
 12 19  1  0
 13 12  2  0
 15 16  1  6
 15 14  1  0
 17 15  1  0
 18 17  1  1
 19 18  1  0
 20 22  1  0
 20 18  1  0
 21 20  2  0
M  END
$$$$
