CVL.pdb
     RDKit          3D

 22 21  0  0  1  0  0  0  0  0999 V2000
    6.2388  -19.4917   20.9147 N   0  0  0  0  0  0  0  0  0  0  0  0
    6.1930  -18.3773   21.8120 C   0  0  1  0  0  0  0  0  0  0  0  0
    6.3271  -18.7855   23.2475 C   0  0  0  0  0  0  0  0  0  0  0  0
    4.9087  -19.6914   23.8633 S   0  0  0  0  0  0  0  0  0  0  0  0
    7.3087  -17.4029   21.5354 C   0  0  0  0  0  0  0  0  0  0  0  0
    8.4642  -17.8362   21.2932 O   0  0  0  0  0  0  0  0  0  0  0  0
    6.3607  -13.4194   21.6844 C   0  0  0  0  0  0  0  0  0  0  0  0
    7.5613  -13.7892   20.8444 C   0  0  1  0  0  0  0  0  0  0  0  0
    8.4724  -12.6143   20.7460 C   0  0  0  0  0  0  0  0  0  0  0  0
    8.1970  -15.0513   21.3677 C   0  0  2  0  0  0  0  0  0  0  0  0
    7.0781  -16.0001   21.5432 N   0  0  0  0  0  0  0  0  0  0  0  0
    8.7207  -14.7831   22.7562 C   0  0  0  0  0  0  0  0  0  0  0  0
    9.8615  -14.2653   22.9118 O   0  0  0  0  0  0  0  0  0  0  0  0
    8.1221  -11.8740   25.9216 C   0  0  0  0  0  0  0  0  0  0  0  0
    7.0585  -12.9203   25.8053 C   0  0  2  0  0  0  0  0  0  0  0  0
    5.7865  -12.5158   26.4452 C   0  0  0  0  0  0  0  0  0  0  0  0
    7.4625  -14.3062   26.0836 C   0  0  0  0  0  0  0  0  0  0  0  0
    8.5672  -14.8248   25.2347 C   0  0  2  0  0  0  0  0  0  0  0  0
    7.9673  -15.0940   23.9038 N   0  0  0  0  0  0  0  0  0  0  0  0
    9.2318  -16.0470   25.6491 C   0  0  0  0  0  0  0  0  0  0  0  0
    8.8862  -17.1814   25.1481 O   0  0  0  0  0  0  0  0  0  0  0  0
   10.2689  -16.1641   26.5744 O   0  0  0  0  0  0  0  0  0  0  0  0
  2  1  1  6
  2  3  1  0
  4  3  1  0
  5  2  1  0
  5  6  2  0
  8  7  1  1
  8 10  1  0
  9  8  1  0
 10 11  1  1
 10 12  1  0
 11  5  1  0
 12 19  1  0
 13 12  2  0
 15 16  1  1
 15 14  1  0
 17 15  1  0
 18 17  1  1
 19 18  1  0
 20 22  1  0
 20 18  1  0
 21 20  2  0
M  END
$$$$
