CVL.pdb
     RDKit          3D

 22 21  0  0  1  0  0  0  0  0999 V2000
    7.6057  -15.0985   18.1204 N   0  0  0  0  0  0  0  0  0  0  0  0
    8.2499  -14.4847   19.2417 C   0  0  1  0  0  0  0  0  0  0  0  0
    7.8789  -13.0419   19.4028 C   0  0  0  0  0  0  0  0  0  0  0  0
    8.6482  -12.2656   20.8231 S   0  0  0  0  0  0  0  0  0  0  0  0
    7.8799  -15.1710   20.5313 C   0  0  0  0  0  0  0  0  0  0  0  0
    6.6798  -15.4782   20.7478 O   0  0  0  0  0  0  0  0  0  0  0  0
    9.3008  -18.3143   23.8864 C   0  0  0  0  0  0  0  0  0  0  0  0
    9.4200  -17.4932   22.6233 C   0  0  1  0  0  0  0  0  0  0  0  0
    9.2008  -18.3746   21.4421 C   0  0  0  0  0  0  0  0  0  0  0  0
    8.5213  -16.2858   22.6977 C   0  0  2  0  0  0  0  0  0  0  0  0
    8.8650  -15.4779   21.5093 N   0  0  0  0  0  0  0  0  0  0  0  0
    8.9354  -15.4536   23.8852 C   0  0  0  0  0  0  0  0  0  0  0  0
   10.0894  -14.9435   23.9273 O   0  0  0  0  0  0  0  0  0  0  0  0
    7.5144  -11.8756   25.2700 C   0  0  0  0  0  0  0  0  0  0  0  0
    6.6847  -12.8943   25.9865 C   0  0  2  0  0  0  0  0  0  0  0  0
    5.4991  -12.3036   26.6471 C   0  0  0  0  0  0  0  0  0  0  0  0
    7.4085  -13.8766   26.8068 C   0  0  0  0  0  0  0  0  0  0  0  0
    8.5887  -14.4995   26.1519 C   0  0  2  0  0  0  0  0  0  0  0  0
    8.0636  -15.2210   24.9655 N   0  0  0  0  0  0  0  0  0  0  0  0
    9.3666  -15.4588   26.9145 C   0  0  0  0  0  0  0  0  0  0  0  0
    9.1285  -16.7201   26.8155 O   0  0  0  0  0  0  0  0  0  0  0  0
   10.4122  -15.1789   27.7942 O   0  0  0  0  0  0  0  0  0  0  0  0
  2  1  1  6
  2  3  1  0
  4  3  1  0
  5  2  1  0
  5  6  2  0
  8  7  1  1
  8 10  1  0
  9  8  1  0
 10 11  1  6
 10 12  1  0
 11  5  1  0
 12 19  1  0
 13 12  2  0
 15 16  1  1
 15 14  1  0
 17 15  1  0
 18 17  1  1
 19 18  1  0
 20 22  1  0
 20 18  1  0
 21 20  2  0
M  END
$$$$
