CVL.pdb
     RDKit          3D

 22 21  0  0  1  0  0  0  0  0999 V2000
   11.9174  -16.1999   17.9924 N   0  0  0  0  0  0  0  0  0  0  0  0
   12.0292  -16.0686   19.4134 C   0  0  1  0  0  0  0  0  0  0  0  0
   12.8705  -14.8977   19.8212 C   0  0  0  0  0  0  0  0  0  0  0  0
   13.0833  -14.7601   21.5953 S   0  0  0  0  0  0  0  0  0  0  0  0
   10.6797  -15.8735   20.0551 C   0  0  0  0  0  0  0  0  0  0  0  0
    9.8905  -15.0124   19.5890 O   0  0  0  0  0  0  0  0  0  0  0  0
    7.2355  -17.9957   22.8195 C   0  0  0  0  0  0  0  0  0  0  0  0
    8.4658  -17.9619   21.9425 C   0  0  1  0  0  0  0  0  0  0  0  0
    8.2059  -18.7445   20.7015 C   0  0  0  0  0  0  0  0  0  0  0  0
    8.9117  -16.5395   21.7218 C   0  0  2  0  0  0  0  0  0  0  0  0
   10.2820  -16.6467   21.1798 N   0  0  0  0  0  0  0  0  0  0  0  0
    9.0600  -15.8705   23.0652 C   0  0  0  0  0  0  0  0  0  0  0  0
   10.0975  -16.0665   23.7571 O   0  0  0  0  0  0  0  0  0  0  0  0
    7.2194  -13.2475   27.4604 C   0  0  0  0  0  0  0  0  0  0  0  0
    7.3985  -12.4491   26.2074 C   0  0  2  0  0  0  0  0  0  0  0  0
    6.5790  -11.2166   26.1931 C   0  0  0  0  0  0  0  0  0  0  0  0
    7.3903  -13.1966   24.9414 C   0  0  0  0  0  0  0  0  0  0  0  0
    8.3080  -14.3650   24.8917 C   0  0  2  0  0  0  0  0  0  0  0  0
    8.0649  -15.0194   23.5816 N   0  0  0  0  0  0  0  0  0  0  0  0
    8.1616  -15.3928   25.9062 C   0  0  0  0  0  0  0  0  0  0  0  0
    9.0137  -15.4901   26.8662 O   0  0  0  0  0  0  0  0  0  0  0  0
    7.1496  -16.3491   25.9898 O   0  0  0  0  0  0  0  0  0  0  0  0
  2  1  1  6
  2  3  1  0
  4  3  1  0
  5  2  1  0
  5  6  2  0
  8  7  1  1
  8 10  1  0
  9  8  1  0
 10 11  1  1
 10 12  1  0
 11  5  1  0
 12 19  1  0
 13 12  2  0
 15 16  1  6
 15 14  1  0
 17 15  1  0
 18 17  1  1
 19 18  1  0
 20 22  1  0
 20 18  1  0
 21 20  2  0
M  END
$$$$
