CVL.pdb
     RDKit          3D

 22 21  0  0  1  0  0  0  0  0999 V2000
   11.4748  -18.2850   20.8183 N   0  0  0  0  0  0  0  0  0  0  0  0
   10.4953  -18.2248   21.8605 C   0  0  1  0  0  0  0  0  0  0  0  0
   10.9091  -18.9801   23.0867 C   0  0  0  0  0  0  0  0  0  0  0  0
    9.6943  -18.9172   24.4027 S   0  0  0  0  0  0  0  0  0  0  0  0
   10.2418  -16.8043   22.2949 C   0  0  0  0  0  0  0  0  0  0  0  0
   11.2053  -16.0908   22.6744 O   0  0  0  0  0  0  0  0  0  0  0  0
    7.1776  -12.9846   22.0249 C   0  0  0  0  0  0  0  0  0  0  0  0
    7.7161  -14.3353   21.6131 C   0  0  1  0  0  0  0  0  0  0  0  0
    8.2334  -14.2532   20.2182 C   0  0  0  0  0  0  0  0  0  0  0  0
    8.7035  -14.8381   22.6344 C   0  0  2  0  0  0  0  0  0  0  0  0
    8.9304  -16.2552   22.2834 N   0  0  0  0  0  0  0  0  0  0  0  0
    8.0283  -14.8592   23.9827 C   0  0  0  0  0  0  0  0  0  0  0  0
    7.0849  -15.6683   24.2039 O   0  0  0  0  0  0  0  0  0  0  0  0
    9.7661  -15.6827   27.7971 C   0  0  0  0  0  0  0  0  0  0  0  0
    9.8654  -14.2191   27.5015 C   0  0  2  0  0  0  0  0  0  0  0  0
   10.8548  -13.5287   28.3591 C   0  0  0  0  0  0  0  0  0  0  0  0
    8.5986  -13.4923   27.3326 C   0  0  0  0  0  0  0  0  0  0  0  0
    7.6811  -14.0523   26.3058 C   0  0  2  0  0  0  0  0  0  0  0  0
    8.4224  -13.9943   25.0209 N   0  0  0  0  0  0  0  0  0  0  0  0
    6.4111  -13.3843   26.0866 C   0  0  0  0  0  0  0  0  0  0  0  0
    6.2780  -12.5290   25.1338 O   0  0  0  0  0  0  0  0  0  0  0  0
    5.2348  -13.5619   26.8147 O   0  0  0  0  0  0  0  0  0  0  0  0
  2  1  1  6
  2  3  1  0
  4  3  1  0
  5  2  1  0
  5  6  2  0
  8  7  1  1
  8 10  1  0
  9  8  1  0
 10 11  1  6
 10 12  1  0
 11  5  1  0
 12 19  1  0
 13 12  2  0
 15 16  1  1
 15 14  1  0
 17 15  1  0
 18 17  1  1
 19 18  1  0
 20 22  1  0
 20 18  1  0
 21 20  2  0
M  END
$$$$
