CVL.pdb
     RDKit          3D

 22 21  0  0  1  0  0  0  0  0999 V2000
   12.2016  -14.3219   18.4589 N   0  0  0  0  0  0  0  0  0  0  0  0
   12.0215  -15.0866   19.6556 C   0  0  1  0  0  0  0  0  0  0  0  0
   13.1736  -14.9546   20.6046 C   0  0  0  0  0  0  0  0  0  0  0  0
   14.6593  -15.7802   20.0363 S   0  0  0  0  0  0  0  0  0  0  0  0
   10.7916  -14.6482   20.4079 C   0  0  0  0  0  0  0  0  0  0  0  0
   10.5048  -13.4252   20.4680 O   0  0  0  0  0  0  0  0  0  0  0  0
    6.4686  -16.0636   22.2421 C   0  0  0  0  0  0  0  0  0  0  0  0
    7.6542  -16.1264   21.3072 C   0  0  1  0  0  0  0  0  0  0  0  0
    7.1830  -15.9536   19.9042 C   0  0  0  0  0  0  0  0  0  0  0  0
    8.7206  -15.1576   21.7491 C   0  0  2  0  0  0  0  0  0  0  0  0
    9.9481  -15.5940   21.0522 N   0  0  0  0  0  0  0  0  0  0  0  0
    8.9891  -15.3783   23.2165 C   0  0  0  0  0  0  0  0  0  0  0  0
    9.8381  -16.2388   23.5806 O   0  0  0  0  0  0  0  0  0  0  0  0
    6.1176  -13.4064   25.7277 C   0  0  0  0  0  0  0  0  0  0  0  0
    7.2538  -13.0566   26.6366 C   0  0  2  0  0  0  0  0  0  0  0  0
    7.0454  -11.7733   27.3441 C   0  0  0  0  0  0  0  0  0  0  0  0
    8.6098  -13.2381   26.0983 C   0  0  0  0  0  0  0  0  0  0  0  0
    8.9041  -14.5970   25.5725 C   0  0  2  0  0  0  0  0  0  0  0  0
    8.3154  -14.6440   24.2105 N   0  0  0  0  0  0  0  0  0  0  0  0
    8.3761  -15.7392   26.2961 C   0  0  0  0  0  0  0  0  0  0  0  0
    8.7978  -16.0146   27.4808 O   0  0  0  0  0  0  0  0  0  0  0  0
    7.4027  -16.6344   25.8529 O   0  0  0  0  0  0  0  0  0  0  0  0
  2  1  1  6
  2  3  1  0
  4  3  1  0
  5  2  1  0
  5  6  2  0
  8  7  1  1
  8 10  1  0
  9  8  1  0
 10 11  1  6
 10 12  1  0
 11  5  1  0
 12 19  1  0
 13 12  2  0
 15 16  1  6
 15 14  1  0
 17 15  1  0
 18 17  1  1
 19 18  1  0
 20 22  1  0
 20 18  1  0
 21 20  2  0
M  END
$$$$
