CVL.pdb
     RDKit          3D

 22 21  0  0  1  0  0  0  0  0999 V2000
    6.8796  -19.8163   21.4109 N   0  0  0  0  0  0  0  0  0  0  0  0
    6.5399  -18.6907   22.2274 C   0  0  1  0  0  0  0  0  0  0  0  0
    6.4312  -19.0422   23.6800 C   0  0  0  0  0  0  0  0  0  0  0  0
    5.0762  -20.1581   24.0407 S   0  0  0  0  0  0  0  0  0  0  0  0
    7.5783  -17.6035   22.1240 C   0  0  0  0  0  0  0  0  0  0  0  0
    8.7911  -17.9141   22.0050 O   0  0  0  0  0  0  0  0  0  0  0  0
    8.3238  -12.7412   21.5027 C   0  0  0  0  0  0  0  0  0  0  0  0
    7.4473  -13.9722   21.4850 C   0  0  1  0  0  0  0  0  0  0  0  0
    6.8224  -14.1108   20.1395 C   0  0  0  0  0  0  0  0  0  0  0  0
    8.2238  -15.1739   21.9581 C   0  0  2  0  0  0  0  0  0  0  0  0
    7.2109  -16.2306   22.1587 N   0  0  0  0  0  0  0  0  0  0  0  0
    8.7753  -14.8775   23.3300 C   0  0  0  0  0  0  0  0  0  0  0  0
    9.8846  -14.2870   23.4506 O   0  0  0  0  0  0  0  0  0  0  0  0
    7.7664  -11.8362   26.1485 C   0  0  0  0  0  0  0  0  0  0  0  0
    6.8924  -13.0501   26.1042 C   0  0  2  0  0  0  0  0  0  0  0  0
    5.5216  -12.7856   26.5961 C   0  0  0  0  0  0  0  0  0  0  0  0
    7.4802  -14.3052   26.5948 C   0  0  0  0  0  0  0  0  0  0  0  0
    8.6360  -14.8112   25.8088 C   0  0  2  0  0  0  0  0  0  0  0  0
    8.0827  -15.2412   24.5001 N   0  0  0  0  0  0  0  0  0  0  0  0
    9.3820  -15.9382   26.3384 C   0  0  0  0  0  0  0  0  0  0  0  0
    9.2585  -17.1080   25.8152 O   0  0  0  0  0  0  0  0  0  0  0  0
   10.2801  -15.9212   27.4054 O   0  0  0  0  0  0  0  0  0  0  0  0
  2  1  1  6
  2  3  1  0
  4  3  1  0
  5  2  1  0
  5  6  2  0
  8  7  1  6
  8 10  1  0
  9  8  1  0
 10 11  1  1
 10 12  1  0
 11  5  1  0
 12 19  1  0
 13 12  2  0
 15 16  1  1
 15 14  1  0
 17 15  1  0
 18 17  1  1
 19 18  1  0
 20 22  1  0
 20 18  1  0
 21 20  2  0
M  END
$$$$
