PVC.pdb
     RDKit          3D

 21 21  0  0  1  0  0  0  0  0999 V2000
    8.1358  -14.8619   20.6471 N   0  0  0  0  0  0  0  0  0  0  0  0
    8.2878  -16.1657   20.0546 C   0  0  0  0  0  0  0  0  0  0  0  0
    7.1536  -17.0150   20.5581 C   0  0  0  0  0  0  0  0  0  0  0  0
    6.6749  -16.3464   21.8152 C   0  0  0  0  0  0  0  0  0  0  0  0
    7.2675  -14.9843   21.7783 C   0  0  1  0  0  0  0  0  0  0  0  0
    8.0141  -14.6247   23.0163 C   0  0  0  0  0  0  0  0  0  0  0  0
    9.2489  -14.6858   23.0477 O   0  0  0  0  0  0  0  0  0  0  0  0
    5.9067  -13.2380   26.6319 C   0  0  0  0  0  0  0  0  0  0  0  0
    7.2309  -12.7468   26.1258 C   0  0  2  0  0  0  0  0  0  0  0  0
    7.0706  -11.4421   25.4052 C   0  0  0  0  0  0  0  0  0  0  0  0
    8.0209  -13.7762   25.4165 C   0  0  2  0  0  0  0  0  0  0  0  0
    7.3257  -14.2047   24.1836 N   0  0  0  0  0  0  0  0  0  0  0  0
    8.4938  -14.9395   26.1663 C   0  0  0  0  0  0  0  0  0  0  0  0
    7.7452  -15.9896   26.3078 O   0  0  0  0  0  0  0  0  0  0  0  0
    9.7392  -15.1068   26.8077 N   0  0  0  0  0  0  0  0  0  0  0  0
   10.1627  -16.3706   27.4428 C   0  0  1  0  0  0  0  0  0  0  0  0
   11.5812  -16.6065   26.9718 C   0  0  0  0  0  0  0  0  0  0  0  0
   11.5287  -17.8110   25.6205 S   0  0  0  0  0  0  0  0  0  0  0  0
   10.1182  -16.2694   28.8996 C   0  0  0  0  0  0  0  0  0  0  0  0
    9.8506  -15.1809   29.4649 O   0  0  0  0  0  0  0  0  0  0  0  0
   10.3706  -17.3736   29.6797 O   0  0  0  0  0  0  0  0  0  0  0  0
  2  3  1  0
  2  1  1  0
  4  3  1  0
  4  5  1  0
  5  1  1  0
  5  6  1  1
  7  6  2  0
  9  8  1  6
  9 11  1  0
 10  9  1  0
 11 13  1  0
 11 12  1  6
 12  6  1  0
 13 15  1  0
 14 13  2  0
 15 16  1  0
 16 17  1  1
 17 18  1  0
 19 16  1  0
 20 19  2  0
 21 19  1  0
M  END
$$$$
