PVC.pdb
     RDKit          3D

 21 21  0  0  1  0  0  0  0  0999 V2000
    8.0814  -14.4119   20.4178 N   0  0  0  0  0  0  0  0  0  0  0  0
    8.1867  -15.6513   19.6919 C   0  0  0  0  0  0  0  0  0  0  0  0
    6.9572  -16.4561   20.0109 C   0  0  0  0  0  0  0  0  0  0  0  0
    6.4275  -15.8922   21.2985 C   0  0  0  0  0  0  0  0  0  0  0  0
    7.1177  -14.5865   21.4615 C   0  0  1  0  0  0  0  0  0  0  0  0
    7.7854  -14.4255   22.7835 C   0  0  0  0  0  0  0  0  0  0  0  0
    9.0067  -14.5838   22.8961 O   0  0  0  0  0  0  0  0  0  0  0  0
    6.3662  -11.7126   25.4096 C   0  0  0  0  0  0  0  0  0  0  0  0
    6.7920  -12.9804   26.0895 C   0  0  2  0  0  0  0  0  0  0  0  0
    7.2957  -12.6954   27.4723 C   0  0  0  0  0  0  0  0  0  0  0  0
    7.6582  -13.8444   25.2588 C   0  0  2  0  0  0  0  0  0  0  0  0
    7.0357  -14.0871   23.9395 N   0  0  0  0  0  0  0  0  0  0  0  0
    8.1534  -15.0975   25.8276 C   0  0  0  0  0  0  0  0  0  0  0  0
    7.3535  -16.0984   26.0310 O   0  0  0  0  0  0  0  0  0  0  0  0
    9.4734  -15.4080   26.2173 N   0  0  0  0  0  0  0  0  0  0  0  0
    9.8687  -16.7155   26.7778 C   0  0  1  0  0  0  0  0  0  0  0  0
   11.2189  -17.0265   26.1697 C   0  0  0  0  0  0  0  0  0  0  0  0
   11.0640  -16.9007   24.3697 S   0  0  0  0  0  0  0  0  0  0  0  0
    9.9655  -16.6573   28.2344 C   0  0  0  0  0  0  0  0  0  0  0  0
    9.8216  -15.5726   28.8497 O   0  0  0  0  0  0  0  0  0  0  0  0
   10.2175  -17.7987   28.9590 O   0  0  0  0  0  0  0  0  0  0  0  0
  2  3  1  0
  2  1  1  0
  4  3  1  0
  4  5  1  0
  5  1  1  0
  5  6  1  1
  7  6  2  0
  9  8  1  6
  9 11  1  0
 10  9  1  0
 11 13  1  0
 11 12  1  6
 12  6  1  0
 13 15  1  0
 14 13  2  0
 15 16  1  0
 16 17  1  6
 17 18  1  0
 19 16  1  0
 20 19  2  0
 21 19  1  0
M  END
$$$$
