PVC.pdb
     RDKit          3D

 21 21  0  0  1  0  0  0  0  0999 V2000
    8.1334  -14.6281   20.3555 N   0  0  0  0  0  0  0  0  0  0  0  0
    8.2605  -15.8995   19.6911 C   0  0  0  0  0  0  0  0  0  0  0  0
    7.0412  -16.7060   20.0433 C   0  0  0  0  0  0  0  0  0  0  0  0
    6.4966  -16.0882   21.2996 C   0  0  0  0  0  0  0  0  0  0  0  0
    7.1670  -14.7661   21.4021 C   0  0  1  0  0  0  0  0  0  0  0  0
    7.8253  -14.5313   22.7177 C   0  0  0  0  0  0  0  0  0  0  0  0
    9.0429  -14.7007   22.8521 O   0  0  0  0  0  0  0  0  0  0  0  0
    6.5054  -11.6713   25.2797 C   0  0  0  0  0  0  0  0  0  0  0  0
    6.8278  -12.9627   25.9719 C   0  0  2  0  0  0  0  0  0  0  0  0
    7.2930  -12.7093   27.3741 C   0  0  0  0  0  0  0  0  0  0  0  0
    7.6729  -13.8763   25.1730 C   0  0  2  0  0  0  0  0  0  0  0  0
    7.0709  -14.1086   23.8424 N   0  0  0  0  0  0  0  0  0  0  0  0
    8.0974  -15.1425   25.7692 C   0  0  0  0  0  0  0  0  0  0  0  0
    7.2679  -16.1327   25.8899 O   0  0  0  0  0  0  0  0  0  0  0  0
    9.3730  -15.4775   26.2706 N   0  0  0  0  0  0  0  0  0  0  0  0
    9.6887  -16.7847   26.8799 C   0  0  1  0  0  0  0  0  0  0  0  0
   10.7987  -17.3696   26.0340 C   0  0  0  0  0  0  0  0  0  0  0  0
   11.4107  -18.8575   26.8655 S   0  0  0  0  0  0  0  0  0  0  0  0
   10.1294  -16.6286   28.2641 C   0  0  0  0  0  0  0  0  0  0  0  0
   10.6368  -15.5523   28.6642 O   0  0  0  0  0  0  0  0  0  0  0  0
    9.9938  -17.6662   29.1564 O   0  0  0  0  0  0  0  0  0  0  0  0
  2  3  1  0
  2  1  1  0
  4  3  1  0
  4  5  1  0
  5  1  1  0
  5  6  1  1
  7  6  2  0
  9  8  1  6
  9 11  1  0
 10  9  1  0
 11 13  1  0
 11 12  1  6
 12  6  1  0
 13 15  1  0
 14 13  2  0
 15 16  1  0
 16 17  1  6
 17 18  1  0
 19 16  1  0
 20 19  2  0
 21 19  1  0
M  END
$$$$
