PVC.pdb
     RDKit          3D

 21 21  0  0  1  0  0  0  0  0999 V2000
    7.9850  -14.7548   20.5539 N   0  0  0  0  0  0  0  0  0  0  0  0
    8.1483  -16.0132   19.8727 C   0  0  0  0  0  0  0  0  0  0  0  0
    7.0153  -16.9013   20.3074 C   0  0  0  0  0  0  0  0  0  0  0  0
    6.5244  -16.3248   21.6048 C   0  0  0  0  0  0  0  0  0  0  0  0
    7.1098  -14.9606   21.6676 C   0  0  1  0  0  0  0  0  0  0  0  0
    7.8460  -14.6848   22.9330 C   0  0  0  0  0  0  0  0  0  0  0  0
    9.0814  -14.7295   22.9659 O   0  0  0  0  0  0  0  0  0  0  0  0
    6.5952  -11.8606   25.4931 C   0  0  0  0  0  0  0  0  0  0  0  0
    6.9957  -13.1184   26.2061 C   0  0  2  0  0  0  0  0  0  0  0  0
    7.5216  -12.8059   27.5746 C   0  0  0  0  0  0  0  0  0  0  0  0
    7.8304  -14.0287   25.3927 C   0  0  2  0  0  0  0  0  0  0  0  0
    7.1467  -14.3652   24.1254 N   0  0  0  0  0  0  0  0  0  0  0  0
    8.3684  -15.2361   26.0185 C   0  0  0  0  0  0  0  0  0  0  0  0
    7.5930  -16.2315   26.3205 O   0  0  0  0  0  0  0  0  0  0  0  0
    9.7083  -15.5046   26.3693 N   0  0  0  0  0  0  0  0  0  0  0  0
   10.1516  -16.7792   26.9682 C   0  0  1  0  0  0  0  0  0  0  0  0
   11.5207  -17.0485   26.3830 C   0  0  0  0  0  0  0  0  0  0  0  0
   11.3672  -17.0501   24.5785 S   0  0  0  0  0  0  0  0  0  0  0  0
   10.2287  -16.6794   28.4237 C   0  0  0  0  0  0  0  0  0  0  0  0
   10.0363  -15.5852   29.0084 O   0  0  0  0  0  0  0  0  0  0  0  0
   10.5152  -17.7910   29.1811 O   0  0  0  0  0  0  0  0  0  0  0  0
  2  3  1  0
  2  1  1  0
  4  3  1  0
  4  5  1  0
  5  1  1  0
  5  6  1  1
  7  6  2  0
  9  8  1  6
  9 11  1  0
 10  9  1  0
 11 13  1  0
 11 12  1  6
 12  6  1  0
 13 15  1  0
 14 13  2  0
 15 16  1  0
 16 17  1  6
 17 18  1  0
 19 16  1  0
 20 19  2  0
 21 19  1  0
M  END
$$$$
