PVC.pdb
     RDKit          3D

 21 21  0  0  1  0  0  0  0  0999 V2000
    8.4040  -15.1705   20.8229 N   0  0  0  0  0  0  0  0  0  0  0  0
    8.9266  -16.4217   20.3377 C   0  0  0  0  0  0  0  0  0  0  0  0
    8.0573  -17.5119   20.9008 C   0  0  0  0  0  0  0  0  0  0  0  0
    7.3775  -16.9096   22.0974 C   0  0  0  0  0  0  0  0  0  0  0  0
    7.5719  -15.4434   21.9550 C   0  0  1  0  0  0  0  0  0  0  0  0
    8.1551  -14.7985   23.1647 C   0  0  0  0  0  0  0  0  0  0  0  0
    9.3545  -14.4997   23.2031 O   0  0  0  0  0  0  0  0  0  0  0  0
    6.3603  -11.9452   25.3240 C   0  0  0  0  0  0  0  0  0  0  0  0
    6.8621  -13.0654   26.1866 C   0  0  2  0  0  0  0  0  0  0  0  0
    7.2112  -12.5633   27.5552 C   0  0  0  0  0  0  0  0  0  0  0  0
    7.8855  -13.9113   25.5355 C   0  0  2  0  0  0  0  0  0  0  0  0
    7.3483  -14.5135   24.2963 N   0  0  0  0  0  0  0  0  0  0  0  0
    8.5753  -14.9219   26.3366 C   0  0  0  0  0  0  0  0  0  0  0  0
    7.9753  -16.0179   26.6859 O   0  0  0  0  0  0  0  0  0  0  0  0
    9.8988  -14.8837   26.8238 N   0  0  0  0  0  0  0  0  0  0  0  0
   10.4877  -15.9483   27.6603 C   0  0  1  0  0  0  0  0  0  0  0  0
   11.9530  -15.9952   27.2857 C   0  0  0  0  0  0  0  0  0  0  0  0
   12.0648  -16.2155   25.4916 S   0  0  0  0  0  0  0  0  0  0  0  0
   10.3331  -15.6482   29.0817 C   0  0  0  0  0  0  0  0  0  0  0  0
    9.8733  -14.5443   29.4638 O   0  0  0  0  0  0  0  0  0  0  0  0
   10.6915  -16.5776   30.0298 O   0  0  0  0  0  0  0  0  0  0  0  0
  2  3  1  0
  2  1  1  0
  4  3  1  0
  4  5  1  0
  5  1  1  0
  5  6  1  1
  7  6  2  0
  9  8  1  6
  9 11  1  0
 10  9  1  0
 11 13  1  0
 11 12  1  6
 12  6  1  0
 13 15  1  0
 14 13  2  0
 15 16  1  0
 16 17  1  6
 17 18  1  0
 19 16  1  0
 20 19  2  0
 21 19  1  0
M  END
$$$$
