PVC.pdb
     RDKit          3D

 21 21  0  0  1  0  0  0  0  0999 V2000
    8.2358  -14.5320   20.5574 N   0  0  0  0  0  0  0  0  0  0  0  0
    8.3114  -15.7950   19.8694 C   0  0  0  0  0  0  0  0  0  0  0  0
    7.0372  -16.5365   20.1655 C   0  0  0  0  0  0  0  0  0  0  0  0
    6.4884  -15.9138   21.4175 C   0  0  0  0  0  0  0  0  0  0  0  0
    7.2296  -14.6350   21.5701 C   0  0  1  0  0  0  0  0  0  0  0  0
    7.8573  -14.4654   22.9104 C   0  0  0  0  0  0  0  0  0  0  0  0
    9.0578  -14.7097   23.0795 O   0  0  0  0  0  0  0  0  0  0  0  0
    6.4471  -11.6590   25.5227 C   0  0  0  0  0  0  0  0  0  0  0  0
    6.7984  -12.9581   26.1856 C   0  0  2  0  0  0  0  0  0  0  0  0
    7.2529  -12.7266   27.5952 C   0  0  0  0  0  0  0  0  0  0  0  0
    7.6680  -13.8320   25.3688 C   0  0  2  0  0  0  0  0  0  0  0  0
    7.0928  -14.0202   24.0195 N   0  0  0  0  0  0  0  0  0  0  0  0
    8.0956  -15.1154   25.9248 C   0  0  0  0  0  0  0  0  0  0  0  0
    7.2579  -16.0978   26.0526 O   0  0  0  0  0  0  0  0  0  0  0  0
    9.3825  -15.4761   26.3768 N   0  0  0  0  0  0  0  0  0  0  0  0
    9.7154  -16.8186   26.8934 C   0  0  1  0  0  0  0  0  0  0  0  0
   10.7709  -17.3640   25.9564 C   0  0  0  0  0  0  0  0  0  0  0  0
   12.1779  -16.2239   25.9746 S   0  0  0  0  0  0  0  0  0  0  0  0
   10.2321  -16.7453   28.2579 C   0  0  0  0  0  0  0  0  0  0  0  0
   10.5835  -17.7814   28.8735 O   0  0  0  0  0  0  0  0  0  0  0  0
   10.3424  -15.5307   28.8936 O   0  0  0  0  0  0  0  0  0  0  0  0
  2  3  1  0
  2  1  1  0
  4  3  1  0
  4  5  1  0
  5  1  1  0
  5  6  1  1
  7  6  2  0
  9  8  1  6
  9 11  1  0
 10  9  1  0
 11 13  1  0
 11 12  1  6
 12  6  1  0
 13 15  1  0
 14 13  2  0
 15 16  1  0
 16 17  1  6
 17 18  1  0
 19 16  1  0
 20 19  2  0
 21 19  1  0
M  END
$$$$
