PVC.pdb
     RDKit          3D

 21 21  0  0  1  0  0  0  0  0999 V2000
    9.2068  -15.3148   13.7423 N   0  0  0  0  0  0  0  0  0  0  0  0
    9.6542  -16.5555   13.1639 C   0  0  0  0  0  0  0  0  0  0  0  0
    8.8035  -17.6484   13.7497 C   0  0  0  0  0  0  0  0  0  0  0  0
    8.2390  -17.0835   15.0221 C   0  0  0  0  0  0  0  0  0  0  0  0
    8.4614  -15.6175   14.9261 C   0  0  1  0  0  0  0  0  0  0  0  0
    9.1577  -15.0408   16.1102 C   0  0  0  0  0  0  0  0  0  0  0  0
   10.3911  -14.9560   16.1364 O   0  0  0  0  0  0  0  0  0  0  0  0
    8.6883  -12.5006   20.3867 C   0  0  0  0  0  0  0  0  0  0  0  0
    8.0804  -13.2733   19.2535 C   0  0  2  0  0  0  0  0  0  0  0  0
    6.8988  -14.0649   19.7271 C   0  0  0  0  0  0  0  0  0  0  0  0
    9.0649  -14.0187   18.4399 C   0  0  2  0  0  0  0  0  0  0  0  0
    8.4217  -14.5768   17.2309 N   0  0  0  0  0  0  0  0  0  0  0  0
    9.8916  -15.0333   19.0926 C   0  0  0  0  0  0  0  0  0  0  0  0
    9.4888  -16.2633   19.1827 O   0  0  0  0  0  0  0  0  0  0  0  0
   11.1615  -14.8646   19.6839 N   0  0  0  0  0  0  0  0  0  0  0  0
   11.8972  -15.9555   20.3536 C   0  0  1  0  0  0  0  0  0  0  0  0
   13.1938  -16.1012   19.5873 C   0  0  0  0  0  0  0  0  0  0  0  0
   13.9730  -14.4691   19.4911 S   0  0  0  0  0  0  0  0  0  0  0  0
   12.1644  -15.6301   21.7526 C   0  0  0  0  0  0  0  0  0  0  0  0
   11.7959  -14.5353   22.2442 O   0  0  0  0  0  0  0  0  0  0  0  0
   12.8287  -16.5251   22.5583 O   0  0  0  0  0  0  0  0  0  0  0  0
  2  3  1  0
  2  1  1  0
  4  3  1  0
  4  5  1  0
  5  1  1  0
  5  6  1  1
  7  6  2  0
  9  8  1  1
  9 11  1  0
 10  9  1  0
 11 13  1  0
 11 12  1  6
 12  6  1  0
 13 15  1  0
 14 13  2  0
 15 16  1  0
 16 17  1  6
 17 18  1  0
 19 16  1  0
 20 19  2  0
 21 19  1  0
M  END
$$$$
