YHE.pdb
     RDKit          3D

 32 33  0  0  1  0  0  0  0  0999 V2000
   26.6041  -32.1754  -10.3853 O   0  0  0  0  0  0  0  0  0  0  0  0
   26.1296  -32.2591   -9.0647 C   0  0  0  0  0  0  0  0  0  0  0  0
   26.8605  -32.9158   -8.0976 C   0  0  0  0  0  0  0  0  0  0  0  0
   26.3953  -33.0041   -6.7792 C   0  0  0  0  0  0  0  0  0  0  0  0
   25.1959  -32.4283   -6.4489 C   0  0  0  0  0  0  0  0  0  0  0  0
   24.7010  -32.5173   -5.0638 C   0  0  0  0  0  0  0  0  0  0  0  0
   24.0426  -33.8876   -4.8949 C   0  0  2  0  0  0  0  0  0  0  0  0
   22.7956  -33.9622   -5.6305 N   0  0  0  0  0  0  0  0  0  0  0  0
   23.8294  -34.0919   -3.4403 C   0  0  0  0  0  0  0  0  0  0  0  0
   22.7023  -33.8433   -2.9452 O   0  0  0  0  0  0  0  0  0  0  0  0
   24.4688  -31.7773   -7.4026 C   0  0  0  0  0  0  0  0  0  0  0  0
   24.9237  -31.6840   -8.7184 C   0  0  0  0  0  0  0  0  0  0  0  0
   24.9168  -34.5634   -2.6638 N   0  0  0  0  0  0  0  0  0  0  0  0
   24.7235  -34.9976   -1.3022 C   0  0  1  0  0  0  0  0  0  0  0  0
   24.6973  -36.4648   -1.1564 C   0  0  0  0  0  0  0  0  0  0  0  0
   23.3497  -37.0276   -1.2428 C   0  0  0  0  0  0  0  0  0  0  0  0
   22.1488  -36.4613   -1.0058 C   0  0  0  0  0  0  0  0  0  0  0  0
   21.1720  -37.3972   -1.2011 N   0  0  0  0  0  0  0  0  0  0  0  0
   21.7598  -38.5470   -1.5592 C   0  0  0  0  0  0  0  0  0  0  0  0
   23.0733  -38.3223   -1.5838 N   0  0  0  0  0  0  0  0  0  0  0  0
   25.7997  -34.3608   -0.4784 C   0  0  0  0  0  0  0  0  0  0  0  0
   26.9507  -34.3567   -0.9608 O   0  0  0  0  0  0  0  0  0  0  0  0
   25.5838  -33.7822    0.7793 N   0  0  0  0  0  0  0  0  0  0  0  0
   26.6097  -33.1646    1.5936 C   0  0  1  0  0  0  0  0  0  0  0  0
   26.0876  -32.5037    2.8165 C   0  0  0  0  0  0  0  0  0  0  0  0
   27.0532  -31.7530    3.6547 C   0  0  0  0  0  0  0  0  0  0  0  0
   26.4329  -31.0602    4.8019 C   0  0  0  0  0  0  0  0  0  0  0  0
   26.0384  -31.6218    5.8510 O   0  0  0  0  0  0  0  0  0  0  0  0
   27.7072  -34.1140    1.7787 C   0  0  0  0  0  0  0  0  0  0  0  0
   27.4995  -35.3300    1.9965 O   0  0  0  0  0  0  0  0  0  0  0  0
   26.2506  -29.6672    4.7597 O   0  0  0  0  0  0  0  0  0  0  0  0
   29.0187  -33.6873    1.7191 O   0  0  0  0  0  0  0  0  0  0  0  0
  2 12  2  0
  2  1  1  0
  3  2  1  0
  4  5  1  0
  4  3  2  0
  5 11  2  0
  6  5  1  0
  7  9  1  0
  7  6  1  0
  7  8  1  6
  9 10  2  0
 11 12  1  0
 13  9  1  0
 14 13  1  0
 14 15  1  6
 16 15  1  0
 16 17  2  0
 18 17  1  0
 19 18  1  0
 20 19  2  0
 20 16  1  0
 21 14  1  0
 22 21  2  0
 23 21  1  0
 24 23  1  0
 24 25  1  1
 26 25  1  0
 27 31  1  0
 27 26  1  0
 28 27  2  0
 29 24  1  0
 29 32  1  0
 30 29  2  0
M  END
$$$$
