YHE.pdb
     RDKit          3D

 32 33  0  0  1  0  0  0  0  0999 V2000
   17.5888  -24.3673    2.6135 O   0  0  0  0  0  0  0  0  0  0  0  0
   18.1261  -25.5015    1.9803 C   0  0  0  0  0  0  0  0  0  0  0  0
   17.3089  -26.3737    1.2931 C   0  0  0  0  0  0  0  0  0  0  0  0
   17.8357  -27.5063    0.6591 C   0  0  0  0  0  0  0  0  0  0  0  0
   19.1834  -27.7483    0.7246 C   0  0  0  0  0  0  0  0  0  0  0  0
   19.7440  -28.9379    0.0596 C   0  0  0  0  0  0  0  0  0  0  0  0
   20.0605  -28.5532   -1.3867 C   0  0  2  0  0  0  0  0  0  0  0  0
   18.8456  -28.3329   -2.1464 N   0  0  0  0  0  0  0  0  0  0  0  0
   20.8705  -29.6555   -1.9630 C   0  0  0  0  0  0  0  0  0  0  0  0
   20.2865  -30.6522   -2.4557 O   0  0  0  0  0  0  0  0  0  0  0  0
   19.9964  -26.8880    1.4036 C   0  0  0  0  0  0  0  0  0  0  0  0
   19.4812  -25.7572    2.0382 C   0  0  0  0  0  0  0  0  0  0  0  0
   22.2819  -29.5357   -1.9329 N   0  0  0  0  0  0  0  0  0  0  0  0
   23.1270  -30.5822   -2.4533 C   0  0  1  0  0  0  0  0  0  0  0  0
   24.4971  -30.1286   -2.7560 C   0  0  0  0  0  0  0  0  0  0  0  0
   25.3304  -31.1727   -3.3525 C   0  0  0  0  0  0  0  0  0  0  0  0
   25.3362  -31.6788   -4.6027 C   0  0  0  0  0  0  0  0  0  0  0  0
   26.2861  -32.6587   -4.6788 N   0  0  0  0  0  0  0  0  0  0  0  0
   26.8735  -32.7662   -3.4791 C   0  0  0  0  0  0  0  0  0  0  0  0
   26.2957  -31.8692   -2.6804 N   0  0  0  0  0  0  0  0  0  0  0  0
   23.1025  -31.7040   -1.4618 C   0  0  0  0  0  0  0  0  0  0  0  0
   23.0030  -31.3903   -0.2581 O   0  0  0  0  0  0  0  0  0  0  0  0
   23.1841  -33.0586   -1.8104 N   0  0  0  0  0  0  0  0  0  0  0  0
   23.2840  -34.1519   -0.8661 C   0  0  1  0  0  0  0  0  0  0  0  0
   24.6391  -34.3182   -0.2822 C   0  0  0  0  0  0  0  0  0  0  0  0
   24.7992  -35.3141    0.8046 C   0  0  0  0  0  0  0  0  0  0  0  0
   26.1513  -35.3354    1.3981 C   0  0  0  0  0  0  0  0  0  0  0  0
   26.4403  -34.9046    2.5393 O   0  0  0  0  0  0  0  0  0  0  0  0
   22.1688  -34.0703    0.0774 C   0  0  0  0  0  0  0  0  0  0  0  0
   21.0331  -33.6759   -0.2745 O   0  0  0  0  0  0  0  0  0  0  0  0
   27.2259  -35.8690    0.6661 O   0  0  0  0  0  0  0  0  0  0  0  0
   22.3429  -34.4295    1.3988 O   0  0  0  0  0  0  0  0  0  0  0  0
  2 12  2  0
  2  1  1  0
  3  2  1  0
  4  5  1  0
  4  3  2  0
  5 11  2  0
  6  5  1  0
  7  9  1  0
  7  6  1  0
  7  8  1  6
  9 10  2  0
 11 12  1  0
 13  9  1  0
 14 13  1  0
 14 15  1  1
 16 15  1  0
 16 17  2  0
 18 17  1  0
 19 18  1  0
 20 19  2  0
 20 16  1  0
 21 14  1  0
 22 21  2  0
 23 21  1  0
 24 23  1  0
 24 25  1  1
 26 25  1  0
 27 31  1  0
 27 26  1  0
 28 27  2  0
 29 24  1  0
 29 32  1  0
 30 29  2  0
M  END
$$$$
