YHE.pdb
     RDKit          3D

 32 33  0  0  1  0  0  0  0  0999 V2000
   18.3359  -25.1758   -3.3882 O   0  0  0  0  0  0  0  0  0  0  0  0
   18.7656  -25.7110   -2.1615 C   0  0  0  0  0  0  0  0  0  0  0  0
   19.8674  -26.5379   -2.1051 C   0  0  0  0  0  0  0  0  0  0  0  0
   20.3027  -27.0758   -0.8871 C   0  0  0  0  0  0  0  0  0  0  0  0
   19.6215  -26.7738    0.2636 C   0  0  0  0  0  0  0  0  0  0  0  0
   20.0745  -27.3361    1.5482 C   0  0  0  0  0  0  0  0  0  0  0  0
   19.3391  -28.6608    1.7583 C   0  0  2  0  0  0  0  0  0  0  0  0
   17.9338  -28.4395    2.0371 N   0  0  0  0  0  0  0  0  0  0  0  0
   20.0131  -29.3596    2.8810 C   0  0  0  0  0  0  0  0  0  0  0  0
   19.8478  -28.9385    4.0526 O   0  0  0  0  0  0  0  0  0  0  0  0
   18.5305  -25.9559    0.2130 C   0  0  0  0  0  0  0  0  0  0  0  0
   18.0892  -25.4153   -0.9953 C   0  0  0  0  0  0  0  0  0  0  0  0
   20.8225  -30.4832    2.5810 N   0  0  0  0  0  0  0  0  0  0  0  0
   21.4914  -31.2167    3.6271 C   0  0  1  0  0  0  0  0  0  0  0  0
   21.0484  -32.6195    3.7304 C   0  0  0  0  0  0  0  0  0  0  0  0
   19.7660  -32.7688    4.4184 C   0  0  0  0  0  0  0  0  0  0  0  0
   19.3715  -32.3407    5.6350 C   0  0  0  0  0  0  0  0  0  0  0  0
   18.0823  -32.7415    5.8484 N   0  0  0  0  0  0  0  0  0  0  0  0
   17.6706  -33.4193    4.7682 C   0  0  0  0  0  0  0  0  0  0  0  0
   18.6874  -33.4348    3.9067 N   0  0  0  0  0  0  0  0  0  0  0  0
   22.9632  -31.0994    3.3774 C   0  0  0  0  0  0  0  0  0  0  0  0
   23.3195  -30.8761    2.2024 O   0  0  0  0  0  0  0  0  0  0  0  0
   23.9389  -31.2251    4.3751 N   0  0  0  0  0  0  0  0  0  0  0  0
   25.3638  -31.0775    4.1630 C   0  0  1  0  0  0  0  0  0  0  0  0
   26.0969  -30.5666    5.3489 C   0  0  0  0  0  0  0  0  0  0  0  0
   26.4279  -29.1217    5.3795 C   0  0  0  0  0  0  0  0  0  0  0  0
   27.0797  -28.6866    6.6312 C   0  0  0  0  0  0  0  0  0  0  0  0
   27.2003  -29.3927    7.6600 O   0  0  0  0  0  0  0  0  0  0  0  0
   25.8830  -32.2985    3.5467 C   0  0  0  0  0  0  0  0  0  0  0  0
   25.3511  -33.4156    3.7430 O   0  0  0  0  0  0  0  0  0  0  0  0
   27.6201  -27.3924    6.7227 O   0  0  0  0  0  0  0  0  0  0  0  0
   26.9895  -32.2501    2.7227 O   0  0  0  0  0  0  0  0  0  0  0  0
  2 12  2  0
  2  1  1  0
  3  2  1  0
  4  5  1  0
  4  3  2  0
  5 11  2  0
  6  5  1  0
  7  9  1  0
  7  6  1  0
  7  8  1  1
  9 10  2  0
 11 12  1  0
 13  9  1  0
 14 13  1  0
 14 15  1  6
 16 15  1  0
 16 17  2  0
 18 17  1  0
 19 18  1  0
 20 19  2  0
 20 16  1  0
 21 14  1  0
 22 21  2  0
 23 21  1  0
 24 23  1  0
 24 25  1  1
 26 25  1  0
 27 31  1  0
 27 26  1  0
 28 27  2  0
 29 24  1  0
 29 32  1  0
 30 29  2  0
M  END
$$$$
