YHE.pdb
     RDKit          3D

 32 33  0  0  1  0  0  0  0  0999 V2000
   25.9388  -19.0531  -23.7876 O   0  0  0  0  0  0  0  0  0  0  0  0
   25.3879  -19.3078  -22.5196 C   0  0  0  0  0  0  0  0  0  0  0  0
   24.3226  -18.5653  -22.0563 C   0  0  0  0  0  0  0  0  0  0  0  0
   23.7674  -18.8121  -20.7941 C   0  0  0  0  0  0  0  0  0  0  0  0
   24.2929  -19.8068  -20.0107 C   0  0  0  0  0  0  0  0  0  0  0  0
   23.7132  -20.0717  -18.6820 C   0  0  0  0  0  0  0  0  0  0  0  0
   24.4144  -19.1530  -17.6799 C   0  0  2  0  0  0  0  0  0  0  0  0
   25.8544  -19.3045  -17.7513 N   0  0  0  0  0  0  0  0  0  0  0  0
   23.8967  -19.5020  -16.3332 C   0  0  0  0  0  0  0  0  0  0  0  0
   24.7017  -19.8780  -15.4456 O   0  0  0  0  0  0  0  0  0  0  0  0
   25.3473  -20.5444  -20.4648 C   0  0  0  0  0  0  0  0  0  0  0  0
   25.9071  -20.3061  -21.7205 C   0  0  0  0  0  0  0  0  0  0  0  0
   22.5027  -19.3952  -16.1035 N   0  0  0  0  0  0  0  0  0  0  0  0
   21.9452  -19.6375  -14.7957 C   0  0  1  0  0  0  0  0  0  0  0  0
   22.0490  -18.4757  -13.8933 C   0  0  0  0  0  0  0  0  0  0  0  0
   21.5441  -18.7459  -12.5470 C   0  0  0  0  0  0  0  0  0  0  0  0
   20.4333  -18.3014  -11.9243 C   0  0  0  0  0  0  0  0  0  0  0  0
   20.4006  -18.8150  -10.6581 N   0  0  0  0  0  0  0  0  0  0  0  0
   21.4884  -19.5789  -10.4881 C   0  0  0  0  0  0  0  0  0  0  0  0
   22.1770  -19.5360  -11.6284 N   0  0  0  0  0  0  0  0  0  0  0  0
   20.5290  -20.0817  -14.9944 C   0  0  0  0  0  0  0  0  0  0  0  0
   19.8277  -19.3993  -15.7688 O   0  0  0  0  0  0  0  0  0  0  0  0
   19.9645  -21.2007  -14.3680 N   0  0  0  0  0  0  0  0  0  0  0  0
   18.5631  -21.5612  -14.4232 C   0  0  1  0  0  0  0  0  0  0  0  0
   18.2553  -22.8701  -13.7935 C   0  0  0  0  0  0  0  0  0  0  0  0
   16.8425  -23.3201  -13.8041 C   0  0  0  0  0  0  0  0  0  0  0  0
   16.5320  -24.2816  -14.8812 C   0  0  0  0  0  0  0  0  0  0  0  0
   15.4099  -24.4119  -15.4247 O   0  0  0  0  0  0  0  0  0  0  0  0
   17.7594  -20.4188  -13.9880 C   0  0  0  0  0  0  0  0  0  0  0  0
   16.8061  -19.9820  -14.6733 O   0  0  0  0  0  0  0  0  0  0  0  0
   17.5382  -25.1351  -15.3654 O   0  0  0  0  0  0  0  0  0  0  0  0
   18.0364  -19.7829  -12.7945 O   0  0  0  0  0  0  0  0  0  0  0  0
  2 12  2  0
  2  1  1  0
  3  2  1  0
  4  5  1  0
  4  3  2  0
  5 11  2  0
  6  5  1  0
  7  9  1  0
  7  6  1  0
  7  8  1  1
  9 10  2  0
 11 12  1  0
 13  9  1  0
 14 13  1  0
 14 15  1  1
 16 15  1  0
 16 17  2  0
 18 17  1  0
 19 18  1  0
 20 19  2  0
 20 16  1  0
 21 14  1  0
 22 21  2  0
 23 21  1  0
 24 23  1  0
 24 25  1  1
 26 25  1  0
 27 31  1  0
 27 26  1  0
 28 27  2  0
 29 24  1  0
 29 32  1  0
 30 29  2  0
M  END
$$$$
