YHE.pdb
     RDKit          3D

 32 33  0  0  1  0  0  0  0  0999 V2000
   28.7311  -20.0238   -4.2808 O   0  0  0  0  0  0  0  0  0  0  0  0
   28.0343  -19.9513   -5.4995 C   0  0  0  0  0  0  0  0  0  0  0  0
   27.0957  -20.9061   -5.8282 C   0  0  0  0  0  0  0  0  0  0  0  0
   26.3967  -20.8418   -7.0404 C   0  0  0  0  0  0  0  0  0  0  0  0
   26.6517  -19.8136   -7.9104 C   0  0  0  0  0  0  0  0  0  0  0  0
   25.9196  -19.7399   -9.1872 C   0  0  0  0  0  0  0  0  0  0  0  0
   26.3006  -20.9715  -10.0105 C   0  0  2  0  0  0  0  0  0  0  0  0
   27.7398  -21.0916  -10.1353 N   0  0  0  0  0  0  0  0  0  0  0  0
   25.6495  -20.8271  -11.3366 C   0  0  0  0  0  0  0  0  0  0  0  0
   26.1610  -20.0611  -12.1903 O   0  0  0  0  0  0  0  0  0  0  0  0
   27.5798  -18.8661   -7.5897 C   0  0  0  0  0  0  0  0  0  0  0  0
   28.2812  -18.9215   -6.3847 C   0  0  0  0  0  0  0  0  0  0  0  0
   24.4669  -21.5666  -11.5860 N   0  0  0  0  0  0  0  0  0  0  0  0
   23.7992  -21.4906  -12.8621 C   0  0  1  0  0  0  0  0  0  0  0  0
   23.9000  -22.7345  -13.6478 C   0  0  0  0  0  0  0  0  0  0  0  0
   25.1823  -22.8771  -14.3375 C   0  0  0  0  0  0  0  0  0  0  0  0
   26.1698  -21.9814  -14.5414 C   0  0  0  0  0  0  0  0  0  0  0  0
   27.1668  -22.5782  -15.2610 N   0  0  0  0  0  0  0  0  0  0  0  0
   26.8045  -23.8446  -15.5075 C   0  0  0  0  0  0  0  0  0  0  0  0
   25.6072  -24.0231  -14.9498 N   0  0  0  0  0  0  0  0  0  0  0  0
   22.3793  -21.0972  -12.5950 C   0  0  0  0  0  0  0  0  0  0  0  0
   21.8985  -21.4348  -11.4941 O   0  0  0  0  0  0  0  0  0  0  0  0
   21.5812  -20.3846  -13.4997 N   0  0  0  0  0  0  0  0  0  0  0  0
   20.1796  -20.0777  -13.3036 C   0  0  1  0  0  0  0  0  0  0  0  0
   19.7143  -18.8885  -14.0613 C   0  0  0  0  0  0  0  0  0  0  0  0
   20.1188  -17.5539  -13.5575 C   0  0  0  0  0  0  0  0  0  0  0  0
   19.5205  -16.4292  -14.3044 C   0  0  0  0  0  0  0  0  0  0  0  0
   18.8935  -16.5383  -15.3844 O   0  0  0  0  0  0  0  0  0  0  0  0
   19.3966  -21.3034  -13.4612 C   0  0  0  0  0  0  0  0  0  0  0  0
   19.7586  -22.2247  -14.2291 O   0  0  0  0  0  0  0  0  0  0  0  0
   19.6372  -15.1204  -13.8056 O   0  0  0  0  0  0  0  0  0  0  0  0
   18.2210  -21.4776  -12.7590 O   0  0  0  0  0  0  0  0  0  0  0  0
  2 12  2  0
  2  1  1  0
  3  2  1  0
  4  5  1  0
  4  3  2  0
  5 11  2  0
  6  5  1  0
  7  9  1  0
  7  6  1  0
  7  8  1  6
  9 10  2  0
 11 12  1  0
 13  9  1  0
 14 13  1  0
 14 15  1  1
 16 15  1  0
 16 17  2  0
 18 17  1  0
 19 18  1  0
 20 19  2  0
 20 16  1  0
 21 14  1  0
 22 21  2  0
 23 21  1  0
 24 23  1  0
 24 25  1  6
 26 25  1  0
 27 31  1  0
 27 26  1  0
 28 27  2  0
 29 24  1  0
 29 32  1  0
 30 29  2  0
M  END
$$$$
