YHE.pdb
     RDKit          3D

 32 33  0  0  1  0  0  0  0  0999 V2000
   24.4568  -31.5848   -9.9910 O   0  0  0  0  0  0  0  0  0  0  0  0
   25.1487  -32.1229   -8.8920 C   0  0  0  0  0  0  0  0  0  0  0  0
   26.5025  -32.3719   -8.9699 C   0  0  0  0  0  0  0  0  0  0  0  0
   27.2002  -32.9080   -7.8798 C   0  0  0  0  0  0  0  0  0  0  0  0
   26.5245  -33.1880   -6.7204 C   0  0  0  0  0  0  0  0  0  0  0  0
   27.2525  -33.7518   -5.5699 C   0  0  0  0  0  0  0  0  0  0  0  0
   27.9840  -35.0049   -6.0544 C   0  0  2  0  0  0  0  0  0  0  0  0
   27.1012  -35.8610   -6.8221 N   0  0  0  0  0  0  0  0  0  0  0  0
   28.5031  -35.6991   -4.8495 C   0  0  0  0  0  0  0  0  0  0  0  0
   27.8426  -36.6464   -4.3557 O   0  0  0  0  0  0  0  0  0  0  0  0
   25.1845  -32.9434   -6.6384 C   0  0  0  0  0  0  0  0  0  0  0  0
   24.4809  -32.4096   -7.7187 C   0  0  0  0  0  0  0  0  0  0  0  0
   29.7337  -35.2599   -4.3017 N   0  0  0  0  0  0  0  0  0  0  0  0
   30.3627  -35.9768   -3.2199 C   0  0  1  0  0  0  0  0  0  0  0  0
   31.8035  -35.6903   -3.0906 C   0  0  0  0  0  0  0  0  0  0  0  0
   32.6319  -36.4851   -3.9974 C   0  0  0  0  0  0  0  0  0  0  0  0
   32.3272  -37.5750   -4.7311 C   0  0  0  0  0  0  0  0  0  0  0  0
   33.4434  -37.9782   -5.4090 N   0  0  0  0  0  0  0  0  0  0  0  0
   34.4449  -37.1430   -5.1003 C   0  0  0  0  0  0  0  0  0  0  0  0
   33.9537  -36.2432   -4.2487 N   0  0  0  0  0  0  0  0  0  0  0  0
   29.6013  -35.6512   -1.9723 C   0  0  0  0  0  0  0  0  0  0  0  0
   29.2473  -34.4641   -1.8217 O   0  0  0  0  0  0  0  0  0  0  0  0
   29.2737  -36.5922   -0.9872 N   0  0  0  0  0  0  0  0  0  0  0  0
   28.4435  -36.3255    0.1690 C   0  0  1  0  0  0  0  0  0  0  0  0
   27.8444  -37.5435    0.7709 C   0  0  0  0  0  0  0  0  0  0  0  0
   26.9831  -37.3651    1.9646 C   0  0  0  0  0  0  0  0  0  0  0  0
   26.5003  -38.6340    2.5454 C   0  0  0  0  0  0  0  0  0  0  0  0
   26.6813  -39.7678    2.0422 O   0  0  0  0  0  0  0  0  0  0  0  0
   29.1628  -35.4313    1.0764 C   0  0  0  0  0  0  0  0  0  0  0  0
   30.4144  -35.3888    1.1077 O   0  0  0  0  0  0  0  0  0  0  0  0
   25.7793  -38.6190    3.7518 O   0  0  0  0  0  0  0  0  0  0  0  0
   28.4704  -34.6010    1.9347 O   0  0  0  0  0  0  0  0  0  0  0  0
  2 12  2  0
  2  1  1  0
  3  2  1  0
  4  5  1  0
  4  3  2  0
  5 11  2  0
  6  5  1  0
  7  9  1  0
  7  6  1  0
  7  8  1  1
  9 10  2  0
 11 12  1  0
 13  9  1  0
 14 13  1  0
 14 15  1  1
 16 15  1  0
 16 17  2  0
 18 17  1  0
 19 18  1  0
 20 19  2  0
 20 16  1  0
 21 14  1  0
 22 21  2  0
 23 21  1  0
 24 23  1  0
 24 25  1  1
 26 25  1  0
 27 31  1  0
 27 26  1  0
 28 27  2  0
 29 24  1  0
 29 32  1  0
 30 29  2  0
M  END
$$$$
