YHE.pdb
     RDKit          3D

 32 33  0  0  1  0  0  0  0  0999 V2000
   25.6779  -20.2301   -7.8429 O   0  0  0  0  0  0  0  0  0  0  0  0
   25.6156  -20.1395   -9.2444 C   0  0  0  0  0  0  0  0  0  0  0  0
   26.7208  -20.4306  -10.0154 C   0  0  0  0  0  0  0  0  0  0  0  0
   26.6678  -20.3431  -11.4124 C   0  0  0  0  0  0  0  0  0  0  0  0
   25.4988  -19.9622  -12.0189 C   0  0  0  0  0  0  0  0  0  0  0  0
   25.4363  -19.8685  -13.4881 C   0  0  0  0  0  0  0  0  0  0  0  0
   24.9638  -21.2233  -14.0184 C   0  0  2  0  0  0  0  0  0  0  0  0
   26.0736  -21.9951  -14.5421 N   0  0  0  0  0  0  0  0  0  0  0  0
   23.9482  -20.9506  -15.0660 C   0  0  0  0  0  0  0  0  0  0  0  0
   24.3163  -20.8355  -16.2612 O   0  0  0  0  0  0  0  0  0  0  0  0
   24.4022  -19.6731  -11.2601 C   0  0  0  0  0  0  0  0  0  0  0  0
   24.4451  -19.7574   -9.8680 C   0  0  0  0  0  0  0  0  0  0  0  0
   22.5932  -20.8305  -14.6698 N   0  0  0  0  0  0  0  0  0  0  0  0
   21.5484  -20.6415  -15.6458 C   0  0  1  0  0  0  0  0  0  0  0  0
   20.8504  -21.8909  -16.0019 C   0  0  0  0  0  0  0  0  0  0  0  0
   19.8290  -21.7056  -17.0327 C   0  0  0  0  0  0  0  0  0  0  0  0
   19.9314  -21.2250  -18.2887 C   0  0  0  0  0  0  0  0  0  0  0  0
   18.6919  -21.2247  -18.8648 N   0  0  0  0  0  0  0  0  0  0  0  0
   17.8152  -21.7036  -17.9715 C   0  0  0  0  0  0  0  0  0  0  0  0
   18.5028  -21.9931  -16.8671 N   0  0  0  0  0  0  0  0  0  0  0  0
   20.6177  -19.6025  -15.1013 C   0  0  0  0  0  0  0  0  0  0  0  0
   20.3947  -19.6333  -13.8739 O   0  0  0  0  0  0  0  0  0  0  0  0
   19.9983  -18.6191  -15.8839 N   0  0  0  0  0  0  0  0  0  0  0  0
   19.0132  -17.6746  -15.3997 C   0  0  1  0  0  0  0  0  0  0  0  0
   19.0152  -16.3801  -16.1270 C   0  0  0  0  0  0  0  0  0  0  0  0
   20.3224  -15.7104  -16.3299 C   0  0  0  0  0  0  0  0  0  0  0  0
   20.2269  -14.4234  -17.0478 C   0  0  0  0  0  0  0  0  0  0  0  0
   19.1569  -13.8908  -17.4259 O   0  0  0  0  0  0  0  0  0  0  0  0
   17.7236  -18.3537  -15.2728 C   0  0  0  0  0  0  0  0  0  0  0  0
   17.3520  -19.2248  -16.0929 O   0  0  0  0  0  0  0  0  0  0  0  0
   21.3967  -13.7060  -17.3519 O   0  0  0  0  0  0  0  0  0  0  0  0
   16.8705  -18.0460  -14.2322 O   0  0  0  0  0  0  0  0  0  0  0  0
  2 12  2  0
  2  1  1  0
  3  2  1  0
  4  5  1  0
  4  3  2  0
  5 11  2  0
  6  5  1  0
  7  9  1  0
  7  6  1  0
  7  8  1  6
  9 10  2  0
 11 12  1  0
 13  9  1  0
 14 13  1  0
 14 15  1  1
 16 15  1  0
 16 17  2  0
 18 17  1  0
 19 18  1  0
 20 19  2  0
 20 16  1  0
 21 14  1  0
 22 21  2  0
 23 21  1  0
 24 23  1  0
 24 25  1  6
 26 25  1  0
 27 31  1  0
 27 26  1  0
 28 27  2  0
 29 24  1  0
 29 32  1  0
 30 29  2  0
M  END
$$$$
