YHE.pdb
     RDKit          3D

 32 33  0  0  1  0  0  0  0  0999 V2000
   26.5100  -14.1120  -23.5600 O   0  0  0  0  0  0  0  0  0  0  0  0
   26.3385  -15.1802  -22.6625 C   0  0  0  0  0  0  0  0  0  0  0  0
   27.4310  -15.8027  -22.0969 C   0  0  0  0  0  0  0  0  0  0  0  0
   27.2695  -16.8679  -21.2016 C   0  0  0  0  0  0  0  0  0  0  0  0
   26.0060  -17.2952  -20.8851 C   0  0  0  0  0  0  0  0  0  0  0  0
   25.8293  -18.4150  -19.9437 C   0  0  0  0  0  0  0  0  0  0  0  0
   24.8721  -17.9491  -18.8451 C   0  0  2  0  0  0  0  0  0  0  0  0
   25.4773  -16.9149  -18.0292 N   0  0  0  0  0  0  0  0  0  0  0  0
   24.5216  -19.1441  -18.0375 C   0  0  0  0  0  0  0  0  0  0  0  0
   24.0296  -20.1479  -18.6100 O   0  0  0  0  0  0  0  0  0  0  0  0
   24.9216  -16.6823  -21.4422 C   0  0  0  0  0  0  0  0  0  0  0  0
   25.0722  -15.6206  -22.3350 C   0  0  0  0  0  0  0  0  0  0  0  0
   24.7589  -19.1019  -16.6413 N   0  0  0  0  0  0  0  0  0  0  0  0
   24.3505  -20.1886  -15.7857 C   0  0  1  0  0  0  0  0  0  0  0  0
   25.4698  -20.8002  -15.0456 C   0  0  0  0  0  0  0  0  0  0  0  0
   26.3422  -21.6148  -15.8916 C   0  0  0  0  0  0  0  0  0  0  0  0
   26.2611  -21.9071  -17.2057 C   0  0  0  0  0  0  0  0  0  0  0  0
   27.3016  -22.7273  -17.5415 N   0  0  0  0  0  0  0  0  0  0  0  0
   28.0324  -22.9485  -16.4401 C   0  0  0  0  0  0  0  0  0  0  0  0
   27.4522  -22.2767  -15.4459 N   0  0  0  0  0  0  0  0  0  0  0  0
   23.2859  -19.6585  -14.8758 C   0  0  0  0  0  0  0  0  0  0  0  0
   23.5653  -18.6362  -14.2170 O   0  0  0  0  0  0  0  0  0  0  0  0
   22.0196  -20.2403  -14.7304 N   0  0  0  0  0  0  0  0  0  0  0  0
   20.9853  -19.7597  -13.8380 C   0  0  1  0  0  0  0  0  0  0  0  0
   19.9342  -18.9583  -14.5145 C   0  0  0  0  0  0  0  0  0  0  0  0
   18.7722  -19.6877  -15.0767 C   0  0  0  0  0  0  0  0  0  0  0  0
   17.5050  -18.9327  -15.0073 C   0  0  0  0  0  0  0  0  0  0  0  0
   17.0986  -18.3046  -14.0013 O   0  0  0  0  0  0  0  0  0  0  0  0
   20.5273  -20.8672  -12.9989 C   0  0  0  0  0  0  0  0  0  0  0  0
   19.8397  -20.6758  -11.9693 O   0  0  0  0  0  0  0  0  0  0  0  0
   16.6585  -18.8863  -16.1283 O   0  0  0  0  0  0  0  0  0  0  0  0
   20.8474  -22.1700  -13.3242 O   0  0  0  0  0  0  0  0  0  0  0  0
  2 12  2  0
  2  1  1  0
  3  2  1  0
  4  5  1  0
  4  3  2  0
  5 11  2  0
  6  5  1  0
  7  9  1  0
  7  6  1  0
  7  8  1  1
  9 10  2  0
 11 12  1  0
 13  9  1  0
 14 13  1  0
 14 15  1  1
 16 15  1  0
 16 17  2  0
 18 17  1  0
 19 18  1  0
 20 19  2  0
 20 16  1  0
 21 14  1  0
 22 21  2  0
 23 21  1  0
 24 23  1  0
 24 25  1  6
 26 25  1  0
 27 31  1  0
 27 26  1  0
 28 27  2  0
 29 24  1  0
 29 32  1  0
 30 29  2  0
M  END
$$$$
