YHE.pdb
     RDKit          3D

 32 33  0  0  1  0  0  0  0  0999 V2000
   27.3455  -20.9742  -24.7563 O   0  0  0  0  0  0  0  0  0  0  0  0
   26.9614  -21.3456  -23.4561 C   0  0  0  0  0  0  0  0  0  0  0  0
   26.1354  -20.5320  -22.7099 C   0  0  0  0  0  0  0  0  0  0  0  0
   25.7475  -20.8942  -21.4135 C   0  0  0  0  0  0  0  0  0  0  0  0
   26.1971  -22.0751  -20.8818 C   0  0  0  0  0  0  0  0  0  0  0  0
   25.7925  -22.4620  -19.5187 C   0  0  0  0  0  0  0  0  0  0  0  0
   26.8003  -21.8483  -18.5452 C   0  0  2  0  0  0  0  0  0  0  0  0
   28.0427  -22.5952  -18.5397 N   0  0  0  0  0  0  0  0  0  0  0  0
   26.1627  -21.8424  -17.2048 C   0  0  0  0  0  0  0  0  0  0  0  0
   26.1482  -22.9006  -16.5285 O   0  0  0  0  0  0  0  0  0  0  0  0
   27.0148  -22.8837  -21.6163 C   0  0  0  0  0  0  0  0  0  0  0  0
   27.4067  -22.5317  -22.9084 C   0  0  0  0  0  0  0  0  0  0  0  0
   25.5918  -20.6318  -16.7401 N   0  0  0  0  0  0  0  0  0  0  0  0
   25.0828  -20.5193  -15.3955 C   0  0  1  0  0  0  0  0  0  0  0  0
   25.7899  -19.5087  -14.5871 C   0  0  0  0  0  0  0  0  0  0  0  0
   27.1722  -19.8792  -14.2834 C   0  0  0  0  0  0  0  0  0  0  0  0
   27.8550  -21.0094  -14.5583 C   0  0  0  0  0  0  0  0  0  0  0  0
   29.1198  -20.8961  -14.0526 N   0  0  0  0  0  0  0  0  0  0  0  0
   29.2287  -19.6981  -13.4621 C   0  0  0  0  0  0  0  0  0  0  0  0
   28.0530  -19.0861  -13.6022 N   0  0  0  0  0  0  0  0  0  0  0  0
   23.6150  -20.2418  -15.5004 C   0  0  0  0  0  0  0  0  0  0  0  0
   23.2578  -19.4168  -16.3659 O   0  0  0  0  0  0  0  0  0  0  0  0
   22.6440  -20.8489  -14.6931 N   0  0  0  0  0  0  0  0  0  0  0  0
   21.2198  -20.6034  -14.7847 C   0  0  1  0  0  0  0  0  0  0  0  0
   20.3851  -21.7086  -14.2494 C   0  0  0  0  0  0  0  0  0  0  0  0
   18.9327  -21.4553  -14.0909 C   0  0  0  0  0  0  0  0  0  0  0  0
   18.1602  -22.6491  -13.6923 C   0  0  0  0  0  0  0  0  0  0  0  0
   18.3663  -23.8110  -14.1155 O   0  0  0  0  0  0  0  0  0  0  0  0
   20.9339  -19.2610  -14.2782 C   0  0  0  0  0  0  0  0  0  0  0  0
   21.5701  -18.7674  -13.3185 O   0  0  0  0  0  0  0  0  0  0  0  0
   17.1055  -22.5219  -12.7720 O   0  0  0  0  0  0  0  0  0  0  0  0
   19.9402  -18.4938  -14.8522 O   0  0  0  0  0  0  0  0  0  0  0  0
  2 12  2  0
  2  1  1  0
  3  2  1  0
  4  5  1  0
  4  3  2  0
  5 11  2  0
  6  5  1  0
  7  9  1  0
  7  6  1  0
  7  8  1  1
  9 10  2  0
 11 12  1  0
 13  9  1  0
 14 13  1  0
 14 15  1  6
 16 15  1  0
 16 17  2  0
 18 17  1  0
 19 18  1  0
 20 19  2  0
 20 16  1  0
 21 14  1  0
 22 21  2  0
 23 21  1  0
 24 23  1  0
 24 25  1  1
 26 25  1  0
 27 31  1  0
 27 26  1  0
 28 27  2  0
 29 24  1  0
 29 32  1  0
 30 29  2  0
M  END
$$$$
