YHE.pdb
     RDKit          3D

 32 33  0  0  1  0  0  0  0  0999 V2000
   15.2513  -29.5364   -3.9186 O   0  0  0  0  0  0  0  0  0  0  0  0
   15.5741  -28.5676   -4.8847 C   0  0  0  0  0  0  0  0  0  0  0  0
   15.1472  -27.2646   -4.7407 C   0  0  0  0  0  0  0  0  0  0  0  0
   15.4641  -26.2927   -5.6984 C   0  0  0  0  0  0  0  0  0  0  0  0
   16.2096  -26.6452   -6.7935 C   0  0  0  0  0  0  0  0  0  0  0  0
   16.5468  -25.6276   -7.8045 C   0  0  0  0  0  0  0  0  0  0  0  0
   18.0521  -25.3701   -7.7175 C   0  0  2  0  0  0  0  0  0  0  0  0
   18.3907  -24.6577   -6.5013 N   0  0  0  0  0  0  0  0  0  0  0  0
   18.4318  -24.5957   -8.9255 C   0  0  0  0  0  0  0  0  0  0  0  0
   18.3012  -23.3466   -8.9189 O   0  0  0  0  0  0  0  0  0  0  0  0
   16.6345  -27.9336   -6.9406 C   0  0  0  0  0  0  0  0  0  0  0  0
   16.3239  -28.9087   -5.9921 C   0  0  0  0  0  0  0  0  0  0  0  0
   18.9306  -25.3048  -10.0462 N   0  0  0  0  0  0  0  0  0  0  0  0
   19.3325  -24.6110  -11.2449 C   0  0  1  0  0  0  0  0  0  0  0  0
   20.4055  -25.3002  -11.9854 C   0  0  0  0  0  0  0  0  0  0  0  0
   20.7454  -24.6451  -13.2486 C   0  0  0  0  0  0  0  0  0  0  0  0
   20.2215  -23.5485  -13.8335 C   0  0  0  0  0  0  0  0  0  0  0  0
   20.8575  -23.3358  -15.0245 N   0  0  0  0  0  0  0  0  0  0  0  0
   21.7771  -24.2972  -15.1853 C   0  0  0  0  0  0  0  0  0  0  0  0
   21.7080  -25.0861  -14.1133 N   0  0  0  0  0  0  0  0  0  0  0  0
   18.1018  -24.4132  -12.0747 C   0  0  0  0  0  0  0  0  0  0  0  0
   17.2752  -25.3481  -12.0886 O   0  0  0  0  0  0  0  0  0  0  0  0
   17.8377  -23.2564  -12.8198 N   0  0  0  0  0  0  0  0  0  0  0  0
   16.6194  -23.0105  -13.5631 C   0  0  1  0  0  0  0  0  0  0  0  0
   15.5724  -22.3048  -12.7818 C   0  0  0  0  0  0  0  0  0  0  0  0
   15.9212  -20.9839  -12.2056 C   0  0  0  0  0  0  0  0  0  0  0  0
   15.7271  -20.9020  -10.7440 C   0  0  0  0  0  0  0  0  0  0  0  0
   15.0150  -21.6833  -10.0702 O   0  0  0  0  0  0  0  0  0  0  0  0
   16.9627  -22.4395  -14.8655 C   0  0  0  0  0  0  0  0  0  0  0  0
   16.2816  -22.6745  -15.8904 O   0  0  0  0  0  0  0  0  0  0  0  0
   16.3687  -19.8888  -10.0110 O   0  0  0  0  0  0  0  0  0  0  0  0
   18.0628  -21.6166  -15.0005 O   0  0  0  0  0  0  0  0  0  0  0  0
  2 12  2  0
  2  1  1  0
  3  2  1  0
  4  5  1  0
  4  3  2  0
  5 11  2  0
  6  5  1  0
  7  9  1  0
  7  6  1  0
  7  8  1  1
  9 10  2  0
 11 12  1  0
 13  9  1  0
 14 13  1  0
 14 15  1  6
 16 15  1  0
 16 17  2  0
 18 17  1  0
 19 18  1  0
 20 19  2  0
 20 16  1  0
 21 14  1  0
 22 21  2  0
 23 21  1  0
 24 23  1  0
 24 25  1  1
 26 25  1  0
 27 31  1  0
 27 26  1  0
 28 27  2  0
 29 24  1  0
 29 32  1  0
 30 29  2  0
M  END
$$$$
