GGE.pdb
     RDKit          3D

 18 17  0  0  1  0  0  0  0  0999 V2000
    8.0267  -13.4599   16.3505 N   0  0  0  0  0  0  0  0  0  0  0  0
    7.3963  -14.2434   17.3819 C   0  0  0  0  0  0  0  0  0  0  0  0
    8.0286  -13.9083   18.6949 C   0  0  0  0  0  0  0  0  0  0  0  0
    9.2937  -13.9394   18.8227 O   0  0  0  0  0  0  0  0  0  0  0  0
    7.2566  -13.5481   19.8319 N   0  0  0  0  0  0  0  0  0  0  0  0
    7.8437  -13.2112   21.0901 C   0  0  0  0  0  0  0  0  0  0  0  0
    8.0034  -14.4204   21.9425 C   0  0  0  0  0  0  0  0  0  0  0  0
    7.1281  -15.3172   21.8860 O   0  0  0  0  0  0  0  0  0  0  0  0
    9.0930  -14.6117   22.8146 N   0  0  0  0  0  0  0  0  0  0  0  0
    9.2655  -15.8490   23.6219 C   0  0  1  0  0  0  0  0  0  0  0  0
   10.7162  -16.1057   23.7774 C   0  0  0  0  0  0  0  0  0  0  0  0
   11.0464  -17.3175   24.5506 C   0  0  0  0  0  0  0  0  0  0  0  0
   12.5018  -17.5450   24.6500 C   0  0  0  0  0  0  0  0  0  0  0  0
   13.2837  -16.5528   24.6557 O   0  0  0  0  0  0  0  0  0  0  0  0
    8.4805  -15.7359   24.8242 C   0  0  0  0  0  0  0  0  0  0  0  0
    8.0386  -16.7969   25.6169 O   0  0  0  0  0  0  0  0  0  0  0  0
   13.0608  -18.8053   24.7383 O   0  0  0  0  0  0  0  0  0  0  0  0
    8.1268  -14.5798   25.2321 O   0  0  0  0  0  0  0  0  0  0  0  0
  2  1  1  0
  3  2  1  0
  4  3  2  0
  5  3  1  0
  6  5  1  0
  7  9  1  0
  7  6  1  0
  8  7  2  0
 10 11  1  1
 10  9  1  0
 12 13  1  0
 12 11  1  0
 13 14  2  0
 15 16  1  0
 15 10  1  0
 17 13  1  0
 18 15  2  0
M  END
$$$$
