GGE.pdb
     RDKit          3D

 18 17  0  0  1  0  0  0  0  0999 V2000
   -0.1670  -19.9668   18.0399 N   0  0  0  0  0  0  0  0  0  0  0  0
    0.6456  -20.8378   18.8499 C   0  0  0  0  0  0  0  0  0  0  0  0
    1.3811  -20.0116   19.8561 C   0  0  0  0  0  0  0  0  0  0  0  0
    2.2947  -19.2099   19.4814 O   0  0  0  0  0  0  0  0  0  0  0  0
    1.0948  -20.0870   21.2457 N   0  0  0  0  0  0  0  0  0  0  0  0
    1.7191  -19.2384   22.2110 C   0  0  0  0  0  0  0  0  0  0  0  0
    3.0749  -19.7410   22.5621 C   0  0  0  0  0  0  0  0  0  0  0  0
    3.2216  -20.9644   22.7974 O   0  0  0  0  0  0  0  0  0  0  0  0
    4.2090  -18.9095   22.6444 N   0  0  0  0  0  0  0  0  0  0  0  0
    5.5496  -19.4196   23.0384 C   0  0  1  0  0  0  0  0  0  0  0  0
    6.3309  -19.6770   21.8064 C   0  0  0  0  0  0  0  0  0  0  0  0
    6.4281  -18.5265   20.8887 C   0  0  0  0  0  0  0  0  0  0  0  0
    7.2513  -18.8208   19.6989 C   0  0  0  0  0  0  0  0  0  0  0  0
    6.7126  -18.8095   18.5562 O   0  0  0  0  0  0  0  0  0  0  0  0
    6.1226  -18.5253   24.0111 C   0  0  0  0  0  0  0  0  0  0  0  0
    5.6028  -17.2866   24.3916 O   0  0  0  0  0  0  0  0  0  0  0  0
    8.5997  -19.1122   19.7718 O   0  0  0  0  0  0  0  0  0  0  0  0
    7.2092  -18.8516   24.5950 O   0  0  0  0  0  0  0  0  0  0  0  0
  2  1  1  0
  3  2  1  0
  4  3  2  0
  5  3  1  0
  6  5  1  0
  7  9  1  0
  7  6  1  0
  8  7  2  0
 10 11  1  6
 10  9  1  0
 12 13  1  0
 12 11  1  0
 13 14  2  0
 15 16  1  0
 15 10  1  0
 17 13  1  0
 18 15  2  0
M  END
$$$$
