GGE.pdb
     RDKit          3D

 18 17  0  0  1  0  0  0  0  0999 V2000
    8.4506  -12.7826   18.4484 N   0  0  0  0  0  0  0  0  0  0  0  0
    7.7198  -13.8174   19.1342 C   0  0  0  0  0  0  0  0  0  0  0  0
    8.0602  -13.7632   20.5893 C   0  0  0  0  0  0  0  0  0  0  0  0
    9.1477  -13.2266   20.9729 O   0  0  0  0  0  0  0  0  0  0  0  0
    7.1987  -14.2988   21.5842 N   0  0  0  0  0  0  0  0  0  0  0  0
    7.4893  -14.2229   22.9810 C   0  0  0  0  0  0  0  0  0  0  0  0
    8.1586  -15.4655   23.4525 C   0  0  0  0  0  0  0  0  0  0  0  0
    7.4983  -16.5318   23.4810 O   0  0  0  0  0  0  0  0  0  0  0  0
    9.5031  -15.5071   23.8707 N   0  0  0  0  0  0  0  0  0  0  0  0
   10.1545  -16.7550   24.3514 C   0  0  1  0  0  0  0  0  0  0  0  0
   11.6186  -16.6145   24.1744 C   0  0  0  0  0  0  0  0  0  0  0  0
   12.0362  -16.1842   22.8269 C   0  0  0  0  0  0  0  0  0  0  0  0
   13.5022  -16.0618   22.7020 C   0  0  0  0  0  0  0  0  0  0  0  0
   14.1584  -15.5145   23.6326 O   0  0  0  0  0  0  0  0  0  0  0  0
    9.6731  -17.0534   25.6756 C   0  0  0  0  0  0  0  0  0  0  0  0
    9.1275  -16.1355   26.5752 O   0  0  0  0  0  0  0  0  0  0  0  0
   14.2036  -16.5213   21.6041 O   0  0  0  0  0  0  0  0  0  0  0  0
    9.7419  -18.2513   26.1095 O   0  0  0  0  0  0  0  0  0  0  0  0
  2  1  1  0
  3  2  1  0
  4  3  2  0
  5  3  1  0
  6  5  1  0
  7  9  1  0
  7  6  1  0
  8  7  2  0
 10 11  1  1
 10  9  1  0
 12 13  1  0
 12 11  1  0
 13 14  2  0
 15 16  1  0
 15 10  1  0
 17 13  1  0
 18 15  2  0
M  END
$$$$
