GGE.pdb
     RDKit          3D

 18 17  0  0  1  0  0  0  0  0999 V2000
    2.0244  -22.4120   20.6281 N   0  0  0  0  0  0  0  0  0  0  0  0
    2.4503  -21.6585   21.7796 C   0  0  0  0  0  0  0  0  0  0  0  0
    3.1210  -20.4058   21.3137 C   0  0  0  0  0  0  0  0  0  0  0  0
    4.1207  -20.4683   20.5298 O   0  0  0  0  0  0  0  0  0  0  0  0
    2.6772  -19.1187   21.7200 N   0  0  0  0  0  0  0  0  0  0  0  0
    3.2901  -17.9105   21.2662 C   0  0  0  0  0  0  0  0  0  0  0  0
    4.5992  -17.6935   21.9396 C   0  0  0  0  0  0  0  0  0  0  0  0
    5.2597  -16.6655   21.6555 O   0  0  0  0  0  0  0  0  0  0  0  0
    5.1383  -18.5875   22.8853 N   0  0  0  0  0  0  0  0  0  0  0  0
    6.5082  -18.4329   23.4439 C   0  0  1  0  0  0  0  0  0  0  0  0
    6.4014  -18.3266   24.9176 C   0  0  0  0  0  0  0  0  0  0  0  0
    7.6930  -18.2151   25.6209 C   0  0  0  0  0  0  0  0  0  0  0  0
    7.7431  -19.0397   26.8446 C   0  0  0  0  0  0  0  0  0  0  0  0
    6.7510  -19.7621   27.1443 O   0  0  0  0  0  0  0  0  0  0  0  0
    7.3493  -19.4753   22.9145 C   0  0  0  0  0  0  0  0  0  0  0  0
    6.9247  -20.7390   22.4992 O   0  0  0  0  0  0  0  0  0  0  0  0
    8.8346  -19.0622   27.6911 O   0  0  0  0  0  0  0  0  0  0  0  0
    8.6042  -19.2707   22.8072 O   0  0  0  0  0  0  0  0  0  0  0  0
  2  1  1  0
  3  2  1  0
  4  3  2  0
  5  3  1  0
  6  5  1  0
  7  9  1  0
  7  6  1  0
  8  7  2  0
 10 11  1  1
 10  9  1  0
 12 13  1  0
 12 11  1  0
 13 14  2  0
 15 16  1  0
 15 10  1  0
 17 13  1  0
 18 15  2  0
M  END
$$$$
