GGE.pdb
     RDKit          3D

 18 17  0  0  1  0  0  0  0  0999 V2000
    8.3876  -13.1460   17.4267 N   0  0  0  0  0  0  0  0  0  0  0  0
    7.6540  -14.1757   18.1171 C   0  0  0  0  0  0  0  0  0  0  0  0
    7.8383  -13.9927   19.5897 C   0  0  0  0  0  0  0  0  0  0  0  0
    8.9683  -13.6393   20.0544 O   0  0  0  0  0  0  0  0  0  0  0  0
    6.7785  -14.2021   20.5126 N   0  0  0  0  0  0  0  0  0  0  0  0
    6.9308  -14.0138   21.9207 C   0  0  0  0  0  0  0  0  0  0  0  0
    7.6364  -15.1693   22.5379 C   0  0  0  0  0  0  0  0  0  0  0  0
    7.1627  -16.3198   22.3779 O   0  0  0  0  0  0  0  0  0  0  0  0
    8.8159  -15.0378   23.2968 N   0  0  0  0  0  0  0  0  0  0  0  0
    9.4923  -16.1992   23.9341 C   0  0  1  0  0  0  0  0  0  0  0  0
   10.9545  -15.9644   23.8980 C   0  0  0  0  0  0  0  0  0  0  0  0
   11.6947  -16.8393   22.9696 C   0  0  0  0  0  0  0  0  0  0  0  0
   13.1436  -16.5556   22.9599 C   0  0  0  0  0  0  0  0  0  0  0  0
   13.5464  -15.4068   22.6220 O   0  0  0  0  0  0  0  0  0  0  0  0
    8.8921  -16.4415   25.2207 C   0  0  0  0  0  0  0  0  0  0  0  0
    8.8863  -17.6579   25.9061 O   0  0  0  0  0  0  0  0  0  0  0  0
   14.0953  -17.4952   23.3060 O   0  0  0  0  0  0  0  0  0  0  0  0
    8.2924  -15.4874   25.8192 O   0  0  0  0  0  0  0  0  0  0  0  0
  2  1  1  0
  3  2  1  0
  4  3  2  0
  5  3  1  0
  6  5  1  0
  7  9  1  0
  7  6  1  0
  8  7  2  0
 10 11  1  1
 10  9  1  0
 12 13  1  0
 12 11  1  0
 13 14  2  0
 15 16  1  0
 15 10  1  0
 17 13  1  0
 18 15  2  0
M  END
$$$$
