GGE.pdb
     RDKit          3D

 18 17  0  0  1  0  0  0  0  0999 V2000
    7.2315  -13.0682   16.4244 N   0  0  0  0  0  0  0  0  0  0  0  0
    7.3492  -13.3518   17.8318 C   0  0  0  0  0  0  0  0  0  0  0  0
    8.6080  -14.1250   18.0632 C   0  0  0  0  0  0  0  0  0  0  0  0
    9.4195  -14.3289   17.1052 O   0  0  0  0  0  0  0  0  0  0  0  0
    8.9429  -14.6536   19.3388 N   0  0  0  0  0  0  0  0  0  0  0  0
   10.2398  -15.1684   19.6463 C   0  0  0  0  0  0  0  0  0  0  0  0
   10.3393  -15.5321   21.0857 C   0  0  0  0  0  0  0  0  0  0  0  0
    9.5512  -14.9928   21.8992 O   0  0  0  0  0  0  0  0  0  0  0  0
   11.2778  -16.4562   21.5854 N   0  0  0  0  0  0  0  0  0  0  0  0
   11.3661  -16.8079   23.0279 C   0  0  1  0  0  0  0  0  0  0  0  0
   11.4442  -18.2827   23.1442 C   0  0  0  0  0  0  0  0  0  0  0  0
   10.2698  -19.0036   22.6186 C   0  0  0  0  0  0  0  0  0  0  0  0
   10.3758  -20.4649   22.8008 C   0  0  0  0  0  0  0  0  0  0  0  0
   11.1102  -20.9214   23.7218 O   0  0  0  0  0  0  0  0  0  0  0  0
   12.4232  -16.0391   23.6327 C   0  0  0  0  0  0  0  0  0  0  0  0
   13.3738  -15.2758   22.9520 O   0  0  0  0  0  0  0  0  0  0  0  0
    9.7037  -21.3719   22.0046 O   0  0  0  0  0  0  0  0  0  0  0  0
   12.5440  -16.0352   24.9030 O   0  0  0  0  0  0  0  0  0  0  0  0
  2  1  1  0
  3  2  1  0
  4  3  2  0
  5  3  1  0
  6  5  1  0
  7  9  1  0
  7  6  1  0
  8  7  2  0
 10 11  1  6
 10  9  1  0
 12 13  1  0
 12 11  1  0
 13 14  2  0
 15 16  1  0
 15 10  1  0
 17 13  1  0
 18 15  2  0
M  END
$$$$
