GGE.pdb
     RDKit          3D

 18 17  0  0  1  0  0  0  0  0999 V2000
    8.7444  -14.7258   16.3950 N   0  0  0  0  0  0  0  0  0  0  0  0
    9.0066  -13.6959   17.3675 C   0  0  0  0  0  0  0  0  0  0  0  0
    7.9676  -13.7714   18.4403 C   0  0  0  0  0  0  0  0  0  0  0  0
    7.0448  -14.6445   18.3775 O   0  0  0  0  0  0  0  0  0  0  0  0
    7.9688  -12.8876   19.5527 N   0  0  0  0  0  0  0  0  0  0  0  0
    7.0772  -13.0361   20.6593 C   0  0  0  0  0  0  0  0  0  0  0  0
    7.5831  -14.0579   21.6154 C   0  0  0  0  0  0  0  0  0  0  0  0
    6.9898  -14.2036   22.7111 O   0  0  0  0  0  0  0  0  0  0  0  0
    8.6999  -14.8751   21.3526 N   0  0  0  0  0  0  0  0  0  0  0  0
    9.1268  -15.9672   22.2678 C   0  0  1  0  0  0  0  0  0  0  0  0
    9.1457  -17.2357   21.5028 C   0  0  0  0  0  0  0  0  0  0  0  0
    9.5665  -18.4161   22.2806 C   0  0  0  0  0  0  0  0  0  0  0  0
    9.5098  -19.6624   21.4912 C   0  0  0  0  0  0  0  0  0  0  0  0
    8.5654  -19.8312   20.6692 O   0  0  0  0  0  0  0  0  0  0  0  0
   10.3447  -15.5742   22.9285 C   0  0  0  0  0  0  0  0  0  0  0  0
   10.7543  -15.9792   24.2004 O   0  0  0  0  0  0  0  0  0  0  0  0
   10.4497  -20.6683   21.6068 O   0  0  0  0  0  0  0  0  0  0  0  0
   11.1462  -14.7767   22.3371 O   0  0  0  0  0  0  0  0  0  0  0  0
  2  1  1  0
  3  2  1  0
  4  3  2  0
  5  3  1  0
  6  5  1  0
  7  9  1  0
  7  6  1  0
  8  7  2  0
 10 11  1  6
 10  9  1  0
 12 13  1  0
 12 11  1  0
 13 14  2  0
 15 16  1  0
 15 10  1  0
 17 13  1  0
 18 15  2  0
M  END
$$$$
