GGE.pdb
     RDKit          3D

 18 17  0  0  1  0  0  0  0  0999 V2000
   -3.2234  -26.4687   26.1092 N   0  0  0  0  0  0  0  0  0  0  0  0
   -3.0612  -26.4393   27.5403 C   0  0  0  0  0  0  0  0  0  0  0  0
   -3.6627  -25.1756   28.0668 C   0  0  0  0  0  0  0  0  0  0  0  0
   -3.9975  -25.0873   29.2907 O   0  0  0  0  0  0  0  0  0  0  0  0
   -3.8806  -24.0430   27.2371 N   0  0  0  0  0  0  0  0  0  0  0  0
   -4.2561  -22.7656   27.7553 C   0  0  0  0  0  0  0  0  0  0  0  0
   -5.6612  -22.7831   28.2446 C   0  0  0  0  0  0  0  0  0  0  0  0
   -6.5921  -22.7311   27.4053 O   0  0  0  0  0  0  0  0  0  0  0  0
   -6.0025  -22.8557   29.6094 N   0  0  0  0  0  0  0  0  0  0  0  0
   -7.4078  -22.9915   30.0777 C   0  0  1  0  0  0  0  0  0  0  0  0
   -7.4223  -23.8929   31.2533 C   0  0  0  0  0  0  0  0  0  0  0  0
   -8.7179  -23.9682   31.9540 C   0  0  0  0  0  0  0  0  0  0  0  0
   -9.1822  -25.3579   32.1353 C   0  0  0  0  0  0  0  0  0  0  0  0
   -8.3854  -26.2200   32.6020 O   0  0  0  0  0  0  0  0  0  0  0  0
   -7.9742  -21.6777   30.2437 C   0  0  0  0  0  0  0  0  0  0  0  0
   -7.3167  -20.5619   30.7654 O   0  0  0  0  0  0  0  0  0  0  0  0
  -10.4615  -25.7701   31.8160 O   0  0  0  0  0  0  0  0  0  0  0  0
   -9.1873  -21.4737   29.9048 O   0  0  0  0  0  0  0  0  0  0  0  0
  2  1  1  0
  3  2  1  0
  4  3  2  0
  5  3  1  0
  6  5  1  0
  7  9  1  0
  7  6  1  0
  8  7  2  0
 10 11  1  1
 10  9  1  0
 12 13  1  0
 12 11  1  0
 13 14  2  0
 15 16  1  0
 15 10  1  0
 17 13  1  0
 18 15  2  0
M  END
$$$$
