GGE.pdb
     RDKit          3D

 18 17  0  0  1  0  0  0  0  0999 V2000
    6.1705  -17.7675   18.1324 N   0  0  0  0  0  0  0  0  0  0  0  0
    5.7885  -16.8865   19.2061 C   0  0  0  0  0  0  0  0  0  0  0  0
    6.7267  -15.7224   19.2302 C   0  0  0  0  0  0  0  0  0  0  0  0
    7.7781  -15.7325   18.5144 O   0  0  0  0  0  0  0  0  0  0  0  0
    6.4866  -14.5788   20.0384 N   0  0  0  0  0  0  0  0  0  0  0  0
    7.3476  -13.4386   20.0403 C   0  0  0  0  0  0  0  0  0  0  0  0
    8.6331  -13.7449   20.7243 C   0  0  0  0  0  0  0  0  0  0  0  0
    9.5131  -12.8527   20.7804 O   0  0  0  0  0  0  0  0  0  0  0  0
    8.9148  -14.9919   21.3157 N   0  0  0  0  0  0  0  0  0  0  0  0
   10.2340  -15.3101   21.9248 C   0  0  1  0  0  0  0  0  0  0  0  0
    9.9979  -16.0091   23.2094 C   0  0  0  0  0  0  0  0  0  0  0  0
   11.0015  -15.7310   24.2538 C   0  0  0  0  0  0  0  0  0  0  0  0
   11.0897  -16.8126   25.2549 C   0  0  0  0  0  0  0  0  0  0  0  0
   10.7943  -16.5667   26.4583 O   0  0  0  0  0  0  0  0  0  0  0  0
   11.0510  -15.9808   20.9464 C   0  0  0  0  0  0  0  0  0  0  0  0
   12.4467  -15.9848   20.9085 O   0  0  0  0  0  0  0  0  0  0  0  0
   11.4845  -18.0982   24.9390 O   0  0  0  0  0  0  0  0  0  0  0  0
   10.4885  -16.6342   20.0058 O   0  0  0  0  0  0  0  0  0  0  0  0
  2  1  1  0
  3  2  1  0
  4  3  2  0
  5  3  1  0
  6  5  1  0
  7  9  1  0
  7  6  1  0
  8  7  2  0
 10 11  1  1
 10  9  1  0
 12 13  1  0
 12 11  1  0
 13 14  2  0
 15 16  1  0
 15 10  1  0
 17 13  1  0
 18 15  2  0
M  END
$$$$
