GGE.pdb
     RDKit          3D

 18 17  0  0  1  0  0  0  0  0999 V2000
    8.1920  -12.6553   18.0981 N   0  0  0  0  0  0  0  0  0  0  0  0
    8.6385  -13.9274   18.6054 C   0  0  0  0  0  0  0  0  0  0  0  0
    7.8419  -14.2655   19.8249 C   0  0  0  0  0  0  0  0  0  0  0  0
    7.1819  -15.3515   19.8778 O   0  0  0  0  0  0  0  0  0  0  0  0
    7.7908  -13.4036   20.9533 N   0  0  0  0  0  0  0  0  0  0  0  0
    7.0063  -13.6923   22.1120 C   0  0  0  0  0  0  0  0  0  0  0  0
    7.4703  -14.9441   22.7692 C   0  0  0  0  0  0  0  0  0  0  0  0
    6.6850  -15.9205   22.8278 O   0  0  0  0  0  0  0  0  0  0  0  0
    8.7533  -15.0906   23.3320 N   0  0  0  0  0  0  0  0  0  0  0  0
    9.2441  -16.3824   23.8824 C   0  0  1  0  0  0  0  0  0  0  0  0
   10.4055  -16.8220   23.0747 C   0  0  0  0  0  0  0  0  0  0  0  0
   11.6200  -16.0036   23.2486 C   0  0  0  0  0  0  0  0  0  0  0  0
   12.7360  -16.4603   22.3967 C   0  0  0  0  0  0  0  0  0  0  0  0
   13.2927  -17.5663   22.6475 O   0  0  0  0  0  0  0  0  0  0  0  0
    9.4403  -16.2412   25.3022 C   0  0  0  0  0  0  0  0  0  0  0  0
    9.6804  -17.2802   26.2034 O   0  0  0  0  0  0  0  0  0  0  0  0
   13.2098  -15.7301   21.3240 O   0  0  0  0  0  0  0  0  0  0  0  0
    9.3884  -15.0793   25.8269 O   0  0  0  0  0  0  0  0  0  0  0  0
  2  1  1  0
  3  2  1  0
  4  3  2  0
  5  3  1  0
  6  5  1  0
  7  9  1  0
  7  6  1  0
  8  7  2  0
 10 11  1  6
 10  9  1  0
 12 13  1  0
 12 11  1  0
 13 14  2  0
 15 16  1  0
 15 10  1  0
 17 13  1  0
 18 15  2  0
M  END
$$$$
