GGE.pdb
     RDKit          3D

 18 17  0  0  1  0  0  0  0  0999 V2000
    7.9850  -15.4146   18.3951 N   0  0  0  0  0  0  0  0  0  0  0  0
    8.6579  -14.5734   19.3515 C   0  0  0  0  0  0  0  0  0  0  0  0
    8.0506  -14.7964   20.6996 C   0  0  0  0  0  0  0  0  0  0  0  0
    7.0986  -15.6275   20.8434 O   0  0  0  0  0  0  0  0  0  0  0  0
    8.5038  -14.1020   21.8534 N   0  0  0  0  0  0  0  0  0  0  0  0
    7.9787  -14.3472   23.1594 C   0  0  0  0  0  0  0  0  0  0  0  0
    8.6260  -15.5359   23.7776 C   0  0  0  0  0  0  0  0  0  0  0  0
    7.9623  -16.5948   23.8865 O   0  0  0  0  0  0  0  0  0  0  0  0
    9.9533  -15.5341   24.2494 N   0  0  0  0  0  0  0  0  0  0  0  0
   10.6141  -16.7533   24.7873 C   0  0  1  0  0  0  0  0  0  0  0  0
   12.0710  -16.6397   24.5439 C   0  0  0  0  0  0  0  0  0  0  0  0
   12.4337  -15.9021   23.3193 C   0  0  0  0  0  0  0  0  0  0  0  0
   13.8823  -15.9515   23.0383 C   0  0  0  0  0  0  0  0  0  0  0  0
   14.6149  -14.9868   23.3971 O   0  0  0  0  0  0  0  0  0  0  0  0
   10.1838  -16.9571   26.1466 C   0  0  0  0  0  0  0  0  0  0  0  0
    9.4770  -16.0412   26.9283 O   0  0  0  0  0  0  0  0  0  0  0  0
   14.4867  -17.0133   22.3936 O   0  0  0  0  0  0  0  0  0  0  0  0
   10.4613  -18.0570   26.7308 O   0  0  0  0  0  0  0  0  0  0  0  0
  2  1  1  0
  3  2  1  0
  4  3  2  0
  5  3  1  0
  6  5  1  0
  7  9  1  0
  7  6  1  0
  8  7  2  0
 10 11  1  1
 10  9  1  0
 12 13  1  0
 12 11  1  0
 13 14  2  0
 15 16  1  0
 15 10  1  0
 17 13  1  0
 18 15  2  0
M  END
$$$$
