FVT.pdb
     RDKit          3D

 26 26  0  0  1  0  0  0  0  0999 V2000
   26.9484  -22.2813  -15.0184 N   0  0  0  0  0  0  0  0  0  0  0  0
   26.1823  -23.1812  -15.8309 C   0  0  1  0  0  0  0  0  0  0  0  0
   27.1649  -24.1006  -16.5461 C   0  0  0  0  0  0  0  0  0  0  0  0
   27.9469  -23.2347  -17.4786 C   0  0  0  0  0  0  0  0  0  0  0  0
   29.3254  -23.1937  -17.4517 C   0  0  0  0  0  0  0  0  0  0  0  0
   30.0726  -22.4010  -18.3039 C   0  0  0  0  0  0  0  0  0  0  0  0
   29.3981  -21.6048  -19.2353 C   0  0  0  0  0  0  0  0  0  0  0  0
   28.0213  -21.6226  -19.2882 C   0  0  0  0  0  0  0  0  0  0  0  0
   27.3185  -22.4296  -18.4176 C   0  0  0  0  0  0  0  0  0  0  0  0
   25.2122  -23.9776  -15.0190 C   0  0  0  0  0  0  0  0  0  0  0  0
   25.5024  -24.4658  -13.8961 O   0  0  0  0  0  0  0  0  0  0  0  0
   21.2388  -23.2720  -15.6193 C   0  0  0  0  0  0  0  0  0  0  0  0
   21.7716  -23.9825  -14.4028 C   0  0  1  0  0  0  0  0  0  0  0  0
   20.7004  -24.6675  -13.6204 C   0  0  0  0  0  0  0  0  0  0  0  0
   22.8951  -24.9148  -14.7028 C   0  0  2  0  0  0  0  0  0  0  0  0
   23.8969  -24.2143  -15.5036 N   0  0  0  0  0  0  0  0  0  0  0  0
   22.3599  -26.0499  -15.5052 C   0  0  0  0  0  0  0  0  0  0  0  0
   22.1095  -25.9037  -16.7428 O   0  0  0  0  0  0  0  0  0  0  0  0
   23.5789  -29.8897  -15.2808 C   0  0  0  0  0  0  0  0  0  0  0  0
   22.0825  -29.7721  -15.0952 C   0  0  1  0  0  0  0  0  0  0  0  0
   21.8328  -29.7298  -13.7241 O   0  0  0  0  0  0  0  0  0  0  0  0
   21.6443  -28.4662  -15.7164 C   0  0  2  0  0  0  0  0  0  0  0  0
   22.1054  -27.3256  -14.9507 N   0  0  0  0  0  0  0  0  0  0  0  0
   20.1584  -28.4575  -15.7203 C   0  0  0  0  0  0  0  0  0  0  0  0
   19.4116  -29.2675  -16.5658 O   0  0  0  0  0  0  0  0  0  0  0  0
   19.4937  -27.7038  -14.9454 O   0  0  0  0  0  0  0  0  0  0  0  0
  2  1  1  1
  2 10  1  0
  3  2  1  0
  3  4  1  0
  4  9  2  0
  4  5  1  0
  5  6  2  0
  6  7  1  0
  8  7  2  0
  9  8  1  0
 10 11  2  0
 13 12  1  6
 13 15  1  0
 14 13  1  0
 15 17  1  0
 15 16  1  6
 16 10  1  0
 17 18  2  0
 20 19  1  1
 20 22  1  0
 21 20  1  0
 22 24  1  0
 22 23  1  1
 23 17  1  0
 24 26  2  0
 24 25  1  0
M  END
$$$$
