FVT.pdb
     RDKit          3D

 26 26  0  0  1  0  0  0  0  0999 V2000
   27.8378  -21.2966  -16.5303 N   0  0  0  0  0  0  0  0  0  0  0  0
   27.3684  -20.4557  -15.4676 C   0  0  1  0  0  0  0  0  0  0  0  0
   26.6661  -19.2628  -16.1048 C   0  0  0  0  0  0  0  0  0  0  0  0
   27.7207  -18.4942  -16.8314 C   0  0  0  0  0  0  0  0  0  0  0  0
   27.5500  -18.0761  -18.1348 C   0  0  0  0  0  0  0  0  0  0  0  0
   28.5104  -17.3635  -18.8296 C   0  0  0  0  0  0  0  0  0  0  0  0
   29.7093  -17.0531  -18.1796 C   0  0  0  0  0  0  0  0  0  0  0  0
   29.9114  -17.4561  -16.8775 C   0  0  0  0  0  0  0  0  0  0  0  0
   28.9242  -18.1651  -16.2248 C   0  0  0  0  0  0  0  0  0  0  0  0
   26.4406  -21.1831  -14.5487 C   0  0  0  0  0  0  0  0  0  0  0  0
   25.7090  -22.1331  -14.9306 O   0  0  0  0  0  0  0  0  0  0  0  0
   27.3924  -21.4407  -10.7362 C   0  0  0  0  0  0  0  0  0  0  0  0
   25.8986  -21.3001  -10.8680 C   0  0  1  0  0  0  0  0  0  0  0  0
   25.3821  -20.0414  -10.2534 C   0  0  0  0  0  0  0  0  0  0  0  0
   25.4076  -21.4537  -12.2667 C   0  0  2  0  0  0  0  0  0  0  0  0
   26.3538  -20.8142  -13.1786 N   0  0  0  0  0  0  0  0  0  0  0  0
   24.0968  -20.7557  -12.3821 C   0  0  0  0  0  0  0  0  0  0  0  0
   23.9196  -19.6213  -11.8369 O   0  0  0  0  0  0  0  0  0  0  0  0
   21.5247  -21.5999  -15.5231 C   0  0  0  0  0  0  0  0  0  0  0  0
   21.5276  -20.2902  -14.7669 C   0  0  1  0  0  0  0  0  0  0  0  0
   20.2678  -19.7136  -14.9236 O   0  0  0  0  0  0  0  0  0  0  0  0
   21.7473  -20.6047  -13.3053 C   0  0  2  0  0  0  0  0  0  0  0  0
   22.9994  -21.3010  -13.0879 N   0  0  0  0  0  0  0  0  0  0  0  0
   20.6368  -21.4932  -12.8747 C   0  0  0  0  0  0  0  0  0  0  0  0
   20.8379  -22.8246  -12.5349 O   0  0  0  0  0  0  0  0  0  0  0  0
   19.4409  -21.0759  -12.7956 O   0  0  0  0  0  0  0  0  0  0  0  0
  2  1  1  6
  2 10  1  0
  3  2  1  0
  3  4  1  0
  4  9  2  0
  4  5  1  0
  5  6  2  0
  6  7  1  0
  8  7  2  0
  9  8  1  0
 10 11  2  0
 13 12  1  6
 13 15  1  0
 14 13  1  0
 15 17  1  0
 15 16  1  6
 16 10  1  0
 17 18  2  0
 20 19  1  6
 20 22  1  0
 21 20  1  0
 22 24  1  0
 22 23  1  6
 23 17  1  0
 24 26  2  0
 24 25  1  0
M  END
$$$$
