FVT.pdb
     RDKit          3D

 26 26  0  0  1  0  0  0  0  0999 V2000
   24.6762  -17.7064  -16.2729 N   0  0  0  0  0  0  0  0  0  0  0  0
   25.5944  -18.1678  -15.2725 C   0  0  1  0  0  0  0  0  0  0  0  0
   26.4397  -16.9749  -14.8427 C   0  0  0  0  0  0  0  0  0  0  0  0
   27.4778  -16.7932  -15.9010 C   0  0  0  0  0  0  0  0  0  0  0  0
   28.4430  -17.7476  -16.1465 C   0  0  0  0  0  0  0  0  0  0  0  0
   29.4148  -17.6037  -17.1200 C   0  0  0  0  0  0  0  0  0  0  0  0
   29.4178  -16.4363  -17.8904 C   0  0  0  0  0  0  0  0  0  0  0  0
   28.4672  -15.4633  -17.6705 C   0  0  0  0  0  0  0  0  0  0  0  0
   27.5174  -15.6512  -16.6878 C   0  0  0  0  0  0  0  0  0  0  0  0
   24.8871  -18.7620  -14.0974 C   0  0  0  0  0  0  0  0  0  0  0  0
   23.8897  -18.2184  -13.5558 O   0  0  0  0  0  0  0  0  0  0  0  0
   23.3922  -22.0247  -14.1253 C   0  0  0  0  0  0  0  0  0  0  0  0
   24.2092  -22.0074  -12.8601 C   0  0  1  0  0  0  0  0  0  0  0  0
   25.3825  -22.9287  -12.9194 C   0  0  0  0  0  0  0  0  0  0  0  0
   24.6234  -20.6394  -12.4380 C   0  0  2  0  0  0  0  0  0  0  0  0
   25.3312  -19.9924  -13.5407 N   0  0  0  0  0  0  0  0  0  0  0  0
   25.5607  -20.7681  -11.2874 C   0  0  0  0  0  0  0  0  0  0  0  0
   26.7278  -21.2425  -11.4559 O   0  0  0  0  0  0  0  0  0  0  0  0
   27.4702  -18.5979   -9.0530 C   0  0  0  0  0  0  0  0  0  0  0  0
   26.4463  -19.2707   -8.1663 C   0  0  1  0  0  0  0  0  0  0  0  0
   25.3247  -18.4436   -8.1199 O   0  0  0  0  0  0  0  0  0  0  0  0
   26.0661  -20.5806   -8.8166 C   0  0  2  0  0  0  0  0  0  0  0  0
   25.2153  -20.3795   -9.9723 N   0  0  0  0  0  0  0  0  0  0  0  0
   25.3092  -21.3685   -7.8096 C   0  0  0  0  0  0  0  0  0  0  0  0
   25.8541  -21.7295   -6.5843 O   0  0  0  0  0  0  0  0  0  0  0  0
   24.1186  -21.7533   -8.0212 O   0  0  0  0  0  0  0  0  0  0  0  0
  2  1  1  6
  2 10  1  0
  3  2  1  0
  3  4  1  0
  4  9  2  0
  4  5  1  0
  5  6  2  0
  6  7  1  0
  8  7  2  0
  9  8  1  0
 10 11  2  0
 13 12  1  6
 13 15  1  0
 14 13  1  0
 15 17  1  0
 15 16  1  6
 16 10  1  0
 17 18  2  0
 20 19  1  6
 20 22  1  0
 21 20  1  0
 22 24  1  0
 22 23  1  6
 23 17  1  0
 24 26  2  0
 24 25  1  0
M  END
$$$$
