FVT.pdb
     RDKit          3D

 26 26  0  0  1  0  0  0  0  0999 V2000
   22.1850  -20.0358  -12.4311 N   0  0  0  0  0  0  0  0  0  0  0  0
   23.5972  -19.9711  -12.6724 C   0  0  1  0  0  0  0  0  0  0  0  0
   24.1863  -21.3279  -12.3059 C   0  0  0  0  0  0  0  0  0  0  0  0
   24.3796  -21.3151  -10.8249 C   0  0  0  0  0  0  0  0  0  0  0  0
   23.3650  -21.6554   -9.9546 C   0  0  0  0  0  0  0  0  0  0  0  0
   23.5181  -21.6517   -8.5800 C   0  0  0  0  0  0  0  0  0  0  0  0
   24.7595  -21.2858   -8.0494 C   0  0  0  0  0  0  0  0  0  0  0  0
   25.7940  -20.9403   -8.8915 C   0  0  0  0  0  0  0  0  0  0  0  0
   25.5939  -20.9588  -10.2564 C   0  0  0  0  0  0  0  0  0  0  0  0
   23.9052  -19.6308  -14.0950 C   0  0  0  0  0  0  0  0  0  0  0  0
   23.0906  -19.8253  -15.0342 O   0  0  0  0  0  0  0  0  0  0  0  0
   27.2316  -17.1434  -14.4020 C   0  0  0  0  0  0  0  0  0  0  0  0
   25.9883  -16.9463  -15.2290 C   0  0  1  0  0  0  0  0  0  0  0  0
   26.2190  -16.0712  -16.4164 C   0  0  0  0  0  0  0  0  0  0  0  0
   25.3283  -18.2226  -15.6245 C   0  0  2  0  0  0  0  0  0  0  0  0
   25.1615  -19.0619  -14.4398 N   0  0  0  0  0  0  0  0  0  0  0  0
   26.2196  -18.9330  -16.5836 C   0  0  0  0  0  0  0  0  0  0  0  0
   27.2785  -19.5064  -16.1769 O   0  0  0  0  0  0  0  0  0  0  0  0
   25.1682  -21.4783  -19.5606 C   0  0  0  0  0  0  0  0  0  0  0  0
   25.9363  -20.2776  -20.0661 C   0  0  1  0  0  0  0  0  0  0  0  0
   25.0034  -19.3129  -20.4445 O   0  0  0  0  0  0  0  0  0  0  0  0
   26.7599  -19.7430  -18.9175 C   0  0  2  0  0  0  0  0  0  0  0  0
   25.9463  -19.0093  -17.9690 N   0  0  0  0  0  0  0  0  0  0  0  0
   27.7639  -18.8105  -19.4926 C   0  0  0  0  0  0  0  0  0  0  0  0
   28.8841  -19.2558  -20.1818 O   0  0  0  0  0  0  0  0  0  0  0  0
   27.6461  -17.5519  -19.3812 O   0  0  0  0  0  0  0  0  0  0  0  0
  2  1  1  6
  2 10  1  0
  3  2  1  0
  3  4  1  0
  4  9  2  0
  4  5  1  0
  5  6  2  0
  6  7  1  0
  8  7  2  0
  9  8  1  0
 10 11  2  0
 13 12  1  6
 13 15  1  0
 14 13  1  0
 15 17  1  0
 15 16  1  1
 16 10  1  0
 17 18  2  0
 20 19  1  1
 20 22  1  0
 21 20  1  0
 22 24  1  0
 22 23  1  1
 23 17  1  0
 24 26  2  0
 24 25  1  0
M  END
$$$$
