FVT.pdb
     RDKit          3D

 26 26  0  0  1  0  0  0  0  0999 V2000
   23.6268  -20.3475  -18.2161 N   0  0  0  0  0  0  0  0  0  0  0  0
   24.0364  -19.4777  -17.1519 C   0  0  1  0  0  0  0  0  0  0  0  0
   22.8207  -18.6571  -16.7385 C   0  0  0  0  0  0  0  0  0  0  0  0
   22.5537  -17.7082  -17.8606 C   0  0  0  0  0  0  0  0  0  0  0  0
   23.3460  -16.6012  -18.0829 C   0  0  0  0  0  0  0  0  0  0  0  0
   23.1203  -15.7077  -19.1143 C   0  0  0  0  0  0  0  0  0  0  0  0
   22.0386  -15.9385  -19.9705 C   0  0  0  0  0  0  0  0  0  0  0  0
   21.2276  -17.0354  -19.7757 C   0  0  0  0  0  0  0  0  0  0  0  0
   21.4921  -17.8992  -18.7330 C   0  0  0  0  0  0  0  0  0  0  0  0
   24.5781  -20.2397  -15.9855 C   0  0  0  0  0  0  0  0  0  0  0  0
   23.9598  -21.1956  -15.4493 O   0  0  0  0  0  0  0  0  0  0  0  0
   28.5220  -21.0384  -15.5401 C   0  0  0  0  0  0  0  0  0  0  0  0
   27.8813  -20.4790  -14.2970 C   0  0  1  0  0  0  0  0  0  0  0  0
   28.2983  -19.0731  -14.0169 C   0  0  0  0  0  0  0  0  0  0  0  0
   26.3969  -20.6105  -14.2819 C   0  0  2  0  0  0  0  0  0  0  0  0
   25.8421  -19.8988  -15.4315 N   0  0  0  0  0  0  0  0  0  0  0  0
   25.8829  -19.9708  -13.0388 C   0  0  0  0  0  0  0  0  0  0  0  0
   25.8690  -18.7051  -12.9226 O   0  0  0  0  0  0  0  0  0  0  0  0
   22.7493  -19.5558  -11.6744 C   0  0  0  0  0  0  0  0  0  0  0  0
   23.4245  -20.2967  -10.5419 C   0  0  1  0  0  0  0  0  0  0  0  0
   23.1042  -21.6471  -10.6756 O   0  0  0  0  0  0  0  0  0  0  0  0
   24.9167  -20.1254  -10.7068 C   0  0  2  0  0  0  0  0  0  0  0  0
   25.3920  -20.7161  -11.9418 N   0  0  0  0  0  0  0  0  0  0  0  0
   25.5684  -20.8276   -9.5709 C   0  0  0  0  0  0  0  0  0  0  0  0
   25.3780  -20.4430   -8.2503 O   0  0  0  0  0  0  0  0  0  0  0  0
   26.3369  -21.8209   -9.7532 O   0  0  0  0  0  0  0  0  0  0  0  0
  2  1  1  6
  2 10  1  0
  3  2  1  0
  3  4  1  0
  4  9  2  0
  4  5  1  0
  5  6  2  0
  6  7  1  0
  8  7  2  0
  9  8  1  0
 10 11  2  0
 13 12  1  6
 13 15  1  0
 14 13  1  0
 15 17  1  0
 15 16  1  6
 16 10  1  0
 17 18  2  0
 20 19  1  6
 20 22  1  0
 21 20  1  0
 22 24  1  0
 22 23  1  6
 23 17  1  0
 24 26  2  0
 24 25  1  0
M  END
$$$$
