FVT.pdb
     RDKit          3D

 26 26  0  0  1  0  0  0  0  0999 V2000
   26.7144  -21.1619  -10.8727 N   0  0  0  0  0  0  0  0  0  0  0  0
   25.3454  -20.9883  -11.2632 C   0  0  1  0  0  0  0  0  0  0  0  0
   24.7776  -19.8382  -10.4404 C   0  0  0  0  0  0  0  0  0  0  0  0
   24.5143  -20.3878   -9.0769 C   0  0  0  0  0  0  0  0  0  0  0  0
   23.4295  -21.1986   -8.8150 C   0  0  0  0  0  0  0  0  0  0  0  0
   23.1635  -21.7202   -7.5619 C   0  0  0  0  0  0  0  0  0  0  0  0
   24.0353  -21.4105   -6.5130 C   0  0  0  0  0  0  0  0  0  0  0  0
   25.1284  -20.6032   -6.7412 C   0  0  0  0  0  0  0  0  0  0  0  0
   25.3530  -20.1060   -8.0083 C   0  0  0  0  0  0  0  0  0  0  0  0
   25.2138  -20.7046  -12.7249 C   0  0  0  0  0  0  0  0  0  0  0  0
   25.9609  -19.8942  -13.3320 O   0  0  0  0  0  0  0  0  0  0  0  0
   24.2245  -22.5374  -17.0785 C   0  0  0  0  0  0  0  0  0  0  0  0
   24.2918  -22.5642  -15.5741 C   0  0  1  0  0  0  0  0  0  0  0  0
   25.5081  -23.2641  -15.0644 C   0  0  0  0  0  0  0  0  0  0  0  0
   24.1457  -21.2198  -14.9479 C   0  0  2  0  0  0  0  0  0  0  0  0
   24.2139  -21.3591  -13.4947 N   0  0  0  0  0  0  0  0  0  0  0  0
   22.8049  -20.6792  -15.3070 C   0  0  0  0  0  0  0  0  0  0  0  0
   21.7470  -21.2709  -14.9243 O   0  0  0  0  0  0  0  0  0  0  0  0
   21.7873  -16.6982  -15.6192 C   0  0  0  0  0  0  0  0  0  0  0  0
   21.4521  -17.5041  -16.8543 C   0  0  1  0  0  0  0  0  0  0  0  0
   22.5137  -17.3628  -17.7472 O   0  0  0  0  0  0  0  0  0  0  0  0
   21.3451  -18.9537  -16.4414 C   0  0  2  0  0  0  0  0  0  0  0  0
   22.6346  -19.5047  -16.0759 N   0  0  0  0  0  0  0  0  0  0  0  0
   20.8288  -19.7080  -17.6129 C   0  0  0  0  0  0  0  0  0  0  0  0
   19.5352  -19.5460  -18.0911 O   0  0  0  0  0  0  0  0  0  0  0  0
   21.5501  -20.5438  -18.2387 O   0  0  0  0  0  0  0  0  0  0  0  0
  2  1  1  1
  2 10  1  0
  3  2  1  0
  3  4  1  0
  4  9  2  0
  4  5  1  0
  5  6  2  0
  6  7  1  0
  8  7  2  0
  9  8  1  0
 10 11  2  0
 13 12  1  6
 13 15  1  0
 14 13  1  0
 15 17  1  0
 15 16  1  1
 16 10  1  0
 17 18  2  0
 20 19  1  1
 20 22  1  0
 21 20  1  0
 22 24  1  0
 22 23  1  6
 23 17  1  0
 24 26  2  0
 24 25  1  0
M  END
$$$$
