FVT.pdb
     RDKit          3D

 26 26  0  0  1  0  0  0  0  0999 V2000
   27.3384  -20.7430  -16.3336 N   0  0  0  0  0  0  0  0  0  0  0  0
   26.4059  -19.9927  -15.5434 C   0  0  1  0  0  0  0  0  0  0  0  0
   25.5123  -19.2176  -16.5042 C   0  0  0  0  0  0  0  0  0  0  0  0
   26.3879  -18.2057  -17.1676 C   0  0  0  0  0  0  0  0  0  0  0  0
   26.8459  -17.0888  -16.5000 C   0  0  0  0  0  0  0  0  0  0  0  0
   27.6573  -16.1374  -17.0911 C   0  0  0  0  0  0  0  0  0  0  0  0
   28.0298  -16.3173  -18.4272 C   0  0  0  0  0  0  0  0  0  0  0  0
   27.5894  -17.4224  -19.1225 C   0  0  0  0  0  0  0  0  0  0  0  0
   26.7813  -18.3448  -18.4907 C   0  0  0  0  0  0  0  0  0  0  0  0
   25.5861  -20.8762  -14.6593 C   0  0  0  0  0  0  0  0  0  0  0  0
   25.0552  -21.9426  -15.0648 O   0  0  0  0  0  0  0  0  0  0  0  0
   26.4251  -21.1628  -10.8145 C   0  0  0  0  0  0  0  0  0  0  0  0
   24.9322  -21.1229  -11.0091 C   0  0  1  0  0  0  0  0  0  0  0  0
   24.3086  -19.8954  -10.4315 C   0  0  0  0  0  0  0  0  0  0  0  0
   24.5110  -21.3221  -12.4248 C   0  0  2  0  0  0  0  0  0  0  0  0
   25.3754  -20.5296  -13.2968 N   0  0  0  0  0  0  0  0  0  0  0  0
   23.1134  -20.8280  -12.5714 C   0  0  0  0  0  0  0  0  0  0  0  0
   22.8436  -19.5969  -12.4066 O   0  0  0  0  0  0  0  0  0  0  0  0
   20.7909  -21.6055  -15.5370 C   0  0  0  0  0  0  0  0  0  0  0  0
   20.0271  -21.9522  -14.2787 C   0  0  1  0  0  0  0  0  0  0  0  0
   20.1591  -23.3250  -14.0737 O   0  0  0  0  0  0  0  0  0  0  0  0
   20.6779  -21.2175  -13.1297 C   0  0  2  0  0  0  0  0  0  0  0  0
   22.0313  -21.6790  -12.8948 N   0  0  0  0  0  0  0  0  0  0  0  0
   19.8702  -21.4978  -11.9143 C   0  0  0  0  0  0  0  0  0  0  0  0
   18.5570  -21.0675  -11.7779 O   0  0  0  0  0  0  0  0  0  0  0  0
   20.3444  -22.1490  -10.9337 O   0  0  0  0  0  0  0  0  0  0  0  0
  2  1  1  6
  2 10  1  0
  3  2  1  0
  3  4  1  0
  4  9  2  0
  4  5  1  0
  5  6  2  0
  6  7  1  0
  8  7  2  0
  9  8  1  0
 10 11  2  0
 13 12  1  6
 13 15  1  0
 14 13  1  0
 15 17  1  0
 15 16  1  6
 16 10  1  0
 17 18  2  0
 20 19  1  6
 20 22  1  0
 21 20  1  0
 22 24  1  0
 22 23  1  1
 23 17  1  0
 24 26  2  0
 24 25  1  0
M  END
$$$$
