FVT.pdb
     RDKit          3D

 26 26  0  0  1  0  0  0  0  0999 V2000
   27.6940  -19.6128   -9.5737 N   0  0  0  0  0  0  0  0  0  0  0  0
   27.8382  -20.1933  -10.8772 C   0  0  1  0  0  0  0  0  0  0  0  0
   27.9347  -21.7034  -10.6971 C   0  0  0  0  0  0  0  0  0  0  0  0
   29.3156  -21.9791  -10.1993 C   0  0  0  0  0  0  0  0  0  0  0  0
   30.3780  -22.1606  -11.0602 C   0  0  0  0  0  0  0  0  0  0  0  0
   31.6656  -22.4169  -10.6250 C   0  0  0  0  0  0  0  0  0  0  0  0
   31.8998  -22.4954   -9.2483 C   0  0  0  0  0  0  0  0  0  0  0  0
   30.8601  -22.3189   -8.3613 C   0  0  0  0  0  0  0  0  0  0  0  0
   29.5923  -22.0653   -8.8425 C   0  0  0  0  0  0  0  0  0  0  0  0
   26.6949  -19.8424  -11.7739 C   0  0  0  0  0  0  0  0  0  0  0  0
   25.5283  -19.6448  -11.3454 O   0  0  0  0  0  0  0  0  0  0  0  0
   26.2757  -16.8895  -15.3060 C   0  0  0  0  0  0  0  0  0  0  0  0
   26.6761  -18.3304  -15.1273 C   0  0  1  0  0  0  0  0  0  0  0  0
   28.1509  -18.5034  -14.9726 C   0  0  0  0  0  0  0  0  0  0  0  0
   25.9381  -19.0217  -14.0325 C   0  0  2  0  0  0  0  0  0  0  0  0
   26.8956  -19.7180  -13.1757 N   0  0  0  0  0  0  0  0  0  0  0  0
   25.0316  -20.0328  -14.6448 C   0  0  0  0  0  0  0  0  0  0  0  0
   25.5063  -21.0066  -15.3095 O   0  0  0  0  0  0  0  0  0  0  0  0
   22.9208  -22.5688  -13.2798 C   0  0  0  0  0  0  0  0  0  0  0  0
   21.9451  -21.6833  -14.0222 C   0  0  1  0  0  0  0  0  0  0  0  0
   21.4400  -20.7590  -13.1087 O   0  0  0  0  0  0  0  0  0  0  0  0
   22.7167  -20.9471  -15.0927 C   0  0  2  0  0  0  0  0  0  0  0  0
   23.6239  -19.9700  -14.5252 N   0  0  0  0  0  0  0  0  0  0  0  0
   21.7248  -20.2305  -15.9359 C   0  0  0  0  0  0  0  0  0  0  0  0
   20.8102  -20.8985  -16.7393 O   0  0  0  0  0  0  0  0  0  0  0  0
   21.6644  -18.9632  -15.9634 O   0  0  0  0  0  0  0  0  0  0  0  0
  2  1  1  1
  2 10  1  0
  3  2  1  0
  3  4  1  0
  4  9  2  0
  4  5  1  0
  5  6  2  0
  6  7  1  0
  8  7  2  0
  9  8  1  0
 10 11  2  0
 13 12  1  1
 13 15  1  0
 14 13  1  0
 15 17  1  0
 15 16  1  1
 16 10  1  0
 17 18  2  0
 20 19  1  1
 20 22  1  0
 21 20  1  0
 22 24  1  0
 22 23  1  1
 23 17  1  0
 24 26  2  0
 24 25  1  0
M  END
$$$$
