AEA.pdb
     RDKit          3D

 20 19  0  0  1  0  0  0  0  0999 V2000
    8.0796  -12.1589   19.8529 C   0  0  0  0  0  0  0  0  0  0  0  0
    8.1830  -13.6758   19.6812 C   0  0  2  0  0  0  0  0  0  0  0  0
    7.2637  -14.1414   18.6775 N   0  0  0  0  0  0  0  0  0  0  0  0
    7.9206  -14.3620   20.9514 C   0  0  0  0  0  0  0  0  0  0  0  0
    6.7382  -14.5790   21.3152 O   0  0  0  0  0  0  0  0  0  0  0  0
    8.9683  -14.7999   21.8038 N   0  0  0  0  0  0  0  0  0  0  0  0
    8.6949  -15.5389   23.0600 C   0  0  1  0  0  0  0  0  0  0  0  0
    9.7323  -16.6090   23.1037 C   0  0  0  0  0  0  0  0  0  0  0  0
    9.6721  -17.4273   24.3556 C   0  0  0  0  0  0  0  0  0  0  0  0
   10.7983  -18.4271   24.2764 C   0  0  0  0  0  0  0  0  0  0  0  0
   10.6181  -19.6303   24.5337 O   0  0  0  0  0  0  0  0  0  0  0  0
    8.7146  -14.5767   24.1607 C   0  0  0  0  0  0  0  0  0  0  0  0
    9.7045  -13.7746   24.2617 O   0  0  0  0  0  0  0  0  0  0  0  0
   12.0507  -17.9803   23.9084 O   0  0  0  0  0  0  0  0  0  0  0  0
    6.4157  -12.9117   26.5037 C   0  0  0  0  0  0  0  0  0  0  0  0
    7.7996  -13.4576   26.1751 C   0  0  2  0  0  0  0  0  0  0  0  0
    7.6938  -14.4530   25.1536 N   0  0  0  0  0  0  0  0  0  0  0  0
    8.3831  -14.0098   27.4260 C   0  0  0  0  0  0  0  0  0  0  0  0
    8.7410  -13.2281   28.4999 O   0  0  0  0  0  0  0  0  0  0  0  0
    8.5721  -15.2649   27.5368 O   0  0  0  0  0  0  0  0  0  0  0  0
  2  1  1  1
  2  4  1  0
  3  2  1  0
  4  6  1  0
  4  5  2  0
  6  7  1  0
  7 12  1  0
  7  8  1  1
  9 10  1  0
  9  8  1  0
 10 14  1  0
 11 10  2  0
 12 17  1  0
 12 13  2  0
 16 15  1  1
 16 18  1  0
 17 16  1  0
 18 19  1  0
 20 18  2  0
M  END
$$$$
