AEA.pdb
     RDKit          3D

 20 19  0  0  1  0  0  0  0  0999 V2000
    8.0555  -12.2304   19.1073 C   0  0  0  0  0  0  0  0  0  0  0  0
    8.3901  -13.5638   18.4356 C   0  0  2  0  0  0  0  0  0  0  0  0
    7.4719  -13.8416   17.3635 N   0  0  0  0  0  0  0  0  0  0  0  0
    8.3604  -14.6595   19.4111 C   0  0  0  0  0  0  0  0  0  0  0  0
    7.3078  -15.3242   19.5769 O   0  0  0  0  0  0  0  0  0  0  0  0
    9.4946  -15.0069   20.1914 N   0  0  0  0  0  0  0  0  0  0  0  0
    9.4710  -16.1487   21.1373 C   0  0  1  0  0  0  0  0  0  0  0  0
   10.5711  -17.0442   20.6778 C   0  0  0  0  0  0  0  0  0  0  0  0
   10.7530  -18.2414   21.5578 C   0  0  0  0  0  0  0  0  0  0  0  0
   11.8688  -19.0581   20.9559 C   0  0  0  0  0  0  0  0  0  0  0  0
   12.9202  -19.2819   21.5812 O   0  0  0  0  0  0  0  0  0  0  0  0
    9.5991  -15.6130   22.4916 C   0  0  0  0  0  0  0  0  0  0  0  0
   10.6325  -14.9214   22.7867 O   0  0  0  0  0  0  0  0  0  0  0  0
   11.7034  -19.5610   19.6819 O   0  0  0  0  0  0  0  0  0  0  0  0
    7.5973  -14.8185   25.4802 C   0  0  0  0  0  0  0  0  0  0  0  0
    8.8995  -15.2949   24.8489 C   0  0  2  0  0  0  0  0  0  0  0  0
    8.6409  -15.7994   23.5359 N   0  0  0  0  0  0  0  0  0  0  0  0
    9.4843  -16.3354   25.7351 C   0  0  0  0  0  0  0  0  0  0  0  0
    9.9602  -16.0693   26.9980 O   0  0  0  0  0  0  0  0  0  0  0  0
    9.5612  -17.5414   25.3313 O   0  0  0  0  0  0  0  0  0  0  0  0
  2  1  1  1
  2  4  1  0
  3  2  1  0
  4  6  1  0
  4  5  2  0
  6  7  1  0
  7 12  1  0
  7  8  1  6
  9 10  1  0
  9  8  1  0
 10 14  1  0
 11 10  2  0
 12 17  1  0
 12 13  2  0
 16 15  1  1
 16 18  1  0
 17 16  1  0
 18 19  1  0
 20 18  2  0
M  END
$$$$
