AEA.pdb
     RDKit          3D

 20 19  0  0  1  0  0  0  0  0999 V2000
    8.1862  -12.1878   19.7516 C   0  0  0  0  0  0  0  0  0  0  0  0
    8.2839  -13.7098   19.6277 C   0  0  2  0  0  0  0  0  0  0  0  0
    7.4282  -14.1939   18.5775 N   0  0  0  0  0  0  0  0  0  0  0  0
    7.9299  -14.3586   20.8953 C   0  0  0  0  0  0  0  0  0  0  0  0
    6.7324  -14.6482   21.1394 O   0  0  0  0  0  0  0  0  0  0  0  0
    8.9038  -14.6793   21.8774 N   0  0  0  0  0  0  0  0  0  0  0  0
    8.5459  -15.3913   23.1279 C   0  0  1  0  0  0  0  0  0  0  0  0
    9.5394  -16.4984   23.2313 C   0  0  0  0  0  0  0  0  0  0  0  0
    9.4018  -17.2878   24.4957 C   0  0  0  0  0  0  0  0  0  0  0  0
   10.4458  -18.3748   24.4455 C   0  0  0  0  0  0  0  0  0  0  0  0
   10.3025  -19.3805   23.7280 O   0  0  0  0  0  0  0  0  0  0  0  0
    8.5515  -14.4164   24.2174 C   0  0  0  0  0  0  0  0  0  0  0  0
    9.5942  -13.7003   24.3995 O   0  0  0  0  0  0  0  0  0  0  0  0
   11.5796  -18.2351   25.2190 O   0  0  0  0  0  0  0  0  0  0  0  0
    6.1530  -12.7167   26.5104 C   0  0  0  0  0  0  0  0  0  0  0  0
    7.5521  -13.1721   26.1148 C   0  0  2  0  0  0  0  0  0  0  0  0
    7.4615  -14.1897   25.1141 N   0  0  0  0  0  0  0  0  0  0  0  0
    8.2379  -13.6614   27.3397 C   0  0  0  0  0  0  0  0  0  0  0  0
    8.6533  -12.8302   28.3540 O   0  0  0  0  0  0  0  0  0  0  0  0
    8.4651  -14.9068   27.4839 O   0  0  0  0  0  0  0  0  0  0  0  0
  2  1  1  1
  2  4  1  0
  3  2  1  0
  4  6  1  0
  4  5  2  0
  6  7  1  0
  7 12  1  0
  7  8  1  1
  9 10  1  0
  9  8  1  0
 10 14  1  0
 11 10  2  0
 12 17  1  0
 12 13  2  0
 16 15  1  1
 16 18  1  0
 17 16  1  0
 18 19  1  0
 20 18  2  0
M  END
$$$$
