AEA.pdb
     RDKit          3D

 20 19  0  0  1  0  0  0  0  0999 V2000
    8.1339  -12.2963   20.6032 C   0  0  0  0  0  0  0  0  0  0  0  0
    8.2832  -13.7939   20.3271 C   0  0  2  0  0  0  0  0  0  0  0  0
    7.3354  -14.2288   19.3362 N   0  0  0  0  0  0  0  0  0  0  0  0
    8.1046  -14.5702   21.5594 C   0  0  0  0  0  0  0  0  0  0  0  0
    6.9503  -14.8851   21.9413 O   0  0  0  0  0  0  0  0  0  0  0  0
    9.2040  -14.9889   22.3543 N   0  0  0  0  0  0  0  0  0  0  0  0
    9.0195  -15.8366   23.5569 C   0  0  1  0  0  0  0  0  0  0  0  0
    9.6981  -17.1215   23.2226 C   0  0  0  0  0  0  0  0  0  0  0  0
   11.1228  -16.9353   22.8027 C   0  0  0  0  0  0  0  0  0  0  0  0
   11.6644  -18.3058   22.4823 C   0  0  0  0  0  0  0  0  0  0  0  0
   12.6987  -18.7377   23.0211 O   0  0  0  0  0  0  0  0  0  0  0  0
    9.5512  -15.1070   24.7069 C   0  0  0  0  0  0  0  0  0  0  0  0
   10.6452  -14.4597   24.5751 O   0  0  0  0  0  0  0  0  0  0  0  0
   10.9852  -19.0852   21.5688 O   0  0  0  0  0  0  0  0  0  0  0  0
    8.4932  -13.3860   27.6857 C   0  0  0  0  0  0  0  0  0  0  0  0
    9.5345  -14.2993   27.0510 C   0  0  2  0  0  0  0  0  0  0  0  0
    8.9331  -15.0529   25.9947 N   0  0  0  0  0  0  0  0  0  0  0  0
   10.0811  -15.1805   28.1162 C   0  0  0  0  0  0  0  0  0  0  0  0
   10.8094  -14.7096   29.1840 O   0  0  0  0  0  0  0  0  0  0  0  0
    9.8805  -16.4377   28.0634 O   0  0  0  0  0  0  0  0  0  0  0  0
  2  1  1  1
  2  4  1  0
  3  2  1  0
  4  6  1  0
  4  5  2  0
  6  7  1  0
  7 12  1  0
  7  8  1  6
  9 10  1  0
  9  8  1  0
 10 14  1  0
 11 10  2  0
 12 17  1  0
 12 13  2  0
 16 15  1  1
 16 18  1  0
 17 16  1  0
 18 19  1  0
 20 18  2  0
M  END
$$$$
