AEA.pdb
     RDKit          3D

 20 19  0  0  1  0  0  0  0  0999 V2000
    8.3892  -12.0304   19.4103 C   0  0  0  0  0  0  0  0  0  0  0  0
    8.6233  -13.3208   18.6221 C   0  0  2  0  0  0  0  0  0  0  0  0
    7.5845  -13.5209   17.6472 N   0  0  0  0  0  0  0  0  0  0  0  0
    8.6871  -14.4766   19.5239 C   0  0  0  0  0  0  0  0  0  0  0  0
    7.6332  -15.0760   19.8519 O   0  0  0  0  0  0  0  0  0  0  0  0
    9.9149  -14.9555   20.0521 N   0  0  0  0  0  0  0  0  0  0  0  0
    9.9934  -16.2227   20.8182 C   0  0  1  0  0  0  0  0  0  0  0  0
   11.1076  -16.9821   20.1816 C   0  0  0  0  0  0  0  0  0  0  0  0
   12.4348  -16.3074   20.3362 C   0  0  0  0  0  0  0  0  0  0  0  0
   13.4505  -17.1819   19.6450 C   0  0  0  0  0  0  0  0  0  0  0  0
   13.9933  -16.8317   18.5824 O   0  0  0  0  0  0  0  0  0  0  0  0
   10.1680  -15.8843   22.2298 C   0  0  0  0  0  0  0  0  0  0  0  0
   10.9416  -14.9159   22.5412 O   0  0  0  0  0  0  0  0  0  0  0  0
   13.7736  -18.3947   20.2177 O   0  0  0  0  0  0  0  0  0  0  0  0
    8.4170  -15.8654   25.3439 C   0  0  0  0  0  0  0  0  0  0  0  0
    9.7527  -16.1328   24.6615 C   0  0  2  0  0  0  0  0  0  0  0  0
    9.5279  -16.5594   23.3151 N   0  0  0  0  0  0  0  0  0  0  0  0
   10.4738  -17.1631   25.4542 C   0  0  0  0  0  0  0  0  0  0  0  0
   10.8997  -16.9586   26.7462 O   0  0  0  0  0  0  0  0  0  0  0  0
   10.7232  -18.3006   24.9372 O   0  0  0  0  0  0  0  0  0  0  0  0
  2  1  1  1
  2  4  1  0
  3  2  1  0
  4  6  1  0
  4  5  2  0
  6  7  1  0
  7 12  1  0
  7  8  1  6
  9 10  1  0
  9  8  1  0
 10 14  1  0
 11 10  2  0
 12 17  1  0
 12 13  2  0
 16 15  1  1
 16 18  1  0
 17 16  1  0
 18 19  1  0
 20 18  2  0
M  END
$$$$
