AEA.pdb
     RDKit          3D

 20 19  0  0  1  0  0  0  0  0999 V2000
    7.5173  -11.9802   20.4893 C   0  0  0  0  0  0  0  0  0  0  0  0
    7.6658  -13.4724   20.1856 C   0  0  2  0  0  0  0  0  0  0  0  0
    6.5546  -13.9494   19.4063 N   0  0  0  0  0  0  0  0  0  0  0  0
    7.7707  -14.2478   21.4270 C   0  0  0  0  0  0  0  0  0  0  0  0
    6.7611  -14.8367   21.8866 O   0  0  0  0  0  0  0  0  0  0  0  0
    8.9902  -14.3627   22.1449 N   0  0  0  0  0  0  0  0  0  0  0  0
    9.1699  -15.3653   23.2225 C   0  0  1  0  0  0  0  0  0  0  0  0
   10.5568  -15.8794   23.0345 C   0  0  0  0  0  0  0  0  0  0  0  0
   10.9308  -16.9257   24.0376 C   0  0  0  0  0  0  0  0  0  0  0  0
   12.3570  -17.3186   23.7451 C   0  0  0  0  0  0  0  0  0  0  0  0
   13.2538  -17.1904   24.5971 O   0  0  0  0  0  0  0  0  0  0  0  0
    8.8937  -14.7077   24.4988 C   0  0  0  0  0  0  0  0  0  0  0  0
    9.1534  -15.3315   25.5835 O   0  0  0  0  0  0  0  0  0  0  0  0
   12.6568  -17.8303   22.4995 O   0  0  0  0  0  0  0  0  0  0  0  0
    7.1376  -11.6459   25.7825 C   0  0  0  0  0  0  0  0  0  0  0  0
    8.0062  -12.8887   25.9310 C   0  0  2  0  0  0  0  0  0  0  0  0
    8.3484  -13.3936   24.6374 N   0  0  0  0  0  0  0  0  0  0  0  0
    7.2462  -13.8859   26.7297 C   0  0  0  0  0  0  0  0  0  0  0  0
    7.3777  -14.0183   28.0927 O   0  0  0  0  0  0  0  0  0  0  0  0
    6.4256  -14.6695   26.1500 O   0  0  0  0  0  0  0  0  0  0  0  0
  2  1  1  1
  2  4  1  0
  3  2  1  0
  4  6  1  0
  4  5  2  0
  6  7  1  0
  7 12  1  0
  7  8  1  1
  9 10  1  0
  9  8  1  0
 10 14  1  0
 11 10  2  0
 12 17  1  0
 12 13  2  0
 16 15  1  6
 16 18  1  0
 17 16  1  0
 18 19  1  0
 20 18  2  0
M  END
$$$$
