AEA.pdb
     RDKit          3D

 20 19  0  0  1  0  0  0  0  0999 V2000
    8.2867  -12.2283   18.7924 C   0  0  0  0  0  0  0  0  0  0  0  0
    8.5144  -13.6491   18.2724 C   0  0  2  0  0  0  0  0  0  0  0  0
    7.5292  -13.9965   17.2833 N   0  0  0  0  0  0  0  0  0  0  0  0
    8.4757  -14.6183   19.3734 C   0  0  0  0  0  0  0  0  0  0  0  0
    7.3753  -15.0802   19.7649 O   0  0  0  0  0  0  0  0  0  0  0  0
    9.6537  -15.0651   20.0281 N   0  0  0  0  0  0  0  0  0  0  0  0
    9.6266  -16.1730   21.0134 C   0  0  1  0  0  0  0  0  0  0  0  0
   10.7867  -17.0349   20.6466 C   0  0  0  0  0  0  0  0  0  0  0  0
   10.9572  -18.2036   21.5662 C   0  0  0  0  0  0  0  0  0  0  0  0
   12.1255  -19.0012   21.0438 C   0  0  0  0  0  0  0  0  0  0  0  0
   13.2542  -18.4943   20.9189 O   0  0  0  0  0  0  0  0  0  0  0  0
    9.6579  -15.5850   22.3516 C   0  0  0  0  0  0  0  0  0  0  0  0
   10.5263  -14.6835   22.6095 O   0  0  0  0  0  0  0  0  0  0  0  0
   11.9206  -20.3219   20.7013 O   0  0  0  0  0  0  0  0  0  0  0  0
    7.5898  -14.7486   25.1527 C   0  0  0  0  0  0  0  0  0  0  0  0
    8.9232  -15.3353   24.7064 C   0  0  2  0  0  0  0  0  0  0  0  0
    8.7756  -15.9399   23.4188 N   0  0  0  0  0  0  0  0  0  0  0  0
    9.3568  -16.3197   25.7324 C   0  0  0  0  0  0  0  0  0  0  0  0
    9.7115  -15.9664   27.0137 O   0  0  0  0  0  0  0  0  0  0  0  0
    9.4120  -17.5583   25.4387 O   0  0  0  0  0  0  0  0  0  0  0  0
  2  1  1  1
  2  4  1  0
  3  2  1  0
  4  6  1  0
  4  5  2  0
  6  7  1  0
  7 12  1  0
  7  8  1  6
  9 10  1  0
  9  8  1  0
 10 14  1  0
 11 10  2  0
 12 17  1  0
 12 13  2  0
 16 15  1  1
 16 18  1  0
 17 16  1  0
 18 19  1  0
 20 18  2  0
M  END
$$$$
