AEA.pdb
     RDKit          3D

 20 19  0  0  1  0  0  0  0  0999 V2000
    7.9460  -12.3856   20.2467 C   0  0  0  0  0  0  0  0  0  0  0  0
    8.4081  -13.8441   20.2272 C   0  0  2  0  0  0  0  0  0  0  0  0
    7.7360  -14.5804   19.1900 N   0  0  0  0  0  0  0  0  0  0  0  0
    8.1670  -14.4834   21.5258 C   0  0  0  0  0  0  0  0  0  0  0  0
    7.0086  -14.5026   22.0107 O   0  0  0  0  0  0  0  0  0  0  0  0
    9.2093  -15.0935   22.2723 N   0  0  0  0  0  0  0  0  0  0  0  0
    8.9470  -15.7843   23.5580 C   0  0  1  0  0  0  0  0  0  0  0  0
    9.6557  -17.0907   23.4378 C   0  0  0  0  0  0  0  0  0  0  0  0
   11.1196  -16.9360   23.1664 C   0  0  0  0  0  0  0  0  0  0  0  0
   11.6938  -18.3272   23.0722 C   0  0  0  0  0  0  0  0  0  0  0  0
   12.9067  -18.5172   22.8739 O   0  0  0  0  0  0  0  0  0  0  0  0
    9.3926  -14.9064   24.6389 C   0  0  0  0  0  0  0  0  0  0  0  0
   10.5207  -14.3160   24.5292 O   0  0  0  0  0  0  0  0  0  0  0  0
   10.8408  -19.4025   23.2115 O   0  0  0  0  0  0  0  0  0  0  0  0
    8.1353  -12.7564   27.2477 C   0  0  0  0  0  0  0  0  0  0  0  0
    9.1888  -13.7775   26.8369 C   0  0  2  0  0  0  0  0  0  0  0  0
    8.6528  -14.6443   25.8336 N   0  0  0  0  0  0  0  0  0  0  0  0
    9.5986  -14.5275   28.0533 C   0  0  0  0  0  0  0  0  0  0  0  0
   10.2489  -13.9436   29.1156 O   0  0  0  0  0  0  0  0  0  0  0  0
    9.3479  -15.7735   28.1438 O   0  0  0  0  0  0  0  0  0  0  0  0
  2  1  1  1
  2  4  1  0
  3  2  1  0
  4  6  1  0
  4  5  2  0
  6  7  1  0
  7 12  1  0
  7  8  1  6
  9 10  1  0
  9  8  1  0
 10 14  1  0
 11 10  2  0
 12 17  1  0
 12 13  2  0
 16 15  1  1
 16 18  1  0
 17 16  1  0
 18 19  1  0
 20 18  2  0
M  END
$$$$
