HTR.pdb
     RDKit          3D

 29 29  0  0  1  0  0  0  0  0999 V2000
    9.8200  -18.1865   18.1840 N   0  0  0  0  0  0  0  0  0  0  0  0
    9.2334  -16.8921   18.4479 C   0  0  1  0  0  0  0  0  0  0  0  0
    8.2854  -16.5979   17.2837 C   0  0  0  0  0  0  0  0  0  0  0  0
    9.0438  -16.8439   16.0182 C   0  0  0  0  0  0  0  0  0  0  0  0
    8.7019  -17.7547   15.0196 C   0  0  0  0  0  0  0  0  0  0  0  0
    9.6270  -17.6807   14.0486 N   0  0  0  0  0  0  0  0  0  0  0  0
   10.5413  -16.7550   14.3989 C   0  0  0  0  0  0  0  0  0  0  0  0
   10.1710  -16.2578   15.5970 N   0  0  0  0  0  0  0  0  0  0  0  0
    8.4276  -16.8870   19.6908 C   0  0  0  0  0  0  0  0  0  0  0  0
    7.7819  -15.8422   19.9572 O   0  0  0  0  0  0  0  0  0  0  0  0
    6.2910  -20.0052   21.0324 C   0  0  0  0  0  0  0  0  0  0  0  0
    7.1372  -19.3736   22.1220 C   0  0  1  0  0  0  0  0  0  0  0  0
    8.2938  -20.1501   22.2427 O   0  0  0  0  0  0  0  0  0  0  0  0
    7.5890  -17.9816   21.7206 C   0  0  2  0  0  0  0  0  0  0  0  0
    8.4038  -18.0341   20.5308 N   0  0  0  0  0  0  0  0  0  0  0  0
    8.3564  -17.3332   22.8141 C   0  0  0  0  0  0  0  0  0  0  0  0
    9.6244  -17.3048   22.7021 O   0  0  0  0  0  0  0  0  0  0  0  0
    4.5216  -11.1695   26.2824 N   0  0  0  0  0  0  0  0  0  0  0  0
    5.9158  -11.2852   26.6155 C   0  0  0  0  0  0  0  0  0  0  0  0
    6.5463  -10.3336   27.2121 N   0  0  0  0  0  0  0  0  0  0  0  0
    6.6459  -12.4611   26.2924 N   0  0  0  0  0  0  0  0  0  0  0  0
    7.9344  -12.7371   26.8562 C   0  0  0  0  0  0  0  0  0  0  0  0
    8.5257  -14.0531   26.4696 C   0  0  0  0  0  0  0  0  0  0  0  0
    7.8903  -14.8202   25.3899 C   0  0  0  0  0  0  0  0  0  0  0  0
    8.4471  -16.1422   25.0195 C   0  0  2  0  0  0  0  0  0  0  0  0
    7.7115  -16.7696   23.9350 N   0  0  0  0  0  0  0  0  0  0  0  0
    8.5368  -17.1200   26.1076 C   0  0  0  0  0  0  0  0  0  0  0  0
    7.6419  -17.9772   26.2504 O   0  0  0  0  0  0  0  0  0  0  0  0
    9.5996  -17.1161   26.9923 O   0  0  0  0  0  0  0  0  0  0  0  0
  2  9  1  0
  2  1  1  6
  3  2  1  0
  4  8  1  0
  4  3  1  0
  5  4  2  0
  6  5  1  0
  6  7  1  0
  7  8  2  0
  9 10  2  0
 12 13  1  0
 12 14  1  0
 12 11  1  6
 14 16  1  0
 15  9  1  0
 14 15  1  6
 16 17  2  0
 18 19  1  0
 19 20  2  0
 21 19  1  0
 22 21  1  0
 22 23  1  0
 23 24  1  0
 25 24  1  1
 25 27  1  0
 26 25  1  0
 26 16  1  0
 27 28  2  0
 27 29  1  0
M  END
$$$$
