HTR.pdb
     RDKit          3D

 29 29  0  0  1  0  0  0  0  0999 V2000
    8.7791  -12.4659   20.7893 N   0  0  0  0  0  0  0  0  0  0  0  0
    7.8632  -13.3784   21.4356 C   0  0  1  0  0  0  0  0  0  0  0  0
    7.9706  -14.7076   20.6858 C   0  0  0  0  0  0  0  0  0  0  0  0
    7.6838  -14.4307   19.2443 C   0  0  0  0  0  0  0  0  0  0  0  0
    6.6749  -13.6040   18.7517 C   0  0  0  0  0  0  0  0  0  0  0  0
    6.7415  -13.6132   17.4102 N   0  0  0  0  0  0  0  0  0  0  0  0
    7.7571  -14.4169   17.0381 C   0  0  0  0  0  0  0  0  0  0  0  0
    8.3173  -14.9040   18.1645 N   0  0  0  0  0  0  0  0  0  0  0  0
    8.2313  -13.6324   22.8478 C   0  0  0  0  0  0  0  0  0  0  0  0
    9.4049  -14.0176   23.0792 O   0  0  0  0  0  0  0  0  0  0  0  0
    6.5982  -11.4918   25.9716 C   0  0  0  0  0  0  0  0  0  0  0  0
    6.7171  -12.9858   26.2081 C   0  0  1  0  0  0  0  0  0  0  0  0
    5.4699  -13.5462   25.9155 O   0  0  0  0  0  0  0  0  0  0  0  0
    7.7102  -13.6107   25.2456 C   0  0  2  0  0  0  0  0  0  0  0  0
    7.2735  -13.4391   23.8809 N   0  0  0  0  0  0  0  0  0  0  0  0
    7.8881  -15.0579   25.5268 C   0  0  0  0  0  0  0  0  0  0  0  0
    7.2370  -15.8790   24.8035 O   0  0  0  0  0  0  0  0  0  0  0  0
   13.4738  -20.9993   23.6327 N   0  0  0  0  0  0  0  0  0  0  0  0
   13.9398  -20.4409   24.8733 C   0  0  0  0  0  0  0  0  0  0  0  0
   14.9021  -20.9833   25.5359 N   0  0  0  0  0  0  0  0  0  0  0  0
   13.3472  -19.2661   25.4106 N   0  0  0  0  0  0  0  0  0  0  0  0
   12.1979  -18.6513   24.8145 C   0  0  0  0  0  0  0  0  0  0  0  0
   11.0510  -18.4197   25.7429 C   0  0  0  0  0  0  0  0  0  0  0  0
   10.3592  -17.1246   25.6975 C   0  0  0  0  0  0  0  0  0  0  0  0
    9.2227  -16.8808   26.6160 C   0  0  2  0  0  0  0  0  0  0  0  0
    8.7431  -15.5108   26.5533 N   0  0  0  0  0  0  0  0  0  0  0  0
    9.4695  -17.1915   28.0269 C   0  0  0  0  0  0  0  0  0  0  0  0
    9.5040  -16.2733   28.8705 O   0  0  0  0  0  0  0  0  0  0  0  0
    9.6698  -18.4920   28.4527 O   0  0  0  0  0  0  0  0  0  0  0  0
  2  9  1  0
  2  1  1  6
  3  2  1  0
  4  8  1  0
  4  3  1  0
  5  4  2  0
  6  5  1  0
  6  7  1  0
  7  8  2  0
  9 10  2  0
 12 13  1  0
 12 14  1  0
 12 11  1  6
 14 16  1  0
 15  9  1  0
 14 15  1  6
 16 17  2  0
 18 19  1  0
 19 20  2  0
 21 19  1  0
 22 21  1  0
 22 23  1  0
 23 24  1  0
 25 24  1  6
 25 27  1  0
 26 25  1  0
 26 16  1  0
 27 28  2  0
 27 29  1  0
M  END
$$$$
