HTR.pdb
     RDKit          3D

 29 29  0  0  1  0  0  0  0  0999 V2000
    8.3671  -16.4000   15.8323 N   0  0  0  0  0  0  0  0  0  0  0  0
    9.0053  -15.1108   15.6912 C   0  0  1  0  0  0  0  0  0  0  0  0
    8.0823  -14.2613   14.8154 C   0  0  0  0  0  0  0  0  0  0  0  0
    8.0945  -14.8589   13.4443 C   0  0  0  0  0  0  0  0  0  0  0  0
    8.8492  -15.9568   13.0335 C   0  0  0  0  0  0  0  0  0  0  0  0
    8.5854  -16.1867   11.7368 N   0  0  0  0  0  0  0  0  0  0  0  0
    7.6905  -15.2724   11.3139 C   0  0  0  0  0  0  0  0  0  0  0  0
    7.4042  -14.4751   12.3638 N   0  0  0  0  0  0  0  0  0  0  0  0
    9.1515  -14.4147   16.9905 C   0  0  0  0  0  0  0  0  0  0  0  0
    9.7012  -13.2846   16.9826 O   0  0  0  0  0  0  0  0  0  0  0  0
    6.9413  -12.9481   19.3850 C   0  0  0  0  0  0  0  0  0  0  0  0
    7.7174  -13.9903   20.1684 C   0  0  1  0  0  0  0  0  0  0  0  0
    6.9190  -15.1368   20.2254 O   0  0  0  0  0  0  0  0  0  0  0  0
    8.9889  -14.3827   19.4387 C   0  0  2  0  0  0  0  0  0  0  0  0
    8.6784  -15.0252   18.1845 N   0  0  0  0  0  0  0  0  0  0  0  0
    9.8196  -15.2941   20.2660 C   0  0  0  0  0  0  0  0  0  0  0  0
    9.6110  -16.5447   20.1482 O   0  0  0  0  0  0  0  0  0  0  0  0
   17.9112  -13.6635   20.5972 N   0  0  0  0  0  0  0  0  0  0  0  0
   17.0128  -13.7061   19.4750 C   0  0  0  0  0  0  0  0  0  0  0  0
   17.3465  -13.2258   18.3274 N   0  0  0  0  0  0  0  0  0  0  0  0
   15.7194  -14.2822   19.5998 N   0  0  0  0  0  0  0  0  0  0  0  0
   15.0579  -14.4029   20.8655 C   0  0  0  0  0  0  0  0  0  0  0  0
   13.7605  -15.1422   20.8335 C   0  0  0  0  0  0  0  0  0  0  0  0
   13.0019  -15.2870   22.0832 C   0  0  0  0  0  0  0  0  0  0  0  0
   11.5726  -15.6713   22.0196 C   0  0  2  0  0  0  0  0  0  0  0  0
   10.8022  -14.7998   21.1491 N   0  0  0  0  0  0  0  0  0  0  0  0
   10.8736  -15.7296   23.3065 C   0  0  0  0  0  0  0  0  0  0  0  0
    9.9777  -14.9017   23.5671 O   0  0  0  0  0  0  0  0  0  0  0  0
   11.1865  -16.6889   24.2522 O   0  0  0  0  0  0  0  0  0  0  0  0
  2  9  1  0
  2  1  1  1
  3  2  1  0
  4  8  1  0
  4  3  1  0
  5  4  2  0
  6  5  1  0
  6  7  1  0
  7  8  2  0
  9 10  2  0
 12 13  1  0
 12 14  1  0
 12 11  1  6
 14 16  1  0
 15  9  1  0
 14 15  1  6
 16 17  2  0
 18 19  1  0
 19 20  2  0
 21 19  1  0
 22 21  1  0
 22 23  1  0
 23 24  1  0
 25 24  1  1
 25 27  1  0
 26 25  1  0
 26 16  1  0
 27 28  2  0
 27 29  1  0
M  END
$$$$
