HTR.pdb
     RDKit          3D

 29 29  0  0  1  0  0  0  0  0999 V2000
    8.4287  -12.7715   17.9954 N   0  0  0  0  0  0  0  0  0  0  0  0
    8.5029  -14.1685   18.3587 C   0  0  1  0  0  0  0  0  0  0  0  0
    9.6961  -14.7532   17.6003 C   0  0  0  0  0  0  0  0  0  0  0  0
    9.2531  -14.9976   16.1928 C   0  0  0  0  0  0  0  0  0  0  0  0
    8.0132  -14.6605   15.6516 C   0  0  0  0  0  0  0  0  0  0  0  0
    7.9993  -15.0409   14.3636 N   0  0  0  0  0  0  0  0  0  0  0  0
    9.1870  -15.6067   14.0721 C   0  0  0  0  0  0  0  0  0  0  0  0
    9.9349  -15.5716   15.1942 N   0  0  0  0  0  0  0  0  0  0  0  0
    8.7592  -14.3565   19.8055 C   0  0  0  0  0  0  0  0  0  0  0  0
    9.5656  -13.5663   20.3575 O   0  0  0  0  0  0  0  0  0  0  0  0
    7.3374  -16.1377   24.1399 C   0  0  0  0  0  0  0  0  0  0  0  0
    7.1151  -16.0640   22.6407 C   0  0  1  0  0  0  0  0  0  0  0  0
    6.0692  -15.1609   22.4268 O   0  0  0  0  0  0  0  0  0  0  0  0
    8.3329  -15.4921   21.9386 C   0  0  2  0  0  0  0  0  0  0  0  0
    8.1037  -15.3988   20.5169 N   0  0  0  0  0  0  0  0  0  0  0  0
    9.5350  -16.3270   22.1894 C   0  0  0  0  0  0  0  0  0  0  0  0
    9.6630  -17.3904   21.5007 O   0  0  0  0  0  0  0  0  0  0  0  0
   18.7245  -15.0368   22.7271 N   0  0  0  0  0  0  0  0  0  0  0  0
   17.8268  -15.9720   23.3497 C   0  0  0  0  0  0  0  0  0  0  0  0
   18.2327  -17.1240   23.7586 N   0  0  0  0  0  0  0  0  0  0  0  0
   16.4541  -15.6516   23.5325 N   0  0  0  0  0  0  0  0  0  0  0  0
   15.4427  -16.0789   22.6113 C   0  0  0  0  0  0  0  0  0  0  0  0
   14.2322  -16.6890   23.2387 C   0  0  0  0  0  0  0  0  0  0  0  0
   12.9369  -16.0173   23.0681 C   0  0  0  0  0  0  0  0  0  0  0  0
   11.6935  -16.7542   23.3930 C   0  0  2  0  0  0  0  0  0  0  0  0
   10.5000  -15.9618   23.1512 N   0  0  0  0  0  0  0  0  0  0  0  0
   11.6023  -17.2723   24.7611 C   0  0  0  0  0  0  0  0  0  0  0  0
   10.7568  -16.8041   25.5496 O   0  0  0  0  0  0  0  0  0  0  0  0
   12.4409  -18.2776   25.2068 O   0  0  0  0  0  0  0  0  0  0  0  0
  2  9  1  0
  2  1  1  1
  3  2  1  0
  4  8  1  0
  4  3  1  0
  5  4  2  0
  6  5  1  0
  6  7  1  0
  7  8  2  0
  9 10  2  0
 12 13  1  0
 12 14  1  0
 12 11  1  1
 14 16  1  0
 15  9  1  0
 14 15  1  6
 16 17  2  0
 18 19  1  0
 19 20  2  0
 21 19  1  0
 22 21  1  0
 22 23  1  0
 23 24  1  0
 25 24  1  1
 25 27  1  0
 26 25  1  0
 26 16  1  0
 27 28  2  0
 27 29  1  0
M  END
$$$$
