HTR.pdb
     RDKit          3D

 29 29  0  0  1  0  0  0  0  0999 V2000
    9.1583  -15.7832   17.9150 N   0  0  0  0  0  0  0  0  0  0  0  0
   10.1869  -14.7927   18.1388 C   0  0  1  0  0  0  0  0  0  0  0  0
    9.5349  -13.6592   18.9329 C   0  0  0  0  0  0  0  0  0  0  0  0
    8.4061  -13.1286   18.1074 C   0  0  0  0  0  0  0  0  0  0  0  0
    7.0786  -13.0038   18.5147 C   0  0  0  0  0  0  0  0  0  0  0  0
    6.3727  -12.4886   17.4947 N   0  0  0  0  0  0  0  0  0  0  0  0
    7.2078  -12.2838   16.4573 C   0  0  0  0  0  0  0  0  0  0  0  0
    8.4375  -12.6780   16.8475 N   0  0  0  0  0  0  0  0  0  0  0  0
   11.3044  -15.3224   18.9543 C   0  0  0  0  0  0  0  0  0  0  0  0
   11.0305  -16.2022   19.8089 O   0  0  0  0  0  0  0  0  0  0  0  0
   15.0370  -15.3865   17.3382 C   0  0  0  0  0  0  0  0  0  0  0  0
   15.0407  -15.1406   18.8354 C   0  0  1  0  0  0  0  0  0  0  0  0
   15.2065  -13.7648   19.0230 O   0  0  0  0  0  0  0  0  0  0  0  0
   13.7010  -15.5039   19.4488 C   0  0  2  0  0  0  0  0  0  0  0  0
   12.6258  -14.8362   18.7557 N   0  0  0  0  0  0  0  0  0  0  0  0
   13.6574  -15.1426   20.8886 C   0  0  0  0  0  0  0  0  0  0  0  0
   13.5292  -13.9095   21.1788 O   0  0  0  0  0  0  0  0  0  0  0  0
   12.1123  -19.1786   28.3830 N   0  0  0  0  0  0  0  0  0  0  0  0
   12.3287  -17.7798   28.6377 C   0  0  0  0  0  0  0  0  0  0  0  0
   13.0164  -17.3788   29.6502 N   0  0  0  0  0  0  0  0  0  0  0  0
   11.7847  -16.7904   27.7744 N   0  0  0  0  0  0  0  0  0  0  0  0
   11.7008  -16.9792   26.3562 C   0  0  0  0  0  0  0  0  0  0  0  0
   12.8104  -16.3629   25.5689 C   0  0  0  0  0  0  0  0  0  0  0  0
   12.7560  -16.4324   24.1025 C   0  0  0  0  0  0  0  0  0  0  0  0
   13.8227  -15.7791   23.3088 C   0  0  2  0  0  0  0  0  0  0  0  0
   13.7540  -16.1224   21.8988 N   0  0  0  0  0  0  0  0  0  0  0  0
   15.1945  -16.0401   23.7541 C   0  0  0  0  0  0  0  0  0  0  0  0
   15.8406  -16.9861   23.2604 O   0  0  0  0  0  0  0  0  0  0  0  0
   15.7984  -15.2567   24.7206 O   0  0  0  0  0  0  0  0  0  0  0  0
  2  9  1  0
  2  1  1  1
  3  2  1  0
  4  8  1  0
  4  3  1  0
  5  4  2  0
  6  5  1  0
  6  7  1  0
  7  8  2  0
  9 10  2  0
 12 13  1  0
 12 14  1  0
 12 11  1  6
 14 16  1  0
 15  9  1  0
 14 15  1  6
 16 17  2  0
 18 19  1  0
 19 20  2  0
 21 19  1  0
 22 21  1  0
 22 23  1  0
 23 24  1  0
 25 24  1  1
 25 27  1  0
 26 25  1  0
 26 16  1  0
 27 28  2  0
 27 29  1  0
M  END
$$$$
