HTR.pdb
     RDKit          3D

 29 29  0  0  1  0  0  0  0  0999 V2000
   10.1767  -17.1715   17.2631 N   0  0  0  0  0  0  0  0  0  0  0  0
    8.9916  -17.0448   18.0809 C   0  0  1  0  0  0  0  0  0  0  0  0
    8.6255  -18.4576   18.5395 C   0  0  0  0  0  0  0  0  0  0  0  0
    8.1304  -19.2014   17.3400 C   0  0  0  0  0  0  0  0  0  0  0  0
    8.0381  -18.6993   16.0427 C   0  0  0  0  0  0  0  0  0  0  0  0
    7.5501  -19.6681   15.2508 N   0  0  0  0  0  0  0  0  0  0  0  0
    7.3308  -20.7648   16.0025 C   0  0  0  0  0  0  0  0  0  0  0  0
    7.6887  -20.4627   17.2676 N   0  0  0  0  0  0  0  0  0  0  0  0
    9.2350  -16.2314   19.2947 C   0  0  0  0  0  0  0  0  0  0  0  0
   10.3639  -16.3272   19.8384 O   0  0  0  0  0  0  0  0  0  0  0  0
    7.3123  -12.6290   20.0634 C   0  0  0  0  0  0  0  0  0  0  0  0
    7.4202  -13.5831   21.2383 C   0  0  1  0  0  0  0  0  0  0  0  0
    6.2071  -14.2742   21.3159 O   0  0  0  0  0  0  0  0  0  0  0  0
    8.4978  -14.6237   20.9957 C   0  0  2  0  0  0  0  0  0  0  0  0
    8.2126  -15.3833   19.8024 N   0  0  0  0  0  0  0  0  0  0  0  0
    8.6163  -15.5489   22.1512 C   0  0  0  0  0  0  0  0  0  0  0  0
    8.2508  -16.7558   21.9744 O   0  0  0  0  0  0  0  0  0  0  0  0
   13.2793  -19.2495   21.6910 N   0  0  0  0  0  0  0  0  0  0  0  0
   11.9623  -19.7970   21.5065 C   0  0  0  0  0  0  0  0  0  0  0  0
   11.4978  -20.0513   20.3324 N   0  0  0  0  0  0  0  0  0  0  0  0
   11.1268  -20.0744   22.6224 N   0  0  0  0  0  0  0  0  0  0  0  0
   11.1771  -19.2953   23.8243 C   0  0  0  0  0  0  0  0  0  0  0  0
   10.0379  -18.3477   24.0125 C   0  0  0  0  0  0  0  0  0  0  0  0
   10.3311  -16.9657   24.4150 C   0  0  0  0  0  0  0  0  0  0  0  0
    9.2156  -15.9995   24.5445 C   0  0  2  0  0  0  0  0  0  0  0  0
    9.1132  -15.1136   23.3976 N   0  0  0  0  0  0  0  0  0  0  0  0
    9.2419  -15.1575   25.7440 C   0  0  0  0  0  0  0  0  0  0  0  0
    9.1623  -15.6799   26.8739 O   0  0  0  0  0  0  0  0  0  0  0  0
    9.3520  -13.7819   25.6548 O   0  0  0  0  0  0  0  0  0  0  0  0
  2  9  1  0
  2  1  1  6
  3  2  1  0
  4  8  1  0
  4  3  1  0
  5  4  2  0
  6  5  1  0
  6  7  1  0
  7  8  2  0
  9 10  2  0
 12 13  1  0
 12 14  1  0
 12 11  1  6
 14 16  1  0
 15  9  1  0
 14 15  1  6
 16 17  2  0
 18 19  1  0
 19 20  2  0
 21 19  1  0
 22 21  1  0
 22 23  1  0
 23 24  1  0
 25 24  1  6
 25 27  1  0
 26 25  1  0
 26 16  1  0
 27 28  2  0
 27 29  1  0
M  END
$$$$
