WAH.pdb
     RDKit          3D

 30 32  0  0  1  0  0  0  0  0999 V2000
   26.0512  -22.4443  -13.2998 N   0  0  0  0  0  0  0  0  0  0  0  0
   25.4724  -21.5009  -12.3491 C   0  0  1  0  0  0  0  0  0  0  0  0
   26.3017  -20.2638  -12.2750 C   0  0  0  0  0  0  0  0  0  0  0  0
   27.4328  -20.4949  -11.3370 C   0  0  0  0  0  0  0  0  0  0  0  0
   28.7740  -20.7132  -11.6738 C   0  0  0  0  0  0  0  0  0  0  0  0
   29.5048  -20.8833  -10.5615 N   0  0  0  0  0  0  0  0  0  0  0  0
   28.6948  -20.7858   -9.4905 C   0  0  0  0  0  0  0  0  0  0  0  0
   28.9070  -20.8755   -8.1285 C   0  0  0  0  0  0  0  0  0  0  0  0
   27.8885  -20.7348   -7.2224 C   0  0  0  0  0  0  0  0  0  0  0  0
   26.6191  -20.4973   -7.6873 C   0  0  0  0  0  0  0  0  0  0  0  0
   26.3895  -20.4050   -9.0412 C   0  0  0  0  0  0  0  0  0  0  0  0
   27.4219  -20.5476   -9.9565 C   0  0  0  0  0  0  0  0  0  0  0  0
   24.0778  -21.3028  -12.7315 C   0  0  0  0  0  0  0  0  0  0  0  0
   23.8131  -21.3638  -13.9738 O   0  0  0  0  0  0  0  0  0  0  0  0
   20.7986  -20.7345  -10.9530 C   0  0  0  0  0  0  0  0  0  0  0  0
   21.6331  -20.8632  -12.2259 C   0  0  2  0  0  0  0  0  0  0  0  0
   23.0058  -21.0529  -11.8656 N   0  0  0  0  0  0  0  0  0  0  0  0
   21.3861  -19.7477  -13.1318 C   0  0  0  0  0  0  0  0  0  0  0  0
   21.9010  -18.6274  -12.9002 O   0  0  0  0  0  0  0  0  0  0  0  0
   20.5645  -19.9391  -14.2683 N   0  0  0  0  0  0  0  0  0  0  0  0
   20.2931  -18.9047  -15.2475 C   0  0  1  0  0  0  0  0  0  0  0  0
   20.5059  -19.3970  -16.6518 C   0  0  0  0  0  0  0  0  0  0  0  0
   21.9318  -19.4201  -17.0194 C   0  0  0  0  0  0  0  0  0  0  0  0
   22.9660  -18.9065  -16.2583 C   0  0  0  0  0  0  0  0  0  0  0  0
   24.1390  -19.1029  -16.9018 N   0  0  0  0  0  0  0  0  0  0  0  0
   23.8514  -19.7345  -18.0592 C   0  0  0  0  0  0  0  0  0  0  0  0
   22.5105  -19.9220  -18.1205 N   0  0  0  0  0  0  0  0  0  0  0  0
   18.8744  -18.5082  -15.1078 C   0  0  0  0  0  0  0  0  0  0  0  0
   18.3634  -17.2564  -15.3915 O   0  0  0  0  0  0  0  0  0  0  0  0
   18.0402  -19.3587  -14.6980 O   0  0  0  0  0  0  0  0  0  0  0  0
  2  1  1  6
  2  3  1  0
  3  4  1  0
  4  5  2  0
  5  6  1  0
  7  6  1  0
  8  7  2  0
  9  8  1  0
 10 11  1  0
 10  9  2  0
 11 12  2  0
 12  4  1  0
 12  7  1  0
 13  2  1  0
 13 14  2  0
 16 15  1  1
 16 17  1  0
 17 13  1  0
 18 20  1  0
 18 16  1  0
 19 18  2  0
 21 20  1  0
 21 28  1  0
 21 22  1  6
 23 22  1  0
 23 24  2  0
 25 24  1  0
 26 27  2  0
 26 25  1  0
 27 23  1  0
 28 30  2  0
 28 29  1  0
M  END
$$$$
