WAH.pdb
     RDKit          3D

 30 32  0  0  1  0  0  0  0  0999 V2000
   24.0597  -21.2903  -11.2363 N   0  0  0  0  0  0  0  0  0  0  0  0
   25.0214  -20.2329  -11.5291 C   0  0  1  0  0  0  0  0  0  0  0  0
   26.3634  -20.5858  -10.9829 C   0  0  0  0  0  0  0  0  0  0  0  0
   26.2591  -20.7437   -9.5075 C   0  0  0  0  0  0  0  0  0  0  0  0
   25.5936  -21.7624   -8.8153 C   0  0  0  0  0  0  0  0  0  0  0  0
   25.7144  -21.5734   -7.4924 N   0  0  0  0  0  0  0  0  0  0  0  0
   26.4400  -20.4599   -7.2774 C   0  0  0  0  0  0  0  0  0  0  0  0
   26.8633  -19.8086   -6.1351 C   0  0  0  0  0  0  0  0  0  0  0  0
   27.6118  -18.6618   -6.1862 C   0  0  0  0  0  0  0  0  0  0  0  0
   27.9493  -18.1476   -7.4133 C   0  0  0  0  0  0  0  0  0  0  0  0
   27.5359  -18.7835   -8.5617 C   0  0  0  0  0  0  0  0  0  0  0  0
   26.7785  -19.9442   -8.5076 C   0  0  0  0  0  0  0  0  0  0  0  0
   24.9707  -19.9885  -12.9671 C   0  0  0  0  0  0  0  0  0  0  0  0
   25.1822  -20.9889  -13.7232 O   0  0  0  0  0  0  0  0  0  0  0  0
   23.9767  -17.2172  -15.2892 C   0  0  0  0  0  0  0  0  0  0  0  0
   24.7856  -18.4789  -14.9951 C   0  0  2  0  0  0  0  0  0  0  0  0
   24.7123  -18.7629  -13.5936 N   0  0  0  0  0  0  0  0  0  0  0  0
   26.1384  -18.3728  -15.5286 C   0  0  0  0  0  0  0  0  0  0  0  0
   27.0667  -17.9458  -14.8007 O   0  0  0  0  0  0  0  0  0  0  0  0
   26.3933  -18.7534  -16.8678 N   0  0  0  0  0  0  0  0  0  0  0  0
   27.7112  -18.7337  -17.4722 C   0  0  1  0  0  0  0  0  0  0  0  0
   28.0437  -20.0453  -18.1271 C   0  0  0  0  0  0  0  0  0  0  0  0
   28.2967  -21.1079  -17.1394 C   0  0  0  0  0  0  0  0  0  0  0  0
   28.2437  -20.9569  -15.7657 C   0  0  0  0  0  0  0  0  0  0  0  0
   28.5293  -22.1376  -15.1717 N   0  0  0  0  0  0  0  0  0  0  0  0
   28.7613  -23.0282  -16.1589 C   0  0  0  0  0  0  0  0  0  0  0  0
   28.6176  -22.3935  -17.3477 N   0  0  0  0  0  0  0  0  0  0  0  0
   27.7171  -17.6832  -18.5144 C   0  0  0  0  0  0  0  0  0  0  0  0
   28.8334  -17.2455  -19.2006 O   0  0  0  0  0  0  0  0  0  0  0  0
   26.6318  -17.1227  -18.8225 O   0  0  0  0  0  0  0  0  0  0  0  0
  2  1  1  6
  2  3  1  0
  3  4  1  0
  4  5  2  0
  5  6  1  0
  7  6  1  0
  8  7  2  0
  9  8  1  0
 10 11  1  0
 10  9  2  0
 11 12  2  0
 12  4  1  0
 12  7  1  0
 13  2  1  0
 13 14  2  0
 16 15  1  1
 16 17  1  0
 17 13  1  0
 18 20  1  0
 18 16  1  0
 19 18  2  0
 21 20  1  0
 21 28  1  0
 21 22  1  6
 23 22  1  0
 23 24  2  0
 25 24  1  0
 26 27  2  0
 26 25  1  0
 27 23  1  0
 28 30  2  0
 28 29  1  0
M  END
$$$$
