WAH.pdb
     RDKit          3D

 30 32  0  0  1  0  0  0  0  0999 V2000
   23.7914  -19.6205  -15.3542 N   0  0  0  0  0  0  0  0  0  0  0  0
   22.4420  -19.2032  -14.9885 C   0  0  1  0  0  0  0  0  0  0  0  0
   21.5405  -19.2632  -16.1748 C   0  0  0  0  0  0  0  0  0  0  0  0
   21.9018  -18.1670  -17.1131 C   0  0  0  0  0  0  0  0  0  0  0  0
   22.7556  -18.2535  -18.2192 C   0  0  0  0  0  0  0  0  0  0  0  0
   22.8415  -17.0604  -18.8272 N   0  0  0  0  0  0  0  0  0  0  0  0
   22.0720  -16.1780  -18.1626 C   0  0  0  0  0  0  0  0  0  0  0  0
   21.7922  -14.8374  -18.3436 C   0  0  0  0  0  0  0  0  0  0  0  0
   20.9530  -14.1495  -17.5065 C   0  0  0  0  0  0  0  0  0  0  0  0
   20.3744  -14.8177  -16.4564 C   0  0  0  0  0  0  0  0  0  0  0  0
   20.6421  -16.1535  -16.2611 C   0  0  0  0  0  0  0  0  0  0  0  0
   21.4917  -16.8477  -17.1096 C   0  0  0  0  0  0  0  0  0  0  0  0
   22.0340  -20.0136  -13.8452 C   0  0  0  0  0  0  0  0  0  0  0  0
   22.2479  -21.2645  -13.9277 O   0  0  0  0  0  0  0  0  0  0  0  0
   21.1115  -19.4711  -10.2825 C   0  0  0  0  0  0  0  0  0  0  0  0
   21.0257  -20.3319  -11.5414 C   0  0  2  0  0  0  0  0  0  0  0  0
   21.4316  -19.5489  -12.6694 N   0  0  0  0  0  0  0  0  0  0  0  0
   19.7116  -20.9511  -11.6666 C   0  0  0  0  0  0  0  0  0  0  0  0
   18.6782  -20.2799  -11.4312 O   0  0  0  0  0  0  0  0  0  0  0  0
   19.6129  -22.3089  -12.0537 N   0  0  0  0  0  0  0  0  0  0  0  0
   18.3532  -22.9950  -12.2654 C   0  0  1  0  0  0  0  0  0  0  0  0
   17.4609  -22.9069  -11.0589 C   0  0  0  0  0  0  0  0  0  0  0  0
   16.1784  -23.5999  -11.2680 C   0  0  0  0  0  0  0  0  0  0  0  0
   15.9624  -24.9563  -11.1057 C   0  0  0  0  0  0  0  0  0  0  0  0
   14.6698  -25.2424  -11.3810 N   0  0  0  0  0  0  0  0  0  0  0  0
   14.0723  -24.0792  -11.7147 C   0  0  0  0  0  0  0  0  0  0  0  0
   14.9959  -23.0898  -11.6429 N   0  0  0  0  0  0  0  0  0  0  0  0
   17.6634  -22.3386  -13.3981 C   0  0  0  0  0  0  0  0  0  0  0  0
   17.2239  -22.9752  -14.5427 O   0  0  0  0  0  0  0  0  0  0  0  0
   17.4455  -21.0989  -13.3446 O   0  0  0  0  0  0  0  0  0  0  0  0
  2  1  1  6
  2  3  1  0
  3  4  1  0
  4  5  2  0
  5  6  1  0
  7  6  1  0
  8  7  2  0
  9  8  1  0
 10 11  1  0
 10  9  2  0
 11 12  2  0
 12  4  1  0
 12  7  1  0
 13  2  1  0
 13 14  2  0
 16 15  1  1
 16 17  1  0
 17 13  1  0
 18 20  1  0
 18 16  1  0
 19 18  2  0
 21 20  1  0
 21 28  1  0
 21 22  1  1
 23 22  1  0
 23 24  2  0
 25 24  1  0
 26 27  2  0
 26 25  1  0
 27 23  1  0
 28 30  2  0
 28 29  1  0
M  END
$$$$
