WAH.pdb
     RDKit          3D

 30 32  0  0  1  0  0  0  0  0999 V2000
   28.5277  -18.8098  -12.4647 N   0  0  0  0  0  0  0  0  0  0  0  0
   28.0202  -20.0580  -13.0245 C   0  0  1  0  0  0  0  0  0  0  0  0
   27.4196  -20.9019  -11.9516 C   0  0  0  0  0  0  0  0  0  0  0  0
   28.2985  -20.8579  -10.7524 C   0  0  0  0  0  0  0  0  0  0  0  0
   28.0401  -20.2009   -9.5435 C   0  0  0  0  0  0  0  0  0  0  0  0
   29.0629  -20.3828   -8.6944 N   0  0  0  0  0  0  0  0  0  0  0  0
   29.9981  -21.1409   -9.2971 C   0  0  0  0  0  0  0  0  0  0  0  0
   31.2279  -21.6271   -8.8978 C   0  0  0  0  0  0  0  0  0  0  0  0
   32.0079  -22.3975   -9.7202 C   0  0  0  0  0  0  0  0  0  0  0  0
   31.5487  -22.6928  -10.9795 C   0  0  0  0  0  0  0  0  0  0  0  0
   30.3258  -22.2165  -11.3939 C   0  0  0  0  0  0  0  0  0  0  0  0
   29.5379  -21.4371  -10.5598 C   0  0  0  0  0  0  0  0  0  0  0  0
   27.1271  -19.7069  -14.1242 C   0  0  0  0  0  0  0  0  0  0  0  0
   26.4369  -18.6483  -13.9824 O   0  0  0  0  0  0  0  0  0  0  0  0
   26.3202  -20.9357  -17.5832 C   0  0  0  0  0  0  0  0  0  0  0  0
   25.9102  -20.2533  -16.2797 C   0  0  2  0  0  0  0  0  0  0  0  0
   26.9571  -20.4204  -15.3173 N   0  0  0  0  0  0  0  0  0  0  0  0
   24.5958  -20.7059  -15.8398 C   0  0  0  0  0  0  0  0  0  0  0  0
   24.4119  -21.9144  -15.5580 O   0  0  0  0  0  0  0  0  0  0  0  0
   23.5352  -19.7746  -15.7344 N   0  0  0  0  0  0  0  0  0  0  0  0
   22.1951  -20.1274  -15.3076 C   0  0  1  0  0  0  0  0  0  0  0  0
   21.8770  -19.5670  -13.9495 C   0  0  0  0  0  0  0  0  0  0  0  0
   22.6356  -20.2406  -12.8821 C   0  0  0  0  0  0  0  0  0  0  0  0
   22.6418  -21.6017  -12.6371 C   0  0  0  0  0  0  0  0  0  0  0  0
   23.4476  -21.8659  -11.5838 N   0  0  0  0  0  0  0  0  0  0  0  0
   23.9472  -20.6841  -11.1650 C   0  0  0  0  0  0  0  0  0  0  0  0
   23.4486  -19.7054  -11.9591 N   0  0  0  0  0  0  0  0  0  0  0  0
   21.2417  -19.5488  -16.2802 C   0  0  0  0  0  0  0  0  0  0  0  0
   21.5823  -18.7443  -17.3504 O   0  0  0  0  0  0  0  0  0  0  0  0
   20.0124  -19.7901  -16.1476 O   0  0  0  0  0  0  0  0  0  0  0  0
  2  1  1  1
  2  3  1  0
  3  4  1  0
  4  5  2  0
  5  6  1  0
  7  6  1  0
  8  7  2  0
  9  8  1  0
 10 11  1  0
 10  9  2  0
 11 12  2  0
 12  4  1  0
 12  7  1  0
 13  2  1  0
 13 14  2  0
 16 15  1  6
 16 17  1  0
 17 13  1  0
 18 20  1  0
 18 16  1  0
 19 18  2  0
 21 20  1  0
 21 28  1  0
 21 22  1  1
 23 22  1  0
 23 24  2  0
 25 24  1  0
 26 27  2  0
 26 25  1  0
 27 23  1  0
 28 30  2  0
 28 29  1  0
M  END
$$$$
