WAH.pdb
     RDKit          3D

 30 32  0  0  1  0  0  0  0  0999 V2000
   23.1869  -18.5712  -16.0321 N   0  0  0  0  0  0  0  0  0  0  0  0
   22.0366  -18.1095  -15.2625 C   0  0  1  0  0  0  0  0  0  0  0  0
   20.9335  -17.6941  -16.1760 C   0  0  0  0  0  0  0  0  0  0  0  0
   21.1541  -16.2827  -16.5906 C   0  0  0  0  0  0  0  0  0  0  0  0
   22.0491  -15.8216  -17.5633 C   0  0  0  0  0  0  0  0  0  0  0  0
   21.9713  -14.4857  -17.6623 N   0  0  0  0  0  0  0  0  0  0  0  0
   21.0522  -14.0381  -16.7862 C   0  0  0  0  0  0  0  0  0  0  0  0
   20.5757  -12.7807  -16.4697 C   0  0  0  0  0  0  0  0  0  0  0  0
   19.6119  -12.5868  -15.5150 C   0  0  0  0  0  0  0  0  0  0  0  0
   19.1068  -13.6791  -14.8549 C   0  0  0  0  0  0  0  0  0  0  0  0
   19.5702  -14.9392  -15.1575 C   0  0  0  0  0  0  0  0  0  0  0  0
   20.5457  -15.1333  -16.1243 C   0  0  0  0  0  0  0  0  0  0  0  0
   21.7027  -19.1636  -14.3098 C   0  0  0  0  0  0  0  0  0  0  0  0
   21.9617  -20.3566  -14.6657 O   0  0  0  0  0  0  0  0  0  0  0  0
   20.6896  -19.4239  -10.7159 C   0  0  0  0  0  0  0  0  0  0  0  0
   20.7459  -20.0161  -12.1227 C   0  0  2  0  0  0  0  0  0  0  0  0
   21.1264  -18.9894  -13.0453 N   0  0  0  0  0  0  0  0  0  0  0  0
   19.5049  -20.7068  -12.4528 C   0  0  0  0  0  0  0  0  0  0  0  0
   19.0856  -21.6287  -11.7124 O   0  0  0  0  0  0  0  0  0  0  0  0
   18.7819  -20.3302  -13.6098 N   0  0  0  0  0  0  0  0  0  0  0  0
   17.5502  -20.9687  -14.0313 C   0  0  1  0  0  0  0  0  0  0  0  0
   16.3712  -20.0451  -13.9024 C   0  0  0  0  0  0  0  0  0  0  0  0
   15.8376  -20.0181  -12.5301 C   0  0  0  0  0  0  0  0  0  0  0  0
   16.2770  -20.8059  -11.4817 C   0  0  0  0  0  0  0  0  0  0  0  0
   15.5642  -20.5145  -10.3702 N   0  0  0  0  0  0  0  0  0  0  0  0
   14.6816  -19.5518  -10.7104 C   0  0  0  0  0  0  0  0  0  0  0  0
   14.8560  -19.2583  -12.0220 N   0  0  0  0  0  0  0  0  0  0  0  0
   17.6943  -21.3363  -15.4574 C   0  0  0  0  0  0  0  0  0  0  0  0
   16.7726  -22.0551  -16.1939 O   0  0  0  0  0  0  0  0  0  0  0  0
   18.7312  -20.9802  -16.0780 O   0  0  0  0  0  0  0  0  0  0  0  0
  2  1  1  6
  2  3  1  0
  3  4  1  0
  4  5  2  0
  5  6  1  0
  7  6  1  0
  8  7  2  0
  9  8  1  0
 10 11  1  0
 10  9  2  0
 11 12  2  0
 12  4  1  0
 12  7  1  0
 13  2  1  0
 13 14  2  0
 16 15  1  1
 16 17  1  0
 17 13  1  0
 18 20  1  0
 18 16  1  0
 19 18  2  0
 21 20  1  0
 21 28  1  0
 21 22  1  6
 23 22  1  0
 23 24  2  0
 25 24  1  0
 26 27  2  0
 26 25  1  0
 27 23  1  0
 28 30  2  0
 28 29  1  0
M  END
$$$$
