WAH.pdb
     RDKit          3D

 30 32  0  0  1  0  0  0  0  0999 V2000
   27.0824  -22.4415  -13.7469 N   0  0  0  0  0  0  0  0  0  0  0  0
   26.0013  -21.8152  -12.9934 C   0  0  1  0  0  0  0  0  0  0  0  0
   26.4093  -20.4573  -12.5313 C   0  0  0  0  0  0  0  0  0  0  0  0
   27.5234  -20.5928  -11.5551 C   0  0  0  0  0  0  0  0  0  0  0  0
   28.8936  -20.6209  -11.8408 C   0  0  0  0  0  0  0  0  0  0  0  0
   29.5965  -20.7560  -10.7059 N   0  0  0  0  0  0  0  0  0  0  0  0
   28.7396  -20.8194   -9.6693 C   0  0  0  0  0  0  0  0  0  0  0  0
   28.9085  -20.9542   -8.3049 C   0  0  0  0  0  0  0  0  0  0  0  0
   27.8460  -20.9925   -7.4403 C   0  0  0  0  0  0  0  0  0  0  0  0
   26.5755  -20.8935   -7.9504 C   0  0  0  0  0  0  0  0  0  0  0  0
   26.3888  -20.7589   -9.3073 C   0  0  0  0  0  0  0  0  0  0  0  0
   27.4657  -20.7202  -10.1806 C   0  0  0  0  0  0  0  0  0  0  0  0
   24.8066  -21.8634  -13.8305 C   0  0  0  0  0  0  0  0  0  0  0  0
   24.8030  -21.1202  -14.8623 O   0  0  0  0  0  0  0  0  0  0  0  0
   21.5427  -23.7404  -13.9200 C   0  0  0  0  0  0  0  0  0  0  0  0
   22.3920  -22.5136  -14.2464 C   0  0  2  0  0  0  0  0  0  0  0  0
   23.6670  -22.6467  -13.6085 N   0  0  0  0  0  0  0  0  0  0  0  0
   21.6774  -21.2812  -13.9355 C   0  0  0  0  0  0  0  0  0  0  0  0
   22.3125  -20.2096  -13.7875 O   0  0  0  0  0  0  0  0  0  0  0  0
   20.2685  -21.3050  -13.8026 N   0  0  0  0  0  0  0  0  0  0  0  0
   19.4070  -20.2002  -14.1764 C   0  0  1  0  0  0  0  0  0  0  0  0
   19.5706  -19.8310  -15.6244 C   0  0  0  0  0  0  0  0  0  0  0  0
   20.5678  -18.7640  -15.8135 C   0  0  0  0  0  0  0  0  0  0  0  0
   21.7877  -18.6809  -15.1674 C   0  0  0  0  0  0  0  0  0  0  0  0
   22.4434  -17.5742  -15.5842 N   0  0  0  0  0  0  0  0  0  0  0  0
   21.6472  -16.9617  -16.4855 C   0  0  0  0  0  0  0  0  0  0  0  0
   20.5127  -17.6914  -16.6171 N   0  0  0  0  0  0  0  0  0  0  0  0
   18.0056  -20.6253  -13.9644 C   0  0  0  0  0  0  0  0  0  0  0  0
   17.0528  -19.9135  -13.2613 O   0  0  0  0  0  0  0  0  0  0  0  0
   17.6196  -21.7212  -14.4513 O   0  0  0  0  0  0  0  0  0  0  0  0
  2  1  1  6
  2  3  1  0
  3  4  1  0
  4  5  2  0
  5  6  1  0
  7  6  1  0
  8  7  2  0
  9  8  1  0
 10 11  1  0
 10  9  2  0
 11 12  2  0
 12  4  1  0
 12  7  1  0
 13  2  1  0
 13 14  2  0
 16 15  1  1
 16 17  1  0
 17 13  1  0
 18 20  1  0
 18 16  1  0
 19 18  2  0
 21 20  1  0
 21 28  1  0
 21 22  1  6
 23 22  1  0
 23 24  2  0
 25 24  1  0
 26 27  2  0
 26 25  1  0
 27 23  1  0
 28 30  2  0
 28 29  1  0
M  END
$$$$
