WAH.pdb
     RDKit          3D

 30 32  0  0  1  0  0  0  0  0999 V2000
   28.3767  -21.2899   -9.2104 N   0  0  0  0  0  0  0  0  0  0  0  0
   26.9749  -21.3743   -9.6062 C   0  0  1  0  0  0  0  0  0  0  0  0
   26.1192  -20.6117   -8.6523 C   0  0  0  0  0  0  0  0  0  0  0  0
   26.9935  -19.8635   -7.7097 C   0  0  0  0  0  0  0  0  0  0  0  0
   27.2643  -18.4900   -7.7232 C   0  0  0  0  0  0  0  0  0  0  0  0
   28.0978  -18.1765   -6.7196 N   0  0  0  0  0  0  0  0  0  0  0  0
   28.3936  -19.2972   -6.0347 C   0  0  0  0  0  0  0  0  0  0  0  0
   29.1852  -19.5549   -4.9323 C   0  0  0  0  0  0  0  0  0  0  0  0
   29.3234  -20.8162   -4.4143 C   0  0  0  0  0  0  0  0  0  0  0  0
   28.6522  -21.8531   -5.0130 C   0  0  0  0  0  0  0  0  0  0  0  0
   27.8593  -21.6145   -6.1123 C   0  0  0  0  0  0  0  0  0  0  0  0
   27.7208  -20.3371   -6.6347 C   0  0  0  0  0  0  0  0  0  0  0  0
   26.8936  -20.9529  -11.0012 C   0  0  0  0  0  0  0  0  0  0  0  0
   27.9962  -20.7369  -11.5968 O   0  0  0  0  0  0  0  0  0  0  0  0
   24.9321  -23.0378  -11.8512 C   0  0  0  0  0  0  0  0  0  0  0  0
   25.0828  -21.7164  -12.6025 C   0  0  2  0  0  0  0  0  0  0  0  0
   25.7224  -20.7640  -11.7457 N   0  0  0  0  0  0  0  0  0  0  0  0
   23.8082  -21.2798  -13.1598 C   0  0  0  0  0  0  0  0  0  0  0  0
   23.1247  -22.0704  -13.8538 O   0  0  0  0  0  0  0  0  0  0  0  0
   23.3516  -19.9631  -12.9125 N   0  0  0  0  0  0  0  0  0  0  0  0
   22.1332  -19.4155  -13.4764 C   0  0  1  0  0  0  0  0  0  0  0  0
   21.9073  -19.8919  -14.8842 C   0  0  0  0  0  0  0  0  0  0  0  0
   23.0164  -19.5193  -15.7784 C   0  0  0  0  0  0  0  0  0  0  0  0
   24.0912  -18.7195  -15.4352 C   0  0  0  0  0  0  0  0  0  0  0  0
   24.9142  -18.5900  -16.5002 N   0  0  0  0  0  0  0  0  0  0  0  0
   24.3668  -19.3005  -17.5087 C   0  0  0  0  0  0  0  0  0  0  0  0
   23.2165  -19.8598  -17.0604 N   0  0  0  0  0  0  0  0  0  0  0  0
   21.0000  -19.8789  -12.6453 C   0  0  0  0  0  0  0  0  0  0  0  0
   20.7842  -21.1834  -12.2450 O   0  0  0  0  0  0  0  0  0  0  0  0
   20.1448  -19.0396  -12.2563 O   0  0  0  0  0  0  0  0  0  0  0  0
  2  1  1  1
  2  3  1  0
  3  4  1  0
  4  5  2  0
  5  6  1  0
  7  6  1  0
  8  7  2  0
  9  8  1  0
 10 11  1  0
 10  9  2  0
 11 12  2  0
 12  4  1  0
 12  7  1  0
 13  2  1  0
 13 14  2  0
 16 15  1  1
 16 17  1  0
 17 13  1  0
 18 20  1  0
 18 16  1  0
 19 18  2  0
 21 20  1  0
 21 28  1  0
 21 22  1  6
 23 22  1  0
 23 24  2  0
 25 24  1  0
 26 27  2  0
 26 25  1  0
 27 23  1  0
 28 30  2  0
 28 29  1  0
M  END
$$$$
