IMQ.pdb
     RDKit          3D

 26 25  0  0  1  0  0  0  0  0999 V2000
    7.3658  -12.2492   18.2296 C   0  0  0  0  0  0  0  0  0  0  0  0
    7.6116  -13.6621   18.7078 C   0  0  0  0  0  0  0  0  0  0  0  0
    8.2082  -13.5833   20.0971 C   0  0  2  0  0  0  0  0  0  0  0  0
    9.5716  -12.9020   20.0606 C   0  0  0  0  0  0  0  0  0  0  0  0
    8.4224  -14.9805   20.6505 C   0  0  2  0  0  0  0  0  0  0  0  0
    7.1765  -15.7015   20.5371 N   0  0  0  0  0  0  0  0  0  0  0  0
    8.8211  -14.8149   22.0865 C   0  0  0  0  0  0  0  0  0  0  0  0
   10.0098  -14.5567   22.3923 O   0  0  0  0  0  0  0  0  0  0  0  0
    6.7485  -11.2309   26.9228 C   0  0  0  0  0  0  0  0  0  0  0  0
    6.0289  -12.8452   27.2640 S   0  0  0  0  0  0  0  0  0  0  0  0
    7.2090  -14.1540   26.7465 C   0  0  0  0  0  0  0  0  0  0  0  0
    7.0821  -14.2717   25.2653 C   0  0  0  0  0  0  0  0  0  0  0  0
    8.2558  -14.8478   24.5537 C   0  0  2  0  0  0  0  0  0  0  0  0
    7.8843  -14.9415   23.1406 N   0  0  0  0  0  0  0  0  0  0  0  0
    8.6291  -16.2199   24.9880 C   0  0  0  0  0  0  0  0  0  0  0  0
    8.2368  -17.1605   24.2460 O   0  0  0  0  0  0  0  0  0  0  0  0
   11.8993  -19.3592   22.7749 N   0  0  0  0  0  0  0  0  0  0  0  0
   12.6367  -18.4133   23.5870 C   0  0  0  0  0  0  0  0  0  0  0  0
   13.7597  -18.1193   23.1318 O   0  0  0  0  0  0  0  0  0  0  0  0
   12.0076  -17.9195   24.8158 C   0  0  0  0  0  0  0  0  0  0  0  0
   10.6251  -18.3268   25.1133 C   0  0  0  0  0  0  0  0  0  0  0  0
    9.9767  -17.7955   26.3455 C   0  0  2  0  0  0  0  0  0  0  0  0
    9.3667  -16.5062   26.1368 N   0  0  0  0  0  0  0  0  0  0  0  0
   10.7374  -17.8867   27.5882 C   0  0  0  0  0  0  0  0  0  0  0  0
   11.2571  -19.0094   27.9287 O   0  0  0  0  0  0  0  0  0  0  0  0
   10.9399  -16.8239   28.4407 O   0  0  0  0  0  0  0  0  0  0  0  0
  1  2  1  0
  3  4  1  6
  3  2  1  0
  5  3  1  0
  5  6  1  1
  7  5  1  0
  8  7  2  0
  9 10  1  0
 10 11  1  0
 11 12  1  0
 13 12  1  1
 13 14  1  0
 14  7  1  0
 15 13  1  0
 15 16  2  0
 17 18  1  0
 18 19  2  0
 18 20  1  0
 20 21  1  0
 22 21  1  6
 22 23  1  0
 23 15  1  0
 24 22  1  0
 24 26  1  0
 25 24  2  0
M  END
$$$$
