IMQ.pdb
     RDKit          3D

 26 25  0  0  1  0  0  0  0  0999 V2000
    8.2091  -11.8699   19.8384 C   0  0  0  0  0  0  0  0  0  0  0  0
    7.8111  -13.1930   20.4516 C   0  0  0  0  0  0  0  0  0  0  0  0
    8.7818  -14.2437   19.9555 C   0  0  2  0  0  0  0  0  0  0  0  0
    8.5610  -14.5249   18.4735 C   0  0  0  0  0  0  0  0  0  0  0  0
    8.5568  -15.5498   20.6957 C   0  0  2  0  0  0  0  0  0  0  0  0
    7.1928  -15.9640   20.4657 N   0  0  0  0  0  0  0  0  0  0  0  0
    8.7965  -15.2647   22.1481 C   0  0  0  0  0  0  0  0  0  0  0  0
    9.9570  -15.0489   22.5724 O   0  0  0  0  0  0  0  0  0  0  0  0
    7.6201  -11.3275   27.2223 C   0  0  0  0  0  0  0  0  0  0  0  0
    6.1976  -12.2484   26.6155 S   0  0  0  0  0  0  0  0  0  0  0  0
    6.6453  -14.0236   26.4683 C   0  0  0  0  0  0  0  0  0  0  0  0
    6.6893  -14.3258   25.0087 C   0  0  0  0  0  0  0  0  0  0  0  0
    7.9412  -14.9587   24.5109 C   0  0  2  0  0  0  0  0  0  0  0  0
    7.7367  -15.2280   23.0864 N   0  0  0  0  0  0  0  0  0  0  0  0
    8.2705  -16.2613   25.1477 C   0  0  0  0  0  0  0  0  0  0  0  0
    7.6266  -17.2603   24.7278 O   0  0  0  0  0  0  0  0  0  0  0  0
   11.5525  -19.0384   22.4254 N   0  0  0  0  0  0  0  0  0  0  0  0
   12.2215  -19.4763   23.6331 C   0  0  0  0  0  0  0  0  0  0  0  0
   13.2308  -20.1793   23.4289 O   0  0  0  0  0  0  0  0  0  0  0  0
   11.6607  -19.0620   24.9228 C   0  0  0  0  0  0  0  0  0  0  0  0
   10.6887  -17.9573   24.9472 C   0  0  0  0  0  0  0  0  0  0  0  0
   10.0362  -17.6126   26.2419 C   0  0  2  0  0  0  0  0  0  0  0  0
    9.2241  -16.4250   26.1525 N   0  0  0  0  0  0  0  0  0  0  0  0
   10.8704  -17.6602   27.4392 C   0  0  0  0  0  0  0  0  0  0  0  0
   11.0077  -16.6040   28.1548 O   0  0  0  0  0  0  0  0  0  0  0  0
   11.5362  -18.7892   27.8629 O   0  0  0  0  0  0  0  0  0  0  0  0
  1  2  1  0
  3  4  1  6
  3  2  1  0
  5  3  1  0
  5  6  1  1
  7  5  1  0
  8  7  2  0
  9 10  1  0
 10 11  1  0
 11 12  1  0
 13 12  1  1
 13 14  1  0
 14  7  1  0
 15 13  1  0
 15 16  2  0
 17 18  1  0
 18 19  2  0
 18 20  1  0
 20 21  1  0
 22 21  1  6
 22 23  1  0
 23 15  1  0
 24 22  1  0
 24 26  1  0
 25 24  2  0
M  END
$$$$
