IMQ.pdb
     RDKit          3D

 26 25  0  0  1  0  0  0  0  0999 V2000
   11.3925  -19.8282   25.5060 C   0  0  0  0  0  0  0  0  0  0  0  0
   10.0127  -19.7363   26.1166 C   0  0  0  0  0  0  0  0  0  0  0  0
   10.0735  -18.7328   27.2488 C   0  0  2  0  0  0  0  0  0  0  0  0
   10.9442  -19.2550   28.3860 C   0  0  0  0  0  0  0  0  0  0  0  0
    8.6845  -18.5069   27.8180 C   0  0  2  0  0  0  0  0  0  0  0  0
    8.0999  -19.7979   28.0945 N   0  0  0  0  0  0  0  0  0  0  0  0
    7.9052  -17.7760   26.7659 C   0  0  0  0  0  0  0  0  0  0  0  0
    7.0157  -18.3654   26.1068 O   0  0  0  0  0  0  0  0  0  0  0  0
    7.0886  -11.4216   27.3091 C   0  0  0  0  0  0  0  0  0  0  0  0
    5.7808  -12.0090   26.2206 S   0  0  0  0  0  0  0  0  0  0  0  0
    6.4440  -13.3409   25.1438 C   0  0  0  0  0  0  0  0  0  0  0  0
    7.1107  -14.3200   26.0496 C   0  0  0  0  0  0  0  0  0  0  0  0
    7.3806  -15.6649   25.4713 C   0  0  2  0  0  0  0  0  0  0  0  0
    8.1390  -16.4094   26.4784 N   0  0  0  0  0  0  0  0  0  0  0  0
    8.2098  -15.6516   24.2373 C   0  0  0  0  0  0  0  0  0  0  0  0
    9.3490  -15.1224   24.3424 O   0  0  0  0  0  0  0  0  0  0  0  0
    7.3111  -12.6845   18.8437 N   0  0  0  0  0  0  0  0  0  0  0  0
    8.6236  -12.8466   19.4344 C   0  0  0  0  0  0  0  0  0  0  0  0
    9.3407  -11.8288   19.3671 O   0  0  0  0  0  0  0  0  0  0  0  0
    8.9591  -14.1449   20.0273 C   0  0  0  0  0  0  0  0  0  0  0  0
    8.1556  -14.6318   21.1599 C   0  0  0  0  0  0  0  0  0  0  0  0
    8.5334  -15.9257   21.7957 C   0  0  2  0  0  0  0  0  0  0  0  0
    7.8017  -16.1783   23.0117 N   0  0  0  0  0  0  0  0  0  0  0  0
    9.9590  -16.2228   21.9001 C   0  0  0  0  0  0  0  0  0  0  0  0
   10.3894  -17.3801   21.5513 O   0  0  0  0  0  0  0  0  0  0  0  0
   10.8960  -15.3234   22.3590 O   0  0  0  0  0  0  0  0  0  0  0  0
  1  2  1  0
  3  4  1  1
  3  2  1  0
  5  3  1  0
  5  6  1  6
  7  5  1  0
  8  7  2  0
  9 10  1  0
 10 11  1  0
 11 12  1  0
 13 12  1  1
 13 14  1  0
 14  7  1  0
 15 13  1  0
 15 16  2  0
 17 18  1  0
 18 19  2  0
 18 20  1  0
 20 21  1  0
 22 21  1  1
 22 23  1  0
 23 15  1  0
 24 22  1  0
 24 26  1  0
 25 24  2  0
M  END
$$$$
