IMQ.pdb
     RDKit          3D

 26 25  0  0  1  0  0  0  0  0999 V2000
    6.9032  -12.5527   18.4817 C   0  0  0  0  0  0  0  0  0  0  0  0
    7.2556  -13.9375   18.9749 C   0  0  0  0  0  0  0  0  0  0  0  0
    8.1036  -13.7836   20.2197 C   0  0  2  0  0  0  0  0  0  0  0  0
    9.4659  -13.1925   19.8745 C   0  0  0  0  0  0  0  0  0  0  0  0
    8.3534  -15.1420   20.8495 C   0  0  2  0  0  0  0  0  0  0  0  0
    7.1067  -15.8705   20.8488 N   0  0  0  0  0  0  0  0  0  0  0  0
    8.8266  -14.8838   22.2487 C   0  0  0  0  0  0  0  0  0  0  0  0
   10.0272  -14.5986   22.4732 O   0  0  0  0  0  0  0  0  0  0  0  0
    6.7377  -11.1150   27.0063 C   0  0  0  0  0  0  0  0  0  0  0  0
    6.1835  -12.7560   27.4962 S   0  0  0  0  0  0  0  0  0  0  0  0
    7.4163  -14.0000   26.9430 C   0  0  0  0  0  0  0  0  0  0  0  0
    7.2649  -14.1120   25.4638 C   0  0  0  0  0  0  0  0  0  0  0  0
    8.3932  -14.7589   24.7396 C   0  0  2  0  0  0  0  0  0  0  0  0
    7.9488  -14.9507   23.3577 N   0  0  0  0  0  0  0  0  0  0  0  0
    8.7702  -16.1012   25.2561 C   0  0  0  0  0  0  0  0  0  0  0  0
    7.9003  -17.0051   25.1329 O   0  0  0  0  0  0  0  0  0  0  0  0
   11.9676  -18.9154   21.7771 N   0  0  0  0  0  0  0  0  0  0  0  0
   12.2382  -18.6173   23.1684 C   0  0  0  0  0  0  0  0  0  0  0  0
   13.4278  -18.3277   23.4043 O   0  0  0  0  0  0  0  0  0  0  0  0
   11.1243  -18.6862   24.1193 C   0  0  0  0  0  0  0  0  0  0  0  0
   11.3847  -18.3778   25.5344 C   0  0  0  0  0  0  0  0  0  0  0  0
   10.3085  -17.7209   26.3289 C   0  0  2  0  0  0  0  0  0  0  0  0
    9.9972  -16.3976   25.8496 N   0  0  0  0  0  0  0  0  0  0  0  0
   10.4107  -17.8058   27.7828 C   0  0  0  0  0  0  0  0  0  0  0  0
   10.2819  -16.7413   28.4876 O   0  0  0  0  0  0  0  0  0  0  0  0
   10.6416  -18.9795   28.4659 O   0  0  0  0  0  0  0  0  0  0  0  0
  1  2  1  0
  3  4  1  6
  3  2  1  0
  5  3  1  0
  5  6  1  1
  7  5  1  0
  8  7  2  0
  9 10  1  0
 10 11  1  0
 11 12  1  0
 13 12  1  1
 13 14  1  0
 14  7  1  0
 15 13  1  0
 15 16  2  0
 17 18  1  0
 18 19  2  0
 18 20  1  0
 20 21  1  0
 22 21  1  6
 22 23  1  0
 23 15  1  0
 24 22  1  0
 24 26  1  0
 25 24  2  0
M  END
$$$$
