IMQ.pdb
     RDKit          3D

 26 25  0  0  1  0  0  0  0  0999 V2000
    8.0789  -18.9955   18.5018 C   0  0  0  0  0  0  0  0  0  0  0  0
    8.2789  -17.4978   18.5494 C   0  0  0  0  0  0  0  0  0  0  0  0
    8.5148  -17.1081   19.9933 C   0  0  2  0  0  0  0  0  0  0  0  0
    7.3601  -17.5737   20.8731 C   0  0  0  0  0  0  0  0  0  0  0  0
    8.5895  -15.5971   20.1181 C   0  0  2  0  0  0  0  0  0  0  0  0
    9.5894  -15.1215   19.1912 N   0  0  0  0  0  0  0  0  0  0  0  0
    8.9843  -15.3042   21.5347 C   0  0  0  0  0  0  0  0  0  0  0  0
   10.1538  -15.5266   21.9295 O   0  0  0  0  0  0  0  0  0  0  0  0
    6.2002  -11.6012   27.9477 C   0  0  0  0  0  0  0  0  0  0  0  0
    6.1510  -12.0381   26.2022 S   0  0  0  0  0  0  0  0  0  0  0  0
    7.4125  -13.3303   25.8672 C   0  0  0  0  0  0  0  0  0  0  0  0
    7.3813  -13.5760   24.3967 C   0  0  0  0  0  0  0  0  0  0  0  0
    8.4105  -14.5137   23.8700 C   0  0  2  0  0  0  0  0  0  0  0  0
    8.0649  -14.7721   22.4709 N   0  0  0  0  0  0  0  0  0  0  0  0
    8.4483  -15.8351   24.5505 C   0  0  0  0  0  0  0  0  0  0  0  0
    7.7069  -16.7299   24.0620 O   0  0  0  0  0  0  0  0  0  0  0  0
   11.3962  -19.0339   22.0261 N   0  0  0  0  0  0  0  0  0  0  0  0
   12.0071  -19.4698   23.2649 C   0  0  0  0  0  0  0  0  0  0  0  0
   13.0041  -20.2023   23.1100 O   0  0  0  0  0  0  0  0  0  0  0  0
   11.4091  -19.0203   24.5259 C   0  0  0  0  0  0  0  0  0  0  0  0
   10.5739  -17.8088   24.5182 C   0  0  0  0  0  0  0  0  0  0  0  0
    9.9399  -17.3739   25.7949 C   0  0  2  0  0  0  0  0  0  0  0  0
    9.2372  -16.1221   25.6645 N   0  0  0  0  0  0  0  0  0  0  0  0
   10.7530  -17.4634   27.0041 C   0  0  0  0  0  0  0  0  0  0  0  0
   11.3527  -18.5634   27.2811 O   0  0  0  0  0  0  0  0  0  0  0  0
   10.9241  -16.4220   27.8895 O   0  0  0  0  0  0  0  0  0  0  0  0
  1  2  1  0
  3  4  1  1
  3  2  1  0
  5  3  1  0
  5  6  1  6
  7  5  1  0
  8  7  2  0
  9 10  1  0
 10 11  1  0
 11 12  1  0
 13 12  1  1
 13 14  1  0
 14  7  1  0
 15 13  1  0
 15 16  2  0
 17 18  1  0
 18 19  2  0
 18 20  1  0
 20 21  1  0
 22 21  1  6
 22 23  1  0
 23 15  1  0
 24 22  1  0
 24 26  1  0
 25 24  2  0
M  END
$$$$
