IMQ.pdb
     RDKit          3D

 26 25  0  0  1  0  0  0  0  0999 V2000
    7.2168  -12.0544   18.8814 C   0  0  0  0  0  0  0  0  0  0  0  0
    7.4839  -13.4910   19.2688 C   0  0  0  0  0  0  0  0  0  0  0  0
    8.1192  -13.4893   20.6431 C   0  0  2  0  0  0  0  0  0  0  0  0
    9.4536  -12.7524   20.6195 C   0  0  0  0  0  0  0  0  0  0  0  0
    8.4037  -14.9132   21.0858 C   0  0  2  0  0  0  0  0  0  0  0  0
    7.1985  -15.6871   20.9020 N   0  0  0  0  0  0  0  0  0  0  0  0
    8.7838  -14.8425   22.5345 C   0  0  0  0  0  0  0  0  0  0  0  0
    9.9026  -14.3922   22.8788 O   0  0  0  0  0  0  0  0  0  0  0  0
    6.4915  -11.0356   27.2767 C   0  0  0  0  0  0  0  0  0  0  0  0
    6.9425  -12.7773   27.3315 S   0  0  0  0  0  0  0  0  0  0  0  0
    6.7649  -13.5004   25.6525 C   0  0  0  0  0  0  0  0  0  0  0  0
    7.1399  -14.9386   25.7731 C   0  0  0  0  0  0  0  0  0  0  0  0
    8.3084  -15.3783   24.9625 C   0  0  2  0  0  0  0  0  0  0  0  0
    7.9066  -15.2754   23.5583 N   0  0  0  0  0  0  0  0  0  0  0  0
    8.7192  -16.7897   25.1857 C   0  0  0  0  0  0  0  0  0  0  0  0
    7.7901  -17.6417   25.1906 O   0  0  0  0  0  0  0  0  0  0  0  0
   13.8176  -20.5666   22.8057 N   0  0  0  0  0  0  0  0  0  0  0  0
   12.9895  -19.3797   22.7476 C   0  0  0  0  0  0  0  0  0  0  0  0
   12.8634  -18.9032   21.6024 O   0  0  0  0  0  0  0  0  0  0  0  0
   12.4079  -18.8810   23.9977 C   0  0  0  0  0  0  0  0  0  0  0  0
   10.9883  -19.1537   24.2735 C   0  0  0  0  0  0  0  0  0  0  0  0
   10.3850  -18.5943   25.5161 C   0  0  2  0  0  0  0  0  0  0  0  0
   10.0371  -17.2019   25.3831 N   0  0  0  0  0  0  0  0  0  0  0  0
   11.0483  -18.9121   26.7773 C   0  0  0  0  0  0  0  0  0  0  0  0
   11.3054  -20.1361   27.0640 O   0  0  0  0  0  0  0  0  0  0  0  0
   11.4257  -17.9643   27.7029 O   0  0  0  0  0  0  0  0  0  0  0  0
  1  2  1  0
  3  4  1  6
  3  2  1  0
  5  3  1  0
  5  6  1  1
  7  5  1  0
  8  7  2  0
  9 10  1  0
 10 11  1  0
 11 12  1  0
 13 12  1  1
 13 14  1  0
 14  7  1  0
 15 13  1  0
 15 16  2  0
 17 18  1  0
 18 19  2  0
 18 20  1  0
 20 21  1  0
 22 21  1  6
 22 23  1  0
 23 15  1  0
 24 22  1  0
 24 26  1  0
 25 24  2  0
M  END
$$$$
