IMQ.pdb
     RDKit          3D

 26 25  0  0  1  0  0  0  0  0999 V2000
    7.8935  -19.6761   18.6832 C   0  0  0  0  0  0  0  0  0  0  0  0
    7.6927  -18.1778   18.6832 C   0  0  0  0  0  0  0  0  0  0  0  0
    8.2167  -17.6406   19.9981 C   0  0  2  0  0  0  0  0  0  0  0  0
    7.5158  -18.3132   21.1731 C   0  0  0  0  0  0  0  0  0  0  0  0
    7.9331  -16.1530   20.1016 C   0  0  2  0  0  0  0  0  0  0  0  0
    8.5298  -15.5041   18.9580 N   0  0  0  0  0  0  0  0  0  0  0  0
    8.5655  -15.6852   21.3782 C   0  0  0  0  0  0  0  0  0  0  0  0
    9.8120  -15.7028   21.5160 O   0  0  0  0  0  0  0  0  0  0  0  0
    6.7329  -11.5916   27.8788 C   0  0  0  0  0  0  0  0  0  0  0  0
    6.3828  -12.2269   26.2315 S   0  0  0  0  0  0  0  0  0  0  0  0
    7.6484  -13.4814   25.7864 C   0  0  0  0  0  0  0  0  0  0  0  0
    7.3345  -13.9191   24.3958 C   0  0  0  0  0  0  0  0  0  0  0  0
    8.3815  -14.7290   23.7149 C   0  0  2  0  0  0  0  0  0  0  0  0
    7.7911  -15.2110   22.4647 N   0  0  0  0  0  0  0  0  0  0  0  0
    8.8207  -15.9320   24.4703 C   0  0  0  0  0  0  0  0  0  0  0  0
    7.9466  -16.8227   24.6479 O   0  0  0  0  0  0  0  0  0  0  0  0
   13.8009  -19.5455   24.1040 N   0  0  0  0  0  0  0  0  0  0  0  0
   12.8573  -18.9640   23.1717 C   0  0  0  0  0  0  0  0  0  0  0  0
   13.1102  -19.2059   21.9749 O   0  0  0  0  0  0  0  0  0  0  0  0
   11.7440  -18.1791   23.7142 C   0  0  0  0  0  0  0  0  0  0  0  0
   11.6618  -17.9849   25.1706 C   0  0  0  0  0  0  0  0  0  0  0  0
   10.4676  -17.2899   25.7291 C   0  0  2  0  0  0  0  0  0  0  0  0
   10.1083  -16.1157   24.9742 N   0  0  0  0  0  0  0  0  0  0  0  0
   10.4329  -17.0874   27.1746 C   0  0  0  0  0  0  0  0  0  0  0  0
   10.2397  -15.9082   27.6420 O   0  0  0  0  0  0  0  0  0  0  0  0
   10.5977  -18.1008   28.0929 O   0  0  0  0  0  0  0  0  0  0  0  0
  1  2  1  0
  3  4  1  1
  3  2  1  0
  5  3  1  0
  5  6  1  6
  7  5  1  0
  8  7  2  0
  9 10  1  0
 10 11  1  0
 11 12  1  0
 13 12  1  1
 13 14  1  0
 14  7  1  0
 15 13  1  0
 15 16  2  0
 17 18  1  0
 18 19  2  0
 18 20  1  0
 20 21  1  0
 22 21  1  6
 22 23  1  0
 23 15  1  0
 24 22  1  0
 24 26  1  0
 25 24  2  0
M  END
$$$$
