IMQ.pdb
     RDKit          3D

 26 25  0  0  1  0  0  0  0  0999 V2000
    8.1166  -19.0713   18.6336 C   0  0  0  0  0  0  0  0  0  0  0  0
    7.6714  -17.6369   18.8050 C   0  0  0  0  0  0  0  0  0  0  0  0
    8.1118  -17.1765   20.1785 C   0  0  2  0  0  0  0  0  0  0  0  0
    7.5546  -18.0957   21.2597 C   0  0  0  0  0  0  0  0  0  0  0  0
    7.5752  -15.7841   20.4567 C   0  0  2  0  0  0  0  0  0  0  0  0
    7.9868  -14.9224   19.3736 N   0  0  0  0  0  0  0  0  0  0  0  0
    8.1808  -15.3444   21.7560 C   0  0  0  0  0  0  0  0  0  0  0  0
    9.3660  -14.9363   21.8011 O   0  0  0  0  0  0  0  0  0  0  0  0
    7.8571  -11.7362   27.4352 C   0  0  0  0  0  0  0  0  0  0  0  0
    6.3308  -12.2760   26.6482 S   0  0  0  0  0  0  0  0  0  0  0  0
    6.6976  -12.8310   24.9362 C   0  0  0  0  0  0  0  0  0  0  0  0
    6.8466  -14.3134   24.9985 C   0  0  0  0  0  0  0  0  0  0  0  0
    7.9910  -14.8866   24.2384 C   0  0  2  0  0  0  0  0  0  0  0  0
    7.4489  -15.3718   22.9678 N   0  0  0  0  0  0  0  0  0  0  0  0
    8.6473  -16.0489   24.8932 C   0  0  0  0  0  0  0  0  0  0  0  0
    7.8751  -16.9024   25.4074 O   0  0  0  0  0  0  0  0  0  0  0  0
   13.0265  -17.5198   21.4729 N   0  0  0  0  0  0  0  0  0  0  0  0
   13.0854  -17.9305   22.8606 C   0  0  0  0  0  0  0  0  0  0  0  0
   13.7381  -18.9750   23.0545 O   0  0  0  0  0  0  0  0  0  0  0  0
   12.3948  -17.1043   23.8557 C   0  0  0  0  0  0  0  0  0  0  0  0
   11.9439  -17.7355   25.1062 C   0  0  0  0  0  0  0  0  0  0  0  0
   10.6093  -17.3587   25.6521 C   0  0  2  0  0  0  0  0  0  0  0  0
   10.0281  -16.2337   24.9634 N   0  0  0  0  0  0  0  0  0  0  0  0
   10.4837  -17.2819   27.1046 C   0  0  0  0  0  0  0  0  0  0  0  0
   10.9064  -18.2547   27.8267 O   0  0  0  0  0  0  0  0  0  0  0  0
    9.9287  -16.2102   27.7686 O   0  0  0  0  0  0  0  0  0  0  0  0
  1  2  1  0
  3  4  1  1
  3  2  1  0
  5  3  1  0
  5  6  1  6
  7  5  1  0
  8  7  2  0
  9 10  1  0
 10 11  1  0
 11 12  1  0
 13 12  1  1
 13 14  1  0
 14  7  1  0
 15 13  1  0
 15 16  2  0
 17 18  1  0
 18 19  2  0
 18 20  1  0
 20 21  1  0
 22 21  1  1
 22 23  1  0
 23 15  1  0
 24 22  1  0
 24 26  1  0
 25 24  2  0
M  END
$$$$
