APQ.pdb
     RDKit          3D

 22 22  0  0  1  0  0  0  0  0999 V2000
   25.1102  -12.6743  -20.0593 C   0  0  0  0  0  0  0  0  0  0  0  0
   25.0989  -13.0933  -18.5970 C   0  0  2  0  0  0  0  0  0  0  0  0
   24.4071  -14.3099  -18.3769 N   0  0  0  0  0  0  0  0  0  0  0  0
   24.6838  -11.9726  -17.7211 C   0  0  0  0  0  0  0  0  0  0  0  0
   23.5266  -11.4997  -18.0437 O   0  0  0  0  0  0  0  0  0  0  0  0
   25.4052  -11.4359  -16.6517 N   0  0  0  0  0  0  0  0  0  0  0  0
   26.3256  -12.0403  -15.6962 C   0  0  0  0  0  0  0  0  0  0  0  0
   27.4814  -11.0424  -15.7814 C   0  0  0  0  0  0  0  0  0  0  0  0
   26.8851   -9.7572  -16.4008 C   0  0  0  0  0  0  0  0  0  0  0  0
   25.4251  -10.0563  -16.2152 C   0  0  1  0  0  0  0  0  0  0  0  0
   24.4645   -9.1332  -16.7416 C   0  0  0  0  0  0  0  0  0  0  0  0
   24.4339   -8.7373  -17.9578 O   0  0  0  0  0  0  0  0  0  0  0  0
   19.2155   -9.4082  -18.5238 N   0  0  0  0  0  0  0  0  0  0  0  0
   19.4268   -9.7984  -17.1898 C   0  0  0  0  0  0  0  0  0  0  0  0
   18.6522  -10.6324  -16.6616 O   0  0  0  0  0  0  0  0  0  0  0  0
   20.5412   -9.2593  -16.3686 C   0  0  0  0  0  0  0  0  0  0  0  0
   21.3830   -8.3309  -17.1842 C   0  0  0  0  0  0  0  0  0  0  0  0
   22.4610   -7.6245  -16.4320 C   0  0  2  0  0  0  0  0  0  0  0  0
   23.4544   -8.5762  -15.9023 N   0  0  0  0  0  0  0  0  0  0  0  0
   21.9776   -6.7450  -15.3436 C   0  0  0  0  0  0  0  0  0  0  0  0
   21.1964   -5.6316  -15.5762 O   0  0  0  0  0  0  0  0  0  0  0  0
   22.2617   -6.9727  -14.1222 O   0  0  0  0  0  0  0  0  0  0  0  0
  2  1  1  6
  2  3  1  0
  4  2  1  0
  5  4  2  0
  6  4  1  0
  6  7  1  0
  8  7  1  0
  9 10  1  0
  9  8  1  0
 10  6  1  0
 10 11  1  6
 11 19  1  0
 12 11  2  0
 14 16  1  0
 14 13  1  0
 15 14  2  0
 17 16  1  0
 18 20  1  0
 18 17  1  1
 19 18  1  0
 20 21  1  0
 22 20  2  0
M  END
$$$$
