APQ.pdb
     RDKit          3D

 22 22  0  0  1  0  0  0  0  0999 V2000
   27.6986  -21.9212  -18.8475 C   0  0  0  0  0  0  0  0  0  0  0  0
   28.6662  -21.7960  -17.6805 C   0  0  2  0  0  0  0  0  0  0  0  0
   29.4192  -22.9756  -17.4591 N   0  0  0  0  0  0  0  0  0  0  0  0
   27.9903  -21.2530  -16.4789 C   0  0  0  0  0  0  0  0  0  0  0  0
   27.2708  -22.1401  -15.8772 O   0  0  0  0  0  0  0  0  0  0  0  0
   28.0739  -19.9464  -15.9914 N   0  0  0  0  0  0  0  0  0  0  0  0
   29.1401  -18.9533  -16.0434 C   0  0  0  0  0  0  0  0  0  0  0  0
   28.3439  -17.7421  -16.5312 C   0  0  0  0  0  0  0  0  0  0  0  0
   26.8607  -18.0652  -16.2370 C   0  0  0  0  0  0  0  0  0  0  0  0
   27.0489  -19.2100  -15.2834 C   0  0  1  0  0  0  0  0  0  0  0  0
   25.8885  -19.8976  -14.8011 C   0  0  0  0  0  0  0  0  0  0  0  0
   25.2054  -20.7325  -15.4889 O   0  0  0  0  0  0  0  0  0  0  0  0
   24.3067  -20.6770   -8.7258 N   0  0  0  0  0  0  0  0  0  0  0  0
   23.1635  -21.1532   -9.3915 C   0  0  0  0  0  0  0  0  0  0  0  0
   22.2219  -21.6453   -8.7240 O   0  0  0  0  0  0  0  0  0  0  0  0
   23.0207  -21.0980  -10.8691 C   0  0  0  0  0  0  0  0  0  0  0  0
   24.2094  -20.4267  -11.4792 C   0  0  0  0  0  0  0  0  0  0  0  0
   24.2122  -20.3721  -12.9705 C   0  0  2  0  0  0  0  0  0  0  0  0
   25.4072  -19.6731  -13.4771 N   0  0  0  0  0  0  0  0  0  0  0  0
   22.9934  -19.7804  -13.5673 C   0  0  0  0  0  0  0  0  0  0  0  0
   22.8262  -18.4199  -13.7262 O   0  0  0  0  0  0  0  0  0  0  0  0
   22.0246  -20.5046  -13.9690 O   0  0  0  0  0  0  0  0  0  0  0  0
  2  1  1  6
  2  3  1  0
  4  2  1  0
  5  4  2  0
  6  4  1  0
  6  7  1  0
  8  7  1  0
  9 10  1  0
  9  8  1  0
 10  6  1  0
 10 11  1  6
 11 19  1  0
 12 11  2  0
 14 16  1  0
 14 13  1  0
 15 14  2  0
 17 16  1  0
 18 20  1  0
 18 17  1  1
 19 18  1  0
 20 21  1  0
 22 20  2  0
M  END
$$$$
