APQ.pdb
     RDKit          3D

 22 22  0  0  1  0  0  0  0  0999 V2000
   23.9975  -12.7373  -19.5166 C   0  0  0  0  0  0  0  0  0  0  0  0
   24.2546  -13.1421  -18.0730 C   0  0  2  0  0  0  0  0  0  0  0  0
   23.6583  -14.3816  -17.7330 N   0  0  0  0  0  0  0  0  0  0  0  0
   23.9539  -12.0293  -17.1420 C   0  0  0  0  0  0  0  0  0  0  0  0
   22.7195  -11.6563  -17.2049 O   0  0  0  0  0  0  0  0  0  0  0  0
   24.8480  -11.4057  -16.2681 N   0  0  0  0  0  0  0  0  0  0  0  0
   25.9804  -11.9161  -15.5047 C   0  0  0  0  0  0  0  0  0  0  0  0
   27.0323  -10.8667  -15.8670 C   0  0  0  0  0  0  0  0  0  0  0  0
   26.2457   -9.6448  -16.3950 C   0  0  0  0  0  0  0  0  0  0  0  0
   24.8761  -10.0073  -15.8969 C   0  0  1  0  0  0  0  0  0  0  0  0
   23.7744   -9.1602  -16.2442 C   0  0  0  0  0  0  0  0  0  0  0  0
   23.3800   -8.9423  -17.4417 O   0  0  0  0  0  0  0  0  0  0  0  0
   18.4898  -10.2738  -16.2110 N   0  0  0  0  0  0  0  0  0  0  0  0
   18.2672   -8.8863  -16.2534 C   0  0  0  0  0  0  0  0  0  0  0  0
   17.1048   -8.4542  -16.4446 O   0  0  0  0  0  0  0  0  0  0  0  0
   19.3623   -7.8977  -16.0796 C   0  0  0  0  0  0  0  0  0  0  0  0
   20.6476   -8.5976  -15.7730 C   0  0  0  0  0  0  0  0  0  0  0  0
   21.8242   -7.7034  -15.5658 C   0  0  2  0  0  0  0  0  0  0  0  0
   23.0328   -8.4794  -15.2336 N   0  0  0  0  0  0  0  0  0  0  0  0
   21.6183   -6.6384  -14.5583 C   0  0  0  0  0  0  0  0  0  0  0  0
   20.9229   -5.4783  -14.8314 O   0  0  0  0  0  0  0  0  0  0  0  0
   22.0784   -6.7385  -13.3739 O   0  0  0  0  0  0  0  0  0  0  0  0
  2  1  1  6
  2  3  1  0
  4  2  1  0
  5  4  2  0
  6  4  1  0
  6  7  1  0
  8  7  1  0
  9 10  1  0
  9  8  1  0
 10  6  1  0
 10 11  1  6
 11 19  1  0
 12 11  2  0
 14 16  1  0
 14 13  1  0
 15 14  2  0
 17 16  1  0
 18 20  1  0
 18 17  1  1
 19 18  1  0
 20 21  1  0
 22 20  2  0
M  END
$$$$
