APQ.pdb
     RDKit          3D

 22 22  0  0  1  0  0  0  0  0999 V2000
   24.3036  -10.6442  -19.9282 C   0  0  0  0  0  0  0  0  0  0  0  0
   23.0936  -11.2093  -19.1999 C   0  0  2  0  0  0  0  0  0  0  0  0
   22.0212  -11.5216  -20.0715 N   0  0  0  0  0  0  0  0  0  0  0  0
   22.7268  -10.3685  -18.0363 C   0  0  0  0  0  0  0  0  0  0  0  0
   22.5964   -9.1233  -18.3517 O   0  0  0  0  0  0  0  0  0  0  0  0
   22.5276  -10.8002  -16.7226 N   0  0  0  0  0  0  0  0  0  0  0  0
   21.9735  -12.0328  -16.1754 C   0  0  0  0  0  0  0  0  0  0  0  0
   23.0561  -12.3716  -15.1496 C   0  0  0  0  0  0  0  0  0  0  0  0
   23.8337  -11.0575  -14.9064 C   0  0  0  0  0  0  0  0  0  0  0  0
   22.8587  -10.0865  -15.5080 C   0  0  1  0  0  0  0  0  0  0  0  0
   23.2238   -8.7031  -15.5767 C   0  0  0  0  0  0  0  0  0  0  0  0
   24.1143   -8.2291  -16.3636 O   0  0  0  0  0  0  0  0  0  0  0  0
   22.1865   -4.9832  -18.8585 N   0  0  0  0  0  0  0  0  0  0  0  0
   22.7184   -4.0566  -17.9447 C   0  0  0  0  0  0  0  0  0  0  0  0
   22.9806   -2.8917  -18.3305 O   0  0  0  0  0  0  0  0  0  0  0  0
   22.9867   -4.4015  -16.5249 C   0  0  0  0  0  0  0  0  0  0  0  0
   22.6756   -5.8424  -16.2746 C   0  0  0  0  0  0  0  0  0  0  0  0
   22.8795   -6.3016  -14.8694 C   0  0  2  0  0  0  0  0  0  0  0  0
   22.5948   -7.7414  -14.7314 N   0  0  0  0  0  0  0  0  0  0  0  0
   22.1163   -5.5391  -13.8556 C   0  0  0  0  0  0  0  0  0  0  0  0
   22.5975   -4.3843  -13.2734 O   0  0  0  0  0  0  0  0  0  0  0  0
   20.9632   -5.9142  -13.4632 O   0  0  0  0  0  0  0  0  0  0  0  0
  2  1  1  6
  2  3  1  0
  4  2  1  0
  5  4  2  0
  6  4  1  0
  6  7  1  0
  8  7  1  0
  9 10  1  0
  9  8  1  0
 10  6  1  0
 10 11  1  6
 11 19  1  0
 12 11  2  0
 14 16  1  0
 14 13  1  0
 15 14  2  0
 17 16  1  0
 18 20  1  0
 18 17  1  6
 19 18  1  0
 20 21  1  0
 22 20  2  0
M  END
$$$$
