APQ.pdb
     RDKit          3D

 22 22  0  0  1  0  0  0  0  0999 V2000
   26.7713  -21.7404  -18.2619 C   0  0  0  0  0  0  0  0  0  0  0  0
   26.8592  -21.6884  -16.7442 C   0  0  2  0  0  0  0  0  0  0  0  0
   26.5664  -22.9318  -16.1315 N   0  0  0  0  0  0  0  0  0  0  0  0
   26.1055  -20.5334  -16.2024 C   0  0  0  0  0  0  0  0  0  0  0  0
   24.8435  -20.6035  -16.4657 O   0  0  0  0  0  0  0  0  0  0  0  0
   26.6290  -19.4575  -15.4811 N   0  0  0  0  0  0  0  0  0  0  0  0
   27.6907  -19.3765  -14.4852 C   0  0  0  0  0  0  0  0  0  0  0  0
   28.4861  -18.1980  -15.0483 C   0  0  0  0  0  0  0  0  0  0  0  0
   27.5253  -17.4604  -16.0094 C   0  0  0  0  0  0  0  0  0  0  0  0
   26.2266  -18.0700  -15.5652 C   0  0  1  0  0  0  0  0  0  0  0  0
   25.0296  -17.7213  -16.2705 C   0  0  0  0  0  0  0  0  0  0  0  0
   24.7660  -18.0829  -17.4692 O   0  0  0  0  0  0  0  0  0  0  0  0
   19.7541  -19.5551  -16.0327 N   0  0  0  0  0  0  0  0  0  0  0  0
   20.1495  -18.8938  -14.8567 C   0  0  0  0  0  0  0  0  0  0  0  0
   19.5845  -19.1747  -13.7721 O   0  0  0  0  0  0  0  0  0  0  0  0
   21.2204  -17.8643  -14.8428 C   0  0  0  0  0  0  0  0  0  0  0  0
   21.7734  -17.6742  -16.2189 C   0  0  0  0  0  0  0  0  0  0  0  0
   22.7774  -16.5785  -16.3543 C   0  0  2  0  0  0  0  0  0  0  0  0
   24.0302  -16.9124  -15.6528 N   0  0  0  0  0  0  0  0  0  0  0  0
   22.2979  -15.2469  -15.9200 C   0  0  0  0  0  0  0  0  0  0  0  0
   22.9022  -14.5310  -14.9069 O   0  0  0  0  0  0  0  0  0  0  0  0
   21.2907  -14.6870  -16.4645 O   0  0  0  0  0  0  0  0  0  0  0  0
  2  1  1  6
  2  3  1  0
  4  2  1  0
  5  4  2  0
  6  4  1  0
  6  7  1  0
  8  7  1  0
  9 10  1  0
  9  8  1  0
 10  6  1  0
 10 11  1  6
 11 19  1  0
 12 11  2  0
 14 16  1  0
 14 13  1  0
 15 14  2  0
 17 16  1  0
 18 20  1  0
 18 17  1  1
 19 18  1  0
 20 21  1  0
 22 20  2  0
M  END
$$$$
