APQ.pdb
     RDKit          3D

 22 22  0  0  1  0  0  0  0  0999 V2000
   15.0824  -12.3869  -14.8635 C   0  0  0  0  0  0  0  0  0  0  0  0
   16.3220  -12.5910  -15.7212 C   0  0  2  0  0  0  0  0  0  0  0  0
   17.1566  -13.6324  -15.2458 N   0  0  0  0  0  0  0  0  0  0  0  0
   17.0135  -11.3061  -15.9788 C   0  0  0  0  0  0  0  0  0  0  0  0
   17.5893  -10.8378  -14.9224 O   0  0  0  0  0  0  0  0  0  0  0  0
   17.0793  -10.6212  -17.1947 N   0  0  0  0  0  0  0  0  0  0  0  0
   17.0355  -11.0831  -18.5769 C   0  0  0  0  0  0  0  0  0  0  0  0
   15.9920  -10.1177  -19.1407 C   0  0  0  0  0  0  0  0  0  0  0  0
   15.9299   -8.9349  -18.1467 C   0  0  0  0  0  0  0  0  0  0  0  0
   17.2001   -9.1921  -17.3879 C   0  0  1  0  0  0  0  0  0  0  0  0
   17.5135   -8.3507  -16.2717 C   0  0  0  0  0  0  0  0  0  0  0  0
   16.8627   -8.3393  -15.1702 O   0  0  0  0  0  0  0  0  0  0  0  0
   23.1349   -6.3415  -14.5905 N   0  0  0  0  0  0  0  0  0  0  0  0
   22.3215   -5.4390  -13.8833 C   0  0  0  0  0  0  0  0  0  0  0  0
   22.8562   -4.5578  -13.1676 O   0  0  0  0  0  0  0  0  0  0  0  0
   20.8380   -5.4841  -13.9476 C   0  0  0  0  0  0  0  0  0  0  0  0
   20.3939   -6.5121  -14.9384 C   0  0  0  0  0  0  0  0  0  0  0  0
   18.9253   -6.5494  -15.2001 C   0  0  2  0  0  0  0  0  0  0  0  0
   18.6072   -7.4369  -16.3334 N   0  0  0  0  0  0  0  0  0  0  0  0
   18.3035   -5.2226  -15.4111 C   0  0  0  0  0  0  0  0  0  0  0  0
   17.8724   -4.4272  -14.3693 O   0  0  0  0  0  0  0  0  0  0  0  0
   18.1316   -4.7413  -16.5787 O   0  0  0  0  0  0  0  0  0  0  0  0
  2  1  1  1
  2  3  1  0
  4  2  1  0
  5  4  2  0
  6  4  1  0
  6  7  1  0
  8  7  1  0
  9 10  1  0
  9  8  1  0
 10  6  1  0
 10 11  1  1
 11 19  1  0
 12 11  2  0
 14 16  1  0
 14 13  1  0
 15 14  2  0
 17 16  1  0
 18 20  1  0
 18 17  1  6
 19 18  1  0
 20 21  1  0
 22 20  2  0
M  END
$$$$
