CIK.pdb
     RDKit          3D

 24 23  0  0  1  0  0  0  0  0999 V2000
    9.0715  -18.4748   16.6661 N   0  0  0  0  0  0  0  0  0  0  0  0
    8.2400  -18.2264   17.8041 C   0  0  1  0  0  0  0  0  0  0  0  0
    7.9432  -19.5079   18.5124 C   0  0  0  0  0  0  0  0  0  0  0  0
    6.6732  -20.3940   17.5532 S   0  0  0  0  0  0  0  0  0  0  0  0
    8.9133  -17.2558   18.7296 C   0  0  0  0  0  0  0  0  0  0  0  0
   10.1910  -17.2447   18.7357 O   0  0  0  0  0  0  0  0  0  0  0  0
    6.4974  -12.4297   19.9890 C   0  0  0  0  0  0  0  0  0  0  0  0
    7.5913  -13.4120   19.6301 C   0  0  0  0  0  0  0  0  0  0  0  0
    7.8937  -14.3391   20.8035 C   0  0  2  0  0  0  0  0  0  0  0  0
    8.5534  -13.4825   21.8615 C   0  0  0  0  0  0  0  0  0  0  0  0
    8.8573  -15.4289   20.3861 C   0  0  2  0  0  0  0  0  0  0  0  0
    8.1496  -16.4002   19.5501 N   0  0  0  0  0  0  0  0  0  0  0  0
    9.3001  -16.1741   21.5966 C   0  0  0  0  0  0  0  0  0  0  0  0
    8.4176  -16.9583   22.1171 O   0  0  0  0  0  0  0  0  0  0  0  0
   10.5527  -16.1078   22.2033 N   0  0  0  0  0  0  0  0  0  0  0  0
   10.9003  -17.0500   23.2835 C   0  0  1  0  0  0  0  0  0  0  0  0
   11.3346  -18.3327   22.6621 C   0  0  0  0  0  0  0  0  0  0  0  0
   11.7780  -19.4190   23.5544 C   0  0  0  0  0  0  0  0  0  0  0  0
   12.2733  -20.6409   22.8695 C   0  0  0  0  0  0  0  0  0  0  0  0
   12.7664  -21.6752   23.8581 C   0  0  0  0  0  0  0  0  0  0  0  0
   13.1860  -22.8801   23.1718 N   0  0  0  0  0  0  0  0  0  0  0  0
   11.7933  -16.4009   24.2211 C   0  0  0  0  0  0  0  0  0  0  0  0
   12.5581  -15.3098   23.8444 O   0  0  0  0  0  0  0  0  0  0  0  0
   11.9133  -16.7894   25.4034 O   0  0  0  0  0  0  0  0  0  0  0  0
  2  5  1  0
  2  1  1  6
  3  2  1  0
  4  3  1  0
  5  6  2  0
  8  7  1  0
  9 11  1  0
  9  8  1  0
  9 10  1  1
 12  5  1  0
 11 12  1  6
 13 11  1  0
 13 14  2  0
 15 13  1  0
 16 22  1  0
 16 15  1  0
 16 17  1  6
 18 17  1  0
 19 18  1  0
 20 19  1  0
 21 20  1  0
 22 23  1  0
 24 22  2  0
M  END
$$$$
