CIK.pdb
     RDKit          3D

 24 23  0  0  1  0  0  0  0  0999 V2000
    8.7679  -18.5473   18.3213 N   0  0  0  0  0  0  0  0  0  0  0  0
    7.6708  -18.1221   19.1360 C   0  0  1  0  0  0  0  0  0  0  0  0
    6.9220  -19.3090   19.6486 C   0  0  0  0  0  0  0  0  0  0  0  0
    6.1325  -20.1273   18.2256 S   0  0  0  0  0  0  0  0  0  0  0  0
    8.1720  -17.2826   20.2744 C   0  0  0  0  0  0  0  0  0  0  0  0
    9.4106  -17.3818   20.5723 O   0  0  0  0  0  0  0  0  0  0  0  0
    7.3805  -12.2505   20.0698 C   0  0  0  0  0  0  0  0  0  0  0  0
    8.0109  -13.5727   20.4504 C   0  0  0  0  0  0  0  0  0  0  0  0
    7.3862  -14.1230   21.7290 C   0  0  2  0  0  0  0  0  0  0  0  0
    7.8661  -13.2316   22.8530 C   0  0  0  0  0  0  0  0  0  0  0  0
    7.8620  -15.5360   21.9884 C   0  0  2  0  0  0  0  0  0  0  0  0
    7.2964  -16.4265   20.9734 N   0  0  0  0  0  0  0  0  0  0  0  0
    7.3147  -15.9999   23.2931 C   0  0  0  0  0  0  0  0  0  0  0  0
    6.0730  -16.3501   23.2789 O   0  0  0  0  0  0  0  0  0  0  0  0
    8.0050  -16.0929   24.4998 N   0  0  0  0  0  0  0  0  0  0  0  0
    7.8750  -17.3031   25.3330 C   0  0  1  0  0  0  0  0  0  0  0  0
    7.2125  -18.3609   24.5194 C   0  0  0  0  0  0  0  0  0  0  0  0
    7.0879  -19.7081   25.1046 C   0  0  0  0  0  0  0  0  0  0  0  0
    6.4904  -20.7350   24.2125 C   0  0  0  0  0  0  0  0  0  0  0  0
    6.4395  -22.0930   24.8785 C   0  0  0  0  0  0  0  0  0  0  0  0
    5.0745  -22.4517   25.2059 N   0  0  0  0  0  0  0  0  0  0  0  0
    9.1509  -17.6043   25.9486 C   0  0  0  0  0  0  0  0  0  0  0  0
    9.8687  -16.6312   26.6234 O   0  0  0  0  0  0  0  0  0  0  0  0
    9.6588  -18.7459   25.9024 O   0  0  0  0  0  0  0  0  0  0  0  0
  2  5  1  0
  2  1  1  1
  3  2  1  0
  4  3  1  0
  5  6  2  0
  8  7  1  0
  9 11  1  0
  9  8  1  0
  9 10  1  1
 12  5  1  0
 11 12  1  6
 13 11  1  0
 13 14  2  0
 15 13  1  0
 16 22  1  0
 16 15  1  0
 16 17  1  6
 18 17  1  0
 19 18  1  0
 20 19  1  0
 21 20  1  0
 22 23  1  0
 24 22  2  0
M  END
$$$$
