CIK.pdb
     RDKit          3D

 24 23  0  0  1  0  0  0  0  0999 V2000
    7.6721  -14.6235   20.1787 N   0  0  0  0  0  0  0  0  0  0  0  0
    7.0552  -15.1467   21.3594 C   0  0  1  0  0  0  0  0  0  0  0  0
    6.8443  -16.6190   21.2190 C   0  0  0  0  0  0  0  0  0  0  0  0
    5.4878  -16.8772   20.0311 S   0  0  0  0  0  0  0  0  0  0  0  0
    7.9063  -14.8476   22.5586 C   0  0  0  0  0  0  0  0  0  0  0  0
    9.1735  -14.9035   22.4044 O   0  0  0  0  0  0  0  0  0  0  0  0
    6.0474  -11.4488   26.4320 C   0  0  0  0  0  0  0  0  0  0  0  0
    7.0651  -12.0936   25.5161 C   0  0  0  0  0  0  0  0  0  0  0  0
    7.4099  -13.5009   25.9942 C   0  0  2  0  0  0  0  0  0  0  0  0
    8.2845  -13.3309   27.2167 C   0  0  0  0  0  0  0  0  0  0  0  0
    8.1909  -14.2468   24.9340 C   0  0  2  0  0  0  0  0  0  0  0  0
    7.3127  -14.5207   23.7952 N   0  0  0  0  0  0  0  0  0  0  0  0
    8.5920  -15.5756   25.4726 C   0  0  0  0  0  0  0  0  0  0  0  0
    7.6249  -16.4051   25.6754 O   0  0  0  0  0  0  0  0  0  0  0  0
    9.8866  -15.9984   25.7671 N   0  0  0  0  0  0  0  0  0  0  0  0
   10.1265  -17.3823   26.2176 C   0  0  1  0  0  0  0  0  0  0  0  0
   11.1066  -18.0121   25.2888 C   0  0  0  0  0  0  0  0  0  0  0  0
   11.6255  -19.3485   25.6319 C   0  0  0  0  0  0  0  0  0  0  0  0
   12.6283  -19.9023   24.6859 C   0  0  0  0  0  0  0  0  0  0  0  0
   13.0264  -21.3146   25.0564 C   0  0  0  0  0  0  0  0  0  0  0  0
   14.1131  -21.7770   24.2172 N   0  0  0  0  0  0  0  0  0  0  0  0
   10.4211  -17.3838   27.6357 C   0  0  0  0  0  0  0  0  0  0  0  0
   10.3029  -18.5384   28.3909 O   0  0  0  0  0  0  0  0  0  0  0  0
   10.7942  -16.3542   28.2387 O   0  0  0  0  0  0  0  0  0  0  0  0
  2  5  1  0
  2  1  1  6
  3  2  1  0
  4  3  1  0
  5  6  2  0
  8  7  1  0
  9 11  1  0
  9  8  1  0
  9 10  1  1
 12  5  1  0
 11 12  1  6
 13 11  1  0
 13 14  2  0
 15 13  1  0
 16 22  1  0
 16 15  1  0
 16 17  1  6
 18 17  1  0
 19 18  1  0
 20 19  1  0
 21 20  1  0
 22 23  1  0
 24 22  2  0
M  END
$$$$
