CIK.pdb
     RDKit          3D

 24 23  0  0  1  0  0  0  0  0999 V2000
    4.7090  -18.7423   23.1478 N   0  0  0  0  0  0  0  0  0  0  0  0
    5.5330  -18.5690   24.3050 C   0  0  1  0  0  0  0  0  0  0  0  0
    6.3513  -19.7965   24.5409 C   0  0  0  0  0  0  0  0  0  0  0  0
    5.5780  -20.7290   25.9012 S   0  0  0  0  0  0  0  0  0  0  0  0
    6.4186  -17.3703   24.1294 C   0  0  0  0  0  0  0  0  0  0  0  0
    6.8951  -17.1618   22.9623 O   0  0  0  0  0  0  0  0  0  0  0  0
    5.9334  -12.6179   26.9942 C   0  0  0  0  0  0  0  0  0  0  0  0
    6.2425  -13.5181   25.8175 C   0  0  0  0  0  0  0  0  0  0  0  0
    7.4559  -14.3954   26.1102 C   0  0  2  0  0  0  0  0  0  0  0  0
    8.6533  -13.4710   26.1264 C   0  0  0  0  0  0  0  0  0  0  0  0
    7.6463  -15.4229   25.0156 C   0  0  2  0  0  0  0  0  0  0  0  0
    6.7007  -16.5218   25.2198 N   0  0  0  0  0  0  0  0  0  0  0  0
    9.0041  -16.0204   25.1424 C   0  0  0  0  0  0  0  0  0  0  0  0
    9.1678  -16.8137   26.1466 O   0  0  0  0  0  0  0  0  0  0  0  0
   10.0889  -15.8101   24.2936 N   0  0  0  0  0  0  0  0  0  0  0  0
   11.2117  -16.7665   24.2801 C   0  0  1  0  0  0  0  0  0  0  0  0
   11.9323  -16.6220   22.9841 C   0  0  0  0  0  0  0  0  0  0  0  0
   13.1737  -17.3936   22.7923 C   0  0  0  0  0  0  0  0  0  0  0  0
   13.1341  -18.3983   21.6986 C   0  0  0  0  0  0  0  0  0  0  0  0
   14.4262  -19.1813   21.6114 C   0  0  0  0  0  0  0  0  0  0  0  0
   14.4310  -20.0324   20.4390 N   0  0  0  0  0  0  0  0  0  0  0  0
   11.9689  -16.6388   25.5082 C   0  0  0  0  0  0  0  0  0  0  0  0
   11.8928  -15.4925   26.2812 O   0  0  0  0  0  0  0  0  0  0  0  0
   12.7179  -17.5487   25.9255 O   0  0  0  0  0  0  0  0  0  0  0  0
  2  5  1  0
  2  1  1  6
  3  2  1  0
  4  3  1  0
  5  6  2  0
  8  7  1  0
  9 11  1  0
  9  8  1  0
  9 10  1  6
 12  5  1  0
 11 12  1  1
 13 11  1  0
 13 14  2  0
 15 13  1  0
 16 22  1  0
 16 15  1  0
 16 17  1  6
 18 17  1  0
 19 18  1  0
 20 19  1  0
 21 20  1  0
 22 23  1  0
 24 22  2  0
M  END
$$$$
