TIR.pdb
     RDKit          3D

 27 26  0  0  1  0  0  0  0  0999 V2000
   15.9234   -9.4934  -11.3253 C   0  0  0  0  0  0  0  0  0  0  0  0
   15.6151   -8.3397  -10.3923 C   0  0  1  0  0  0  0  0  0  0  0  0
   14.6533   -8.6828   -9.4470 O   0  0  0  0  0  0  0  0  0  0  0  0
   16.8624   -7.9294   -9.5999 C   0  0  2  0  0  0  0  0  0  0  0  0
   16.5443   -6.9030   -8.6564 N   0  0  0  0  0  0  0  0  0  0  0  0
   17.9348   -7.5246  -10.5437 C   0  0  0  0  0  0  0  0  0  0  0  0
   17.9283   -6.3026  -10.9083 O   0  0  0  0  0  0  0  0  0  0  0  0
   23.0604   -9.4198  -10.3616 C   0  0  0  0  0  0  0  0  0  0  0  0
   21.8443   -8.4702  -10.4810 C   0  0  0  0  0  0  0  0  0  0  0  0
   21.1989   -8.7679  -11.7957 C   0  0  2  0  0  0  0  0  0  0  0  0
   22.1716   -8.7301  -12.9487 C   0  0  0  0  0  0  0  0  0  0  0  0
   19.9367   -8.0102  -12.0147 C   0  0  2  0  0  0  0  0  0  0  0  0
   18.9233   -8.4045  -11.0349 N   0  0  0  0  0  0  0  0  0  0  0  0
   19.3219   -8.0922  -13.3284 C   0  0  0  0  0  0  0  0  0  0  0  0
   19.1375   -9.2207  -13.8648 O   0  0  0  0  0  0  0  0  0  0  0  0
   11.8786   -7.4353  -16.9234 N   0  0  0  0  0  0  0  0  0  0  0  0
   12.7309   -7.6200  -18.0490 C   0  0  0  0  0  0  0  0  0  0  0  0
   12.1478   -7.8233  -19.1851 N   0  0  0  0  0  0  0  0  0  0  0  0
   14.1363   -7.5861  -17.9469 N   0  0  0  0  0  0  0  0  0  0  0  0
   14.7374   -7.4251  -16.6526 C   0  0  0  0  0  0  0  0  0  0  0  0
   16.2640   -7.3482  -16.7854 C   0  0  0  0  0  0  0  0  0  0  0  0
   16.8612   -7.2640  -15.4144 C   0  0  0  0  0  0  0  0  0  0  0  0
   18.3671   -7.1781  -15.4697 C   0  0  2  0  0  0  0  0  0  0  0  0
   18.8841   -6.9870  -14.1040 N   0  0  0  0  0  0  0  0  0  0  0  0
   18.8751   -6.1066  -16.3397 C   0  0  0  0  0  0  0  0  0  0  0  0
   18.5890   -6.1552  -17.7104 O   0  0  0  0  0  0  0  0  0  0  0  0
   19.5630   -5.1241  -15.9490 O   0  0  0  0  0  0  0  0  0  0  0  0
  2  1  1  6
  2  4  1  0
  3  2  1  0
  4  6  1  0
  4  5  1  1
  6  7  2  0
  9  8  1  0
 10  9  1  0
 10 11  1  6
 12 10  1  0
 12 13  1  1
 13  6  1  0
 14 15  2  0
 14 12  1  0
 16 17  1  0
 17 18  2  0
 19 17  1  0
 19 20  1  0
 21 20  1  0
 21 22  1  0
 23 22  1  1
 23 24  1  0
 24 14  1  0
 25 23  1  0
 25 26  1  0
 27 25  2  0
M  END
$$$$
