TIR.pdb
     RDKit          3D

 27 26  0  0  1  0  0  0  0  0999 V2000
   25.4507  -23.3130  -18.8388 C   0  0  0  0  0  0  0  0  0  0  0  0
   24.9339  -23.1950  -17.4192 C   0  0  1  0  0  0  0  0  0  0  0  0
   23.7693  -23.9328  -17.2304 O   0  0  0  0  0  0  0  0  0  0  0  0
   25.9551  -23.7493  -16.4181 C   0  0  2  0  0  0  0  0  0  0  0  0
   26.1767  -25.1436  -16.6451 N   0  0  0  0  0  0  0  0  0  0  0  0
   25.4957  -23.4621  -15.0356 C   0  0  0  0  0  0  0  0  0  0  0  0
   25.0365  -24.4549  -14.3802 O   0  0  0  0  0  0  0  0  0  0  0  0
   28.4034  -20.3501  -11.9140 C   0  0  0  0  0  0  0  0  0  0  0  0
   27.5030  -21.5201  -12.3781 C   0  0  0  0  0  0  0  0  0  0  0  0
   26.1026  -20.9983  -12.3973 C   0  0  2  0  0  0  0  0  0  0  0  0
   25.6561  -20.4673  -11.0573 C   0  0  0  0  0  0  0  0  0  0  0  0
   25.1411  -21.9224  -13.0579 C   0  0  2  0  0  0  0  0  0  0  0  0
   25.5451  -22.1829  -14.4405 N   0  0  0  0  0  0  0  0  0  0  0  0
   23.7420  -21.5322  -13.0833 C   0  0  0  0  0  0  0  0  0  0  0  0
   23.3433  -20.6833  -13.9293 O   0  0  0  0  0  0  0  0  0  0  0  0
   17.1619  -24.7445   -8.6705 N   0  0  0  0  0  0  0  0  0  0  0  0
   18.3761  -24.0309   -8.4609 C   0  0  0  0  0  0  0  0  0  0  0  0
   18.9620  -24.2139   -7.3229 N   0  0  0  0  0  0  0  0  0  0  0  0
   18.9230  -23.1676   -9.4317 N   0  0  0  0  0  0  0  0  0  0  0  0
   18.1928  -22.9324  -10.6458 C   0  0  0  0  0  0  0  0  0  0  0  0
   19.0173  -22.0541  -11.5960 C   0  0  0  0  0  0  0  0  0  0  0  0
   20.4643  -22.4095  -11.4438 C   0  0  0  0  0  0  0  0  0  0  0  0
   21.3406  -21.5597  -12.3316 C   0  0  2  0  0  0  0  0  0  0  0  0
   22.7314  -22.0312  -12.2206 N   0  0  0  0  0  0  0  0  0  0  0  0
   21.2856  -20.1215  -12.0289 C   0  0  0  0  0  0  0  0  0  0  0  0
   20.4380  -19.3025  -12.7864 O   0  0  0  0  0  0  0  0  0  0  0  0
   21.9520  -19.5479  -11.1244 O   0  0  0  0  0  0  0  0  0  0  0  0
  2  1  1  6
  2  4  1  0
  3  2  1  0
  4  6  1  0
  4  5  1  1
  6  7  2  0
  9  8  1  0
 10  9  1  0
 10 11  1  1
 12 10  1  0
 12 13  1  6
 13  6  1  0
 14 15  2  0
 14 12  1  0
 16 17  1  0
 17 18  2  0
 19 17  1  0
 19 20  1  0
 21 20  1  0
 21 22  1  0
 23 22  1  1
 23 24  1  0
 24 14  1  0
 25 23  1  0
 25 26  1  0
 27 25  2  0
M  END
$$$$
