TIR.pdb
     RDKit          3D

 27 26  0  0  1  0  0  0  0  0999 V2000
   19.4960  -24.0466   -8.7364 C   0  0  0  0  0  0  0  0  0  0  0  0
   18.5141  -24.2159   -7.5946 C   0  0  1  0  0  0  0  0  0  0  0  0
   17.3855  -23.4191   -7.7615 O   0  0  0  0  0  0  0  0  0  0  0  0
   18.0066  -25.6613   -7.5202 C   0  0  2  0  0  0  0  0  0  0  0  0
   17.3110  -26.0130   -8.7191 N   0  0  0  0  0  0  0  0  0  0  0  0
   17.1696  -25.8278   -6.3051 C   0  0  0  0  0  0  0  0  0  0  0  0
   15.9232  -26.0097   -6.5040 O   0  0  0  0  0  0  0  0  0  0  0  0
   19.1884  -28.5810   -2.2505 C   0  0  0  0  0  0  0  0  0  0  0  0
   18.0263  -28.1504   -3.1774 C   0  0  0  0  0  0  0  0  0  0  0  0
   17.6434  -26.7658   -2.7656 C   0  0  2  0  0  0  0  0  0  0  0  0
   17.0651  -26.7067   -1.3731 C   0  0  0  0  0  0  0  0  0  0  0  0
   16.8587  -26.0412   -3.8020 C   0  0  2  0  0  0  0  0  0  0  0  0
   17.6789  -25.7939   -4.9889 N   0  0  0  0  0  0  0  0  0  0  0  0
   16.2526  -24.7759   -3.4249 C   0  0  0  0  0  0  0  0  0  0  0  0
   16.9714  -23.7422   -3.3234 O   0  0  0  0  0  0  0  0  0  0  0  0
    8.4402  -20.8939   -4.8014 N   0  0  0  0  0  0  0  0  0  0  0  0
    9.3435  -19.9032   -4.3214 C   0  0  0  0  0  0  0  0  0  0  0  0
    8.9761  -18.6718   -4.4648 N   0  0  0  0  0  0  0  0  0  0  0  0
   10.5754  -20.2310   -3.7201 N   0  0  0  0  0  0  0  0  0  0  0  0
   11.0841  -21.5670   -3.8568 C   0  0  0  0  0  0  0  0  0  0  0  0
   12.4623  -21.6779   -3.1918 C   0  0  0  0  0  0  0  0  0  0  0  0
   13.0154  -23.0440   -3.4586 C   0  0  0  0  0  0  0  0  0  0  0  0
   14.3627  -23.2343   -2.8053 C   0  0  2  0  0  0  0  0  0  0  0  0
   14.8752  -24.5711   -3.1505 N   0  0  0  0  0  0  0  0  0  0  0  0
   14.3474  -23.0785   -1.3429 C   0  0  0  0  0  0  0  0  0  0  0  0
   14.2299  -24.2219   -0.5418 O   0  0  0  0  0  0  0  0  0  0  0  0
   14.4330  -21.9776   -0.7329 O   0  0  0  0  0  0  0  0  0  0  0  0
  2  1  1  6
  2  4  1  0
  3  2  1  0
  4  6  1  0
  4  5  1  6
  6  7  2  0
  9  8  1  0
 10  9  1  0
 10 11  1  1
 12 10  1  0
 12 13  1  6
 13  6  1  0
 14 15  2  0
 14 12  1  0
 16 17  1  0
 17 18  2  0
 19 17  1  0
 19 20  1  0
 21 20  1  0
 21 22  1  0
 23 22  1  1
 23 24  1  0
 24 14  1  0
 25 23  1  0
 25 26  1  0
 27 25  2  0
M  END
$$$$
