TIR.pdb
     RDKit          3D

 27 26  0  0  1  0  0  0  0  0999 V2000
   17.4933  -16.2952  -19.1928 C   0  0  0  0  0  0  0  0  0  0  0  0
   18.4483  -16.7434  -18.1049 C   0  0  1  0  0  0  0  0  0  0  0  0
   19.7195  -17.0026  -18.6082 O   0  0  0  0  0  0  0  0  0  0  0  0
   18.6254  -15.6468  -17.0474 C   0  0  2  0  0  0  0  0  0  0  0  0
   19.0655  -14.4289  -17.6539 N   0  0  0  0  0  0  0  0  0  0  0  0
   19.5526  -16.1259  -15.9912 C   0  0  0  0  0  0  0  0  0  0  0  0
   20.6426  -15.4761  -15.8658 O   0  0  0  0  0  0  0  0  0  0  0  0
   17.1307  -16.8811  -12.9233 C   0  0  0  0  0  0  0  0  0  0  0  0
   18.5457  -16.7902  -12.3033 C   0  0  0  0  0  0  0  0  0  0  0  0
   19.3199  -17.9522  -12.8361 C   0  0  2  0  0  0  0  0  0  0  0  0
   20.0485  -18.7157  -11.7576 C   0  0  0  0  0  0  0  0  0  0  0  0
   20.1424  -17.6120  -14.0288 C   0  0  2  0  0  0  0  0  0  0  0  0
   19.2859  -17.2296  -15.1525 N   0  0  0  0  0  0  0  0  0  0  0  0
   21.0699  -18.6185  -14.5159 C   0  0  0  0  0  0  0  0  0  0  0  0
   20.6387  -19.7562  -14.8551 O   0  0  0  0  0  0  0  0  0  0  0  0
   27.0184  -21.0917  -11.5274 N   0  0  0  0  0  0  0  0  0  0  0  0
   25.7639  -21.0751  -10.8541 C   0  0  0  0  0  0  0  0  0  0  0  0
   25.7385  -20.4949   -9.6989 N   0  0  0  0  0  0  0  0  0  0  0  0
   24.6030  -21.6555  -11.4039 N   0  0  0  0  0  0  0  0  0  0  0  0
   24.6752  -22.2610  -12.7041 C   0  0  0  0  0  0  0  0  0  0  0  0
   24.7348  -21.1773  -13.7886 C   0  0  0  0  0  0  0  0  0  0  0  0
   23.3680  -20.5874  -13.9531 C   0  0  0  0  0  0  0  0  0  0  0  0
   23.3336  -19.5695  -15.0671 C   0  0  2  0  0  0  0  0  0  0  0  0
   22.4714  -18.4469  -14.6604 N   0  0  0  0  0  0  0  0  0  0  0  0
   22.8655  -20.1048  -16.3544 C   0  0  0  0  0  0  0  0  0  0  0  0
   21.7245  -19.5460  -16.9450 O   0  0  0  0  0  0  0  0  0  0  0  0
   23.4158  -21.0466  -16.9879 O   0  0  0  0  0  0  0  0  0  0  0  0
  2  1  1  6
  2  4  1  0
  3  2  1  0
  4  6  1  0
  4  5  1  6
  6  7  2  0
  9  8  1  0
 10  9  1  0
 10 11  1  1
 12 10  1  0
 12 13  1  6
 13  6  1  0
 14 15  2  0
 14 12  1  0
 16 17  1  0
 17 18  2  0
 19 17  1  0
 19 20  1  0
 21 20  1  0
 21 22  1  0
 23 22  1  1
 23 24  1  0
 24 14  1  0
 25 23  1  0
 25 26  1  0
 27 25  2  0
M  END
$$$$
