TIR.pdb
     RDKit          3D

 27 26  0  0  1  0  0  0  0  0999 V2000
   26.5795  -23.7302  -19.3912 C   0  0  0  0  0  0  0  0  0  0  0  0
   25.8581  -23.5452  -18.0715 C   0  0  1  0  0  0  0  0  0  0  0  0
   24.7061  -24.3225  -17.9992 O   0  0  0  0  0  0  0  0  0  0  0  0
   26.7425  -23.9860  -16.8986 C   0  0  2  0  0  0  0  0  0  0  0  0
   27.0464  -25.3801  -16.9935 N   0  0  0  0  0  0  0  0  0  0  0  0
   26.0767  -23.6327  -15.6194 C   0  0  0  0  0  0  0  0  0  0  0  0
   25.6305  -24.6096  -14.9317 O   0  0  0  0  0  0  0  0  0  0  0  0
   28.4127  -20.1837  -12.4493 C   0  0  0  0  0  0  0  0  0  0  0  0
   27.6218  -21.4181  -12.9451 C   0  0  0  0  0  0  0  0  0  0  0  0
   26.2123  -20.9663  -13.1515 C   0  0  2  0  0  0  0  0  0  0  0  0
   25.6014  -20.3646  -11.9099 C   0  0  0  0  0  0  0  0  0  0  0  0
   25.3662  -21.9793  -13.8393 C   0  0  2  0  0  0  0  0  0  0  0  0
   25.9236  -22.3096  -15.1518 N   0  0  0  0  0  0  0  0  0  0  0  0
   23.9618  -21.6626  -14.0340 C   0  0  0  0  0  0  0  0  0  0  0  0
   23.6361  -20.6539  -14.7208 O   0  0  0  0  0  0  0  0  0  0  0  0
   19.1887  -24.0301   -8.7623 N   0  0  0  0  0  0  0  0  0  0  0  0
   19.0932  -24.7009  -10.0146 C   0  0  0  0  0  0  0  0  0  0  0  0
   19.3346  -25.9712  -10.0068 N   0  0  0  0  0  0  0  0  0  0  0  0
   18.7550  -24.0306  -11.2075 N   0  0  0  0  0  0  0  0  0  0  0  0
   18.5791  -22.6056  -11.1805 C   0  0  0  0  0  0  0  0  0  0  0  0
   19.3084  -21.9610  -12.3666 C   0  0  0  0  0  0  0  0  0  0  0  0
   20.7294  -22.4344  -12.3710 C   0  0  0  0  0  0  0  0  0  0  0  0
   21.5040  -21.8534  -13.5288 C   0  0  2  0  0  0  0  0  0  0  0  0
   22.8697  -22.4044  -13.5129 N   0  0  0  0  0  0  0  0  0  0  0  0
   21.5690  -20.3841  -13.5298 C   0  0  0  0  0  0  0  0  0  0  0  0
   21.0886  -19.6863  -14.6458 O   0  0  0  0  0  0  0  0  0  0  0  0
   22.0312  -19.6809  -12.5901 O   0  0  0  0  0  0  0  0  0  0  0  0
  2  1  1  6
  2  4  1  0
  3  2  1  0
  4  6  1  0
  4  5  1  1
  6  7  2  0
  9  8  1  0
 10  9  1  0
 10 11  1  1
 12 10  1  0
 12 13  1  6
 13  6  1  0
 14 15  2  0
 14 12  1  0
 16 17  1  0
 17 18  2  0
 19 17  1  0
 19 20  1  0
 21 20  1  0
 21 22  1  0
 23 22  1  1
 23 24  1  0
 24 14  1  0
 25 23  1  0
 25 26  1  0
 27 25  2  0
M  END
$$$$
