TIR.pdb
     RDKit          3D

 27 26  0  0  1  0  0  0  0  0999 V2000
   20.3173  -15.3137  -18.4120 C   0  0  0  0  0  0  0  0  0  0  0  0
   21.0337  -14.4462  -17.3968 C   0  0  1  0  0  0  0  0  0  0  0  0
   21.9817  -15.1680  -16.6780 O   0  0  0  0  0  0  0  0  0  0  0  0
   21.7991  -13.3123  -18.0901 C   0  0  2  0  0  0  0  0  0  0  0  0
   22.7742  -13.8413  -18.9925 N   0  0  0  0  0  0  0  0  0  0  0  0
   22.3959  -12.4209  -17.0636 C   0  0  0  0  0  0  0  0  0  0  0  0
   21.6574  -12.1489  -16.0601 O   0  0  0  0  0  0  0  0  0  0  0  0
   27.7668  -12.2423  -15.9747 C   0  0  0  0  0  0  0  0  0  0  0  0
   26.2317  -12.2964  -15.7866 C   0  0  0  0  0  0  0  0  0  0  0  0
   25.7085  -10.9482  -16.1637 C   0  0  2  0  0  0  0  0  0  0  0  0
   26.3650   -9.8281  -15.3947 C   0  0  0  0  0  0  0  0  0  0  0  0
   24.2222  -10.8883  -16.2132 C   0  0  2  0  0  0  0  0  0  0  0  0
   23.6982  -11.8830  -17.1505 N   0  0  0  0  0  0  0  0  0  0  0  0
   23.6109   -9.6141  -16.5495 C   0  0  0  0  0  0  0  0  0  0  0  0
   23.5467   -9.2490  -17.7570 O   0  0  0  0  0  0  0  0  0  0  0  0
   17.5527   -7.5122  -20.6640 N   0  0  0  0  0  0  0  0  0  0  0  0
   17.8502   -6.2170  -20.1526 C   0  0  0  0  0  0  0  0  0  0  0  0
   17.2167   -5.2265  -20.6905 N   0  0  0  0  0  0  0  0  0  0  0  0
   18.7825   -6.0092  -19.1161 N   0  0  0  0  0  0  0  0  0  0  0  0
   19.4660   -7.1414  -18.5561 C   0  0  0  0  0  0  0  0  0  0  0  0
   20.5163   -6.6744  -17.5398 C   0  0  0  0  0  0  0  0  0  0  0  0
   21.2458   -7.8739  -17.0181 C   0  0  0  0  0  0  0  0  0  0  0  0
   22.3619   -7.4803  -16.0813 C   0  0  2  0  0  0  0  0  0  0  0  0
   23.0500   -8.6984  -15.6213 N   0  0  0  0  0  0  0  0  0  0  0  0
   21.9198   -6.6985  -14.9167 C   0  0  0  0  0  0  0  0  0  0  0  0
   21.7233   -5.3190  -15.0628 O   0  0  0  0  0  0  0  0  0  0  0  0
   21.6970   -7.1743  -13.7698 O   0  0  0  0  0  0  0  0  0  0  0  0
  2  1  1  6
  2  4  1  0
  3  2  1  0
  4  6  1  0
  4  5  1  1
  6  7  2  0
  9  8  1  0
 10  9  1  0
 10 11  1  1
 12 10  1  0
 12 13  1  6
 13  6  1  0
 14 15  2  0
 14 12  1  0
 16 17  1  0
 17 18  2  0
 19 17  1  0
 19 20  1  0
 21 20  1  0
 21 22  1  0
 23 22  1  6
 23 24  1  0
 24 14  1  0
 25 23  1  0
 25 26  1  0
 27 25  2  0
M  END
$$$$
