RWW.pdb
     RDKit          3D

 40 43  0  0  1  0  0  0  0  0999 V2000
   32.2750  -22.4627  -20.4816 N   0  0  0  0  0  0  0  0  0  0  0  0
   31.7140  -23.7661  -20.5246 C   0  0  0  0  0  0  0  0  0  0  0  0
   32.1844  -24.6324  -21.3495 N   0  0  0  0  0  0  0  0  0  0  0  0
   30.6375  -24.1562  -19.6795 N   0  0  0  0  0  0  0  0  0  0  0  0
   30.0595  -23.2587  -18.7161 C   0  0  0  0  0  0  0  0  0  0  0  0
   28.6225  -22.9669  -19.0734 C   0  0  0  0  0  0  0  0  0  0  0  0
   27.6809  -23.1366  -17.8974 C   0  0  0  0  0  0  0  0  0  0  0  0
   27.6382  -21.8163  -17.1590 C   0  0  2  0  0  0  0  0  0  0  0  0
   28.9509  -21.2384  -16.9699 N   0  0  0  0  0  0  0  0  0  0  0  0
   26.9623  -21.9375  -15.8427 C   0  0  0  0  0  0  0  0  0  0  0  0
   26.0410  -22.7755  -15.6553 O   0  0  0  0  0  0  0  0  0  0  0  0
   31.8412  -25.5912  -21.4568 N   0  0  0  0  0  0  0  0  0  0  0  0
   27.3399  -21.1092  -14.7602 C   0  0  1  0  0  0  0  0  0  0  0  0
   26.7375  -21.1383  -13.4485 C   0  0  0  0  0  0  0  0  0  0  0  0
   27.5406  -20.3880  -12.4441 C   0  0  0  0  0  0  0  0  0  0  0  0
   26.9833  -20.3954  -11.0795 C   0  0  0  0  0  0  0  0  0  0  0  0
   25.6486  -20.1283  -10.7530 N   0  0  0  0  0  0  0  0  0  0  0  0
   25.5064  -20.2042   -9.4213 C   0  0  0  0  0  0  0  0  0  0  0  0
   26.6874  -20.5122   -8.8271 C   0  0  0  0  0  0  0  0  0  0  0  0
   27.0237  -20.7010   -7.5095 C   0  0  0  0  0  0  0  0  0  0  0  0
   28.3155  -21.0220   -7.1830 C   0  0  0  0  0  0  0  0  0  0  0  0
   29.2387  -21.1439   -8.2104 C   0  0  0  0  0  0  0  0  0  0  0  0
   28.8967  -20.9535   -9.5276 C   0  0  0  0  0  0  0  0  0  0  0  0
   27.6020  -20.6296   -9.8714 C   0  0  0  0  0  0  0  0  0  0  0  0
   25.3109  -20.7592  -13.5180 O   0  0  0  0  0  0  0  0  0  0  0  0
   25.0301  -19.5816  -13.8815 N   0  0  0  0  0  0  0  0  0  0  0  0
   24.2312  -21.5990  -13.2158 C   0  0  1  0  0  0  0  0  0  0  0  0
   22.8263  -21.1910  -13.2367 C   0  0  0  0  0  0  0  0  0  0  0  0
   22.1310  -21.8569  -14.3880 C   0  0  0  0  0  0  0  0  0  0  0  0
   20.7171  -21.5309  -14.5397 C   0  0  0  0  0  0  0  0  0  0  0  0
   20.2499  -20.3191  -15.0182 N   0  0  0  0  0  0  0  0  0  0  0  0
   18.9095  -20.3596  -15.0581 C   0  0  0  0  0  0  0  0  0  0  0  0
   18.4790  -21.5498  -14.6242 C   0  0  0  0  0  0  0  0  0  0  0  0
   17.1950  -22.0352  -14.4873 C   0  0  0  0  0  0  0  0  0  0  0  0
   17.0138  -23.3117  -14.0035 C   0  0  0  0  0  0  0  0  0  0  0  0
   18.1099  -24.0680  -13.6697 C   0  0  0  0  0  0  0  0  0  0  0  0
   19.3754  -23.5629  -13.8150 C   0  0  0  0  0  0  0  0  0  0  0  0
   19.6109  -22.2840  -14.2989 C   0  0  0  0  0  0  0  0  0  0  0  0
   22.1614  -21.2319  -11.9512 O   0  0  0  0  0  0  0  0  0  0  0  0
   21.2136  -20.2840  -11.5186 O   0  0  0  0  0  0  0  0  0  0  0  0
  2  3  2  0
  2  1  1  0
  4  2  1  0
  5  4  1  0
  6  5  1  0
  7  6  1  0
  8  7  1  0
  8  9  1  1
 10 12  1  0
 10  8  1  0
 11 10  2  0
 13 14  1  1
 13 24  1  0
 13 12  1  0
 14 15  1  0
 15 16  2  0
 15 23  1  0
 16 17  1  0
 17 18  1  0
 18 19  2  0
 20 19  1  0
 21 20  2  0
 22 23  2  0
 22 21  1  0
 23 18  1  0
 24 26  1  0
 25 24  2  0
 26 27  1  0
 27 38  1  0
 27 28  1  1
 29 28  1  0
 29 30  2  0
 31 30  1  0
 32 31  1  0
 33 32  2  0
 34 33  1  0
 35 34  2  0
 35 36  1  0
 36 37  2  0
 37 32  1  0
 37 29  1  0
 38 40  2  0
 38 39  1  0
M  END
$$$$
