RWW.pdb
     RDKit          3D

 40 43  0  0  1  0  0  0  0  0999 V2000
   32.5094  -27.3330  -17.9072 N   0  0  0  0  0  0  0  0  0  0  0  0
   33.4713  -26.3516  -17.5506 C   0  0  0  0  0  0  0  0  0  0  0  0
   34.7067  -26.5343  -17.8547 N   0  0  0  0  0  0  0  0  0  0  0  0
   33.1168  -25.1585  -16.8609 N   0  0  0  0  0  0  0  0  0  0  0  0
   31.7480  -24.8114  -16.5898 C   0  0  0  0  0  0  0  0  0  0  0  0
   31.2372  -23.8520  -17.6370 C   0  0  0  0  0  0  0  0  0  0  0  0
   30.5202  -22.6584  -17.0373 C   0  0  0  0  0  0  0  0  0  0  0  0
   29.2206  -23.1620  -16.4475 C   0  0  2  0  0  0  0  0  0  0  0  0
   28.3170  -23.6846  -17.4492 N   0  0  0  0  0  0  0  0  0  0  0  0
   28.5247  -22.1135  -15.6596 C   0  0  0  0  0  0  0  0  0  0  0  0
   29.1175  -21.4805  -14.7463 O   0  0  0  0  0  0  0  0  0  0  0  0
   35.4581  -25.8559  -17.7008 N   0  0  0  0  0  0  0  0  0  0  0  0
   27.1704  -21.7983  -15.9181 C   0  0  1  0  0  0  0  0  0  0  0  0
   26.4063  -20.7968  -15.2128 C   0  0  0  0  0  0  0  0  0  0  0  0
   25.7096  -19.8641  -16.1409 C   0  0  0  0  0  0  0  0  0  0  0  0
   26.5538  -18.7788  -16.6724 C   0  0  0  0  0  0  0  0  0  0  0  0
   27.2028  -18.7970  -17.9126 N   0  0  0  0  0  0  0  0  0  0  0  0
   27.8943  -17.6563  -18.0545 C   0  0  0  0  0  0  0  0  0  0  0  0
   27.7435  -16.8621  -16.9641 C   0  0  0  0  0  0  0  0  0  0  0  0
   28.2446  -15.6196  -16.6642 C   0  0  0  0  0  0  0  0  0  0  0  0
   27.9160  -15.0304  -15.4712 C   0  0  0  0  0  0  0  0  0  0  0  0
   27.0810  -15.7231  -14.6077 C   0  0  0  0  0  0  0  0  0  0  0  0
   26.5825  -16.9667  -14.9128 C   0  0  0  0  0  0  0  0  0  0  0  0
   26.9046  -17.5723  -16.1082 C   0  0  0  0  0  0  0  0  0  0  0  0
   25.5430  -21.4207  -14.1885 O   0  0  0  0  0  0  0  0  0  0  0  0
   24.6765  -22.2555  -14.5758 N   0  0  0  0  0  0  0  0  0  0  0  0
   25.6023  -21.1677  -12.8120 C   0  0  1  0  0  0  0  0  0  0  0  0
   24.6888  -21.7351  -11.8199 C   0  0  0  0  0  0  0  0  0  0  0  0
   25.4782  -22.2464  -10.6504 C   0  0  0  0  0  0  0  0  0  0  0  0
   26.2372  -21.2386   -9.9178 C   0  0  0  0  0  0  0  0  0  0  0  0
   25.6599  -20.2481   -9.1423 N   0  0  0  0  0  0  0  0  0  0  0  0
   26.6349  -19.5120   -8.5877 C   0  0  0  0  0  0  0  0  0  0  0  0
   27.8288  -19.9801   -8.9694 C   0  0  0  0  0  0  0  0  0  0  0  0
   29.0981  -19.5402   -8.6558 C   0  0  0  0  0  0  0  0  0  0  0  0
   30.1823  -20.1989   -9.1914 C   0  0  0  0  0  0  0  0  0  0  0  0
   29.9760  -21.2726  -10.0216 C   0  0  0  0  0  0  0  0  0  0  0  0
   28.7050  -21.6903  -10.3178 C   0  0  0  0  0  0  0  0  0  0  0  0
   27.5804  -21.0614   -9.8030 C   0  0  0  0  0  0  0  0  0  0  0  0
   23.5268  -20.9224  -11.5273 O   0  0  0  0  0  0  0  0  0  0  0  0
   23.3806  -19.5779  -11.9206 O   0  0  0  0  0  0  0  0  0  0  0  0
  2  3  2  0
  2  1  1  0
  4  2  1  0
  5  4  1  0
  6  5  1  0
  7  6  1  0
  8  7  1  0
  8  9  1  6
 10 12  1  0
 10  8  1  0
 11 10  2  0
 13 14  1  1
 13 24  1  0
 13 12  1  0
 14 15  1  0
 15 16  2  0
 15 23  1  0
 16 17  1  0
 17 18  1  0
 18 19  2  0
 20 19  1  0
 21 20  2  0
 22 23  2  0
 22 21  1  0
 23 18  1  0
 24 26  1  0
 25 24  2  0
 26 27  1  0
 27 38  1  0
 27 28  1  1
 29 28  1  0
 29 30  2  0
 31 30  1  0
 32 31  1  0
 33 32  2  0
 34 33  1  0
 35 34  2  0
 35 36  1  0
 36 37  2  0
 37 32  1  0
 37 29  1  0
 38 40  2  0
 38 39  1  0
M  END
$$$$
