RWW.pdb
     RDKit          3D

 40 43  0  0  1  0  0  0  0  0999 V2000
   30.3045  -22.6072  -18.0125 N   0  0  0  0  0  0  0  0  0  0  0  0
   28.9507  -22.4648  -18.4153 C   0  0  0  0  0  0  0  0  0  0  0  0
   28.6307  -22.6606  -19.6448 N   0  0  0  0  0  0  0  0  0  0  0  0
   27.9209  -22.1091  -17.4999 N   0  0  0  0  0  0  0  0  0  0  0  0
   28.1504  -22.0401  -16.0820 C   0  0  0  0  0  0  0  0  0  0  0  0
   27.7008  -20.7024  -15.5467 C   0  0  0  0  0  0  0  0  0  0  0  0
   26.6898  -20.8310  -14.4243 C   0  0  0  0  0  0  0  0  0  0  0  0
   27.2094  -21.8815  -13.4668 C   0  0  2  0  0  0  0  0  0  0  0  0
   27.3058  -23.1918  -14.0724 N   0  0  0  0  0  0  0  0  0  0  0  0
   26.3824  -21.9701  -12.2370 C   0  0  0  0  0  0  0  0  0  0  0  0
   25.5412  -22.8943  -12.0798 O   0  0  0  0  0  0  0  0  0  0  0  0
   27.6848  -22.5775  -20.0280 N   0  0  0  0  0  0  0  0  0  0  0  0
   26.5207  -21.0124  -11.2055 C   0  0  1  0  0  0  0  0  0  0  0  0
   25.7059  -20.9571  -10.0149 C   0  0  0  0  0  0  0  0  0  0  0  0
   26.2748  -20.0436   -8.9861 C   0  0  0  0  0  0  0  0  0  0  0  0
   27.5408  -20.5028   -8.3867 C   0  0  0  0  0  0  0  0  0  0  0  0
   28.4712  -21.3405   -9.0127 N   0  0  0  0  0  0  0  0  0  0  0  0
   29.4882  -21.5642   -8.1670 C   0  0  0  0  0  0  0  0  0  0  0  0
   29.2900  -20.9142   -6.9919 C   0  0  0  0  0  0  0  0  0  0  0  0
   30.0498  -20.8405   -5.8509 C   0  0  0  0  0  0  0  0  0  0  0  0
   29.6083  -20.0867   -4.7947 C   0  0  0  0  0  0  0  0  0  0  0  0
   28.3981  -19.4227   -4.9259 C   0  0  0  0  0  0  0  0  0  0  0  0
   27.6414  -19.5002   -6.0702 C   0  0  0  0  0  0  0  0  0  0  0  0
   28.0719  -20.2547   -7.1403 C   0  0  0  0  0  0  0  0  0  0  0  0
   24.2907  -20.7075  -10.3591 O   0  0  0  0  0  0  0  0  0  0  0  0
   23.4223  -20.8972   -9.4604 N   0  0  0  0  0  0  0  0  0  0  0  0
   23.8220  -20.2725  -11.6055 C   0  0  1  0  0  0  0  0  0  0  0  0
   22.4194  -19.9988  -11.9195 C   0  0  0  0  0  0  0  0  0  0  0  0
   22.3422  -18.8994  -12.9383 C   0  0  0  0  0  0  0  0  0  0  0  0
   20.9946  -18.4694  -13.2954 C   0  0  0  0  0  0  0  0  0  0  0  0
   20.0674  -17.9946  -12.3840 N   0  0  0  0  0  0  0  0  0  0  0  0
   18.9472  -17.6614  -13.0430 C   0  0  0  0  0  0  0  0  0  0  0  0
   19.1029  -17.8994  -14.3503 C   0  0  0  0  0  0  0  0  0  0  0  0
   18.2245  -17.7166  -15.3982 C   0  0  0  0  0  0  0  0  0  0  0  0
   18.6284  -18.0508  -16.6716 C   0  0  0  0  0  0  0  0  0  0  0  0
   19.8897  -18.5561  -16.8679 C   0  0  0  0  0  0  0  0  0  0  0  0
   20.7437  -18.7282  -15.8102 C   0  0  0  0  0  0  0  0  0  0  0  0
   20.3850  -18.4060  -14.5092 C   0  0  0  0  0  0  0  0  0  0  0  0
   21.6076  -21.1744  -12.1544 O   0  0  0  0  0  0  0  0  0  0  0  0
   20.2647  -21.3040  -11.7498 O   0  0  0  0  0  0  0  0  0  0  0  0
  2  3  2  0
  2  1  1  0
  4  2  1  0
  5  4  1  0
  6  5  1  0
  7  6  1  0
  8  7  1  0
  8  9  1  6
 10 12  1  0
 10  8  1  0
 11 10  2  0
 13 14  1  1
 13 24  1  0
 13 12  1  0
 14 15  1  0
 15 16  2  0
 15 23  1  0
 16 17  1  0
 17 18  1  0
 18 19  2  0
 20 19  1  0
 21 20  2  0
 22 23  2  0
 22 21  1  0
 23 18  1  0
 24 26  1  0
 25 24  2  0
 26 27  1  0
 27 38  1  0
 27 28  1  6
 29 28  1  0
 29 30  2  0
 31 30  1  0
 32 31  1  0
 33 32  2  0
 34 33  1  0
 35 34  2  0
 35 36  1  0
 36 37  2  0
 37 32  1  0
 37 29  1  0
 38 40  2  0
 38 39  1  0
M  END
$$$$
