RWW.pdb
     RDKit          3D

 40 43  0  0  1  0  0  0  0  0999 V2000
   46.6105  -14.2594   -7.1511 N   0  0  0  0  0  0  0  0  0  0  0  0
   47.1627  -13.2655   -6.3011 C   0  0  0  0  0  0  0  0  0  0  0  0
   48.1509  -13.5637   -5.5350 N   0  0  0  0  0  0  0  0  0  0  0  0
   46.6588  -11.9352   -6.2632 N   0  0  0  0  0  0  0  0  0  0  0  0
   45.4916  -11.5397   -7.0042 C   0  0  0  0  0  0  0  0  0  0  0  0
   45.2218  -10.0683   -6.8036 C   0  0  0  0  0  0  0  0  0  0  0  0
   44.0808   -9.5601   -7.6628 C   0  0  0  0  0  0  0  0  0  0  0  0
   43.0593   -8.9385   -6.7352 C   0  0  2  0  0  0  0  0  0  0  0  0
   42.8176   -9.7373   -5.5535 N   0  0  0  0  0  0  0  0  0  0  0  0
   41.7695   -8.6788   -7.4230 C   0  0  0  0  0  0  0  0  0  0  0  0
   41.2163   -9.5618   -8.1304 O   0  0  0  0  0  0  0  0  0  0  0  0
   48.6355  -12.9077   -4.9158 N   0  0  0  0  0  0  0  0  0  0  0  0
   41.1268   -7.4250   -7.2989 C   0  0  1  0  0  0  0  0  0  0  0  0
   39.8311   -7.1030   -7.8484 C   0  0  0  0  0  0  0  0  0  0  0  0
   39.0663   -6.1701   -6.9758 C   0  0  0  0  0  0  0  0  0  0  0  0
   37.6920   -5.8895   -7.4289 C   0  0  0  0  0  0  0  0  0  0  0  0
   36.5686   -6.6666   -7.1229 N   0  0  0  0  0  0  0  0  0  0  0  0
   35.4948   -6.1259   -7.7181 C   0  0  0  0  0  0  0  0  0  0  0  0
   35.8391   -5.0136   -8.4157 C   0  0  0  0  0  0  0  0  0  0  0  0
   35.0916   -4.1386   -9.1643 C   0  0  0  0  0  0  0  0  0  0  0  0
   35.7054   -3.0699   -9.7640 C   0  0  0  0  0  0  0  0  0  0  0  0
   37.0720   -2.9166   -9.5865 C   0  0  0  0  0  0  0  0  0  0  0  0
   37.8155   -3.7956   -8.8365 C   0  0  0  0  0  0  0  0  0  0  0  0
   37.2126   -4.8753   -8.2280 C   0  0  0  0  0  0  0  0  0  0  0  0
   39.9499   -6.6832   -9.2602 O   0  0  0  0  0  0  0  0  0  0  0  0
   40.9467   -5.9767   -9.5841 N   0  0  0  0  0  0  0  0  0  0  0  0
   39.0472   -7.0042  -10.2822 C   0  0  1  0  0  0  0  0  0  0  0  0
   39.4054   -7.6810  -11.5289 C   0  0  0  0  0  0  0  0  0  0  0  0
   40.3919   -8.7737  -11.2371 C   0  0  0  0  0  0  0  0  0  0  0  0
   40.7139   -9.6445  -12.3625 C   0  0  0  0  0  0  0  0  0  0  0  0
   40.5983   -9.2680  -13.6894 N   0  0  0  0  0  0  0  0  0  0  0  0
   40.9996  -10.2879  -14.4631 C   0  0  0  0  0  0  0  0  0  0  0  0
   41.3732  -11.3186  -13.6962 C   0  0  0  0  0  0  0  0  0  0  0  0
   41.8458  -12.5653  -14.0507 C   0  0  0  0  0  0  0  0  0  0  0  0
   42.1587  -13.4659  -13.0570 C   0  0  0  0  0  0  0  0  0  0  0  0
   41.9934  -13.1042  -11.7429 C   0  0  0  0  0  0  0  0  0  0  0  0
   41.5223  -11.8596  -11.4168 C   0  0  0  0  0  0  0  0  0  0  0  0
   41.1941  -10.9165  -12.3802 C   0  0  0  0  0  0  0  0  0  0  0  0
   38.2857   -8.0140  -12.3843 O   0  0  0  0  0  0  0  0  0  0  0  0
   38.2329   -7.7374  -13.7644 O   0  0  0  0  0  0  0  0  0  0  0  0
  2  3  2  0
  2  1  1  0
  4  2  1  0
  5  4  1  0
  6  5  1  0
  7  6  1  0
  8  7  1  0
  8  9  1  1
 10 12  1  0
 10  8  1  0
 11 10  2  0
 13 14  1  6
 13 24  1  0
 13 12  1  0
 14 15  1  0
 15 16  2  0
 15 23  1  0
 16 17  1  0
 17 18  1  0
 18 19  2  0
 20 19  1  0
 21 20  2  0
 22 23  2  0
 22 21  1  0
 23 18  1  0
 24 26  1  0
 25 24  2  0
 26 27  1  0
 27 38  1  0
 27 28  1  6
 29 28  1  0
 29 30  2  0
 31 30  1  0
 32 31  1  0
 33 32  2  0
 34 33  1  0
 35 34  2  0
 35 36  1  0
 36 37  2  0
 37 32  1  0
 37 29  1  0
 38 40  2  0
 38 39  1  0
M  END
$$$$
