RWW.pdb
     RDKit          3D

 40 43  0  0  1  0  0  0  0  0999 V2000
   27.2436  -19.9696  -21.0092 N   0  0  0  0  0  0  0  0  0  0  0  0
   26.8102  -21.0348  -20.1767 C   0  0  0  0  0  0  0  0  0  0  0  0
   26.7230  -22.2226  -20.6601 N   0  0  0  0  0  0  0  0  0  0  0  0
   26.4642  -20.8365  -18.8107 N   0  0  0  0  0  0  0  0  0  0  0  0
   26.4510  -19.5308  -18.2083 C   0  0  0  0  0  0  0  0  0  0  0  0
   27.4614  -19.4639  -17.0891 C   0  0  0  0  0  0  0  0  0  0  0  0
   26.8505  -19.0186  -15.7750 C   0  0  0  0  0  0  0  0  0  0  0  0
   27.1938  -20.0673  -14.7393 C   0  0  2  0  0  0  0  0  0  0  0  0
   26.8385  -21.4054  -15.1589 N   0  0  0  0  0  0  0  0  0  0  0  0
   26.5602  -19.7810  -13.4275 C   0  0  0  0  0  0  0  0  0  0  0  0
   26.6115  -18.6324  -12.9132 O   0  0  0  0  0  0  0  0  0  0  0  0
   26.4047  -23.0473  -20.1433 N   0  0  0  0  0  0  0  0  0  0  0  0
   25.8788  -20.7983  -12.7195 C   0  0  2  0  0  0  0  0  0  0  0  0
   25.1464  -20.6012  -11.4910 C   0  0  0  0  0  0  0  0  0  0  0  0
   23.7290  -21.0426  -11.6044 C   0  0  0  0  0  0  0  0  0  0  0  0
   22.8854  -20.1917  -12.4629 C   0  0  0  0  0  0  0  0  0  0  0  0
   21.9873  -19.2219  -12.0021 N   0  0  0  0  0  0  0  0  0  0  0  0
   21.3800  -18.6597  -13.0579 C   0  0  0  0  0  0  0  0  0  0  0  0
   21.8268  -19.2050  -14.2179 C   0  0  0  0  0  0  0  0  0  0  0  0
   21.5078  -18.9491  -15.5284 C   0  0  0  0  0  0  0  0  0  0  0  0
   22.1321  -19.6543  -16.5241 C   0  0  0  0  0  0  0  0  0  0  0  0
   23.0709  -20.6078  -16.1603 C   0  0  0  0  0  0  0  0  0  0  0  0
   23.3860  -20.8602  -14.8469 C   0  0  0  0  0  0  0  0  0  0  0  0
   22.7662  -20.1597  -13.8347 C   0  0  0  0  0  0  0  0  0  0  0  0
   25.8869  -21.1642  -10.3429 O   0  0  0  0  0  0  0  0  0  0  0  0
   26.1716  -22.3955  -10.3706 N   0  0  0  0  0  0  0  0  0  0  0  0
   26.3074  -20.4462   -9.2160 C   0  0  1  0  0  0  0  0  0  0  0  0
   27.0005  -21.0290   -8.0668 C   0  0  0  0  0  0  0  0  0  0  0  0
   28.2641  -20.2627   -7.8056 C   0  0  0  0  0  0  0  0  0  0  0  0
   28.6901  -20.2128   -6.4111 C   0  0  0  0  0  0  0  0  0  0  0  0
   29.5029  -21.1623   -5.8164 N   0  0  0  0  0  0  0  0  0  0  0  0
   29.7244  -20.8030   -4.5429 C   0  0  0  0  0  0  0  0  0  0  0  0
   29.0886  -19.6557   -4.2787 C   0  0  0  0  0  0  0  0  0  0  0  0
   29.0272  -18.9213   -3.1126 C   0  0  0  0  0  0  0  0  0  0  0  0
   28.2873  -17.7600   -3.0954 C   0  0  0  0  0  0  0  0  0  0  0  0
   27.6305  -17.3622   -4.2335 C   0  0  0  0  0  0  0  0  0  0  0  0
   27.7073  -18.1095   -5.3795 C   0  0  0  0  0  0  0  0  0  0  0  0
   28.4401  -19.2857   -5.4484 C   0  0  0  0  0  0  0  0  0  0  0  0
   26.1547  -21.3154   -6.9270 O   0  0  0  0  0  0  0  0  0  0  0  0
   26.5561  -22.0801   -5.8144 O   0  0  0  0  0  0  0  0  0  0  0  0
  2  3  2  0
  2  1  1  0
  4  2  1  0
  5  4  1  0
  6  5  1  0
  7  6  1  0
  8  7  1  0
  8  9  1  6
 10 12  1  0
 10  8  1  0
 11 10  2  0
 13 14  1  6
 13 24  1  0
 13 12  1  0
 14 15  1  0
 15 16  2  0
 15 23  1  0
 16 17  1  0
 17 18  1  0
 18 19  2  0
 20 19  1  0
 21 20  2  0
 22 23  2  0
 22 21  1  0
 23 18  1  0
 24 26  1  0
 25 24  2  0
 26 27  1  0
 27 38  1  0
 27 28  1  1
 29 28  1  0
 29 30  2  0
 31 30  1  0
 32 31  1  0
 33 32  2  0
 34 33  1  0
 35 34  2  0
 35 36  1  0
 36 37  2  0
 37 32  1  0
 37 29  1  0
 38 40  2  0
 38 39  1  0
M  END
$$$$
