RWW.pdb
     RDKit          3D

 40 43  0  0  1  0  0  0  0  0999 V2000
   31.8075  -23.4559  -15.9456 N   0  0  0  0  0  0  0  0  0  0  0  0
   30.6547  -24.2844  -15.9589 C   0  0  0  0  0  0  0  0  0  0  0  0
   30.7711  -25.5374  -15.6972 N   0  0  0  0  0  0  0  0  0  0  0  0
   29.3590  -23.7756  -16.2542 N   0  0  0  0  0  0  0  0  0  0  0  0
   29.1109  -22.3689  -16.4203 C   0  0  0  0  0  0  0  0  0  0  0  0
   29.2165  -21.6615  -15.0912 C   0  0  0  0  0  0  0  0  0  0  0  0
   28.1831  -22.1392  -14.0902 C   0  0  0  0  0  0  0  0  0  0  0  0
   27.2503  -20.9794  -13.8159 C   0  0  2  0  0  0  0  0  0  0  0  0
   27.9519  -19.7263  -13.6415 N   0  0  0  0  0  0  0  0  0  0  0  0
   26.3888  -21.2270  -12.6324 C   0  0  0  0  0  0  0  0  0  0  0  0
   25.5770  -22.1896  -12.6044 O   0  0  0  0  0  0  0  0  0  0  0  0
   30.0051  -26.2168  -15.7147 N   0  0  0  0  0  0  0  0  0  0  0  0
   26.4601  -20.3822  -11.5003 C   0  0  1  0  0  0  0  0  0  0  0  0
   25.6410  -20.5137  -10.3186 C   0  0  0  0  0  0  0  0  0  0  0  0
   26.2023  -19.7667   -9.1594 C   0  0  0  0  0  0  0  0  0  0  0  0
   27.5069  -20.2597   -8.6820 C   0  0  0  0  0  0  0  0  0  0  0  0
   28.3679  -21.0919   -9.4071 N   0  0  0  0  0  0  0  0  0  0  0  0
   29.4489  -21.3531   -8.6569 C   0  0  0  0  0  0  0  0  0  0  0  0
   29.3609  -20.7337   -7.4522 C   0  0  0  0  0  0  0  0  0  0  0  0
   30.2153  -20.7024   -6.3781 C   0  0  0  0  0  0  0  0  0  0  0  0
   29.8764  -19.9728   -5.2684 C   0  0  0  0  0  0  0  0  0  0  0  0
   28.6701  -19.2891   -5.2787 C   0  0  0  0  0  0  0  0  0  0  0  0
   27.8185  -19.3242   -6.3564 C   0  0  0  0  0  0  0  0  0  0  0  0
   28.1451  -20.0539   -7.4789 C   0  0  0  0  0  0  0  0  0  0  0  0
   24.2259  -20.2198  -10.6260 O   0  0  0  0  0  0  0  0  0  0  0  0
   23.8330  -19.0238  -10.5115 N   0  0  0  0  0  0  0  0  0  0  0  0
   23.2721  -21.1587  -11.0395 C   0  0  1  0  0  0  0  0  0  0  0  0
   22.1599  -20.8735  -11.9463 C   0  0  0  0  0  0  0  0  0  0  0  0
   22.6509  -20.0326  -13.0883 C   0  0  0  0  0  0  0  0  0  0  0  0
   21.6314  -19.6208  -14.0473 C   0  0  0  0  0  0  0  0  0  0  0  0
   20.4144  -19.0658  -13.6915 N   0  0  0  0  0  0  0  0  0  0  0  0
   19.7297  -18.7769  -14.8086 C   0  0  0  0  0  0  0  0  0  0  0  0
   20.4493  -19.1210  -15.8828 C   0  0  0  0  0  0  0  0  0  0  0  0
   20.1492  -19.0156  -17.2251 C   0  0  0  0  0  0  0  0  0  0  0  0
   21.0703  -19.4550  -18.1497 C   0  0  0  0  0  0  0  0  0  0  0  0
   22.2600  -19.9857  -17.7164 C   0  0  0  0  0  0  0  0  0  0  0  0
   22.5344  -20.0795  -16.3772 C   0  0  0  0  0  0  0  0  0  0  0  0
   21.6406  -19.6501  -15.4066 C   0  0  0  0  0  0  0  0  0  0  0  0
   21.3344  -22.0165  -12.2756 O   0  0  0  0  0  0  0  0  0  0  0  0
   21.8228  -23.2100  -12.8420 O   0  0  0  0  0  0  0  0  0  0  0  0
  2  3  2  0
  2  1  1  0
  4  2  1  0
  5  4  1  0
  6  5  1  0
  7  6  1  0
  8  7  1  0
  8  9  1  1
 10 12  1  0
 10  8  1  0
 11 10  2  0
 13 14  1  1
 13 24  1  0
 13 12  1  0
 14 15  1  0
 15 16  2  0
 15 23  1  0
 16 17  1  0
 17 18  1  0
 18 19  2  0
 20 19  1  0
 21 20  2  0
 22 23  2  0
 22 21  1  0
 23 18  1  0
 24 26  1  0
 25 24  2  0
 26 27  1  0
 27 38  1  0
 27 28  1  1
 29 28  1  0
 29 30  2  0
 31 30  1  0
 32 31  1  0
 33 32  2  0
 34 33  1  0
 35 34  2  0
 35 36  1  0
 36 37  2  0
 37 32  1  0
 37 29  1  0
 38 40  2  0
 38 39  1  0
M  END
$$$$
