RWW.pdb
     RDKit          3D

 40 43  0  0  1  0  0  0  0  0999 V2000
   30.0247  -22.8349  -17.8678 N   0  0  0  0  0  0  0  0  0  0  0  0
   28.7142  -22.8969  -18.4099 C   0  0  0  0  0  0  0  0  0  0  0  0
   28.4606  -23.7203  -19.3638 N   0  0  0  0  0  0  0  0  0  0  0  0
   27.6568  -22.0726  -17.9329 N   0  0  0  0  0  0  0  0  0  0  0  0
   27.7219  -21.4084  -16.6591 C   0  0  0  0  0  0  0  0  0  0  0  0
   28.2238  -22.3604  -15.6009 C   0  0  0  0  0  0  0  0  0  0  0  0
   27.2122  -22.5933  -14.4960 C   0  0  0  0  0  0  0  0  0  0  0  0
   26.9687  -21.2620  -13.8187 C   0  0  2  0  0  0  0  0  0  0  0  0
   28.1005  -20.3668  -13.9216 N   0  0  0  0  0  0  0  0  0  0  0  0
   26.6013  -21.4246  -12.3895 C   0  0  0  0  0  0  0  0  0  0  0  0
   25.6236  -22.1389  -12.0428 O   0  0  0  0  0  0  0  0  0  0  0  0
   27.5688  -23.7879  -19.8626 N   0  0  0  0  0  0  0  0  0  0  0  0
   27.3459  -20.7770  -11.3763 C   0  0  1  0  0  0  0  0  0  0  0  0
   27.0096  -20.7830   -9.9723 C   0  0  0  0  0  0  0  0  0  0  0  0
   28.1127  -20.2480   -9.1275 C   0  0  0  0  0  0  0  0  0  0  0  0
   28.0765  -20.6819   -7.7192 C   0  0  0  0  0  0  0  0  0  0  0  0
   28.0790  -22.0130   -7.2862 N   0  0  0  0  0  0  0  0  0  0  0  0
   28.0193  -22.0311   -5.9462 C   0  0  0  0  0  0  0  0  0  0  0  0
   27.9769  -20.7690   -5.4483 C   0  0  0  0  0  0  0  0  0  0  0  0
   27.9201  -20.2979   -4.1601 C   0  0  0  0  0  0  0  0  0  0  0  0
   27.8983  -18.9458   -3.9372 C   0  0  0  0  0  0  0  0  0  0  0  0
   27.9352  -18.1012   -5.0363 C   0  0  0  0  0  0  0  0  0  0  0  0
   27.9917  -18.5780   -6.3237 C   0  0  0  0  0  0  0  0  0  0  0  0
   28.0134  -19.9350   -6.5637 C   0  0  0  0  0  0  0  0  0  0  0  0
   25.6897  -20.1583   -9.7465 O   0  0  0  0  0  0  0  0  0  0  0  0
   25.6510  -18.9070   -9.5716 N   0  0  0  0  0  0  0  0  0  0  0  0
   24.4647  -20.8369   -9.7111 C   0  0  1  0  0  0  0  0  0  0  0  0
   23.2291  -20.3601  -10.3328 C   0  0  0  0  0  0  0  0  0  0  0  0
   23.5121  -19.9392  -11.7453 C   0  0  0  0  0  0  0  0  0  0  0  0
   22.3640  -19.4352  -12.4912 C   0  0  0  0  0  0  0  0  0  0  0  0
   21.3854  -18.6214  -11.9474 N   0  0  0  0  0  0  0  0  0  0  0  0
   20.4961  -18.3182  -12.9051 C   0  0  0  0  0  0  0  0  0  0  0  0
   20.8525  -18.9013  -14.0554 C   0  0  0  0  0  0  0  0  0  0  0  0
   20.2424  -18.8745  -15.2923 C   0  0  0  0  0  0  0  0  0  0  0  0
   20.8132  -19.5749  -16.3316 C   0  0  0  0  0  0  0  0  0  0  0  0
   21.9704  -20.2807  -16.1135 C   0  0  0  0  0  0  0  0  0  0  0  0
   22.5571  -20.2915  -14.8752 C   0  0  0  0  0  0  0  0  0  0  0  0
   22.0223  -19.6016  -13.7967 C   0  0  0  0  0  0  0  0  0  0  0  0
   22.0729  -21.2039  -10.1147 O   0  0  0  0  0  0  0  0  0  0  0  0
   20.7892  -20.7217   -9.7929 O   0  0  0  0  0  0  0  0  0  0  0  0
  2  3  2  0
  2  1  1  0
  4  2  1  0
  5  4  1  0
  6  5  1  0
  7  6  1  0
  8  7  1  0
  8  9  1  1
 10 12  1  0
 10  8  1  0
 11 10  2  0
 13 14  1  1
 13 24  1  0
 13 12  1  0
 14 15  1  0
 15 16  2  0
 15 23  1  0
 16 17  1  0
 17 18  1  0
 18 19  2  0
 20 19  1  0
 21 20  2  0
 22 23  2  0
 22 21  1  0
 23 18  1  0
 24 26  1  0
 25 24  2  0
 26 27  1  0
 27 38  1  0
 27 28  1  1
 29 28  1  0
 29 30  2  0
 31 30  1  0
 32 31  1  0
 33 32  2  0
 34 33  1  0
 35 34  2  0
 35 36  1  0
 36 37  2  0
 37 32  1  0
 37 29  1  0
 38 40  2  0
 38 39  1  0
M  END
$$$$
