RWW.pdb
     RDKit          3D

 40 43  0  0  1  0  0  0  0  0999 V2000
   30.2786  -25.5708  -18.7488 N   0  0  0  0  0  0  0  0  0  0  0  0
   29.0389  -25.6535  -18.0621 C   0  0  0  0  0  0  0  0  0  0  0  0
   28.9409  -26.3952  -17.0169 N   0  0  0  0  0  0  0  0  0  0  0  0
   27.8857  -24.9385  -18.4910 N   0  0  0  0  0  0  0  0  0  0  0  0
   27.3212  -23.8657  -17.7175 C   0  0  0  0  0  0  0  0  0  0  0  0
   27.5647  -22.5443  -18.4051 C   0  0  0  0  0  0  0  0  0  0  0  0
   27.0579  -21.3637  -17.6004 C   0  0  0  0  0  0  0  0  0  0  0  0
   27.8433  -21.3282  -16.3072 C   0  0  2  0  0  0  0  0  0  0  0  0
   28.9018  -22.3136  -16.2683 N   0  0  0  0  0  0  0  0  0  0  0  0
   26.9683  -21.5023  -15.1206 C   0  0  0  0  0  0  0  0  0  0  0  0
   25.8644  -22.1029  -15.2046 O   0  0  0  0  0  0  0  0  0  0  0  0
   28.0725  -26.5858  -16.5087 N   0  0  0  0  0  0  0  0  0  0  0  0
   27.3565  -20.9948  -13.8588 C   0  0  1  0  0  0  0  0  0  0  0  0
   26.5871  -21.1248  -12.6440 C   0  0  0  0  0  0  0  0  0  0  0  0
   27.4271  -20.9581  -11.4260 C   0  0  0  0  0  0  0  0  0  0  0  0
   26.6804  -20.9769  -10.1552 C   0  0  0  0  0  0  0  0  0  0  0  0
   25.6160  -21.8365   -9.8590 N   0  0  0  0  0  0  0  0  0  0  0  0
   25.1674  -21.5589   -8.6257 C   0  0  0  0  0  0  0  0  0  0  0  0
   25.8812  -20.5472   -8.0692 C   0  0  0  0  0  0  0  0  0  0  0  0
   25.7942  -19.9364   -6.8428 C   0  0  0  0  0  0  0  0  0  0  0  0
   26.6664  -18.9267   -6.5294 C   0  0  0  0  0  0  0  0  0  0  0  0
   27.6110  -18.5611   -7.4764 C   0  0  0  0  0  0  0  0  0  0  0  0
   27.6935  -19.1756   -8.7026 C   0  0  0  0  0  0  0  0  0  0  0  0
   26.8230  -20.1920   -9.0324 C   0  0  0  0  0  0  0  0  0  0  0  0
   25.3810  -20.2726  -12.6933 O   0  0  0  0  0  0  0  0  0  0  0  0
   25.5140  -19.0845  -13.1039 N   0  0  0  0  0  0  0  0  0  0  0  0
   24.0895  -20.6699  -12.3237 C   0  0  1  0  0  0  0  0  0  0  0  0
   22.9268  -19.7832  -12.2734 C   0  0  0  0  0  0  0  0  0  0  0  0
   22.8531  -18.9855  -13.5425 C   0  0  0  0  0  0  0  0  0  0  0  0
   22.4050  -19.7210  -14.7201 C   0  0  0  0  0  0  0  0  0  0  0  0
   21.2461  -20.4765  -14.7652 N   0  0  0  0  0  0  0  0  0  0  0  0
   21.1164  -20.9930  -15.9967 C   0  0  0  0  0  0  0  0  0  0  0  0
   22.1445  -20.6067  -16.7607 C   0  0  0  0  0  0  0  0  0  0  0  0
   22.4306  -20.8954  -18.0790 C   0  0  0  0  0  0  0  0  0  0  0  0
   23.5735  -20.3731  -18.6421 C   0  0  0  0  0  0  0  0  0  0  0  0
   24.3983  -19.5813  -17.8820 C   0  0  0  0  0  0  0  0  0  0  0  0
   24.0920  -19.3092  -16.5745 C   0  0  0  0  0  0  0  0  0  0  0  0
   22.9525  -19.8102  -15.9615 C   0  0  0  0  0  0  0  0  0  0  0  0
   21.7039  -20.4083  -11.8148 O   0  0  0  0  0  0  0  0  0  0  0  0
   20.5619  -19.7003  -11.3926 O   0  0  0  0  0  0  0  0  0  0  0  0
  2  3  2  0
  2  1  1  0
  4  2  1  0
  5  4  1  0
  6  5  1  0
  7  6  1  0
  8  7  1  0
  8  9  1  6
 10 12  1  0
 10  8  1  0
 11 10  2  0
 13 14  1  6
 13 24  1  0
 13 12  1  0
 14 15  1  0
 15 16  2  0
 15 23  1  0
 16 17  1  0
 17 18  1  0
 18 19  2  0
 20 19  1  0
 21 20  2  0
 22 23  2  0
 22 21  1  0
 23 18  1  0
 24 26  1  0
 25 24  2  0
 26 27  1  0
 27 38  1  0
 27 28  1  1
 29 28  1  0
 29 30  2  0
 31 30  1  0
 32 31  1  0
 33 32  2  0
 34 33  1  0
 35 34  2  0
 35 36  1  0
 36 37  2  0
 37 32  1  0
 37 29  1  0
 38 40  2  0
 38 39  1  0
M  END
$$$$
