RWW.pdb
     RDKit          3D

 40 43  0  0  1  0  0  0  0  0999 V2000
   28.5513  -26.9426  -19.5623 N   0  0  0  0  0  0  0  0  0  0  0  0
   29.0605  -27.3193  -18.2917 C   0  0  0  0  0  0  0  0  0  0  0  0
   29.9226  -28.2692  -18.2101 N   0  0  0  0  0  0  0  0  0  0  0  0
   28.6486  -26.6785  -17.0898 N   0  0  0  0  0  0  0  0  0  0  0  0
   27.7001  -25.5977  -17.0873 C   0  0  0  0  0  0  0  0  0  0  0  0
   28.3447  -24.3385  -17.6136 C   0  0  0  0  0  0  0  0  0  0  0  0
   28.4660  -23.2576  -16.5576 C   0  0  0  0  0  0  0  0  0  0  0  0
   27.1910  -23.2777  -15.7425 C   0  0  2  0  0  0  0  0  0  0  0  0
   26.0322  -22.8698  -16.5064 N   0  0  0  0  0  0  0  0  0  0  0  0
   27.2965  -22.4346  -14.5250 C   0  0  0  0  0  0  0  0  0  0  0  0
   28.3339  -22.4440  -13.8109 O   0  0  0  0  0  0  0  0  0  0  0  0
   30.2838  -28.6639  -17.3370 N   0  0  0  0  0  0  0  0  0  0  0  0
   26.2272  -21.5947  -14.1358 C   0  0  1  0  0  0  0  0  0  0  0  0
   26.2187  -20.7606  -12.9573 C   0  0  0  0  0  0  0  0  0  0  0  0
   25.6584  -19.4083  -13.2296 C   0  0  0  0  0  0  0  0  0  0  0  0
   26.2123  -18.7402  -14.4211 C   0  0  0  0  0  0  0  0  0  0  0  0
   25.4693  -17.9988  -15.3472 N   0  0  0  0  0  0  0  0  0  0  0  0
   26.2946  -17.5568  -16.3079 C   0  0  0  0  0  0  0  0  0  0  0  0
   27.5681  -17.9652  -16.0751 C   0  0  0  0  0  0  0  0  0  0  0  0
   28.7347  -17.7537  -16.7671 C   0  0  0  0  0  0  0  0  0  0  0  0
   29.9059  -18.2837  -16.2916 C   0  0  0  0  0  0  0  0  0  0  0  0
   29.8613  -19.0196  -15.1173 C   0  0  0  0  0  0  0  0  0  0  0  0
   28.6907  -19.2286  -14.4288 C   0  0  0  0  0  0  0  0  0  0  0  0
   27.5051  -18.7027  -14.8948 C   0  0  0  0  0  0  0  0  0  0  0  0
   25.6080  -21.4723  -11.8154 O   0  0  0  0  0  0  0  0  0  0  0  0
   25.9897  -22.6550  -11.5845 N   0  0  0  0  0  0  0  0  0  0  0  0
   24.6349  -20.9459  -10.9561 C   0  0  1  0  0  0  0  0  0  0  0  0
   24.6987  -20.9941   -9.4952 C   0  0  0  0  0  0  0  0  0  0  0  0
   26.0954  -20.6778   -9.0465 C   0  0  0  0  0  0  0  0  0  0  0  0
   26.3272  -20.7664   -7.6088 C   0  0  0  0  0  0  0  0  0  0  0  0
   25.6125  -21.5936   -6.7599 N   0  0  0  0  0  0  0  0  0  0  0  0
   26.0948  -21.4543   -5.5158 C   0  0  0  0  0  0  0  0  0  0  0  0
   27.0972  -20.5681   -5.5150 C   0  0  0  0  0  0  0  0  0  0  0  0
   27.8785  -20.1102   -4.4744 C   0  0  0  0  0  0  0  0  0  0  0  0
   28.8562  -19.1765   -4.7367 C   0  0  0  0  0  0  0  0  0  0  0  0
   29.0294  -18.7246   -6.0215 C   0  0  0  0  0  0  0  0  0  0  0  0
   28.2402  -19.1952   -7.0380 C   0  0  0  0  0  0  0  0  0  0  0  0
   27.2430  -20.1364   -6.8258 C   0  0  0  0  0  0  0  0  0  0  0  0
   23.6169  -20.3124   -8.8158 O   0  0  0  0  0  0  0  0  0  0  0  0
   22.7965  -20.9063   -7.8371 O   0  0  0  0  0  0  0  0  0  0  0  0
  2  3  2  0
  2  1  1  0
  4  2  1  0
  5  4  1  0
  6  5  1  0
  7  6  1  0
  8  7  1  0
  8  9  1  6
 10 12  1  0
 10  8  1  0
 11 10  2  0
 13 14  1  1
 13 24  1  0
 13 12  1  0
 14 15  1  0
 15 16  2  0
 15 23  1  0
 16 17  1  0
 17 18  1  0
 18 19  2  0
 20 19  1  0
 21 20  2  0
 22 23  2  0
 22 21  1  0
 23 18  1  0
 24 26  1  0
 25 24  2  0
 26 27  1  0
 27 38  1  0
 27 28  1  1
 29 28  1  0
 29 30  2  0
 31 30  1  0
 32 31  1  0
 33 32  2  0
 34 33  1  0
 35 34  2  0
 35 36  1  0
 36 37  2  0
 37 32  1  0
 37 29  1  0
 38 40  2  0
 38 39  1  0
M  END
$$$$
