RWW.pdb
     RDKit          3D

 40 43  0  0  1  0  0  0  0  0999 V2000
   25.9902  -22.5364  -25.4134 N   0  0  0  0  0  0  0  0  0  0  0  0
   27.3610  -22.5042  -25.0457 C   0  0  0  0  0  0  0  0  0  0  0  0
   28.2148  -23.1894  -25.7192 N   0  0  0  0  0  0  0  0  0  0  0  0
   27.8330  -21.7332  -23.9467 N   0  0  0  0  0  0  0  0  0  0  0  0
   26.9598  -20.8924  -23.1731 C   0  0  0  0  0  0  0  0  0  0  0  0
   27.7419  -20.1814  -22.0958 C   0  0  0  0  0  0  0  0  0  0  0  0
   27.4699  -20.7370  -20.7117 C   0  0  0  0  0  0  0  0  0  0  0  0
   26.9128  -19.6070  -19.8731 C   0  0  2  0  0  0  0  0  0  0  0  0
   27.1598  -19.7856  -18.4589 N   0  0  0  0  0  0  0  0  0  0  0  0
   25.4576  -19.4151  -20.0956 C   0  0  0  0  0  0  0  0  0  0  0  0
   25.0178  -18.4112  -20.7163 O   0  0  0  0  0  0  0  0  0  0  0  0
   29.2246  -23.2034  -25.5498 N   0  0  0  0  0  0  0  0  0  0  0  0
   24.5241  -20.3616  -19.6129 C   0  0  1  0  0  0  0  0  0  0  0  0
   23.1103  -20.3509  -19.9055 C   0  0  0  0  0  0  0  0  0  0  0  0
   22.6302  -21.6676  -20.4081 C   0  0  0  0  0  0  0  0  0  0  0  0
   21.2020  -21.7051  -20.7709 C   0  0  0  0  0  0  0  0  0  0  0  0
   20.5750  -20.8300  -21.6656 N   0  0  0  0  0  0  0  0  0  0  0  0
   19.2731  -21.1455  -21.7371 C   0  0  0  0  0  0  0  0  0  0  0  0
   18.9871  -22.1985  -20.9296 C   0  0  0  0  0  0  0  0  0  0  0  0
   17.8135  -22.8671  -20.6838 C   0  0  0  0  0  0  0  0  0  0  0  0
   17.8104  -23.9250  -19.8124 C   0  0  0  0  0  0  0  0  0  0  0  0
   19.0077  -24.2790  -19.2094 C   0  0  0  0  0  0  0  0  0  0  0  0
   20.1795  -23.6061  -19.4588 C   0  0  0  0  0  0  0  0  0  0  0  0
   20.1983  -22.5399  -20.3319 C   0  0  0  0  0  0  0  0  0  0  0  0
   22.3439  -19.7977  -18.7698 O   0  0  0  0  0  0  0  0  0  0  0  0
   22.6058  -20.2337  -17.6126 N   0  0  0  0  0  0  0  0  0  0  0  0
   21.3438  -18.8212  -18.8630 C   0  0  2  0  0  0  0  0  0  0  0  0
   20.5607  -18.3194  -17.7336 C   0  0  0  0  0  0  0  0  0  0  0  0
   19.7679  -17.1220  -18.1696 C   0  0  0  0  0  0  0  0  0  0  0  0
   18.4670  -17.4135  -18.7622 C   0  0  0  0  0  0  0  0  0  0  0  0
   17.3154  -17.6374  -18.0278 N   0  0  0  0  0  0  0  0  0  0  0  0
   16.2971  -17.8458  -18.8762 C   0  0  0  0  0  0  0  0  0  0  0  0
   16.7355  -17.7681  -20.1379 C   0  0  0  0  0  0  0  0  0  0  0  0
   16.0528  -17.9179  -21.3272 C   0  0  0  0  0  0  0  0  0  0  0  0
   16.7444  -17.7959  -22.5118 C   0  0  0  0  0  0  0  0  0  0  0  0
   18.0909  -17.5298  -22.4819 C   0  0  0  0  0  0  0  0  0  0  0  0
   18.7462  -17.3853  -21.2872 C   0  0  0  0  0  0  0  0  0  0  0  0
   18.0948  -17.4978  -20.0673 C   0  0  0  0  0  0  0  0  0  0  0  0
   19.8587  -19.3368  -16.9796 O   0  0  0  0  0  0  0  0  0  0  0  0
   19.4469  -19.1886  -15.6409 O   0  0  0  0  0  0  0  0  0  0  0  0
  2  3  2  0
  2  1  1  0
  4  2  1  0
  5  4  1  0
  6  5  1  0
  7  6  1  0
  8  7  1  0
  8  9  1  1
 10 12  1  0
 10  8  1  0
 11 10  2  0
 13 14  1  6
 13 24  1  0
 13 12  1  0
 14 15  1  0
 15 16  2  0
 15 23  1  0
 16 17  1  0
 17 18  1  0
 18 19  2  0
 20 19  1  0
 21 20  2  0
 22 23  2  0
 22 21  1  0
 23 18  1  0
 24 26  1  0
 25 24  2  0
 26 27  1  0
 27 38  1  0
 27 28  1  6
 29 28  1  0
 29 30  2  0
 31 30  1  0
 32 31  1  0
 33 32  2  0
 34 33  1  0
 35 34  2  0
 35 36  1  0
 36 37  2  0
 37 32  1  0
 37 29  1  0
 38 40  2  0
 38 39  1  0
M  END
$$$$
