RWW.pdb
     RDKit          3D

 40 43  0  0  1  0  0  0  0  0999 V2000
   25.7166  -26.6318  -15.6428 N   0  0  0  0  0  0  0  0  0  0  0  0
   26.3693  -27.2041  -16.7661 C   0  0  0  0  0  0  0  0  0  0  0  0
   25.6900  -27.8954  -17.6104 N   0  0  0  0  0  0  0  0  0  0  0  0
   27.7639  -27.0404  -16.9970 N   0  0  0  0  0  0  0  0  0  0  0  0
   28.4653  -25.8440  -16.6168 C   0  0  0  0  0  0  0  0  0  0  0  0
   28.1707  -24.7345  -17.5968 C   0  0  0  0  0  0  0  0  0  0  0  0
   27.8179  -23.4282  -16.9131 C   0  0  0  0  0  0  0  0  0  0  0  0
   29.1161  -22.7116  -16.6110 C   0  0  2  0  0  0  0  0  0  0  0  0
   30.2576  -23.6003  -16.6057 N   0  0  0  0  0  0  0  0  0  0  0  0
   29.0596  -21.9795  -15.3207 C   0  0  0  0  0  0  0  0  0  0  0  0
   29.5789  -22.4544  -14.2761 O   0  0  0  0  0  0  0  0  0  0  0  0
   26.0848  -28.4173  -18.3980 N   0  0  0  0  0  0  0  0  0  0  0  0
   28.4171  -20.7225  -15.2334 C   0  0  2  0  0  0  0  0  0  0  0  0
   27.8679  -20.1578  -14.0233 C   0  0  0  0  0  0  0  0  0  0  0  0
   27.8998  -18.6693  -14.0327 C   0  0  0  0  0  0  0  0  0  0  0  0
   26.9993  -18.0398  -15.0153 C   0  0  0  0  0  0  0  0  0  0  0  0
   25.6030  -18.0067  -14.9228 N   0  0  0  0  0  0  0  0  0  0  0  0
   25.1140  -17.3722  -15.9988 C   0  0  0  0  0  0  0  0  0  0  0  0
   26.1180  -16.9715  -16.8199 C   0  0  0  0  0  0  0  0  0  0  0  0
   26.1046  -16.2909  -18.0121 C   0  0  0  0  0  0  0  0  0  0  0  0
   27.2901  -16.0008  -18.6357 C   0  0  0  0  0  0  0  0  0  0  0  0
   28.4666  -16.4121  -18.0280 C   0  0  0  0  0  0  0  0  0  0  0  0
   28.4741  -17.0934  -16.8347 C   0  0  0  0  0  0  0  0  0  0  0  0
   27.2902  -17.3930  -16.1961 C   0  0  0  0  0  0  0  0  0  0  0  0
   26.5506  -20.7533  -13.7175 O   0  0  0  0  0  0  0  0  0  0  0  0
   26.3072  -21.9098  -14.1657 N   0  0  0  0  0  0  0  0  0  0  0  0
   25.5382  -20.1439  -12.9651 C   0  0  1  0  0  0  0  0  0  0  0  0
   25.2663  -20.4206  -11.5544 C   0  0  0  0  0  0  0  0  0  0  0  0
   26.5642  -20.5304  -10.8089 C   0  0  0  0  0  0  0  0  0  0  0  0
   26.4449  -20.7225   -9.3676 C   0  0  0  0  0  0  0  0  0  0  0  0
   25.3099  -21.2110   -8.7439 N   0  0  0  0  0  0  0  0  0  0  0  0
   25.5434  -21.2902   -7.4251 C   0  0  0  0  0  0  0  0  0  0  0  0
   26.7864  -20.8726   -7.1592 C   0  0  0  0  0  0  0  0  0  0  0  0
   27.4531  -20.7747   -5.9554 C   0  0  0  0  0  0  0  0  0  0  0  0
   28.7458  -20.3001   -5.9470 C   0  0  0  0  0  0  0  0  0  0  0  0
   29.3381  -19.9366   -7.1310 C   0  0  0  0  0  0  0  0  0  0  0  0
   28.6545  -20.0433   -8.3137 C   0  0  0  0  0  0  0  0  0  0  0  0
   27.3515  -20.5164   -8.3755 C   0  0  0  0  0  0  0  0  0  0  0  0
   24.2320  -19.5992  -10.9613 O   0  0  0  0  0  0  0  0  0  0  0  0
   23.1513  -20.1039  -10.2122 O   0  0  0  0  0  0  0  0  0  0  0  0
  2  3  2  0
  2  1  1  0
  4  2  1  0
  5  4  1  0
  6  5  1  0
  7  6  1  0
  8  7  1  0
  8  9  1  1
 10 12  1  0
 10  8  1  0
 11 10  2  0
 13 14  1  6
 13 24  1  0
 13 12  1  0
 14 15  1  0
 15 16  2  0
 15 23  1  0
 16 17  1  0
 17 18  1  0
 18 19  2  0
 20 19  1  0
 21 20  2  0
 22 23  2  0
 22 21  1  0
 23 18  1  0
 24 26  1  0
 25 24  2  0
 26 27  1  0
 27 38  1  0
 27 28  1  1
 29 28  1  0
 29 30  2  0
 31 30  1  0
 32 31  1  0
 33 32  2  0
 34 33  1  0
 35 34  2  0
 35 36  1  0
 36 37  2  0
 37 32  1  0
 37 29  1  0
 38 40  2  0
 38 39  1  0
M  END
$$$$
