PHW.pdb
     RDKit          3D

 32 35  0  0  1  0  0  0  0  0999 V2000
   24.4190  -19.0499  -17.3793 N   0  0  0  0  0  0  0  0  0  0  0  0
   23.4449  -18.7971  -18.4484 C   0  0  0  0  0  0  0  0  0  0  0  0
   23.7107  -19.8304  -19.5135 C   0  0  0  0  0  0  0  0  0  0  0  0
   24.8557  -20.6733  -18.9375 C   0  0  0  0  0  0  0  0  0  0  0  0
   24.6288  -20.4663  -17.4561 C   0  0  1  0  0  0  0  0  0  0  0  0
   25.8074  -20.9148  -16.6830 C   0  0  0  0  0  0  0  0  0  0  0  0
   26.1867  -22.1100  -16.6371 O   0  0  0  0  0  0  0  0  0  0  0  0
   26.6116  -20.0021  -15.9206 N   0  0  0  0  0  0  0  0  0  0  0  0
   27.7894  -20.3594  -15.2246 C   0  0  1  0  0  0  0  0  0  0  0  0
   29.0845  -19.8757  -15.7136 C   0  0  0  0  0  0  0  0  0  0  0  0
   29.3408  -19.9146  -17.1480 C   0  0  0  0  0  0  0  0  0  0  0  0
   29.2871  -18.9875  -18.1508 C   0  0  0  0  0  0  0  0  0  0  0  0
   29.6465  -19.5516  -19.3108 N   0  0  0  0  0  0  0  0  0  0  0  0
   29.9311  -20.8273  -19.0699 C   0  0  0  0  0  0  0  0  0  0  0  0
   29.7519  -21.0662  -17.7645 N   0  0  0  0  0  0  0  0  0  0  0  0
   27.5709  -20.0495  -13.7678 C   0  0  0  0  0  0  0  0  0  0  0  0
   28.0188  -18.9883  -13.2520 O   0  0  0  0  0  0  0  0  0  0  0  0
   26.8621  -20.9103  -12.8942 N   0  0  0  0  0  0  0  0  0  0  0  0
   26.6169  -20.6091  -11.4925 C   0  0  1  0  0  0  0  0  0  0  0  0
   25.8654  -19.3350  -11.3065 C   0  0  0  0  0  0  0  0  0  0  0  0
   24.6290  -19.2449  -12.1152 C   0  0  0  0  0  0  0  0  0  0  0  0
   23.4967  -20.0264  -11.9927 C   0  0  0  0  0  0  0  0  0  0  0  0
   22.6098  -19.6162  -12.9158 N   0  0  0  0  0  0  0  0  0  0  0  0
   23.0910  -18.6036  -13.6464 C   0  0  0  0  0  0  0  0  0  0  0  0
   22.5525  -17.8765  -14.6863 C   0  0  0  0  0  0  0  0  0  0  0  0
   23.3144  -16.8745  -15.2463 C   0  0  0  0  0  0  0  0  0  0  0  0
   24.5756  -16.6139  -14.7746 C   0  0  0  0  0  0  0  0  0  0  0  0
   25.1006  -17.3626  -13.7209 C   0  0  0  0  0  0  0  0  0  0  0  0
   24.3639  -18.3598  -13.1512 C   0  0  0  0  0  0  0  0  0  0  0  0
   25.8325  -21.7012  -10.8431 C   0  0  0  0  0  0  0  0  0  0  0  0
   25.5006  -21.5835   -9.6407 O   0  0  0  0  0  0  0  0  0  0  0  0
   25.4605  -22.8404  -11.5312 O   0  0  0  0  0  0  0  0  0  0  0  0
  1  2  1  0
  3  2  1  0
  4  3  1  0
  5  4  1  0
  5  1  1  0
  6  7  2  0
  5  6  1  1
  8  6  1  0
  9  8  1  0
 10 11  1  0
  9 10  1  6
 11 15  1  0
 12 11  2  0
 12 13  1  0
 13 14  1  0
 15 14  2  0
 16 18  1  0
 16  9  1  0
 17 16  2  0
 19 18  1  0
 19 30  1  0
 19 20  1  6
 21 22  2  0
 21 20  1  0
 23 22  1  0
 24 29  2  0
 24 23  1  0
 25 24  1  0
 26 27  1  0
 26 25  2  0
 27 28  2  0
 28 29  1  0
 29 21  1  0
 30 32  1  0
 31 30  2  0
M  END
$$$$
