PHW.pdb
     RDKit          3D

 32 35  0  0  1  0  0  0  0  0999 V2000
   28.8479  -22.1503  -17.5390 N   0  0  0  0  0  0  0  0  0  0  0  0
   29.2061  -22.6853  -18.8585 C   0  0  0  0  0  0  0  0  0  0  0  0
   29.5148  -21.4924  -19.7271 C   0  0  0  0  0  0  0  0  0  0  0  0
   29.3387  -20.2922  -18.7882 C   0  0  0  0  0  0  0  0  0  0  0  0
   29.6212  -20.9459  -17.4534 C   0  0  1  0  0  0  0  0  0  0  0  0
   29.1930  -20.0663  -16.3439 C   0  0  0  0  0  0  0  0  0  0  0  0
   29.5442  -18.8660  -16.2416 O   0  0  0  0  0  0  0  0  0  0  0  0
   28.3333  -20.5299  -15.2916 N   0  0  0  0  0  0  0  0  0  0  0  0
   27.1559  -19.8709  -14.8687 C   0  0  1  0  0  0  0  0  0  0  0  0
   26.3246  -19.1831  -15.8617 C   0  0  0  0  0  0  0  0  0  0  0  0
   25.0541  -18.6160  -15.4271 C   0  0  0  0  0  0  0  0  0  0  0  0
   24.4083  -18.5353  -14.2253 C   0  0  0  0  0  0  0  0  0  0  0  0
   23.2507  -17.8791  -14.3748 N   0  0  0  0  0  0  0  0  0  0  0  0
   23.1418  -17.5358  -15.6542 C   0  0  0  0  0  0  0  0  0  0  0  0
   24.2254  -17.9736  -16.3079 N   0  0  0  0  0  0  0  0  0  0  0  0
   26.3675  -20.8391  -14.0279 C   0  0  0  0  0  0  0  0  0  0  0  0
   26.2638  -22.0536  -14.3553 O   0  0  0  0  0  0  0  0  0  0  0  0
   25.7018  -20.4610  -12.8361 N   0  0  0  0  0  0  0  0  0  0  0  0
   25.1858  -21.4141  -11.8661 C   0  0  1  0  0  0  0  0  0  0  0  0
   26.2246  -21.8543  -10.8915 C   0  0  0  0  0  0  0  0  0  0  0  0
   26.4247  -20.9160   -9.7644 C   0  0  0  0  0  0  0  0  0  0  0  0
   25.5285  -19.9745   -9.2973 C   0  0  0  0  0  0  0  0  0  0  0  0
   26.1020  -19.3357   -8.2628 N   0  0  0  0  0  0  0  0  0  0  0  0
   27.3321  -19.8014   -8.0163 C   0  0  0  0  0  0  0  0  0  0  0  0
   28.2791  -19.4580   -7.0754 C   0  0  0  0  0  0  0  0  0  0  0  0
   29.4785  -20.1358   -7.0781 C   0  0  0  0  0  0  0  0  0  0  0  0
   29.7156  -21.1258   -7.9972 C   0  0  0  0  0  0  0  0  0  0  0  0
   28.7426  -21.4569   -8.9406 C   0  0  0  0  0  0  0  0  0  0  0  0
   27.5475  -20.7987   -8.9565 C   0  0  0  0  0  0  0  0  0  0  0  0
   24.0533  -20.8247  -11.0917 C   0  0  0  0  0  0  0  0  0  0  0  0
   23.3766  -21.5641  -10.3400 O   0  0  0  0  0  0  0  0  0  0  0  0
   23.7292  -19.4843  -11.1796 O   0  0  0  0  0  0  0  0  0  0  0  0
  1  2  1  0
  3  2  1  0
  4  3  1  0
  5  4  1  0
  5  1  1  0
  6  7  2  0
  5  6  1  1
  8  6  1  0
  9  8  1  0
 10 11  1  0
  9 10  1  6
 11 15  1  0
 12 11  2  0
 12 13  1  0
 13 14  1  0
 15 14  2  0
 16 18  1  0
 16  9  1  0
 17 16  2  0
 19 18  1  0
 19 30  1  0
 19 20  1  1
 21 22  2  0
 21 20  1  0
 23 22  1  0
 24 29  2  0
 24 23  1  0
 25 24  1  0
 26 27  1  0
 26 25  2  0
 27 28  2  0
 28 29  1  0
 29 21  1  0
 30 32  1  0
 31 30  2  0
M  END
$$$$
