PHW.pdb
     RDKit          3D

 32 35  0  0  1  0  0  0  0  0999 V2000
   28.0053  -20.3896  -15.4556 N   0  0  0  0  0  0  0  0  0  0  0  0
   28.7615  -20.0501  -16.6675 C   0  0  0  0  0  0  0  0  0  0  0  0
   28.6361  -18.5575  -16.8380 C   0  0  0  0  0  0  0  0  0  0  0  0
   27.8028  -18.1130  -15.6292 C   0  0  0  0  0  0  0  0  0  0  0  0
   28.1385  -19.2133  -14.6466 C   0  0  1  0  0  0  0  0  0  0  0  0
   27.1994  -19.1929  -13.5040 C   0  0  0  0  0  0  0  0  0  0  0  0
   27.0389  -18.1937  -12.7621 O   0  0  0  0  0  0  0  0  0  0  0  0
   26.3940  -20.3302  -13.1586 N   0  0  0  0  0  0  0  0  0  0  0  0
   25.3568  -20.3165  -12.1977 C   0  0  1  0  0  0  0  0  0  0  0  0
   23.9854  -20.6182  -12.6204 C   0  0  0  0  0  0  0  0  0  0  0  0
   23.3182  -19.6864  -13.5210 C   0  0  0  0  0  0  0  0  0  0  0  0
   22.4993  -18.6073  -13.3397 C   0  0  0  0  0  0  0  0  0  0  0  0
   22.1734  -18.0797  -14.5265 N   0  0  0  0  0  0  0  0  0  0  0  0
   22.7703  -18.8025  -15.4688 C   0  0  0  0  0  0  0  0  0  0  0  0
   23.4689  -19.7809  -14.8788 N   0  0  0  0  0  0  0  0  0  0  0  0
   25.8008  -21.1623  -11.0343 C   0  0  0  0  0  0  0  0  0  0  0  0
   26.5996  -22.1261  -11.1955 O   0  0  0  0  0  0  0  0  0  0  0  0
   25.3615  -20.9388   -9.7063 N   0  0  0  0  0  0  0  0  0  0  0  0
   25.8286  -21.7091   -8.5644 C   0  0  1  0  0  0  0  0  0  0  0  0
   27.2387  -21.3902   -8.2002 C   0  0  0  0  0  0  0  0  0  0  0  0
   27.3831  -20.1700   -7.3748 C   0  0  0  0  0  0  0  0  0  0  0  0
   26.8404  -18.9255   -7.6288 C   0  0  0  0  0  0  0  0  0  0  0  0
   27.2120  -18.1019   -6.6334 N   0  0  0  0  0  0  0  0  0  0  0  0
   27.9730  -18.7314   -5.7305 C   0  0  0  0  0  0  0  0  0  0  0  0
   28.5736  -18.3010   -4.5669 C   0  0  0  0  0  0  0  0  0  0  0  0
   29.3123  -19.2080   -3.8389 C   0  0  0  0  0  0  0  0  0  0  0  0
   29.4413  -20.5040   -4.2685 C   0  0  0  0  0  0  0  0  0  0  0  0
   28.8246  -20.9178   -5.4496 C   0  0  0  0  0  0  0  0  0  0  0  0
   28.0883  -20.0366   -6.1866 C   0  0  0  0  0  0  0  0  0  0  0  0
   24.9774  -21.4515   -7.3649 C   0  0  0  0  0  0  0  0  0  0  0  0
   24.0532  -20.6090   -7.4408 O   0  0  0  0  0  0  0  0  0  0  0  0
   25.1793  -22.1171   -6.1708 O   0  0  0  0  0  0  0  0  0  0  0  0
  1  2  1  0
  3  2  1  0
  4  3  1  0
  5  4  1  0
  5  1  1  0
  6  7  2  0
  5  6  1  1
  8  6  1  0
  9  8  1  0
 10 11  1  0
  9 10  1  6
 11 15  1  0
 12 11  2  0
 12 13  1  0
 13 14  1  0
 15 14  2  0
 16 18  1  0
 16  9  1  0
 17 16  2  0
 19 18  1  0
 19 30  1  0
 19 20  1  1
 21 22  2  0
 21 20  1  0
 23 22  1  0
 24 29  2  0
 24 23  1  0
 25 24  1  0
 26 27  1  0
 26 25  2  0
 27 28  2  0
 28 29  1  0
 29 21  1  0
 30 32  1  0
 31 30  2  0
M  END
$$$$
