PHW.pdb
     RDKit          3D

 32 35  0  0  1  0  0  0  0  0999 V2000
   32.1929  -31.9991  -23.6737 N   0  0  0  0  0  0  0  0  0  0  0  0
   33.3945  -32.8428  -23.6687 C   0  0  0  0  0  0  0  0  0  0  0  0
   34.0495  -32.6352  -22.3269 C   0  0  0  0  0  0  0  0  0  0  0  0
   33.1111  -31.6631  -21.6006 C   0  0  0  0  0  0  0  0  0  0  0  0
   31.8034  -31.9763  -22.2940 C   0  0  1  0  0  0  0  0  0  0  0  0
   30.7968  -30.9335  -21.9988 C   0  0  0  0  0  0  0  0  0  0  0  0
   30.7973  -29.8022  -22.5418 O   0  0  0  0  0  0  0  0  0  0  0  0
   29.7333  -31.1449  -21.0577 N   0  0  0  0  0  0  0  0  0  0  0  0
   28.7792  -30.1674  -20.6925 C   0  0  1  0  0  0  0  0  0  0  0  0
   27.4041  -30.2895  -21.1869 C   0  0  0  0  0  0  0  0  0  0  0  0
   26.6328  -31.4654  -20.8036 C   0  0  0  0  0  0  0  0  0  0  0  0
   26.8321  -32.4890  -19.9203 C   0  0  0  0  0  0  0  0  0  0  0  0
   25.7808  -33.3181  -19.9409 N   0  0  0  0  0  0  0  0  0  0  0  0
   24.9078  -32.8435  -20.8236 C   0  0  0  0  0  0  0  0  0  0  0  0
   25.4064  -31.7209  -21.3568 N   0  0  0  0  0  0  0  0  0  0  0  0
   28.8420  -30.0040  -19.1974 C   0  0  0  0  0  0  0  0  0  0  0  0
   28.9398  -31.0051  -18.4351 O   0  0  0  0  0  0  0  0  0  0  0  0
   28.7966  -28.7413  -18.5570 N   0  0  0  0  0  0  0  0  0  0  0  0
   29.0327  -28.5522  -17.1343 C   0  0  1  0  0  0  0  0  0  0  0  0
   29.2962  -27.1270  -16.7849 C   0  0  0  0  0  0  0  0  0  0  0  0
   28.1577  -26.2221  -17.0606 C   0  0  0  0  0  0  0  0  0  0  0  0
   27.1674  -25.8389  -16.1772 C   0  0  0  0  0  0  0  0  0  0  0  0
   26.3312  -25.0113  -16.8277 N   0  0  0  0  0  0  0  0  0  0  0  0
   26.7117  -24.8232  -18.0967 C   0  0  0  0  0  0  0  0  0  0  0  0
   26.1739  -24.0744  -19.1215 C   0  0  0  0  0  0  0  0  0  0  0  0
   26.8104  -24.0870  -20.3434 C   0  0  0  0  0  0  0  0  0  0  0  0
   27.9495  -24.8285  -20.5264 C   0  0  0  0  0  0  0  0  0  0  0  0
   28.4763  -25.5789  -19.4749 C   0  0  0  0  0  0  0  0  0  0  0  0
   27.8626  -25.5814  -18.2562 C   0  0  0  0  0  0  0  0  0  0  0  0
   27.8573  -29.0090  -16.3347 C   0  0  0  0  0  0  0  0  0  0  0  0
   27.9661  -29.1092  -15.0906 O   0  0  0  0  0  0  0  0  0  0  0  0
   26.6498  -29.3247  -16.9281 O   0  0  0  0  0  0  0  0  0  0  0  0
  1  2  1  0
  3  2  1  0
  4  3  1  0
  5  4  1  0
  5  1  1  0
  6  7  2  0
  5  6  1  6
  8  6  1  0
  9  8  1  0
 10 11  1  0
  9 10  1  1
 11 15  1  0
 12 11  2  0
 12 13  1  0
 13 14  1  0
 15 14  2  0
 16 18  1  0
 16  9  1  0
 17 16  2  0
 19 18  1  0
 19 30  1  0
 19 20  1  6
 21 22  2  0
 21 20  1  0
 23 22  1  0
 24 29  2  0
 24 23  1  0
 25 24  1  0
 26 27  1  0
 26 25  2  0
 27 28  2  0
 28 29  1  0
 29 21  1  0
 30 32  1  0
 31 30  2  0
M  END
$$$$
