PHW.pdb
     RDKit          3D

 32 35  0  0  1  0  0  0  0  0999 V2000
   27.7757  -19.3556  -18.7886 N   0  0  0  0  0  0  0  0  0  0  0  0
   28.2582  -19.1300  -20.1569 C   0  0  0  0  0  0  0  0  0  0  0  0
   29.4047  -18.1576  -20.0443 C   0  0  0  0  0  0  0  0  0  0  0  0
   29.5328  -17.9055  -18.5365 C   0  0  0  0  0  0  0  0  0  0  0  0
   28.9585  -19.1958  -17.9941 C   0  0  1  0  0  0  0  0  0  0  0  0
   28.6668  -19.0671  -16.5497 C   0  0  0  0  0  0  0  0  0  0  0  0
   29.5456  -18.8188  -15.6891 O   0  0  0  0  0  0  0  0  0  0  0  0
   27.3397  -19.2188  -16.0233 N   0  0  0  0  0  0  0  0  0  0  0  0
   26.9439  -18.8328  -14.7219 C   0  0  1  0  0  0  0  0  0  0  0  0
   26.1697  -17.6001  -14.5454 C   0  0  0  0  0  0  0  0  0  0  0  0
   24.9466  -17.4341  -15.3207 C   0  0  0  0  0  0  0  0  0  0  0  0
   23.6762  -17.9263  -15.2129 C   0  0  0  0  0  0  0  0  0  0  0  0
   22.9127  -17.4325  -16.1959 N   0  0  0  0  0  0  0  0  0  0  0  0
   23.6722  -16.6297  -16.9344 C   0  0  0  0  0  0  0  0  0  0  0  0
   24.9082  -16.6177  -16.4195 N   0  0  0  0  0  0  0  0  0  0  0  0
   26.2901  -20.0226  -14.0716 C   0  0  0  0  0  0  0  0  0  0  0  0
   25.5237  -20.7837  -14.7243 O   0  0  0  0  0  0  0  0  0  0  0  0
   26.4863  -20.3621  -12.7104 N   0  0  0  0  0  0  0  0  0  0  0  0
   25.8490  -21.4994  -12.0654 C   0  0  1  0  0  0  0  0  0  0  0  0
   26.6228  -21.9962  -10.8919 C   0  0  0  0  0  0  0  0  0  0  0  0
   26.7062  -21.0277   -9.7756 C   0  0  0  0  0  0  0  0  0  0  0  0
   25.7533  -20.0973   -9.4093 C   0  0  0  0  0  0  0  0  0  0  0  0
   26.2231  -19.4215   -8.3464 N   0  0  0  0  0  0  0  0  0  0  0  0
   27.4377  -19.8519   -7.9857 C   0  0  0  0  0  0  0  0  0  0  0  0
   28.2938  -19.4646   -6.9772 C   0  0  0  0  0  0  0  0  0  0  0  0
   29.5037  -20.1135   -6.8620 C   0  0  0  0  0  0  0  0  0  0  0  0
   29.8393  -21.1184   -7.7330 C   0  0  0  0  0  0  0  0  0  0  0  0
   28.9571  -21.4942   -8.7464 C   0  0  0  0  0  0  0  0  0  0  0  0
   27.7536  -20.8652   -8.8793 C   0  0  0  0  0  0  0  0  0  0  0  0
   24.4786  -21.1429  -11.5914 C   0  0  0  0  0  0  0  0  0  0  0  0
   23.7014  -22.0554  -11.2267 O   0  0  0  0  0  0  0  0  0  0  0  0
   24.0415  -19.8329  -11.5426 O   0  0  0  0  0  0  0  0  0  0  0  0
  1  2  1  0
  3  2  1  0
  4  3  1  0
  5  4  1  0
  5  1  1  0
  6  7  2  0
  5  6  1  1
  8  6  1  0
  9  8  1  0
 10 11  1  0
  9 10  1  6
 11 15  1  0
 12 11  2  0
 12 13  1  0
 13 14  1  0
 15 14  2  0
 16 18  1  0
 16  9  1  0
 17 16  2  0
 19 18  1  0
 19 30  1  0
 19 20  1  1
 21 22  2  0
 21 20  1  0
 23 22  1  0
 24 29  2  0
 24 23  1  0
 25 24  1  0
 26 27  1  0
 26 25  2  0
 27 28  2  0
 28 29  1  0
 29 21  1  0
 30 32  1  0
 31 30  2  0
M  END
$$$$
