PHW.pdb
     RDKit          3D

 32 35  0  0  1  0  0  0  0  0999 V2000
   23.9103  -19.5560  -21.6587 N   0  0  0  0  0  0  0  0  0  0  0  0
   24.9169  -19.7400  -22.7116 C   0  0  0  0  0  0  0  0  0  0  0  0
   25.2227  -18.3644  -23.2471 C   0  0  0  0  0  0  0  0  0  0  0  0
   24.3521  -17.4312  -22.3961 C   0  0  0  0  0  0  0  0  0  0  0  0
   24.2179  -18.2569  -21.1356 C   0  0  1  0  0  0  0  0  0  0  0  0
   23.1446  -17.7165  -20.2730 C   0  0  0  0  0  0  0  0  0  0  0  0
   23.2634  -16.6604  -19.6058 O   0  0  0  0  0  0  0  0  0  0  0  0
   21.8738  -18.3705  -20.1369 N   0  0  0  0  0  0  0  0  0  0  0  0
   20.7878  -17.8650  -19.3856 C   0  0  1  0  0  0  0  0  0  0  0  0
   19.5149  -17.5935  -20.0610 C   0  0  0  0  0  0  0  0  0  0  0  0
   19.4824  -16.5568  -21.0851 C   0  0  0  0  0  0  0  0  0  0  0  0
   20.2208  -15.4323  -21.3262 C   0  0  0  0  0  0  0  0  0  0  0  0
   19.7790  -14.8279  -22.4363 N   0  0  0  0  0  0  0  0  0  0  0  0
   18.7678  -15.5464  -22.9137 C   0  0  0  0  0  0  0  0  0  0  0  0
   18.5732  -16.5984  -22.1083 N   0  0  0  0  0  0  0  0  0  0  0  0
   20.6221  -18.7436  -18.1745 C   0  0  0  0  0  0  0  0  0  0  0  0
   20.6084  -20.0013  -18.2778 O   0  0  0  0  0  0  0  0  0  0  0  0
   20.4731  -18.2292  -16.8631 N   0  0  0  0  0  0  0  0  0  0  0  0
   20.3701  -19.0660  -15.6779 C   0  0  1  0  0  0  0  0  0  0  0  0
   21.3993  -18.7309  -14.6526 C   0  0  0  0  0  0  0  0  0  0  0  0
   21.5395  -17.2797  -14.3964 C   0  0  0  0  0  0  0  0  0  0  0  0
   20.5739  -16.4261  -13.8997 C   0  0  0  0  0  0  0  0  0  0  0  0
   21.1114  -15.1966  -13.8192 N   0  0  0  0  0  0  0  0  0  0  0  0
   22.3830  -15.1859  -14.2358 C   0  0  0  0  0  0  0  0  0  0  0  0
   23.3153  -14.1753  -14.3332 C   0  0  0  0  0  0  0  0  0  0  0  0
   24.5687  -14.4867  -14.8132 C   0  0  0  0  0  0  0  0  0  0  0  0
   24.8722  -15.7722  -15.1823 C   0  0  0  0  0  0  0  0  0  0  0  0
   23.9129  -16.7795  -15.0751 C   0  0  0  0  0  0  0  0  0  0  0  0
   22.6651  -16.4939  -14.6025 C   0  0  0  0  0  0  0  0  0  0  0  0
   19.0271  -18.9233  -15.0411 C   0  0  0  0  0  0  0  0  0  0  0  0
   18.2865  -17.9724  -15.3830 O   0  0  0  0  0  0  0  0  0  0  0  0
   18.5759  -19.8118  -14.0836 O   0  0  0  0  0  0  0  0  0  0  0  0
  1  2  1  0
  3  2  1  0
  4  3  1  0
  5  4  1  0
  5  1  1  0
  6  7  2  0
  5  6  1  1
  8  6  1  0
  9  8  1  0
 10 11  1  0
  9 10  1  6
 11 15  1  0
 12 11  2  0
 12 13  1  0
 13 14  1  0
 15 14  2  0
 16 18  1  0
 16  9  1  0
 17 16  2  0
 19 18  1  0
 19 30  1  0
 19 20  1  1
 21 22  2  0
 21 20  1  0
 23 22  1  0
 24 29  2  0
 24 23  1  0
 25 24  1  0
 26 27  1  0
 26 25  2  0
 27 28  2  0
 28 29  1  0
 29 21  1  0
 30 32  1  0
 31 30  2  0
M  END
$$$$
