PHW.pdb
     RDKit          3D

 32 35  0  0  1  0  0  0  0  0999 V2000
   27.8310  -22.4602  -16.3659 N   0  0  0  0  0  0  0  0  0  0  0  0
   28.0592  -22.9291  -17.7385 C   0  0  0  0  0  0  0  0  0  0  0  0
   28.4318  -21.7102  -18.5436 C   0  0  0  0  0  0  0  0  0  0  0  0
   28.4274  -20.5701  -17.5173 C   0  0  0  0  0  0  0  0  0  0  0  0
   28.7213  -21.3422  -16.2499 C   0  0  1  0  0  0  0  0  0  0  0  0
   28.4451  -20.5095  -15.0591 C   0  0  0  0  0  0  0  0  0  0  0  0
   29.0347  -19.4271  -14.8237 O   0  0  0  0  0  0  0  0  0  0  0  0
   27.4693  -20.8855  -14.0753 N   0  0  0  0  0  0  0  0  0  0  0  0
   27.0313  -20.0521  -13.0204 C   0  0  1  0  0  0  0  0  0  0  0  0
   25.9788  -19.0642  -13.2785 C   0  0  0  0  0  0  0  0  0  0  0  0
   24.8708  -19.4442  -14.1460 C   0  0  0  0  0  0  0  0  0  0  0  0
   24.5200  -20.5949  -14.7946 C   0  0  0  0  0  0  0  0  0  0  0  0
   23.3713  -20.4106  -15.4576 N   0  0  0  0  0  0  0  0  0  0  0  0
   22.9773  -19.1592  -15.2453 C   0  0  0  0  0  0  0  0  0  0  0  0
   23.8732  -18.5575  -14.4525 N   0  0  0  0  0  0  0  0  0  0  0  0
   26.7177  -20.9341  -11.8416 C   0  0  0  0  0  0  0  0  0  0  0  0
   27.1538  -22.1167  -11.7772 O   0  0  0  0  0  0  0  0  0  0  0  0
   25.9278  -20.5058  -10.7465 N   0  0  0  0  0  0  0  0  0  0  0  0
   25.7113  -21.3043   -9.5502 C   0  0  1  0  0  0  0  0  0  0  0  0
   26.9564  -21.4797   -8.7491 C   0  0  0  0  0  0  0  0  0  0  0  0
   27.2793  -20.3237   -7.8828 C   0  0  0  0  0  0  0  0  0  0  0  0
   26.7981  -19.0346   -8.0030 C   0  0  0  0  0  0  0  0  0  0  0  0
   27.3384  -18.2983   -7.0166 N   0  0  0  0  0  0  0  0  0  0  0  0
   28.1536  -19.0280   -6.2462 C   0  0  0  0  0  0  0  0  0  0  0  0
   28.9133  -18.7080   -5.1415 C   0  0  0  0  0  0  0  0  0  0  0  0
   29.6670  -19.7021   -4.5567 C   0  0  0  0  0  0  0  0  0  0  0  0
   29.6556  -20.9748   -5.0674 C   0  0  0  0  0  0  0  0  0  0  0  0
   28.8791  -21.2763   -6.1866 C   0  0  0  0  0  0  0  0  0  0  0  0
   28.1249  -20.3075   -6.7820 C   0  0  0  0  0  0  0  0  0  0  0  0
   24.6853  -20.6731   -8.6679 C   0  0  0  0  0  0  0  0  0  0  0  0
   24.2180  -19.5529   -8.9783 O   0  0  0  0  0  0  0  0  0  0  0  0
   24.2346  -21.2899   -7.5163 O   0  0  0  0  0  0  0  0  0  0  0  0
  1  2  1  0
  3  2  1  0
  4  3  1  0
  5  4  1  0
  5  1  1  0
  6  7  2  0
  5  6  1  1
  8  6  1  0
  9  8  1  0
 10 11  1  0
  9 10  1  6
 11 15  1  0
 12 11  2  0
 12 13  1  0
 13 14  1  0
 15 14  2  0
 16 18  1  0
 16  9  1  0
 17 16  2  0
 19 18  1  0
 19 30  1  0
 19 20  1  1
 21 22  2  0
 21 20  1  0
 23 22  1  0
 24 29  2  0
 24 23  1  0
 25 24  1  0
 26 27  1  0
 26 25  2  0
 27 28  2  0
 28 29  1  0
 29 21  1  0
 30 32  1  0
 31 30  2  0
M  END
$$$$
