PHW.pdb
     RDKit          3D

 32 35  0  0  1  0  0  0  0  0999 V2000
   29.4860  -23.5897  -18.2870 N   0  0  0  0  0  0  0  0  0  0  0  0
   30.4548  -24.3383  -19.0975 C   0  0  0  0  0  0  0  0  0  0  0  0
   31.8017  -24.1124  -18.4591 C   0  0  0  0  0  0  0  0  0  0  0  0
   31.4939  -23.2329  -17.2406 C   0  0  0  0  0  0  0  0  0  0  0  0
   30.0586  -23.6296  -16.9731 C   0  0  1  0  0  0  0  0  0  0  0  0
   29.4217  -22.6747  -16.0400 C   0  0  0  0  0  0  0  0  0  0  0  0
   29.7407  -22.5770  -14.8304 O   0  0  0  0  0  0  0  0  0  0  0  0
   28.3797  -21.7800  -16.4582 N   0  0  0  0  0  0  0  0  0  0  0  0
   27.9209  -20.6749  -15.7047 C   0  0  1  0  0  0  0  0  0  0  0  0
   27.6247  -19.4137  -16.3916 C   0  0  0  0  0  0  0  0  0  0  0  0
   27.0263  -18.3303  -15.6215 C   0  0  0  0  0  0  0  0  0  0  0  0
   26.6697  -18.1770  -14.3111 C   0  0  0  0  0  0  0  0  0  0  0  0
   26.1687  -16.9505  -14.1171 N   0  0  0  0  0  0  0  0  0  0  0  0
   26.1979  -16.3119  -15.2825 C   0  0  0  0  0  0  0  0  0  0  0  0
   26.7145  -17.1320  -16.2064 N   0  0  0  0  0  0  0  0  0  0  0  0
   26.7761  -21.1487  -14.8498 C   0  0  0  0  0  0  0  0  0  0  0  0
   25.8104  -21.7897  -15.3492 O   0  0  0  0  0  0  0  0  0  0  0  0
   26.7058  -20.9122  -13.4549 N   0  0  0  0  0  0  0  0  0  0  0  0
   25.6941  -21.4983  -12.5898 C   0  0  1  0  0  0  0  0  0  0  0  0
   26.2828  -22.1513  -11.3858 C   0  0  0  0  0  0  0  0  0  0  0  0
   26.3654  -21.2647  -10.2034 C   0  0  0  0  0  0  0  0  0  0  0  0
   25.3699  -20.4459   -9.7071 C   0  0  0  0  0  0  0  0  0  0  0  0
   25.8560  -19.8142   -8.6246 N   0  0  0  0  0  0  0  0  0  0  0  0
   27.1217  -20.1685   -8.3737 C   0  0  0  0  0  0  0  0  0  0  0  0
   28.0109  -19.7875   -7.3917 C   0  0  0  0  0  0  0  0  0  0  0  0
   29.2725  -20.3412   -7.4022 C   0  0  0  0  0  0  0  0  0  0  0  0
   29.6260  -21.2475   -8.3689 C   0  0  0  0  0  0  0  0  0  0  0  0
   28.7097  -21.6187   -9.3533 C   0  0  0  0  0  0  0  0  0  0  0  0
   27.4548  -21.0831   -9.3624 C   0  0  0  0  0  0  0  0  0  0  0  0
   24.7289  -20.4601  -12.1207 C   0  0  0  0  0  0  0  0  0  0  0  0
   25.0675  -19.2541  -12.1477 O   0  0  0  0  0  0  0  0  0  0  0  0
   23.4699  -20.7911  -11.6570 O   0  0  0  0  0  0  0  0  0  0  0  0
  1  2  1  0
  3  2  1  0
  4  3  1  0
  5  4  1  0
  5  1  1  0
  6  7  2  0
  5  6  1  1
  8  6  1  0
  9  8  1  0
 10 11  1  0
  9 10  1  6
 11 15  1  0
 12 11  2  0
 12 13  1  0
 13 14  1  0
 15 14  2  0
 16 18  1  0
 16  9  1  0
 17 16  2  0
 19 18  1  0
 19 30  1  0
 19 20  1  1
 21 22  2  0
 21 20  1  0
 23 22  1  0
 24 29  2  0
 24 23  1  0
 25 24  1  0
 26 27  1  0
 26 25  2  0
 27 28  2  0
 28 29  1  0
 29 21  1  0
 30 32  1  0
 31 30  2  0
M  END
$$$$
