WNS.pdb
     RDKit          3D

 29 30  0  0  1  0  0  0  0  0999 V2000
    8.7750  -15.4516   24.2913 N   0  0  0  0  0  0  0  0  0  0  0  0
    7.8833  -16.2224   23.4015 C   0  0  1  0  0  0  0  0  0  0  0  0
    6.5054  -15.9698   23.8729 C   0  0  0  0  0  0  0  0  0  0  0  0
    6.4380  -15.3908   25.2228 C   0  0  0  0  0  0  0  0  0  0  0  0
    6.2254  -16.1232   26.3867 C   0  0  0  0  0  0  0  0  0  0  0  0
    6.2198  -15.2377   27.3864 N   0  0  0  0  0  0  0  0  0  0  0  0
    6.4195  -13.9813   26.9202 C   0  0  0  0  0  0  0  0  0  0  0  0
    6.5129  -12.7429   27.5158 C   0  0  0  0  0  0  0  0  0  0  0  0
    6.7406  -11.6153   26.7568 C   0  0  0  0  0  0  0  0  0  0  0  0
    6.8845  -11.6681   25.3776 C   0  0  0  0  0  0  0  0  0  0  0  0
    6.7895  -12.9083   24.7939 C   0  0  0  0  0  0  0  0  0  0  0  0
    6.5605  -14.0539   25.5576 C   0  0  0  0  0  0  0  0  0  0  0  0
    8.2145  -15.9039   22.0246 C   0  0  0  0  0  0  0  0  0  0  0  0
    8.0705  -16.8262   21.1472 O   0  0  0  0  0  0  0  0  0  0  0  0
    7.3091  -12.4432   18.8406 N   0  0  0  0  0  0  0  0  0  0  0  0
    8.6399  -12.9478   18.6686 C   0  0  0  0  0  0  0  0  0  0  0  0
    9.0864  -13.2120   17.5206 O   0  0  0  0  0  0  0  0  0  0  0  0
    9.5187  -13.1693   19.8182 C   0  0  0  0  0  0  0  0  0  0  0  0
    9.5439  -14.6089   20.3086 C   0  0  2  0  0  0  0  0  0  0  0  0
    8.6833  -14.6790   21.5134 N   0  0  0  0  0  0  0  0  0  0  0  0
   10.8898  -15.1040   20.5976 C   0  0  0  0  0  0  0  0  0  0  0  0
   11.7462  -15.0605   19.6330 O   0  0  0  0  0  0  0  0  0  0  0  0
   11.8991  -16.9874   24.0186 O   0  0  0  0  0  0  0  0  0  0  0  0
   13.0422  -16.6366   23.3347 C   0  0  0  0  0  0  0  0  0  0  0  0
   12.7410  -16.2175   21.8835 C   0  0  2  0  0  0  0  0  0  0  0  0
   11.4017  -15.6299   21.7944 N   0  0  0  0  0  0  0  0  0  0  0  0
   12.7744  -17.4452   21.0985 C   0  0  0  0  0  0  0  0  0  0  0  0
   13.9341  -18.1444   20.9007 O   0  0  0  0  0  0  0  0  0  0  0  0
   11.7151  -17.8796   20.5894 O   0  0  0  0  0  0  0  0  0  0  0  0
  2  1  1  1
  2 13  1  0
  3  2  1  0
  3  4  1  0
  4 12  1  0
  4  5  2  0
  5  6  1  0
  7  8  2  0
  7  6  1  0
  9  8  1  0
 10  9  2  0
 11 10  1  0
 11 12  2  0
 12  7  1  0
 13 20  1  0
 13 14  2  0
 15 16  1  0
 16 18  1  0
 17 16  2  0
 19 18  1  1
 19 21  1  0
 20 19  1  0
 21 26  1  0
 21 22  2  0
 25 24  1  1
 24 23  1  0
 25 27  1  0
 26 25  1  0
 27 28  1  0
 29 27  2  0
M  END
$$$$
