WNS.pdb
     RDKit          3D

 29 30  0  0  1  0  0  0  0  0999 V2000
    9.2916  -15.9191   21.9992 N   0  0  0  0  0  0  0  0  0  0  0  0
    9.1863  -15.9299   23.4722 C   0  0  1  0  0  0  0  0  0  0  0  0
    7.7503  -15.7787   23.7878 C   0  0  0  0  0  0  0  0  0  0  0  0
    7.2532  -14.4028   23.6405 C   0  0  0  0  0  0  0  0  0  0  0  0
    6.7055  -13.8817   22.4723 C   0  0  0  0  0  0  0  0  0  0  0  0
    6.3924  -12.6121   22.7435 N   0  0  0  0  0  0  0  0  0  0  0  0
    6.7101  -12.2988   24.0229 C   0  0  0  0  0  0  0  0  0  0  0  0
    6.5858  -11.1607   24.7887 C   0  0  0  0  0  0  0  0  0  0  0  0
    6.9995  -11.1517   26.1034 C   0  0  0  0  0  0  0  0  0  0  0  0
    7.5532  -12.2688   26.7127 C   0  0  0  0  0  0  0  0  0  0  0  0
    7.6725  -13.3984   25.9395 C   0  0  0  0  0  0  0  0  0  0  0  0
    7.2540  -13.4138   24.6081 C   0  0  0  0  0  0  0  0  0  0  0  0
    9.8886  -17.0949   23.9784 C   0  0  0  0  0  0  0  0  0  0  0  0
    9.1997  -17.9943   24.5766 O   0  0  0  0  0  0  0  0  0  0  0  0
   15.3601  -19.8194   24.7968 N   0  0  0  0  0  0  0  0  0  0  0  0
   13.9689  -19.9195   24.4658 C   0  0  0  0  0  0  0  0  0  0  0  0
   13.3404  -20.9975   24.6388 O   0  0  0  0  0  0  0  0  0  0  0  0
   13.2376  -18.7748   23.9200 C   0  0  0  0  0  0  0  0  0  0  0  0
   11.8683  -18.5603   24.5465 C   0  0  2  0  0  0  0  0  0  0  0  0
   11.2656  -17.3744   23.8928 N   0  0  0  0  0  0  0  0  0  0  0  0
   11.9105  -18.3920   25.9991 C   0  0  0  0  0  0  0  0  0  0  0  0
   12.4806  -17.3236   26.4454 O   0  0  0  0  0  0  0  0  0  0  0  0
    9.3774  -19.5621   28.8885 O   0  0  0  0  0  0  0  0  0  0  0  0
   10.3885  -18.6711   29.1736 C   0  0  0  0  0  0  0  0  0  0  0  0
   11.6894  -19.0154   28.4246 C   0  0  2  0  0  0  0  0  0  0  0  0
   11.4113  -19.2367   27.0032 N   0  0  0  0  0  0  0  0  0  0  0  0
   12.1721  -20.2583   29.0134 C   0  0  0  0  0  0  0  0  0  0  0  0
   12.6103  -20.3213   30.3084 O   0  0  0  0  0  0  0  0  0  0  0  0
   12.1868  -21.3026   28.3212 O   0  0  0  0  0  0  0  0  0  0  0  0
  2  1  1  6
  2 13  1  0
  3  2  1  0
  3  4  1  0
  4 12  1  0
  4  5  2  0
  5  6  1  0
  7  8  2  0
  7  6  1  0
  9  8  1  0
 10  9  2  0
 11 10  1  0
 11 12  2  0
 12  7  1  0
 13 20  1  0
 13 14  2  0
 15 16  1  0
 16 18  1  0
 17 16  2  0
 19 18  1  6
 19 21  1  0
 20 19  1  0
 21 26  1  0
 21 22  2  0
 25 24  1  1
 24 23  1  0
 25 27  1  0
 26 25  1  0
 27 28  1  0
 29 27  2  0
M  END
$$$$
