WNS.pdb
     RDKit          3D

 29 30  0  0  1  0  0  0  0  0999 V2000
    6.2334  -18.0230   24.0083 N   0  0  0  0  0  0  0  0  0  0  0  0
    6.8202  -16.6711   23.9144 C   0  0  1  0  0  0  0  0  0  0  0  0
    7.2982  -16.3298   25.2707 C   0  0  0  0  0  0  0  0  0  0  0  0
    6.6532  -15.1391   25.8438 C   0  0  0  0  0  0  0  0  0  0  0  0
    5.3939  -15.1308   26.4359 C   0  0  0  0  0  0  0  0  0  0  0  0
    5.1698  -13.8696   26.8133 N   0  0  0  0  0  0  0  0  0  0  0  0
    6.2204  -13.0758   26.4944 C   0  0  0  0  0  0  0  0  0  0  0  0
    6.4969  -11.7377   26.6689 C   0  0  0  0  0  0  0  0  0  0  0  0
    7.6932  -11.2069   26.2373 C   0  0  0  0  0  0  0  0  0  0  0  0
    8.6639  -11.9790   25.6150 C   0  0  0  0  0  0  0  0  0  0  0  0
    8.3778  -13.3122   25.4460 C   0  0  0  0  0  0  0  0  0  0  0  0
    7.1685  -13.8557   25.8824 C   0  0  0  0  0  0  0  0  0  0  0  0
    7.7725  -16.6544   22.8190 C   0  0  0  0  0  0  0  0  0  0  0  0
    8.4171  -17.7336   22.5717 O   0  0  0  0  0  0  0  0  0  0  0  0
    6.9260  -13.3025   19.4518 N   0  0  0  0  0  0  0  0  0  0  0  0
    7.8937  -14.3450   19.2731 C   0  0  0  0  0  0  0  0  0  0  0  0
    7.7324  -15.2309   18.3920 O   0  0  0  0  0  0  0  0  0  0  0  0
    9.0961  -14.4109   20.1054 C   0  0  0  0  0  0  0  0  0  0  0  0
    9.1808  -15.6585   20.9714 C   0  0  2  0  0  0  0  0  0  0  0  0
    8.0864  -15.5781   21.9678 N   0  0  0  0  0  0  0  0  0  0  0  0
   10.4765  -15.8257   21.6297 C   0  0  0  0  0  0  0  0  0  0  0  0
   10.9625  -14.7919   22.2304 O   0  0  0  0  0  0  0  0  0  0  0  0
   11.9592  -19.1616   23.1171 O   0  0  0  0  0  0  0  0  0  0  0  0
   12.6600  -18.0271   23.4627 C   0  0  0  0  0  0  0  0  0  0  0  0
   12.6013  -16.9540   22.3594 C   0  0  2  0  0  0  0  0  0  0  0  0
   11.2884  -16.9683   21.7092 N   0  0  0  0  0  0  0  0  0  0  0  0
   13.6183  -17.3280   21.3844 C   0  0  0  0  0  0  0  0  0  0  0  0
   14.9416  -17.4210   21.7210 O   0  0  0  0  0  0  0  0  0  0  0  0
   13.2785  -17.5747   20.2040 O   0  0  0  0  0  0  0  0  0  0  0  0
  2  1  1  1
  2 13  1  0
  3  2  1  0
  3  4  1  0
  4 12  1  0
  4  5  2  0
  5  6  1  0
  7  8  2  0
  7  6  1  0
  9  8  1  0
 10  9  2  0
 11 10  1  0
 11 12  2  0
 12  7  1  0
 13 20  1  0
 13 14  2  0
 15 16  1  0
 16 18  1  0
 17 16  2  0
 19 18  1  1
 19 21  1  0
 20 19  1  0
 21 26  1  0
 21 22  2  0
 25 24  1  1
 24 23  1  0
 25 27  1  0
 26 25  1  0
 27 28  1  0
 29 27  2  0
M  END
$$$$
