WNS.pdb
     RDKit          3D

 29 30  0  0  1  0  0  0  0  0999 V2000
    7.1944  -17.3991   23.6868 N   0  0  0  0  0  0  0  0  0  0  0  0
    8.2553  -16.3788   23.5672 C   0  0  1  0  0  0  0  0  0  0  0  0
    8.5479  -15.9196   24.9413 C   0  0  0  0  0  0  0  0  0  0  0  0
    7.4733  -15.1122   25.5373 C   0  0  0  0  0  0  0  0  0  0  0  0
    6.3031  -15.6328   26.0815 C   0  0  0  0  0  0  0  0  0  0  0  0
    5.5904  -14.5843   26.5009 N   0  0  0  0  0  0  0  0  0  0  0  0
    6.2461  -13.4245   26.2542 C   0  0  0  0  0  0  0  0  0  0  0  0
    5.9662  -12.0972   26.4931 C   0  0  0  0  0  0  0  0  0  0  0  0
    6.8619  -11.1152   26.1286 C   0  0  0  0  0  0  0  0  0  0  0  0
    8.0706  -11.4075   25.5126 C   0  0  0  0  0  0  0  0  0  0  0  0
    8.3395  -12.7346   25.2791 C   0  0  0  0  0  0  0  0  0  0  0  0
    7.4368  -13.7334   25.6473 C   0  0  0  0  0  0  0  0  0  0  0  0
    9.3397  -16.9285   22.7742 C   0  0  0  0  0  0  0  0  0  0  0  0
    9.6407  -18.1617   22.9477 O   0  0  0  0  0  0  0  0  0  0  0  0
   10.9309  -17.4457   18.3513 N   0  0  0  0  0  0  0  0  0  0  0  0
   10.9901  -16.1869   19.0348 C   0  0  0  0  0  0  0  0  0  0  0  0
   10.2706  -15.2197   18.6690 O   0  0  0  0  0  0  0  0  0  0  0  0
   11.8846  -15.9881   20.1764 C   0  0  0  0  0  0  0  0  0  0  0  0
   11.4704  -16.7497   21.4262 C   0  0  2  0  0  0  0  0  0  0  0  0
   10.1231  -16.2658   21.8106 N   0  0  0  0  0  0  0  0  0  0  0  0
   12.4133  -16.6084   22.5357 C   0  0  0  0  0  0  0  0  0  0  0  0
   13.2093  -15.5931   22.4980 O   0  0  0  0  0  0  0  0  0  0  0  0
   12.6474  -19.1525   25.6692 O   0  0  0  0  0  0  0  0  0  0  0  0
   13.2922  -17.9705   25.9603 C   0  0  0  0  0  0  0  0  0  0  0  0
   13.5869  -17.1466   24.6928 C   0  0  2  0  0  0  0  0  0  0  0  0
   12.5853  -17.4292   23.6615 N   0  0  0  0  0  0  0  0  0  0  0  0
   14.8925  -17.5919   24.2218 C   0  0  0  0  0  0  0  0  0  0  0  0
   16.0317  -17.3876   24.9521 O   0  0  0  0  0  0  0  0  0  0  0  0
   14.9813  -18.1809   23.1195 O   0  0  0  0  0  0  0  0  0  0  0  0
  2  1  1  1
  2 13  1  0
  3  2  1  0
  3  4  1  0
  4 12  1  0
  4  5  2  0
  5  6  1  0
  7  8  2  0
  7  6  1  0
  9  8  1  0
 10  9  2  0
 11 10  1  0
 11 12  2  0
 12  7  1  0
 13 20  1  0
 13 14  2  0
 15 16  1  0
 16 18  1  0
 17 16  2  0
 19 18  1  6
 19 21  1  0
 20 19  1  0
 21 26  1  0
 21 22  2  0
 25 24  1  1
 24 23  1  0
 25 27  1  0
 26 25  1  0
 27 28  1  0
 29 27  2  0
M  END
$$$$
