WNS.pdb
     RDKit          3D

 29 30  0  0  1  0  0  0  0  0999 V2000
   10.0073  -17.6327   19.9859 N   0  0  0  0  0  0  0  0  0  0  0  0
   10.7612  -16.3819   20.2045 C   0  0  1  0  0  0  0  0  0  0  0  0
   10.2582  -15.8086   21.4706 C   0  0  0  0  0  0  0  0  0  0  0  0
    8.9232  -15.2028   21.3573 C   0  0  0  0  0  0  0  0  0  0  0  0
    7.7880  -15.6639   22.0169 C   0  0  0  0  0  0  0  0  0  0  0  0
    6.7896  -14.8595   21.6436 N   0  0  0  0  0  0  0  0  0  0  0  0
    7.2299  -13.9100   20.7831 C   0  0  0  0  0  0  0  0  0  0  0  0
    6.6282  -12.8580   20.1287 C   0  0  0  0  0  0  0  0  0  0  0  0
    7.3622  -12.0332   19.3039 C   0  0  0  0  0  0  0  0  0  0  0  0
    8.7216  -12.2168   19.0934 C   0  0  0  0  0  0  0  0  0  0  0  0
    9.3116  -13.2692   19.7510 C   0  0  0  0  0  0  0  0  0  0  0  0
    8.5735  -14.1069   20.5885 C   0  0  0  0  0  0  0  0  0  0  0  0
   12.1793  -16.6693   20.0886 C   0  0  0  0  0  0  0  0  0  0  0  0
   12.5879  -17.8225   20.4689 O   0  0  0  0  0  0  0  0  0  0  0  0
   17.1210  -17.0676   18.2650 N   0  0  0  0  0  0  0  0  0  0  0  0
   16.7291  -15.6913   18.3497 C   0  0  0  0  0  0  0  0  0  0  0  0
   17.5760  -14.7694   18.2080 O   0  0  0  0  0  0  0  0  0  0  0  0
   15.3366  -15.3160   18.6011 C   0  0  0  0  0  0  0  0  0  0  0  0
   14.6160  -16.2329   19.5776 C   0  0  2  0  0  0  0  0  0  0  0  0
   13.1914  -15.8238   19.5964 N   0  0  0  0  0  0  0  0  0  0  0  0
   15.1840  -16.2128   20.9255 C   0  0  0  0  0  0  0  0  0  0  0  0
   16.3849  -16.6665   21.0584 O   0  0  0  0  0  0  0  0  0  0  0  0
   15.4933  -17.7888   25.0664 O   0  0  0  0  0  0  0  0  0  0  0  0
   14.7946  -17.4202   23.9379 C   0  0  0  0  0  0  0  0  0  0  0  0
   15.2090  -16.0256   23.4324 C   0  0  2  0  0  0  0  0  0  0  0  0
   14.6063  -15.7625   22.1232 N   0  0  0  0  0  0  0  0  0  0  0  0
   16.6588  -16.0679   23.2881 C   0  0  0  0  0  0  0  0  0  0  0  0
   17.3345  -17.2475   23.1298 O   0  0  0  0  0  0  0  0  0  0  0  0
   17.3109  -14.9982   23.3064 O   0  0  0  0  0  0  0  0  0  0  0  0
  2  1  1  1
  2 13  1  0
  3  2  1  0
  3  4  1  0
  4 12  1  0
  4  5  2  0
  5  6  1  0
  7  8  2  0
  7  6  1  0
  9  8  1  0
 10  9  2  0
 11 10  1  0
 11 12  2  0
 12  7  1  0
 13 20  1  0
 13 14  2  0
 15 16  1  0
 16 18  1  0
 17 16  2  0
 19 18  1  6
 19 21  1  0
 20 19  1  0
 21 26  1  0
 21 22  2  0
 25 24  1  6
 24 23  1  0
 25 27  1  0
 26 25  1  0
 27 28  1  0
 29 27  2  0
M  END
$$$$
