WNS.pdb
     RDKit          3D

 29 30  0  0  1  0  0  0  0  0999 V2000
    6.3061  -17.4605   23.7973 N   0  0  0  0  0  0  0  0  0  0  0  0
    7.0497  -16.2036   23.5783 C   0  0  1  0  0  0  0  0  0  0  0  0
    7.6849  -15.8655   24.8693 C   0  0  0  0  0  0  0  0  0  0  0  0
    6.8990  -14.9318   25.6895 C   0  0  0  0  0  0  0  0  0  0  0  0
    5.7522  -15.2760   26.3986 C   0  0  0  0  0  0  0  0  0  0  0  0
    5.3354  -14.1567   26.9959 N   0  0  0  0  0  0  0  0  0  0  0  0
    6.1573  -13.1194   26.7059 C   0  0  0  0  0  0  0  0  0  0  0  0
    6.1848  -11.7902   27.0662 C   0  0  0  0  0  0  0  0  0  0  0  0
    7.1852  -10.9603   26.6082 C   0  0  0  0  0  0  0  0  0  0  0  0
    8.1985  -11.4125   25.7748 C   0  0  0  0  0  0  0  0  0  0  0  0
    8.1613  -12.7398   25.4217 C   0  0  0  0  0  0  0  0  0  0  0  0
    7.1514  -13.5853   25.8835 C   0  0  0  0  0  0  0  0  0  0  0  0
    7.8960  -16.3635   22.4100 C   0  0  0  0  0  0  0  0  0  0  0  0
    8.3082  -17.5433   22.1281 O   0  0  0  0  0  0  0  0  0  0  0  0
    7.2472  -12.9964   19.0478 N   0  0  0  0  0  0  0  0  0  0  0  0
    8.0193  -14.1757   18.7867 C   0  0  0  0  0  0  0  0  0  0  0  0
    7.6363  -15.0225   17.9362 O   0  0  0  0  0  0  0  0  0  0  0  0
    9.2738  -14.4304   19.4969 C   0  0  0  0  0  0  0  0  0  0  0  0
    9.2406  -15.6631   20.3874 C   0  0  2  0  0  0  0  0  0  0  0  0
    8.3325  -15.3639   21.5201 N   0  0  0  0  0  0  0  0  0  0  0  0
   10.5602  -16.0718   20.8686 C   0  0  0  0  0  0  0  0  0  0  0  0
   11.2537  -15.1810   21.4942 O   0  0  0  0  0  0  0  0  0  0  0  0
   11.9664  -19.8267   20.6400 O   0  0  0  0  0  0  0  0  0  0  0  0
   12.7535  -19.0812   21.4898 C   0  0  0  0  0  0  0  0  0  0  0  0
   12.5331  -17.5684   21.3024 C   0  0  2  0  0  0  0  0  0  0  0  0
   11.1994  -17.3161   20.7507 N   0  0  0  0  0  0  0  0  0  0  0  0
   13.5361  -17.1354   20.3375 C   0  0  0  0  0  0  0  0  0  0  0  0
   14.8744  -17.1727   20.6212 O   0  0  0  0  0  0  0  0  0  0  0  0
   13.1702  -16.7184   19.2140 O   0  0  0  0  0  0  0  0  0  0  0  0
  2  1  1  1
  2 13  1  0
  3  2  1  0
  3  4  1  0
  4 12  1  0
  4  5  2  0
  5  6  1  0
  7  8  2  0
  7  6  1  0
  9  8  1  0
 10  9  2  0
 11 10  1  0
 11 12  2  0
 12  7  1  0
 13 20  1  0
 13 14  2  0
 15 16  1  0
 16 18  1  0
 17 16  2  0
 19 18  1  6
 19 21  1  0
 20 19  1  0
 21 26  1  0
 21 22  2  0
 25 24  1  6
 24 23  1  0
 25 27  1  0
 26 25  1  0
 27 28  1  0
 29 27  2  0
M  END
$$$$
