WNS.pdb
     RDKit          3D

 29 30  0  0  1  0  0  0  0  0999 V2000
    6.9033  -17.5776   24.6657 N   0  0  0  0  0  0  0  0  0  0  0  0
    7.8320  -16.6586   23.9773 C   0  0  1  0  0  0  0  0  0  0  0  0
    8.3062  -15.7029   25.0002 C   0  0  0  0  0  0  0  0  0  0  0  0
    7.2305  -14.9110   25.6149 C   0  0  0  0  0  0  0  0  0  0  0  0
    6.1226  -15.4509   26.2610 C   0  0  0  0  0  0  0  0  0  0  0  0
    5.3850  -14.4127   26.6628 N   0  0  0  0  0  0  0  0  0  0  0  0
    5.9661  -13.2411   26.3083 C   0  0  0  0  0  0  0  0  0  0  0  0
    5.6353  -11.9160   26.4867 C   0  0  0  0  0  0  0  0  0  0  0  0
    6.4574  -10.9178   26.0101 C   0  0  0  0  0  0  0  0  0  0  0  0
    7.6398  -11.1912   25.3372 C   0  0  0  0  0  0  0  0  0  0  0  0
    7.9600  -12.5162   25.1647 C   0  0  0  0  0  0  0  0  0  0  0  0
    7.1320  -13.5313   25.6465 C   0  0  0  0  0  0  0  0  0  0  0  0
    8.8147  -17.4470   23.2564 C   0  0  0  0  0  0  0  0  0  0  0  0
    8.5685  -18.6918   23.0801 O   0  0  0  0  0  0  0  0  0  0  0  0
    9.7153  -18.8834   18.6360 N   0  0  0  0  0  0  0  0  0  0  0  0
    9.5873  -17.5058   19.0117 C   0  0  0  0  0  0  0  0  0  0  0  0
    9.6984  -16.5901   18.1537 O   0  0  0  0  0  0  0  0  0  0  0  0
    9.3228  -17.1223   20.3994 C   0  0  0  0  0  0  0  0  0  0  0  0
   10.4745  -17.4099   21.3505 C   0  0  2  0  0  0  0  0  0  0  0  0
   10.0350  -17.0092   22.7082 N   0  0  0  0  0  0  0  0  0  0  0  0
   11.7185  -16.7340   20.9825 C   0  0  0  0  0  0  0  0  0  0  0  0
   12.1885  -16.9788   19.8056 O   0  0  0  0  0  0  0  0  0  0  0  0
   14.9467  -16.5957   24.3791 O   0  0  0  0  0  0  0  0  0  0  0  0
   13.7702  -16.1470   23.8206 C   0  0  0  0  0  0  0  0  0  0  0  0
   13.8039  -16.2018   22.2818 C   0  0  2  0  0  0  0  0  0  0  0  0
   12.4949  -15.8375   21.7339 N   0  0  0  0  0  0  0  0  0  0  0  0
   14.0936  -17.5884   21.9381 C   0  0  0  0  0  0  0  0  0  0  0  0
   13.3100  -18.6203   22.3788 O   0  0  0  0  0  0  0  0  0  0  0  0
   15.0848  -17.8501   21.2177 O   0  0  0  0  0  0  0  0  0  0  0  0
  2  1  1  1
  2 13  1  0
  3  2  1  0
  3  4  1  0
  4 12  1  0
  4  5  2  0
  5  6  1  0
  7  8  2  0
  7  6  1  0
  9  8  1  0
 10  9  2  0
 11 10  1  0
 11 12  2  0
 12  7  1  0
 13 20  1  0
 13 14  2  0
 15 16  1  0
 16 18  1  0
 17 16  2  0
 19 18  1  6
 19 21  1  0
 20 19  1  0
 21 26  1  0
 21 22  2  0
 25 24  1  1
 24 23  1  0
 25 27  1  0
 26 25  1  0
 27 28  1  0
 29 27  2  0
M  END
$$$$
