LSI.pdb
     RDKit          3D

 23 22  0  0  1  0  0  0  0  0999 V2000
   26.6988  -13.7042  -16.7321 C   0  0  0  0  0  0  0  0  0  0  0  0
   25.3952  -13.8599  -16.0347 C   0  0  2  0  0  0  0  0  0  0  0  0
   25.2180  -12.8603  -14.8860 C   0  0  0  0  0  0  0  0  0  0  0  0
   24.9391  -15.2336  -15.6921 C   0  0  0  0  0  0  0  0  0  0  0  0
   25.0978  -16.2901  -16.7560 C   0  0  2  0  0  0  0  0  0  0  0  0
   24.1350  -16.1485  -17.8198 N   0  0  0  0  0  0  0  0  0  0  0  0
   25.2173  -17.6597  -16.2070 C   0  0  0  0  0  0  0  0  0  0  0  0
   24.2365  -18.3682  -15.8573 O   0  0  0  0  0  0  0  0  0  0  0  0
   27.9700  -20.2026  -17.4723 O   0  0  0  0  0  0  0  0  0  0  0  0
   28.0938  -20.1767  -16.0736 C   0  0  0  0  0  0  0  0  0  0  0  0
   26.7234  -19.5861  -15.5358 C   0  0  2  0  0  0  0  0  0  0  0  0
   26.5130  -18.2865  -16.0383 N   0  0  0  0  0  0  0  0  0  0  0  0
   26.6876  -19.7921  -14.0944 C   0  0  0  0  0  0  0  0  0  0  0  0
   27.3710  -19.0795  -13.2822 O   0  0  0  0  0  0  0  0  0  0  0  0
   23.8399  -20.3239   -8.9298 C   0  0  0  0  0  0  0  0  0  0  0  0
   25.0007  -20.7605   -9.7487 C   0  0  0  0  0  0  0  0  0  0  0  0
   24.8235  -20.5677  -11.2192 C   0  0  2  0  0  0  0  0  0  0  0  0
   23.5631  -21.1914  -11.7558 C   0  0  0  0  0  0  0  0  0  0  0  0
   26.0329  -21.0806  -12.0032 C   0  0  2  0  0  0  0  0  0  0  0  0
   25.8969  -20.7847  -13.4059 N   0  0  0  0  0  0  0  0  0  0  0  0
   26.3239  -22.4967  -11.6980 C   0  0  0  0  0  0  0  0  0  0  0  0
   26.8732  -22.8407  -10.4744 O   0  0  0  0  0  0  0  0  0  0  0  0
   26.0936  -23.4272  -12.5165 O   0  0  0  0  0  0  0  0  0  0  0  0
  2  1  1  1
  3  2  1  0
  4  2  1  0
  5  4  1  0
  5  6  1  6
  7  8  2  0
  7  5  1  0
  9 10  1  0
 11 10  1  1
 11 13  1  0
 11 12  1  0
 12  7  1  0
 13 20  1  0
 14 13  2  0
 15 16  1  0
 17 19  1  0
 17 16  1  0
 17 18  1  6
 19 21  1  0
 19 20  1  6
 21 23  2  0
 21 22  1  0
M  END
$$$$
