LSI.pdb
     RDKit          3D

 23 22  0  0  1  0  0  0  0  0999 V2000
   26.9592  -21.0195   -6.3492 C   0  0  0  0  0  0  0  0  0  0  0  0
   27.6538  -20.0446   -7.2307 C   0  0  2  0  0  0  0  0  0  0  0  0
   28.1329  -18.8013   -6.4724 C   0  0  0  0  0  0  0  0  0  0  0  0
   27.0433  -19.7278   -8.5495 C   0  0  0  0  0  0  0  0  0  0  0  0
   26.5429  -20.8919   -9.3668 C   0  0  2  0  0  0  0  0  0  0  0  0
   27.6042  -21.7861   -9.7577 N   0  0  0  0  0  0  0  0  0  0  0  0
   25.6366  -20.4886  -10.4656 C   0  0  0  0  0  0  0  0  0  0  0  0
   24.5716  -19.8373  -10.2993 O   0  0  0  0  0  0  0  0  0  0  0  0
   25.8963  -22.4828  -14.0325 O   0  0  0  0  0  0  0  0  0  0  0  0
   25.7335  -21.1105  -14.2824 C   0  0  0  0  0  0  0  0  0  0  0  0
   25.1245  -20.5043  -12.9491 C   0  0  2  0  0  0  0  0  0  0  0  0
   25.9349  -20.8281  -11.8425 N   0  0  0  0  0  0  0  0  0  0  0  0
   23.7119  -20.8564  -12.9072 C   0  0  0  0  0  0  0  0  0  0  0  0
   23.2684  -21.8336  -12.2124 O   0  0  0  0  0  0  0  0  0  0  0  0
   20.1519  -17.1365  -12.1284 C   0  0  0  0  0  0  0  0  0  0  0  0
   20.5427  -18.5702  -12.1080 C   0  0  0  0  0  0  0  0  0  0  0  0
   20.3874  -19.2690  -13.4189 C   0  0  2  0  0  0  0  0  0  0  0  0
   18.9601  -19.6191  -13.7438 C   0  0  0  0  0  0  0  0  0  0  0  0
   21.2613  -20.5223  -13.4949 C   0  0  2  0  0  0  0  0  0  0  0  0
   22.6529  -20.1702  -13.6091 N   0  0  0  0  0  0  0  0  0  0  0  0
   20.7784  -21.4661  -14.5240 C   0  0  0  0  0  0  0  0  0  0  0  0
   19.8039  -22.3966  -14.2050 O   0  0  0  0  0  0  0  0  0  0  0  0
   21.2220  -21.4669  -15.7039 O   0  0  0  0  0  0  0  0  0  0  0  0
  2  1  1  1
  3  2  1  0
  4  2  1  0
  5  4  1  0
  5  6  1  6
  7  8  2  0
  7  5  1  0
  9 10  1  0
 11 10  1  6
 11 13  1  0
 11 12  1  0
 12  7  1  0
 13 20  1  0
 14 13  2  0
 15 16  1  0
 17 19  1  0
 17 16  1  0
 17 18  1  1
 19 21  1  0
 19 20  1  6
 21 23  2  0
 21 22  1  0
M  END
$$$$
