LSI.pdb
     RDKit          3D

 23 22  0  0  1  0  0  0  0  0999 V2000
   15.6439  -12.6979  -14.6075 C   0  0  0  0  0  0  0  0  0  0  0  0
   16.0763  -11.2756  -14.6125 C   0  0  2  0  0  0  0  0  0  0  0  0
   17.0942  -10.9727  -15.7181 C   0  0  0  0  0  0  0  0  0  0  0  0
   16.4157  -10.6378  -13.3124 C   0  0  0  0  0  0  0  0  0  0  0  0
   16.7653   -9.1715  -13.3426 C   0  0  2  0  0  0  0  0  0  0  0  0
   18.0777   -8.9300  -13.8888 N   0  0  0  0  0  0  0  0  0  0  0  0
   16.4893   -8.4778  -12.0643 C   0  0  0  0  0  0  0  0  0  0  0  0
   15.4426   -8.6423  -11.3835 O   0  0  0  0  0  0  0  0  0  0  0  0
   18.4159   -5.6205   -8.5811 O   0  0  0  0  0  0  0  0  0  0  0  0
   18.6348   -6.1311   -9.8708 C   0  0  0  0  0  0  0  0  0  0  0  0
   17.2960   -6.8862  -10.2627 C   0  0  2  0  0  0  0  0  0  0  0  0
   17.4413   -7.5411  -11.5020 N   0  0  0  0  0  0  0  0  0  0  0  0
   16.1933   -5.9501  -10.0922 C   0  0  0  0  0  0  0  0  0  0  0  0
   15.8217   -5.1514  -11.0187 O   0  0  0  0  0  0  0  0  0  0  0  0
   10.9147   -4.9216   -6.9874 C   0  0  0  0  0  0  0  0  0  0  0  0
   12.0297   -4.4668   -7.8584 C   0  0  0  0  0  0  0  0  0  0  0  0
   13.2096   -5.3825   -7.8758 C   0  0  2  0  0  0  0  0  0  0  0  0
   13.7500   -5.6864   -6.5042 C   0  0  0  0  0  0  0  0  0  0  0  0
   14.3282   -4.8411   -8.7680 C   0  0  2  0  0  0  0  0  0  0  0  0
   15.3886   -5.8061   -8.9021 N   0  0  0  0  0  0  0  0  0  0  0  0
   14.7689   -3.4973   -8.3405 C   0  0  0  0  0  0  0  0  0  0  0  0
   13.9831   -2.3917   -8.6186 O   0  0  0  0  0  0  0  0  0  0  0  0
   15.8508   -3.3037   -7.7232 O   0  0  0  0  0  0  0  0  0  0  0  0
  2  1  1  1
  3  2  1  0
  4  2  1  0
  5  4  1  0
  5  6  1  1
  7  8  2  0
  7  5  1  0
  9 10  1  0
 11 10  1  6
 11 13  1  0
 11 12  1  0
 12  7  1  0
 13 20  1  0
 14 13  2  0
 15 16  1  0
 17 19  1  0
 17 16  1  0
 17 18  1  1
 19 21  1  0
 19 20  1  1
 21 23  2  0
 21 22  1  0
M  END
$$$$
