LSI.pdb
     RDKit          3D

 23 22  0  0  1  0  0  0  0  0999 V2000
   17.0840  -13.5423  -16.9774 C   0  0  0  0  0  0  0  0  0  0  0  0
   18.4247  -13.5330  -16.3352 C   0  0  2  0  0  0  0  0  0  0  0  0
   18.4310  -14.2370  -14.9734 C   0  0  0  0  0  0  0  0  0  0  0  0
   19.2008  -12.2642  -16.3428 C   0  0  0  0  0  0  0  0  0  0  0  0
   19.3495  -11.5636  -17.6696 C   0  0  2  0  0  0  0  0  0  0  0  0
   20.1446  -12.3198  -18.6049 N   0  0  0  0  0  0  0  0  0  0  0  0
   19.7337  -10.1398  -17.5395 C   0  0  0  0  0  0  0  0  0  0  0  0
   20.8709   -9.7465  -17.1680 O   0  0  0  0  0  0  0  0  0  0  0  0
   16.8117   -7.1500  -18.2708 O   0  0  0  0  0  0  0  0  0  0  0  0
   18.1057   -6.8954  -18.7535 C   0  0  0  0  0  0  0  0  0  0  0  0
   19.0825   -7.7030  -17.7996 C   0  0  2  0  0  0  0  0  0  0  0  0
   18.7926   -9.0813  -17.8460 N   0  0  0  0  0  0  0  0  0  0  0  0
   19.0914   -7.0341  -16.5059 C   0  0  0  0  0  0  0  0  0  0  0  0
   18.3187   -7.3814  -15.5484 O   0  0  0  0  0  0  0  0  0  0  0  0
   23.4864   -3.7748  -14.7805 C   0  0  0  0  0  0  0  0  0  0  0  0
   22.0803   -4.0534  -15.1727 C   0  0  0  0  0  0  0  0  0  0  0  0
   21.4111   -5.1090  -14.3549 C   0  0  2  0  0  0  0  0  0  0  0  0
   22.1660   -6.4109  -14.3269 C   0  0  0  0  0  0  0  0  0  0  0  0
   19.9730   -5.3509  -14.8172 C   0  0  2  0  0  0  0  0  0  0  0  0
   19.9493   -5.9341  -16.1335 N   0  0  0  0  0  0  0  0  0  0  0  0
   19.1371   -4.1422  -14.6641 C   0  0  0  0  0  0  0  0  0  0  0  0
   18.7712   -3.7110  -13.4002 O   0  0  0  0  0  0  0  0  0  0  0  0
   18.7299   -3.4708  -15.6502 O   0  0  0  0  0  0  0  0  0  0  0  0
  2  1  1  1
  3  2  1  0
  4  2  1  0
  5  4  1  0
  5  6  1  6
  7  8  2  0
  7  5  1  0
  9 10  1  0
 11 10  1  6
 11 13  1  0
 11 12  1  0
 12  7  1  0
 13 20  1  0
 14 13  2  0
 15 16  1  0
 17 19  1  0
 17 16  1  0
 17 18  1  6
 19 21  1  0
 19 20  1  6
 21 23  2  0
 21 22  1  0
M  END
$$$$
