LSI.pdb
     RDKit          3D

 23 22  0  0  1  0  0  0  0  0999 V2000
   18.5945  -13.9600  -16.2282 C   0  0  0  0  0  0  0  0  0  0  0  0
   18.0695  -12.9841  -17.2192 C   0  0  2  0  0  0  0  0  0  0  0  0
   18.5108  -13.3038  -18.6521 C   0  0  0  0  0  0  0  0  0  0  0  0
   18.1477  -11.5355  -16.8910 C   0  0  0  0  0  0  0  0  0  0  0  0
   17.5746  -11.1047  -15.5646 C   0  0  2  0  0  0  0  0  0  0  0  0
   16.1717  -11.4152  -15.4447 N   0  0  0  0  0  0  0  0  0  0  0  0
   17.9358   -9.7178  -15.1940 C   0  0  0  0  0  0  0  0  0  0  0  0
   18.3017   -8.8391  -16.0187 O   0  0  0  0  0  0  0  0  0  0  0  0
   18.6256   -8.7389  -11.1696 O   0  0  0  0  0  0  0  0  0  0  0  0
   17.8096   -7.8098  -11.8352 C   0  0  0  0  0  0  0  0  0  0  0  0
   18.1567   -7.9647  -13.3752 C   0  0  2  0  0  0  0  0  0  0  0  0
   17.8840   -9.2755  -13.8150 N   0  0  0  0  0  0  0  0  0  0  0  0
   19.4913   -7.4208  -13.5855 C   0  0  0  0  0  0  0  0  0  0  0  0
   20.5453   -8.1405  -13.5112 O   0  0  0  0  0  0  0  0  0  0  0  0
   22.9694   -4.2440  -17.2495 C   0  0  0  0  0  0  0  0  0  0  0  0
   22.7264   -4.7014  -15.8565 C   0  0  0  0  0  0  0  0  0  0  0  0
   21.3215   -5.1304  -15.5860 C   0  0  2  0  0  0  0  0  0  0  0  0
   20.2984   -4.0872  -15.9474 C   0  0  0  0  0  0  0  0  0  0  0  0
   21.1353   -5.5598  -14.1296 C   0  0  2  0  0  0  0  0  0  0  0  0
   19.7988   -6.0470  -13.9061 N   0  0  0  0  0  0  0  0  0  0  0  0
   21.5732   -4.5090  -13.1878 C   0  0  0  0  0  0  0  0  0  0  0  0
   20.6361   -3.8241  -12.4327 O   0  0  0  0  0  0  0  0  0  0  0  0
   22.7851   -4.1970  -13.0366 O   0  0  0  0  0  0  0  0  0  0  0  0
  2  1  1  1
  3  2  1  0
  4  2  1  0
  5  4  1  0
  5  6  1  6
  7  8  2  0
  7  5  1  0
  9 10  1  0
 11 10  1  1
 11 13  1  0
 11 12  1  0
 12  7  1  0
 13 20  1  0
 14 13  2  0
 15 16  1  0
 17 19  1  0
 17 16  1  0
 17 18  1  1
 19 21  1  0
 19 20  1  6
 21 23  2  0
 21 22  1  0
M  END
$$$$
