TIQ.pdb
     RDKit          3D

 25 24  0  0  1  0  0  0  0  0999 V2000
   28.7344  -18.2540  -15.6826 C   0  0  0  0  0  0  0  0  0  0  0  0
   27.4880  -18.9212  -15.1381 C   0  0  1  0  0  0  0  0  0  0  0  0
   26.6204  -19.1109  -16.2091 O   0  0  0  0  0  0  0  0  0  0  0  0
   27.8952  -20.2169  -14.5010 C   0  0  2  0  0  0  0  0  0  0  0  0
   28.4521  -21.0829  -15.5206 N   0  0  0  0  0  0  0  0  0  0  0  0
   26.8288  -20.8811  -13.7600 C   0  0  0  0  0  0  0  0  0  0  0  0
   26.2693  -21.8831  -14.2654 O   0  0  0  0  0  0  0  0  0  0  0  0
   27.2276  -20.4696   -8.5411 C   0  0  0  0  0  0  0  0  0  0  0  0
   26.6727  -21.3075   -9.6718 C   0  0  0  0  0  0  0  0  0  0  0  0
   25.4706  -20.6554  -10.3123 C   0  0  2  0  0  0  0  0  0  0  0  0
   24.2404  -21.1346   -9.5708 C   0  0  0  0  0  0  0  0  0  0  0  0
   25.3103  -21.0038  -11.7505 C   0  0  2  0  0  0  0  0  0  0  0  0
   26.4094  -20.4257  -12.4885 N   0  0  0  0  0  0  0  0  0  0  0  0
   24.0080  -20.5570  -12.3127 C   0  0  0  0  0  0  0  0  0  0  0  0
   23.6316  -19.3619  -12.3071 O   0  0  0  0  0  0  0  0  0  0  0  0
   20.4304  -24.1616  -16.2983 N   0  0  0  0  0  0  0  0  0  0  0  0
   19.6550  -22.9518  -16.0544 C   0  0  0  0  0  0  0  0  0  0  0  0
   18.5969  -22.9046  -16.7116 O   0  0  0  0  0  0  0  0  0  0  0  0
   20.1543  -21.9641  -15.1270 C   0  0  0  0  0  0  0  0  0  0  0  0
   21.4377  -22.1323  -14.4367 C   0  0  0  0  0  0  0  0  0  0  0  0
   21.8658  -21.0724  -13.4589 C   0  0  2  0  0  0  0  0  0  0  0  0
   23.1470  -21.5232  -12.8830 N   0  0  0  0  0  0  0  0  0  0  0  0
   20.8664  -20.8586  -12.4281 C   0  0  0  0  0  0  0  0  0  0  0  0
   20.7680  -21.4217  -11.3200 O   0  0  0  0  0  0  0  0  0  0  0  0
   19.8815  -19.8842  -12.7099 O   0  0  0  0  0  0  0  0  0  0  0  0
  2  1  1  6
  3  2  1  0
  4  2  1  0
  4  6  1  0
  4  5  1  6
  6 13  1  0
  7  6  2  0
  9 10  1  0
  9  8  1  0
 10 12  1  0
 10 11  1  1
 12 14  1  0
 12 13  1  6
 14 15  2  0
 16 17  1  0
 17 19  1  0
 18 17  2  0
 19 20  1  0
 21 20  1  6
 21 23  1  0
 22 14  1  0
 22 21  1  0
 23 24  2  0
 23 25  1  0
M  END
$$$$
