TIQ.pdb
     RDKit          3D

 25 24  0  0  1  0  0  0  0  0999 V2000
   24.4843  -10.1856  -21.7750 C   0  0  0  0  0  0  0  0  0  0  0  0
   23.8555  -11.5638  -21.7965 C   0  0  1  0  0  0  0  0  0  0  0  0
   24.1271  -12.1215  -23.0418 O   0  0  0  0  0  0  0  0  0  0  0  0
   24.4498  -12.3631  -20.6747 C   0  0  2  0  0  0  0  0  0  0  0  0
   23.9726  -13.7279  -20.7710 N   0  0  0  0  0  0  0  0  0  0  0  0
   24.2089  -11.8052  -19.3487 C   0  0  0  0  0  0  0  0  0  0  0  0
   23.0575  -11.8789  -18.8575 O   0  0  0  0  0  0  0  0  0  0  0  0
   28.0434  -12.0330  -15.4933 C   0  0  0  0  0  0  0  0  0  0  0  0
   26.7173  -12.0044  -16.2208 C   0  0  0  0  0  0  0  0  0  0  0  0
   26.2919  -10.5938  -16.5515 C   0  0  2  0  0  0  0  0  0  0  0  0
   26.0762   -9.8620  -15.2436 C   0  0  0  0  0  0  0  0  0  0  0  0
   25.0266  -10.5299  -17.3328 C   0  0  2  0  0  0  0  0  0  0  0  0
   25.2378  -11.1840  -18.6035 N   0  0  0  0  0  0  0  0  0  0  0  0
   24.5395   -9.1391  -17.5330 C   0  0  0  0  0  0  0  0  0  0  0  0
   25.2733   -8.2054  -17.9325 O   0  0  0  0  0  0  0  0  0  0  0  0
   18.4734   -7.7178  -18.8209 N   0  0  0  0  0  0  0  0  0  0  0  0
   19.0989   -6.4302  -18.5462 C   0  0  0  0  0  0  0  0  0  0  0  0
   18.3158   -5.4676  -18.6636 O   0  0  0  0  0  0  0  0  0  0  0  0
   20.4964   -6.3829  -18.1863 C   0  0  0  0  0  0  0  0  0  0  0  0
   21.2963   -7.6031  -18.0337 C   0  0  0  0  0  0  0  0  0  0  0  0
   22.6950   -7.4763  -17.4950 C   0  0  2  0  0  0  0  0  0  0  0  0
   23.1824   -8.8489  -17.2609 N   0  0  0  0  0  0  0  0  0  0  0  0
   22.7315   -6.6853  -16.2785 C   0  0  0  0  0  0  0  0  0  0  0  0
   22.8057   -5.4457  -16.1659 O   0  0  0  0  0  0  0  0  0  0  0  0
   22.6683   -7.4081  -15.0650 O   0  0  0  0  0  0  0  0  0  0  0  0
  2  1  1  6
  3  2  1  0
  4  2  1  0
  4  6  1  0
  4  5  1  1
  6 13  1  0
  7  6  2  0
  9 10  1  0
  9  8  1  0
 10 12  1  0
 10 11  1  1
 12 14  1  0
 12 13  1  6
 14 15  2  0
 16 17  1  0
 17 19  1  0
 18 17  2  0
 19 20  1  0
 21 20  1  1
 21 23  1  0
 22 14  1  0
 22 21  1  0
 23 24  2  0
 23 25  1  0
M  END
$$$$
