TIQ.pdb
     RDKit          3D

 25 24  0  0  1  0  0  0  0  0999 V2000
   28.5253  -18.1706  -15.8834 C   0  0  0  0  0  0  0  0  0  0  0  0
   27.2760  -18.8893  -15.4164 C   0  0  1  0  0  0  0  0  0  0  0  0
   26.5000  -19.1420  -16.5432 O   0  0  0  0  0  0  0  0  0  0  0  0
   27.6976  -20.1509  -14.7229 C   0  0  2  0  0  0  0  0  0  0  0  0
   28.3130  -21.0332  -15.6938 N   0  0  0  0  0  0  0  0  0  0  0  0
   26.6258  -20.8214  -13.9955 C   0  0  0  0  0  0  0  0  0  0  0  0
   26.0877  -21.8346  -14.5019 O   0  0  0  0  0  0  0  0  0  0  0  0
   26.5508  -20.5393   -8.5278 C   0  0  0  0  0  0  0  0  0  0  0  0
   26.3798  -21.0927   -9.9252 C   0  0  0  0  0  0  0  0  0  0  0  0
   25.1458  -20.5401  -10.5977 C   0  0  2  0  0  0  0  0  0  0  0  0
   23.9398  -21.1035   -9.8760 C   0  0  0  0  0  0  0  0  0  0  0  0
   25.0428  -20.9141  -12.0347 C   0  0  2  0  0  0  0  0  0  0  0  0
   26.1776  -20.3597  -12.7361 N   0  0  0  0  0  0  0  0  0  0  0  0
   23.7697  -20.4664  -12.6596 C   0  0  0  0  0  0  0  0  0  0  0  0
   23.3898  -19.2724  -12.6642 O   0  0  0  0  0  0  0  0  0  0  0  0
   21.8803  -20.3071  -17.8296 N   0  0  0  0  0  0  0  0  0  0  0  0
   20.5562  -20.6521  -17.3275 C   0  0  0  0  0  0  0  0  0  0  0  0
   19.6316  -20.2452  -18.0578 O   0  0  0  0  0  0  0  0  0  0  0  0
   20.4360  -21.3906  -16.0926 C   0  0  0  0  0  0  0  0  0  0  0  0
   21.5986  -21.6669  -15.2418 C   0  0  0  0  0  0  0  0  0  0  0  0
   21.6840  -20.9806  -13.9060 C   0  0  2  0  0  0  0  0  0  0  0  0
   22.9422  -21.4304  -13.2808 N   0  0  0  0  0  0  0  0  0  0  0  0
   20.5369  -21.2875  -13.0711 C   0  0  0  0  0  0  0  0  0  0  0  0
   20.4090  -22.2129  -12.2453 O   0  0  0  0  0  0  0  0  0  0  0  0
   19.4237  -20.4261  -13.2033 O   0  0  0  0  0  0  0  0  0  0  0  0
  2  1  1  6
  3  2  1  0
  4  2  1  0
  4  6  1  0
  4  5  1  6
  6 13  1  0
  7  6  2  0
  9 10  1  0
  9  8  1  0
 10 12  1  0
 10 11  1  1
 12 14  1  0
 12 13  1  6
 14 15  2  0
 16 17  1  0
 17 19  1  0
 18 17  2  0
 19 20  1  0
 21 20  1  6
 21 23  1  0
 22 14  1  0
 22 21  1  0
 23 24  2  0
 23 25  1  0
M  END
$$$$
