TIQ.pdb
     RDKit          3D

 25 24  0  0  1  0  0  0  0  0999 V2000
   24.3521  -38.3817   -7.1778 C   0  0  0  0  0  0  0  0  0  0  0  0
   25.1525  -38.5031   -8.4584 C   0  0  1  0  0  0  0  0  0  0  0  0
   24.4242  -39.3121   -9.3248 O   0  0  0  0  0  0  0  0  0  0  0  0
   25.3598  -37.1232   -9.0093 C   0  0  2  0  0  0  0  0  0  0  0  0
   25.9934  -37.2302  -10.3081 N   0  0  0  0  0  0  0  0  0  0  0  0
   26.1005  -36.2305   -8.1252 C   0  0  0  0  0  0  0  0  0  0  0  0
   27.3517  -36.1985   -8.2018 O   0  0  0  0  0  0  0  0  0  0  0  0
   24.9710  -31.1908   -8.0129 C   0  0  0  0  0  0  0  0  0  0  0  0
   25.6268  -32.5487   -7.8930 C   0  0  0  0  0  0  0  0  0  0  0  0
   25.4783  -33.1199   -6.5030 C   0  0  2  0  0  0  0  0  0  0  0  0
   26.1323  -32.1532   -5.5384 C   0  0  0  0  0  0  0  0  0  0  0  0
   26.1299  -34.4484   -6.3413 C   0  0  2  0  0  0  0  0  0  0  0  0
   25.4461  -35.4011   -7.1851 N   0  0  0  0  0  0  0  0  0  0  0  0
   26.1485  -34.9160   -4.9297 C   0  0  0  0  0  0  0  0  0  0  0  0
   25.1094  -35.1126   -4.2578 O   0  0  0  0  0  0  0  0  0  0  0  0
   31.4066  -37.4588   -2.2727 N   0  0  0  0  0  0  0  0  0  0  0  0
   30.3222  -38.2316   -2.8652 C   0  0  0  0  0  0  0  0  0  0  0  0
   30.6505  -39.3988   -3.1544 O   0  0  0  0  0  0  0  0  0  0  0  0
   29.0330  -37.6111   -3.0600 C   0  0  0  0  0  0  0  0  0  0  0  0
   28.7816  -36.2170   -2.6791 C   0  0  0  0  0  0  0  0  0  0  0  0
   27.4100  -35.6482   -2.9195 C   0  0  2  0  0  0  0  0  0  0  0  0
   27.3970  -35.1524   -4.3089 N   0  0  0  0  0  0  0  0  0  0  0  0
   27.0947  -34.5914   -1.9757 C   0  0  0  0  0  0  0  0  0  0  0  0
   27.4824  -33.4064   -1.9863 O   0  0  0  0  0  0  0  0  0  0  0  0
   26.2336  -34.9449   -0.9117 O   0  0  0  0  0  0  0  0  0  0  0  0
  2  1  1  1
  3  2  1  0
  4  2  1  0
  4  6  1  0
  4  5  1  6
  6 13  1  0
  7  6  2  0
  9 10  1  0
  9  8  1  0
 10 12  1  0
 10 11  1  1
 12 14  1  0
 12 13  1  6
 14 15  2  0
 16 17  1  0
 17 19  1  0
 18 17  2  0
 19 20  1  0
 21 20  1  1
 21 23  1  0
 22 14  1  0
 22 21  1  0
 23 24  2  0
 23 25  1  0
M  END
$$$$
