TIQ.pdb
     RDKit          3D

 25 24  0  0  1  0  0  0  0  0999 V2000
   27.0394  -18.1057  -14.5084 C   0  0  0  0  0  0  0  0  0  0  0  0
   27.5437  -19.2576  -15.3535 C   0  0  1  0  0  0  0  0  0  0  0  0
   28.5989  -18.7748  -16.1211 O   0  0  0  0  0  0  0  0  0  0  0  0
   27.9714  -20.3593  -14.4295 C   0  0  2  0  0  0  0  0  0  0  0  0
   28.6600  -21.3741  -15.2014 N   0  0  0  0  0  0  0  0  0  0  0  0
   26.8878  -20.9326  -13.6393 C   0  0  0  0  0  0  0  0  0  0  0  0
   26.1757  -21.8323  -14.1453 O   0  0  0  0  0  0  0  0  0  0  0  0
   27.1894  -20.5218   -8.1547 C   0  0  0  0  0  0  0  0  0  0  0  0
   26.8868  -21.1347   -9.5042 C   0  0  0  0  0  0  0  0  0  0  0  0
   25.6646  -20.5144  -10.1380 C   0  0  2  0  0  0  0  0  0  0  0  0
   24.4573  -20.9674   -9.3443 C   0  0  0  0  0  0  0  0  0  0  0  0
   25.4673  -20.9224  -11.5558 C   0  0  2  0  0  0  0  0  0  0  0  0
   26.6190  -20.5014  -12.3196 N   0  0  0  0  0  0  0  0  0  0  0  0
   24.2170  -20.3754  -12.1469 C   0  0  0  0  0  0  0  0  0  0  0  0
   23.9784  -19.1485  -12.2344 O   0  0  0  0  0  0  0  0  0  0  0  0
   21.0024  -23.0875  -16.8418 N   0  0  0  0  0  0  0  0  0  0  0  0
   20.1109  -22.0398  -16.3599 C   0  0  0  0  0  0  0  0  0  0  0  0
   19.0792  -21.9164  -17.0484 O   0  0  0  0  0  0  0  0  0  0  0  0
   20.4817  -21.2741  -15.1933 C   0  0  0  0  0  0  0  0  0  0  0  0
   21.7276  -21.5331  -14.4635 C   0  0  0  0  0  0  0  0  0  0  0  0
   22.0064  -20.7317  -13.2214 C   0  0  2  0  0  0  0  0  0  0  0  0
   23.2451  -21.2789  -12.6362 N   0  0  0  0  0  0  0  0  0  0  0  0
   20.9016  -20.7967  -12.2820 C   0  0  0  0  0  0  0  0  0  0  0  0
   20.7826  -21.5294  -11.2802 O   0  0  0  0  0  0  0  0  0  0  0  0
   19.8248  -19.9140  -12.5270 O   0  0  0  0  0  0  0  0  0  0  0  0
  2  1  1  1
  3  2  1  0
  4  2  1  0
  4  6  1  0
  4  5  1  6
  6 13  1  0
  7  6  2  0
  9 10  1  0
  9  8  1  0
 10 12  1  0
 10 11  1  1
 12 14  1  0
 12 13  1  6
 14 15  2  0
 16 17  1  0
 17 19  1  0
 18 17  2  0
 19 20  1  0
 21 20  1  6
 21 23  1  0
 22 14  1  0
 22 21  1  0
 23 24  2  0
 23 25  1  0
M  END
$$$$
