TIQ.pdb
     RDKit          3D

 25 24  0  0  1  0  0  0  0  0999 V2000
   26.3350  -19.4370  -16.3964 C   0  0  0  0  0  0  0  0  0  0  0  0
   26.9655  -20.7285  -16.8759 C   0  0  1  0  0  0  0  0  0  0  0  0
   28.0020  -20.3859  -17.7384 O   0  0  0  0  0  0  0  0  0  0  0  0
   27.4529  -21.4819  -15.6737 C   0  0  2  0  0  0  0  0  0  0  0  0
   28.0918  -22.7045  -16.1172 N   0  0  0  0  0  0  0  0  0  0  0  0
   26.4229  -21.7487  -14.6760 C   0  0  0  0  0  0  0  0  0  0  0  0
   25.5857  -22.6566  -14.8934 O   0  0  0  0  0  0  0  0  0  0  0  0
   25.5383  -20.7278   -8.6654 C   0  0  0  0  0  0  0  0  0  0  0  0
   24.9106  -21.0426  -10.0053 C   0  0  0  0  0  0  0  0  0  0  0  0
   25.9066  -20.9133  -11.1329 C   0  0  2  0  0  0  0  0  0  0  0  0
   26.3962  -19.4805  -11.1494 C   0  0  0  0  0  0  0  0  0  0  0  0
   25.3250  -21.2200  -12.4683 C   0  0  2  0  0  0  0  0  0  0  0  0
   26.3432  -21.0116  -13.4717 N   0  0  0  0  0  0  0  0  0  0  0  0
   24.1150  -20.4106  -12.7724 C   0  0  0  0  0  0  0  0  0  0  0  0
   24.1544  -19.1827  -13.0186 O   0  0  0  0  0  0  0  0  0  0  0  0
   21.9905  -20.1211  -17.7005 N   0  0  0  0  0  0  0  0  0  0  0  0
   21.5048  -21.3198  -17.0284 C   0  0  0  0  0  0  0  0  0  0  0  0
   21.2473  -22.2537  -17.8128 O   0  0  0  0  0  0  0  0  0  0  0  0
   21.3668  -21.3205  -15.5911 C   0  0  0  0  0  0  0  0  0  0  0  0
   21.8340  -20.1983  -14.7700 C   0  0  0  0  0  0  0  0  0  0  0  0
   21.6857  -20.2972  -13.2763 C   0  0  2  0  0  0  0  0  0  0  0  0
   22.8546  -21.0519  -12.7859 N   0  0  0  0  0  0  0  0  0  0  0  0
   20.4411  -20.9442  -12.9026 C   0  0  0  0  0  0  0  0  0  0  0  0
   19.2863  -20.4755  -12.9396 O   0  0  0  0  0  0  0  0  0  0  0  0
   20.5470  -22.2774  -12.4443 O   0  0  0  0  0  0  0  0  0  0  0  0
  2  1  1  1
  3  2  1  0
  4  2  1  0
  4  6  1  0
  4  5  1  6
  6 13  1  0
  7  6  2  0
  9 10  1  0
  9  8  1  0
 10 12  1  0
 10 11  1  6
 12 14  1  0
 12 13  1  6
 14 15  2  0
 16 17  1  0
 17 19  1  0
 18 17  2  0
 19 20  1  0
 21 20  1  6
 21 23  1  0
 22 14  1  0
 22 21  1  0
 23 24  2  0
 23 25  1  0
M  END
$$$$
