TIQ.pdb
     RDKit          3D

 25 24  0  0  1  0  0  0  0  0999 V2000
   12.2567   -7.6752  -10.7688 C   0  0  0  0  0  0  0  0  0  0  0  0
   11.9122   -8.5398   -9.5733 C   0  0  1  0  0  0  0  0  0  0  0  0
   10.6283   -9.0348   -9.7787 O   0  0  0  0  0  0  0  0  0  0  0  0
   12.9344   -9.6338   -9.4812 C   0  0  2  0  0  0  0  0  0  0  0  0
   12.6087  -10.4823   -8.3526 N   0  0  0  0  0  0  0  0  0  0  0  0
   14.3128   -9.1615   -9.4144 C   0  0  0  0  0  0  0  0  0  0  0  0
   14.7962   -8.8507   -8.2999 O   0  0  0  0  0  0  0  0  0  0  0  0
   18.2461  -11.4783  -12.2473 C   0  0  0  0  0  0  0  0  0  0  0  0
   17.4123  -10.7444  -11.2203 C   0  0  0  0  0  0  0  0  0  0  0  0
   17.2715   -9.2795  -11.5588 C   0  0  2  0  0  0  0  0  0  0  0  0
   18.6622   -8.6814  -11.5917 C   0  0  0  0  0  0  0  0  0  0  0  0
   16.4642   -8.5219  -10.5639 C   0  0  2  0  0  0  0  0  0  0  0  0
   15.1174   -9.0446  -10.5715 N   0  0  0  0  0  0  0  0  0  0  0  0
   16.4599   -7.0565  -10.8173 C   0  0  0  0  0  0  0  0  0  0  0  0
   16.0749   -6.5473  -11.8954 O   0  0  0  0  0  0  0  0  0  0  0  0
   14.5586   -2.7345   -7.3808 N   0  0  0  0  0  0  0  0  0  0  0  0
   15.6704   -1.9602   -7.9183 C   0  0  0  0  0  0  0  0  0  0  0  0
   15.5187   -0.7293   -7.7936 O   0  0  0  0  0  0  0  0  0  0  0  0
   16.7883   -2.6479   -8.5203 C   0  0  0  0  0  0  0  0  0  0  0  0
   16.8318   -4.1108   -8.6204 C   0  0  0  0  0  0  0  0  0  0  0  0
   16.7568   -4.7346   -9.9872 C   0  0  2  0  0  0  0  0  0  0  0  0
   16.9113   -6.1892   -9.7955 N   0  0  0  0  0  0  0  0  0  0  0  0
   17.7758   -4.2050  -10.8750 C   0  0  0  0  0  0  0  0  0  0  0  0
   18.9569   -4.5822  -11.0061 O   0  0  0  0  0  0  0  0  0  0  0  0
   17.3807   -3.1289  -11.7026 O   0  0  0  0  0  0  0  0  0  0  0  0
  2  1  1  6
  3  2  1  0
  4  2  1  0
  4  6  1  0
  4  5  1  1
  6 13  1  0
  7  6  2  0
  9 10  1  0
  9  8  1  0
 10 12  1  0
 10 11  1  1
 12 14  1  0
 12 13  1  6
 14 15  2  0
 16 17  1  0
 17 19  1  0
 18 17  2  0
 19 20  1  0
 21 20  1  1
 21 23  1  0
 22 14  1  0
 22 21  1  0
 23 24  2  0
 23 25  1  0
M  END
$$$$
