TIQ.pdb
     RDKit          3D

 25 24  0  0  1  0  0  0  0  0999 V2000
   27.0311  -17.9778  -14.8551 C   0  0  0  0  0  0  0  0  0  0  0  0
   27.3873  -19.0423  -15.8726 C   0  0  1  0  0  0  0  0  0  0  0  0
   28.3858  -18.5169  -16.6866 O   0  0  0  0  0  0  0  0  0  0  0  0
   27.8446  -20.2619  -15.1285 C   0  0  2  0  0  0  0  0  0  0  0  0
   28.3773  -21.2161  -16.0800 N   0  0  0  0  0  0  0  0  0  0  0  0
   26.8216  -20.8656  -14.2820 C   0  0  0  0  0  0  0  0  0  0  0  0
   26.0479  -21.7192  -14.7772 O   0  0  0  0  0  0  0  0  0  0  0  0
   25.3069  -21.0095   -8.2609 C   0  0  0  0  0  0  0  0  0  0  0  0
   24.8858  -21.2125   -9.6997 C   0  0  0  0  0  0  0  0  0  0  0  0
   25.9589  -20.7665  -10.6640 C   0  0  2  0  0  0  0  0  0  0  0  0
   26.2112  -19.2937  -10.4191 C   0  0  0  0  0  0  0  0  0  0  0  0
   25.5746  -20.9402  -12.0915 C   0  0  2  0  0  0  0  0  0  0  0  0
   26.6791  -20.5142  -12.9196 N   0  0  0  0  0  0  0  0  0  0  0  0
   24.3342  -20.2026  -12.4509 C   0  0  0  0  0  0  0  0  0  0  0  0
   24.3007  -18.9635  -12.6333 O   0  0  0  0  0  0  0  0  0  0  0  0
   21.8584  -20.2094  -17.4782 N   0  0  0  0  0  0  0  0  0  0  0  0
   20.7887  -19.5786  -16.7150 C   0  0  0  0  0  0  0  0  0  0  0  0
   19.8927  -19.0929  -17.4326 O   0  0  0  0  0  0  0  0  0  0  0  0
   20.8578  -19.5672  -15.2728 C   0  0  0  0  0  0  0  0  0  0  0  0
   21.9790  -20.1759  -14.5487 C   0  0  0  0  0  0  0  0  0  0  0  0
   21.9229  -20.2100  -13.0458 C   0  0  2  0  0  0  0  0  0  0  0  0
   23.1296  -20.9293  -12.5954 N   0  0  0  0  0  0  0  0  0  0  0  0
   20.7123  -20.8533  -12.5688 C   0  0  0  0  0  0  0  0  0  0  0  0
   20.5198  -22.0642  -12.3422 O   0  0  0  0  0  0  0  0  0  0  0  0
   19.6114  -20.0012  -12.3225 O   0  0  0  0  0  0  0  0  0  0  0  0
  2  1  1  1
  3  2  1  0
  4  2  1  0
  4  6  1  0
  4  5  1  6
  6 13  1  0
  7  6  2  0
  9 10  1  0
  9  8  1  0
 10 12  1  0
 10 11  1  6
 12 14  1  0
 12 13  1  6
 14 15  2  0
 16 17  1  0
 17 19  1  0
 18 17  2  0
 19 20  1  0
 21 20  1  6
 21 23  1  0
 22 14  1  0
 22 21  1  0
 23 24  2  0
 23 25  1  0
M  END
$$$$
