TIQ.pdb
     RDKit          3D

 25 24  0  0  1  0  0  0  0  0999 V2000
   17.5735  -23.1534   -7.7850 C   0  0  0  0  0  0  0  0  0  0  0  0
   17.9377  -24.2893   -8.7191 C   0  0  1  0  0  0  0  0  0  0  0  0
   18.8358  -23.7831   -9.6533 O   0  0  0  0  0  0  0  0  0  0  0  0
   18.5351  -25.3931   -7.8974 C   0  0  2  0  0  0  0  0  0  0  0  0
   18.9356  -26.4685   -8.7822 N   0  0  0  0  0  0  0  0  0  0  0  0
   17.6717  -25.8765   -6.8258 C   0  0  0  0  0  0  0  0  0  0  0  0
   16.7022  -26.6181   -7.1130 O   0  0  0  0  0  0  0  0  0  0  0  0
   19.2950  -28.4739   -2.5997 C   0  0  0  0  0  0  0  0  0  0  0  0
   18.4604  -27.8792   -3.7125 C   0  0  0  0  0  0  0  0  0  0  0  0
   17.8738  -26.5447   -3.3185 C   0  0  2  0  0  0  0  0  0  0  0  0
   16.9989  -26.7698   -2.1033 C   0  0  0  0  0  0  0  0  0  0  0  0
   17.0360  -25.9332   -4.3861 C   0  0  2  0  0  0  0  0  0  0  0  0
   17.8986  -25.5314   -5.4732 N   0  0  0  0  0  0  0  0  0  0  0  0
   16.2309  -24.7806   -3.9014 C   0  0  0  0  0  0  0  0  0  0  0  0
   16.7399  -23.7398   -3.4244 O   0  0  0  0  0  0  0  0  0  0  0  0
    9.2576  -22.2689   -3.7942 N   0  0  0  0  0  0  0  0  0  0  0  0
   10.4415  -22.6661   -4.5459 C   0  0  0  0  0  0  0  0  0  0  0  0
   10.2003  -22.9318   -5.7396 O   0  0  0  0  0  0  0  0  0  0  0  0
   11.7208  -22.7193   -3.8785 C   0  0  0  0  0  0  0  0  0  0  0  0
   12.7058  -23.7639   -4.1791 C   0  0  0  0  0  0  0  0  0  0  0  0
   14.0251  -23.7292   -3.4573 C   0  0  2  0  0  0  0  0  0  0  0  0
   14.8209  -24.8564   -3.9795 N   0  0  0  0  0  0  0  0  0  0  0  0
   13.8521  -23.8227   -2.0191 C   0  0  0  0  0  0  0  0  0  0  0  0
   13.7166  -24.8484   -1.3232 O   0  0  0  0  0  0  0  0  0  0  0  0
   13.8422  -22.5977   -1.3134 O   0  0  0  0  0  0  0  0  0  0  0  0
  2  1  1  1
  3  2  1  0
  4  2  1  0
  4  6  1  0
  4  5  1  6
  6 13  1  0
  7  6  2  0
  9 10  1  0
  9  8  1  0
 10 12  1  0
 10 11  1  1
 12 14  1  0
 12 13  1  6
 14 15  2  0
 16 17  1  0
 17 19  1  0
 18 17  2  0
 19 20  1  0
 21 20  1  6
 21 23  1  0
 22 14  1  0
 22 21  1  0
 23 24  2  0
 23 25  1  0
M  END
$$$$
