RSA.pdb
     RDKit          3D

 23 22  0  0  1  0  0  0  0  0999 V2000
    8.7813  -11.6478   20.1295 N   0  0  0  0  0  0  0  0  0  0  0  0
    7.9604  -12.6787   19.5782 C   0  0  0  0  0  0  0  0  0  0  0  0
    7.8342  -12.7379   18.3159 N   0  0  0  0  0  0  0  0  0  0  0  0
    7.3236  -13.5865   20.4366 N   0  0  0  0  0  0  0  0  0  0  0  0
    7.9192  -14.8698   20.7260 C   0  0  0  0  0  0  0  0  0  0  0  0
    7.2978  -15.9468   19.8928 C   0  0  0  0  0  0  0  0  0  0  0  0
    7.8363  -17.2941   20.1408 C   0  0  0  0  0  0  0  0  0  0  0  0
    8.9837  -17.6701   19.2513 C   0  0  2  0  0  0  0  0  0  0  0  0
    8.5437  -18.3836   18.1167 N   0  0  0  0  0  0  0  0  0  0  0  0
    9.9563  -18.4088   20.0973 C   0  0  0  0  0  0  0  0  0  0  0  0
    9.7627  -19.6427   20.2591 O   0  0  0  0  0  0  0  0  0  0  0  0
    7.2659  -13.4088   17.7795 O   0  0  0  0  0  0  0  0  0  0  0  0
   13.2973  -16.5794   21.9198 C   0  0  0  0  0  0  0  0  0  0  0  0
   13.3714  -17.8362   21.3279 C   0  0  1  0  0  0  0  0  0  0  0  0
   12.0600  -18.5920   21.4815 N   0  0  0  0  0  0  0  0  0  0  0  0
   11.0743  -17.8379   20.7307 C   0  0  0  0  0  0  0  0  0  0  0  0
   11.6714  -18.7375   22.8895 O   0  0  0  0  0  0  0  0  0  0  0  0
   10.9536  -17.8016   23.3897 C   0  0  0  0  0  0  0  0  0  0  0  0
   11.7187  -21.4359   25.4679 C   0  0  2  0  0  0  0  0  0  0  0  0
   11.6245  -19.9719   25.0617 N   0  0  0  0  0  0  0  0  0  0  0  0
   12.0444  -19.8397   23.7023 C   0  0  0  0  0  0  0  0  0  0  0  0
   12.2962  -19.0640   25.9932 O   0  0  0  0  0  0  0  0  0  0  0  0
   13.2628  -18.3048   25.6983 O   0  0  0  0  0  0  0  0  0  0  0  0
  1  2  1  0
  2  3  2  0
  2  4  1  0
  4  5  1  0
  6  5  1  0
  6  7  1  0
  7  8  1  0
  8  9  1  6
 10  8  1  0
 10 15  1  0
 11 10  2  0
 12 13  1  0
 14 13  1  6
 14 15  1  0
 14 16  1  0
 16 17  2  0
 16 20  1  0
 19 18  1  6
 19 21  1  0
 20 19  1  0
 21 23  1  0
 22 21  2  0
M  END
$$$$
