RSA.pdb
     RDKit          3D

 23 22  0  0  1  0  0  0  0  0999 V2000
    7.3830  -13.6324   19.4957 N   0  0  0  0  0  0  0  0  0  0  0  0
    8.0103  -13.9737   18.2585 C   0  0  0  0  0  0  0  0  0  0  0  0
    8.4581  -13.0340   17.5308 N   0  0  0  0  0  0  0  0  0  0  0  0
    8.1129  -15.3216   17.8859 N   0  0  0  0  0  0  0  0  0  0  0  0
    8.2332  -16.3562   18.8862 C   0  0  0  0  0  0  0  0  0  0  0  0
    9.6619  -16.5441   19.2908 C   0  0  0  0  0  0  0  0  0  0  0  0
   10.0504  -15.8125   20.5075 C   0  0  0  0  0  0  0  0  0  0  0  0
   10.2094  -16.6794   21.7210 C   0  0  2  0  0  0  0  0  0  0  0  0
    9.5872  -17.9329   21.5436 N   0  0  0  0  0  0  0  0  0  0  0  0
    9.6921  -15.8991   22.8746 C   0  0  0  0  0  0  0  0  0  0  0  0
   10.0867  -14.7089   22.9920 O   0  0  0  0  0  0  0  0  0  0  0  0
    8.8759  -13.1200   16.5934 O   0  0  0  0  0  0  0  0  0  0  0  0
    7.1466  -17.5767   25.7020 C   0  0  0  0  0  0  0  0  0  0  0  0
    6.9679  -16.2429   25.3493 C   0  0  1  0  0  0  0  0  0  0  0  0
    8.2883  -15.5999   24.9518 N   0  0  0  0  0  0  0  0  0  0  0  0
    8.7975  -16.3858   23.8442 C   0  0  0  0  0  0  0  0  0  0  0  0
    9.2391  -15.5617   26.0695 O   0  0  0  0  0  0  0  0  0  0  0  0
   10.1815  -16.4294   26.0554 C   0  0  0  0  0  0  0  0  0  0  0  0
    9.7829  -13.4589   29.1425 C   0  0  2  0  0  0  0  0  0  0  0  0
   10.0659  -14.6571   28.2472 N   0  0  0  0  0  0  0  0  0  0  0  0
    9.1650  -14.6307   27.1384 C   0  0  0  0  0  0  0  0  0  0  0  0
   10.0988  -15.9299   28.9697 O   0  0  0  0  0  0  0  0  0  0  0  0
    9.1493  -16.7629   29.0178 O   0  0  0  0  0  0  0  0  0  0  0  0
  1  2  1  0
  2  3  2  0
  2  4  1  0
  4  5  1  0
  6  5  1  0
  6  7  1  0
  7  8  1  0
  8  9  1  6
 10  8  1  0
 10 15  1  0
 11 10  2  0
 12 13  1  0
 14 13  1  6
 14 15  1  0
 14 16  1  0
 16 17  2  0
 16 20  1  0
 19 18  1  6
 19 21  1  0
 20 19  1  0
 21 23  1  0
 22 21  2  0
M  END
$$$$
