RSA.pdb
     RDKit          3D

 23 22  0  0  1  0  0  0  0  0999 V2000
   10.4315  -13.4566   20.3246 N   0  0  0  0  0  0  0  0  0  0  0  0
    9.5011  -12.4331   19.9674 C   0  0  0  0  0  0  0  0  0  0  0  0
    9.8278  -11.2233   20.1736 N   0  0  0  0  0  0  0  0  0  0  0  0
    8.2666  -12.7888   19.4054 N   0  0  0  0  0  0  0  0  0  0  0  0
    7.7793  -14.1453   19.4940 C   0  0  0  0  0  0  0  0  0  0  0  0
    6.9056  -14.3212   20.6964 C   0  0  0  0  0  0  0  0  0  0  0  0
    6.5277  -15.7164   20.9744 C   0  0  0  0  0  0  0  0  0  0  0  0
    7.6856  -16.6685   21.0214 C   0  0  2  0  0  0  0  0  0  0  0  0
    7.4393  -17.8180   20.2417 N   0  0  0  0  0  0  0  0  0  0  0  0
    7.9502  -16.9493   22.4561 C   0  0  0  0  0  0  0  0  0  0  0  0
    7.0295  -17.4975   23.1180 O   0  0  0  0  0  0  0  0  0  0  0  0
    9.2592  -10.3857   19.9840 O   0  0  0  0  0  0  0  0  0  0  0  0
   10.9454  -18.2208   25.8515 C   0  0  0  0  0  0  0  0  0  0  0  0
   10.5487  -17.9396   24.5481 C   0  0  1  0  0  0  0  0  0  0  0  0
    9.3918  -16.9516   24.5289 N   0  0  0  0  0  0  0  0  0  0  0  0
    9.1469  -16.6508   23.1313 C   0  0  0  0  0  0  0  0  0  0  0  0
    9.6928  -15.7382   25.2982 O   0  0  0  0  0  0  0  0  0  0  0  0
   10.5664  -14.9427   24.8028 C   0  0  0  0  0  0  0  0  0  0  0  0
    8.2867  -13.4132   27.6063 C   0  0  2  0  0  0  0  0  0  0  0  0
    9.4906  -14.3043   27.3347 N   0  0  0  0  0  0  0  0  0  0  0  0
    9.0760  -15.4131   26.5345 C   0  0  0  0  0  0  0  0  0  0  0  0
   10.2275  -14.6735   28.5446 O   0  0  0  0  0  0  0  0  0  0  0  0
   10.3695  -15.8526   28.9776 O   0  0  0  0  0  0  0  0  0  0  0  0
  1  2  1  0
  2  3  2  0
  2  4  1  0
  4  5  1  0
  6  5  1  0
  6  7  1  0
  7  8  1  0
  8  9  1  6
 10  8  1  0
 10 15  1  0
 11 10  2  0
 12 13  1  0
 14 13  1  6
 14 15  1  0
 14 16  1  0
 16 17  2  0
 16 20  1  0
 19 18  1  6
 19 21  1  0
 20 19  1  0
 21 23  1  0
 22 21  2  0
M  END
$$$$
