RSA.pdb
     RDKit          3D

 23 22  0  0  1  0  0  0  0  0999 V2000
   11.1233  -19.3111   21.6222 N   0  0  0  0  0  0  0  0  0  0  0  0
   10.5592  -19.6131   20.3450 C   0  0  0  0  0  0  0  0  0  0  0  0
   11.2785  -20.2298   19.4993 N   0  0  0  0  0  0  0  0  0  0  0  0
    9.2416  -19.2244   20.0636 N   0  0  0  0  0  0  0  0  0  0  0  0
    8.4195  -18.6136   21.0816 C   0  0  0  0  0  0  0  0  0  0  0  0
    8.7702  -17.1690   21.2555 C   0  0  0  0  0  0  0  0  0  0  0  0
    7.9354  -16.4542   22.2346 C   0  0  0  0  0  0  0  0  0  0  0  0
    7.6774  -15.0178   21.8891 C   0  0  2  0  0  0  0  0  0  0  0  0
    8.2615  -14.6724   20.6525 N   0  0  0  0  0  0  0  0  0  0  0  0
    8.1585  -14.2086   23.0385 C   0  0  0  0  0  0  0  0  0  0  0  0
    9.3736  -13.8775   23.0450 O   0  0  0  0  0  0  0  0  0  0  0  0
   11.0067  -20.5243   18.5506 O   0  0  0  0  0  0  0  0  0  0  0  0
    5.7927  -13.5601   26.3564 C   0  0  0  0  0  0  0  0  0  0  0  0
    6.6378  -12.5177   25.9894 C   0  0  1  0  0  0  0  0  0  0  0  0
    7.8651  -13.0398   25.2573 N   0  0  0  0  0  0  0  0  0  0  0  0
    7.3636  -13.7846   24.1181 C   0  0  0  0  0  0  0  0  0  0  0  0
    8.7062  -13.8762   26.1219 O   0  0  0  0  0  0  0  0  0  0  0  0
    8.7856  -15.1192   25.8221 C   0  0  0  0  0  0  0  0  0  0  0  0
   10.9722  -13.3449   29.0785 C   0  0  2  0  0  0  0  0  0  0  0  0
   10.2694  -14.2110   28.0425 N   0  0  0  0  0  0  0  0  0  0  0  0
    9.4183  -13.3839   27.2468 C   0  0  0  0  0  0  0  0  0  0  0  0
    9.6084  -15.3848   28.6155 O   0  0  0  0  0  0  0  0  0  0  0  0
    8.3622  -15.5960   28.6019 O   0  0  0  0  0  0  0  0  0  0  0  0
  1  2  1  0
  2  3  2  0
  2  4  1  0
  4  5  1  0
  6  5  1  0
  6  7  1  0
  7  8  1  0
  8  9  1  6
 10  8  1  0
 10 15  1  0
 11 10  2  0
 12 13  1  0
 14 13  1  6
 14 15  1  0
 14 16  1  0
 16 17  2  0
 16 20  1  0
 19 18  1  6
 19 21  1  0
 20 19  1  0
 21 23  1  0
 22 21  2  0
M  END
$$$$
