RSA.pdb
     RDKit          3D

 23 22  0  0  1  0  0  0  0  0999 V2000
   12.0852  -17.0015   18.4360 N   0  0  0  0  0  0  0  0  0  0  0  0
   11.3295  -17.9053   17.6281 C   0  0  0  0  0  0  0  0  0  0  0  0
   11.8198  -19.0518   17.3870 N   0  0  0  0  0  0  0  0  0  0  0  0
   10.0814  -17.5059   17.1292 N   0  0  0  0  0  0  0  0  0  0  0  0
    9.7845  -16.1086   16.9177 C   0  0  0  0  0  0  0  0  0  0  0  0
    8.9114  -15.5769   18.0109 C   0  0  0  0  0  0  0  0  0  0  0  0
    8.4072  -14.2138   17.7775 C   0  0  0  0  0  0  0  0  0  0  0  0
    7.5985  -13.6559   18.9107 C   0  0  2  0  0  0  0  0  0  0  0  0
    7.1515  -12.3478   18.6294 N   0  0  0  0  0  0  0  0  0  0  0  0
    8.4398  -13.7643   20.1303 C   0  0  0  0  0  0  0  0  0  0  0  0
    9.4112  -12.9697   20.2360 O   0  0  0  0  0  0  0  0  0  0  0  0
   11.4306  -19.7753   16.7658 O   0  0  0  0  0  0  0  0  0  0  0  0
    7.1389  -15.7427   23.4431 C   0  0  0  0  0  0  0  0  0  0  0  0
    8.0725  -14.7160   23.5418 C   0  0  1  0  0  0  0  0  0  0  0  0
    9.0478  -14.7486   22.3746 N   0  0  0  0  0  0  0  0  0  0  0  0
    8.2361  -14.6841   21.1742 C   0  0  0  0  0  0  0  0  0  0  0  0
    9.8884  -15.9519   22.3944 O   0  0  0  0  0  0  0  0  0  0  0  0
    9.4604  -16.9657   21.7385 C   0  0  0  0  0  0  0  0  0  0  0  0
   13.3669  -16.8982   23.1392 C   0  0  2  0  0  0  0  0  0  0  0  0
   11.8856  -17.2486   23.1521 N   0  0  0  0  0  0  0  0  0  0  0  0
   11.1230  -16.0419   23.0890 C   0  0  0  0  0  0  0  0  0  0  0  0
   11.5083  -18.1462   24.2453 O   0  0  0  0  0  0  0  0  0  0  0  0
   10.6367  -17.8933   25.1252 O   0  0  0  0  0  0  0  0  0  0  0  0
  1  2  1  0
  2  3  2  0
  2  4  1  0
  4  5  1  0
  6  5  1  0
  6  7  1  0
  7  8  1  0
  8  9  1  6
 10  8  1  0
 10 15  1  0
 11 10  2  0
 12 13  1  0
 14 13  1  1
 14 15  1  0
 14 16  1  0
 16 17  2  0
 16 20  1  0
 19 18  1  6
 19 21  1  0
 20 19  1  0
 21 23  1  0
 22 21  2  0
M  END
$$$$
