RSA.pdb
     RDKit          3D

 23 22  0  0  1  0  0  0  0  0999 V2000
    7.7059  -12.5669   17.8058 N   0  0  0  0  0  0  0  0  0  0  0  0
    8.3770  -13.7166   17.2878 C   0  0  0  0  0  0  0  0  0  0  0  0
    8.0301  -14.1537   16.1469 N   0  0  0  0  0  0  0  0  0  0  0  0
    9.3888  -14.3242   18.0452 N   0  0  0  0  0  0  0  0  0  0  0  0
    9.0612  -15.2009   19.1449 C   0  0  0  0  0  0  0  0  0  0  0  0
    7.8399  -14.7210   19.8649 C   0  0  0  0  0  0  0  0  0  0  0  0
    7.8773  -14.9174   21.3231 C   0  0  0  0  0  0  0  0  0  0  0  0
    7.2937  -16.2204   21.7824 C   0  0  2  0  0  0  0  0  0  0  0  0
    6.1337  -16.5516   21.0511 N   0  0  0  0  0  0  0  0  0  0  0  0
    7.0777  -16.0994   23.2473 C   0  0  0  0  0  0  0  0  0  0  0  0
    6.1880  -15.2978   23.6371 O   0  0  0  0  0  0  0  0  0  0  0  0
    8.4927  -14.8923   15.5982 O   0  0  0  0  0  0  0  0  0  0  0  0
    8.4800  -18.8059   26.0973 C   0  0  0  0  0  0  0  0  0  0  0  0
    7.3781  -17.9722   26.2588 C   0  0  1  0  0  0  0  0  0  0  0  0
    7.6380  -16.5987   25.6581 N   0  0  0  0  0  0  0  0  0  0  0  0
    7.7890  -16.8092   24.2310 C   0  0  0  0  0  0  0  0  0  0  0  0
    8.8257  -15.9609   26.2389 O   0  0  0  0  0  0  0  0  0  0  0  0
    9.9604  -16.3020   25.7517 C   0  0  0  0  0  0  0  0  0  0  0  0
    9.6969  -13.1449   28.4958 C   0  0  2  0  0  0  0  0  0  0  0  0
    9.9459  -14.5526   27.9728 N   0  0  0  0  0  0  0  0  0  0  0  0
    8.7765  -15.0070   27.2889 C   0  0  0  0  0  0  0  0  0  0  0  0
   10.4456  -15.4743   28.9946 O   0  0  0  0  0  0  0  0  0  0  0  0
    9.8319  -16.4969   29.4134 O   0  0  0  0  0  0  0  0  0  0  0  0
  1  2  1  0
  2  3  2  0
  2  4  1  0
  4  5  1  0
  6  5  1  0
  6  7  1  0
  7  8  1  0
  8  9  1  6
 10  8  1  0
 10 15  1  0
 11 10  2  0
 12 13  1  0
 14 13  1  6
 14 15  1  0
 14 16  1  0
 16 17  2  0
 16 20  1  0
 19 18  1  6
 19 21  1  0
 20 19  1  0
 21 23  1  0
 22 21  2  0
M  END
$$$$
