RSA.pdb
     RDKit          3D

 23 22  0  0  1  0  0  0  0  0999 V2000
    9.9111  -13.5390   18.2410 N   0  0  0  0  0  0  0  0  0  0  0  0
    8.6685  -13.3103   17.5747 C   0  0  0  0  0  0  0  0  0  0  0  0
    8.6440  -13.3747   16.3065 N   0  0  0  0  0  0  0  0  0  0  0  0
    7.5228  -13.0239   18.3309 N   0  0  0  0  0  0  0  0  0  0  0  0
    7.4675  -13.3473   19.7372 C   0  0  0  0  0  0  0  0  0  0  0  0
    7.7483  -14.8002   19.9623 C   0  0  0  0  0  0  0  0  0  0  0  0
    7.6762  -15.2222   21.3706 C   0  0  0  0  0  0  0  0  0  0  0  0
    7.8364  -16.6989   21.5781 C   0  0  2  0  0  0  0  0  0  0  0  0
    6.7498  -17.4162   21.0354 N   0  0  0  0  0  0  0  0  0  0  0  0
    8.0378  -16.9065   23.0353 C   0  0  0  0  0  0  0  0  0  0  0  0
    7.0097  -16.9496   23.7615 O   0  0  0  0  0  0  0  0  0  0  0  0
    7.8342  -13.2095   15.6920 O   0  0  0  0  0  0  0  0  0  0  0  0
   10.8917  -18.4551   26.5940 C   0  0  0  0  0  0  0  0  0  0  0  0
   10.5842  -18.2538   25.2522 C   0  0  1  0  0  0  0  0  0  0  0  0
    9.4611  -17.2397   25.0941 N   0  0  0  0  0  0  0  0  0  0  0  0
    9.2856  -17.0580   23.6658 C   0  0  0  0  0  0  0  0  0  0  0  0
    9.7674  -15.9713   25.7665 O   0  0  0  0  0  0  0  0  0  0  0  0
   10.6271  -15.2100   25.1986 C   0  0  0  0  0  0  0  0  0  0  0  0
    8.3907  -13.5329   28.0147 C   0  0  2  0  0  0  0  0  0  0  0  0
    9.6016  -14.4013   27.7035 N   0  0  0  0  0  0  0  0  0  0  0  0
    9.1699  -15.5593   26.9864 C   0  0  0  0  0  0  0  0  0  0  0  0
   10.4291  -14.6896   28.8762 O   0  0  0  0  0  0  0  0  0  0  0  0
   10.9586  -13.8188   29.6238 O   0  0  0  0  0  0  0  0  0  0  0  0
  1  2  1  0
  2  3  2  0
  2  4  1  0
  4  5  1  0
  6  5  1  0
  6  7  1  0
  7  8  1  0
  8  9  1  1
 10  8  1  0
 10 15  1  0
 11 10  2  0
 12 13  1  0
 14 13  1  6
 14 15  1  0
 14 16  1  0
 16 17  2  0
 16 20  1  0
 19 18  1  6
 19 21  1  0
 20 19  1  0
 21 23  1  0
 22 21  2  0
M  END
$$$$
