RSA.pdb
     RDKit          3D

 23 22  0  0  1  0  0  0  0  0999 V2000
    0.5071  -21.5204   22.2058 N   0  0  0  0  0  0  0  0  0  0  0  0
   -0.5087  -20.5573   22.4908 C   0  0  0  0  0  0  0  0  0  0  0  0
   -0.5050  -19.4671   21.8393 N   0  0  0  0  0  0  0  0  0  0  0  0
   -1.4708  -20.8391   23.4712 N   0  0  0  0  0  0  0  0  0  0  0  0
   -2.0521  -22.1568   23.5768 C   0  0  0  0  0  0  0  0  0  0  0  0
   -2.9911  -22.2345   24.7398 C   0  0  0  0  0  0  0  0  0  0  0  0
   -3.5383  -23.5777   24.9906 C   0  0  0  0  0  0  0  0  0  0  0  0
   -2.7247  -24.4046   25.9412 C   0  0  2  0  0  0  0  0  0  0  0  0
   -2.1019  -25.4846   25.2813 N   0  0  0  0  0  0  0  0  0  0  0  0
   -3.6344  -24.8064   27.0448 C   0  0  0  0  0  0  0  0  0  0  0  0
   -4.2126  -25.9206   26.9418 O   0  0  0  0  0  0  0  0  0  0  0  0
   -1.1773  -18.6913   21.9234 O   0  0  0  0  0  0  0  0  0  0  0  0
   -3.3467  -23.3709   30.7888 C   0  0  0  0  0  0  0  0  0  0  0  0
   -4.0288  -24.5504   30.5081 C   0  0  1  0  0  0  0  0  0  0  0  0
   -4.8419  -24.4214   29.2286 N   0  0  0  0  0  0  0  0  0  0  0  0
   -3.8999  -24.0403   28.1937 C   0  0  0  0  0  0  0  0  0  0  0  0
   -5.9245  -23.4392   29.3623 O   0  0  0  0  0  0  0  0  0  0  0  0
   -5.5984  -22.2041   29.2651 C   0  0  0  0  0  0  0  0  0  0  0  0
   -9.6404  -23.5103   29.9554 C   0  0  2  0  0  0  0  0  0  0  0  0
   -8.2917  -22.8110   29.8584 N   0  0  0  0  0  0  0  0  0  0  0  0
   -7.2823  -23.7856   29.5883 C   0  0  0  0  0  0  0  0  0  0  0  0
   -8.0026  -21.9410   30.9997 O   0  0  0  0  0  0  0  0  0  0  0  0
   -7.2972  -22.2625   31.9981 O   0  0  0  0  0  0  0  0  0  0  0  0
  1  2  1  0
  2  3  2  0
  2  4  1  0
  4  5  1  0
  6  5  1  0
  6  7  1  0
  7  8  1  0
  8  9  1  6
 10  8  1  0
 10 15  1  0
 11 10  2  0
 12 13  1  0
 14 13  1  6
 14 15  1  0
 14 16  1  0
 16 17  2  0
 16 20  1  0
 19 18  1  6
 19 21  1  0
 20 19  1  0
 21 23  1  0
 22 21  2  0
M  END
$$$$
