EII.pdb
     RDKit          3D

 26 25  0  0  1  0  0  0  0  0999 V2000
   26.7180  -21.3386  -17.3878 N   0  0  0  0  0  0  0  0  0  0  0  0
   27.0948  -21.8013  -16.1013 C   0  0  1  0  0  0  0  0  0  0  0  0
   28.5539  -22.0654  -15.9982 C   0  0  0  0  0  0  0  0  0  0  0  0
   29.1127  -22.9523  -17.0406 C   0  0  0  0  0  0  0  0  0  0  0  0
   30.5451  -23.2140  -17.0294 C   0  0  0  0  0  0  0  0  0  0  0  0
   31.3450  -22.6822  -17.8009 O   0  0  0  0  0  0  0  0  0  0  0  0
   26.6141  -20.8639  -15.0510 C   0  0  0  0  0  0  0  0  0  0  0  0
   26.4380  -19.6186  -15.3578 O   0  0  0  0  0  0  0  0  0  0  0  0
   31.1096  -24.1210  -16.1031 O   0  0  0  0  0  0  0  0  0  0  0  0
   22.3400  -20.1831  -15.3479 C   0  0  0  0  0  0  0  0  0  0  0  0
   23.7274  -19.9813  -14.8220 C   0  0  0  0  0  0  0  0  0  0  0  0
   24.0305  -20.6749  -13.5579 C   0  0  2  0  0  0  0  0  0  0  0  0
   22.9555  -20.3059  -12.5479 C   0  0  0  0  0  0  0  0  0  0  0  0
   25.3577  -20.3995  -12.9148 C   0  0  2  0  0  0  0  0  0  0  0  0
   26.3237  -21.1950  -13.7222 N   0  0  0  0  0  0  0  0  0  0  0  0
   25.3804  -20.9493  -11.5505 C   0  0  0  0  0  0  0  0  0  0  0  0
   25.0558  -22.1805  -11.3764 O   0  0  0  0  0  0  0  0  0  0  0  0
   28.7269  -19.2052   -7.5038 C   0  0  0  0  0  0  0  0  0  0  0  0
   27.9054  -20.0934   -8.3749 C   0  0  0  0  0  0  0  0  0  0  0  0
   26.4647  -20.1918   -8.0367 C   0  0  2  0  0  0  0  0  0  0  0  0
   26.2150  -20.8577   -6.7003 C   0  0  0  0  0  0  0  0  0  0  0  0
   25.5875  -20.8466   -9.0610 C   0  0  2  0  0  0  0  0  0  0  0  0
   25.7300  -20.2595  -10.3781 N   0  0  0  0  0  0  0  0  0  0  0  0
   24.1738  -20.9186   -8.6349 C   0  0  0  0  0  0  0  0  0  0  0  0
   23.3359  -20.0726   -9.0118 O   0  0  0  0  0  0  0  0  0  0  0  0
   23.7593  -21.9365   -7.8028 O   0  0  0  0  0  0  0  0  0  0  0  0
  2  1  1  6
  2  3  1  0
  4  3  1  0
  4  5  1  0
  5  9  1  0
  6  5  2  0
  7  2  1  0
  8  7  2  0
 10 11  1  0
 11 12  1  0
 12 14  1  0
 12 13  1  1
 14 15  1  6
 15  7  1  0
 16 17  2  0
 16 14  1  0
 18 19  1  0
 19 20  1  0
 20 22  1  0
 20 21  1  1
 22 23  1  6
 23 16  1  0
 24 22  1  0
 25 24  2  0
 26 24  1  0
M  END
$$$$
