EII.pdb
     RDKit          3D

 26 25  0  0  1  0  0  0  0  0999 V2000
   22.1406  -21.8828  -13.2124 N   0  0  0  0  0  0  0  0  0  0  0  0
   22.0373  -20.5180  -12.8414 C   0  0  1  0  0  0  0  0  0  0  0  0
   21.4434  -20.3407  -11.4904 C   0  0  0  0  0  0  0  0  0  0  0  0
   20.1040  -20.9378  -11.3035 C   0  0  0  0  0  0  0  0  0  0  0  0
   19.0206  -20.4876  -12.1659 C   0  0  0  0  0  0  0  0  0  0  0  0
   19.1571  -19.6456  -13.0549 O   0  0  0  0  0  0  0  0  0  0  0  0
   23.3565  -19.8430  -12.9723 C   0  0  0  0  0  0  0  0  0  0  0  0
   23.4568  -18.5967  -12.6366 O   0  0  0  0  0  0  0  0  0  0  0  0
   17.7145  -21.0102  -12.0229 O   0  0  0  0  0  0  0  0  0  0  0  0
   27.6906  -21.6170  -10.7681 C   0  0  0  0  0  0  0  0  0  0  0  0
   26.6742  -20.7159  -11.3980 C   0  0  0  0  0  0  0  0  0  0  0  0
   26.8211  -20.5165  -12.8505 C   0  0  2  0  0  0  0  0  0  0  0  0
   28.1862  -19.8976  -13.1060 C   0  0  0  0  0  0  0  0  0  0  0  0
   25.8059  -19.6533  -13.5398 C   0  0  2  0  0  0  0  0  0  0  0  0
   24.5395  -20.4301  -13.4364 N   0  0  0  0  0  0  0  0  0  0  0  0
   26.1276  -19.5418  -14.9709 C   0  0  0  0  0  0  0  0  0  0  0  0
   25.9514  -20.5680  -15.7243 O   0  0  0  0  0  0  0  0  0  0  0  0
   23.8695  -16.5341  -19.3348 C   0  0  0  0  0  0  0  0  0  0  0  0
   25.1451  -17.1840  -18.9186 C   0  0  0  0  0  0  0  0  0  0  0  0
   25.3045  -17.4440  -17.4672 C   0  0  2  0  0  0  0  0  0  0  0  0
   25.2578  -16.1825  -16.6317 C   0  0  0  0  0  0  0  0  0  0  0  0
   26.5150  -18.2315  -17.0648 C   0  0  2  0  0  0  0  0  0  0  0  0
   26.6199  -18.4033  -15.6298 N   0  0  0  0  0  0  0  0  0  0  0  0
   27.7614  -17.6966  -17.6528 C   0  0  0  0  0  0  0  0  0  0  0  0
   28.0436  -17.8766  -18.8559 O   0  0  0  0  0  0  0  0  0  0  0  0
   28.6397  -16.9825  -16.8659 O   0  0  0  0  0  0  0  0  0  0  0  0
  2  1  1  1
  2  3  1  0
  4  3  1  0
  4  5  1  0
  5  9  1  0
  6  5  2  0
  7  2  1  0
  8  7  2  0
 10 11  1  0
 11 12  1  0
 12 14  1  0
 12 13  1  1
 14 15  1  6
 15  7  1  0
 16 17  2  0
 16 14  1  0
 18 19  1  0
 19 20  1  0
 20 22  1  0
 20 21  1  1
 22 23  1  1
 23 16  1  0
 24 22  1  0
 25 24  2  0
 26 24  1  0
M  END
$$$$
