EII.pdb
     RDKit          3D

 26 25  0  0  1  0  0  0  0  0999 V2000
   25.8201  -18.6023  -16.6453 N   0  0  0  0  0  0  0  0  0  0  0  0
   26.6336  -18.8189  -15.5041 C   0  0  1  0  0  0  0  0  0  0  0  0
   27.7338  -17.8254  -15.3948 C   0  0  0  0  0  0  0  0  0  0  0  0
   28.8569  -18.0170  -16.3368 C   0  0  0  0  0  0  0  0  0  0  0  0
   28.5998  -17.8521  -17.7606 C   0  0  0  0  0  0  0  0  0  0  0  0
   28.2282  -16.7946  -18.2719 O   0  0  0  0  0  0  0  0  0  0  0  0
   25.7985  -18.8756  -14.2743 C   0  0  0  0  0  0  0  0  0  0  0  0
   25.1581  -17.8131  -13.9042 O   0  0  0  0  0  0  0  0  0  0  0  0
   28.7686  -18.9317  -18.6581 O   0  0  0  0  0  0  0  0  0  0  0  0
   21.5263  -21.3214  -14.1150 C   0  0  0  0  0  0  0  0  0  0  0  0
   22.6642  -20.4062  -13.7839 C   0  0  0  0  0  0  0  0  0  0  0  0
   23.5679  -20.8811  -12.7215 C   0  0  2  0  0  0  0  0  0  0  0  0
   22.7307  -21.1758  -11.4870 C   0  0  0  0  0  0  0  0  0  0  0  0
   24.6807  -19.9690  -12.2964 C   0  0  2  0  0  0  0  0  0  0  0  0
   25.6268  -19.9911  -13.4462 N   0  0  0  0  0  0  0  0  0  0  0  0
   25.3904  -20.5436  -11.1430 C   0  0  0  0  0  0  0  0  0  0  0  0
   25.9553  -21.6903  -11.2754 O   0  0  0  0  0  0  0  0  0  0  0  0
   28.9840  -19.6658   -6.3012 C   0  0  0  0  0  0  0  0  0  0  0  0
   27.9362  -20.4853   -6.9743 C   0  0  0  0  0  0  0  0  0  0  0  0
   27.1996  -19.8265   -8.0802 C   0  0  2  0  0  0  0  0  0  0  0  0
   26.5728  -18.5104   -7.6720 C   0  0  0  0  0  0  0  0  0  0  0  0
   26.1540  -20.6545   -8.7648 C   0  0  2  0  0  0  0  0  0  0  0  0
   25.5270  -19.9614   -9.8721 N   0  0  0  0  0  0  0  0  0  0  0  0
   25.1596  -21.2070   -7.8207 C   0  0  0  0  0  0  0  0  0  0  0  0
   25.4738  -22.0709   -6.9753 O   0  0  0  0  0  0  0  0  0  0  0  0
   23.8537  -20.7677   -7.8651 O   0  0  0  0  0  0  0  0  0  0  0  0
  2  1  1  6
  2  3  1  0
  4  3  1  0
  4  5  1  0
  5  9  1  0
  6  5  2  0
  7  2  1  0
  8  7  2  0
 10 11  1  0
 11 12  1  0
 12 14  1  0
 12 13  1  1
 14 15  1  6
 15  7  1  0
 16 17  2  0
 16 14  1  0
 18 19  1  0
 19 20  1  0
 20 22  1  0
 20 21  1  1
 22 23  1  6
 23 16  1  0
 24 22  1  0
 25 24  2  0
 26 24  1  0
M  END
$$$$
