EII.pdb
     RDKit          3D

 26 25  0  0  1  0  0  0  0  0999 V2000
   16.7554  -15.4013  -17.9102 N   0  0  0  0  0  0  0  0  0  0  0  0
   17.9133  -14.7475  -17.4174 C   0  0  1  0  0  0  0  0  0  0  0  0
   19.1225  -15.0473  -18.2281 C   0  0  0  0  0  0  0  0  0  0  0  0
   19.5912  -16.4483  -18.1731 C   0  0  0  0  0  0  0  0  0  0  0  0
   20.7889  -16.7459  -17.4003 C   0  0  0  0  0  0  0  0  0  0  0  0
   21.9332  -16.6569  -17.8481 O   0  0  0  0  0  0  0  0  0  0  0  0
   17.6683  -13.2860  -17.2863 C   0  0  0  0  0  0  0  0  0  0  0  0
   17.3158  -12.6149  -18.3358 O   0  0  0  0  0  0  0  0  0  0  0  0
   20.6973  -17.1661  -16.0533 O   0  0  0  0  0  0  0  0  0  0  0  0
   13.8458  -11.0993  -14.8196 C   0  0  0  0  0  0  0  0  0  0  0  0
   15.0018  -11.2655  -15.7566 C   0  0  0  0  0  0  0  0  0  0  0  0
   16.3220  -10.9264  -15.1969 C   0  0  2  0  0  0  0  0  0  0  0  0
   16.2794   -9.4797  -14.7312 C   0  0  0  0  0  0  0  0  0  0  0  0
   17.5152  -11.0691  -16.0951 C   0  0  2  0  0  0  0  0  0  0  0  0
   17.7835  -12.5338  -16.1114 N   0  0  0  0  0  0  0  0  0  0  0  0
   18.6866  -10.4229  -15.4833 C   0  0  0  0  0  0  0  0  0  0  0  0
   19.0638  -10.8077  -14.3166 O   0  0  0  0  0  0  0  0  0  0  0  0
   23.3660   -9.7525  -17.8704 C   0  0  0  0  0  0  0  0  0  0  0  0
   22.2235   -9.9027  -16.9244 C   0  0  0  0  0  0  0  0  0  0  0  0
   21.8076   -8.6772  -16.2000 C   0  0  2  0  0  0  0  0  0  0  0  0
   22.9167   -8.0820  -15.3591 C   0  0  0  0  0  0  0  0  0  0  0  0
   20.5810   -8.7969  -15.3464 C   0  0  2  0  0  0  0  0  0  0  0  0
   19.4666   -9.4008  -16.0486 N   0  0  0  0  0  0  0  0  0  0  0  0
   20.2072   -7.5174  -14.7074 C   0  0  0  0  0  0  0  0  0  0  0  0
   19.4745   -6.6891  -15.2875 O   0  0  0  0  0  0  0  0  0  0  0  0
   20.6720   -7.2203  -13.4439 O   0  0  0  0  0  0  0  0  0  0  0  0
  2  1  1  6
  2  3  1  0
  4  3  1  0
  4  5  1  0
  5  9  1  0
  6  5  2  0
  7  2  1  0
  8  7  2  0
 10 11  1  0
 11 12  1  0
 12 14  1  0
 12 13  1  6
 14 15  1  1
 15  7  1  0
 16 17  2  0
 16 14  1  0
 18 19  1  0
 19 20  1  0
 20 22  1  0
 20 21  1  1
 22 23  1  6
 23 16  1  0
 24 22  1  0
 25 24  2  0
 26 24  1  0
M  END
$$$$
