EII.pdb
     RDKit          3D

 26 25  0  0  1  0  0  0  0  0999 V2000
   19.5022  -19.7525  -15.0419 N   0  0  0  0  0  0  0  0  0  0  0  0
   20.8257  -19.2582  -14.9189 C   0  0  1  0  0  0  0  0  0  0  0  0
   20.8627  -17.8408  -14.4727 C   0  0  0  0  0  0  0  0  0  0  0  0
   20.9554  -16.8379  -15.5548 C   0  0  0  0  0  0  0  0  0  0  0  0
   21.9417  -17.0451  -16.6058 C   0  0  0  0  0  0  0  0  0  0  0  0
   21.6740  -17.5105  -17.7147 O   0  0  0  0  0  0  0  0  0  0  0  0
   21.6331  -20.1483  -14.0421 C   0  0  0  0  0  0  0  0  0  0  0  0
   21.0494  -20.7512  -13.0563 O   0  0  0  0  0  0  0  0  0  0  0  0
   23.3007  -16.7125  -16.4013 O   0  0  0  0  0  0  0  0  0  0  0  0
   23.7311  -24.3368  -15.9322 C   0  0  0  0  0  0  0  0  0  0  0  0
   23.1764  -23.3142  -14.9895 C   0  0  0  0  0  0  0  0  0  0  0  0
   24.1752  -22.4490  -14.3376 C   0  0  2  0  0  0  0  0  0  0  0  0
   25.1747  -23.3412  -13.6188 C   0  0  0  0  0  0  0  0  0  0  0  0
   23.6790  -21.4441  -13.3402 C   0  0  2  0  0  0  0  0  0  0  0  0
   23.0019  -20.4113  -14.1724 N   0  0  0  0  0  0  0  0  0  0  0  0
   24.8166  -20.7868  -12.6785 C   0  0  0  0  0  0  0  0  0  0  0  0
   25.4005  -19.8124  -13.2794 O   0  0  0  0  0  0  0  0  0  0  0  0
   25.4934  -20.2556   -7.1616 C   0  0  0  0  0  0  0  0  0  0  0  0
   25.4710  -20.0263   -8.6345 C   0  0  0  0  0  0  0  0  0  0  0  0
   26.6264  -20.5574   -9.3977 C   0  0  2  0  0  0  0  0  0  0  0  0
   27.9476  -19.9600   -8.9628 C   0  0  0  0  0  0  0  0  0  0  0  0
   26.5342  -20.4613  -10.8909 C   0  0  2  0  0  0  0  0  0  0  0  0
   25.3539  -21.1125  -11.4223 N   0  0  0  0  0  0  0  0  0  0  0  0
   27.7693  -20.9128  -11.5661 C   0  0  0  0  0  0  0  0  0  0  0  0
   28.0062  -22.1254  -11.7480 O   0  0  0  0  0  0  0  0  0  0  0  0
   28.6876  -19.9846  -12.0085 O   0  0  0  0  0  0  0  0  0  0  0  0
  2  1  1  1
  2  3  1  0
  4  3  1  0
  4  5  1  0
  5  9  1  0
  6  5  2  0
  7  2  1  0
  8  7  2  0
 10 11  1  0
 11 12  1  0
 12 14  1  0
 12 13  1  1
 14 15  1  6
 15  7  1  0
 16 17  2  0
 16 14  1  0
 18 19  1  0
 19 20  1  0
 20 22  1  0
 20 21  1  1
 22 23  1  6
 23 16  1  0
 24 22  1  0
 25 24  2  0
 26 24  1  0
M  END
$$$$
