TFC.pdb
     RDKit          3D

 25 25  0  0  1  0  0  0  0  0999 V2000
   28.4075  -19.2057  -12.8589 C   0  0  0  0  0  0  0  0  0  0  0  0
   29.2641  -20.4596  -12.8671 C   0  0  1  0  0  0  0  0  0  0  0  0
   30.4398  -20.2474  -13.5509 O   0  0  0  0  0  0  0  0  0  0  0  0
   29.5864  -20.8010  -11.4312 C   0  0  2  0  0  0  0  0  0  0  0  0
   30.4799  -21.9648  -11.4362 N   0  0  0  0  0  0  0  0  0  0  0  0
   28.3788  -21.0844  -10.6141 C   0  0  0  0  0  0  0  0  0  0  0  0
   27.8025  -22.2067  -10.6311 O   0  0  0  0  0  0  0  0  0  0  0  0
   27.8501  -20.0864   -9.7924 N   0  0  0  0  0  0  0  0  0  0  0  0
   26.5500  -20.1805   -9.1321 C   0  0  1  0  0  0  0  0  0  0  0  0
   26.5488  -19.0566   -8.0838 C   0  0  0  0  0  0  0  0  0  0  0  0
   27.2478  -19.4804   -6.8584 C   0  0  0  0  0  0  0  0  0  0  0  0
   27.1920  -20.8086   -6.4451 C   0  0  0  0  0  0  0  0  0  0  0  0
   27.8385  -21.2349   -5.2991 C   0  0  0  0  0  0  0  0  0  0  0  0
   28.5467  -20.3093   -4.5660 C   0  0  0  0  0  0  0  0  0  0  0  0
   28.5948  -18.9963   -4.9853 C   0  0  0  0  0  0  0  0  0  0  0  0
   27.9585  -18.5473   -6.1244 C   0  0  0  0  0  0  0  0  0  0  0  0
   25.4398  -19.9977  -10.0740 C   0  0  0  0  0  0  0  0  0  0  0  0
   25.6425  -19.3553  -11.1330 O   0  0  0  0  0  0  0  0  0  0  0  0
   24.1367  -20.5094   -9.8568 N   0  0  0  0  0  0  0  0  0  0  0  0
   23.1297  -20.6255  -10.8847 C   0  0  1  0  0  0  0  0  0  0  0  0
   23.4762  -21.7929  -11.8093 C   0  0  0  0  0  0  0  0  0  0  0  0
   22.1530  -22.0647  -12.9933 S   0  0  0  0  0  0  0  0  0  0  0  0
   21.8170  -20.9435  -10.2477 C   0  0  0  0  0  0  0  0  0  0  0  0
   21.7785  -21.4028   -9.0770 O   0  0  0  0  0  0  0  0  0  0  0  0
   20.6032  -20.7527  -10.9000 O   0  0  0  0  0  0  0  0  0  0  0  0
  2  1  1  1
  3  2  1  0
  4  2  1  0
  4  6  1  0
  4  5  1  6
  6  7  2  0
  8  6  1  0
  8  9  1  0
  9 10  1  1
 10 11  1  0
 11 16  2  0
 12 11  1  0
 12 13  2  0
 13 14  1  0
 14 15  2  0
 16 15  1  0
 17  9  1  0
 17 18  2  0
 19 17  1  0
 20 19  1  0
 20 23  1  0
 20 21  1  6
 22 21  1  0
 23 25  1  0
 24 23  2  0
M  END
$$$$
