TFC.pdb
     RDKit          3D

 25 25  0  0  1  0  0  0  0  0999 V2000
   26.5635  -18.1927  -14.6600 C   0  0  0  0  0  0  0  0  0  0  0  0
   27.5932  -19.2351  -15.0592 C   0  0  1  0  0  0  0  0  0  0  0  0
   28.6946  -18.6431  -15.6347 O   0  0  0  0  0  0  0  0  0  0  0  0
   28.0235  -19.9553  -13.8029 C   0  0  2  0  0  0  0  0  0  0  0  0
   29.1169  -20.8664  -14.1599 N   0  0  0  0  0  0  0  0  0  0  0  0
   26.9190  -20.7080  -13.1549 C   0  0  0  0  0  0  0  0  0  0  0  0
   26.5421  -21.8390  -13.5677 O   0  0  0  0  0  0  0  0  0  0  0  0
   26.2649  -20.1604  -12.0490 N   0  0  0  0  0  0  0  0  0  0  0  0
   25.1703  -20.8215  -11.3418 C   0  0  1  0  0  0  0  0  0  0  0  0
   24.9750  -20.0083  -10.0524 C   0  0  0  0  0  0  0  0  0  0  0  0
   26.1306  -20.1650   -9.1525 C   0  0  0  0  0  0  0  0  0  0  0  0
   26.5536  -19.0979   -8.3648 C   0  0  0  0  0  0  0  0  0  0  0  0
   27.6352  -19.2162   -7.5109 C   0  0  0  0  0  0  0  0  0  0  0  0
   28.2935  -20.4241   -7.4541 C   0  0  0  0  0  0  0  0  0  0  0  0
   27.8653  -21.4742   -8.2392 C   0  0  0  0  0  0  0  0  0  0  0  0
   26.7896  -21.3805   -9.0982 C   0  0  0  0  0  0  0  0  0  0  0  0
   23.9322  -20.8301  -12.1293 C   0  0  0  0  0  0  0  0  0  0  0  0
   23.5934  -19.7864  -12.7383 O   0  0  0  0  0  0  0  0  0  0  0  0
   23.0858  -21.9604  -12.2447 N   0  0  0  0  0  0  0  0  0  0  0  0
   21.9004  -22.0048  -13.0675 C   0  0  1  0  0  0  0  0  0  0  0  0
   21.4538  -23.4568  -13.2414 C   0  0  0  0  0  0  0  0  0  0  0  0
   19.8467  -23.5233  -14.0410 S   0  0  0  0  0  0  0  0  0  0  0  0
   20.7944  -21.2851  -12.3685 C   0  0  0  0  0  0  0  0  0  0  0  0
   20.7979  -21.1886  -11.1140 O   0  0  0  0  0  0  0  0  0  0  0  0
   19.7328  -20.7007  -13.0517 O   0  0  0  0  0  0  0  0  0  0  0  0
  2  1  1  1
  3  2  1  0
  4  2  1  0
  4  6  1  0
  4  5  1  6
  6  7  2  0
  8  6  1  0
  8  9  1  0
  9 10  1  1
 10 11  1  0
 11 16  2  0
 12 11  1  0
 12 13  2  0
 13 14  1  0
 14 15  2  0
 16 15  1  0
 17  9  1  0
 17 18  2  0
 19 17  1  0
 20 19  1  0
 20 23  1  0
 20 21  1  1
 22 21  1  0
 23 25  1  0
 24 23  2  0
M  END
$$$$
