TFC.pdb
     RDKit          3D

 25 25  0  0  1  0  0  0  0  0999 V2000
   28.6707  -20.2803  -19.4765 C   0  0  0  0  0  0  0  0  0  0  0  0
   27.7300  -20.7150  -18.3664 C   0  0  1  0  0  0  0  0  0  0  0  0
   26.7954  -21.6098  -18.8363 O   0  0  0  0  0  0  0  0  0  0  0  0
   28.5625  -21.3891  -17.3012 C   0  0  2  0  0  0  0  0  0  0  0  0
   29.1666  -22.5872  -17.8949 N   0  0  0  0  0  0  0  0  0  0  0  0
   27.7793  -21.7540  -16.0931 C   0  0  0  0  0  0  0  0  0  0  0  0
   27.2524  -22.8915  -15.9504 O   0  0  0  0  0  0  0  0  0  0  0  0
   27.6111  -20.8186  -15.0696 N   0  0  0  0  0  0  0  0  0  0  0  0
   26.8261  -21.0664  -13.8622 C   0  0  1  0  0  0  0  0  0  0  0  0
   27.3547  -20.0624  -12.8255 C   0  0  0  0  0  0  0  0  0  0  0  0
   26.6888  -20.2504  -11.5251 C   0  0  0  0  0  0  0  0  0  0  0  0
   27.2401  -21.1043  -10.5739 C   0  0  0  0  0  0  0  0  0  0  0  0
   26.6369  -21.3001   -9.3447 C   0  0  0  0  0  0  0  0  0  0  0  0
   25.4666  -20.6261   -9.0767 C   0  0  0  0  0  0  0  0  0  0  0  0
   24.9298  -19.7828  -10.0269 C   0  0  0  0  0  0  0  0  0  0  0  0
   25.5128  -19.5714  -11.2595 C   0  0  0  0  0  0  0  0  0  0  0  0
   25.3912  -20.8572  -14.0862 C   0  0  0  0  0  0  0  0  0  0  0  0
   25.0059  -19.7664  -14.5728 O   0  0  0  0  0  0  0  0  0  0  0  0
   24.4023  -21.8251  -13.7822 N   0  0  0  0  0  0  0  0  0  0  0  0
   22.9858  -21.6256  -13.9771 C   0  0  1  0  0  0  0  0  0  0  0  0
   22.3051  -22.9773  -14.1953 C   0  0  0  0  0  0  0  0  0  0  0  0
   23.1795  -23.9205  -15.4492 S   0  0  0  0  0  0  0  0  0  0  0  0
   22.4015  -21.0339  -12.7368 C   0  0  0  0  0  0  0  0  0  0  0  0
   21.2093  -20.6319  -12.7304 O   0  0  0  0  0  0  0  0  0  0  0  0
   23.1273  -20.9012  -11.5574 O   0  0  0  0  0  0  0  0  0  0  0  0
  2  1  1  6
  3  2  1  0
  4  2  1  0
  4  6  1  0
  4  5  1  6
  6  7  2  0
  8  6  1  0
  8  9  1  0
  9 10  1  1
 10 11  1  0
 11 16  2  0
 12 11  1  0
 12 13  2  0
 13 14  1  0
 14 15  2  0
 16 15  1  0
 17  9  1  0
 17 18  2  0
 19 17  1  0
 20 19  1  0
 20 23  1  0
 20 21  1  1
 22 21  1  0
 23 25  1  0
 24 23  2  0
M  END
$$$$
