TFC.pdb
     RDKit          3D

 25 25  0  0  1  0  0  0  0  0999 V2000
   21.5976   -8.6995  -20.9030 C   0  0  0  0  0  0  0  0  0  0  0  0
   21.8650  -10.1388  -20.4993 C   0  0  1  0  0  0  0  0  0  0  0  0
   22.3087  -10.8764  -21.5735 O   0  0  0  0  0  0  0  0  0  0  0  0
   22.9396  -10.1225  -19.4378 C   0  0  2  0  0  0  0  0  0  0  0  0
   23.2296  -11.5133  -19.0711 N   0  0  0  0  0  0  0  0  0  0  0  0
   22.5571   -9.3430  -18.2327 C   0  0  0  0  0  0  0  0  0  0  0  0
   21.8407   -9.8299  -17.3153 O   0  0  0  0  0  0  0  0  0  0  0  0
   22.9974   -8.0249  -18.0932 N   0  0  0  0  0  0  0  0  0  0  0  0
   22.6534   -7.1678  -16.9608 C   0  0  1  0  0  0  0  0  0  0  0  0
   24.0001   -6.7052  -16.3826 C   0  0  0  0  0  0  0  0  0  0  0  0
   24.7614   -7.8465  -15.8462 C   0  0  0  0  0  0  0  0  0  0  0  0
   25.9755   -8.2102  -16.4223 C   0  0  0  0  0  0  0  0  0  0  0  0
   26.7117   -9.2771  -15.9397 C   0  0  0  0  0  0  0  0  0  0  0  0
   26.2147   -9.9810  -14.8657 C   0  0  0  0  0  0  0  0  0  0  0  0
   25.0108   -9.6113  -14.3034 C   0  0  0  0  0  0  0  0  0  0  0  0
   24.2588   -8.5514  -14.7669 C   0  0  0  0  0  0  0  0  0  0  0  0
   21.8519   -6.0092  -17.3712 C   0  0  0  0  0  0  0  0  0  0  0  0
   22.2073   -5.3524  -18.3797 O   0  0  0  0  0  0  0  0  0  0  0  0
   20.6862   -5.5826  -16.6882 N   0  0  0  0  0  0  0  0  0  0  0  0
   19.8208   -4.5218  -17.1465 C   0  0  1  0  0  0  0  0  0  0  0  0
   18.4093   -5.0702  -17.3585 C   0  0  0  0  0  0  0  0  0  0  0  0
   18.3781   -6.1840  -18.7674 S   0  0  0  0  0  0  0  0  0  0  0  0
   19.7310   -3.4736  -16.0868 C   0  0  0  0  0  0  0  0  0  0  0  0
   20.2821   -3.6558  -14.9705 O   0  0  0  0  0  0  0  0  0  0  0  0
   19.0514   -2.2746  -16.2762 O   0  0  0  0  0  0  0  0  0  0  0  0
  2  1  1  6
  3  2  1  0
  4  2  1  0
  4  6  1  0
  4  5  1  1
  6  7  2  0
  8  6  1  0
  8  9  1  0
  9 10  1  6
 10 11  1  0
 11 16  2  0
 12 11  1  0
 12 13  2  0
 13 14  1  0
 14 15  2  0
 16 15  1  0
 17  9  1  0
 17 18  2  0
 19 17  1  0
 20 19  1  0
 20 23  1  0
 20 21  1  1
 22 21  1  0
 23 25  1  0
 24 23  2  0
M  END
$$$$
