TFC.pdb
     RDKit          3D

 25 25  0  0  1  0  0  0  0  0999 V2000
   27.4654  -16.2483  -19.0295 C   0  0  0  0  0  0  0  0  0  0  0  0
   26.7135  -17.1695  -18.0849 C   0  0  1  0  0  0  0  0  0  0  0  0
   25.5157  -17.5665  -18.6351 O   0  0  0  0  0  0  0  0  0  0  0  0
   27.5755  -18.3885  -17.8545 C   0  0  2  0  0  0  0  0  0  0  0  0
   27.7353  -19.0751  -19.1414 N   0  0  0  0  0  0  0  0  0  0  0  0
   27.0118  -19.3186  -16.8429 C   0  0  0  0  0  0  0  0  0  0  0  0
   26.2720  -20.2903  -17.1600 O   0  0  0  0  0  0  0  0  0  0  0  0
   27.3009  -19.1266  -15.4901 N   0  0  0  0  0  0  0  0  0  0  0  0
   26.6200  -19.8298  -14.4050 C   0  0  1  0  0  0  0  0  0  0  0  0
   27.3654  -19.4151  -13.1266 C   0  0  0  0  0  0  0  0  0  0  0  0
   26.7240  -19.9938  -11.9334 C   0  0  0  0  0  0  0  0  0  0  0  0
   26.7035  -21.3737  -11.7500 C   0  0  0  0  0  0  0  0  0  0  0  0
   26.1086  -21.9448  -10.6396 C   0  0  0  0  0  0  0  0  0  0  0  0
   25.5301  -21.1123   -9.7079 C   0  0  0  0  0  0  0  0  0  0  0  0
   25.5566  -19.7469   -9.9004 C   0  0  0  0  0  0  0  0  0  0  0  0
   26.1437  -19.1540  -10.9994 C   0  0  0  0  0  0  0  0  0  0  0  0
   25.2039  -19.4568  -14.3109 C   0  0  0  0  0  0  0  0  0  0  0  0
   24.9015  -18.2426  -14.2155 O   0  0  0  0  0  0  0  0  0  0  0  0
   24.1445  -20.3974  -14.3215 N   0  0  0  0  0  0  0  0  0  0  0  0
   22.7554  -20.0559  -14.1263 C   0  0  1  0  0  0  0  0  0  0  0  0
   21.9160  -20.6725  -15.2457 C   0  0  0  0  0  0  0  0  0  0  0  0
   22.2078  -19.8076  -16.7927 S   0  0  0  0  0  0  0  0  0  0  0  0
   22.2823  -20.6528  -12.8418 C   0  0  0  0  0  0  0  0  0  0  0  0
   22.8473  -21.6757  -12.3754 O   0  0  0  0  0  0  0  0  0  0  0  0
   21.2212  -20.1215  -12.1161 O   0  0  0  0  0  0  0  0  0  0  0  0
  2  1  1  6
  3  2  1  0
  4  2  1  0
  4  6  1  0
  4  5  1  6
  6  7  2  0
  8  6  1  0
  8  9  1  0
  9 10  1  1
 10 11  1  0
 11 16  2  0
 12 11  1  0
 12 13  2  0
 13 14  1  0
 14 15  2  0
 16 15  1  0
 17  9  1  0
 17 18  2  0
 19 17  1  0
 20 19  1  0
 20 23  1  0
 20 21  1  6
 22 21  1  0
 23 25  1  0
 24 23  2  0
M  END
$$$$
