TFC.pdb
     RDKit          3D

 25 25  0  0  1  0  0  0  0  0999 V2000
   25.6389  -18.8195  -12.5756 C   0  0  0  0  0  0  0  0  0  0  0  0
   25.9178  -20.1250  -13.2995 C   0  0  1  0  0  0  0  0  0  0  0  0
   26.1579  -19.9041  -14.6368 O   0  0  0  0  0  0  0  0  0  0  0  0
   27.1488  -20.7387  -12.6748 C   0  0  2  0  0  0  0  0  0  0  0  0
   27.5010  -21.9308  -13.4543 N   0  0  0  0  0  0  0  0  0  0  0  0
   26.9606  -21.0970  -11.2456 C   0  0  0  0  0  0  0  0  0  0  0  0
   26.3567  -22.1456  -10.8883 O   0  0  0  0  0  0  0  0  0  0  0  0
   27.4635  -20.2564  -10.2500 N   0  0  0  0  0  0  0  0  0  0  0  0
   27.2618  -20.4782   -8.8199 C   0  0  1  0  0  0  0  0  0  0  0  0
   28.3323  -19.6218   -8.1250 C   0  0  0  0  0  0  0  0  0  0  0  0
   28.2074  -19.7117   -6.6600 C   0  0  0  0  0  0  0  0  0  0  0  0
   28.7172  -20.8149   -5.9809 C   0  0  0  0  0  0  0  0  0  0  0  0
   28.6143  -20.9260   -4.6060 C   0  0  0  0  0  0  0  0  0  0  0  0
   27.9905  -19.9124   -3.9137 C   0  0  0  0  0  0  0  0  0  0  0  0
   27.4894  -18.8244   -4.5974 C   0  0  0  0  0  0  0  0  0  0  0  0
   27.5799  -18.6912   -5.9678 C   0  0  0  0  0  0  0  0  0  0  0  0
   25.9220  -20.0693   -8.3832 C   0  0  0  0  0  0  0  0  0  0  0  0
   25.4317  -19.0091   -8.8421 O   0  0  0  0  0  0  0  0  0  0  0  0
   25.1390  -20.8091   -7.4630 N   0  0  0  0  0  0  0  0  0  0  0  0
   23.6956  -20.7999   -7.4358 C   0  0  1  0  0  0  0  0  0  0  0  0
   23.1565  -21.3452   -8.7586 C   0  0  0  0  0  0  0  0  0  0  0  0
   21.3629  -21.4311   -8.7130 S   0  0  0  0  0  0  0  0  0  0  0  0
   23.2223  -21.7169   -6.3564 C   0  0  0  0  0  0  0  0  0  0  0  0
   22.2665  -21.3758   -5.6126 O   0  0  0  0  0  0  0  0  0  0  0  0
   23.7996  -22.9613   -6.1255 O   0  0  0  0  0  0  0  0  0  0  0  0
  2  1  1  1
  3  2  1  0
  4  2  1  0
  4  6  1  0
  4  5  1  6
  6  7  2  0
  8  6  1  0
  8  9  1  0
  9 10  1  1
 10 11  1  0
 11 16  2  0
 12 11  1  0
 12 13  2  0
 13 14  1  0
 14 15  2  0
 16 15  1  0
 17  9  1  0
 17 18  2  0
 19 17  1  0
 20 19  1  0
 20 23  1  0
 20 21  1  6
 22 21  1  0
 23 25  1  0
 24 23  2  0
M  END
$$$$
