TFC.pdb
     RDKit          3D

 25 25  0  0  1  0  0  0  0  0999 V2000
   28.6227  -19.8300  -18.3474 C   0  0  0  0  0  0  0  0  0  0  0  0
   27.5294  -20.0675  -17.3205 C   0  0  1  0  0  0  0  0  0  0  0  0
   26.3010  -20.1904  -17.9296 O   0  0  0  0  0  0  0  0  0  0  0  0
   27.8516  -21.3564  -16.6014 C   0  0  2  0  0  0  0  0  0  0  0  0
   27.7383  -22.4518  -17.5710 N   0  0  0  0  0  0  0  0  0  0  0  0
   26.9678  -21.6099  -15.4348 C   0  0  0  0  0  0  0  0  0  0  0  0
   25.9276  -22.3189  -15.5197 O   0  0  0  0  0  0  0  0  0  0  0  0
   27.2843  -21.0530  -14.1937 N   0  0  0  0  0  0  0  0  0  0  0  0
   26.4224  -21.1449  -13.0173 C   0  0  1  0  0  0  0  0  0  0  0  0
   27.2631  -20.5874  -11.8579 C   0  0  0  0  0  0  0  0  0  0  0  0
   26.4871  -20.5728  -10.6059 C   0  0  0  0  0  0  0  0  0  0  0  0
   26.4266  -19.4159   -9.8339 C   0  0  0  0  0  0  0  0  0  0  0  0
   25.7058  -19.3731   -8.6541 C   0  0  0  0  0  0  0  0  0  0  0  0
   25.0414  -20.5104   -8.2531 C   0  0  0  0  0  0  0  0  0  0  0  0
   25.1086  -21.6506   -9.0262 C   0  0  0  0  0  0  0  0  0  0  0  0
   25.8207  -21.7176  -10.2062 C   0  0  0  0  0  0  0  0  0  0  0  0
   25.1914  -20.3619  -13.1745 C   0  0  0  0  0  0  0  0  0  0  0  0
   25.2579  -19.2279  -13.7081 O   0  0  0  0  0  0  0  0  0  0  0  0
   23.9165  -20.8152  -12.7547 N   0  0  0  0  0  0  0  0  0  0  0  0
   22.6800  -20.1201  -13.0236 C   0  0  1  0  0  0  0  0  0  0  0  0
   22.3438  -20.2332  -14.5109 C   0  0  0  0  0  0  0  0  0  0  0  0
   20.6789  -19.6345  -14.8211 S   0  0  0  0  0  0  0  0  0  0  0  0
   21.5740  -20.7834  -12.2708 C   0  0  0  0  0  0  0  0  0  0  0  0
   21.5349  -22.0378  -12.1818 O   0  0  0  0  0  0  0  0  0  0  0  0
   20.5585  -20.0661  -11.6468 O   0  0  0  0  0  0  0  0  0  0  0  0
  2  1  1  6
  3  2  1  0
  4  2  1  0
  4  6  1  0
  4  5  1  6
  6  7  2  0
  8  6  1  0
  8  9  1  0
  9 10  1  1
 10 11  1  0
 11 16  2  0
 12 11  1  0
 12 13  2  0
 13 14  1  0
 14 15  2  0
 16 15  1  0
 17  9  1  0
 17 18  2  0
 19 17  1  0
 20 19  1  0
 20 23  1  0
 20 21  1  6
 22 21  1  0
 23 25  1  0
 24 23  2  0
M  END
$$$$
