MVE.pdb
     RDKit          3D

 25 24  0  0  1  0  0  0  0  0999 V2000
   13.3566  -15.7988    7.8506 C   0  0  0  0  0  0  0  0  0  0  0  0
   12.6862  -14.2500    7.3336 S   0  0  0  0  0  0  0  0  0  0  0  0
   13.7976  -13.0488    6.6513 C   0  0  0  0  0  0  0  0  0  0  0  0
   15.1359  -13.5581    6.3239 C   0  0  0  0  0  0  0  0  0  0  0  0
   16.1331  -12.6476    5.7370 C   0  0  2  0  0  0  0  0  0  0  0  0
   15.8692  -12.1124    4.4485 N   0  0  0  0  0  0  0  0  0  0  0  0
   17.4842  -13.2407    5.8060 C   0  0  0  0  0  0  0  0  0  0  0  0
   18.0651  -13.8159    4.8363 O   0  0  0  0  0  0  0  0  0  0  0  0
   20.4631  -11.5692    6.0343 C   0  0  0  0  0  0  0  0  0  0  0  0
   20.4640  -12.4477    7.2576 C   0  0  1  0  0  0  0  0  0  0  0  0
   19.9819  -11.6337    8.4201 C   0  0  0  0  0  0  0  0  0  0  0  0
   19.6250  -13.6962    7.0857 C   0  0  2  0  0  0  0  0  0  0  0  0
   18.2373  -13.1943    7.0168 N   0  0  0  0  0  0  0  0  0  0  0  0
   19.7039  -14.5837    8.2528 C   0  0  0  0  0  0  0  0  0  0  0  0
   19.0077  -14.2901    9.2884 O   0  0  0  0  0  0  0  0  0  0  0  0
   20.4869  -15.7517    8.3446 N   0  0  0  0  0  0  0  0  0  0  0  0
   20.4441  -16.5821    9.5466 C   0  0  1  0  0  0  0  0  0  0  0  0
   20.4110  -18.0236    9.1417 C   0  0  0  0  0  0  0  0  0  0  0  0
   20.3256  -19.0090   10.2519 C   0  0  0  0  0  0  0  0  0  0  0  0
   21.4558  -20.0029   10.1332 C   0  0  0  0  0  0  0  0  0  0  0  0
   22.1031  -20.0800    9.0617 O   0  0  0  0  0  0  0  0  0  0  0  0
   21.5164  -16.2198   10.4837 C   0  0  0  0  0  0  0  0  0  0  0  0
   21.3143  -16.2858   11.7212 O   0  0  0  0  0  0  0  0  0  0  0  0
   21.8145  -20.8456   11.1709 O   0  0  0  0  0  0  0  0  0  0  0  0
   22.7579  -15.8041   10.0536 O   0  0  0  0  0  0  0  0  0  0  0  0
  2  1  1  0
  3  2  1  0
  4  3  1  0
  5  7  1  0
  5  4  1  0
  5  6  1  6
  7  8  2  0
 10 12  1  0
 10  9  1  6
 11 10  1  0
 12 13  1  1
 13  7  1  0
 14 15  2  0
 14 12  1  0
 16 14  1  0
 17 22  1  0
 17 16  1  0
 17 18  1  6
 19 18  1  0
 20 19  1  0
 21 20  2  0
 22 25  1  0
 23 22  2  0
 24 20  1  0
M  END
$$$$
