MVE.pdb
     RDKit          3D

 25 24  0  0  1  0  0  0  0  0999 V2000
   19.9943  -18.4234  -19.2660 C   0  0  0  0  0  0  0  0  0  0  0  0
   20.4334  -20.0279  -18.6756 S   0  0  0  0  0  0  0  0  0  0  0  0
   21.8916  -20.1766  -17.6780 C   0  0  0  0  0  0  0  0  0  0  0  0
   22.2762  -18.9564  -16.9565 C   0  0  0  0  0  0  0  0  0  0  0  0
   23.4771  -18.9674  -16.1046 C   0  0  2  0  0  0  0  0  0  0  0  0
   23.6255  -20.0318  -15.1767 N   0  0  0  0  0  0  0  0  0  0  0  0
   23.6646  -17.6555  -15.4520 C   0  0  0  0  0  0  0  0  0  0  0  0
   23.3950  -17.4144  -14.2363 O   0  0  0  0  0  0  0  0  0  0  0  0
   25.9473  -13.3167  -15.5478 C   0  0  0  0  0  0  0  0  0  0  0  0
   25.7011  -14.7673  -15.8695 C   0  0  1  0  0  0  0  0  0  0  0  0
   26.6772  -15.5935  -15.0877 C   0  0  0  0  0  0  0  0  0  0  0  0
   24.2778  -15.1991  -15.5867 C   0  0  2  0  0  0  0  0  0  0  0  0
   24.1814  -16.5462  -16.1852 N   0  0  0  0  0  0  0  0  0  0  0  0
   23.2936  -14.3523  -16.2724 C   0  0  0  0  0  0  0  0  0  0  0  0
   22.8230  -14.7537  -17.3953 O   0  0  0  0  0  0  0  0  0  0  0  0
   22.8061  -13.1158  -15.8041 N   0  0  0  0  0  0  0  0  0  0  0  0
   21.6216  -12.5078  -16.4070 C   0  0  1  0  0  0  0  0  0  0  0  0
   20.4451  -13.4070  -16.1832 C   0  0  0  0  0  0  0  0  0  0  0  0
   19.1377  -12.9031  -16.6808 C   0  0  0  0  0  0  0  0  0  0  0  0
   18.0434  -13.8678  -16.2920 C   0  0  0  0  0  0  0  0  0  0  0  0
   18.3074  -14.8312  -15.5337 O   0  0  0  0  0  0  0  0  0  0  0  0
   21.4447  -11.1212  -15.9540 C   0  0  0  0  0  0  0  0  0  0  0  0
   22.0721  -10.7068  -14.9483 O   0  0  0  0  0  0  0  0  0  0  0  0
   16.7416  -13.7335  -16.7425 O   0  0  0  0  0  0  0  0  0  0  0  0
   20.6045  -10.2396  -16.5990 O   0  0  0  0  0  0  0  0  0  0  0  0
  2  1  1  0
  3  2  1  0
  4  3  1  0
  5  7  1  0
  5  4  1  0
  5  6  1  1
  7  8  2  0
 10 12  1  0
 10  9  1  1
 11 10  1  0
 12 13  1  6
 13  7  1  0
 14 15  2  0
 14 12  1  0
 16 14  1  0
 17 22  1  0
 17 16  1  0
 17 18  1  1
 19 18  1  0
 20 19  1  0
 21 20  2  0
 22 25  1  0
 23 22  2  0
 24 20  1  0
M  END
$$$$
