MVE.pdb
     RDKit          3D

 25 24  0  0  1  0  0  0  0  0999 V2000
   27.7972  -10.3818  -15.5178 C   0  0  0  0  0  0  0  0  0  0  0  0
   27.6778  -12.1106  -15.8535 S   0  0  0  0  0  0  0  0  0  0  0  0
   26.0673  -12.8521  -15.8353 C   0  0  0  0  0  0  0  0  0  0  0  0
   24.9792  -11.9822  -16.3010 C   0  0  0  0  0  0  0  0  0  0  0  0
   23.6016  -12.5011  -16.3341 C   0  0  2  0  0  0  0  0  0  0  0  0
   23.3638  -13.7147  -17.0318 N   0  0  0  0  0  0  0  0  0  0  0  0
   22.6576  -11.4457  -16.7546 C   0  0  0  0  0  0  0  0  0  0  0  0
   22.2886  -11.2494  -17.9522 O   0  0  0  0  0  0  0  0  0  0  0  0
   18.7967   -8.8724  -15.3735 C   0  0  0  0  0  0  0  0  0  0  0  0
   19.8268   -9.9682  -15.4520 C   0  0  1  0  0  0  0  0  0  0  0  0
   19.1987  -11.1558  -16.1167 C   0  0  0  0  0  0  0  0  0  0  0  0
   21.0842   -9.5424  -16.1800 C   0  0  2  0  0  0  0  0  0  0  0  0
   22.0872  -10.5565  -15.7958 N   0  0  0  0  0  0  0  0  0  0  0  0
   21.5844   -8.2437  -15.7121 C   0  0  0  0  0  0  0  0  0  0  0  0
   22.1465   -8.1872  -14.5613 O   0  0  0  0  0  0  0  0  0  0  0  0
   21.5050   -7.0290  -16.4220 N   0  0  0  0  0  0  0  0  0  0  0  0
   22.1647   -5.8275  -15.9146 C   0  0  1  0  0  0  0  0  0  0  0  0
   22.3083   -4.8418  -17.0328 C   0  0  0  0  0  0  0  0  0  0  0  0
   22.9242   -3.5369  -16.6742 C   0  0  0  0  0  0  0  0  0  0  0  0
   22.9336   -2.6332  -17.8836 C   0  0  0  0  0  0  0  0  0  0  0  0
   22.5012   -3.0614  -18.9802 O   0  0  0  0  0  0  0  0  0  0  0  0
   21.4915   -5.3166  -14.7126 C   0  0  0  0  0  0  0  0  0  0  0  0
   20.2387   -5.3514  -14.6348 O   0  0  0  0  0  0  0  0  0  0  0  0
   23.4057   -1.3331  -17.8344 O   0  0  0  0  0  0  0  0  0  0  0  0
   22.1901   -4.7923  -13.6466 O   0  0  0  0  0  0  0  0  0  0  0  0
  2  1  1  0
  3  2  1  0
  4  3  1  0
  5  7  1  0
  5  4  1  0
  5  6  1  6
  7  8  2  0
 10 12  1  0
 10  9  1  6
 11 10  1  0
 12 13  1  1
 13  7  1  0
 14 15  2  0
 14 12  1  0
 16 14  1  0
 17 22  1  0
 17 16  1  0
 17 18  1  6
 19 18  1  0
 20 19  1  0
 21 20  2  0
 22 25  1  0
 23 22  2  0
 24 20  1  0
M  END
$$$$
