MVE.pdb
     RDKit          3D

 25 24  0  0  1  0  0  0  0  0999 V2000
   17.5250  -17.6641  -15.7286 C   0  0  0  0  0  0  0  0  0  0  0  0
   17.5923  -17.5760  -17.4902 S   0  0  0  0  0  0  0  0  0  0  0  0
   18.2882  -16.1196  -18.2240 C   0  0  0  0  0  0  0  0  0  0  0  0
   18.9350  -15.1985  -17.2802 C   0  0  0  0  0  0  0  0  0  0  0  0
   19.5921  -13.9835  -17.7900 C   0  0  2  0  0  0  0  0  0  0  0  0
   20.5856  -14.1347  -18.7931 N   0  0  0  0  0  0  0  0  0  0  0  0
   20.0784  -13.1471  -16.6738 C   0  0  0  0  0  0  0  0  0  0  0  0
   19.4050  -12.8782  -15.6331 O   0  0  0  0  0  0  0  0  0  0  0  0
   24.1047  -10.9620  -14.7271 C   0  0  0  0  0  0  0  0  0  0  0  0
   23.3600  -11.9639  -15.5695 C   0  0  1  0  0  0  0  0  0  0  0  0
   23.6290  -13.3319  -15.0189 C   0  0  0  0  0  0  0  0  0  0  0  0
   21.8725  -11.6889  -15.6332 C   0  0  2  0  0  0  0  0  0  0  0  0
   21.3851  -12.5757  -16.7093 N   0  0  0  0  0  0  0  0  0  0  0  0
   21.5795  -10.3106  -16.0457 C   0  0  0  0  0  0  0  0  0  0  0  0
   21.9599   -9.9300  -17.2093 O   0  0  0  0  0  0  0  0  0  0  0  0
   20.9053   -9.3468  -15.2695 N   0  0  0  0  0  0  0  0  0  0  0  0
   20.6205   -8.0209  -15.8144 C   0  0  1  0  0  0  0  0  0  0  0  0
   19.1440   -7.7772  -15.7558 C   0  0  0  0  0  0  0  0  0  0  0  0
   18.6961   -6.4073  -16.1214 C   0  0  0  0  0  0  0  0  0  0  0  0
   17.1928   -6.3212  -16.0121 C   0  0  0  0  0  0  0  0  0  0  0  0
   16.5404   -7.3249  -15.6380 O   0  0  0  0  0  0  0  0  0  0  0  0
   21.4506   -6.9914  -15.1741 C   0  0  0  0  0  0  0  0  0  0  0  0
   21.8424   -7.1500  -13.9916 O   0  0  0  0  0  0  0  0  0  0  0  0
   16.4923   -5.1656  -16.3112 O   0  0  0  0  0  0  0  0  0  0  0  0
   21.8255   -5.8383  -15.8290 O   0  0  0  0  0  0  0  0  0  0  0  0
  2  1  1  0
  3  2  1  0
  4  3  1  0
  5  7  1  0
  5  4  1  0
  5  6  1  6
  7  8  2  0
 10 12  1  0
 10  9  1  1
 11 10  1  0
 12 13  1  6
 13  7  1  0
 14 15  2  0
 14 12  1  0
 16 14  1  0
 17 22  1  0
 17 16  1  0
 17 18  1  1
 19 18  1  0
 20 19  1  0
 21 20  2  0
 22 25  1  0
 23 22  2  0
 24 20  1  0
M  END
$$$$
