MVE.pdb
     RDKit          3D

 25 24  0  0  1  0  0  0  0  0999 V2000
   29.1370  -17.2280  -18.5245 C   0  0  0  0  0  0  0  0  0  0  0  0
   28.0084  -17.9117  -17.3522 S   0  0  0  0  0  0  0  0  0  0  0  0
   27.7721  -19.6689  -17.3524 C   0  0  0  0  0  0  0  0  0  0  0  0
   26.9477  -20.1836  -16.2510 C   0  0  0  0  0  0  0  0  0  0  0  0
   27.5514  -21.0843  -15.2549 C   0  0  2  0  0  0  0  0  0  0  0  0
   28.3151  -22.1840  -15.7278 N   0  0  0  0  0  0  0  0  0  0  0  0
   26.5438  -21.5161  -14.2648 C   0  0  0  0  0  0  0  0  0  0  0  0
   25.8694  -22.5870  -14.3485 O   0  0  0  0  0  0  0  0  0  0  0  0
   24.6774  -20.7021   -9.7271 C   0  0  0  0  0  0  0  0  0  0  0  0
   25.6794  -20.5212  -10.8368 C   0  0  1  0  0  0  0  0  0  0  0  0
   26.9661  -21.1650  -10.4165 C   0  0  0  0  0  0  0  0  0  0  0  0
   25.2002  -21.0816  -12.1591 C   0  0  2  0  0  0  0  0  0  0  0  0
   26.2663  -20.7185  -13.1150 N   0  0  0  0  0  0  0  0  0  0  0  0
   23.9673  -20.4333  -12.6233 C   0  0  0  0  0  0  0  0  0  0  0  0
   24.0661  -19.3319  -13.2718 O   0  0  0  0  0  0  0  0  0  0  0  0
   22.6591  -20.9165  -12.4207 N   0  0  0  0  0  0  0  0  0  0  0  0
   21.5478  -20.4113  -13.2244 C   0  0  1  0  0  0  0  0  0  0  0  0
   21.8185  -20.7034  -14.6681 C   0  0  0  0  0  0  0  0  0  0  0  0
   20.7819  -20.2441  -15.6299 C   0  0  0  0  0  0  0  0  0  0  0  0
   20.2496  -21.4271  -16.4023 C   0  0  0  0  0  0  0  0  0  0  0  0
   19.0275  -21.7034  -16.3478 O   0  0  0  0  0  0  0  0  0  0  0  0
   20.2579  -20.9002  -12.7182 C   0  0  0  0  0  0  0  0  0  0  0  0
   20.1698  -22.0614  -12.2485 O   0  0  0  0  0  0  0  0  0  0  0  0
   21.0637  -22.2323  -17.1798 O   0  0  0  0  0  0  0  0  0  0  0  0
   19.1199  -20.1232  -12.7363 O   0  0  0  0  0  0  0  0  0  0  0  0
  2  1  1  0
  3  2  1  0
  4  3  1  0
  5  7  1  0
  5  4  1  0
  5  6  1  6
  7  8  2  0
 10 12  1  0
 10  9  1  1
 11 10  1  0
 12 13  1  6
 13  7  1  0
 14 15  2  0
 14 12  1  0
 16 14  1  0
 17 22  1  0
 17 16  1  0
 17 18  1  6
 19 18  1  0
 20 19  1  0
 21 20  2  0
 22 25  1  0
 23 22  2  0
 24 20  1  0
M  END
$$$$
