GWF.pdb
     RDKit          3D

 30 32  0  0  1  0  0  0  0  0999 V2000
   28.1179  -22.8655  -16.6031 N   0  0  0  0  0  0  0  0  0  0  0  0
   27.9281  -21.5463  -16.0104 C   0  0  0  0  0  0  0  0  0  0  0  0
   27.5259  -21.6537  -14.5804 C   0  0  0  0  0  0  0  0  0  0  0  0
   26.8104  -22.6142  -14.2463 O   0  0  0  0  0  0  0  0  0  0  0  0
   27.9265  -20.7103  -13.6023 N   0  0  0  0  0  0  0  0  0  0  0  0
   27.2794  -20.4369  -12.3664 C   0  0  1  0  0  0  0  0  0  0  0  0
   28.0437  -19.5316  -11.4139 C   0  0  0  0  0  0  0  0  0  0  0  0
   28.7806  -20.3806  -10.4306 C   0  0  0  0  0  0  0  0  0  0  0  0
   29.7402  -21.3436  -10.6068 C   0  0  0  0  0  0  0  0  0  0  0  0
   30.1047  -21.8408   -9.3892 N   0  0  0  0  0  0  0  0  0  0  0  0
   29.4172  -21.2344   -8.4324 C   0  0  0  0  0  0  0  0  0  0  0  0
   29.3765  -21.3263   -7.0485 C   0  0  0  0  0  0  0  0  0  0  0  0
   28.5284  -20.5246   -6.3170 C   0  0  0  0  0  0  0  0  0  0  0  0
   27.7013  -19.6136   -6.9364 C   0  0  0  0  0  0  0  0  0  0  0  0
   27.7503  -19.5307   -8.3185 C   0  0  0  0  0  0  0  0  0  0  0  0
   28.5860  -20.3220   -9.0372 C   0  0  0  0  0  0  0  0  0  0  0  0
   25.8408  -20.1488  -12.4410 C   0  0  0  0  0  0  0  0  0  0  0  0
   25.3791  -19.0839  -12.9106 O   0  0  0  0  0  0  0  0  0  0  0  0
   24.9378  -21.1287  -11.9559 N   0  0  0  0  0  0  0  0  0  0  0  0
   23.5067  -20.8782  -11.9610 C   0  0  1  0  0  0  0  0  0  0  0  0
   22.7953  -21.7056  -12.9756 C   0  0  0  0  0  0  0  0  0  0  0  0
   22.9027  -21.0985  -14.3053 C   0  0  0  0  0  0  0  0  0  0  0  0
   23.8653  -21.5458  -15.1979 C   0  0  0  0  0  0  0  0  0  0  0  0
   23.9727  -21.0085  -16.4409 C   0  0  0  0  0  0  0  0  0  0  0  0
   23.0987  -20.0038  -16.7954 C   0  0  0  0  0  0  0  0  0  0  0  0
   22.1335  -19.5432  -15.9239 C   0  0  0  0  0  0  0  0  0  0  0  0
   22.0239  -20.0874  -14.6639 C   0  0  0  0  0  0  0  0  0  0  0  0
   23.0151  -21.0205  -10.5859 C   0  0  0  0  0  0  0  0  0  0  0  0
   23.7308  -21.4065   -9.6063 O   0  0  0  0  0  0  0  0  0  0  0  0
   21.6738  -20.7234  -10.2762 O   0  0  0  0  0  0  0  0  0  0  0  0
  2  1  1  0
  3  2  1  0
  4  3  2  0
  5  3  1  0
  6 17  1  0
  6  5  1  0
  6  7  1  6
  8  7  1  0
  8 16  1  0
  9  8  2  0
 10  9  1  0
 10 11  1  0
 11 12  1  0
 11 16  2  0
 12 13  2  0
 13 14  1  0
 15 14  2  0
 16 15  1  0
 17 18  2  0
 19 20  1  0
 19 17  1  0
 21 22  1  0
 20 21  1  6
 22 23  2  0
 23 24  1  0
 25 24  2  0
 26 25  1  0
 27 26  2  0
 27 22  1  0
 28 20  1  0
 29 28  2  0
 30 28  1  0
M  END
$$$$
