GWF.pdb
     RDKit          3D

 30 32  0  0  1  0  0  0  0  0999 V2000
   27.7605  -24.5492  -16.5347 N   0  0  0  0  0  0  0  0  0  0  0  0
   27.5689  -23.1122  -16.3738 C   0  0  0  0  0  0  0  0  0  0  0  0
   26.8569  -22.8051  -15.1022 C   0  0  0  0  0  0  0  0  0  0  0  0
   26.3261  -23.7475  -14.4888 O   0  0  0  0  0  0  0  0  0  0  0  0
   26.7662  -21.4928  -14.5764 N   0  0  0  0  0  0  0  0  0  0  0  0
   26.0003  -21.0754  -13.4537 C   0  0  1  0  0  0  0  0  0  0  0  0
   26.5480  -19.8756  -12.6976 C   0  0  0  0  0  0  0  0  0  0  0  0
   27.5515  -20.3530  -11.6998 C   0  0  0  0  0  0  0  0  0  0  0  0
   28.8566  -20.7466  -11.8462 C   0  0  0  0  0  0  0  0  0  0  0  0
   29.3565  -21.1023  -10.6271 N   0  0  0  0  0  0  0  0  0  0  0  0
   28.4236  -20.9524   -9.6980 C   0  0  0  0  0  0  0  0  0  0  0  0
   28.3692  -21.1495   -8.3256 C   0  0  0  0  0  0  0  0  0  0  0  0
   27.2133  -20.8857   -7.6245 C   0  0  0  0  0  0  0  0  0  0  0  0
   26.0850  -20.4208   -8.2636 C   0  0  0  0  0  0  0  0  0  0  0  0
   26.1509  -20.2280   -9.6340 C   0  0  0  0  0  0  0  0  0  0  0  0
   27.2904  -20.4893  -10.3228 C   0  0  0  0  0  0  0  0  0  0  0  0
   24.5432  -21.0518  -13.6392 C   0  0  0  0  0  0  0  0  0  0  0  0
   23.9896  -20.5655  -14.6514 O   0  0  0  0  0  0  0  0  0  0  0  0
   23.7313  -21.6083  -12.6184 N   0  0  0  0  0  0  0  0  0  0  0  0
   22.2831  -21.5775  -12.7305 C   0  0  1  0  0  0  0  0  0  0  0  0
   21.6240  -22.4776  -11.7428 C   0  0  0  0  0  0  0  0  0  0  0  0
   20.1674  -22.4418  -11.9023 C   0  0  0  0  0  0  0  0  0  0  0  0
   19.3785  -21.8213  -10.9452 C   0  0  0  0  0  0  0  0  0  0  0  0
   18.0282  -21.7624  -11.0803 C   0  0  0  0  0  0  0  0  0  0  0  0
   17.4582  -22.3366  -12.1959 C   0  0  0  0  0  0  0  0  0  0  0  0
   18.2233  -22.9590  -13.1606 C   0  0  0  0  0  0  0  0  0  0  0  0
   19.5921  -23.0189  -13.0243 C   0  0  0  0  0  0  0  0  0  0  0  0
   21.8527  -20.1758  -12.6794 C   0  0  0  0  0  0  0  0  0  0  0  0
   22.1764  -19.3608  -11.7564 O   0  0  0  0  0  0  0  0  0  0  0  0
   21.0284  -19.6480  -13.6920 O   0  0  0  0  0  0  0  0  0  0  0  0
  2  1  1  0
  3  2  1  0
  4  3  2  0
  5  3  1  0
  6 17  1  0
  6  5  1  0
  6  7  1  6
  8  7  1  0
  8 16  1  0
  9  8  2  0
 10  9  1  0
 10 11  1  0
 11 12  1  0
 11 16  2  0
 12 13  2  0
 13 14  1  0
 15 14  2  0
 16 15  1  0
 17 18  2  0
 19 20  1  0
 19 17  1  0
 21 22  1  0
 20 21  1  1
 22 23  2  0
 23 24  1  0
 25 24  2  0
 26 25  1  0
 27 26  2  0
 27 22  1  0
 28 20  1  0
 29 28  2  0
 30 28  1  0
M  END
$$$$
