GWF.pdb
     RDKit          3D

 30 32  0  0  1  0  0  0  0  0999 V2000
   27.7337  -18.8459  -15.9954 N   0  0  0  0  0  0  0  0  0  0  0  0
   28.4436  -18.8735  -14.7215 C   0  0  0  0  0  0  0  0  0  0  0  0
   27.5121  -19.1573  -13.5945 C   0  0  0  0  0  0  0  0  0  0  0  0
   26.9886  -18.1909  -13.0131 O   0  0  0  0  0  0  0  0  0  0  0  0
   27.2075  -20.4741  -13.1697 N   0  0  0  0  0  0  0  0  0  0  0  0
   26.3612  -20.8470  -12.0899 C   0  0  1  0  0  0  0  0  0  0  0  0
   25.2553  -21.8313  -12.4352 C   0  0  0  0  0  0  0  0  0  0  0  0
   24.2372  -21.1349  -13.2773 C   0  0  0  0  0  0  0  0  0  0  0  0
   24.1031  -21.0357  -14.6380 C   0  0  0  0  0  0  0  0  0  0  0  0
   23.0024  -20.2818  -14.9258 N   0  0  0  0  0  0  0  0  0  0  0  0
   22.4195  -19.8908  -13.8019 C   0  0  0  0  0  0  0  0  0  0  0  0
   21.2987  -19.1333  -13.4933 C   0  0  0  0  0  0  0  0  0  0  0  0
   20.9447  -18.9066  -12.1816 C   0  0  0  0  0  0  0  0  0  0  0  0
   21.6901  -19.4236  -11.1450 C   0  0  0  0  0  0  0  0  0  0  0  0
   22.8072  -20.1782  -11.4649 C   0  0  0  0  0  0  0  0  0  0  0  0
   23.1545  -20.3995  -12.7578 C   0  0  0  0  0  0  0  0  0  0  0  0
   27.0300  -21.1225  -10.8113 C   0  0  0  0  0  0  0  0  0  0  0  0
   27.8770  -22.0325  -10.6637 O   0  0  0  0  0  0  0  0  0  0  0  0
   26.6947  -20.3146   -9.6951 N   0  0  0  0  0  0  0  0  0  0  0  0
   27.1862  -20.6495   -8.3695 C   0  0  1  0  0  0  0  0  0  0  0  0
   28.2659  -19.7258   -7.9208 C   0  0  0  0  0  0  0  0  0  0  0  0
   28.4207  -19.7803   -6.4643 C   0  0  0  0  0  0  0  0  0  0  0  0
   29.2348  -20.7435   -5.8874 C   0  0  0  0  0  0  0  0  0  0  0  0
   29.4053  -20.8027   -4.5411 C   0  0  0  0  0  0  0  0  0  0  0  0
   28.7471  -19.8788   -3.7586 C   0  0  0  0  0  0  0  0  0  0  0  0
   27.9325  -18.9119   -4.3107 C   0  0  0  0  0  0  0  0  0  0  0  0
   27.7593  -18.8513   -5.6753 C   0  0  0  0  0  0  0  0  0  0  0  0
   26.0330  -20.7440   -7.4673 C   0  0  0  0  0  0  0  0  0  0  0  0
   24.9578  -20.0768   -7.6077 O   0  0  0  0  0  0  0  0  0  0  0  0
   26.0660  -21.6138   -6.3603 O   0  0  0  0  0  0  0  0  0  0  0  0
  2  1  1  0
  3  2  1  0
  4  3  2  0
  5  3  1  0
  6 17  1  0
  6  5  1  0
  6  7  1  6
  8  7  1  0
  8 16  1  0
  9  8  2  0
 10  9  1  0
 10 11  1  0
 11 12  1  0
 11 16  2  0
 12 13  2  0
 13 14  1  0
 15 14  2  0
 16 15  1  0
 17 18  2  0
 19 20  1  0
 19 17  1  0
 21 22  1  0
 20 21  1  1
 22 23  2  0
 23 24  1  0
 25 24  2  0
 26 25  1  0
 27 26  2  0
 27 22  1  0
 28 20  1  0
 29 28  2  0
 30 28  1  0
M  END
$$$$
