GWF.pdb
     RDKit          3D

 30 32  0  0  1  0  0  0  0  0999 V2000
   27.6428  -24.1046  -16.2857 N   0  0  0  0  0  0  0  0  0  0  0  0
   27.5578  -22.6974  -15.9116 C   0  0  0  0  0  0  0  0  0  0  0  0
   26.7996  -22.5251  -14.6413 C   0  0  0  0  0  0  0  0  0  0  0  0
   26.0677  -23.4583  -14.2677 O   0  0  0  0  0  0  0  0  0  0  0  0
   26.8841  -21.3491  -13.8559 N   0  0  0  0  0  0  0  0  0  0  0  0
   25.9878  -20.9432  -12.8296 C   0  0  1  0  0  0  0  0  0  0  0  0
   26.4898  -19.8289  -11.9256 C   0  0  0  0  0  0  0  0  0  0  0  0
   27.6284  -20.3474  -11.1098 C   0  0  0  0  0  0  0  0  0  0  0  0
   28.8192  -20.9183  -11.4780 C   0  0  0  0  0  0  0  0  0  0  0  0
   29.5308  -21.2324  -10.3566 N   0  0  0  0  0  0  0  0  0  0  0  0
   28.8450  -20.8850   -9.2773 C   0  0  0  0  0  0  0  0  0  0  0  0
   29.0697  -20.9575   -7.9101 C   0  0  0  0  0  0  0  0  0  0  0  0
   28.1302  -20.4877   -7.0190 C   0  0  0  0  0  0  0  0  0  0  0  0
   26.9475  -19.9352   -7.4589 C   0  0  0  0  0  0  0  0  0  0  0  0
   26.7338  -19.8682   -8.8261 C   0  0  0  0  0  0  0  0  0  0  0  0
   27.6603  -20.3324   -9.7021 C   0  0  0  0  0  0  0  0  0  0  0  0
   24.5781  -20.8078  -13.2202 C   0  0  0  0  0  0  0  0  0  0  0  0
   24.2027  -20.1360  -14.2077 O   0  0  0  0  0  0  0  0  0  0  0  0
   23.6015  -21.4729  -12.4362 N   0  0  0  0  0  0  0  0  0  0  0  0
   22.1924  -21.3750  -12.7763 C   0  0  1  0  0  0  0  0  0  0  0  0
   21.4529  -22.6328  -12.4746 C   0  0  0  0  0  0  0  0  0  0  0  0
   20.0383  -22.4999  -12.8346 C   0  0  0  0  0  0  0  0  0  0  0  0
   19.6515  -22.5554  -14.1652 C   0  0  0  0  0  0  0  0  0  0  0  0
   18.3447  -22.4503  -14.5207 C   0  0  0  0  0  0  0  0  0  0  0  0
   17.4082  -22.2864  -13.5231 C   0  0  0  0  0  0  0  0  0  0  0  0
   17.7700  -22.2286  -12.1931 C   0  0  0  0  0  0  0  0  0  0  0  0
   19.0944  -22.3351  -11.8321 C   0  0  0  0  0  0  0  0  0  0  0  0
   21.6536  -20.1680  -12.1395 C   0  0  0  0  0  0  0  0  0  0  0  0
   22.0143  -19.7404  -10.9957 O   0  0  0  0  0  0  0  0  0  0  0  0
   20.6732  -19.3967  -12.7930 O   0  0  0  0  0  0  0  0  0  0  0  0
  2  1  1  0
  3  2  1  0
  4  3  2  0
  5  3  1  0
  6 17  1  0
  6  5  1  0
  6  7  1  6
  8  7  1  0
  8 16  1  0
  9  8  2  0
 10  9  1  0
 10 11  1  0
 11 12  1  0
 11 16  2  0
 12 13  2  0
 13 14  1  0
 15 14  2  0
 16 15  1  0
 17 18  2  0
 19 20  1  0
 19 17  1  0
 21 22  1  0
 20 21  1  1
 22 23  2  0
 23 24  1  0
 25 24  2  0
 26 25  1  0
 27 26  2  0
 27 22  1  0
 28 20  1  0
 29 28  2  0
 30 28  1  0
M  END
$$$$
