GWF.pdb
     RDKit          3D

 30 32  0  0  1  0  0  0  0  0999 V2000
   13.7509  -11.8289  -20.5018 N   0  0  0  0  0  0  0  0  0  0  0  0
   13.9524  -11.9673  -19.0638 C   0  0  0  0  0  0  0  0  0  0  0  0
   14.5820  -13.2761  -18.7340 C   0  0  0  0  0  0  0  0  0  0  0  0
   14.5425  -14.1751  -19.5921 O   0  0  0  0  0  0  0  0  0  0  0  0
   15.2156  -13.5265  -17.4918 N   0  0  0  0  0  0  0  0  0  0  0  0
   15.7922  -14.7524  -17.0608 C   0  0  1  0  0  0  0  0  0  0  0  0
   17.2265  -14.6623  -16.5653 C   0  0  0  0  0  0  0  0  0  0  0  0
   18.0845  -14.1360  -17.6687 C   0  0  0  0  0  0  0  0  0  0  0  0
   18.3577  -12.8537  -18.0694 C   0  0  0  0  0  0  0  0  0  0  0  0
   19.2040  -12.8897  -19.1396 N   0  0  0  0  0  0  0  0  0  0  0  0
   19.4887  -14.1473  -19.4450 C   0  0  0  0  0  0  0  0  0  0  0  0
   20.2752  -14.7668  -20.4056 C   0  0  0  0  0  0  0  0  0  0  0  0
   20.3696  -16.1400  -20.4559 C   0  0  0  0  0  0  0  0  0  0  0  0
   19.6890  -16.9323  -19.5578 C   0  0  0  0  0  0  0  0  0  0  0  0
   18.9066  -16.3030  -18.6032 C   0  0  0  0  0  0  0  0  0  0  0  0
   18.8145  -14.9500  -18.5561 C   0  0  0  0  0  0  0  0  0  0  0  0
   14.9307  -15.6194  -16.2458 C   0  0  0  0  0  0  0  0  0  0  0  0
   14.3512  -15.2277  -15.2074 O   0  0  0  0  0  0  0  0  0  0  0  0
   14.7518  -16.9633  -16.6614 N   0  0  0  0  0  0  0  0  0  0  0  0
   13.9149  -17.8673  -15.8911 C   0  0  1  0  0  0  0  0  0  0  0  0
   12.8196  -18.4557  -16.7122 C   0  0  0  0  0  0  0  0  0  0  0  0
   11.7680  -17.4647  -16.9577 C   0  0  0  0  0  0  0  0  0  0  0  0
   11.7829  -16.7089  -18.1205 C   0  0  0  0  0  0  0  0  0  0  0  0
   10.8100  -15.7961  -18.3760 C   0  0  0  0  0  0  0  0  0  0  0  0
    9.8034  -15.6379  -17.4482 C   0  0  0  0  0  0  0  0  0  0  0  0
    9.7684  -16.3787  -16.2849 C   0  0  0  0  0  0  0  0  0  0  0  0
   10.7541  -17.3043  -16.0253 C   0  0  0  0  0  0  0  0  0  0  0  0
   14.7885  -18.8420  -15.2281 C   0  0  0  0  0  0  0  0  0  0  0  0
   16.0594  -18.8316  -15.3034 O   0  0  0  0  0  0  0  0  0  0  0  0
   14.2365  -19.8748  -14.4460 O   0  0  0  0  0  0  0  0  0  0  0  0
  2  1  1  0
  3  2  1  0
  4  3  2  0
  5  3  1  0
  6 17  1  0
  6  5  1  0
  6  7  1  1
  8  7  1  0
  8 16  1  0
  9  8  2  0
 10  9  1  0
 10 11  1  0
 11 12  1  0
 11 16  2  0
 12 13  2  0
 13 14  1  0
 15 14  2  0
 16 15  1  0
 17 18  2  0
 19 20  1  0
 19 17  1  0
 21 22  1  0
 20 21  1  6
 22 23  2  0
 23 24  1  0
 25 24  2  0
 26 25  1  0
 27 26  2  0
 27 22  1  0
 28 20  1  0
 29 28  2  0
 30 28  1  0
M  END
$$$$
