GWF.pdb
     RDKit          3D

 30 32  0  0  1  0  0  0  0  0999 V2000
   29.9526  -23.9405  -15.2901 N   0  0  0  0  0  0  0  0  0  0  0  0
   29.1845  -23.2228  -16.3013 C   0  0  0  0  0  0  0  0  0  0  0  0
   28.4045  -22.1097  -15.6924 C   0  0  0  0  0  0  0  0  0  0  0  0
   28.3311  -22.0592  -14.4522 O   0  0  0  0  0  0  0  0  0  0  0  0
   27.7526  -21.1207  -16.4695 N   0  0  0  0  0  0  0  0  0  0  0  0
   27.0375  -19.9911  -15.9859 C   0  0  1  0  0  0  0  0  0  0  0  0
   27.2032  -18.7158  -16.7965 C   0  0  0  0  0  0  0  0  0  0  0  0
   26.5982  -17.5810  -16.0369 C   0  0  0  0  0  0  0  0  0  0  0  0
   26.9739  -16.9727  -14.8672 C   0  0  0  0  0  0  0  0  0  0  0  0
   26.0888  -15.9753  -14.5767 N   0  0  0  0  0  0  0  0  0  0  0  0
   25.1555  -15.9156  -15.5155 C   0  0  0  0  0  0  0  0  0  0  0  0
   24.0408  -15.1198  -15.7375 C   0  0  0  0  0  0  0  0  0  0  0  0
   23.2509  -15.3134  -16.8492 C   0  0  0  0  0  0  0  0  0  0  0  0
   23.5449  -16.2977  -17.7669 C   0  0  0  0  0  0  0  0  0  0  0  0
   24.6601  -17.0864  -17.5349 C   0  0  0  0  0  0  0  0  0  0  0  0
   25.4363  -16.8943  -16.4387 C   0  0  0  0  0  0  0  0  0  0  0  0
   25.6606  -20.2418  -15.5392 C   0  0  0  0  0  0  0  0  0  0  0  0
   24.8492  -20.9451  -16.1830 O   0  0  0  0  0  0  0  0  0  0  0  0
   25.2376  -19.6555  -14.3193 N   0  0  0  0  0  0  0  0  0  0  0  0
   23.9617  -20.0228  -13.7292 C   0  0  1  0  0  0  0  0  0  0  0  0
   23.9748  -19.9041  -12.2440 C   0  0  0  0  0  0  0  0  0  0  0  0
   25.0054  -20.7708  -11.6652 C   0  0  0  0  0  0  0  0  0  0  0  0
   25.7812  -20.3179  -10.6086 C   0  0  0  0  0  0  0  0  0  0  0  0
   26.7312  -21.1095  -10.0464 C   0  0  0  0  0  0  0  0  0  0  0  0
   26.9068  -22.3789  -10.5534 C   0  0  0  0  0  0  0  0  0  0  0  0
   26.1465  -22.8503  -11.6037 C   0  0  0  0  0  0  0  0  0  0  0  0
   25.1833  -22.0485  -12.1739 C   0  0  0  0  0  0  0  0  0  0  0  0
   22.9100  -19.2555  -14.4059 C   0  0  0  0  0  0  0  0  0  0  0  0
   23.1196  -18.2011  -15.0882 O   0  0  0  0  0  0  0  0  0  0  0  0
   21.5662  -19.6691  -14.3276 O   0  0  0  0  0  0  0  0  0  0  0  0
  2  1  1  0
  3  2  1  0
  4  3  2  0
  5  3  1  0
  6 17  1  0
  6  5  1  0
  6  7  1  6
  8  7  1  0
  8 16  1  0
  9  8  2  0
 10  9  1  0
 10 11  1  0
 11 12  1  0
 11 16  2  0
 12 13  2  0
 13 14  1  0
 15 14  2  0
 16 15  1  0
 17 18  2  0
 19 20  1  0
 19 17  1  0
 21 22  1  0
 20 21  1  1
 22 23  2  0
 23 24  1  0
 25 24  2  0
 26 25  1  0
 27 26  2  0
 27 22  1  0
 28 20  1  0
 29 28  2  0
 30 28  1  0
M  END
$$$$
