GWF.pdb
     RDKit          3D

 30 32  0  0  1  0  0  0  0  0999 V2000
   30.1979  -21.7660  -15.2782 N   0  0  0  0  0  0  0  0  0  0  0  0
   28.7479  -21.8689  -15.3984 C   0  0  0  0  0  0  0  0  0  0  0  0
   28.0651  -21.1392  -14.2941 C   0  0  0  0  0  0  0  0  0  0  0  0
   28.7225  -20.2977  -13.6571 O   0  0  0  0  0  0  0  0  0  0  0  0
   26.7100  -21.3696  -13.9509 N   0  0  0  0  0  0  0  0  0  0  0  0
   25.9243  -20.6212  -13.0324 C   0  0  1  0  0  0  0  0  0  0  0  0
   24.6724  -19.9820  -13.6114 C   0  0  0  0  0  0  0  0  0  0  0  0
   25.0138  -19.3600  -14.9257 C   0  0  0  0  0  0  0  0  0  0  0  0
   24.6869  -19.7177  -16.2081 C   0  0  0  0  0  0  0  0  0  0  0  0
   25.2456  -18.8266  -17.0778 N   0  0  0  0  0  0  0  0  0  0  0  0
   25.9207  -17.9058  -16.4054 C   0  0  0  0  0  0  0  0  0  0  0  0
   26.6624  -16.7865  -16.7550 C   0  0  0  0  0  0  0  0  0  0  0  0
   27.2528  -16.0056  -15.7860 C   0  0  0  0  0  0  0  0  0  0  0  0
   27.1235  -16.3130  -14.4495 C   0  0  0  0  0  0  0  0  0  0  0  0
   26.3809  -17.4329  -14.1122 C   0  0  0  0  0  0  0  0  0  0  0  0
   25.8008  -18.2011  -15.0684 C   0  0  0  0  0  0  0  0  0  0  0  0
   25.7298  -21.2255  -11.7076 C   0  0  0  0  0  0  0  0  0  0  0  0
   25.7336  -22.4621  -11.5117 O   0  0  0  0  0  0  0  0  0  0  0  0
   25.5285  -20.3602  -10.6023 N   0  0  0  0  0  0  0  0  0  0  0  0
   25.1784  -20.8990   -9.2992 C   0  0  1  0  0  0  0  0  0  0  0  0
   25.7100  -20.0648   -8.1851 C   0  0  0  0  0  0  0  0  0  0  0  0
   27.1725  -20.1451   -8.1313 C   0  0  0  0  0  0  0  0  0  0  0  0
   27.9102  -19.0743   -7.6490 C   0  0  0  0  0  0  0  0  0  0  0  0
   29.2653  -19.1327   -7.5754 C   0  0  0  0  0  0  0  0  0  0  0  0
   29.8925  -20.2864   -7.9935 C   0  0  0  0  0  0  0  0  0  0  0  0
   29.1790  -21.3638   -8.4767 C   0  0  0  0  0  0  0  0  0  0  0  0
   27.8054  -21.3053   -8.5514 C   0  0  0  0  0  0  0  0  0  0  0  0
   23.7283  -21.1212   -9.2737 C   0  0  0  0  0  0  0  0  0  0  0  0
   22.9271  -20.7227  -10.1794 O   0  0  0  0  0  0  0  0  0  0  0  0
   23.1342  -21.8146   -8.2016 O   0  0  0  0  0  0  0  0  0  0  0  0
  2  1  1  0
  3  2  1  0
  4  3  2  0
  5  3  1  0
  6 17  1  0
  6  5  1  0
  6  7  1  6
  8  7  1  0
  8 16  1  0
  9  8  2  0
 10  9  1  0
 10 11  1  0
 11 12  1  0
 11 16  2  0
 12 13  2  0
 13 14  1  0
 15 14  2  0
 16 15  1  0
 17 18  2  0
 19 20  1  0
 19 17  1  0
 21 22  1  0
 20 21  1  1
 22 23  2  0
 23 24  1  0
 25 24  2  0
 26 25  1  0
 27 26  2  0
 27 22  1  0
 28 20  1  0
 29 28  2  0
 30 28  1  0
M  END
$$$$
