GWF.pdb
     RDKit          3D

 30 32  0  0  1  0  0  0  0  0999 V2000
   26.6003  -24.8202  -17.1424 N   0  0  0  0  0  0  0  0  0  0  0  0
   26.4060  -23.3747  -17.1616 C   0  0  0  0  0  0  0  0  0  0  0  0
   26.3331  -22.8251  -15.7792 C   0  0  0  0  0  0  0  0  0  0  0  0
   26.5482  -23.6005  -14.8312 O   0  0  0  0  0  0  0  0  0  0  0  0
   26.0310  -21.4668  -15.5133 N   0  0  0  0  0  0  0  0  0  0  0  0
   25.9256  -20.8513  -14.2361 C   0  0  1  0  0  0  0  0  0  0  0  0
   26.5468  -19.4684  -14.1230 C   0  0  0  0  0  0  0  0  0  0  0  0
   28.0322  -19.6118  -14.0622 C   0  0  0  0  0  0  0  0  0  0  0  0
   29.0225  -19.1225  -14.8742 C   0  0  0  0  0  0  0  0  0  0  0  0
   30.2343  -19.5350  -14.4009 N   0  0  0  0  0  0  0  0  0  0  0  0
   30.0643  -20.2719  -13.3128 C   0  0  0  0  0  0  0  0  0  0  0  0
   30.9132  -20.9307  -12.4349 C   0  0  0  0  0  0  0  0  0  0  0  0
   30.4072  -21.6276  -11.3600 C   0  0  0  0  0  0  0  0  0  0  0  0
   29.0508  -21.6893  -11.1280 C   0  0  0  0  0  0  0  0  0  0  0  0
   28.2127  -21.0280  -12.0111 C   0  0  0  0  0  0  0  0  0  0  0  0
   28.7134  -20.3426  -13.0698 C   0  0  0  0  0  0  0  0  0  0  0  0
   24.6265  -20.9808  -13.5626 C   0  0  0  0  0  0  0  0  0  0  0  0
   23.5337  -20.9619  -14.1732 O   0  0  0  0  0  0  0  0  0  0  0  0
   24.6179  -21.1342  -12.1528 N   0  0  0  0  0  0  0  0  0  0  0  0
   23.3641  -21.2992  -11.4376 C   0  0  1  0  0  0  0  0  0  0  0  0
   23.5712  -21.7956  -10.0481 C   0  0  0  0  0  0  0  0  0  0  0  0
   24.3655  -20.8400   -9.2707 C   0  0  0  0  0  0  0  0  0  0  0  0
   23.7405  -19.9747   -8.3853 C   0  0  0  0  0  0  0  0  0  0  0  0
   24.4582  -19.0919   -7.6432 C   0  0  0  0  0  0  0  0  0  0  0  0
   25.8281  -19.0763   -7.7918 C   0  0  0  0  0  0  0  0  0  0  0  0
   26.4710  -19.9279   -8.6664 C   0  0  0  0  0  0  0  0  0  0  0  0
   25.7442  -20.8231   -9.4188 C   0  0  0  0  0  0  0  0  0  0  0  0
   22.6108  -20.0447  -11.5448 C   0  0  0  0  0  0  0  0  0  0  0  0
   23.1278  -18.9238  -11.8569 O   0  0  0  0  0  0  0  0  0  0  0  0
   21.2247  -20.0245  -11.2972 O   0  0  0  0  0  0  0  0  0  0  0  0
  2  1  1  0
  3  2  1  0
  4  3  2  0
  5  3  1  0
  6 17  1  0
  6  5  1  0
  6  7  1  6
  8  7  1  0
  8 16  1  0
  9  8  2  0
 10  9  1  0
 10 11  1  0
 11 12  1  0
 11 16  2  0
 12 13  2  0
 13 14  1  0
 15 14  2  0
 16 15  1  0
 17 18  2  0
 19 20  1  0
 19 17  1  0
 21 22  1  0
 20 21  1  1
 22 23  2  0
 23 24  1  0
 25 24  2  0
 26 25  1  0
 27 26  2  0
 27 22  1  0
 28 20  1  0
 29 28  2  0
 30 28  1  0
M  END
$$$$
