PWH.pdb
     RDKit          3D

 32 35  0  0  1  0  0  0  0  0999 V2000
    7.9540  -15.3996   19.3113 N   0  0  0  0  0  0  0  0  0  0  0  0
    6.7154  -14.7333   19.5212 C   0  0  0  0  0  0  0  0  0  0  0  0
    6.9586  -13.4162   18.7737 C   0  0  0  0  0  0  0  0  0  0  0  0
    8.3943  -13.1207   19.1917 C   0  0  0  0  0  0  0  0  0  0  0  0
    8.9528  -14.4388   19.6747 C   0  0  1  0  0  0  0  0  0  0  0  0
    9.2233  -14.4280   21.1280 C   0  0  0  0  0  0  0  0  0  0  0  0
    9.9246  -13.4909   21.6589 O   0  0  0  0  0  0  0  0  0  0  0  0
    8.7628  -15.3940   22.0273 N   0  0  0  0  0  0  0  0  0  0  0  0
    9.0940  -15.3561   23.4640 C   0  0  1  0  0  0  0  0  0  0  0  0
    8.0427  -16.1153   24.1887 C   0  0  0  0  0  0  0  0  0  0  0  0
    7.0763  -15.3308   24.9503 C   0  0  0  0  0  0  0  0  0  0  0  0
    5.8877  -15.6091   25.5610 C   0  0  0  0  0  0  0  0  0  0  0  0
    5.3660  -14.5040   26.1423 N   0  0  0  0  0  0  0  0  0  0  0  0
    6.2204  -13.4919   25.9103 C   0  0  0  0  0  0  0  0  0  0  0  0
    6.2126  -12.1369   26.2596 C   0  0  0  0  0  0  0  0  0  0  0  0
    7.2192  -11.2775   25.9004 C   0  0  0  0  0  0  0  0  0  0  0  0
    8.2775  -11.7619   25.1695 C   0  0  0  0  0  0  0  0  0  0  0  0
    8.2910  -13.0812   24.8262 C   0  0  0  0  0  0  0  0  0  0  0  0
    7.2850  -13.9651   25.1788 C   0  0  0  0  0  0  0  0  0  0  0  0
   10.4041  -16.0744   23.6720 C   0  0  0  0  0  0  0  0  0  0  0  0
   10.5610  -17.1715   23.1329 O   0  0  0  0  0  0  0  0  0  0  0  0
   11.4177  -15.4978   24.4648 N   0  0  0  0  0  0  0  0  0  0  0  0
   11.7501  -16.0436   25.8055 C   0  0  1  0  0  0  0  0  0  0  0  0
   10.7608  -15.5207   26.8059 C   0  0  0  0  0  0  0  0  0  0  0  0
   10.9639  -16.0206   28.1806 C   0  0  0  0  0  0  0  0  0  0  0  0
   11.9613  -16.9103   28.5856 C   0  0  0  0  0  0  0  0  0  0  0  0
   11.8563  -17.1501   29.8935 N   0  0  0  0  0  0  0  0  0  0  0  0
   10.8242  -16.4454   30.3481 C   0  0  0  0  0  0  0  0  0  0  0  0
   10.2839  -15.7613   29.3101 N   0  0  0  0  0  0  0  0  0  0  0  0
   11.7396  -17.5280   25.7078 C   0  0  0  0  0  0  0  0  0  0  0  0
   12.7130  -18.2786   25.9226 O   0  0  0  0  0  0  0  0  0  0  0  0
   10.5498  -18.1483   25.3470 O   0  0  0  0  0  0  0  0  0  0  0  0
  1  2  1  0
  1  5  1  0
  2  3  1  0
  3  4  1  0
  5  4  1  0
  5  6  1  1
  6  7  2  0
  8  9  1  0
  8  6  1  0
  9 10  1  1
 10 11  1  0
 11 12  2  0
 13 12  1  0
 14 13  1  0
 15 14  2  0
 16 15  1  0
 17 16  2  0
 17 18  1  0
 18 19  2  0
 19 14  1  0
 19 11  1  0
 20  9  1  0
 21 20  2  0
 22 20  1  0
 23 24  1  1
 23 22  1  0
 25 29  1  0
 25 24  1  0
 26 25  2  0
 27 26  1  0
 27 28  1  0
 28 29  2  0
 30 23  1  0
 30 32  1  0
 31 30  2  0
M  END
$$$$
