PWH.pdb
     RDKit          3D

 32 35  0  0  1  0  0  0  0  0999 V2000
    7.4230  -16.1809   20.7428 N   0  0  0  0  0  0  0  0  0  0  0  0
    6.4431  -15.2041   21.0710 C   0  0  0  0  0  0  0  0  0  0  0  0
    6.7410  -14.1238   20.0235 C   0  0  0  0  0  0  0  0  0  0  0  0
    8.2652  -14.1306   20.0434 C   0  0  0  0  0  0  0  0  0  0  0  0
    8.6542  -15.4522   20.6637 C   0  0  1  0  0  0  0  0  0  0  0  0
    9.2932  -15.2786   21.9854 C   0  0  0  0  0  0  0  0  0  0  0  0
   10.2798  -14.4689   22.1369 O   0  0  0  0  0  0  0  0  0  0  0  0
    8.9037  -15.9490   23.1484 N   0  0  0  0  0  0  0  0  0  0  0  0
    9.6178  -15.7876   24.4288 C   0  0  1  0  0  0  0  0  0  0  0  0
    8.6602  -16.0994   25.5209 C   0  0  0  0  0  0  0  0  0  0  0  0
    7.4244  -15.3237   25.5490 C   0  0  0  0  0  0  0  0  0  0  0  0
    6.1175  -15.5967   25.2648 C   0  0  0  0  0  0  0  0  0  0  0  0
    5.3391  -14.5049   25.4480 N   0  0  0  0  0  0  0  0  0  0  0  0
    6.1431  -13.5072   25.8556 C   0  0  0  0  0  0  0  0  0  0  0  0
    5.9087  -12.1697   26.1932 C   0  0  0  0  0  0  0  0  0  0  0  0
    6.9121  -11.3228   26.5893 C   0  0  0  0  0  0  0  0  0  0  0  0
    8.1981  -11.8026   26.6585 C   0  0  0  0  0  0  0  0  0  0  0  0
    8.4330  -13.1050   26.3310 C   0  0  0  0  0  0  0  0  0  0  0  0
    7.4343  -13.9760   25.9288 C   0  0  0  0  0  0  0  0  0  0  0  0
   10.7288  -16.8064   24.4885 C   0  0  0  0  0  0  0  0  0  0  0  0
   10.4434  -17.9929   24.3172 O   0  0  0  0  0  0  0  0  0  0  0  0
   12.0572  -16.4021   24.7346 N   0  0  0  0  0  0  0  0  0  0  0  0
   13.1407  -17.3985   24.9318 C   0  0  1  0  0  0  0  0  0  0  0  0
   14.4190  -16.8496   24.3682 C   0  0  0  0  0  0  0  0  0  0  0  0
   14.3850  -16.6016   22.9128 C   0  0  0  0  0  0  0  0  0  0  0  0
   13.7476  -17.4036   21.9636 C   0  0  0  0  0  0  0  0  0  0  0  0
   13.9149  -16.8895   20.7443 N   0  0  0  0  0  0  0  0  0  0  0  0
   14.6395  -15.7817   20.8729 C   0  0  0  0  0  0  0  0  0  0  0  0
   14.9240  -15.6077   22.1867 N   0  0  0  0  0  0  0  0  0  0  0  0
   13.2320  -17.6893   26.3879 C   0  0  0  0  0  0  0  0  0  0  0  0
   12.5256  -17.1749   27.2787 O   0  0  0  0  0  0  0  0  0  0  0  0
   14.1817  -18.6119   26.8093 O   0  0  0  0  0  0  0  0  0  0  0  0
  1  2  1  0
  1  5  1  0
  2  3  1  0
  3  4  1  0
  5  4  1  0
  5  6  1  1
  6  7  2  0
  8  9  1  0
  8  6  1  0
  9 10  1  1
 10 11  1  0
 11 12  2  0
 13 12  1  0
 14 13  1  0
 15 14  2  0
 16 15  1  0
 17 16  2  0
 17 18  1  0
 18 19  2  0
 19 14  1  0
 19 11  1  0
 20  9  1  0
 21 20  2  0
 22 20  1  0
 23 24  1  1
 23 22  1  0
 25 29  1  0
 25 24  1  0
 26 25  2  0
 27 26  1  0
 27 28  1  0
 28 29  2  0
 30 23  1  0
 30 32  1  0
 31 30  2  0
M  END
$$$$
