PWH.pdb
     RDKit          3D

 32 35  0  0  1  0  0  0  0  0999 V2000
    7.1319  -15.3735   20.4756 N   0  0  0  0  0  0  0  0  0  0  0  0
    6.4513  -14.1943   20.8861 C   0  0  0  0  0  0  0  0  0  0  0  0
    6.9517  -13.1867   19.8434 C   0  0  0  0  0  0  0  0  0  0  0  0
    8.4232  -13.5766   19.7645 C   0  0  0  0  0  0  0  0  0  0  0  0
    8.5005  -14.9748   20.3316 C   0  0  1  0  0  0  0  0  0  0  0  0
    9.2377  -15.0144   21.6125 C   0  0  0  0  0  0  0  0  0  0  0  0
   10.3761  -14.4302   21.7338 O   0  0  0  0  0  0  0  0  0  0  0  0
    8.7881  -15.6631   22.7661 N   0  0  0  0  0  0  0  0  0  0  0  0
    9.5666  -15.6749   24.0188 C   0  0  1  0  0  0  0  0  0  0  0  0
    8.6572  -16.1097   25.1101 C   0  0  0  0  0  0  0  0  0  0  0  0
    7.4715  -15.2905   25.3392 C   0  0  0  0  0  0  0  0  0  0  0  0
    6.1284  -15.4935   25.2042 C   0  0  0  0  0  0  0  0  0  0  0  0
    5.4297  -14.3870   25.5492 N   0  0  0  0  0  0  0  0  0  0  0  0
    6.3229  -13.4503   25.9133 C   0  0  0  0  0  0  0  0  0  0  0  0
    6.1938  -12.1299   26.3583 C   0  0  0  0  0  0  0  0  0  0  0  0
    7.2763  -11.3505   26.6770 C   0  0  0  0  0  0  0  0  0  0  0  0
    8.5374  -11.8830   26.5558 C   0  0  0  0  0  0  0  0  0  0  0  0
    8.6699  -13.1689   26.1229 C   0  0  0  0  0  0  0  0  0  0  0  0
    7.5902  -13.9723   25.7962 C   0  0  0  0  0  0  0  0  0  0  0  0
   10.6589  -16.7078   23.8933 C   0  0  0  0  0  0  0  0  0  0  0  0
   10.4299  -17.7233   23.2336 O   0  0  0  0  0  0  0  0  0  0  0  0
   11.9071  -16.5082   24.5184 N   0  0  0  0  0  0  0  0  0  0  0  0
   13.0106  -17.4901   24.3643 C   0  0  1  0  0  0  0  0  0  0  0  0
   14.2533  -16.7664   23.9341 C   0  0  0  0  0  0  0  0  0  0  0  0
   15.4254  -17.6407   23.7271 C   0  0  0  0  0  0  0  0  0  0  0  0
   15.5240  -18.9782   24.1167 C   0  0  0  0  0  0  0  0  0  0  0  0
   16.7177  -19.4665   23.7766 N   0  0  0  0  0  0  0  0  0  0  0  0
   17.3948  -18.4896   23.1803 C   0  0  0  0  0  0  0  0  0  0  0  0
   16.6115  -17.3837   23.1504 N   0  0  0  0  0  0  0  0  0  0  0  0
   13.1764  -18.1959   25.6634 C   0  0  0  0  0  0  0  0  0  0  0  0
   12.6136  -17.8910   26.7345 O   0  0  0  0  0  0  0  0  0  0  0  0
   14.0289  -19.2923   25.7045 O   0  0  0  0  0  0  0  0  0  0  0  0
  1  2  1  0
  1  5  1  0
  2  3  1  0
  3  4  1  0
  5  4  1  0
  5  6  1  1
  6  7  2  0
  8  9  1  0
  8  6  1  0
  9 10  1  1
 10 11  1  0
 11 12  2  0
 13 12  1  0
 14 13  1  0
 15 14  2  0
 16 15  1  0
 17 16  2  0
 17 18  1  0
 18 19  2  0
 19 14  1  0
 19 11  1  0
 20  9  1  0
 21 20  2  0
 22 20  1  0
 23 24  1  1
 23 22  1  0
 25 29  1  0
 25 24  1  0
 26 25  2  0
 27 26  1  0
 27 28  1  0
 28 29  2  0
 30 23  1  0
 30 32  1  0
 31 30  2  0
M  END
$$$$
