PWH.pdb
     RDKit          3D

 32 35  0  0  1  0  0  0  0  0999 V2000
    7.3011  -15.0070   20.3471 N   0  0  0  0  0  0  0  0  0  0  0  0
    6.9658  -13.6649   20.6760 C   0  0  0  0  0  0  0  0  0  0  0  0
    7.5678  -12.9098   19.4841 C   0  0  0  0  0  0  0  0  0  0  0  0
    8.8887  -13.6532   19.3231 C   0  0  0  0  0  0  0  0  0  0  0  0
    8.7000  -14.9700   20.0394 C   0  0  1  0  0  0  0  0  0  0  0  0
    9.5465  -15.0714   21.2471 C   0  0  0  0  0  0  0  0  0  0  0  0
   10.8239  -14.9550   21.1658 O   0  0  0  0  0  0  0  0  0  0  0  0
    9.0612  -15.2943   22.5389 N   0  0  0  0  0  0  0  0  0  0  0  0
    9.9548  -15.5472   23.6847 C   0  0  1  0  0  0  0  0  0  0  0  0
    9.5935  -14.5861   24.7583 C   0  0  0  0  0  0  0  0  0  0  0  0
    8.1916  -14.5530   25.1623 C   0  0  0  0  0  0  0  0  0  0  0  0
    7.1497  -15.4303   25.0725 C   0  0  0  0  0  0  0  0  0  0  0  0
    6.0216  -14.9056   25.6050 N   0  0  0  0  0  0  0  0  0  0  0  0
    6.3268  -13.6731   26.0476 C   0  0  0  0  0  0  0  0  0  0  0  0
    5.5787  -12.6729   26.6783 C   0  0  0  0  0  0  0  0  0  0  0  0
    6.1205  -11.4672   27.0440 C   0  0  0  0  0  0  0  0  0  0  0  0
    7.4485  -11.2288   26.7825 C   0  0  0  0  0  0  0  0  0  0  0  0
    8.1829  -12.1995   26.1684 C   0  0  0  0  0  0  0  0  0  0  0  0
    7.6550  -13.4230   25.7914 C   0  0  0  0  0  0  0  0  0  0  0  0
    9.6848  -16.9376   24.2040 C   0  0  0  0  0  0  0  0  0  0  0  0
    9.0486  -17.7147   23.4898 O   0  0  0  0  0  0  0  0  0  0  0  0
   10.1521  -17.3293   25.4754 N   0  0  0  0  0  0  0  0  0  0  0  0
   11.0949  -18.4662   25.6320 C   0  0  1  0  0  0  0  0  0  0  0  0
   12.3174  -18.2065   24.8008 C   0  0  0  0  0  0  0  0  0  0  0  0
   12.2587  -18.7743   23.4388 C   0  0  0  0  0  0  0  0  0  0  0  0
   11.1820  -19.4776   22.8942 C   0  0  0  0  0  0  0  0  0  0  0  0
   11.4631  -19.8476   21.6440 N   0  0  0  0  0  0  0  0  0  0  0  0
   12.6858  -19.4074   21.3616 C   0  0  0  0  0  0  0  0  0  0  0  0
   13.1674  -18.7573   22.4491 N   0  0  0  0  0  0  0  0  0  0  0  0
   11.4031  -18.6055   27.0807 C   0  0  0  0  0  0  0  0  0  0  0  0
   12.1501  -19.4676   27.5865 O   0  0  0  0  0  0  0  0  0  0  0  0
   10.8159  -17.7047   27.9608 O   0  0  0  0  0  0  0  0  0  0  0  0
  1  2  1  0
  1  5  1  0
  2  3  1  0
  3  4  1  0
  5  4  1  0
  5  6  1  1
  6  7  2  0
  8  9  1  0
  8  6  1  0
  9 10  1  1
 10 11  1  0
 11 12  2  0
 13 12  1  0
 14 13  1  0
 15 14  2  0
 16 15  1  0
 17 16  2  0
 17 18  1  0
 18 19  2  0
 19 14  1  0
 19 11  1  0
 20  9  1  0
 21 20  2  0
 22 20  1  0
 23 24  1  6
 23 22  1  0
 25 29  1  0
 25 24  1  0
 26 25  2  0
 27 26  1  0
 27 28  1  0
 28 29  2  0
 30 23  1  0
 30 32  1  0
 31 30  2  0
M  END
$$$$
