PWH.pdb
     RDKit          3D

 32 35  0  0  1  0  0  0  0  0999 V2000
    7.3706  -15.5085   20.6262 N   0  0  0  0  0  0  0  0  0  0  0  0
    6.5114  -14.4446   21.0162 C   0  0  0  0  0  0  0  0  0  0  0  0
    7.0100  -13.3144   20.1068 C   0  0  0  0  0  0  0  0  0  0  0  0
    8.5161  -13.5333   20.1921 C   0  0  0  0  0  0  0  0  0  0  0  0
    8.6899  -14.9524   20.6808 C   0  0  1  0  0  0  0  0  0  0  0  0
    9.2687  -15.0045   22.0401 C   0  0  0  0  0  0  0  0  0  0  0  0
   10.2867  -14.2833   22.3489 O   0  0  0  0  0  0  0  0  0  0  0  0
    8.7862  -15.8084   23.0768 N   0  0  0  0  0  0  0  0  0  0  0  0
    9.3451  -15.7568   24.4408 C   0  0  1  0  0  0  0  0  0  0  0  0
    8.2676  -16.1515   25.3842 C   0  0  0  0  0  0  0  0  0  0  0  0
    7.1390  -15.2350   25.5092 C   0  0  0  0  0  0  0  0  0  0  0  0
    5.7940  -15.3405   25.3016 C   0  0  0  0  0  0  0  0  0  0  0  0
    5.1661  -14.1698   25.5602 N   0  0  0  0  0  0  0  0  0  0  0  0
    6.1082  -13.2890   25.9404 C   0  0  0  0  0  0  0  0  0  0  0  0
    6.0584  -11.9444   26.3247 C   0  0  0  0  0  0  0  0  0  0  0  0
    7.1790  -11.2367   26.6771 C   0  0  0  0  0  0  0  0  0  0  0  0
    8.3991  -11.8687   26.6531 C   0  0  0  0  0  0  0  0  0  0  0  0
    8.4542  -13.1788   26.2798 C   0  0  0  0  0  0  0  0  0  0  0  0
    7.3350  -13.9109   25.9204 C   0  0  0  0  0  0  0  0  0  0  0  0
   10.4455  -16.7834   24.5459 C   0  0  0  0  0  0  0  0  0  0  0  0
   10.9606  -17.1964   23.5053 O   0  0  0  0  0  0  0  0  0  0  0  0
   10.8674  -17.2528   25.8068 N   0  0  0  0  0  0  0  0  0  0  0  0
   12.2121  -17.8551   25.9932 C   0  0  1  0  0  0  0  0  0  0  0  0
   13.2577  -16.8256   25.6770 C   0  0  0  0  0  0  0  0  0  0  0  0
   13.5439  -16.6721   24.2363 C   0  0  0  0  0  0  0  0  0  0  0  0
   12.8854  -17.3356   23.1989 C   0  0  0  0  0  0  0  0  0  0  0  0
   13.3941  -16.9643   22.0231 N   0  0  0  0  0  0  0  0  0  0  0  0
   14.3600  -16.0828   22.2653 C   0  0  0  0  0  0  0  0  0  0  0  0
   14.4504  -15.9061   23.6062 N   0  0  0  0  0  0  0  0  0  0  0  0
   12.2984  -18.3515   27.3929 C   0  0  0  0  0  0  0  0  0  0  0  0
   11.4136  -18.2297   28.2643 O   0  0  0  0  0  0  0  0  0  0  0  0
   13.4589  -19.0106   27.7796 O   0  0  0  0  0  0  0  0  0  0  0  0
  1  2  1  0
  1  5  1  0
  2  3  1  0
  3  4  1  0
  5  4  1  0
  5  6  1  1
  6  7  2  0
  8  9  1  0
  8  6  1  0
  9 10  1  1
 10 11  1  0
 11 12  2  0
 13 12  1  0
 14 13  1  0
 15 14  2  0
 16 15  1  0
 17 16  2  0
 17 18  1  0
 18 19  2  0
 19 14  1  0
 19 11  1  0
 20  9  1  0
 21 20  2  0
 22 20  1  0
 23 24  1  1
 23 22  1  0
 25 29  1  0
 25 24  1  0
 26 25  2  0
 27 26  1  0
 27 28  1  0
 28 29  2  0
 30 23  1  0
 30 32  1  0
 31 30  2  0
M  END
$$$$
