PWH.pdb
     RDKit          3D

 32 35  0  0  1  0  0  0  0  0999 V2000
    7.0898  -15.4619   20.5324 N   0  0  0  0  0  0  0  0  0  0  0  0
    6.3723  -14.3013   20.9328 C   0  0  0  0  0  0  0  0  0  0  0  0
    6.8054  -13.3000   19.8544 C   0  0  0  0  0  0  0  0  0  0  0  0
    8.2890  -13.6326   19.7465 C   0  0  0  0  0  0  0  0  0  0  0  0
    8.4371  -15.0125   20.3438 C   0  0  1  0  0  0  0  0  0  0  0  0
    9.2069  -14.9915   21.6057 C   0  0  0  0  0  0  0  0  0  0  0  0
   10.3487  -14.4047   21.6692 O   0  0  0  0  0  0  0  0  0  0  0  0
    8.7865  -15.5823   22.8007 N   0  0  0  0  0  0  0  0  0  0  0  0
    9.5825  -15.5086   24.0402 C   0  0  1  0  0  0  0  0  0  0  0  0
    8.7441  -16.0384   25.1461 C   0  0  0  0  0  0  0  0  0  0  0  0
    7.4942  -15.3347   25.4146 C   0  0  0  0  0  0  0  0  0  0  0  0
    6.1725  -15.6597   25.3106 C   0  0  0  0  0  0  0  0  0  0  0  0
    5.3838  -14.6261   25.6862 N   0  0  0  0  0  0  0  0  0  0  0  0
    6.1960  -13.6143   26.0394 C   0  0  0  0  0  0  0  0  0  0  0  0
    5.9572  -12.3159   26.5034 C   0  0  0  0  0  0  0  0  0  0  0  0
    6.9711  -11.4429   26.8046 C   0  0  0  0  0  0  0  0  0  0  0  0
    8.2724  -11.8552   26.6456 C   0  0  0  0  0  0  0  0  0  0  0  0
    8.5116  -13.1191   26.1940 C   0  0  0  0  0  0  0  0  0  0  0  0
    7.5026  -14.0157   25.8845 C   0  0  0  0  0  0  0  0  0  0  0  0
   10.7781  -16.4172   23.8954 C   0  0  0  0  0  0  0  0  0  0  0  0
   10.6261  -17.4954   23.3182 O   0  0  0  0  0  0  0  0  0  0  0  0
   12.0337  -16.0344   24.4106 N   0  0  0  0  0  0  0  0  0  0  0  0
   13.2298  -16.8988   24.2437 C   0  0  1  0  0  0  0  0  0  0  0  0
   14.4033  -16.0429   23.8650 C   0  0  0  0  0  0  0  0  0  0  0  0
   15.6747  -16.7812   23.7257 C   0  0  0  0  0  0  0  0  0  0  0  0
   15.9106  -18.0879   24.1584 C   0  0  0  0  0  0  0  0  0  0  0  0
   17.1644  -18.4440   23.8753 N   0  0  0  0  0  0  0  0  0  0  0  0
   17.7477  -17.4111   23.2740 C   0  0  0  0  0  0  0  0  0  0  0  0
   16.8449  -16.4041   23.1835 N   0  0  0  0  0  0  0  0  0  0  0  0
   13.4417  -17.6337   25.5197 C   0  0  0  0  0  0  0  0  0  0  0  0
   14.2671  -18.5514   25.7029 O   0  0  0  0  0  0  0  0  0  0  0  0
   12.6602  -17.2793   26.6126 O   0  0  0  0  0  0  0  0  0  0  0  0
  1  2  1  0
  1  5  1  0
  2  3  1  0
  3  4  1  0
  5  4  1  0
  5  6  1  1
  6  7  2  0
  8  9  1  0
  8  6  1  0
  9 10  1  1
 10 11  1  0
 11 12  2  0
 13 12  1  0
 14 13  1  0
 15 14  2  0
 16 15  1  0
 17 16  2  0
 17 18  1  0
 18 19  2  0
 19 14  1  0
 19 11  1  0
 20  9  1  0
 21 20  2  0
 22 20  1  0
 23 24  1  1
 23 22  1  0
 25 29  1  0
 25 24  1  0
 26 25  2  0
 27 26  1  0
 27 28  1  0
 28 29  2  0
 30 23  1  0
 30 32  1  0
 31 30  2  0
M  END
$$$$
