PWH.pdb
     RDKit          3D

 32 35  0  0  1  0  0  0  0  0999 V2000
    8.3031  -16.1495   18.6062 N   0  0  0  0  0  0  0  0  0  0  0  0
    7.0847  -15.4224   18.5112 C   0  0  0  0  0  0  0  0  0  0  0  0
    7.5199  -14.2286   17.6520 C   0  0  0  0  0  0  0  0  0  0  0  0
    8.8799  -13.9234   18.2691 C   0  0  0  0  0  0  0  0  0  0  0  0
    9.2779  -15.1796   19.0083 C   0  0  1  0  0  0  0  0  0  0  0  0
    9.3028  -14.9778   20.4726 C   0  0  0  0  0  0  0  0  0  0  0  0
   10.1183  -14.1402   21.0067 O   0  0  0  0  0  0  0  0  0  0  0  0
    8.4779  -15.6494   21.3794 N   0  0  0  0  0  0  0  0  0  0  0  0
    8.5466  -15.4123   22.8335 C   0  0  1  0  0  0  0  0  0  0  0  0
    7.1535  -15.3271   23.3422 C   0  0  0  0  0  0  0  0  0  0  0  0
    6.9925  -15.0567   24.7672 C   0  0  0  0  0  0  0  0  0  0  0  0
    6.7700  -15.8320   25.8684 C   0  0  0  0  0  0  0  0  0  0  0  0
    6.6901  -15.0778   26.9892 N   0  0  0  0  0  0  0  0  0  0  0  0
    6.8615  -13.7965   26.6193 C   0  0  0  0  0  0  0  0  0  0  0  0
    6.8788  -12.5916   27.3306 C   0  0  0  0  0  0  0  0  0  0  0  0
    7.0754  -11.3788   26.7212 C   0  0  0  0  0  0  0  0  0  0  0  0
    7.2627  -11.3415   25.3603 C   0  0  0  0  0  0  0  0  0  0  0  0
    7.2471  -12.5120   24.6615 C   0  0  0  0  0  0  0  0  0  0  0  0
    7.0504  -13.7464   25.2576 C   0  0  0  0  0  0  0  0  0  0  0  0
    9.1995  -16.6074   23.4826 C   0  0  0  0  0  0  0  0  0  0  0  0
    8.8271  -17.7323   23.1441 O   0  0  0  0  0  0  0  0  0  0  0  0
   10.2093  -16.4323   24.4511 N   0  0  0  0  0  0  0  0  0  0  0  0
   10.9398  -17.5937   25.0198 C   0  0  1  0  0  0  0  0  0  0  0  0
   12.4149  -17.3238   24.9545 C   0  0  0  0  0  0  0  0  0  0  0  0
   12.9952  -17.4402   23.6014 C   0  0  0  0  0  0  0  0  0  0  0  0
   12.3088  -17.8348   22.4510 C   0  0  0  0  0  0  0  0  0  0  0  0
   13.1336  -17.8311   21.4027 N   0  0  0  0  0  0  0  0  0  0  0  0
   14.3307  -17.4474   21.8366 C   0  0  0  0  0  0  0  0  0  0  0  0
   14.2464  -17.2107   23.1686 N   0  0  0  0  0  0  0  0  0  0  0  0
   10.4538  -17.8003   26.4105 C   0  0  0  0  0  0  0  0  0  0  0  0
   10.8308  -18.7014   27.1871 O   0  0  0  0  0  0  0  0  0  0  0  0
    9.4965  -16.9219   26.9029 O   0  0  0  0  0  0  0  0  0  0  0  0
  1  2  1  0
  1  5  1  0
  2  3  1  0
  3  4  1  0
  5  4  1  0
  5  6  1  1
  6  7  2  0
  8  9  1  0
  8  6  1  0
  9 10  1  1
 10 11  1  0
 11 12  2  0
 13 12  1  0
 14 13  1  0
 15 14  2  0
 16 15  1  0
 17 16  2  0
 17 18  1  0
 18 19  2  0
 19 14  1  0
 19 11  1  0
 20  9  1  0
 21 20  2  0
 22 20  1  0
 23 24  1  1
 23 22  1  0
 25 29  1  0
 25 24  1  0
 26 25  2  0
 27 26  1  0
 27 28  1  0
 28 29  2  0
 30 23  1  0
 30 32  1  0
 31 30  2  0
M  END
$$$$
