SWD.pdb
     RDKit          3D

 29 30  0  0  1  0  0  0  0  0999 V2000
   26.4721  -20.0544  -16.9817 O   0  0  0  0  0  0  0  0  0  0  0  0
   27.8362  -20.1300  -16.7267 C   0  0  0  0  0  0  0  0  0  0  0  0
   28.1707  -21.4396  -16.0207 C   0  0  2  0  0  0  0  0  0  0  0  0
   27.7828  -22.4978  -16.9598 N   0  0  0  0  0  0  0  0  0  0  0  0
   27.2996  -21.6009  -14.8127 C   0  0  0  0  0  0  0  0  0  0  0  0
   26.3571  -22.4694  -14.8765 O   0  0  0  0  0  0  0  0  0  0  0  0
   27.5132  -20.8327  -13.6557 N   0  0  0  0  0  0  0  0  0  0  0  0
   26.7187  -21.0151  -12.4420 C   0  0  1  0  0  0  0  0  0  0  0  0
   27.4134  -20.4941  -11.2405 C   0  0  0  0  0  0  0  0  0  0  0  0
   26.6338  -20.4506   -9.9945 C   0  0  0  0  0  0  0  0  0  0  0  0
   25.2783  -20.5178   -9.8314 C   0  0  0  0  0  0  0  0  0  0  0  0
   25.0433  -20.4703   -8.5015 N   0  0  0  0  0  0  0  0  0  0  0  0
   26.1884  -20.3778   -7.8180 C   0  0  0  0  0  0  0  0  0  0  0  0
   26.4828  -20.3130   -6.4446 C   0  0  0  0  0  0  0  0  0  0  0  0
   27.8126  -20.2389   -6.0905 C   0  0  0  0  0  0  0  0  0  0  0  0
   28.8302  -20.2252   -7.0039 C   0  0  0  0  0  0  0  0  0  0  0  0
   28.5277  -20.2879   -8.3492 C   0  0  0  0  0  0  0  0  0  0  0  0
   27.1990  -20.3637   -8.7407 C   0  0  0  0  0  0  0  0  0  0  0  0
   25.3410  -20.4711  -12.6690 C   0  0  0  0  0  0  0  0  0  0  0  0
   25.1192  -19.2891  -13.0101 O   0  0  0  0  0  0  0  0  0  0  0  0
   24.1995  -21.3122  -12.4921 N   0  0  0  0  0  0  0  0  0  0  0  0
   22.8905  -20.8704  -12.8041 C   0  0  1  0  0  0  0  0  0  0  0  0
   22.0734  -21.7823  -13.6410 C   0  0  0  0  0  0  0  0  0  0  0  0
   22.3778  -21.8503  -15.0616 C   0  0  0  0  0  0  0  0  0  0  0  0
   22.2884  -22.8539  -15.8125 O   0  0  0  0  0  0  0  0  0  0  0  0
   22.1009  -20.7108  -11.5045 C   0  0  0  0  0  0  0  0  0  0  0  0
   22.4888  -21.2300  -10.4412 O   0  0  0  0  0  0  0  0  0  0  0  0
   22.8207  -20.6735  -15.6772 O   0  0  0  0  0  0  0  0  0  0  0  0
   20.9467  -19.9688  -11.5651 O   0  0  0  0  0  0  0  0  0  0  0  0
  2  1  1  0
  3  2  1  0
  3  4  1  6
  5  3  1  0
  5  6  2  0
  7  5  1  0
  8 19  1  0
  8  7  1  0
  9 10  1  0
  8  9  1  1
 10 18  1  0
 11 12  1  0
 11 10  2  0
 12 13  1  0
 13 18  2  0
 13 14  1  0
 14 15  2  0
 15 16  1  0
 17 16  2  0
 18 17  1  0
 19 21  1  0
 20 19  2  0
 22 21  1  0
 22 26  1  0
 23 24  1  0
 22 23  1  6
 24 25  2  0
 26 27  2  0
 26 29  1  0
 28 24  1  0
M  END
$$$$
