SWD.pdb
     RDKit          3D

 29 30  0  0  1  0  0  0  0  0999 V2000
   17.2889  -13.0502  -18.7410 O   0  0  0  0  0  0  0  0  0  0  0  0
   18.0296  -12.1465  -17.9887 C   0  0  0  0  0  0  0  0  0  0  0  0
   19.4814  -12.6029  -17.8924 C   0  0  2  0  0  0  0  0  0  0  0  0
   19.4427  -13.8700  -17.1542 N   0  0  0  0  0  0  0  0  0  0  0  0
   20.2600  -11.6410  -17.0483 C   0  0  0  0  0  0  0  0  0  0  0  0
   19.9989  -11.6129  -15.7922 O   0  0  0  0  0  0  0  0  0  0  0  0
   21.2402  -10.8078  -17.6134 N   0  0  0  0  0  0  0  0  0  0  0  0
   22.1336   -9.9898  -16.7946 C   0  0  1  0  0  0  0  0  0  0  0  0
   23.5595  -10.2234  -17.1259 C   0  0  0  0  0  0  0  0  0  0  0  0
   24.1801  -11.4289  -16.5569 C   0  0  0  0  0  0  0  0  0  0  0  0
   23.6229  -12.6592  -16.3465 C   0  0  0  0  0  0  0  0  0  0  0  0
   24.5961  -13.4451  -15.8352 N   0  0  0  0  0  0  0  0  0  0  0  0
   25.7421  -12.7675  -15.7148 C   0  0  0  0  0  0  0  0  0  0  0  0
   27.0237  -13.1242  -15.2595 C   0  0  0  0  0  0  0  0  0  0  0  0
   27.9959  -12.1479  -15.2924 C   0  0  0  0  0  0  0  0  0  0  0  0
   27.7643  -10.8765  -15.7397 C   0  0  0  0  0  0  0  0  0  0  0  0
   26.5014  -10.5387  -16.1827 C   0  0  0  0  0  0  0  0  0  0  0  0
   25.4990  -11.4977  -16.1635 C   0  0  0  0  0  0  0  0  0  0  0  0
   21.6892   -8.5602  -16.8589 C   0  0  0  0  0  0  0  0  0  0  0  0
   21.5405   -7.9370  -17.9323 O   0  0  0  0  0  0  0  0  0  0  0  0
   21.4171   -7.8387  -15.6559 N   0  0  0  0  0  0  0  0  0  0  0  0
   21.0318   -6.4759  -15.6729 C   0  0  1  0  0  0  0  0  0  0  0  0
   19.6781   -6.1713  -15.1493 C   0  0  0  0  0  0  0  0  0  0  0  0
   19.2595   -4.7785  -15.1278 C   0  0  0  0  0  0  0  0  0  0  0  0
   19.7250   -3.8326  -15.8118 O   0  0  0  0  0  0  0  0  0  0  0  0
   21.9889   -5.6815  -14.7836 C   0  0  0  0  0  0  0  0  0  0  0  0
   22.7667   -6.2513  -13.9955 O   0  0  0  0  0  0  0  0  0  0  0  0
   18.2217   -4.4367  -14.2526 O   0  0  0  0  0  0  0  0  0  0  0  0
   21.9508   -4.3131  -14.8955 O   0  0  0  0  0  0  0  0  0  0  0  0
  2  1  1  0
  3  2  1  0
  3  4  1  1
  5  3  1  0
  5  6  2  0
  7  5  1  0
  8 19  1  0
  8  7  1  0
  9 10  1  0
  8  9  1  6
 10 18  1  0
 11 12  1  0
 11 10  2  0
 12 13  1  0
 13 18  2  0
 13 14  1  0
 14 15  2  0
 15 16  1  0
 17 16  2  0
 18 17  1  0
 19 21  1  0
 20 19  2  0
 22 21  1  0
 22 26  1  0
 23 24  1  0
 22 23  1  1
 24 25  2  0
 26 27  2  0
 26 29  1  0
 28 24  1  0
M  END
$$$$
