SWD.pdb
     RDKit          3D

 29 30  0  0  1  0  0  0  0  0999 V2000
   14.5797  -14.1147    7.5417 O   0  0  0  0  0  0  0  0  0  0  0  0
   13.4012  -14.0831    6.8058 C   0  0  0  0  0  0  0  0  0  0  0  0
   13.7031  -13.8198    5.3345 C   0  0  2  0  0  0  0  0  0  0  0  0
   12.3942  -13.7436    4.6764 N   0  0  0  0  0  0  0  0  0  0  0  0
   14.4098  -15.0008    4.7430 C   0  0  0  0  0  0  0  0  0  0  0  0
   13.7078  -16.0466    4.4979 O   0  0  0  0  0  0  0  0  0  0  0  0
   15.7864  -14.9585    4.4647 N   0  0  0  0  0  0  0  0  0  0  0  0
   16.4931  -16.0849    3.8567 C   0  0  1  0  0  0  0  0  0  0  0  0
   17.6093  -15.6371    2.9900 C   0  0  0  0  0  0  0  0  0  0  0  0
   18.2448  -16.6631    2.1498 C   0  0  0  0  0  0  0  0  0  0  0  0
   17.7392  -17.8645    1.7384 C   0  0  0  0  0  0  0  0  0  0  0  0
   18.6826  -18.4375    0.9588 N   0  0  0  0  0  0  0  0  0  0  0  0
   19.7596  -17.6520    0.8583 C   0  0  0  0  0  0  0  0  0  0  0  0
   20.9790  -17.7801    0.1701 C   0  0  0  0  0  0  0  0  0  0  0  0
   21.8754  -16.7393    0.2821 C   0  0  0  0  0  0  0  0  0  0  0  0
   21.6280  -15.6153    1.0207 C   0  0  0  0  0  0  0  0  0  0  0  0
   20.4276  -15.5024    1.6927 C   0  0  0  0  0  0  0  0  0  0  0  0
   19.5021  -16.5319    1.6013 C   0  0  0  0  0  0  0  0  0  0  0  0
   16.8688  -17.0653    4.9259 C   0  0  0  0  0  0  0  0  0  0  0  0
   17.6782  -16.8030    5.8416 O   0  0  0  0  0  0  0  0  0  0  0  0
   16.2991  -18.3757    4.9299 N   0  0  0  0  0  0  0  0  0  0  0  0
   16.5870  -19.3124    5.9524 C   0  0  1  0  0  0  0  0  0  0  0  0
   15.5587  -20.3529    6.1961 C   0  0  0  0  0  0  0  0  0  0  0  0
   14.6552  -20.1602    7.3194 C   0  0  0  0  0  0  0  0  0  0  0  0
   14.7026  -19.2534    8.1881 O   0  0  0  0  0  0  0  0  0  0  0  0
   17.8505  -20.0850    5.5722 C   0  0  0  0  0  0  0  0  0  0  0  0
   18.3338  -20.0155    4.4266 O   0  0  0  0  0  0  0  0  0  0  0  0
   13.6089  -21.0793    7.4630 O   0  0  0  0  0  0  0  0  0  0  0  0
   18.4260  -20.8568    6.5517 O   0  0  0  0  0  0  0  0  0  0  0  0
  2  1  1  0
  3  2  1  0
  3  4  1  6
  5  3  1  0
  5  6  2  0
  7  5  1  0
  8 19  1  0
  8  7  1  0
  9 10  1  0
  8  9  1  1
 10 18  1  0
 11 12  1  0
 11 10  2  0
 12 13  1  0
 13 18  2  0
 13 14  1  0
 14 15  2  0
 15 16  1  0
 17 16  2  0
 18 17  1  0
 19 21  1  0
 20 19  2  0
 22 21  1  0
 22 26  1  0
 23 24  1  0
 22 23  1  6
 24 25  2  0
 26 27  2  0
 26 29  1  0
 28 24  1  0
M  END
$$$$
