SWD.pdb
     RDKit          3D

 29 30  0  0  1  0  0  0  0  0999 V2000
   26.7217  -19.0938  -15.2421 O   0  0  0  0  0  0  0  0  0  0  0  0
   28.0926  -19.2775  -15.1072 C   0  0  0  0  0  0  0  0  0  0  0  0
   28.3908  -20.6858  -14.6045 C   0  0  2  0  0  0  0  0  0  0  0  0
   27.9300  -21.5844  -15.6686 N   0  0  0  0  0  0  0  0  0  0  0  0
   27.5497  -20.9831  -13.4011 C   0  0  0  0  0  0  0  0  0  0  0  0
   26.5331  -21.7485  -13.5662 O   0  0  0  0  0  0  0  0  0  0  0  0
   27.8681  -20.4464  -12.1421 N   0  0  0  0  0  0  0  0  0  0  0  0
   27.0900  -20.7565  -10.9438 C   0  0  1  0  0  0  0  0  0  0  0  0
   27.7741  -20.3098   -9.7069 C   0  0  0  0  0  0  0  0  0  0  0  0
   27.0612  -20.5349   -8.4406 C   0  0  0  0  0  0  0  0  0  0  0  0
   25.8481  -21.1308   -8.2367 C   0  0  0  0  0  0  0  0  0  0  0  0
   25.6341  -21.1320   -6.9024 N   0  0  0  0  0  0  0  0  0  0  0  0
   26.6573  -20.5654   -6.2550 C   0  0  0  0  0  0  0  0  0  0  0  0
   26.9224  -20.3380   -4.8930 C   0  0  0  0  0  0  0  0  0  0  0  0
   28.1172  -19.7268   -4.5795 C   0  0  0  0  0  0  0  0  0  0  0  0
   29.0305  -19.3423   -5.5219 C   0  0  0  0  0  0  0  0  0  0  0  0
   28.7576  -19.5699   -6.8557 C   0  0  0  0  0  0  0  0  0  0  0  0
   27.5639  -20.1836   -7.2065 C   0  0  0  0  0  0  0  0  0  0  0  0
   25.6916  -20.2474  -11.1194 C   0  0  0  0  0  0  0  0  0  0  0  0
   25.4244  -19.0515  -11.3665 O   0  0  0  0  0  0  0  0  0  0  0  0
   24.5827  -21.1407  -11.0013 N   0  0  0  0  0  0  0  0  0  0  0  0
   23.2943  -20.7998  -11.4805 C   0  0  1  0  0  0  0  0  0  0  0  0
   22.5993  -21.8346  -12.2841 C   0  0  0  0  0  0  0  0  0  0  0  0
   22.1414  -21.4632  -13.6136 C   0  0  0  0  0  0  0  0  0  0  0  0
   22.1709  -20.3216  -14.1381 O   0  0  0  0  0  0  0  0  0  0  0  0
   22.3756  -20.5425  -10.2856 C   0  0  0  0  0  0  0  0  0  0  0  0
   22.7270  -20.8228   -9.1243 O   0  0  0  0  0  0  0  0  0  0  0  0
   21.6054  -22.4805  -14.4122 O   0  0  0  0  0  0  0  0  0  0  0  0
   21.1478  -19.9881  -10.5531 O   0  0  0  0  0  0  0  0  0  0  0  0
  2  1  1  0
  3  2  1  0
  3  4  1  6
  5  3  1  0
  5  6  2  0
  7  5  1  0
  8 19  1  0
  8  7  1  0
  9 10  1  0
  8  9  1  1
 10 18  1  0
 11 12  1  0
 11 10  2  0
 12 13  1  0
 13 18  2  0
 13 14  1  0
 14 15  2  0
 15 16  1  0
 17 16  2  0
 18 17  1  0
 19 21  1  0
 20 19  2  0
 22 21  1  0
 22 26  1  0
 23 24  1  0
 22 23  1  1
 24 25  2  0
 26 27  2  0
 26 29  1  0
 28 24  1  0
M  END
$$$$
