SWD.pdb
     RDKit          3D

 29 30  0  0  1  0  0  0  0  0999 V2000
   21.4985  -12.1982  -20.8049 O   0  0  0  0  0  0  0  0  0  0  0  0
   21.9025  -11.4579  -19.7003 C   0  0  0  0  0  0  0  0  0  0  0  0
   23.4239  -11.3672  -19.6520 C   0  0  2  0  0  0  0  0  0  0  0  0
   23.8859  -12.7290  -19.3620 N   0  0  0  0  0  0  0  0  0  0  0  0
   23.8443  -10.5180  -18.4918 C   0  0  0  0  0  0  0  0  0  0  0  0
   23.6392  -10.9845  -17.3141 O   0  0  0  0  0  0  0  0  0  0  0  0
   24.4437   -9.2627  -18.6902 N   0  0  0  0  0  0  0  0  0  0  0  0
   24.8736   -8.4198  -17.5756 C   0  0  1  0  0  0  0  0  0  0  0  0
   26.2964   -8.0218  -17.6974 C   0  0  0  0  0  0  0  0  0  0  0  0
   27.2843   -9.1101  -17.7425 C   0  0  0  0  0  0  0  0  0  0  0  0
   28.2243   -9.3721  -18.6997 C   0  0  0  0  0  0  0  0  0  0  0  0
   28.9149  -10.4556  -18.2810 N   0  0  0  0  0  0  0  0  0  0  0  0
   28.4547  -10.8881  -17.1028 C   0  0  0  0  0  0  0  0  0  0  0  0
   28.8308  -11.9460  -16.2563 C   0  0  0  0  0  0  0  0  0  0  0  0
   28.1271  -12.0894  -15.0801 C   0  0  0  0  0  0  0  0  0  0  0  0
   27.1013  -11.2614  -14.7164 C   0  0  0  0  0  0  0  0  0  0  0  0
   26.7410  -10.2274  -15.5569 C   0  0  0  0  0  0  0  0  0  0  0  0
   27.4289  -10.0541  -16.7492 C   0  0  0  0  0  0  0  0  0  0  0  0
   23.9057   -7.2875  -17.4127 C   0  0  0  0  0  0  0  0  0  0  0  0
   23.5033   -6.5880  -18.3674 O   0  0  0  0  0  0  0  0  0  0  0  0
   23.3991   -6.9574  -16.1181 N   0  0  0  0  0  0  0  0  0  0  0  0
   22.4688   -5.9070  -15.9254 C   0  0  1  0  0  0  0  0  0  0  0  0
   21.2462   -6.2473  -15.1579 C   0  0  0  0  0  0  0  0  0  0  0  0
   20.2856   -5.1836  -14.9107 C   0  0  0  0  0  0  0  0  0  0  0  0
   20.3166   -4.0100  -15.3588 O   0  0  0  0  0  0  0  0  0  0  0  0
   23.1423   -4.7923  -15.1243 C   0  0  0  0  0  0  0  0  0  0  0  0
   24.2580   -4.9558  -14.5957 O   0  0  0  0  0  0  0  0  0  0  0  0
   19.1975   -5.4850  -14.0829 O   0  0  0  0  0  0  0  0  0  0  0  0
   22.4606   -3.6049  -15.0161 O   0  0  0  0  0  0  0  0  0  0  0  0
  2  1  1  0
  3  2  1  0
  3  4  1  1
  5  3  1  0
  5  6  2  0
  7  5  1  0
  8 19  1  0
  8  7  1  0
  9 10  1  0
  8  9  1  6
 10 18  1  0
 11 12  1  0
 11 10  2  0
 12 13  1  0
 13 18  2  0
 13 14  1  0
 14 15  2  0
 15 16  1  0
 17 16  2  0
 18 17  1  0
 19 21  1  0
 20 19  2  0
 22 21  1  0
 22 26  1  0
 23 24  1  0
 22 23  1  1
 24 25  2  0
 26 27  2  0
 26 29  1  0
 28 24  1  0
M  END
$$$$
