SWD.pdb
     RDKit          3D

 29 30  0  0  1  0  0  0  0  0999 V2000
   27.8387  -19.7122  -17.3456 O   0  0  0  0  0  0  0  0  0  0  0  0
   27.0164  -20.5812  -16.6383 C   0  0  0  0  0  0  0  0  0  0  0  0
   27.8297  -21.3605  -15.6105 C   0  0  2  0  0  0  0  0  0  0  0  0
   28.1493  -22.6387  -16.2554 N   0  0  0  0  0  0  0  0  0  0  0  0
   26.9726  -21.6832  -14.4252 C   0  0  0  0  0  0  0  0  0  0  0  0
   26.3477  -22.8039  -14.4364 O   0  0  0  0  0  0  0  0  0  0  0  0
   26.8641  -20.7928  -13.3436 N   0  0  0  0  0  0  0  0  0  0  0  0
   25.9090  -21.0008  -12.2563 C   0  0  1  0  0  0  0  0  0  0  0  0
   26.3006  -20.2713  -11.0266 C   0  0  0  0  0  0  0  0  0  0  0  0
   27.4696  -20.7862  -10.2980 C   0  0  0  0  0  0  0  0  0  0  0  0
   28.5779  -21.4137  -10.7943 C   0  0  0  0  0  0  0  0  0  0  0  0
   29.3860  -21.6674   -9.7413 N   0  0  0  0  0  0  0  0  0  0  0  0
   28.8389  -21.2275   -8.6037 C   0  0  0  0  0  0  0  0  0  0  0  0
   29.2713  -21.2361   -7.2657 C   0  0  0  0  0  0  0  0  0  0  0  0
   28.4342  -20.6648   -6.3319 C   0  0  0  0  0  0  0  0  0  0  0  0
   27.2282  -20.1049   -6.6516 C   0  0  0  0  0  0  0  0  0  0  0  0
   26.8147  -20.1041   -7.9685 C   0  0  0  0  0  0  0  0  0  0  0  0
   27.6334  -20.6708   -8.9346 C   0  0  0  0  0  0  0  0  0  0  0  0
   24.5252  -20.7145  -12.7550 C   0  0  0  0  0  0  0  0  0  0  0  0
   24.2492  -19.7392  -13.4864 O   0  0  0  0  0  0  0  0  0  0  0  0
   23.4410  -21.5725  -12.3944 N   0  0  0  0  0  0  0  0  0  0  0  0
   22.1230  -21.3473  -12.8614 C   0  0  1  0  0  0  0  0  0  0  0  0
   21.3228  -22.5566  -13.1728 C   0  0  0  0  0  0  0  0  0  0  0  0
   19.9532  -22.3633  -13.6225 C   0  0  0  0  0  0  0  0  0  0  0  0
   19.0307  -21.7613  -13.0178 O   0  0  0  0  0  0  0  0  0  0  0  0
   21.3325  -20.6178  -11.7747 C   0  0  0  0  0  0  0  0  0  0  0  0
   21.7519  -20.5460  -10.6044 O   0  0  0  0  0  0  0  0  0  0  0  0
   19.6076  -22.9017  -14.8678 O   0  0  0  0  0  0  0  0  0  0  0  0
   20.1412  -20.0463  -12.1498 O   0  0  0  0  0  0  0  0  0  0  0  0
  2  1  1  0
  3  2  1  0
  3  4  1  6
  5  3  1  0
  5  6  2  0
  7  5  1  0
  8 19  1  0
  8  7  1  0
  9 10  1  0
  8  9  1  1
 10 18  1  0
 11 12  1  0
 11 10  2  0
 12 13  1  0
 13 18  2  0
 13 14  1  0
 14 15  2  0
 15 16  1  0
 17 16  2  0
 18 17  1  0
 19 21  1  0
 20 19  2  0
 22 21  1  0
 22 26  1  0
 23 24  1  0
 22 23  1  1
 24 25  2  0
 26 27  2  0
 26 29  1  0
 28 24  1  0
M  END
$$$$
