SWD.pdb
     RDKit          3D

 29 30  0  0  1  0  0  0  0  0999 V2000
   29.7474  -21.5528  -16.1512 O   0  0  0  0  0  0  0  0  0  0  0  0
   28.7496  -22.2911  -15.5263 C   0  0  0  0  0  0  0  0  0  0  0  0
   27.4229  -21.5416  -15.5826 C   0  0  2  0  0  0  0  0  0  0  0  0
   27.7758  -20.1197  -15.5067 N   0  0  0  0  0  0  0  0  0  0  0  0
   26.6160  -21.8468  -14.3579 C   0  0  0  0  0  0  0  0  0  0  0  0
   26.3310  -23.0772  -14.1305 O   0  0  0  0  0  0  0  0  0  0  0  0
   26.1944  -20.8233  -13.4925 N   0  0  0  0  0  0  0  0  0  0  0  0
   25.3246  -21.0817  -12.3460 C   0  0  1  0  0  0  0  0  0  0  0  0
   25.7792  -20.3635  -11.1315 C   0  0  0  0  0  0  0  0  0  0  0  0
   27.0280  -20.8352  -10.5146 C   0  0  0  0  0  0  0  0  0  0  0  0
   28.0758  -21.4901  -11.0990 C   0  0  0  0  0  0  0  0  0  0  0  0
   29.0018  -21.6824  -10.1336 N   0  0  0  0  0  0  0  0  0  0  0  0
   28.5868  -21.1775   -8.9675 C   0  0  0  0  0  0  0  0  0  0  0  0
   29.1707  -21.1087   -7.6903 C   0  0  0  0  0  0  0  0  0  0  0  0
   28.4432  -20.4844   -6.7002 C   0  0  0  0  0  0  0  0  0  0  0  0
   27.2045  -19.9442   -6.9099 C   0  0  0  0  0  0  0  0  0  0  0  0
   26.6418  -20.0196   -8.1681 C   0  0  0  0  0  0  0  0  0  0  0  0
   27.3472  -20.6411   -9.1882 C   0  0  0  0  0  0  0  0  0  0  0  0
   23.9012  -20.8300  -12.7412 C   0  0  0  0  0  0  0  0  0  0  0  0
   23.4973  -19.7328  -13.1834 O   0  0  0  0  0  0  0  0  0  0  0  0
   22.9277  -21.8684  -12.6165 N   0  0  0  0  0  0  0  0  0  0  0  0
   21.6194  -21.7330  -13.1418 C   0  0  1  0  0  0  0  0  0  0  0  0
   20.9354  -22.9908  -13.5286 C   0  0  0  0  0  0  0  0  0  0  0  0
   19.5716  -22.8934  -14.0247 C   0  0  0  0  0  0  0  0  0  0  0  0
   18.8633  -21.8587  -14.1074 O   0  0  0  0  0  0  0  0  0  0  0  0
   20.7219  -21.1054  -12.0749 C   0  0  0  0  0  0  0  0  0  0  0  0
   19.6341  -20.5762  -12.3708 O   0  0  0  0  0  0  0  0  0  0  0  0
   18.9656  -24.0764  -14.4642 O   0  0  0  0  0  0  0  0  0  0  0  0
   21.1706  -21.1536  -10.7776 O   0  0  0  0  0  0  0  0  0  0  0  0
  2  1  1  0
  3  2  1  0
  3  4  1  1
  5  3  1  0
  5  6  2  0
  7  5  1  0
  8 19  1  0
  8  7  1  0
  9 10  1  0
  8  9  1  1
 10 18  1  0
 11 12  1  0
 11 10  2  0
 12 13  1  0
 13 18  2  0
 13 14  1  0
 14 15  2  0
 15 16  1  0
 17 16  2  0
 18 17  1  0
 19 21  1  0
 20 19  2  0
 22 21  1  0
 22 26  1  0
 23 24  1  0
 22 23  1  1
 24 25  2  0
 26 27  2  0
 26 29  1  0
 28 24  1  0
M  END
$$$$
