THP.pdb
     RDKit          3D

 25 26  0  0  1  0  0  0  0  0999 V2000
   24.0668  -13.4023  -15.8755 C   0  0  0  0  0  0  0  0  0  0  0  0
   23.3012  -12.2271  -16.3753 C   0  0  1  0  0  0  0  0  0  0  0  0
   21.9584  -12.5277  -16.4232 O   0  0  0  0  0  0  0  0  0  0  0  0
   23.5079  -10.9710  -15.5735 C   0  0  2  0  0  0  0  0  0  0  0  0
   23.1293  -11.1148  -14.1933 N   0  0  0  0  0  0  0  0  0  0  0  0
   22.8030   -9.8037  -16.1563 C   0  0  0  0  0  0  0  0  0  0  0  0
   23.0393   -9.3744  -17.3163 O   0  0  0  0  0  0  0  0  0  0  0  0
   21.8184   -9.1164  -15.4123 N   0  0  0  0  0  0  0  0  0  0  0  0
   21.1444   -7.9256  -15.9385 C   0  0  1  0  0  0  0  0  0  0  0  0
   19.7146   -8.1236  -15.6005 C   0  0  0  0  0  0  0  0  0  0  0  0
   18.9321   -9.0551  -16.3936 C   0  0  0  0  0  0  0  0  0  0  0  0
   18.6192   -8.7395  -17.7312 C   0  0  0  0  0  0  0  0  0  0  0  0
   17.9077   -9.7236  -18.2497 N   0  0  0  0  0  0  0  0  0  0  0  0
   17.7444  -10.6638  -17.3095 C   0  0  0  0  0  0  0  0  0  0  0  0
   18.3682  -10.2419  -16.2012 N   0  0  0  0  0  0  0  0  0  0  0  0
   21.7040   -6.6983  -15.3298 C   0  0  0  0  0  0  0  0  0  0  0  0
   22.2421   -6.9076  -14.1575 O   0  0  0  0  0  0  0  0  0  0  0  0
   21.7456   -5.4004  -15.7928 N   0  0  0  0  0  0  0  0  0  0  0  0
   21.3180   -4.7618  -16.9794 C   0  0  0  0  0  0  0  0  0  0  0  0
   22.6643   -4.1284  -17.4139 C   0  0  0  0  0  0  0  0  0  0  0  0
   23.0694   -3.5177  -16.0775 C   0  0  0  0  0  0  0  0  0  0  0  0
   22.3074   -4.2763  -15.0137 C   0  0  1  0  0  0  0  0  0  0  0  0
   21.2788   -3.4081  -14.4480 C   0  0  0  0  0  0  0  0  0  0  0  0
   20.0722   -3.3631  -14.7663 O   0  0  0  0  0  0  0  0  0  0  0  0
   21.6848   -2.5322  -13.4421 O   0  0  0  0  0  0  0  0  0  0  0  0
  2  1  1  1
  3  2  1  0
  4  5  1  1
  4  2  1  0
  4  6  1  0
  6  7  2  0
  8  6  1  0
  8  9  1  0
  9 16  1  0
 10 11  1  0
  9 10  1  1
 11 12  2  0
 13 12  1  0
 14 13  1  0
 15 14  2  0
 15 11  1  0
 16 17  2  0
 18 16  1  0
 18 22  1  0
 19 18  1  0
 20 19  1  0
 20 21  1  0
 21 22  1  0
 22 23  1  6
 23 25  1  0
 24 23  2  0
M  END
$$$$
