THP.pdb
     RDKit          3D

 25 26  0  0  1  0  0  0  0  0999 V2000
   27.6427  -26.1398  -18.2634 C   0  0  0  0  0  0  0  0  0  0  0  0
   27.5972  -25.0075  -17.2975 C   0  0  1  0  0  0  0  0  0  0  0  0
   27.8771  -25.4619  -16.0283 O   0  0  0  0  0  0  0  0  0  0  0  0
   28.5189  -23.8687  -17.6395 C   0  0  2  0  0  0  0  0  0  0  0  0
   29.8924  -24.2751  -17.7699 N   0  0  0  0  0  0  0  0  0  0  0  0
   28.4278  -22.7535  -16.6663 C   0  0  0  0  0  0  0  0  0  0  0  0
   29.3598  -22.4664  -15.8696 O   0  0  0  0  0  0  0  0  0  0  0  0
   27.2643  -21.9555  -16.5978 N   0  0  0  0  0  0  0  0  0  0  0  0
   27.1139  -20.8941  -15.5976 C   0  0  1  0  0  0  0  0  0  0  0  0
   26.7698  -19.6847  -16.3829 C   0  0  0  0  0  0  0  0  0  0  0  0
   26.4329  -18.4635  -15.6726 C   0  0  0  0  0  0  0  0  0  0  0  0
   27.1924  -17.2970  -15.8936 C   0  0  0  0  0  0  0  0  0  0  0  0
   26.7080  -16.3212  -15.1474 N   0  0  0  0  0  0  0  0  0  0  0  0
   25.6686  -16.8012  -14.4520 C   0  0  0  0  0  0  0  0  0  0  0  0
   25.5203  -18.0912  -14.7827 N   0  0  0  0  0  0  0  0  0  0  0  0
   26.0643  -21.2478  -14.6162 C   0  0  0  0  0  0  0  0  0  0  0  0
   25.1746  -22.0771  -15.0944 O   0  0  0  0  0  0  0  0  0  0  0  0
   25.8809  -20.8498  -13.3092 N   0  0  0  0  0  0  0  0  0  0  0  0
   26.5861  -19.9970  -12.4292 C   0  0  0  0  0  0  0  0  0  0  0  0
   26.8276  -20.9929  -11.2663 C   0  0  0  0  0  0  0  0  0  0  0  0
   25.4143  -21.5511  -11.1485 C   0  0  0  0  0  0  0  0  0  0  0  0
   24.7404  -21.2893  -12.4771 C   0  0  1  0  0  0  0  0  0  0  0  0
   23.7290  -20.2502  -12.3065 C   0  0  0  0  0  0  0  0  0  0  0  0
   23.8102  -19.0546  -12.6578 O   0  0  0  0  0  0  0  0  0  0  0  0
   22.5412  -20.6311  -11.6835 O   0  0  0  0  0  0  0  0  0  0  0  0
  2  1  1  6
  3  2  1  0
  4  5  1  1
  4  2  1  0
  4  6  1  0
  6  7  2  0
  8  6  1  0
  8  9  1  0
  9 16  1  0
 10 11  1  0
  9 10  1  6
 11 12  2  0
 13 12  1  0
 14 13  1  0
 15 14  2  0
 15 11  1  0
 16 17  2  0
 18 16  1  0
 18 22  1  0
 19 18  1  0
 20 19  1  0
 20 21  1  0
 21 22  1  0
 22 23  1  1
 23 25  1  0
 24 23  2  0
M  END
$$$$
