THP.pdb
     RDKit          3D

 25 26  0  0  1  0  0  0  0  0999 V2000
   24.6234  -13.6527  -14.6399 C   0  0  0  0  0  0  0  0  0  0  0  0
   24.0564  -12.4365  -15.2850 C   0  0  1  0  0  0  0  0  0  0  0  0
   24.8887  -12.0099  -16.2954 O   0  0  0  0  0  0  0  0  0  0  0  0
   22.6630  -12.6172  -15.8227 C   0  0  2  0  0  0  0  0  0  0  0  0
   22.6011  -13.5308  -16.9319 N   0  0  0  0  0  0  0  0  0  0  0  0
   22.0335  -11.3317  -16.2105 C   0  0  0  0  0  0  0  0  0  0  0  0
   22.0009  -10.9205  -17.4003 O   0  0  0  0  0  0  0  0  0  0  0  0
   21.4343  -10.5042  -15.2351 N   0  0  0  0  0  0  0  0  0  0  0  0
   20.8168   -9.2214  -15.5847 C   0  0  1  0  0  0  0  0  0  0  0  0
   19.4112   -9.3453  -15.1300 C   0  0  0  0  0  0  0  0  0  0  0  0
   18.5114  -10.2117  -15.8709 C   0  0  0  0  0  0  0  0  0  0  0  0
   17.8624   -9.7213  -17.0218 C   0  0  0  0  0  0  0  0  0  0  0  0
   17.1018  -10.6758  -17.5258 N   0  0  0  0  0  0  0  0  0  0  0  0
   17.2275  -11.7637  -16.7543 C   0  0  0  0  0  0  0  0  0  0  0  0
   18.0797  -11.4631  -15.7649 N   0  0  0  0  0  0  0  0  0  0  0  0
   21.5275   -8.1038  -14.9246 C   0  0  0  0  0  0  0  0  0  0  0  0
   22.1334   -8.4615  -13.8233 O   0  0  0  0  0  0  0  0  0  0  0  0
   21.6479   -6.7770  -15.2791 N   0  0  0  0  0  0  0  0  0  0  0  0
   21.2065   -6.0053  -16.3784 C   0  0  0  0  0  0  0  0  0  0  0  0
   22.5728   -5.4401  -16.8434 C   0  0  0  0  0  0  0  0  0  0  0  0
   23.1016   -4.9825  -15.4893 C   0  0  0  0  0  0  0  0  0  0  0  0
   22.3426   -5.7721  -14.4461 C   0  0  1  0  0  0  0  0  0  0  0  0
   21.4218   -4.8817  -13.7453 C   0  0  0  0  0  0  0  0  0  0  0  0
   20.1867   -4.7953  -13.9080 O   0  0  0  0  0  0  0  0  0  0  0  0
   21.9792   -4.0339  -12.7890 O   0  0  0  0  0  0  0  0  0  0  0  0
  2  1  1  6
  3  2  1  0
  4  5  1  6
  4  2  1  0
  4  6  1  0
  6  7  2  0
  8  6  1  0
  8  9  1  0
  9 16  1  0
 10 11  1  0
  9 10  1  1
 11 12  2  0
 13 12  1  0
 14 13  1  0
 15 14  2  0
 15 11  1  0
 16 17  2  0
 18 16  1  0
 18 22  1  0
 19 18  1  0
 20 19  1  0
 20 21  1  0
 21 22  1  0
 22 23  1  6
 23 25  1  0
 24 23  2  0
M  END
$$$$
