THP.pdb
     RDKit          3D

 25 26  0  0  1  0  0  0  0  0999 V2000
   25.8567  -10.7636  -15.3120 C   0  0  0  0  0  0  0  0  0  0  0  0
   25.4235  -12.0810  -15.8540 C   0  0  1  0  0  0  0  0  0  0  0  0
   26.3125  -13.0607  -15.4723 O   0  0  0  0  0  0  0  0  0  0  0  0
   24.0296  -12.4828  -15.4556 C   0  0  2  0  0  0  0  0  0  0  0  0
   23.6545  -13.7809  -15.9487 N   0  0  0  0  0  0  0  0  0  0  0  0
   23.0118  -11.4875  -15.8711 C   0  0  0  0  0  0  0  0  0  0  0  0
   22.3942  -11.5609  -16.9661 O   0  0  0  0  0  0  0  0  0  0  0  0
   22.6924  -10.3965  -15.0327 N   0  0  0  0  0  0  0  0  0  0  0  0
   21.7239   -9.3718  -15.4346 C   0  0  1  0  0  0  0  0  0  0  0  0
   20.4165   -9.8844  -14.9597 C   0  0  0  0  0  0  0  0  0  0  0  0
   19.2343   -9.0619  -15.1470 C   0  0  0  0  0  0  0  0  0  0  0  0
   19.3526   -7.8041  -15.7719 C   0  0  0  0  0  0  0  0  0  0  0  0
   18.1598   -7.2409  -15.8331 N   0  0  0  0  0  0  0  0  0  0  0  0
   17.2726   -8.0759  -15.2762 C   0  0  0  0  0  0  0  0  0  0  0  0
   17.9396   -9.1648  -14.8702 N   0  0  0  0  0  0  0  0  0  0  0  0
   22.0697   -8.0641  -14.8343 C   0  0  0  0  0  0  0  0  0  0  0  0
   22.5939   -8.1705  -13.6419 O   0  0  0  0  0  0  0  0  0  0  0  0
   21.9289   -6.7824  -15.3222 N   0  0  0  0  0  0  0  0  0  0  0  0
   21.3279   -6.2257  -16.4745 C   0  0  0  0  0  0  0  0  0  0  0  0
   22.5527   -5.4663  -17.0451 C   0  0  0  0  0  0  0  0  0  0  0  0
   23.0107   -4.7793  -15.7640 C   0  0  0  0  0  0  0  0  0  0  0  0
   22.4356   -5.5841  -14.6197 C   0  0  1  0  0  0  0  0  0  0  0  0
   21.3759   -4.8138  -13.9752 C   0  0  0  0  0  0  0  0  0  0  0  0
   20.1445   -4.9454  -14.1356 O   0  0  0  0  0  0  0  0  0  0  0  0
   21.7794   -3.8219  -13.0824 O   0  0  0  0  0  0  0  0  0  0  0  0
  2  1  1  1
  3  2  1  0
  4  5  1  6
  4  2  1  0
  4  6  1  0
  6  7  2  0
  8  6  1  0
  8  9  1  0
  9 16  1  0
 10 11  1  0
  9 10  1  1
 11 12  2  0
 13 12  1  0
 14 13  1  0
 15 14  2  0
 15 11  1  0
 16 17  2  0
 18 16  1  0
 18 22  1  0
 19 18  1  0
 20 19  1  0
 20 21  1  0
 21 22  1  0
 22 23  1  6
 23 25  1  0
 24 23  2  0
M  END
$$$$
