THP.pdb
     RDKit          3D

 25 26  0  0  1  0  0  0  0  0999 V2000
   44.4849  -10.3339   -3.5417 C   0  0  0  0  0  0  0  0  0  0  0  0
   43.6530   -9.7041   -4.6040 C   0  0  1  0  0  0  0  0  0  0  0  0
   44.2739   -8.5691   -5.0750 O   0  0  0  0  0  0  0  0  0  0  0  0
   43.3304  -10.6166   -5.7558 C   0  0  2  0  0  0  0  0  0  0  0  0
   44.5009  -11.0895   -6.4451 N   0  0  0  0  0  0  0  0  0  0  0  0
   42.4050   -9.9922   -6.7321 C   0  0  0  0  0  0  0  0  0  0  0  0
   42.7768   -9.6030   -7.8706 O   0  0  0  0  0  0  0  0  0  0  0  0
   41.0419   -9.8081   -6.4108 N   0  0  0  0  0  0  0  0  0  0  0  0
   40.1498   -9.0114   -7.2585 C   0  0  1  0  0  0  0  0  0  0  0  0
   38.7857   -9.3375   -6.7783 C   0  0  0  0  0  0  0  0  0  0  0  0
   37.6761   -8.5060   -7.2102 C   0  0  0  0  0  0  0  0  0  0  0  0
   36.9905   -7.7142   -6.2670 C   0  0  0  0  0  0  0  0  0  0  0  0
   36.0296   -7.0491   -6.8818 N   0  0  0  0  0  0  0  0  0  0  0  0
   36.0602   -7.3732   -8.1813 C   0  0  0  0  0  0  0  0  0  0  0  0
   37.0576   -8.2505   -8.3572 N   0  0  0  0  0  0  0  0  0  0  0  0
   40.4628   -7.5703   -7.1346 C   0  0  0  0  0  0  0  0  0  0  0  0
   40.9941   -7.2589   -5.9820 O   0  0  0  0  0  0  0  0  0  0  0  0
   40.2859   -6.5297   -8.0213 N   0  0  0  0  0  0  0  0  0  0  0  0
   39.7385   -6.4225   -9.3205 C   0  0  0  0  0  0  0  0  0  0  0  0
   40.9566   -5.7976  -10.0472 C   0  0  0  0  0  0  0  0  0  0  0  0
   41.2832   -4.7009   -9.0405 C   0  0  0  0  0  0  0  0  0  0  0  0
   40.6738   -5.1339   -7.7256 C   0  0  1  0  0  0  0  0  0  0  0  0
   39.5297   -4.2793   -7.4216 C   0  0  0  0  0  0  0  0  0  0  0  0
   38.3710   -4.3817   -7.8758 O   0  0  0  0  0  0  0  0  0  0  0  0
   39.7516   -3.2336   -6.5266 O   0  0  0  0  0  0  0  0  0  0  0  0
  2  1  1  1
  3  2  1  0
  4  5  1  6
  4  2  1  0
  4  6  1  0
  6  7  2  0
  8  6  1  0
  8  9  1  0
  9 16  1  0
 10 11  1  0
  9 10  1  1
 11 12  2  0
 13 12  1  0
 14 13  1  0
 15 14  2  0
 15 11  1  0
 16 17  2  0
 18 16  1  0
 18 22  1  0
 19 18  1  0
 20 19  1  0
 20 21  1  0
 21 22  1  0
 22 23  1  6
 23 25  1  0
 24 23  2  0
M  END
$$$$
