VKP.pdb
     RDKit          3D

 24 24  0  0  1  0  0  0  0  0999 V2000
   13.9136   -8.4734   -9.0686 C   0  0  0  0  0  0  0  0  0  0  0  0
   14.6042   -7.5773   -8.0615 C   0  0  2  0  0  0  0  0  0  0  0  0
   13.5194   -6.7408   -7.4075 C   0  0  0  0  0  0  0  0  0  0  0  0
   15.5765   -6.7103   -8.8155 C   0  0  2  0  0  0  0  0  0  0  0  0
   14.8060   -5.7314   -9.5575 N   0  0  0  0  0  0  0  0  0  0  0  0
   16.4342   -7.5202   -9.7334 C   0  0  0  0  0  0  0  0  0  0  0  0
   17.2886   -8.3339   -9.2859 O   0  0  0  0  0  0  0  0  0  0  0  0
   16.3389   -7.4226  -11.1333 N   0  0  0  0  0  0  0  0  0  0  0  0
   17.2762   -8.2097  -12.0218 C   0  0  1  0  0  0  0  0  0  0  0  0
   16.3082   -9.0506  -12.7840 C   0  0  0  0  0  0  0  0  0  0  0  0
   16.7166  -10.1381  -13.6726 C   0  0  0  0  0  0  0  0  0  0  0  0
   15.7051  -10.9007  -14.4266 C   0  0  0  0  0  0  0  0  0  0  0  0
   16.4261  -11.9886  -15.2547 C   0  0  0  0  0  0  0  0  0  0  0  0
   15.4347  -12.7849  -15.9259 N   0  0  0  0  0  0  0  0  0  0  0  0
   18.0656   -7.2652  -12.8024 C   0  0  0  0  0  0  0  0  0  0  0  0
   17.4274   -6.3767  -13.4200 O   0  0  0  0  0  0  0  0  0  0  0  0
   19.4714   -7.2892  -12.8876 N   0  0  0  0  0  0  0  0  0  0  0  0
   20.2686   -8.0950  -11.9913 C   0  0  0  0  0  0  0  0  0  0  0  0
   21.4534   -8.4864  -12.8167 C   0  0  0  0  0  0  0  0  0  0  0  0
   21.4130   -7.6745  -14.0677 C   0  0  0  0  0  0  0  0  0  0  0  0
   20.3406   -6.5898  -13.7439 C   0  0  1  0  0  0  0  0  0  0  0  0
   19.8492   -6.0862  -15.0197 C   0  0  0  0  0  0  0  0  0  0  0  0
   19.0734   -6.6931  -15.7526 O   0  0  0  0  0  0  0  0  0  0  0  0
   20.2999   -4.8248  -15.4236 O   0  0  0  0  0  0  0  0  0  0  0  0
  2  1  1  6
  2  3  1  0
  4  5  1  6
  4  2  1  0
  6  4  1  0
  7  6  2  0
  8  6  1  0
  9 10  1  6
  9  8  1  0
 10 11  1  0
 11 12  1  0
 13 14  1  0
 13 12  1  0
 15  9  1  0
 16 15  2  0
 17 15  1  0
 18 17  1  0
 19 20  1  0
 19 18  1  0
 20 21  1  0
 21 17  1  0
 22 24  1  0
 21 22  1  6
 23 22  2  0
M  END
$$$$
