VKP.pdb
     RDKit          3D

 24 24  0  0  1  0  0  0  0  0999 V2000
   18.6369  -22.4020  -15.8981 C   0  0  0  0  0  0  0  0  0  0  0  0
   19.0146  -20.9432  -15.7458 C   0  0  2  0  0  0  0  0  0  0  0  0
   19.9779  -20.6230  -16.8744 C   0  0  0  0  0  0  0  0  0  0  0  0
   19.6789  -20.7830  -14.4046 C   0  0  2  0  0  0  0  0  0  0  0  0
   19.7695  -19.3627  -14.1276 N   0  0  0  0  0  0  0  0  0  0  0  0
   21.0324  -21.4171  -14.3850 C   0  0  0  0  0  0  0  0  0  0  0  0
   21.1724  -22.6606  -14.2226 O   0  0  0  0  0  0  0  0  0  0  0  0
   22.2144  -20.6717  -14.5448 N   0  0  0  0  0  0  0  0  0  0  0  0
   23.5643  -21.3486  -14.4602 C   0  0  1  0  0  0  0  0  0  0  0  0
   23.7760  -21.7422  -15.8833 C   0  0  0  0  0  0  0  0  0  0  0  0
   24.8311  -22.6592  -16.3135 C   0  0  0  0  0  0  0  0  0  0  0  0
   24.8879  -24.0307  -15.7759 C   0  0  0  0  0  0  0  0  0  0  0  0
   26.1235  -24.7421  -16.3729 C   0  0  0  0  0  0  0  0  0  0  0  0
   26.1970  -26.0690  -15.8243 N   0  0  0  0  0  0  0  0  0  0  0  0
   24.5181  -20.3965  -13.9048 C   0  0  0  0  0  0  0  0  0  0  0  0
   24.8595  -19.4449  -14.6504 O   0  0  0  0  0  0  0  0  0  0  0  0
   25.0531  -20.4795  -12.6044 N   0  0  0  0  0  0  0  0  0  0  0  0
   24.4584  -21.3264  -11.5958 C   0  0  0  0  0  0  0  0  0  0  0  0
   25.6205  -21.7605  -10.7595 C   0  0  0  0  0  0  0  0  0  0  0  0
   26.7955  -20.9364  -11.1670 C   0  0  0  0  0  0  0  0  0  0  0  0
   26.1481  -19.8101  -12.0293 C   0  0  1  0  0  0  0  0  0  0  0  0
   27.1991  -19.2746  -12.8846 C   0  0  0  0  0  0  0  0  0  0  0  0
   27.4192  -19.6519  -14.0320 O   0  0  0  0  0  0  0  0  0  0  0  0
   28.0034  -18.2629  -12.3491 O   0  0  0  0  0  0  0  0  0  0  0  0
  2  1  1  6
  2  3  1  0
  4  5  1  6
  4  2  1  0
  6  4  1  0
  7  6  2  0
  8  6  1  0
  9 10  1  6
  9  8  1  0
 10 11  1  0
 11 12  1  0
 13 14  1  0
 13 12  1  0
 15  9  1  0
 16 15  2  0
 17 15  1  0
 18 17  1  0
 19 20  1  0
 19 18  1  0
 20 21  1  0
 21 17  1  0
 22 24  1  0
 21 22  1  6
 23 22  2  0
M  END
$$$$
