VKP.pdb
     RDKit          3D

 24 24  0  0  1  0  0  0  0  0999 V2000
   17.4230  -15.0405  -17.6980 C   0  0  0  0  0  0  0  0  0  0  0  0
   18.6805  -14.4395  -18.2910 C   0  0  2  0  0  0  0  0  0  0  0  0
   19.7133  -15.5509  -18.3387 C   0  0  0  0  0  0  0  0  0  0  0  0
   19.1249  -13.3256  -17.3814 C   0  0  2  0  0  0  0  0  0  0  0  0
   19.4873  -13.9178  -16.1086 N   0  0  0  0  0  0  0  0  0  0  0  0
   18.0509  -12.3009  -17.2059 C   0  0  0  0  0  0  0  0  0  0  0  0
   17.5730  -11.6753  -18.1921 O   0  0  0  0  0  0  0  0  0  0  0  0
   17.5174  -11.9791  -15.9449 N   0  0  0  0  0  0  0  0  0  0  0  0
   16.4004  -10.9669  -15.8212 C   0  0  1  0  0  0  0  0  0  0  0  0
   15.5310  -11.6242  -14.8028 C   0  0  0  0  0  0  0  0  0  0  0  0
   14.2350  -11.0879  -14.3882 C   0  0  0  0  0  0  0  0  0  0  0  0
   13.4082  -11.8170  -13.4095 C   0  0  0  0  0  0  0  0  0  0  0  0
   12.0856  -11.0425  -13.2093 C   0  0  0  0  0  0  0  0  0  0  0  0
   11.1674  -11.8833  -12.4900 N   0  0  0  0  0  0  0  0  0  0  0  0
   16.9848   -9.6866  -15.4419 C   0  0  0  0  0  0  0  0  0  0  0  0
   17.7037   -9.6815  -14.4117 O   0  0  0  0  0  0  0  0  0  0  0  0
   16.7999   -8.4886  -16.1593 N   0  0  0  0  0  0  0  0  0  0  0  0
   16.2424   -8.4853  -17.4925 C   0  0  0  0  0  0  0  0  0  0  0  0
   15.4998   -7.1887  -17.5688 C   0  0  0  0  0  0  0  0  0  0  0  0
   15.8792   -6.3865  -16.3694 C   0  0  0  0  0  0  0  0  0  0  0  0
   17.1087   -7.1628  -15.8065 C   0  0  1  0  0  0  0  0  0  0  0  0
   17.2325   -6.7981  -14.4013 C   0  0  0  0  0  0  0  0  0  0  0  0
   16.9498   -7.5400  -13.4647 O   0  0  0  0  0  0  0  0  0  0  0  0
   17.7068   -5.5134  -14.1152 O   0  0  0  0  0  0  0  0  0  0  0  0
  2  1  1  1
  2  3  1  0
  4  5  1  1
  4  2  1  0
  6  4  1  0
  7  6  2  0
  8  6  1  0
  9 10  1  1
  9  8  1  0
 10 11  1  0
 11 12  1  0
 13 14  1  0
 13 12  1  0
 15  9  1  0
 16 15  2  0
 17 15  1  0
 18 17  1  0
 19 20  1  0
 19 18  1  0
 20 21  1  0
 21 17  1  0
 22 24  1  0
 21 22  1  1
 23 22  2  0
M  END
$$$$
