AKA.pdb
     RDKit          3D

 20 19  0  0  1  0  0  0  0  0999 V2000
   15.5121  -15.9782  -19.9913 C   0  0  0  0  0  0  0  0  0  0  0  0
   16.5455  -14.8944  -20.1417 C   0  0  2  0  0  0  0  0  0  0  0  0
   17.7436  -15.4385  -20.7427 N   0  0  0  0  0  0  0  0  0  0  0  0
   16.8479  -14.2328  -18.8441 C   0  0  0  0  0  0  0  0  0  0  0  0
   15.8836  -13.7265  -18.2188 O   0  0  0  0  0  0  0  0  0  0  0  0
   18.1408  -14.1504  -18.2965 N   0  0  0  0  0  0  0  0  0  0  0  0
   18.3819  -13.5202  -17.0222 C   0  0  1  0  0  0  0  0  0  0  0  0
   19.4987  -14.1946  -16.2695 C   0  0  0  0  0  0  0  0  0  0  0  0
   19.1364  -15.5825  -15.7900 C   0  0  0  0  0  0  0  0  0  0  0  0
   20.2971  -16.3197  -15.2110 C   0  0  0  0  0  0  0  0  0  0  0  0
   19.9282  -17.7092  -14.7374 C   0  0  0  0  0  0  0  0  0  0  0  0
   21.0435  -18.4457  -14.2220 N   0  0  0  0  0  0  0  0  0  0  0  0
   18.8038  -12.1043  -17.2249 C   0  0  0  0  0  0  0  0  0  0  0  0
   19.7810  -11.8172  -17.9485 O   0  0  0  0  0  0  0  0  0  0  0  0
   17.2432   -8.8325  -17.0744 C   0  0  0  0  0  0  0  0  0  0  0  0
   18.4646   -9.6747  -16.7403 C   0  0  2  0  0  0  0  0  0  0  0  0
   18.0868  -11.0640  -16.5878 N   0  0  0  0  0  0  0  0  0  0  0  0
   19.0817   -9.1675  -15.4734 C   0  0  0  0  0  0  0  0  0  0  0  0
   19.0948   -9.8902  -14.4552 O   0  0  0  0  0  0  0  0  0  0  0  0
   19.6327   -7.9162  -15.4211 O   0  0  0  0  0  0  0  0  0  0  0  0
  2  1  1  1
  2  3  1  0
  2  4  1  0
  4  6  1  0
  5  4  2  0
  6  7  1  0
  7 13  1  0
  7  8  1  6
  9  8  1  0
 10 11  1  0
 10  9  1  0
 12 11  1  0
 13 17  1  0
 13 14  2  0
 16 15  1  1
 17 16  1  0
 18 16  1  0
 18 20  1  0
 19 18  2  0
M  END
$$$$
