AKA.pdb
     RDKit          3D

 20 19  0  0  1  0  0  0  0  0999 V2000
   19.9370   -8.5311  -16.2301 C   0  0  0  0  0  0  0  0  0  0  0  0
   19.9047   -8.6157  -14.7278 C   0  0  2  0  0  0  0  0  0  0  0  0
   20.0193   -9.9963  -14.3113 N   0  0  0  0  0  0  0  0  0  0  0  0
   18.6822   -7.9836  -14.1631 C   0  0  0  0  0  0  0  0  0  0  0  0
   18.5223   -6.7553  -14.3705 O   0  0  0  0  0  0  0  0  0  0  0  0
   17.7158   -8.6865  -13.4214 N   0  0  0  0  0  0  0  0  0  0  0  0
   16.5406   -8.0323  -12.9016 C   0  0  1  0  0  0  0  0  0  0  0  0
   15.3259   -8.9188  -12.9864 C   0  0  0  0  0  0  0  0  0  0  0  0
   14.5167   -8.6961  -14.2446 C   0  0  0  0  0  0  0  0  0  0  0  0
   13.3562   -9.6264  -14.3626 C   0  0  0  0  0  0  0  0  0  0  0  0
   12.4723   -9.3088  -15.5496 C   0  0  0  0  0  0  0  0  0  0  0  0
   11.3457  -10.1857  -15.6663 N   0  0  0  0  0  0  0  0  0  0  0  0
   16.7309   -7.7137  -11.4572 C   0  0  0  0  0  0  0  0  0  0  0  0
   17.4474   -8.4292  -10.7252 O   0  0  0  0  0  0  0  0  0  0  0  0
   17.5691   -5.5990   -9.2354 C   0  0  0  0  0  0  0  0  0  0  0  0
   16.2180   -6.2454   -9.4992 C   0  0  2  0  0  0  0  0  0  0  0  0
   16.0901   -6.5810  -10.9017 N   0  0  0  0  0  0  0  0  0  0  0  0
   15.1307   -5.2974   -9.0961 C   0  0  0  0  0  0  0  0  0  0  0  0
   14.4417   -4.7329   -9.9710 O   0  0  0  0  0  0  0  0  0  0  0  0
   14.8848   -5.0435   -7.7742 O   0  0  0  0  0  0  0  0  0  0  0  0
  2  1  1  6
  2  3  1  0
  2  4  1  0
  4  6  1  0
  5  4  2  0
  6  7  1  0
  7 13  1  0
  7  8  1  1
  9  8  1  0
 10 11  1  0
 10  9  1  0
 12 11  1  0
 13 17  1  0
 13 14  2  0
 16 15  1  6
 17 16  1  0
 18 16  1  0
 18 20  1  0
 19 18  2  0
M  END
$$$$
