AKA.pdb
     RDKit          3D

 20 19  0  0  1  0  0  0  0  0999 V2000
   21.7007  -10.3370  -20.7618 C   0  0  0  0  0  0  0  0  0  0  0  0
   22.4624   -9.7367  -19.6109 C   0  0  2  0  0  0  0  0  0  0  0  0
   23.2174  -10.7667  -18.9314 N   0  0  0  0  0  0  0  0  0  0  0  0
   21.5651   -9.0171  -18.6674 C   0  0  0  0  0  0  0  0  0  0  0  0
   20.9232   -8.0369  -19.1195 O   0  0  0  0  0  0  0  0  0  0  0  0
   21.4064   -9.3785  -17.3175 N   0  0  0  0  0  0  0  0  0  0  0  0
   20.5826   -8.6057  -16.4212 C   0  0  1  0  0  0  0  0  0  0  0  0
   19.8451   -9.4842  -15.4452 C   0  0  0  0  0  0  0  0  0  0  0  0
   18.3421   -9.3457  -15.5421 C   0  0  0  0  0  0  0  0  0  0  0  0
   17.6155  -10.1643  -14.5281 C   0  0  0  0  0  0  0  0  0  0  0  0
   16.1140   -9.9890  -14.6042 C   0  0  0  0  0  0  0  0  0  0  0  0
   15.4003  -10.8182  -13.6795 N   0  0  0  0  0  0  0  0  0  0  0  0
   21.4337   -7.6912  -15.6067 C   0  0  0  0  0  0  0  0  0  0  0  0
   22.4421   -8.1130  -15.0013 O   0  0  0  0  0  0  0  0  0  0  0  0
   21.4661   -3.9648  -15.0212 C   0  0  0  0  0  0  0  0  0  0  0  0
   21.8702   -5.3977  -14.7110 C   0  0  2  0  0  0  0  0  0  0  0  0
   21.0965   -6.3201  -15.5152 N   0  0  0  0  0  0  0  0  0  0  0  0
   21.6441   -5.6698  -13.2557 C   0  0  0  0  0  0  0  0  0  0  0  0
   22.4002   -5.1599  -12.4028 O   0  0  0  0  0  0  0  0  0  0  0  0
   20.6138   -6.4740  -12.8509 O   0  0  0  0  0  0  0  0  0  0  0  0
  2  1  1  6
  2  3  1  0
  2  4  1  0
  4  6  1  0
  5  4  2  0
  6  7  1  0
  7 13  1  0
  7  8  1  1
  9  8  1  0
 10 11  1  0
 10  9  1  0
 12 11  1  0
 13 17  1  0
 13 14  2  0
 16 15  1  1
 17 16  1  0
 18 16  1  0
 18 20  1  0
 19 18  2  0
M  END
$$$$
