AKA.pdb
     RDKit          3D

 20 19  0  0  1  0  0  0  0  0999 V2000
   15.3206   -7.7757  -11.3293 C   0  0  0  0  0  0  0  0  0  0  0  0
   16.0721   -9.0328  -11.6759 C   0  0  2  0  0  0  0  0  0  0  0  0
   16.1532   -9.8921  -10.5150 N   0  0  0  0  0  0  0  0  0  0  0  0
   17.4241   -8.7379  -12.2218 C   0  0  0  0  0  0  0  0  0  0  0  0
   18.3628   -8.6151  -11.3965 O   0  0  0  0  0  0  0  0  0  0  0  0
   17.6932   -8.5931  -13.5946 N   0  0  0  0  0  0  0  0  0  0  0  0
   19.0323   -8.3729  -14.0821 C   0  0  1  0  0  0  0  0  0  0  0  0
   19.1904   -8.8376  -15.5060 C   0  0  0  0  0  0  0  0  0  0  0  0
   19.3158  -10.3398  -15.6285 C   0  0  0  0  0  0  0  0  0  0  0  0
   19.3002  -10.8118  -17.0437 C   0  0  0  0  0  0  0  0  0  0  0  0
   19.4290  -12.3156  -17.1586 C   0  0  0  0  0  0  0  0  0  0  0  0
   19.4525  -12.7792  -18.5138 N   0  0  0  0  0  0  0  0  0  0  0  0
   19.3438   -6.9145  -14.0767 C   0  0  0  0  0  0  0  0  0  0  0  0
   18.4715   -6.0651  -14.3572 O   0  0  0  0  0  0  0  0  0  0  0  0
   22.3733   -4.8995  -13.0716 C   0  0  0  0  0  0  0  0  0  0  0  0
   20.9910   -5.0752  -13.6808 C   0  0  2  0  0  0  0  0  0  0  0  0
   20.6500   -6.4807  -13.7483 N   0  0  0  0  0  0  0  0  0  0  0  0
   20.9772   -4.4762  -15.0534 C   0  0  0  0  0  0  0  0  0  0  0  0
   21.2190   -5.1925  -16.0471 O   0  0  0  0  0  0  0  0  0  0  0  0
   20.7015   -3.1475  -15.2291 O   0  0  0  0  0  0  0  0  0  0  0  0
  2  1  1  1
  2  3  1  0
  2  4  1  0
  4  6  1  0
  5  4  2  0
  6  7  1  0
  7 13  1  0
  7  8  1  6
  9  8  1  0
 10 11  1  0
 10  9  1  0
 12 11  1  0
 13 17  1  0
 13 14  2  0
 16 15  1  6
 17 16  1  0
 18 16  1  0
 18 20  1  0
 19 18  2  0
M  END
$$$$
