AKA.pdb
     RDKit          3D

 20 19  0  0  1  0  0  0  0  0999 V2000
   19.6576  -11.3795  -19.2912 C   0  0  0  0  0  0  0  0  0  0  0  0
   20.6418  -11.0411  -18.2039 C   0  0  2  0  0  0  0  0  0  0  0  0
   20.6878  -12.1123  -17.2328 N   0  0  0  0  0  0  0  0  0  0  0  0
   20.3255   -9.7405  -17.5550 C   0  0  0  0  0  0  0  0  0  0  0  0
   20.4476   -8.7046  -18.2545 O   0  0  0  0  0  0  0  0  0  0  0  0
   19.9040   -9.6211  -16.2185 N   0  0  0  0  0  0  0  0  0  0  0  0
   19.5126   -8.3500  -15.6613 C   0  0  1  0  0  0  0  0  0  0  0  0
   18.4088   -8.5020  -14.6480 C   0  0  0  0  0  0  0  0  0  0  0  0
   17.0345   -8.5750  -15.2754 C   0  0  0  0  0  0  0  0  0  0  0  0
   15.9457   -8.7597  -14.2722 C   0  0  0  0  0  0  0  0  0  0  0  0
   14.6007   -9.0259  -14.9134 C   0  0  0  0  0  0  0  0  0  0  0  0
   13.6044   -9.4576  -13.9791 N   0  0  0  0  0  0  0  0  0  0  0  0
   20.6637   -7.7318  -14.9425 C   0  0  0  0  0  0  0  0  0  0  0  0
   21.3325   -8.3820  -14.1111 O   0  0  0  0  0  0  0  0  0  0  0  0
   22.5613   -4.5139  -15.3315 C   0  0  0  0  0  0  0  0  0  0  0  0
   22.1298   -5.7446  -14.5493 C   0  0  2  0  0  0  0  0  0  0  0  0
   21.0082   -6.3845  -15.2039 N   0  0  0  0  0  0  0  0  0  0  0  0
   21.7498   -5.3372  -13.1591 C   0  0  0  0  0  0  0  0  0  0  0  0
   22.6217   -4.9026  -12.3781 O   0  0  0  0  0  0  0  0  0  0  0  0
   20.4525   -5.4370  -12.7358 O   0  0  0  0  0  0  0  0  0  0  0  0
  2  1  1  6
  2  3  1  0
  2  4  1  0
  4  6  1  0
  5  4  2  0
  6  7  1  0
  7 13  1  0
  7  8  1  1
  9  8  1  0
 10 11  1  0
 10  9  1  0
 12 11  1  0
 13 17  1  0
 13 14  2  0
 16 15  1  6
 17 16  1  0
 18 16  1  0
 18 20  1  0
 19 18  2  0
M  END
$$$$
