AKA.pdb
     RDKit          3D

 20 19  0  0  1  0  0  0  0  0999 V2000
   12.8481   -8.5326   -8.6575 C   0  0  0  0  0  0  0  0  0  0  0  0
   12.9282   -9.0829  -10.0560 C   0  0  2  0  0  0  0  0  0  0  0  0
   12.0695  -10.2407  -10.1779 N   0  0  0  0  0  0  0  0  0  0  0  0
   14.3269   -9.4078  -10.4448 C   0  0  0  0  0  0  0  0  0  0  0  0
   14.6223  -10.6225  -10.5655 O   0  0  0  0  0  0  0  0  0  0  0  0
   15.3145   -8.4341  -10.6787 N   0  0  0  0  0  0  0  0  0  0  0  0
   16.5713   -8.7684  -11.3016 C   0  0  1  0  0  0  0  0  0  0  0  0
   16.3754   -9.3287  -12.6859 C   0  0  0  0  0  0  0  0  0  0  0  0
   17.6765   -9.6797  -13.3725 C   0  0  0  0  0  0  0  0  0  0  0  0
   17.4793  -10.2494  -14.7372 C   0  0  0  0  0  0  0  0  0  0  0  0
   18.7735  -10.7196  -15.3657 C   0  0  0  0  0  0  0  0  0  0  0  0
   18.6290  -11.1027  -16.7384 N   0  0  0  0  0  0  0  0  0  0  0  0
   17.4060   -7.5424  -11.4564 C   0  0  0  0  0  0  0  0  0  0  0  0
   17.0297   -6.5887  -12.1705 O   0  0  0  0  0  0  0  0  0  0  0  0
   20.6515   -6.3626   -9.9336 C   0  0  0  0  0  0  0  0  0  0  0  0
   19.5289   -6.3183  -10.9587 C   0  0  2  0  0  0  0  0  0  0  0  0
   18.6478   -7.4536  -10.7837 N   0  0  0  0  0  0  0  0  0  0  0  0
   20.1179   -6.3318  -12.3357 C   0  0  0  0  0  0  0  0  0  0  0  0
   20.0834   -7.3779  -13.0166 O   0  0  0  0  0  0  0  0  0  0  0  0
   20.6950   -5.2056  -12.8559 O   0  0  0  0  0  0  0  0  0  0  0  0
  2  1  1  1
  2  3  1  0
  2  4  1  0
  4  6  1  0
  5  4  2  0
  6  7  1  0
  7 13  1  0
  7  8  1  6
  9  8  1  0
 10 11  1  0
 10  9  1  0
 12 11  1  0
 13 17  1  0
 13 14  2  0
 16 15  1  1
 17 16  1  0
 18 16  1  0
 18 20  1  0
 19 18  2  0
M  END
$$$$
