AKA.pdb
     RDKit          3D

 20 19  0  0  1  0  0  0  0  0999 V2000
   25.4006  -11.5985  -15.5808 C   0  0  0  0  0  0  0  0  0  0  0  0
   24.0681  -11.9409  -16.1911 C   0  0  2  0  0  0  0  0  0  0  0  0
   24.2661  -12.6189  -17.4536 N   0  0  0  0  0  0  0  0  0  0  0  0
   23.2083  -10.7382  -16.3559 C   0  0  0  0  0  0  0  0  0  0  0  0
   23.3983  -10.0315  -17.3766 O   0  0  0  0  0  0  0  0  0  0  0  0
   22.2111  -10.3642  -15.4374 N   0  0  0  0  0  0  0  0  0  0  0  0
   21.4199   -9.1735  -15.6258 C   0  0  1  0  0  0  0  0  0  0  0  0
   20.0167   -9.3491  -15.1074 C   0  0  0  0  0  0  0  0  0  0  0  0
   19.1926  -10.3052  -15.9407 C   0  0  0  0  0  0  0  0  0  0  0  0
   17.8538  -10.5897  -15.3468 C   0  0  0  0  0  0  0  0  0  0  0  0
   17.0649  -11.6047  -16.1460 C   0  0  0  0  0  0  0  0  0  0  0  0
   15.8275  -11.9741  -15.5262 N   0  0  0  0  0  0  0  0  0  0  0  0
   22.0140   -8.0397  -14.8605 C   0  0  0  0  0  0  0  0  0  0  0  0
   22.3945   -8.1848  -13.6793 O   0  0  0  0  0  0  0  0  0  0  0  0
   23.0199   -4.5238  -15.8047 C   0  0  0  0  0  0  0  0  0  0  0  0
   22.8501   -5.6832  -14.8353 C   0  0  2  0  0  0  0  0  0  0  0  0
   22.1511   -6.7750  -15.4800 N   0  0  0  0  0  0  0  0  0  0  0  0
   22.0812   -5.2161  -13.6378 C   0  0  0  0  0  0  0  0  0  0  0  0
   20.8461   -5.3915  -13.5845 O   0  0  0  0  0  0  0  0  0  0  0  0
   22.7214   -4.5973  -12.5989 O   0  0  0  0  0  0  0  0  0  0  0  0
  2  1  1  6
  2  3  1  0
  2  4  1  0
  4  6  1  0
  5  4  2  0
  6  7  1  0
  7 13  1  0
  7  8  1  1
  9  8  1  0
 10 11  1  0
 10  9  1  0
 12 11  1  0
 13 17  1  0
 13 14  2  0
 16 15  1  6
 17 16  1  0
 18 16  1  0
 18 20  1  0
 19 18  2  0
M  END
$$$$
