AKA.pdb
     RDKit          3D

 20 19  0  0  1  0  0  0  0  0999 V2000
   20.5443  -13.1483  -18.1889 C   0  0  0  0  0  0  0  0  0  0  0  0
   20.9270  -12.3503  -16.9716 C   0  0  2  0  0  0  0  0  0  0  0  0
   20.2298  -12.8604  -15.8112 N   0  0  0  0  0  0  0  0  0  0  0  0
   20.6692  -10.8971  -17.1577 C   0  0  0  0  0  0  0  0  0  0  0  0
   21.2766  -10.3211  -18.0941 O   0  0  0  0  0  0  0  0  0  0  0  0
   19.7925  -10.1534  -16.3476 N   0  0  0  0  0  0  0  0  0  0  0  0
   19.6087   -8.7359  -16.5377 C   0  0  1  0  0  0  0  0  0  0  0  0
   18.1499   -8.3631  -16.5742 C   0  0  0  0  0  0  0  0  0  0  0  0
   17.4277   -8.9141  -17.7835 C   0  0  0  0  0  0  0  0  0  0  0  0
   15.9751   -8.5739  -17.7991 C   0  0  0  0  0  0  0  0  0  0  0  0
   15.2519   -9.1580  -18.9936 C   0  0  0  0  0  0  0  0  0  0  0  0
   13.8344   -8.9561  -18.9507 N   0  0  0  0  0  0  0  0  0  0  0  0
   20.2078   -7.9861  -15.3962 C   0  0  0  0  0  0  0  0  0  0  0  0
   19.9890   -8.3241  -14.2135 O   0  0  0  0  0  0  0  0  0  0  0  0
   23.0868   -5.7734  -14.9227 C   0  0  0  0  0  0  0  0  0  0  0  0
   21.6432   -6.1079  -14.5808 C   0  0  2  0  0  0  0  0  0  0  0  0
   21.0399   -6.8709  -15.6532 N   0  0  0  0  0  0  0  0  0  0  0  0
   20.8811   -4.8373  -14.3619 C   0  0  0  0  0  0  0  0  0  0  0  0
   20.0718   -4.4406  -15.2260 O   0  0  0  0  0  0  0  0  0  0  0  0
   21.0641   -4.1050  -13.2207 O   0  0  0  0  0  0  0  0  0  0  0  0
  2  1  1  6
  2  3  1  0
  2  4  1  0
  4  6  1  0
  5  4  2  0
  6  7  1  0
  7 13  1  0
  7  8  1  1
  9  8  1  0
 10 11  1  0
 10  9  1  0
 12 11  1  0
 13 17  1  0
 13 14  2  0
 16 15  1  6
 17 16  1  0
 18 16  1  0
 18 20  1  0
 19 18  2  0
M  END
$$$$
