AKA.pdb
     RDKit          3D

 20 19  0  0  1  0  0  0  0  0999 V2000
   41.9307   -6.6144   -6.1786 C   0  0  0  0  0  0  0  0  0  0  0  0
   42.8458   -7.4276   -7.0540 C   0  0  2  0  0  0  0  0  0  0  0  0
   44.2043   -6.9481   -6.9232 N   0  0  0  0  0  0  0  0  0  0  0  0
   42.4067   -7.4176   -8.4753 C   0  0  0  0  0  0  0  0  0  0  0  0
   43.0244   -6.6582   -9.2622 O   0  0  0  0  0  0  0  0  0  0  0  0
   41.3510   -8.2054   -8.9681 N   0  0  0  0  0  0  0  0  0  0  0  0
   40.9531   -8.1532  -10.3531 C   0  0  1  0  0  0  0  0  0  0  0  0
   40.6380   -9.5230  -10.8942 C   0  0  0  0  0  0  0  0  0  0  0  0
   40.2621   -9.5092  -12.3592 C   0  0  0  0  0  0  0  0  0  0  0  0
   39.9656  -10.8689  -12.8969 C   0  0  0  0  0  0  0  0  0  0  0  0
   39.6762  -10.8584  -14.3826 C   0  0  0  0  0  0  0  0  0  0  0  0
   39.4459  -12.1647  -14.9231 N   0  0  0  0  0  0  0  0  0  0  0  0
   39.7076   -7.3457  -10.4960 C   0  0  0  0  0  0  0  0  0  0  0  0
   38.6909   -7.5976   -9.8148 O   0  0  0  0  0  0  0  0  0  0  0  0
   38.9786   -4.0022  -11.9545 C   0  0  0  0  0  0  0  0  0  0  0  0
   38.5317   -5.3872  -11.5130 C   0  0  2  0  0  0  0  0  0  0  0  0
   39.6724   -6.2737  -11.4189 N   0  0  0  0  0  0  0  0  0  0  0  0
   37.5430   -5.9246  -12.5014 C   0  0  0  0  0  0  0  0  0  0  0  0
   37.8792   -6.8377  -13.2838 O   0  0  0  0  0  0  0  0  0  0  0  0
   36.2712   -5.4228  -12.5551 O   0  0  0  0  0  0  0  0  0  0  0  0
  2  1  1  1
  2  3  1  0
  2  4  1  0
  4  6  1  0
  5  4  2  0
  6  7  1  0
  7 13  1  0
  7  8  1  1
  9  8  1  0
 10 11  1  0
 10  9  1  0
 12 11  1  0
 13 17  1  0
 13 14  2  0
 16 15  1  6
 17 16  1  0
 18 16  1  0
 18 20  1  0
 19 18  2  0
M  END
$$$$
