AKA.pdb
     RDKit          3D

 20 19  0  0  1  0  0  0  0  0999 V2000
   32.6006  -24.4334  -17.3875 C   0  0  0  0  0  0  0  0  0  0  0  0
   31.8244  -24.6158  -16.1110 C   0  0  2  0  0  0  0  0  0  0  0  0
   32.5770  -25.4424  -15.1928 N   0  0  0  0  0  0  0  0  0  0  0  0
   30.4723  -25.1835  -16.3607 C   0  0  0  0  0  0  0  0  0  0  0  0
   30.3731  -26.4348  -16.4021 O   0  0  0  0  0  0  0  0  0  0  0  0
   29.3218  -24.3966  -16.5488 N   0  0  0  0  0  0  0  0  0  0  0  0
   28.0088  -24.9871  -16.6309 C   0  0  1  0  0  0  0  0  0  0  0  0
   26.9508  -24.0728  -16.0714 C   0  0  0  0  0  0  0  0  0  0  0  0
   25.5654  -24.6786  -16.1063 C   0  0  0  0  0  0  0  0  0  0  0  0
   24.5161  -23.7633  -15.5705 C   0  0  0  0  0  0  0  0  0  0  0  0
   23.1161  -24.3072  -15.7586 C   0  0  0  0  0  0  0  0  0  0  0  0
   22.0942  -23.3966  -15.3363 N   0  0  0  0  0  0  0  0  0  0  0  0
   27.6466  -25.2293  -18.0571 C   0  0  0  0  0  0  0  0  0  0  0  0
   27.8028  -24.3435  -18.9242 O   0  0  0  0  0  0  0  0  0  0  0  0
   27.2260  -28.2105  -20.1527 C   0  0  0  0  0  0  0  0  0  0  0  0
   26.8006  -26.7890  -19.8191 C   0  0  2  0  0  0  0  0  0  0  0  0
   27.1160  -26.4841  -18.4393 N   0  0  0  0  0  0  0  0  0  0  0  0
   25.3282  -26.6471  -20.0534 C   0  0  0  0  0  0  0  0  0  0  0  0
   24.5623  -26.4376  -19.0898 O   0  0  0  0  0  0  0  0  0  0  0  0
   24.8129  -26.7453  -21.3172 O   0  0  0  0  0  0  0  0  0  0  0  0
  2  1  1  6
  2  3  1  0
  2  4  1  0
  4  6  1  0
  5  4  2  0
  6  7  1  0
  7 13  1  0
  7  8  1  6
  9  8  1  0
 10 11  1  0
 10  9  1  0
 12 11  1  0
 13 17  1  0
 13 14  2  0
 16 15  1  1
 17 16  1  0
 18 16  1  0
 18 20  1  0
 19 18  2  0
M  END
$$$$
