AKA.pdb
     RDKit          3D

 20 19  0  0  1  0  0  0  0  0999 V2000
   22.4131  -12.5207  -19.5591 C   0  0  0  0  0  0  0  0  0  0  0  0
   23.0239  -11.7453  -18.4229 C   0  0  2  0  0  0  0  0  0  0  0  0
   23.2413  -12.6207  -17.2920 N   0  0  0  0  0  0  0  0  0  0  0  0
   22.1924  -10.5719  -18.0423 C   0  0  0  0  0  0  0  0  0  0  0  0
   22.0764   -9.6512  -18.8886 O   0  0  0  0  0  0  0  0  0  0  0  0
   21.5428  -10.4498  -16.8010 N   0  0  0  0  0  0  0  0  0  0  0  0
   20.7409   -9.2953  -16.4792 C   0  0  1  0  0  0  0  0  0  0  0  0
   19.5149   -9.6711  -15.6891 C   0  0  0  0  0  0  0  0  0  0  0  0
   18.4706   -8.5774  -15.6600 C   0  0  0  0  0  0  0  0  0  0  0  0
   17.2633   -8.9464  -14.8649 C   0  0  0  0  0  0  0  0  0  0  0  0
   16.1698   -7.9029  -14.9464 C   0  0  0  0  0  0  0  0  0  0  0  0
   14.9432   -8.3204  -14.3357 N   0  0  0  0  0  0  0  0  0  0  0  0
   21.5214   -8.3540  -15.6255 C   0  0  0  0  0  0  0  0  0  0  0  0
   22.1417   -8.7560  -14.6182 O   0  0  0  0  0  0  0  0  0  0  0  0
   22.5097   -4.7375  -16.0266 C   0  0  0  0  0  0  0  0  0  0  0  0
   22.4382   -6.0548  -15.2701 C   0  0  2  0  0  0  0  0  0  0  0  0
   21.5627   -6.9795  -15.9590 N   0  0  0  0  0  0  0  0  0  0  0  0
   21.9298   -5.8007  -13.8844 C   0  0  0  0  0  0  0  0  0  0  0  0
   22.7050   -5.3659  -13.0075 O   0  0  0  0  0  0  0  0  0  0  0  0
   20.6201   -6.0414  -13.5696 O   0  0  0  0  0  0  0  0  0  0  0  0
  2  1  1  6
  2  3  1  0
  2  4  1  0
  4  6  1  0
  5  4  2  0
  6  7  1  0
  7 13  1  0
  7  8  1  1
  9  8  1  0
 10 11  1  0
 10  9  1  0
 12 11  1  0
 13 17  1  0
 13 14  2  0
 16 15  1  6
 17 16  1  0
 18 16  1  0
 18 20  1  0
 19 18  2  0
M  END
$$$$
