AKA.pdb
     RDKit          3D

 20 19  0  0  1  0  0  0  0  0999 V2000
   14.8396  -10.4305   -8.3888 C   0  0  0  0  0  0  0  0  0  0  0  0
   14.2244   -9.1175   -8.7922 C   0  0  2  0  0  0  0  0  0  0  0  0
   13.2470   -9.3337   -9.8366 N   0  0  0  0  0  0  0  0  0  0  0  0
   15.2532   -8.1298   -9.2149 C   0  0  0  0  0  0  0  0  0  0  0  0
   16.1372   -7.8261   -8.3760 O   0  0  0  0  0  0  0  0  0  0  0  0
   15.2800   -7.5321  -10.4878 N   0  0  0  0  0  0  0  0  0  0  0  0
   16.2202   -6.4878  -10.8115 C   0  0  1  0  0  0  0  0  0  0  0  0
   16.7275   -6.6131  -12.2241 C   0  0  0  0  0  0  0  0  0  0  0  0
   17.7268   -7.7350  -12.3973 C   0  0  0  0  0  0  0  0  0  0  0  0
   18.2898   -7.8052  -13.7772 C   0  0  0  0  0  0  0  0  0  0  0  0
   19.2938   -8.9260  -13.9414 C   0  0  0  0  0  0  0  0  0  0  0  0
   19.9522   -8.9136  -15.2135 N   0  0  0  0  0  0  0  0  0  0  0  0
   15.5556   -5.1560  -10.7179 C   0  0  0  0  0  0  0  0  0  0  0  0
   14.5991   -4.8559  -11.4636 O   0  0  0  0  0  0  0  0  0  0  0  0
   15.3431   -2.4789   -8.1956 C   0  0  0  0  0  0  0  0  0  0  0  0
   15.4208   -2.8962   -9.6559 C   0  0  2  0  0  0  0  0  0  0  0  0
   16.0137   -4.2122   -9.7685 N   0  0  0  0  0  0  0  0  0  0  0  0
   16.2410   -1.8964  -10.4115 C   0  0  0  0  0  0  0  0  0  0  0  0
   17.3992   -2.1891  -10.7746 O   0  0  0  0  0  0  0  0  0  0  0  0
   15.7315   -0.6617  -10.7083 O   0  0  0  0  0  0  0  0  0  0  0  0
  2  1  1  6
  2  3  1  0
  2  4  1  0
  4  6  1  0
  5  4  2  0
  6  7  1  0
  7 13  1  0
  7  8  1  6
  9  8  1  0
 10 11  1  0
 10  9  1  0
 12 11  1  0
 13 17  1  0
 13 14  2  0
 16 15  1  1
 17 16  1  0
 18 16  1  0
 18 20  1  0
 19 18  2  0
M  END
$$$$
