IHD.pdb
     RDKit          3D

 27 27  0  0  1  0  0  0  0  0999 V2000
    6.6937  -11.4561   27.7374 C   0  0  0  0  0  0  0  0  0  0  0  0
    6.3088  -12.7983   27.0986 C   0  0  0  0  0  0  0  0  0  0  0  0
    7.1084  -12.9949   25.8498 C   0  0  2  0  0  0  0  0  0  0  0  0
    7.0109  -11.7737   24.9262 C   0  0  0  0  0  0  0  0  0  0  0  0
    6.8289  -14.2584   25.1054 C   0  0  2  0  0  0  0  0  0  0  0  0
    7.0053  -15.3507   26.0547 N   0  0  0  0  0  0  0  0  0  0  0  0
    7.6795  -14.4595   23.9058 C   0  0  0  0  0  0  0  0  0  0  0  0
    7.7038  -13.6433   22.9562 O   0  0  0  0  0  0  0  0  0  0  0  0
    8.4866  -15.6016   23.8275 N   0  0  0  0  0  0  0  0  0  0  0  0
    9.5017  -15.8554   22.8356 C   0  0  1  0  0  0  0  0  0  0  0  0
    9.7457  -14.5523   22.1175 C   0  0  0  0  0  0  0  0  0  0  0  0
    8.8555  -14.3527   20.9525 C   0  0  0  0  0  0  0  0  0  0  0  0
    8.3146  -13.1681   20.5149 C   0  0  0  0  0  0  0  0  0  0  0  0
    7.5450  -13.3874   19.4065 N   0  0  0  0  0  0  0  0  0  0  0  0
    7.6138  -14.7063   19.1643 C   0  0  0  0  0  0  0  0  0  0  0  0
    8.3949  -15.2995   20.0813 N   0  0  0  0  0  0  0  0  0  0  0  0
   10.6962  -16.5214   23.3454 C   0  0  0  0  0  0  0  0  0  0  0  0
   11.0985  -16.2258   24.4994 O   0  0  0  0  0  0  0  0  0  0  0  0
   11.4084  -17.4732   22.6049 N   0  0  0  0  0  0  0  0  0  0  0  0
   12.6206  -18.1327   23.0826 C   0  0  1  0  0  0  0  0  0  0  0  0
   12.8916  -19.3742   22.2475 C   0  0  0  0  0  0  0  0  0  0  0  0
   11.7985  -20.3451   22.2279 C   0  0  0  0  0  0  0  0  0  0  0  0
   11.3404  -20.6690   21.0770 O   0  0  0  0  0  0  0  0  0  0  0  0
   13.7575  -17.1954   23.1090 C   0  0  0  0  0  0  0  0  0  0  0  0
   13.6173  -16.0031   22.3633 O   0  0  0  0  0  0  0  0  0  0  0  0
   11.2111  -20.9430   23.3008 O   0  0  0  0  0  0  0  0  0  0  0  0
   14.8277  -17.3293   23.7101 O   0  0  0  0  0  0  0  0  0  0  0  0
  2  3  1  0
  2  1  1  0
  3  5  1  0
  3  4  1  6
  5  6  1  1
  7  5  1  0
  8  7  2  0
  9  7  1  0
 10  9  1  0
 10 11  1  1
 11 12  1  0
 12 13  2  0
 12 16  1  0
 13 14  1  0
 14 15  1  0
 16 15  2  0
 17 19  1  0
 17 10  1  0
 18 17  2  0
 20 19  1  0
 20 24  1  0
 20 21  1  6
 22 23  2  0
 22 21  1  0
 24 25  1  0
 26 22  1  0
 27 24  2  0
M  END
$$$$
