IHD.pdb
     RDKit          3D

 27 27  0  0  1  0  0  0  0  0999 V2000
    8.0293  -11.7520   21.1753 C   0  0  0  0  0  0  0  0  0  0  0  0
    7.1708  -13.0249   21.2015 C   0  0  0  0  0  0  0  0  0  0  0  0
    7.8454  -14.0888   20.3951 C   0  0  2  0  0  0  0  0  0  0  0  0
    8.0126  -13.6589   18.9318 C   0  0  0  0  0  0  0  0  0  0  0  0
    7.2339  -15.4472   20.4921 C   0  0  2  0  0  0  0  0  0  0  0  0
    5.9265  -15.3638   19.8524 N   0  0  0  0  0  0  0  0  0  0  0  0
    7.1108  -15.9622   21.8787 C   0  0  0  0  0  0  0  0  0  0  0  0
    6.1361  -15.6831   22.6139 O   0  0  0  0  0  0  0  0  0  0  0  0
    8.1182  -16.7911   22.3888 N   0  0  0  0  0  0  0  0  0  0  0  0
    8.1735  -17.3345   23.7231 C   0  0  1  0  0  0  0  0  0  0  0  0
    7.4205  -18.6404   23.6940 C   0  0  0  0  0  0  0  0  0  0  0  0
    7.2706  -19.2573   25.0306 C   0  0  0  0  0  0  0  0  0  0  0  0
    7.7138  -18.7556   26.2303 C   0  0  0  0  0  0  0  0  0  0  0  0
    7.3864  -19.6122   27.2442 N   0  0  0  0  0  0  0  0  0  0  0  0
    6.7424  -20.6390   26.6665 C   0  0  0  0  0  0  0  0  0  0  0  0
    6.6645  -20.4422   25.3406 N   0  0  0  0  0  0  0  0  0  0  0  0
    9.5135  -17.3983   24.2980 C   0  0  0  0  0  0  0  0  0  0  0  0
   10.4852  -17.0282   23.5910 O   0  0  0  0  0  0  0  0  0  0  0  0
    9.7595  -17.8516   25.6000 N   0  0  0  0  0  0  0  0  0  0  0  0
   11.0925  -17.9460   26.1888 C   0  0  1  0  0  0  0  0  0  0  0  0
   11.9255  -16.7461   25.7666 C   0  0  0  0  0  0  0  0  0  0  0  0
   13.0498  -17.0645   24.8879 C   0  0  0  0  0  0  0  0  0  0  0  0
   13.2113  -18.2989   24.5884 O   0  0  0  0  0  0  0  0  0  0  0  0
   11.0145  -18.1086   27.6515 C   0  0  0  0  0  0  0  0  0  0  0  0
    9.7215  -18.2086   28.2130 O   0  0  0  0  0  0  0  0  0  0  0  0
   13.9476  -16.1919   24.3530 O   0  0  0  0  0  0  0  0  0  0  0  0
   11.9528  -18.1677   28.4519 O   0  0  0  0  0  0  0  0  0  0  0  0
  2  3  1  0
  2  1  1  0
  3  5  1  0
  3  4  1  6
  5  6  1  1
  7  5  1  0
  8  7  2  0
  9  7  1  0
 10  9  1  0
 10 11  1  6
 11 12  1  0
 12 13  2  0
 12 16  1  0
 13 14  1  0
 14 15  1  0
 16 15  2  0
 17 19  1  0
 17 10  1  0
 18 17  2  0
 20 19  1  0
 20 24  1  0
 20 21  1  1
 22 23  2  0
 22 21  1  0
 24 25  1  0
 26 22  1  0
 27 24  2  0
M  END
$$$$
