IHD.pdb
     RDKit          3D

 27 27  0  0  1  0  0  0  0  0999 V2000
    7.5623  -12.4308   28.2316 C   0  0  0  0  0  0  0  0  0  0  0  0
    6.5500  -13.3615   27.5483 C   0  0  0  0  0  0  0  0  0  0  0  0
    7.1201  -13.8388   26.2505 C   0  0  2  0  0  0  0  0  0  0  0  0
    7.5670  -12.6637   25.3709 C   0  0  0  0  0  0  0  0  0  0  0  0
    6.2585  -14.7882   25.4857 C   0  0  2  0  0  0  0  0  0  0  0  0
    5.8842  -15.8511   26.4107 N   0  0  0  0  0  0  0  0  0  0  0  0
    6.8996  -15.3485   24.2699 C   0  0  0  0  0  0  0  0  0  0  0  0
    7.3914  -16.4999   24.2409 O   0  0  0  0  0  0  0  0  0  0  0  0
    6.9594  -14.5656   23.1099 N   0  0  0  0  0  0  0  0  0  0  0  0
    7.6696  -14.8972   21.8997 C   0  0  1  0  0  0  0  0  0  0  0  0
    7.2995  -13.8532   20.8766 C   0  0  0  0  0  0  0  0  0  0  0  0
    7.9175  -14.0888   19.5530 C   0  0  0  0  0  0  0  0  0  0  0  0
    8.7281  -13.2299   18.8511 C   0  0  0  0  0  0  0  0  0  0  0  0
    9.1032  -13.8036   17.6683 N   0  0  0  0  0  0  0  0  0  0  0  0
    8.5228  -15.0142   17.6447 C   0  0  0  0  0  0  0  0  0  0  0  0
    7.8087  -15.2010   18.7663 N   0  0  0  0  0  0  0  0  0  0  0  0
    9.1012  -15.1191   22.0767 C   0  0  0  0  0  0  0  0  0  0  0  0
    9.7361  -14.3452   22.8377 O   0  0  0  0  0  0  0  0  0  0  0  0
    9.7930  -16.1553   21.4372 N   0  0  0  0  0  0  0  0  0  0  0  0
   11.2454  -16.3038   21.4704 C   0  0  1  0  0  0  0  0  0  0  0  0
   11.6064  -17.7148   21.9072 C   0  0  0  0  0  0  0  0  0  0  0  0
   11.4410  -17.9702   23.3373 C   0  0  0  0  0  0  0  0  0  0  0  0
   12.0197  -17.1537   24.1359 O   0  0  0  0  0  0  0  0  0  0  0  0
   11.8452  -15.9285   20.1776 C   0  0  0  0  0  0  0  0  0  0  0  0
   13.2568  -15.9120   20.1114 O   0  0  0  0  0  0  0  0  0  0  0  0
   10.7396  -18.9839   23.9153 O   0  0  0  0  0  0  0  0  0  0  0  0
   11.2560  -15.6235   19.1363 O   0  0  0  0  0  0  0  0  0  0  0  0
  2  3  1  0
  2  1  1  0
  3  5  1  0
  3  4  1  6
  5  6  1  1
  7  5  1  0
  8  7  2  0
  9  7  1  0
 10  9  1  0
 10 11  1  6
 11 12  1  0
 12 13  2  0
 12 16  1  0
 13 14  1  0
 14 15  1  0
 16 15  2  0
 17 19  1  0
 17 10  1  0
 18 17  2  0
 20 19  1  0
 20 24  1  0
 20 21  1  6
 22 23  2  0
 22 21  1  0
 24 25  1  0
 26 22  1  0
 27 24  2  0
M  END
$$$$
