IHD.pdb
     RDKit          3D

 27 27  0  0  1  0  0  0  0  0999 V2000
    7.1126  -11.3185   27.4939 C   0  0  0  0  0  0  0  0  0  0  0  0
    6.1951  -12.4523   27.0139 C   0  0  0  0  0  0  0  0  0  0  0  0
    6.9507  -13.3265   26.0641 C   0  0  2  0  0  0  0  0  0  0  0  0
    7.5314  -12.5143   24.8990 C   0  0  0  0  0  0  0  0  0  0  0  0
    6.2081  -14.5237   25.5702 C   0  0  2  0  0  0  0  0  0  0  0  0
    5.7346  -15.2379   26.7496 N   0  0  0  0  0  0  0  0  0  0  0  0
    7.0075  -15.4189   24.6969 C   0  0  0  0  0  0  0  0  0  0  0  0
    7.5823  -16.4427   25.1326 O   0  0  0  0  0  0  0  0  0  0  0  0
    7.1267  -15.1126   23.3353 N   0  0  0  0  0  0  0  0  0  0  0  0
    7.8856  -15.8583   22.3624 C   0  0  1  0  0  0  0  0  0  0  0  0
    7.3666  -15.4586   21.0044 C   0  0  0  0  0  0  0  0  0  0  0  0
    8.0303  -16.1743   19.8924 C   0  0  0  0  0  0  0  0  0  0  0  0
    9.2502  -15.8852   19.3305 C   0  0  0  0  0  0  0  0  0  0  0  0
    9.5240  -16.7721   18.3267 N   0  0  0  0  0  0  0  0  0  0  0  0
    8.4722  -17.6050   18.2730 C   0  0  0  0  0  0  0  0  0  0  0  0
    7.5682  -17.2608   19.2042 N   0  0  0  0  0  0  0  0  0  0  0  0
    9.3333  -15.7750   22.5276 C   0  0  0  0  0  0  0  0  0  0  0  0
    9.8391  -14.6594   22.8117 O   0  0  0  0  0  0  0  0  0  0  0  0
   10.1782  -16.8829   22.3845 N   0  0  0  0  0  0  0  0  0  0  0  0
   11.5993  -16.8692   22.7202 C   0  0  1  0  0  0  0  0  0  0  0  0
   11.8455  -17.7389   23.9429 C   0  0  0  0  0  0  0  0  0  0  0  0
   13.2263  -17.7364   24.4235 C   0  0  0  0  0  0  0  0  0  0  0  0
   14.0535  -16.9954   23.7862 O   0  0  0  0  0  0  0  0  0  0  0  0
   12.4207  -17.2584   21.5601 C   0  0  0  0  0  0  0  0  0  0  0  0
   12.3352  -18.6059   21.1428 O   0  0  0  0  0  0  0  0  0  0  0  0
   13.7317  -18.4378   25.4753 O   0  0  0  0  0  0  0  0  0  0  0  0
   13.1819  -16.5410   20.9040 O   0  0  0  0  0  0  0  0  0  0  0  0
  2  3  1  0
  2  1  1  0
  3  5  1  0
  3  4  1  6
  5  6  1  1
  7  5  1  0
  8  7  2  0
  9  7  1  0
 10  9  1  0
 10 11  1  6
 11 12  1  0
 12 13  2  0
 12 16  1  0
 13 14  1  0
 14 15  1  0
 16 15  2  0
 17 19  1  0
 17 10  1  0
 18 17  2  0
 20 19  1  0
 20 24  1  0
 20 21  1  1
 22 23  2  0
 22 21  1  0
 24 25  1  0
 26 22  1  0
 27 24  2  0
M  END
$$$$
