IHD.pdb
     RDKit          3D

 27 27  0  0  1  0  0  0  0  0999 V2000
    8.2300  -15.3388   15.9170 C   0  0  0  0  0  0  0  0  0  0  0  0
    7.7419  -14.3174   16.9544 C   0  0  0  0  0  0  0  0  0  0  0  0
    8.3058  -14.6705   18.2941 C   0  0  2  0  0  0  0  0  0  0  0  0
    8.0517  -16.1444   18.6361 C   0  0  0  0  0  0  0  0  0  0  0  0
    7.8922  -13.7769   19.4162 C   0  0  2  0  0  0  0  0  0  0  0  0
    8.1445  -12.4099   18.9768 N   0  0  0  0  0  0  0  0  0  0  0  0
    8.5816  -14.0537   20.7011 C   0  0  0  0  0  0  0  0  0  0  0  0
    9.7773  -13.7403   20.9019 O   0  0  0  0  0  0  0  0  0  0  0  0
    7.8741  -14.6881   21.7302 N   0  0  0  0  0  0  0  0  0  0  0  0
    8.4051  -15.0641   23.0168 C   0  0  1  0  0  0  0  0  0  0  0  0
    7.2328  -15.1680   23.9593 C   0  0  0  0  0  0  0  0  0  0  0  0
    6.8896  -13.8829   24.6073 C   0  0  0  0  0  0  0  0  0  0  0  0
    7.5281  -12.6769   24.4482 C   0  0  0  0  0  0  0  0  0  0  0  0
    6.9182  -11.7212   25.2121 N   0  0  0  0  0  0  0  0  0  0  0  0
    5.9058  -12.3409   25.8397 C   0  0  0  0  0  0  0  0  0  0  0  0
    5.8745  -13.6365   25.4885 N   0  0  0  0  0  0  0  0  0  0  0  0
    9.2925  -16.2225   22.9928 C   0  0  0  0  0  0  0  0  0  0  0  0
    8.9954  -17.1874   22.2433 O   0  0  0  0  0  0  0  0  0  0  0  0
   10.4573  -16.3020   23.7664 N   0  0  0  0  0  0  0  0  0  0  0  0
   11.3901  -17.4244   23.7169 C   0  0  1  0  0  0  0  0  0  0  0  0
   12.7447  -16.9436   23.2209 C   0  0  0  0  0  0  0  0  0  0  0  0
   13.7828  -17.9727   23.1926 C   0  0  0  0  0  0  0  0  0  0  0  0
   14.3863  -18.2085   24.2970 O   0  0  0  0  0  0  0  0  0  0  0  0
   11.4625  -18.1100   25.0195 C   0  0  0  0  0  0  0  0  0  0  0  0
   10.8625  -17.4544   26.1184 O   0  0  0  0  0  0  0  0  0  0  0  0
   14.1813  -18.7089   22.1188 O   0  0  0  0  0  0  0  0  0  0  0  0
   11.9903  -19.1984   25.2673 O   0  0  0  0  0  0  0  0  0  0  0  0
  2  3  1  0
  2  1  1  0
  3  5  1  0
  3  4  1  1
  5  6  1  6
  7  5  1  0
  8  7  2  0
  9  7  1  0
 10  9  1  0
 10 11  1  1
 11 12  1  0
 12 13  2  0
 12 16  1  0
 13 14  1  0
 14 15  1  0
 16 15  2  0
 17 19  1  0
 17 10  1  0
 18 17  2  0
 20 19  1  0
 20 24  1  0
 20 21  1  1
 22 23  2  0
 22 21  1  0
 24 25  1  0
 26 22  1  0
 27 24  2  0
M  END
$$$$
