IHD.pdb
     RDKit          3D

 27 27  0  0  1  0  0  0  0  0999 V2000
    5.3832  -11.0763   25.2772 C   0  0  0  0  0  0  0  0  0  0  0  0
    5.7056  -12.5722   25.4040 C   0  0  0  0  0  0  0  0  0  0  0  0
    7.1849  -12.7458   25.5407 C   0  0  2  0  0  0  0  0  0  0  0  0
    7.9334  -12.1057   24.3642 C   0  0  0  0  0  0  0  0  0  0  0  0
    7.6441  -14.1470   25.7743 C   0  0  2  0  0  0  0  0  0  0  0  0
    8.9388  -14.0574   26.4385 N   0  0  0  0  0  0  0  0  0  0  0  0
    7.7388  -14.9703   24.5430 C   0  0  0  0  0  0  0  0  0  0  0  0
    6.7276  -15.4260   23.9613 O   0  0  0  0  0  0  0  0  0  0  0  0
    9.0023  -15.2510   24.0075 N   0  0  0  0  0  0  0  0  0  0  0  0
    9.2810  -16.1650   22.9278 C   0  0  1  0  0  0  0  0  0  0  0  0
    9.7186  -15.3300   21.7511 C   0  0  0  0  0  0  0  0  0  0  0  0
    8.6271  -14.5113   21.1786 C   0  0  0  0  0  0  0  0  0  0  0  0
    7.4395  -14.9614   20.6548 C   0  0  0  0  0  0  0  0  0  0  0  0
    6.6879  -13.9034   20.2251 N   0  0  0  0  0  0  0  0  0  0  0  0
    7.4144  -12.8046   20.4853 C   0  0  0  0  0  0  0  0  0  0  0  0
    8.5790  -13.1510   21.0566 N   0  0  0  0  0  0  0  0  0  0  0  0
   10.1721  -17.2662   23.2789 C   0  0  0  0  0  0  0  0  0  0  0  0
   11.3728  -17.2038   22.9109 O   0  0  0  0  0  0  0  0  0  0  0  0
    9.7461  -18.3842   24.0070 N   0  0  0  0  0  0  0  0  0  0  0  0
   10.6224  -19.1761   24.8658 C   0  0  1  0  0  0  0  0  0  0  0  0
   11.7029  -18.2845   25.4569 C   0  0  0  0  0  0  0  0  0  0  0  0
   12.8530  -19.0029   26.0036 C   0  0  0  0  0  0  0  0  0  0  0  0
   12.6006  -19.9260   26.8542 O   0  0  0  0  0  0  0  0  0  0  0  0
    9.8471  -19.8995   25.8893 C   0  0  0  0  0  0  0  0  0  0  0  0
    8.8809  -19.1536   26.6016 O   0  0  0  0  0  0  0  0  0  0  0  0
   14.1663  -18.7973   25.7089 O   0  0  0  0  0  0  0  0  0  0  0  0
    9.9426  -21.0903   26.2017 O   0  0  0  0  0  0  0  0  0  0  0  0
  2  3  1  0
  2  1  1  0
  3  5  1  0
  3  4  1  6
  5  6  1  6
  7  5  1  0
  8  7  2  0
  9  7  1  0
 10  9  1  0
 10 11  1  6
 11 12  1  0
 12 13  2  0
 12 16  1  0
 13 14  1  0
 14 15  1  0
 16 15  2  0
 17 19  1  0
 17 10  1  0
 18 17  2  0
 20 19  1  0
 20 24  1  0
 20 21  1  1
 22 23  2  0
 22 21  1  0
 24 25  1  0
 26 22  1  0
 27 24  2  0
M  END
$$$$
