IHD.pdb
     RDKit          3D

 27 27  0  0  1  0  0  0  0  0999 V2000
    6.5236  -11.1748   27.6901 C   0  0  0  0  0  0  0  0  0  0  0  0
    5.8586  -12.1318   26.6902 C   0  0  0  0  0  0  0  0  0  0  0  0
    6.8623  -13.1445   26.2380 C   0  0  2  0  0  0  0  0  0  0  0  0
    8.1615  -12.4739   25.7726 C   0  0  0  0  0  0  0  0  0  0  0  0
    6.3684  -14.1247   25.2261 C   0  0  2  0  0  0  0  0  0  0  0  0
    5.1441  -14.7027   25.7668 N   0  0  0  0  0  0  0  0  0  0  0  0
    7.3452  -15.1872   24.8800 C   0  0  0  0  0  0  0  0  0  0  0  0
    7.4796  -16.2250   25.5680 O   0  0  0  0  0  0  0  0  0  0  0  0
    8.1485  -15.0290   23.7435 N   0  0  0  0  0  0  0  0  0  0  0  0
    9.1366  -15.9649   23.2673 C   0  0  1  0  0  0  0  0  0  0  0  0
    9.6567  -15.4231   21.9600 C   0  0  0  0  0  0  0  0  0  0  0  0
    8.6701  -15.5062   20.8603 C   0  0  0  0  0  0  0  0  0  0  0  0
    7.4178  -16.0688   20.9100 C   0  0  0  0  0  0  0  0  0  0  0  0
    6.8044  -15.9511   19.6939 N   0  0  0  0  0  0  0  0  0  0  0  0
    7.6804  -15.3165   18.8985 C   0  0  0  0  0  0  0  0  0  0  0  0
    8.8034  -15.0427   19.5816 N   0  0  0  0  0  0  0  0  0  0  0  0
   10.1581  -16.3209   24.2471 C   0  0  0  0  0  0  0  0  0  0  0  0
   10.7139  -15.3966   24.8935 O   0  0  0  0  0  0  0  0  0  0  0  0
   10.5416  -17.6446   24.4964 N   0  0  0  0  0  0  0  0  0  0  0  0
   11.3713  -18.0505   25.6274 C   0  0  1  0  0  0  0  0  0  0  0  0
   10.4944  -18.6395   26.7211 C   0  0  0  0  0  0  0  0  0  0  0  0
   11.2244  -19.1241   27.8915 C   0  0  0  0  0  0  0  0  0  0  0  0
   12.0992  -20.0358   27.6842 O   0  0  0  0  0  0  0  0  0  0  0  0
   12.4455  -18.9622   25.1953 C   0  0  0  0  0  0  0  0  0  0  0  0
   13.5672  -19.0740   26.0477 O   0  0  0  0  0  0  0  0  0  0  0  0
   11.0753  -18.7137   29.1811 O   0  0  0  0  0  0  0  0  0  0  0  0
   12.4827  -19.6456   24.1676 O   0  0  0  0  0  0  0  0  0  0  0  0
  2  3  1  0
  2  1  1  0
  3  5  1  0
  3  4  1  6
  5  6  1  1
  7  5  1  0
  8  7  2  0
  9  7  1  0
 10  9  1  0
 10 11  1  6
 11 12  1  0
 12 13  2  0
 12 16  1  0
 13 14  1  0
 14 15  1  0
 16 15  2  0
 17 19  1  0
 17 10  1  0
 18 17  2  0
 20 19  1  0
 20 24  1  0
 20 21  1  1
 22 23  2  0
 22 21  1  0
 24 25  1  0
 26 22  1  0
 27 24  2  0
M  END
$$$$
