IHD.pdb
     RDKit          3D

 27 27  0  0  1  0  0  0  0  0999 V2000
    6.7154  -12.7087   20.6195 C   0  0  0  0  0  0  0  0  0  0  0  0
    7.1269  -13.5836   19.4266 C   0  0  0  0  0  0  0  0  0  0  0  0
    8.5863  -13.8956   19.5269 C   0  0  2  0  0  0  0  0  0  0  0  0
    9.4221  -12.6171   19.6717 C   0  0  0  0  0  0  0  0  0  0  0  0
    9.1266  -14.7743   18.4477 C   0  0  2  0  0  0  0  0  0  0  0  0
    8.1547  -15.8433   18.2531 N   0  0  0  0  0  0  0  0  0  0  0  0
   10.4729  -15.3307   18.7321 C   0  0  0  0  0  0  0  0  0  0  0  0
   10.6407  -16.3586   19.4275 O   0  0  0  0  0  0  0  0  0  0  0  0
   11.6003  -14.6870   18.2062 N   0  0  0  0  0  0  0  0  0  0  0  0
   12.9744  -15.0445   18.4574 C   0  0  1  0  0  0  0  0  0  0  0  0
   13.8039  -14.3577   17.4022 C   0  0  0  0  0  0  0  0  0  0  0  0
   15.2161  -14.7995   17.3913 C   0  0  0  0  0  0  0  0  0  0  0  0
   16.2151  -14.4061   18.2485 C   0  0  0  0  0  0  0  0  0  0  0  0
   17.3850  -15.0332   17.9212 N   0  0  0  0  0  0  0  0  0  0  0  0
   17.1035  -15.8110   16.8635 C   0  0  0  0  0  0  0  0  0  0  0  0
   15.8085  -15.6828   16.5332 N   0  0  0  0  0  0  0  0  0  0  0  0
   13.4148  -14.8354   19.8330 C   0  0  0  0  0  0  0  0  0  0  0  0
   12.8239  -13.9668   20.5240 O   0  0  0  0  0  0  0  0  0  0  0  0
   14.4634  -15.5608   20.4124 N   0  0  0  0  0  0  0  0  0  0  0  0
   14.4997  -15.9531   21.8186 C   0  0  1  0  0  0  0  0  0  0  0  0
   13.2305  -16.7124   22.1718 C   0  0  0  0  0  0  0  0  0  0  0  0
   13.2165  -17.2812   23.5186 C   0  0  0  0  0  0  0  0  0  0  0  0
   13.5722  -16.5045   24.4724 O   0  0  0  0  0  0  0  0  0  0  0  0
   15.7280  -16.7073   22.1258 C   0  0  0  0  0  0  0  0  0  0  0  0
   16.2613  -17.5056   21.0887 O   0  0  0  0  0  0  0  0  0  0  0  0
   12.8678  -18.5490   23.8717 O   0  0  0  0  0  0  0  0  0  0  0  0
   16.3518  -16.7253   23.1913 O   0  0  0  0  0  0  0  0  0  0  0  0
  2  3  1  0
  2  1  1  0
  3  5  1  0
  3  4  1  6
  5  6  1  1
  7  5  1  0
  8  7  2  0
  9  7  1  0
 10  9  1  0
 10 11  1  6
 11 12  1  0
 12 13  2  0
 12 16  1  0
 13 14  1  0
 14 15  1  0
 16 15  2  0
 17 19  1  0
 17 10  1  0
 18 17  2  0
 20 19  1  0
 20 24  1  0
 20 21  1  6
 22 23  2  0
 22 21  1  0
 24 25  1  0
 26 22  1  0
 27 24  2  0
M  END
$$$$
