IHD.pdb
     RDKit          3D

 27 27  0  0  1  0  0  0  0  0999 V2000
    6.2019  -10.7349   26.3967 C   0  0  0  0  0  0  0  0  0  0  0  0
    7.0083  -11.9906   26.7583 C   0  0  0  0  0  0  0  0  0  0  0  0
    6.8247  -13.0175   25.6863 C   0  0  2  0  0  0  0  0  0  0  0  0
    5.3390  -13.2397   25.3743 C   0  0  0  0  0  0  0  0  0  0  0  0
    7.5274  -14.3142   25.9178 C   0  0  2  0  0  0  0  0  0  0  0  0
    8.7484  -14.0030   26.6510 N   0  0  0  0  0  0  0  0  0  0  0  0
    7.8347  -15.0702   24.6780 C   0  0  0  0  0  0  0  0  0  0  0  0
    6.9608  -15.7076   24.0469 O   0  0  0  0  0  0  0  0  0  0  0  0
    9.1482  -15.0743   24.1914 N   0  0  0  0  0  0  0  0  0  0  0  0
    9.6333  -15.8371   23.0682 C   0  0  1  0  0  0  0  0  0  0  0  0
    9.9765  -14.8472   21.9839 C   0  0  0  0  0  0  0  0  0  0  0  0
    8.7926  -14.3623   21.2406 C   0  0  0  0  0  0  0  0  0  0  0  0
    7.4827  -14.7271   21.4374 C   0  0  0  0  0  0  0  0  0  0  0  0
    6.6757  -14.0636   20.5556 N   0  0  0  0  0  0  0  0  0  0  0  0
    7.4904  -13.2921   19.8181 C   0  0  0  0  0  0  0  0  0  0  0  0
    8.7620  -13.4591   20.2155 N   0  0  0  0  0  0  0  0  0  0  0  0
   10.6835  -16.7969   23.3937 C   0  0  0  0  0  0  0  0  0  0  0  0
   11.6799  -16.3938   24.0462 O   0  0  0  0  0  0  0  0  0  0  0  0
   10.6259  -18.1430   23.0116 N   0  0  0  0  0  0  0  0  0  0  0  0
   11.6843  -19.1111   23.2858 C   0  0  1  0  0  0  0  0  0  0  0  0
   11.0703  -20.4315   23.7234 C   0  0  0  0  0  0  0  0  0  0  0  0
   10.3472  -20.3753   24.9929 C   0  0  0  0  0  0  0  0  0  0  0  0
    9.0964  -20.6461   24.9524 O   0  0  0  0  0  0  0  0  0  0  0  0
   12.5872  -19.2496   22.1293 C   0  0  0  0  0  0  0  0  0  0  0  0
   13.7324  -20.0579   22.3087 O   0  0  0  0  0  0  0  0  0  0  0  0
   10.8574  -20.0645   26.2163 O   0  0  0  0  0  0  0  0  0  0  0  0
   12.4613  -18.7383   21.0124 O   0  0  0  0  0  0  0  0  0  0  0  0
  2  3  1  0
  2  1  1  0
  3  5  1  0
  3  4  1  1
  5  6  1  6
  7  5  1  0
  8  7  2  0
  9  7  1  0
 10  9  1  0
 10 11  1  6
 11 12  1  0
 12 13  2  0
 12 16  1  0
 13 14  1  0
 14 15  1  0
 16 15  2  0
 17 19  1  0
 17 10  1  0
 18 17  2  0
 20 19  1  0
 20 24  1  0
 20 21  1  6
 22 23  2  0
 22 21  1  0
 24 25  1  0
 26 22  1  0
 27 24  2  0
M  END
$$$$
