IHD.pdb
     RDKit          3D

 27 27  0  0  1  0  0  0  0  0999 V2000
    7.2371  -12.3052   18.0581 C   0  0  0  0  0  0  0  0  0  0  0  0
    8.6970  -12.6079   18.4254 C   0  0  0  0  0  0  0  0  0  0  0  0
    8.7260  -13.5828   19.5594 C   0  0  2  0  0  0  0  0  0  0  0  0
    7.8516  -13.1074   20.7271 C   0  0  0  0  0  0  0  0  0  0  0  0
   10.0876  -13.9748   20.0293 C   0  0  2  0  0  0  0  0  0  0  0  0
   10.9348  -14.0444   18.8449 N   0  0  0  0  0  0  0  0  0  0  0  0
   10.1276  -15.2533   20.7823 C   0  0  0  0  0  0  0  0  0  0  0  0
    9.3518  -15.4950   21.7353 O   0  0  0  0  0  0  0  0  0  0  0  0
   11.0647  -16.2285   20.4182 N   0  0  0  0  0  0  0  0  0  0  0  0
   11.2362  -17.5151   21.0460 C   0  0  1  0  0  0  0  0  0  0  0  0
   11.6217  -18.4841   19.9572 C   0  0  0  0  0  0  0  0  0  0  0  0
   10.4923  -18.8477   19.0731 C   0  0  0  0  0  0  0  0  0  0  0  0
    9.9725  -18.1031   18.0422 C   0  0  0  0  0  0  0  0  0  0  0  0
    8.9343  -18.7742   17.4585 N   0  0  0  0  0  0  0  0  0  0  0  0
    8.8174  -19.9303   18.1313 C   0  0  0  0  0  0  0  0  0  0  0  0
    9.7432  -19.9904   19.1019 N   0  0  0  0  0  0  0  0  0  0  0  0
   12.1094  -17.5089   22.2154 C   0  0  0  0  0  0  0  0  0  0  0  0
   13.1074  -16.7440   22.2118 O   0  0  0  0  0  0  0  0  0  0  0  0
   11.8810  -18.3159   23.3370 N   0  0  0  0  0  0  0  0  0  0  0  0
   12.7198  -18.3014   24.5324 C   0  0  1  0  0  0  0  0  0  0  0  0
   11.9088  -18.7623   25.7332 C   0  0  0  0  0  0  0  0  0  0  0  0
   12.6743  -18.8885   26.9724 C   0  0  0  0  0  0  0  0  0  0  0  0
   13.8958  -18.5069   26.9328 O   0  0  0  0  0  0  0  0  0  0  0  0
   13.9470  -19.0912   24.3272 C   0  0  0  0  0  0  0  0  0  0  0  0
   15.1757  -18.4098   24.4796 O   0  0  0  0  0  0  0  0  0  0  0  0
   12.2315  -19.3700   28.1665 O   0  0  0  0  0  0  0  0  0  0  0  0
   14.0301  -20.2879   24.0347 O   0  0  0  0  0  0  0  0  0  0  0  0
  2  3  1  0
  2  1  1  0
  3  5  1  0
  3  4  1  1
  5  6  1  6
  7  5  1  0
  8  7  2  0
  9  7  1  0
 10  9  1  0
 10 11  1  6
 11 12  1  0
 12 13  2  0
 12 16  1  0
 13 14  1  0
 14 15  1  0
 16 15  2  0
 17 19  1  0
 17 10  1  0
 18 17  2  0
 20 19  1  0
 20 24  1  0
 20 21  1  1
 22 23  2  0
 22 21  1  0
 24 25  1  0
 26 22  1  0
 27 24  2  0
M  END
$$$$
