FYR.pdb
     RDKit          3D

 35 36  0  0  1  0  0  0  0  0999 V2000
   27.9420  -21.2705  -14.8289 N   0  0  0  0  0  0  0  0  0  0  0  0
   27.1330  -20.1131  -14.4162 C   0  0  1  0  0  0  0  0  0  0  0  0
   26.4230  -19.5225  -15.6159 C   0  0  0  0  0  0  0  0  0  0  0  0
   27.3428  -18.6891  -16.4093 C   0  0  0  0  0  0  0  0  0  0  0  0
   28.0352  -19.1614  -17.5037 C   0  0  0  0  0  0  0  0  0  0  0  0
   28.8795  -18.3262  -18.2006 C   0  0  0  0  0  0  0  0  0  0  0  0
   29.0620  -16.9963  -17.8320 C   0  0  0  0  0  0  0  0  0  0  0  0
   28.3570  -16.5574  -16.7365 C   0  0  0  0  0  0  0  0  0  0  0  0
   27.5027  -17.3565  -16.0101 C   0  0  0  0  0  0  0  0  0  0  0  0
   26.1614  -20.5899  -13.4163 C   0  0  0  0  0  0  0  0  0  0  0  0
   25.6755  -21.7732  -13.4811 O   0  0  0  0  0  0  0  0  0  0  0  0
   20.2665  -21.3348   -6.8350 O   0  0  0  0  0  0  0  0  0  0  0  0
   21.2858  -20.8650   -7.6649 C   0  0  0  0  0  0  0  0  0  0  0  0
   22.5960  -21.2378   -7.4369 C   0  0  0  0  0  0  0  0  0  0  0  0
   23.6323  -20.7790   -8.2565 C   0  0  0  0  0  0  0  0  0  0  0  0
   23.3857  -19.9386   -9.3210 C   0  0  0  0  0  0  0  0  0  0  0  0
   24.4804  -19.4435  -10.2005 C   0  0  0  0  0  0  0  0  0  0  0  0
   24.6170  -20.2501  -11.4549 C   0  0  2  0  0  0  0  0  0  0  0  0
   25.6775  -19.8291  -12.3212 N   0  0  0  0  0  0  0  0  0  0  0  0
   23.2930  -20.3011  -12.1231 C   0  0  0  0  0  0  0  0  0  0  0  0
   22.9161  -19.3316  -12.8022 O   0  0  0  0  0  0  0  0  0  0  0  0
   22.0659  -19.5742   -9.5359 C   0  0  0  0  0  0  0  0  0  0  0  0
   21.0425  -20.0260   -8.7286 C   0  0  0  0  0  0  0  0  0  0  0  0
   22.4522  -24.0762  -17.1869 N   0  0  0  0  0  0  0  0  0  0  0  0
   22.9355  -24.8708  -16.1187 C   0  0  0  0  0  0  0  0  0  0  0  0
   24.1330  -25.3358  -16.1937 N   0  0  0  0  0  0  0  0  0  0  0  0
   22.1160  -25.1354  -15.0009 N   0  0  0  0  0  0  0  0  0  0  0  0
   20.7303  -24.7786  -14.9980 C   0  0  0  0  0  0  0  0  0  0  0  0
   20.4098  -23.4812  -14.3275 C   0  0  0  0  0  0  0  0  0  0  0  0
   21.5351  -23.0316  -13.4471 C   0  0  0  0  0  0  0  0  0  0  0  0
   21.3256  -21.6860  -12.7926 C   0  0  2  0  0  0  0  0  0  0  0  0
   22.5076  -21.4647  -11.9583 N   0  0  0  0  0  0  0  0  0  0  0  0
   20.1282  -21.5922  -11.9649 C   0  0  0  0  0  0  0  0  0  0  0  0
   18.9533  -21.0862  -12.4740 O   0  0  0  0  0  0  0  0  0  0  0  0
   20.1484  -21.9719  -10.7697 O   0  0  0  0  0  0  0  0  0  0  0  0
  2  1  1  6
  2  3  1  0
  3  4  1  0
  4  9  1  0
  5  4  2  0
  5  6  1  0
  6  7  2  0
  7  8  1  0
  9  8  2  0
 10  2  1  0
 10 19  1  0
 11 10  2  0
 12 13  1  0
 13 14  2  0
 14 15  1  0
 16 17  1  0
 16 15  2  0
 18 17  1  1
 18 19  1  0
 18 20  1  0
 20 32  1  0
 21 20  2  0
 22 16  1  0
 23 22  2  0
 23 13  1  0
 25 24  1  0
 25 26  2  0
 27 25  1  0
 28 27  1  0
 29 28  1  0
 30 29  1  0
 31 30  1  1
 31 33  1  0
 32 31  1  0
 33 34  1  0
 35 33  2  0
M  END
$$$$
