FYR.pdb
     RDKit          3D

 35 36  0  0  1  0  0  0  0  0999 V2000
   25.3371  -12.6648  -17.9927 N   0  0  0  0  0  0  0  0  0  0  0  0
   25.8398  -13.9665  -17.5267 C   0  0  1  0  0  0  0  0  0  0  0  0
   26.7794  -13.7704  -16.3558 C   0  0  0  0  0  0  0  0  0  0  0  0
   28.0763  -13.2394  -16.8099 C   0  0  0  0  0  0  0  0  0  0  0  0
   28.4982  -11.9533  -16.5491 C   0  0  0  0  0  0  0  0  0  0  0  0
   29.7242  -11.5223  -17.0042 C   0  0  0  0  0  0  0  0  0  0  0  0
   30.5689  -12.3554  -17.7322 C   0  0  0  0  0  0  0  0  0  0  0  0
   30.1182  -13.6313  -17.9749 C   0  0  0  0  0  0  0  0  0  0  0  0
   28.9005  -14.1048  -17.5399 C   0  0  0  0  0  0  0  0  0  0  0  0
   24.6718  -14.7726  -17.1302 C   0  0  0  0  0  0  0  0  0  0  0  0
   23.8608  -14.3594  -16.2291 O   0  0  0  0  0  0  0  0  0  0  0  0
   19.4213  -12.1118  -19.5430 O   0  0  0  0  0  0  0  0  0  0  0  0
   20.0984  -13.2980  -19.2554 C   0  0  0  0  0  0  0  0  0  0  0  0
   19.5758  -14.1938  -18.3432 C   0  0  0  0  0  0  0  0  0  0  0  0
   20.2377  -15.3883  -18.0407 C   0  0  0  0  0  0  0  0  0  0  0  0
   21.4347  -15.7161  -18.6407 C   0  0  0  0  0  0  0  0  0  0  0  0
   22.1487  -16.9845  -18.3270 C   0  0  0  0  0  0  0  0  0  0  0  0
   23.1930  -16.8076  -17.2682 C   0  0  2  0  0  0  0  0  0  0  0  0
   24.3295  -16.0365  -17.6757 N   0  0  0  0  0  0  0  0  0  0  0  0
   23.5475  -18.1462  -16.7345 C   0  0  0  0  0  0  0  0  0  0  0  0
   24.3006  -18.8837  -17.3919 O   0  0  0  0  0  0  0  0  0  0  0  0
   21.9452  -14.8066  -19.5535 C   0  0  0  0  0  0  0  0  0  0  0  0
   21.2936  -13.6282  -19.8530 C   0  0  0  0  0  0  0  0  0  0  0  0
   25.7682  -21.1879   -9.9618 N   0  0  0  0  0  0  0  0  0  0  0  0
   26.1072  -21.9877  -11.0806 C   0  0  0  0  0  0  0  0  0  0  0  0
   26.1684  -23.2637  -10.9259 N   0  0  0  0  0  0  0  0  0  0  0  0
   26.3647  -21.3887  -12.3320 N   0  0  0  0  0  0  0  0  0  0  0  0
   25.4926  -20.3885  -12.8673 C   0  0  0  0  0  0  0  0  0  0  0  0
   24.0367  -20.6120  -12.6109 C   0  0  0  0  0  0  0  0  0  0  0  0
   23.1922  -19.6750  -13.4186 C   0  0  0  0  0  0  0  0  0  0  0  0
   23.3193  -19.8413  -14.9149 C   0  0  2  0  0  0  0  0  0  0  0  0
   23.0084  -18.5299  -15.4855 N   0  0  0  0  0  0  0  0  0  0  0  0
   22.4284  -20.8410  -15.4935 C   0  0  0  0  0  0  0  0  0  0  0  0
   21.2732  -20.4687  -16.1434 O   0  0  0  0  0  0  0  0  0  0  0  0
   22.7003  -22.0625  -15.4080 O   0  0  0  0  0  0  0  0  0  0  0  0
  2  1  1  1
  2  3  1  0
  3  4  1  0
  4  9  1  0
  5  4  2  0
  5  6  1  0
  6  7  2  0
  7  8  1  0
  9  8  2  0
 10  2  1  0
 10 19  1  0
 11 10  2  0
 12 13  1  0
 13 14  2  0
 14 15  1  0
 16 17  1  0
 16 15  2  0
 18 17  1  6
 18 19  1  0
 18 20  1  0
 20 32  1  0
 21 20  2  0
 22 16  1  0
 23 22  2  0
 23 13  1  0
 25 24  1  0
 25 26  2  0
 27 25  1  0
 28 27  1  0
 29 28  1  0
 30 29  1  0
 31 30  1  1
 31 33  1  0
 32 31  1  0
 33 34  1  0
 35 33  2  0
M  END
$$$$
