FYR.pdb
     RDKit          3D

 35 36  0  0  1  0  0  0  0  0999 V2000
   29.2144  -23.0239  -12.1316 N   0  0  0  0  0  0  0  0  0  0  0  0
   28.7846  -22.1713  -11.0123 C   0  0  1  0  0  0  0  0  0  0  0  0
   29.7424  -21.0105  -10.8473 C   0  0  0  0  0  0  0  0  0  0  0  0
   30.6954  -21.2708   -9.7547 C   0  0  0  0  0  0  0  0  0  0  0  0
   31.9355  -21.8387   -9.9542 C   0  0  0  0  0  0  0  0  0  0  0  0
   32.7773  -22.0539   -8.8860 C   0  0  0  0  0  0  0  0  0  0  0  0
   32.4134  -21.7114   -7.5868 C   0  0  0  0  0  0  0  0  0  0  0  0
   31.1706  -21.1472   -7.4225 C   0  0  0  0  0  0  0  0  0  0  0  0
   30.2965  -20.9141   -8.4606 C   0  0  0  0  0  0  0  0  0  0  0  0
   27.4274  -21.6890  -11.3231 C   0  0  0  0  0  0  0  0  0  0  0  0
   26.8885  -21.9240  -12.4610 O   0  0  0  0  0  0  0  0  0  0  0  0
   18.8319  -19.8974  -10.0251 O   0  0  0  0  0  0  0  0  0  0  0  0
   20.2200  -19.9395   -9.8841 C   0  0  0  0  0  0  0  0  0  0  0  0
   21.0250  -19.1563  -10.6879 C   0  0  0  0  0  0  0  0  0  0  0  0
   22.4178  -19.1829  -10.5629 C   0  0  0  0  0  0  0  0  0  0  0  0
   23.0387  -19.9907   -9.6343 C   0  0  0  0  0  0  0  0  0  0  0  0
   24.5205  -20.0277   -9.4919 C   0  0  0  0  0  0  0  0  0  0  0  0
   25.1758  -20.8757  -10.5380 C   0  0  2  0  0  0  0  0  0  0  0  0
   26.6033  -20.9459  -10.4394 N   0  0  0  0  0  0  0  0  0  0  0  0
   24.6965  -20.4276  -11.8691 C   0  0  0  0  0  0  0  0  0  0  0  0
   25.1229  -19.3610  -12.3422 O   0  0  0  0  0  0  0  0  0  0  0  0
   22.2167  -20.7700   -8.8358 C   0  0  0  0  0  0  0  0  0  0  0  0
   20.8428  -20.7448   -8.9577 C   0  0  0  0  0  0  0  0  0  0  0  0
   25.6571  -25.0432  -15.6233 N   0  0  0  0  0  0  0  0  0  0  0  0
   24.3800  -25.3228  -16.1684 C   0  0  0  0  0  0  0  0  0  0  0  0
   23.8783  -26.4935  -15.9855 N   0  0  0  0  0  0  0  0  0  0  0  0
   23.6810  -24.3311  -16.8889 N   0  0  0  0  0  0  0  0  0  0  0  0
   24.2089  -23.0088  -17.0308 C   0  0  0  0  0  0  0  0  0  0  0  0
   23.5165  -21.9583  -16.2231 C   0  0  0  0  0  0  0  0  0  0  0  0
   23.9470  -22.0031  -14.7892 C   0  0  0  0  0  0  0  0  0  0  0  0
   23.3569  -20.9182  -13.9187 C   0  0  2  0  0  0  0  0  0  0  0  0
   23.7655  -21.2433  -12.5515 N   0  0  0  0  0  0  0  0  0  0  0  0
   21.9028  -20.8170  -13.9751 C   0  0  0  0  0  0  0  0  0  0  0  0
   21.2867  -19.9463  -14.8458 O   0  0  0  0  0  0  0  0  0  0  0  0
   21.1854  -21.5240  -13.2276 O   0  0  0  0  0  0  0  0  0  0  0  0
  2  1  1  6
  2  3  1  0
  3  4  1  0
  4  9  1  0
  5  4  2  0
  5  6  1  0
  6  7  2  0
  7  8  1  0
  9  8  2  0
 10  2  1  0
 10 19  1  0
 11 10  2  0
 12 13  1  0
 13 14  2  0
 14 15  1  0
 16 17  1  0
 16 15  2  0
 18 17  1  1
 18 19  1  0
 18 20  1  0
 20 32  1  0
 21 20  2  0
 22 16  1  0
 23 22  2  0
 23 13  1  0
 25 24  1  0
 25 26  2  0
 27 25  1  0
 28 27  1  0
 29 28  1  0
 30 29  1  0
 31 30  1  6
 31 33  1  0
 32 31  1  0
 33 34  1  0
 35 33  2  0
M  END
$$$$
