FYR.pdb
     RDKit          3D

 35 36  0  0  1  0  0  0  0  0999 V2000
   16.2600  -17.5092  -15.9162 N   0  0  0  0  0  0  0  0  0  0  0  0
   15.2566  -17.0727  -16.8995 C   0  0  1  0  0  0  0  0  0  0  0  0
   13.8726  -17.4872  -16.4468 C   0  0  0  0  0  0  0  0  0  0  0  0
   13.6678  -18.9320  -16.6485 C   0  0  0  0  0  0  0  0  0  0  0  0
   13.9103  -19.8723  -15.6701 C   0  0  0  0  0  0  0  0  0  0  0  0
   13.6969  -21.2082  -15.9270 C   0  0  0  0  0  0  0  0  0  0  0  0
   13.2361  -21.6512  -17.1636 C   0  0  0  0  0  0  0  0  0  0  0  0
   13.0044  -20.6881  -18.1169 C   0  0  0  0  0  0  0  0  0  0  0  0
   13.2039  -19.3423  -17.9044 C   0  0  0  0  0  0  0  0  0  0  0  0
   15.3543  -15.6063  -17.0061 C   0  0  0  0  0  0  0  0  0  0  0  0
   15.6615  -14.8904  -15.9895 O   0  0  0  0  0  0  0  0  0  0  0  0
   15.8190   -7.1643  -19.5859 O   0  0  0  0  0  0  0  0  0  0  0  0
   15.7273   -8.5572  -19.5909 C   0  0  0  0  0  0  0  0  0  0  0  0
   14.5041   -9.1731  -19.7702 C   0  0  0  0  0  0  0  0  0  0  0  0
   14.3900  -10.5672  -19.7790 C   0  0  0  0  0  0  0  0  0  0  0  0
   15.4920  -11.3776  -19.6091 C   0  0  0  0  0  0  0  0  0  0  0  0
   15.3831  -12.8626  -19.6165 C   0  0  0  0  0  0  0  0  0  0  0  0
   15.1397  -13.4263  -18.2505 C   0  0  2  0  0  0  0  0  0  0  0  0
   15.1303  -14.8575  -18.1899 N   0  0  0  0  0  0  0  0  0  0  0  0
   13.9100  -12.8032  -17.7012 C   0  0  0  0  0  0  0  0  0  0  0  0
   12.8134  -13.3580  -17.8824 O   0  0  0  0  0  0  0  0  0  0  0  0
   16.7115  -10.7437  -19.4306 C   0  0  0  0  0  0  0  0  0  0  0  0
   16.8259   -9.3690  -19.4218 C   0  0  0  0  0  0  0  0  0  0  0  0
    9.5703  -14.0645  -11.5743 N   0  0  0  0  0  0  0  0  0  0  0  0
    8.9406  -12.8387  -11.9016 C   0  0  0  0  0  0  0  0  0  0  0  0
    7.8587  -12.5208  -11.2819 N   0  0  0  0  0  0  0  0  0  0  0  0
    9.4987  -11.9914  -12.8822 N   0  0  0  0  0  0  0  0  0  0  0  0
   10.6948  -12.3533  -13.5794 C   0  0  0  0  0  0  0  0  0  0  0  0
   11.1845  -11.3434  -14.5671 C   0  0  0  0  0  0  0  0  0  0  0  0
   12.3224  -11.8831  -15.3779 C   0  0  0  0  0  0  0  0  0  0  0  0
   12.8598  -10.9329  -16.4223 C   0  0  2  0  0  0  0  0  0  0  0  0
   14.0394  -11.5913  -16.9853 N   0  0  0  0  0  0  0  0  0  0  0  0
   13.2393   -9.6200  -15.9123 C   0  0  0  0  0  0  0  0  0  0  0  0
   12.2879   -8.7359  -15.4551 O   0  0  0  0  0  0  0  0  0  0  0  0
   14.4438   -9.2719  -15.8819 O   0  0  0  0  0  0  0  0  0  0  0  0
  2  1  1  1
  2  3  1  0
  3  4  1  0
  4  9  1  0
  5  4  2  0
  5  6  1  0
  6  7  2  0
  7  8  1  0
  9  8  2  0
 10  2  1  0
 10 19  1  0
 11 10  2  0
 12 13  1  0
 13 14  2  0
 14 15  1  0
 16 17  1  0
 16 15  2  0
 18 17  1  6
 18 19  1  0
 18 20  1  0
 20 32  1  0
 21 20  2  0
 22 16  1  0
 23 22  2  0
 23 13  1  0
 25 24  1  0
 25 26  2  0
 27 25  1  0
 28 27  1  0
 29 28  1  0
 30 29  1  0
 31 30  1  1
 31 33  1  0
 32 31  1  0
 33 34  1  0
 35 33  2  0
M  END
$$$$
