FYR.pdb
     RDKit          3D

 35 36  0  0  1  0  0  0  0  0999 V2000
   27.8553  -19.8032  -19.0519 N   0  0  0  0  0  0  0  0  0  0  0  0
   27.7141  -18.8475  -17.9424 C   0  0  1  0  0  0  0  0  0  0  0  0
   26.7621  -17.7368  -18.3328 C   0  0  0  0  0  0  0  0  0  0  0  0
   27.3288  -16.9215  -19.4210 C   0  0  0  0  0  0  0  0  0  0  0  0
   26.8565  -16.9576  -20.7155 C   0  0  0  0  0  0  0  0  0  0  0  0
   27.4339  -16.1675  -21.6843 C   0  0  0  0  0  0  0  0  0  0  0  0
   28.4980  -15.3173  -21.3971 C   0  0  0  0  0  0  0  0  0  0  0  0
   28.9448  -15.3054  -20.0970 C   0  0  0  0  0  0  0  0  0  0  0  0
   28.3984  -16.0778  -19.0966 C   0  0  0  0  0  0  0  0  0  0  0  0
   27.1978  -19.5944  -16.7818 C   0  0  0  0  0  0  0  0  0  0  0  0
   26.2465  -20.4418  -16.9132 O   0  0  0  0  0  0  0  0  0  0  0  0
   24.6914  -21.5522   -8.5007 O   0  0  0  0  0  0  0  0  0  0  0  0
   25.4380  -21.1380   -9.6050 C   0  0  0  0  0  0  0  0  0  0  0  0
   25.5167  -19.7976   -9.9284 C   0  0  0  0  0  0  0  0  0  0  0  0
   26.2595  -19.3611  -11.0303 C   0  0  0  0  0  0  0  0  0  0  0  0
   26.9400  -20.2508  -11.8337 C   0  0  0  0  0  0  0  0  0  0  0  0
   27.7340  -19.7983  -13.0093 C   0  0  0  0  0  0  0  0  0  0  0  0
   27.0158  -20.0181  -14.3050 C   0  0  2  0  0  0  0  0  0  0  0  0
   27.6736  -19.4659  -15.4516 N   0  0  0  0  0  0  0  0  0  0  0  0
   25.6152  -19.5540  -14.1464 C   0  0  0  0  0  0  0  0  0  0  0  0
   25.3619  -18.3411  -14.2368 O   0  0  0  0  0  0  0  0  0  0  0  0
   26.8508  -21.5918  -11.4954 C   0  0  0  0  0  0  0  0  0  0  0  0
   26.1188  -22.0240  -10.4089 C   0  0  0  0  0  0  0  0  0  0  0  0
   18.6246  -22.2628  -17.1832 N   0  0  0  0  0  0  0  0  0  0  0  0
   18.0852  -21.2897  -16.3065 C   0  0  0  0  0  0  0  0  0  0  0  0
   16.8078  -21.1399  -16.2684 N   0  0  0  0  0  0  0  0  0  0  0  0
   18.9381  -20.5122  -15.4947 N   0  0  0  0  0  0  0  0  0  0  0  0
   20.3350  -20.8059  -15.3943 C   0  0  0  0  0  0  0  0  0  0  0  0
   21.2233  -19.6161  -15.2202 C   0  0  0  0  0  0  0  0  0  0  0  0
   22.6638  -20.0194  -15.1439 C   0  0  0  0  0  0  0  0  0  0  0  0
   23.2172  -20.1218  -13.7417 C   0  0  2  0  0  0  0  0  0  0  0  0
   24.6162  -20.5225  -13.8979 N   0  0  0  0  0  0  0  0  0  0  0  0
   22.5333  -21.0858  -12.8869 C   0  0  0  0  0  0  0  0  0  0  0  0
   21.5281  -20.6880  -12.0342 O   0  0  0  0  0  0  0  0  0  0  0  0
   22.8508  -22.2989  -12.9135 O   0  0  0  0  0  0  0  0  0  0  0  0
  2  1  1  6
  2  3  1  0
  3  4  1  0
  4  9  1  0
  5  4  2  0
  5  6  1  0
  6  7  2  0
  7  8  1  0
  9  8  2  0
 10  2  1  0
 10 19  1  0
 11 10  2  0
 12 13  1  0
 13 14  2  0
 14 15  1  0
 16 17  1  0
 16 15  2  0
 18 17  1  1
 18 19  1  0
 18 20  1  0
 20 32  1  0
 21 20  2  0
 22 16  1  0
 23 22  2  0
 23 13  1  0
 25 24  1  0
 25 26  2  0
 27 25  1  0
 28 27  1  0
 29 28  1  0
 30 29  1  0
 31 30  1  6
 31 33  1  0
 32 31  1  0
 33 34  1  0
 35 33  2  0
M  END
$$$$
