FYR.pdb
     RDKit          3D

 35 36  0  0  1  0  0  0  0  0999 V2000
   13.0206  -24.6602  -11.9753 N   0  0  0  0  0  0  0  0  0  0  0  0
   13.7353  -25.2570  -13.1144 C   0  0  1  0  0  0  0  0  0  0  0  0
   12.7613  -25.5735  -14.2293 C   0  0  0  0  0  0  0  0  0  0  0  0
   11.9630  -26.7676  -13.9023 C   0  0  0  0  0  0  0  0  0  0  0  0
   10.9396  -27.2328  -14.7000 C   0  0  0  0  0  0  0  0  0  0  0  0
   10.2336  -28.3568  -14.3335 C   0  0  0  0  0  0  0  0  0  0  0  0
   10.5225  -29.0533  -13.1634 C   0  0  0  0  0  0  0  0  0  0  0  0
   11.5485  -28.5631  -12.3908 C   0  0  0  0  0  0  0  0  0  0  0  0
   12.2806  -27.4436  -12.7178 C   0  0  0  0  0  0  0  0  0  0  0  0
   14.7427  -24.2794  -13.5623 C   0  0  0  0  0  0  0  0  0  0  0  0
   14.4238  -23.0593  -13.7857 O   0  0  0  0  0  0  0  0  0  0  0  0
   22.0790  -20.0708  -16.2078 O   0  0  0  0  0  0  0  0  0  0  0  0
   21.1958  -20.9931  -15.6442 C   0  0  0  0  0  0  0  0  0  0  0  0
   21.0638  -22.2542  -16.1917 C   0  0  0  0  0  0  0  0  0  0  0  0
   20.1850  -23.1936  -15.6423 C   0  0  0  0  0  0  0  0  0  0  0  0
   19.4187  -22.8967  -14.5356 C   0  0  0  0  0  0  0  0  0  0  0  0
   18.4798  -23.8882  -13.9419 C   0  0  0  0  0  0  0  0  0  0  0  0
   17.0548  -23.6265  -14.3211 C   0  0  2  0  0  0  0  0  0  0  0  0
   16.1141  -24.5651  -13.7857 N   0  0  0  0  0  0  0  0  0  0  0  0
   16.9819  -23.4932  -15.7973 C   0  0  0  0  0  0  0  0  0  0  0  0
   17.0491  -24.5123  -16.5045 O   0  0  0  0  0  0  0  0  0  0  0  0
   19.5632  -21.6272  -13.9986 C   0  0  0  0  0  0  0  0  0  0  0  0
   20.4295  -20.6996  -14.5390 C   0  0  0  0  0  0  0  0  0  0  0  0
   15.9642  -22.2692  -21.9434 N   0  0  0  0  0  0  0  0  0  0  0  0
   14.8159  -21.4762  -22.1856 C   0  0  0  0  0  0  0  0  0  0  0  0
   14.3282  -21.4512  -23.3761 N   0  0  0  0  0  0  0  0  0  0  0  0
   14.2258  -20.7390  -21.1371 N   0  0  0  0  0  0  0  0  0  0  0  0
   14.6299  -20.9318  -19.7780 C   0  0  0  0  0  0  0  0  0  0  0  0
   15.8882  -20.2272  -19.3834 C   0  0  0  0  0  0  0  0  0  0  0  0
   16.2908  -20.5762  -17.9836 C   0  0  0  0  0  0  0  0  0  0  0  0
   16.7236  -22.0108  -17.7903 C   0  0  2  0  0  0  0  0  0  0  0  0
   16.8359  -22.1976  -16.3431 N   0  0  0  0  0  0  0  0  0  0  0  0
   17.9945  -22.3527  -18.4195 C   0  0  0  0  0  0  0  0  0  0  0  0
   19.1810  -21.8439  -17.9410 O   0  0  0  0  0  0  0  0  0  0  0  0
   18.0284  -23.1188  -19.4120 O   0  0  0  0  0  0  0  0  0  0  0  0
  2  1  1  1
  2  3  1  0
  3  4  1  0
  4  9  1  0
  5  4  2  0
  5  6  1  0
  6  7  2  0
  7  8  1  0
  9  8  2  0
 10  2  1  0
 10 19  1  0
 11 10  2  0
 12 13  1  0
 13 14  2  0
 14 15  1  0
 16 17  1  0
 16 15  2  0
 18 17  1  6
 18 19  1  0
 18 20  1  0
 20 32  1  0
 21 20  2  0
 22 16  1  0
 23 22  2  0
 23 13  1  0
 25 24  1  0
 25 26  2  0
 27 25  1  0
 28 27  1  0
 29 28  1  0
 30 29  1  0
 31 30  1  1
 31 33  1  0
 32 31  1  0
 33 34  1  0
 35 33  2  0
M  END
$$$$
