FYR.pdb
     RDKit          3D

 35 36  0  0  1  0  0  0  0  0999 V2000
   26.3343  -21.5623  -19.9029 N   0  0  0  0  0  0  0  0  0  0  0  0
   25.5684  -20.5012  -19.2308 C   0  0  1  0  0  0  0  0  0  0  0  0
   24.2797  -20.2378  -19.9806 C   0  0  0  0  0  0  0  0  0  0  0  0
   24.5467  -19.5359  -21.2479 C   0  0  0  0  0  0  0  0  0  0  0  0
   25.0286  -18.2459  -21.3090 C   0  0  0  0  0  0  0  0  0  0  0  0
   25.2561  -17.6500  -22.5293 C   0  0  0  0  0  0  0  0  0  0  0  0
   25.0120  -18.3171  -23.7264 C   0  0  0  0  0  0  0  0  0  0  0  0
   24.5320  -19.6017  -23.6302 C   0  0  0  0  0  0  0  0  0  0  0  0
   24.2897  -20.2368  -22.4327 C   0  0  0  0  0  0  0  0  0  0  0  0
   25.2901  -20.9615  -17.8589 C   0  0  0  0  0  0  0  0  0  0  0  0
   24.9515  -22.1746  -17.6264 O   0  0  0  0  0  0  0  0  0  0  0  0
   24.0176  -21.6948   -9.1158 O   0  0  0  0  0  0  0  0  0  0  0  0
   24.4149  -21.2405  -10.3744 C   0  0  0  0  0  0  0  0  0  0  0  0
   23.7122  -20.2314  -11.0035 C   0  0  0  0  0  0  0  0  0  0  0  0
   24.0934  -19.7611  -12.2644 C   0  0  0  0  0  0  0  0  0  0  0  0
   25.1830  -20.2861  -12.9258 C   0  0  0  0  0  0  0  0  0  0  0  0
   25.5985  -19.7938  -14.2683 C   0  0  0  0  0  0  0  0  0  0  0  0
   25.0009  -20.5957  -15.3831 C   0  0  2  0  0  0  0  0  0  0  0  0
   25.3628  -20.1520  -16.6963 N   0  0  0  0  0  0  0  0  0  0  0  0
   23.5346  -20.6726  -15.1682 C   0  0  0  0  0  0  0  0  0  0  0  0
   22.8244  -19.6964  -15.4616 O   0  0  0  0  0  0  0  0  0  0  0  0
   25.8770  -21.2976  -12.2808 C   0  0  0  0  0  0  0  0  0  0  0  0
   25.5024  -21.7625  -11.0372 C   0  0  0  0  0  0  0  0  0  0  0  0
   19.5754  -28.1822  -13.6457 N   0  0  0  0  0  0  0  0  0  0  0  0
   20.5653  -27.4220  -12.9761 C   0  0  0  0  0  0  0  0  0  0  0  0
   21.4041  -28.0385  -12.2196 N   0  0  0  0  0  0  0  0  0  0  0  0
   20.6242  -26.0225  -13.1461 N   0  0  0  0  0  0  0  0  0  0  0  0
   19.6977  -25.3407  -13.9972 C   0  0  0  0  0  0  0  0  0  0  0  0
   19.8707  -23.8572  -14.0649 C   0  0  0  0  0  0  0  0  0  0  0  0
   21.3012  -23.4871  -14.3099 C   0  0  0  0  0  0  0  0  0  0  0  0
   21.5606  -22.0022  -14.4120 C   0  0  2  0  0  0  0  0  0  0  0  0
   23.0009  -21.8674  -14.6341 N   0  0  0  0  0  0  0  0  0  0  0  0
   21.1824  -21.2361  -13.2296 C   0  0  0  0  0  0  0  0  0  0  0  0
   20.2292  -20.2454  -13.3027 O   0  0  0  0  0  0  0  0  0  0  0  0
   21.7220  -21.4673  -12.1212 O   0  0  0  0  0  0  0  0  0  0  0  0
  2  1  1  6
  2  3  1  0
  3  4  1  0
  4  9  1  0
  5  4  2  0
  5  6  1  0
  6  7  2  0
  7  8  1  0
  9  8  2  0
 10  2  1  0
 10 19  1  0
 11 10  2  0
 12 13  1  0
 13 14  2  0
 14 15  1  0
 16 17  1  0
 16 15  2  0
 18 17  1  1
 18 19  1  0
 18 20  1  0
 20 32  1  0
 21 20  2  0
 22 16  1  0
 23 22  2  0
 23 13  1  0
 25 24  1  0
 25 26  2  0
 27 25  1  0
 28 27  1  0
 29 28  1  0
 30 29  1  0
 31 30  1  1
 31 33  1  0
 32 31  1  0
 33 34  1  0
 35 33  2  0
M  END
$$$$
