FYR.pdb
     RDKit          3D

 35 36  0  0  1  0  0  0  0  0999 V2000
   29.8994  -23.6843  -17.4181 N   0  0  0  0  0  0  0  0  0  0  0  0
   29.1232  -22.4348  -17.4404 C   0  0  1  0  0  0  0  0  0  0  0  0
   28.3009  -22.3579  -18.7093 C   0  0  0  0  0  0  0  0  0  0  0  0
   29.1521  -22.0241  -19.8642 C   0  0  0  0  0  0  0  0  0  0  0  0
   29.7477  -20.7923  -20.0316 C   0  0  0  0  0  0  0  0  0  0  0  0
   30.5323  -20.5481  -21.1365 C   0  0  0  0  0  0  0  0  0  0  0  0
   30.7497  -21.5201  -22.1090 C   0  0  0  0  0  0  0  0  0  0  0  0
   30.1415  -22.7371  -21.9118 C   0  0  0  0  0  0  0  0  0  0  0  0
   29.3490  -23.0253  -20.8232 C   0  0  0  0  0  0  0  0  0  0  0  0
   28.2519  -22.4372  -16.2522 C   0  0  0  0  0  0  0  0  0  0  0  0
   27.6681  -23.5094  -15.8648 O   0  0  0  0  0  0  0  0  0  0  0  0
   24.0360  -20.5744   -8.6886 O   0  0  0  0  0  0  0  0  0  0  0  0
   24.8438  -20.4808   -9.8230 C   0  0  0  0  0  0  0  0  0  0  0  0
   26.0896  -21.0768   -9.8411 C   0  0  0  0  0  0  0  0  0  0  0  0
   26.9148  -20.9955  -10.9675 C   0  0  0  0  0  0  0  0  0  0  0  0
   26.5166  -20.3185  -12.1003 C   0  0  0  0  0  0  0  0  0  0  0  0
   27.3862  -20.2250  -13.3054 C   0  0  0  0  0  0  0  0  0  0  0  0
   27.1385  -21.3362  -14.2784 C   0  0  2  0  0  0  0  0  0  0  0  0
   27.9745  -21.3067  -15.4414 N   0  0  0  0  0  0  0  0  0  0  0  0
   25.6886  -21.3660  -14.5932 C   0  0  0  0  0  0  0  0  0  0  0  0
   25.2358  -20.5894  -15.4506 O   0  0  0  0  0  0  0  0  0  0  0  0
   25.2641  -19.7263  -12.0657 C   0  0  0  0  0  0  0  0  0  0  0  0
   24.4489  -19.8057  -10.9557 C   0  0  0  0  0  0  0  0  0  0  0  0
   21.0760  -28.5968  -14.9128 N   0  0  0  0  0  0  0  0  0  0  0  0
   20.0333  -27.6448  -15.0254 C   0  0  0  0  0  0  0  0  0  0  0  0
   18.8393  -28.0674  -15.2521 N   0  0  0  0  0  0  0  0  0  0  0  0
   20.3084  -26.2679  -14.8853 N   0  0  0  0  0  0  0  0  0  0  0  0
   21.6259  -25.8041  -14.5748 C   0  0  0  0  0  0  0  0  0  0  0  0
   21.7915  -24.3182  -14.5699 C   0  0  0  0  0  0  0  0  0  0  0  0
   23.2116  -23.9302  -14.2935 C   0  0  0  0  0  0  0  0  0  0  0  0
   23.4613  -22.4408  -14.2467 C   0  0  2  0  0  0  0  0  0  0  0  0
   24.8744  -22.2884  -13.8975 N   0  0  0  0  0  0  0  0  0  0  0  0
   22.6455  -21.7176  -13.2775 C   0  0  0  0  0  0  0  0  0  0  0  0
   21.5362  -21.0063  -13.6762 O   0  0  0  0  0  0  0  0  0  0  0  0
   22.9423  -21.7307  -12.0589 O   0  0  0  0  0  0  0  0  0  0  0  0
  2  1  1  6
  2  3  1  0
  3  4  1  0
  4  9  1  0
  5  4  2  0
  5  6  1  0
  6  7  2  0
  7  8  1  0
  9  8  2  0
 10  2  1  0
 10 19  1  0
 11 10  2  0
 12 13  1  0
 13 14  2  0
 14 15  1  0
 16 17  1  0
 16 15  2  0
 18 17  1  1
 18 19  1  0
 18 20  1  0
 20 32  1  0
 21 20  2  0
 22 16  1  0
 23 22  2  0
 23 13  1  0
 25 24  1  0
 25 26  2  0
 27 25  1  0
 28 27  1  0
 29 28  1  0
 30 29  1  0
 31 30  1  1
 31 33  1  0
 32 31  1  0
 33 34  1  0
 35 33  2  0
M  END
$$$$
