FYR.pdb
     RDKit          3D

 35 36  0  0  1  0  0  0  0  0999 V2000
   26.0832  -20.2835   -9.2745 N   0  0  0  0  0  0  0  0  0  0  0  0
   26.6414  -20.2570  -10.6354 C   0  0  1  0  0  0  0  0  0  0  0  0
   27.3967  -21.5399  -10.9110 C   0  0  0  0  0  0  0  0  0  0  0  0
   28.6766  -21.5595  -10.1820 C   0  0  0  0  0  0  0  0  0  0  0  0
   28.7816  -21.9012   -8.8507 C   0  0  0  0  0  0  0  0  0  0  0  0
   30.0114  -21.8986   -8.2312 C   0  0  0  0  0  0  0  0  0  0  0  0
   31.1746  -21.5568   -8.9151 C   0  0  0  0  0  0  0  0  0  0  0  0
   31.0350  -21.2213  -10.2409 C   0  0  0  0  0  0  0  0  0  0  0  0
   29.8265  -21.2099  -10.9007 C   0  0  0  0  0  0  0  0  0  0  0  0
   25.5131  -20.1036  -11.5705 C   0  0  0  0  0  0  0  0  0  0  0  0
   24.3533  -20.5666  -11.2860 O   0  0  0  0  0  0  0  0  0  0  0  0
   29.7808  -17.9818  -17.0021 O   0  0  0  0  0  0  0  0  0  0  0  0
   28.5338  -17.9560  -16.3754 C   0  0  0  0  0  0  0  0  0  0  0  0
   27.9632  -16.7523  -16.0107 C   0  0  0  0  0  0  0  0  0  0  0  0
   26.7146  -16.7039  -15.3821 C   0  0  0  0  0  0  0  0  0  0  0  0
   26.0076  -17.8540  -15.1032 C   0  0  0  0  0  0  0  0  0  0  0  0
   24.6777  -17.8153  -14.4345 C   0  0  0  0  0  0  0  0  0  0  0  0
   24.4356  -19.0143  -13.5705 C   0  0  2  0  0  0  0  0  0  0  0  0
   25.5802  -19.4564  -12.8310 N   0  0  0  0  0  0  0  0  0  0  0  0
   23.8262  -20.0772  -14.4078 C   0  0  0  0  0  0  0  0  0  0  0  0
   24.5341  -20.6893  -15.2248 O   0  0  0  0  0  0  0  0  0  0  0  0
   26.5941  -19.0531  -15.4757 C   0  0  0  0  0  0  0  0  0  0  0  0
   27.8254  -19.1026  -16.0958 C   0  0  0  0  0  0  0  0  0  0  0  0
   24.9442  -23.6956  -16.9695 N   0  0  0  0  0  0  0  0  0  0  0  0
   25.3693  -24.6545  -16.0176 C   0  0  0  0  0  0  0  0  0  0  0  0
   26.1524  -25.5987  -16.4064 N   0  0  0  0  0  0  0  0  0  0  0  0
   24.9421  -24.5635  -14.6759 N   0  0  0  0  0  0  0  0  0  0  0  0
   24.0929  -23.4974  -14.2402 C   0  0  0  0  0  0  0  0  0  0  0  0
   22.6314  -23.8125  -14.2317 C   0  0  0  0  0  0  0  0  0  0  0  0
   21.8174  -22.6075  -13.8727 C   0  0  0  0  0  0  0  0  0  0  0  0
   21.8366  -21.5028  -14.9033 C   0  0  2  0  0  0  0  0  0  0  0  0
   22.4503  -20.3529  -14.2378 N   0  0  0  0  0  0  0  0  0  0  0  0
   20.5231  -21.1209  -15.4099 C   0  0  0  0  0  0  0  0  0  0  0  0
   19.8197  -21.9525  -16.2521 O   0  0  0  0  0  0  0  0  0  0  0  0
   20.0098  -20.0233  -15.0863 O   0  0  0  0  0  0  0  0  0  0  0  0
  2  1  1  1
  2  3  1  0
  3  4  1  0
  4  9  1  0
  5  4  2  0
  5  6  1  0
  6  7  2  0
  7  8  1  0
  9  8  2  0
 10  2  1  0
 10 19  1  0
 11 10  2  0
 12 13  1  0
 13 14  2  0
 14 15  1  0
 16 17  1  0
 16 15  2  0
 18 17  1  6
 18 19  1  0
 18 20  1  0
 20 32  1  0
 21 20  2  0
 22 16  1  0
 23 22  2  0
 23 13  1  0
 25 24  1  0
 25 26  2  0
 27 25  1  0
 28 27  1  0
 29 28  1  0
 30 29  1  0
 31 30  1  1
 31 33  1  0
 32 31  1  0
 33 34  1  0
 35 33  2  0
M  END
$$$$
