FYR.pdb
     RDKit          3D

 35 36  0  0  1  0  0  0  0  0999 V2000
   29.7853  -19.8208  -13.8822 N   0  0  0  0  0  0  0  0  0  0  0  0
   28.7679  -20.8372  -13.5719 C   0  0  1  0  0  0  0  0  0  0  0  0
   28.5933  -20.9550  -12.0726 C   0  0  0  0  0  0  0  0  0  0  0  0
   29.8516  -21.3740  -11.4314 C   0  0  0  0  0  0  0  0  0  0  0  0
   30.6566  -20.5139  -10.7156 C   0  0  0  0  0  0  0  0  0  0  0  0
   31.8208  -20.9733  -10.1416 C   0  0  0  0  0  0  0  0  0  0  0  0
   32.2212  -22.3011  -10.2608 C   0  0  0  0  0  0  0  0  0  0  0  0
   31.3962  -23.1322  -10.9808 C   0  0  0  0  0  0  0  0  0  0  0  0
   30.2239  -22.7166  -11.5719 C   0  0  0  0  0  0  0  0  0  0  0  0
   27.5112  -20.4112  -14.2126 C   0  0  0  0  0  0  0  0  0  0  0  0
   27.0037  -19.2609  -13.9687 O   0  0  0  0  0  0  0  0  0  0  0  0
   19.3802  -20.4988  -17.7285 O   0  0  0  0  0  0  0  0  0  0  0  0
   20.7270  -20.7683  -17.4792 C   0  0  0  0  0  0  0  0  0  0  0  0
   21.6712  -19.7680  -17.6035 C   0  0  0  0  0  0  0  0  0  0  0  0
   23.0256  -20.0164  -17.3579 C   0  0  0  0  0  0  0  0  0  0  0  0
   23.4685  -21.2668  -16.9833 C   0  0  0  0  0  0  0  0  0  0  0  0
   24.9076  -21.5435  -16.7192 C   0  0  0  0  0  0  0  0  0  0  0  0
   25.3691  -20.9788  -15.4111 C   0  0  2  0  0  0  0  0  0  0  0  0
   26.7576  -21.1895  -15.1283 N   0  0  0  0  0  0  0  0  0  0  0  0
   24.4662  -21.4766  -14.3438 C   0  0  0  0  0  0  0  0  0  0  0  0
   24.4749  -22.6845  -14.0535 O   0  0  0  0  0  0  0  0  0  0  0  0
   22.5083  -22.2590  -16.8631 C   0  0  0  0  0  0  0  0  0  0  0  0
   21.1722  -22.0157  -17.1047 C   0  0  0  0  0  0  0  0  0  0  0  0
   24.2187  -20.7430   -6.6168 N   0  0  0  0  0  0  0  0  0  0  0  0
   24.9506  -20.2931   -7.7430 C   0  0  0  0  0  0  0  0  0  0  0  0
   26.2359  -20.3257   -7.6916 N   0  0  0  0  0  0  0  0  0  0  0  0
   24.2753  -19.8272   -8.8910 N   0  0  0  0  0  0  0  0  0  0  0  0
   22.8474  -19.8646   -8.9760 C   0  0  0  0  0  0  0  0  0  0  0  0
   22.3011  -20.5500  -10.1873 C   0  0  0  0  0  0  0  0  0  0  0  0
   23.2069  -20.3736  -11.3670 C   0  0  0  0  0  0  0  0  0  0  0  0
   22.6971  -20.9846  -12.6513 C   0  0  2  0  0  0  0  0  0  0  0  0
   23.6257  -20.5447  -13.6935 N   0  0  0  0  0  0  0  0  0  0  0  0
   21.3414  -20.5890  -13.0167 C   0  0  0  0  0  0  0  0  0  0  0  0
   20.2517  -21.3072  -12.5781 O   0  0  0  0  0  0  0  0  0  0  0  0
   21.1442  -19.5839  -13.7405 O   0  0  0  0  0  0  0  0  0  0  0  0
  2  1  1  1
  2  3  1  0
  3  4  1  0
  4  9  1  0
  5  4  2  0
  5  6  1  0
  6  7  2  0
  7  8  1  0
  9  8  2  0
 10  2  1  0
 10 19  1  0
 11 10  2  0
 12 13  1  0
 13 14  2  0
 14 15  1  0
 16 17  1  0
 16 15  2  0
 18 17  1  6
 18 19  1  0
 18 20  1  0
 20 32  1  0
 21 20  2  0
 22 16  1  0
 23 22  2  0
 23 13  1  0
 25 24  1  0
 25 26  2  0
 27 25  1  0
 28 27  1  0
 29 28  1  0
 30 29  1  0
 31 30  1  1
 31 33  1  0
 32 31  1  0
 33 34  1  0
 35 33  2  0
M  END
$$$$
