YAD.pdb
     RDKit          3D

 26 26  0  0  1  0  0  0  0  0999 V2000
    7.3634  -12.5751   28.8103 O   0  0  0  0  0  0  0  0  0  0  0  0
    7.0942  -12.9876   27.5086 C   0  0  0  0  0  0  0  0  0  0  0  0
    7.1530  -12.1303   26.4307 C   0  0  0  0  0  0  0  0  0  0  0  0
    6.8850  -12.5466   25.1449 C   0  0  0  0  0  0  0  0  0  0  0  0
    6.5407  -13.8694   24.8920 C   0  0  0  0  0  0  0  0  0  0  0  0
    6.2484  -14.3541   23.5433 C   0  0  0  0  0  0  0  0  0  0  0  0
    7.3903  -15.1537   22.9538 C   0  0  2  0  0  0  0  0  0  0  0  0
    8.6438  -14.7789   23.5910 N   0  0  0  0  0  0  0  0  0  0  0  0
    7.5242  -14.9152   21.5096 C   0  0  0  0  0  0  0  0  0  0  0  0
    6.6348  -15.2530   20.6861 O   0  0  0  0  0  0  0  0  0  0  0  0
    6.4774  -14.7406   25.9596 C   0  0  0  0  0  0  0  0  0  0  0  0
    6.7483  -14.3092   27.2404 C   0  0  0  0  0  0  0  0  0  0  0  0
    8.6629  -12.6951   19.0899 C   0  0  0  0  0  0  0  0  0  0  0  0
    8.8646  -14.1370   19.5428 C   0  0  2  0  0  0  0  0  0  0  0  0
    8.6885  -14.2779   20.9571 N   0  0  0  0  0  0  0  0  0  0  0  0
   10.1789  -14.6082   19.0694 C   0  0  0  0  0  0  0  0  0  0  0  0
   11.0132  -13.8831   18.4675 O   0  0  0  0  0  0  0  0  0  0  0  0
   10.5248  -15.9773   19.3111 N   0  0  0  0  0  0  0  0  0  0  0  0
   11.7577  -16.5569   18.8516 C   0  0  1  0  0  0  0  0  0  0  0  0
   12.4706  -17.3646   19.9132 C   0  0  0  0  0  0  0  0  0  0  0  0
   12.8301  -16.5550   21.0904 C   0  0  0  0  0  0  0  0  0  0  0  0
   12.6672  -16.8838   22.2854 O   0  0  0  0  0  0  0  0  0  0  0  0
   11.5149  -17.4791   17.7066 C   0  0  0  0  0  0  0  0  0  0  0  0
   12.5872  -18.0819   17.0782 O   0  0  0  0  0  0  0  0  0  0  0  0
   13.4090  -15.2978   20.8783 O   0  0  0  0  0  0  0  0  0  0  0  0
   10.3635  -17.7377   17.2798 O   0  0  0  0  0  0  0  0  0  0  0  0
  2  3  2  0
  2  1  1  0
  4  3  1  0
  5  4  2  0
  6  5  1  0
  7  6  1  0
  7  9  1  0
  7  8  1  1
  9 15  1  0
  9 10  2  0
 11  5  1  0
 11 12  2  0
 12  2  1  0
 14 13  1  1
 15 14  1  0
 16 14  1  0
 16 17  2  0
 18 16  1  0
 19 18  1  0
 20 21  1  0
 19 20  1  1
 21 22  2  0
 23 19  1  0
 24 23  1  0
 25 21  1  0
 26 23  2  0
M  END
$$$$
