YAD.pdb
     RDKit          3D

 26 26  0  0  1  0  0  0  0  0999 V2000
    5.3327  -10.4568   27.2697 O   0  0  0  0  0  0  0  0  0  0  0  0
    6.0602  -11.5370   26.7789 C   0  0  0  0  0  0  0  0  0  0  0  0
    6.8966  -11.4349   25.6880 C   0  0  0  0  0  0  0  0  0  0  0  0
    7.6136  -12.5092   25.2082 C   0  0  0  0  0  0  0  0  0  0  0  0
    7.5124  -13.7521   25.8224 C   0  0  0  0  0  0  0  0  0  0  0  0
    8.2551  -14.9190   25.3467 C   0  0  0  0  0  0  0  0  0  0  0  0
    7.4728  -15.7334   24.3387 C   0  0  2  0  0  0  0  0  0  0  0  0
    6.3574  -16.4005   24.9933 N   0  0  0  0  0  0  0  0  0  0  0  0
    8.3137  -16.7621   23.7102 C   0  0  0  0  0  0  0  0  0  0  0  0
    8.3979  -17.9326   24.1642 O   0  0  0  0  0  0  0  0  0  0  0  0
    6.6796  -13.8716   26.9156 C   0  0  0  0  0  0  0  0  0  0  0  0
    5.9687  -12.7875   27.3839 C   0  0  0  0  0  0  0  0  0  0  0  0
   10.1081  -17.1535   20.4102 C   0  0  0  0  0  0  0  0  0  0  0  0
    9.8370  -17.5083   21.8681 C   0  0  2  0  0  0  0  0  0  0  0  0
    9.0909  -16.4827   22.5334 N   0  0  0  0  0  0  0  0  0  0  0  0
   11.1163  -17.8211   22.5307 C   0  0  0  0  0  0  0  0  0  0  0  0
   11.8621  -18.7818   22.2066 O   0  0  0  0  0  0  0  0  0  0  0  0
   11.5337  -16.9770   23.6105 N   0  0  0  0  0  0  0  0  0  0  0  0
   12.6416  -17.3054   24.4659 C   0  0  1  0  0  0  0  0  0  0  0  0
   13.7475  -16.2740   24.4338 C   0  0  0  0  0  0  0  0  0  0  0  0
   14.4640  -16.2561   23.1466 C   0  0  0  0  0  0  0  0  0  0  0  0
   14.2232  -16.9875   22.1619 O   0  0  0  0  0  0  0  0  0  0  0  0
   12.2010  -17.4129   25.8853 C   0  0  0  0  0  0  0  0  0  0  0  0
   13.0105  -18.0533   26.8032 O   0  0  0  0  0  0  0  0  0  0  0  0
   15.5152  -15.3452   22.9860 O   0  0  0  0  0  0  0  0  0  0  0  0
   11.1115  -16.9414   26.2921 O   0  0  0  0  0  0  0  0  0  0  0  0
  2  3  2  0
  2  1  1  0
  4  3  1  0
  5  4  2  0
  6  5  1  0
  7  6  1  0
  7  9  1  0
  7  8  1  1
  9 15  1  0
  9 10  2  0
 11  5  1  0
 11 12  2  0
 12  2  1  0
 14 13  1  6
 15 14  1  0
 16 14  1  0
 16 17  2  0
 18 16  1  0
 19 18  1  0
 20 21  1  0
 19 20  1  1
 21 22  2  0
 23 19  1  0
 24 23  1  0
 25 21  1  0
 26 23  2  0
M  END
$$$$
