YAD.pdb
     RDKit          3D

 26 26  0  0  1  0  0  0  0  0999 V2000
   10.4711  -14.2163   30.8588 O   0  0  0  0  0  0  0  0  0  0  0  0
   10.2362  -14.5192   29.5209 C   0  0  0  0  0  0  0  0  0  0  0  0
   10.6296  -15.7102   28.9489 C   0  0  0  0  0  0  0  0  0  0  0  0
   10.3933  -16.0025   27.6233 C   0  0  0  0  0  0  0  0  0  0  0  0
    9.7384  -15.0868   26.8079 C   0  0  0  0  0  0  0  0  0  0  0  0
    9.4669  -15.3557   25.3959 C   0  0  0  0  0  0  0  0  0  0  0  0
    7.9881  -15.4976   25.1061 C   0  0  2  0  0  0  0  0  0  0  0  0
    7.4433  -16.6340   25.8338 N   0  0  0  0  0  0  0  0  0  0  0  0
    7.7393  -15.7123   23.6734 C   0  0  0  0  0  0  0  0  0  0  0  0
    7.4181  -16.8358   23.2069 O   0  0  0  0  0  0  0  0  0  0  0  0
    9.3379  -13.8899   27.3645 C   0  0  0  0  0  0  0  0  0  0  0  0
    9.5815  -13.6119   28.6924 C   0  0  0  0  0  0  0  0  0  0  0  0
    7.2691  -13.5542   20.6065 C   0  0  0  0  0  0  0  0  0  0  0  0
    7.6188  -14.8531   21.3245 C   0  0  2  0  0  0  0  0  0  0  0  0
    7.8509  -14.6405   22.7216 N   0  0  0  0  0  0  0  0  0  0  0  0
    8.7558  -15.4901   20.6352 C   0  0  0  0  0  0  0  0  0  0  0  0
    8.7354  -15.8560   19.4311 O   0  0  0  0  0  0  0  0  0  0  0  0
    9.9572  -15.7046   21.3857 N   0  0  0  0  0  0  0  0  0  0  0  0
   11.0833  -16.4238   20.8549 C   0  0  1  0  0  0  0  0  0  0  0  0
   12.3315  -15.5777   20.7380 C   0  0  0  0  0  0  0  0  0  0  0  0
   12.5731  -15.1174   19.3595 C   0  0  0  0  0  0  0  0  0  0  0  0
   11.8470  -15.3518   18.3692 O   0  0  0  0  0  0  0  0  0  0  0  0
   11.4328  -17.5796   21.7282 C   0  0  0  0  0  0  0  0  0  0  0  0
   12.0723  -18.6761   21.1834 O   0  0  0  0  0  0  0  0  0  0  0  0
   13.7138  -14.3450   19.1091 O   0  0  0  0  0  0  0  0  0  0  0  0
   11.1690  -17.6036   22.9548 O   0  0  0  0  0  0  0  0  0  0  0  0
  2  3  2  0
  2  1  1  0
  4  3  1  0
  5  4  2  0
  6  5  1  0
  7  6  1  0
  7  9  1  0
  7  8  1  1
  9 15  1  0
  9 10  2  0
 11  5  1  0
 11 12  2  0
 12  2  1  0
 14 13  1  6
 15 14  1  0
 16 14  1  0
 16 17  2  0
 18 16  1  0
 19 18  1  0
 20 21  1  0
 19 20  1  1
 21 22  2  0
 23 19  1  0
 24 23  1  0
 25 21  1  0
 26 23  2  0
M  END
$$$$
