YAD.pdb
     RDKit          3D

 26 26  0  0  1  0  0  0  0  0999 V2000
    8.5985  -12.1110   17.8172 O   0  0  0  0  0  0  0  0  0  0  0  0
    8.2082  -12.7118   19.0104 C   0  0  0  0  0  0  0  0  0  0  0  0
    8.6215  -12.2530   20.2429 C   0  0  0  0  0  0  0  0  0  0  0  0
    8.2305  -12.8535   21.4197 C   0  0  0  0  0  0  0  0  0  0  0  0
    7.3913  -13.9614   21.3982 C   0  0  0  0  0  0  0  0  0  0  0  0
    6.9516  -14.6297   22.6228 C   0  0  0  0  0  0  0  0  0  0  0  0
    8.0411  -15.4764   23.2451 C   0  0  2  0  0  0  0  0  0  0  0  0
    8.6918  -16.2828   22.2234 N   0  0  0  0  0  0  0  0  0  0  0  0
    7.4990  -16.3846   24.2657 C   0  0  0  0  0  0  0  0  0  0  0  0
    6.8047  -15.9744   25.2316 O   0  0  0  0  0  0  0  0  0  0  0  0
    6.9684  -14.4334   20.1729 C   0  0  0  0  0  0  0  0  0  0  0  0
    7.3681  -13.8219   19.0041 C   0  0  0  0  0  0  0  0  0  0  0  0
    6.5740  -19.9211   24.6034 C   0  0  0  0  0  0  0  0  0  0  0  0
    7.2203  -18.6841   25.2173 C   0  0  2  0  0  0  0  0  0  0  0  0
    7.7355  -17.8018   24.2136 N   0  0  0  0  0  0  0  0  0  0  0  0
    8.2373  -19.1108   26.1957 C   0  0  0  0  0  0  0  0  0  0  0  0
    8.0181  -19.9222   27.1324 O   0  0  0  0  0  0  0  0  0  0  0  0
    9.5563  -18.5659   26.0694 N   0  0  0  0  0  0  0  0  0  0  0  0
   10.6419  -18.9602   26.9257 C   0  0  1  0  0  0  0  0  0  0  0  0
   11.9951  -18.5121   26.4198 C   0  0  0  0  0  0  0  0  0  0  0  0
   12.1645  -18.7518   24.9761 C   0  0  0  0  0  0  0  0  0  0  0  0
   11.8645  -19.8007   24.3657 O   0  0  0  0  0  0  0  0  0  0  0  0
   10.4816  -18.3759   28.2871 C   0  0  0  0  0  0  0  0  0  0  0  0
    9.5554  -17.3720   28.4927 O   0  0  0  0  0  0  0  0  0  0  0  0
   12.7094  -17.7265   24.1936 O   0  0  0  0  0  0  0  0  0  0  0  0
   11.1595  -18.7595   29.2710 O   0  0  0  0  0  0  0  0  0  0  0  0
  2  3  2  0
  2  1  1  0
  4  3  1  0
  5  4  2  0
  6  5  1  0
  7  6  1  0
  7  9  1  0
  7  8  1  6
  9 15  1  0
  9 10  2  0
 11  5  1  0
 11 12  2  0
 12  2  1  0
 14 13  1  6
 15 14  1  0
 16 14  1  0
 16 17  2  0
 18 16  1  0
 19 18  1  0
 20 21  1  0
 19 20  1  6
 21 22  2  0
 23 19  1  0
 24 23  1  0
 25 21  1  0
 26 23  2  0
M  END
$$$$
