YAD.pdb
     RDKit          3D

 26 26  0  0  1  0  0  0  0  0999 V2000
    5.7206  -10.6941   27.8099 O   0  0  0  0  0  0  0  0  0  0  0  0
    6.4057  -11.6756   27.0997 C   0  0  0  0  0  0  0  0  0  0  0  0
    7.6358  -12.1560   27.4951 C   0  0  0  0  0  0  0  0  0  0  0  0
    8.3077  -13.1280   26.7864 C   0  0  0  0  0  0  0  0  0  0  0  0
    7.7539  -13.6631   25.6291 C   0  0  0  0  0  0  0  0  0  0  0  0
    8.4321  -14.6960   24.8463 C   0  0  0  0  0  0  0  0  0  0  0  0
    7.5484  -15.8955   24.5791 C   0  0  2  0  0  0  0  0  0  0  0  0
    7.1366  -16.5023   25.8361 N   0  0  0  0  0  0  0  0  0  0  0  0
    8.2520  -16.9161   23.7893 C   0  0  0  0  0  0  0  0  0  0  0  0
    8.6521  -17.9983   24.2913 O   0  0  0  0  0  0  0  0  0  0  0  0
    6.5233  -13.1933   25.2194 C   0  0  0  0  0  0  0  0  0  0  0  0
    5.8633  -12.2205   25.9391 C   0  0  0  0  0  0  0  0  0  0  0  0
    8.7319  -17.6543   20.1326 C   0  0  0  0  0  0  0  0  0  0  0  0
    9.1290  -17.7600   21.6009 C   0  0  2  0  0  0  0  0  0  0  0  0
    8.5224  -16.7299   22.3896 N   0  0  0  0  0  0  0  0  0  0  0  0
   10.5999  -17.7791   21.6990 C   0  0  0  0  0  0  0  0  0  0  0  0
   11.3292  -18.6703   21.1910 O   0  0  0  0  0  0  0  0  0  0  0  0
   11.2357  -16.7154   22.4180 N   0  0  0  0  0  0  0  0  0  0  0  0
   12.6570  -16.6649   22.6288 C   0  0  1  0  0  0  0  0  0  0  0  0
   13.3088  -15.4449   22.0168 C   0  0  0  0  0  0  0  0  0  0  0  0
   13.7422  -15.6748   20.6277 C   0  0  0  0  0  0  0  0  0  0  0  0
   13.5866  -16.7294   19.9748 O   0  0  0  0  0  0  0  0  0  0  0  0
   12.9757  -16.6329   24.0841 C   0  0  0  0  0  0  0  0  0  0  0  0
   11.9507  -16.5246   25.0037 O   0  0  0  0  0  0  0  0  0  0  0  0
   14.3905  -14.6320   19.9546 O   0  0  0  0  0  0  0  0  0  0  0  0
   14.1505  -16.7008   24.5200 O   0  0  0  0  0  0  0  0  0  0  0  0
  2  3  2  0
  2  1  1  0
  4  3  1  0
  5  4  2  0
  6  5  1  0
  7  6  1  0
  7  9  1  0
  7  8  1  1
  9 15  1  0
  9 10  2  0
 11  5  1  0
 11 12  2  0
 12  2  1  0
 14 13  1  6
 15 14  1  0
 16 14  1  0
 16 17  2  0
 18 16  1  0
 19 18  1  0
 20 21  1  0
 19 20  1  6
 21 22  2  0
 23 19  1  0
 24 23  1  0
 25 21  1  0
 26 23  2  0
M  END
$$$$
