TSQ.pdb
     RDKit          3D

 23 22  0  0  1  0  0  0  0  0999 V2000
   16.9876  -13.0238  -15.1628 C   0  0  0  0  0  0  0  0  0  0  0  0
   18.0363  -13.5451  -16.1560 C   0  0  1  0  0  0  0  0  0  0  0  0
   17.5391  -14.5782  -16.8998 O   0  0  0  0  0  0  0  0  0  0  0  0
   18.4862  -12.3491  -16.9556 C   0  0  2  0  0  0  0  0  0  0  0  0
   19.2815  -12.7832  -18.1115 N   0  0  0  0  0  0  0  0  0  0  0  0
   19.1852  -11.3327  -16.1704 C   0  0  0  0  0  0  0  0  0  0  0  0
   18.5257  -10.8276  -15.1915 O   0  0  0  0  0  0  0  0  0  0  0  0
   23.1909   -8.9130  -15.0064 O   0  0  0  0  0  0  0  0  0  0  0  0
   22.5819   -9.9138  -15.7556 C   0  0  0  0  0  0  0  0  0  0  0  0
   21.0546   -9.8014  -15.6893 C   0  0  2  0  0  0  0  0  0  0  0  0
   20.5104  -10.9086  -16.4463 N   0  0  0  0  0  0  0  0  0  0  0  0
   20.6253   -8.5012  -16.2284 C   0  0  0  0  0  0  0  0  0  0  0  0
   20.4807   -8.3768  -17.4736 O   0  0  0  0  0  0  0  0  0  0  0  0
   15.8083   -6.0261  -16.1104 N   0  0  0  0  0  0  0  0  0  0  0  0
   16.4382   -4.8151  -16.4688 C   0  0  0  0  0  0  0  0  0  0  0  0
   15.7535   -3.8172  -16.7724 O   0  0  0  0  0  0  0  0  0  0  0  0
   17.9281   -4.7398  -16.4813 C   0  0  0  0  0  0  0  0  0  0  0  0
   18.4992   -6.0543  -16.0451 C   0  0  0  0  0  0  0  0  0  0  0  0
   19.9930   -6.1040  -16.0097 C   0  0  2  0  0  0  0  0  0  0  0  0
   20.3651   -7.3775  -15.4080 N   0  0  0  0  0  0  0  0  0  0  0  0
   20.5886   -5.0099  -15.2297 C   0  0  0  0  0  0  0  0  0  0  0  0
   20.8421   -3.7840  -15.8163 O   0  0  0  0  0  0  0  0  0  0  0  0
   20.8799   -5.1600  -14.0205 O   0  0  0  0  0  0  0  0  0  0  0  0
  2  1  1  1
  2  4  1  0
  3  2  1  0
  4  5  1  6
  6  4  1  0
  6 11  1  0
  7  6  2  0
  8  9  1  0
 10  9  1  6
 10 11  1  0
 10 12  1  0
 12 20  1  0
 13 12  2  0
 15 17  1  0
 15 14  1  0
 16 15  2  0
 18 17  1  0
 19 18  1  1
 20 19  1  0
 21 19  1  0
 21 22  1  0
 23 21  2  0
M  END
$$$$
