TSQ.pdb
     RDKit          3D

 23 22  0  0  1  0  0  0  0  0999 V2000
   14.4224   -6.0497  -11.3794 C   0  0  0  0  0  0  0  0  0  0  0  0
   14.7096   -5.8249   -9.8877 C   0  0  1  0  0  0  0  0  0  0  0  0
   13.5799   -5.4412   -9.2213 O   0  0  0  0  0  0  0  0  0  0  0  0
   15.3380   -7.0997   -9.3859 C   0  0  2  0  0  0  0  0  0  0  0  0
   15.5486   -7.0230   -7.9344 N   0  0  0  0  0  0  0  0  0  0  0  0
   16.5617   -7.4813  -10.0896 C   0  0  0  0  0  0  0  0  0  0  0  0
   17.5893   -6.7437   -9.8694 O   0  0  0  0  0  0  0  0  0  0  0  0
   16.6744  -10.3537  -13.0372 O   0  0  0  0  0  0  0  0  0  0  0  0
   17.7869  -10.3005  -12.2047 C   0  0  0  0  0  0  0  0  0  0  0  0
   17.9246   -8.9193  -11.5544 C   0  0  2  0  0  0  0  0  0  0  0  0
   16.6424   -8.5923  -10.9678 N   0  0  0  0  0  0  0  0  0  0  0  0
   18.3372   -7.9307  -12.5634 C   0  0  0  0  0  0  0  0  0  0  0  0
   17.4490   -7.3054  -13.2012 O   0  0  0  0  0  0  0  0  0  0  0  0
   20.0107   -2.8763  -12.3678 N   0  0  0  0  0  0  0  0  0  0  0  0
   20.5033   -2.9813  -13.6861 C   0  0  0  0  0  0  0  0  0  0  0  0
   20.8938   -1.9637  -14.2933 O   0  0  0  0  0  0  0  0  0  0  0  0
   20.5524   -4.3186  -14.3456 C   0  0  0  0  0  0  0  0  0  0  0  0
   20.0652   -5.3654  -13.3912 C   0  0  0  0  0  0  0  0  0  0  0  0
   20.0362   -6.7523  -13.9487 C   0  0  2  0  0  0  0  0  0  0  0  0
   19.6938   -7.6478  -12.8518 N   0  0  0  0  0  0  0  0  0  0  0  0
   21.3214   -7.1686  -14.5277 C   0  0  0  0  0  0  0  0  0  0  0  0
   21.7128   -6.7135  -15.7730 O   0  0  0  0  0  0  0  0  0  0  0  0
   22.0900   -7.9420  -13.9107 O   0  0  0  0  0  0  0  0  0  0  0  0
  2  1  1  6
  2  4  1  0
  3  2  1  0
  4  5  1  1
  6  4  1  0
  6 11  1  0
  7  6  2  0
  8  9  1  0
 10  9  1  6
 10 11  1  0
 10 12  1  0
 12 20  1  0
 13 12  2  0
 15 17  1  0
 15 14  1  0
 16 15  2  0
 18 17  1  0
 19 18  1  1
 20 19  1  0
 21 19  1  0
 21 22  1  0
 23 21  2  0
M  END
$$$$
