TSQ.pdb
     RDKit          3D

 23 22  0  0  1  0  0  0  0  0999 V2000
   24.8630  -12.2813  -15.0391 C   0  0  0  0  0  0  0  0  0  0  0  0
   24.7091  -12.7618  -16.4895 C   0  0  1  0  0  0  0  0  0  0  0  0
   25.4368  -13.8970  -16.7118 O   0  0  0  0  0  0  0  0  0  0  0  0
   23.2276  -12.9031  -16.7285 C   0  0  2  0  0  0  0  0  0  0  0  0
   22.9822  -13.4895  -18.0524 N   0  0  0  0  0  0  0  0  0  0  0  0
   22.4697  -11.6674  -16.5364 C   0  0  0  0  0  0  0  0  0  0  0  0
   22.6073  -10.7764  -17.4506 O   0  0  0  0  0  0  0  0  0  0  0  0
   18.9111   -9.2713  -14.3311 O   0  0  0  0  0  0  0  0  0  0  0  0
   19.7141  -10.4046  -14.3997 C   0  0  0  0  0  0  0  0  0  0  0  0
   20.8955  -10.1876  -15.3521 C   0  0  2  0  0  0  0  0  0  0  0  0
   21.6254  -11.4356  -15.4204 N   0  0  0  0  0  0  0  0  0  0  0  0
   21.7361   -9.0836  -14.8621 C   0  0  0  0  0  0  0  0  0  0  0  0
   22.7217   -9.3505  -14.1246 O   0  0  0  0  0  0  0  0  0  0  0  0
   24.9832   -5.8914  -17.9213 N   0  0  0  0  0  0  0  0  0  0  0  0
   25.1427   -5.0503  -16.7993 C   0  0  0  0  0  0  0  0  0  0  0  0
   26.0076   -4.1510  -16.8070 O   0  0  0  0  0  0  0  0  0  0  0  0
   24.2689   -5.2465  -15.6062 C   0  0  0  0  0  0  0  0  0  0  0  0
   23.3009   -6.3584  -15.8724 C   0  0  0  0  0  0  0  0  0  0  0  0
   22.4005   -6.6889  -14.7256 C   0  0  2  0  0  0  0  0  0  0  0  0
   21.4874   -7.7276  -15.1834 N   0  0  0  0  0  0  0  0  0  0  0  0
   21.6211   -5.5360  -14.2527 C   0  0  0  0  0  0  0  0  0  0  0  0
   22.1671   -4.6376  -13.3550 O   0  0  0  0  0  0  0  0  0  0  0  0
   20.4489   -5.3397  -14.6490 O   0  0  0  0  0  0  0  0  0  0  0  0
  2  1  1  1
  2  4  1  0
  3  2  1  0
  4  5  1  6
  6  4  1  0
  6 11  1  0
  7  6  2  0
  8  9  1  0
 10  9  1  1
 10 11  1  0
 10 12  1  0
 12 20  1  0
 13 12  2  0
 15 17  1  0
 15 14  1  0
 16 15  2  0
 18 17  1  0
 19 18  1  6
 20 19  1  0
 21 19  1  0
 21 22  1  0
 23 21  2  0
M  END
$$$$
