TSQ.pdb
     RDKit          3D

 23 22  0  0  1  0  0  0  0  0999 V2000
   24.2308  -13.9878  -18.0557 C   0  0  0  0  0  0  0  0  0  0  0  0
   23.1032  -12.9615  -17.8728 C   0  0  1  0  0  0  0  0  0  0  0  0
   21.9327  -13.5735  -17.5220 O   0  0  0  0  0  0  0  0  0  0  0  0
   23.6133  -11.9528  -16.8757 C   0  0  2  0  0  0  0  0  0  0  0  0
   23.9656  -12.6201  -15.6158 N   0  0  0  0  0  0  0  0  0  0  0  0
   22.7131  -10.8219  -16.6544 C   0  0  0  0  0  0  0  0  0  0  0  0
   22.7215   -9.9119  -17.5601 O   0  0  0  0  0  0  0  0  0  0  0  0
   19.0185   -8.8542  -14.2226 O   0  0  0  0  0  0  0  0  0  0  0  0
   19.9090   -9.9091  -14.3893 C   0  0  0  0  0  0  0  0  0  0  0  0
   20.9805   -9.5680  -15.4310 C   0  0  2  0  0  0  0  0  0  0  0  0
   21.8693  -10.7069  -15.5200 N   0  0  0  0  0  0  0  0  0  0  0  0
   21.6924   -8.3431  -15.0331 C   0  0  0  0  0  0  0  0  0  0  0  0
   22.6715   -8.4369  -14.2462 O   0  0  0  0  0  0  0  0  0  0  0  0
   21.3182   -2.8937  -17.8955 N   0  0  0  0  0  0  0  0  0  0  0  0
   22.0910   -2.4888  -16.7862 C   0  0  0  0  0  0  0  0  0  0  0  0
   22.4485   -1.2989  -16.6710 O   0  0  0  0  0  0  0  0  0  0  0  0
   22.4758   -3.4953  -15.7545 C   0  0  0  0  0  0  0  0  0  0  0  0
   21.8349   -4.8108  -16.0754 C   0  0  0  0  0  0  0  0  0  0  0  0
   22.0721   -5.8836  -15.0615 C   0  0  2  0  0  0  0  0  0  0  0  0
   21.3262   -7.0568  -15.4967 N   0  0  0  0  0  0  0  0  0  0  0  0
   21.6336   -5.5076  -13.7099 C   0  0  0  0  0  0  0  0  0  0  0  0
   20.3148   -5.6676  -13.3277 O   0  0  0  0  0  0  0  0  0  0  0  0
   22.4396   -5.0352  -12.8751 O   0  0  0  0  0  0  0  0  0  0  0  0
  2  1  1  1
  2  4  1  0
  3  2  1  0
  4  5  1  1
  6  4  1  0
  6 11  1  0
  7  6  2  0
  8  9  1  0
 10  9  1  1
 10 11  1  0
 10 12  1  0
 12 20  1  0
 13 12  2  0
 15 17  1  0
 15 14  1  0
 16 15  2  0
 18 17  1  0
 19 18  1  6
 20 19  1  0
 21 19  1  0
 21 22  1  0
 23 21  2  0
M  END
$$$$
