TSQ.pdb
     RDKit          3D

 23 22  0  0  1  0  0  0  0  0999 V2000
   18.6066  -10.2332  -18.7618 C   0  0  0  0  0  0  0  0  0  0  0  0
   17.6629  -10.9816  -17.8092 C   0  0  1  0  0  0  0  0  0  0  0  0
   16.6748  -11.6250  -18.5001 O   0  0  0  0  0  0  0  0  0  0  0  0
   18.5383  -11.8797  -16.9732 C   0  0  2  0  0  0  0  0  0  0  0  0
   17.7099  -12.7770  -16.1572 N   0  0  0  0  0  0  0  0  0  0  0  0
   19.5241  -11.1677  -16.1612 C   0  0  0  0  0  0  0  0  0  0  0  0
   19.0502  -10.3595  -15.2833 O   0  0  0  0  0  0  0  0  0  0  0  0
   24.1371  -10.4907  -14.8270 O   0  0  0  0  0  0  0  0  0  0  0  0
   23.1941  -11.2261  -15.5368 C   0  0  0  0  0  0  0  0  0  0  0  0
   21.8079  -10.5778  -15.4489 C   0  0  2  0  0  0  0  0  0  0  0  0
   20.9248  -11.3369  -16.3085 N   0  0  0  0  0  0  0  0  0  0  0  0
   21.8903   -9.1652  -15.8530 C   0  0  0  0  0  0  0  0  0  0  0  0
   21.9388   -8.8854  -17.0802 O   0  0  0  0  0  0  0  0  0  0  0  0
   18.7831   -5.1988  -17.5059 N   0  0  0  0  0  0  0  0  0  0  0  0
   18.4755   -5.6066  -16.1903 C   0  0  0  0  0  0  0  0  0  0  0  0
   17.3287   -5.4320  -15.7309 O   0  0  0  0  0  0  0  0  0  0  0  0
   19.5330   -6.2474  -15.3556 C   0  0  0  0  0  0  0  0  0  0  0  0
   20.7688   -6.4453  -16.1789 C   0  0  0  0  0  0  0  0  0  0  0  0
   22.0068   -6.7230  -15.3881 C   0  0  2  0  0  0  0  0  0  0  0  0
   21.9171   -8.1000  -14.9212 N   0  0  0  0  0  0  0  0  0  0  0  0
   22.1648   -5.8308  -14.2308 C   0  0  0  0  0  0  0  0  0  0  0  0
   22.0285   -6.3165  -12.9438 O   0  0  0  0  0  0  0  0  0  0  0  0
   22.4254   -4.6146  -14.3810 O   0  0  0  0  0  0  0  0  0  0  0  0
  2  1  1  6
  2  4  1  0
  3  2  1  0
  4  5  1  1
  6  4  1  0
  6 11  1  0
  7  6  2  0
  8  9  1  0
 10  9  1  6
 10 11  1  0
 10 12  1  0
 12 20  1  0
 13 12  2  0
 15 17  1  0
 15 14  1  0
 16 15  2  0
 18 17  1  0
 19 18  1  1
 20 19  1  0
 21 19  1  0
 21 22  1  0
 23 21  2  0
M  END
$$$$
