TSQ.pdb
     RDKit          3D

 23 22  0  0  1  0  0  0  0  0999 V2000
   17.7287   -8.6731  -17.9969 C   0  0  0  0  0  0  0  0  0  0  0  0
   16.8891   -9.6341  -17.1425 C   0  0  1  0  0  0  0  0  0  0  0  0
   16.0648  -10.3947  -17.9233 O   0  0  0  0  0  0  0  0  0  0  0  0
   17.8699  -10.4173  -16.3078 C   0  0  2  0  0  0  0  0  0  0  0  0
   17.1662  -11.4495  -15.5356 N   0  0  0  0  0  0  0  0  0  0  0  0
   18.7225   -9.5915  -15.4538 C   0  0  0  0  0  0  0  0  0  0  0  0
   18.1569   -9.0831  -14.4193 O   0  0  0  0  0  0  0  0  0  0  0  0
   23.0398   -8.4463  -13.7861 O   0  0  0  0  0  0  0  0  0  0  0  0
   22.2378   -9.1721  -14.6599 C   0  0  0  0  0  0  0  0  0  0  0  0
   20.8486   -8.5375  -14.7907 C   0  0  2  0  0  0  0  0  0  0  0  0
   20.0937   -9.3476  -15.7229 N   0  0  0  0  0  0  0  0  0  0  0  0
   20.9763   -7.1449  -15.2487 C   0  0  0  0  0  0  0  0  0  0  0  0
   21.2405   -6.9249  -16.4606 O   0  0  0  0  0  0  0  0  0  0  0  0
   17.0442   -4.2016  -14.0675 N   0  0  0  0  0  0  0  0  0  0  0  0
   17.3183   -4.2741  -15.4500 C   0  0  0  0  0  0  0  0  0  0  0  0
   16.3900   -4.4456  -16.2659 O   0  0  0  0  0  0  0  0  0  0  0  0
   18.7263   -4.1441  -15.9257 C   0  0  0  0  0  0  0  0  0  0  0  0
   19.6412   -4.0023  -14.7481 C   0  0  0  0  0  0  0  0  0  0  0  0
   20.9647   -4.6804  -14.9017 C   0  0  2  0  0  0  0  0  0  0  0  0
   20.8146   -6.0345  -14.3859 N   0  0  0  0  0  0  0  0  0  0  0  0
   22.0477   -4.0043  -14.1734 C   0  0  0  0  0  0  0  0  0  0  0  0
   22.4532   -2.7333  -14.5355 O   0  0  0  0  0  0  0  0  0  0  0  0
   22.6272   -4.5599  -13.2115 O   0  0  0  0  0  0  0  0  0  0  0  0
  2  1  1  6
  2  4  1  0
  3  2  1  0
  4  5  1  1
  6  4  1  0
  6 11  1  0
  7  6  2  0
  8  9  1  0
 10  9  1  6
 10 11  1  0
 10 12  1  0
 12 20  1  0
 13 12  2  0
 15 17  1  0
 15 14  1  0
 16 15  2  0
 18 17  1  0
 19 18  1  1
 20 19  1  0
 21 19  1  0
 21 22  1  0
 23 21  2  0
M  END
$$$$
