TSQ.pdb
     RDKit          3D

 23 22  0  0  1  0  0  0  0  0999 V2000
   19.8812   -9.8957  -21.2252 C   0  0  0  0  0  0  0  0  0  0  0  0
   19.2877  -10.5755  -19.9826 C   0  0  1  0  0  0  0  0  0  0  0  0
   18.6514  -11.7385  -20.3144 O   0  0  0  0  0  0  0  0  0  0  0  0
   20.4266  -10.7333  -19.0079 C   0  0  2  0  0  0  0  0  0  0  0  0
   20.6083  -12.1502  -18.6671 N   0  0  0  0  0  0  0  0  0  0  0  0
   20.3103   -9.9008  -17.8114 C   0  0  0  0  0  0  0  0  0  0  0  0
   19.6546   -8.8057  -17.9509 O   0  0  0  0  0  0  0  0  0  0  0  0
   20.1221  -11.1365  -13.8616 O   0  0  0  0  0  0  0  0  0  0  0  0
   21.0547  -10.1515  -14.1678 C   0  0  0  0  0  0  0  0  0  0  0  0
   20.6479   -9.3783  -15.4274 C   0  0  2  0  0  0  0  0  0  0  0  0
   20.8748  -10.2524  -16.5585 N   0  0  0  0  0  0  0  0  0  0  0  0
   21.4302   -8.1357  -15.5254 C   0  0  0  0  0  0  0  0  0  0  0  0
   22.3291   -8.0505  -16.4037 O   0  0  0  0  0  0  0  0  0  0  0  0
   20.8423   -4.3624  -18.6572 N   0  0  0  0  0  0  0  0  0  0  0  0
   21.6958   -3.5111  -17.9234 C   0  0  0  0  0  0  0  0  0  0  0  0
   22.0389   -2.4080  -18.3949 O   0  0  0  0  0  0  0  0  0  0  0  0
   22.1831   -3.9420  -16.5808 C   0  0  0  0  0  0  0  0  0  0  0  0
   21.5584   -5.2547  -16.2195 C   0  0  0  0  0  0  0  0  0  0  0  0
   21.9626   -5.7908  -14.8836 C   0  0  2  0  0  0  0  0  0  0  0  0
   21.2177   -7.0250  -14.6741 N   0  0  0  0  0  0  0  0  0  0  0  0
   21.6790   -4.8630  -13.7795 C   0  0  0  0  0  0  0  0  0  0  0  0
   22.4874   -3.7635  -13.5586 O   0  0  0  0  0  0  0  0  0  0  0  0
   20.7030   -5.0444  -13.0152 O   0  0  0  0  0  0  0  0  0  0  0  0
  2  1  1  6
  2  4  1  0
  3  2  1  0
  4  5  1  1
  6  4  1  0
  6 11  1  0
  7  6  2  0
  8  9  1  0
 10  9  1  1
 10 11  1  0
 10 12  1  0
 12 20  1  0
 13 12  2  0
 15 17  1  0
 15 14  1  0
 16 15  2  0
 18 17  1  0
 19 18  1  6
 20 19  1  0
 21 19  1  0
 21 22  1  0
 23 21  2  0
M  END
$$$$
