TSQ.pdb
     RDKit          3D

 23 22  0  0  1  0  0  0  0  0999 V2000
   23.5969  -13.0966  -16.5622 C   0  0  0  0  0  0  0  0  0  0  0  0
   23.2185  -11.6240  -16.3470 C   0  0  1  0  0  0  0  0  0  0  0  0
   23.9837  -10.8005  -17.1242 O   0  0  0  0  0  0  0  0  0  0  0  0
   21.7350  -11.5322  -16.5978 C   0  0  2  0  0  0  0  0  0  0  0  0
   21.4372  -11.8608  -17.9979 N   0  0  0  0  0  0  0  0  0  0  0  0
   21.1391  -10.2562  -16.2042 C   0  0  0  0  0  0  0  0  0  0  0  0
   21.0228   -9.3798  -17.1352 O   0  0  0  0  0  0  0  0  0  0  0  0
   18.2350   -9.7526  -13.5878 O   0  0  0  0  0  0  0  0  0  0  0  0
   19.2432   -8.8201  -13.3697 C   0  0  0  0  0  0  0  0  0  0  0  0
   20.1348   -8.6709  -14.6076 C   0  0  2  0  0  0  0  0  0  0  0  0
   20.7054   -9.9721  -14.8838 N   0  0  0  0  0  0  0  0  0  0  0  0
   21.1711   -7.6564  -14.3578 C   0  0  0  0  0  0  0  0  0  0  0  0
   22.3745   -8.0214  -14.2837 O   0  0  0  0  0  0  0  0  0  0  0  0
   23.9560   -5.6992  -17.8419 N   0  0  0  0  0  0  0  0  0  0  0  0
   24.4955   -4.7355  -16.9634 C   0  0  0  0  0  0  0  0  0  0  0  0
   25.5297   -4.1109  -17.2753 O   0  0  0  0  0  0  0  0  0  0  0  0
   23.8187   -4.4711  -15.6605 C   0  0  0  0  0  0  0  0  0  0  0  0
   22.6966   -5.4457  -15.4727 C   0  0  0  0  0  0  0  0  0  0  0  0
   21.9539   -5.3003  -14.1834 C   0  0  2  0  0  0  0  0  0  0  0  0
   20.8770   -6.2813  -14.1965 N   0  0  0  0  0  0  0  0  0  0  0  0
   21.3824   -3.9594  -13.9944 C   0  0  0  0  0  0  0  0  0  0  0  0
   22.1418   -2.9410  -13.4492 O   0  0  0  0  0  0  0  0  0  0  0  0
   20.1994   -3.7073  -14.3208 O   0  0  0  0  0  0  0  0  0  0  0  0
  2  1  1  6
  2  4  1  0
  3  2  1  0
  4  5  1  6
  6  4  1  0
  6 11  1  0
  7  6  2  0
  8  9  1  0
 10  9  1  1
 10 11  1  0
 10 12  1  0
 12 20  1  0
 13 12  2  0
 15 17  1  0
 15 14  1  0
 16 15  2  0
 18 17  1  0
 19 18  1  6
 20 19  1  0
 21 19  1  0
 21 22  1  0
 23 21  2  0
M  END
$$$$
