TMD.pdb
     RDKit          3D

 24 23  0  0  1  0  0  0  0  0999 V2000
    7.3780  -16.2545   19.3218 C   0  0  0  0  0  0  0  0  0  0  0  0
    7.9617  -14.9593   18.8882 C   0  0  1  0  0  0  0  0  0  0  0  0
    7.5409  -14.6777   17.5911 O   0  0  0  0  0  0  0  0  0  0  0  0
    7.5956  -13.7686   19.7504 C   0  0  2  0  0  0  0  0  0  0  0  0
    8.1921  -12.6200   19.0592 N   0  0  0  0  0  0  0  0  0  0  0  0
    8.0656  -13.9041   21.1398 C   0  0  0  0  0  0  0  0  0  0  0  0
    9.3166  -13.9336   21.3613 O   0  0  0  0  0  0  0  0  0  0  0  0
    6.2900  -11.3464   27.0087 C   0  0  0  0  0  0  0  0  0  0  0  0
    7.7471  -12.3873   26.7027 S   0  0  0  0  0  0  0  0  0  0  0  0
    7.1638  -14.0067   26.0752 C   0  0  0  0  0  0  0  0  0  0  0  0
    6.6772  -13.8697   24.6546 C   0  0  0  0  0  0  0  0  0  0  0  0
    7.7475  -14.1726   23.6447 C   0  0  2  0  0  0  0  0  0  0  0  0
    7.2381  -14.0076   22.2812 N   0  0  0  0  0  0  0  0  0  0  0  0
    8.4115  -15.4668   23.8175 C   0  0  0  0  0  0  0  0  0  0  0  0
    7.8381  -16.5580   23.6067 O   0  0  0  0  0  0  0  0  0  0  0  0
    9.7785  -15.5816   24.2435 N   0  0  0  0  0  0  0  0  0  0  0  0
   10.4045  -16.8579   24.5619 C   0  0  1  0  0  0  0  0  0  0  0  0
   11.8884  -16.8233   24.3061 C   0  0  0  0  0  0  0  0  0  0  0  0
   12.2199  -16.8317   22.8648 C   0  0  0  0  0  0  0  0  0  0  0  0
   11.6713  -17.6115   22.0450 O   0  0  0  0  0  0  0  0  0  0  0  0
   10.0984  -17.1699   25.9701 C   0  0  0  0  0  0  0  0  0  0  0  0
    9.3634  -16.2641   26.7326 O   0  0  0  0  0  0  0  0  0  0  0  0
   13.1779  -15.9511   22.3529 O   0  0  0  0  0  0  0  0  0  0  0  0
   10.4893  -18.2364   26.4924 O   0  0  0  0  0  0  0  0  0  0  0  0
  2  1  1  1
  2  3  1  0
  4  6  1  0
  4  2  1  0
  4  5  1  6
  6 13  1  0
  6  7  2  0
  8  9  1  0
  9 10  1  0
 10 11  1  0
 12 11  1  1
 12 14  1  0
 13 12  1  0
 14 16  1  0
 14 15  2  0
 16 17  1  0
 17 21  1  0
 17 18  1  1
 19 20  2  0
 19 18  1  0
 21 22  1  0
 23 19  1  0
 24 21  2  0
M  END
$$$$
