TMD.pdb
     RDKit          3D

 24 23  0  0  1  0  0  0  0  0999 V2000
    9.4801  -14.6299   19.5596 C   0  0  0  0  0  0  0  0  0  0  0  0
    8.0876  -15.0415   19.8720 C   0  0  1  0  0  0  0  0  0  0  0  0
    7.4643  -15.4749   18.7047 O   0  0  0  0  0  0  0  0  0  0  0  0
    7.9598  -16.1542   20.8922 C   0  0  2  0  0  0  0  0  0  0  0  0
    6.5362  -16.5088   20.8696 N   0  0  0  0  0  0  0  0  0  0  0  0
    8.4265  -15.7568   22.2315 C   0  0  0  0  0  0  0  0  0  0  0  0
    9.6621  -15.5122   22.4003 O   0  0  0  0  0  0  0  0  0  0  0  0
    7.5810  -11.8452   27.3985 C   0  0  0  0  0  0  0  0  0  0  0  0
    6.2920  -11.9734   26.1247 S   0  0  0  0  0  0  0  0  0  0  0  0
    6.8616  -13.1727   24.8622 C   0  0  0  0  0  0  0  0  0  0  0  0
    7.1496  -14.5065   25.5040 C   0  0  0  0  0  0  0  0  0  0  0  0
    8.1312  -15.3274   24.7168 C   0  0  2  0  0  0  0  0  0  0  0  0
    7.6117  -15.6177   23.3782 N   0  0  0  0  0  0  0  0  0  0  0  0
    8.5980  -16.5430   25.3875 C   0  0  0  0  0  0  0  0  0  0  0  0
    7.8432  -17.5037   25.6551 O   0  0  0  0  0  0  0  0  0  0  0  0
    9.9647  -16.7257   25.7901 N   0  0  0  0  0  0  0  0  0  0  0  0
   10.4754  -17.9867   26.3109 C   0  0  1  0  0  0  0  0  0  0  0  0
   11.6767  -18.4580   25.5340 C   0  0  0  0  0  0  0  0  0  0  0  0
   12.2923  -19.6710   26.1144 C   0  0  0  0  0  0  0  0  0  0  0  0
   11.6148  -20.6458   26.5294 O   0  0  0  0  0  0  0  0  0  0  0  0
   10.7886  -17.7897   27.7382 C   0  0  0  0  0  0  0  0  0  0  0  0
   11.4006  -16.6084   28.1528 O   0  0  0  0  0  0  0  0  0  0  0  0
   13.6822  -19.7773   26.2237 O   0  0  0  0  0  0  0  0  0  0  0  0
   10.5138  -18.6682   28.5843 O   0  0  0  0  0  0  0  0  0  0  0  0
  2  1  1  6
  2  3  1  0
  4  6  1  0
  4  2  1  0
  4  5  1  1
  6 13  1  0
  6  7  2  0
  8  9  1  0
  9 10  1  0
 10 11  1  0
 12 11  1  1
 12 14  1  0
 13 12  1  0
 14 16  1  0
 14 15  2  0
 16 17  1  0
 17 21  1  0
 17 18  1  6
 19 20  2  0
 19 18  1  0
 21 22  1  0
 23 19  1  0
 24 21  2  0
M  END
$$$$
