TMD.pdb
     RDKit          3D

 24 23  0  0  1  0  0  0  0  0999 V2000
    7.4396  -16.0598   19.5834 C   0  0  0  0  0  0  0  0  0  0  0  0
    7.9677  -14.7110   19.2550 C   0  0  1  0  0  0  0  0  0  0  0  0
    7.5618  -14.3595   17.9702 O   0  0  0  0  0  0  0  0  0  0  0  0
    7.5245  -13.6026   20.1878 C   0  0  2  0  0  0  0  0  0  0  0  0
    8.0015  -12.3724   19.5460 N   0  0  0  0  0  0  0  0  0  0  0  0
    8.0418  -13.7680   21.5570 C   0  0  0  0  0  0  0  0  0  0  0  0
    9.2659  -13.5118   21.7826 O   0  0  0  0  0  0  0  0  0  0  0  0
    6.7528  -10.6765   26.9590 C   0  0  0  0  0  0  0  0  0  0  0  0
    7.4407  -12.3089   26.5560 S   0  0  0  0  0  0  0  0  0  0  0  0
    6.2867  -13.1396   25.4007 C   0  0  0  0  0  0  0  0  0  0  0  0
    6.8024  -14.5117   25.0470 C   0  0  0  0  0  0  0  0  0  0  0  0
    7.8695  -14.4740   23.9900 C   0  0  2  0  0  0  0  0  0  0  0  0
    7.2889  -14.1960   22.6742 N   0  0  0  0  0  0  0  0  0  0  0  0
    8.7452  -15.6476   23.9541 C   0  0  0  0  0  0  0  0  0  0  0  0
    8.3705  -16.7620   23.5277 O   0  0  0  0  0  0  0  0  0  0  0  0
   10.1077  -15.6076   24.4071 N   0  0  0  0  0  0  0  0  0  0  0  0
   10.9980  -16.7589   24.3433 C   0  0  1  0  0  0  0  0  0  0  0  0
   12.3850  -16.3601   23.9121 C   0  0  0  0  0  0  0  0  0  0  0  0
   13.3436  -17.4853   23.9599 C   0  0  0  0  0  0  0  0  0  0  0  0
   12.9827  -18.6891   23.9138 O   0  0  0  0  0  0  0  0  0  0  0  0
   11.0000  -17.3999   25.6711 C   0  0  0  0  0  0  0  0  0  0  0  0
   11.4490  -18.7126   25.8021 O   0  0  0  0  0  0  0  0  0  0  0  0
   14.7170  -17.2424   24.0602 O   0  0  0  0  0  0  0  0  0  0  0  0
   10.6037  -16.7830   26.6838 O   0  0  0  0  0  0  0  0  0  0  0  0
  2  1  1  1
  2  3  1  0
  4  6  1  0
  4  2  1  0
  4  5  1  6
  6 13  1  0
  6  7  2  0
  8  9  1  0
  9 10  1  0
 10 11  1  0
 12 11  1  1
 12 14  1  0
 13 12  1  0
 14 16  1  0
 14 15  2  0
 16 17  1  0
 17 21  1  0
 17 18  1  1
 19 20  2  0
 19 18  1  0
 21 22  1  0
 23 19  1  0
 24 21  2  0
M  END
$$$$
