TMD.pdb
     RDKit          3D

 24 23  0  0  1  0  0  0  0  0999 V2000
    6.2201  -17.5786   18.8871 C   0  0  0  0  0  0  0  0  0  0  0  0
    6.9138  -17.0836   20.1036 C   0  0  1  0  0  0  0  0  0  0  0  0
    7.9941  -17.9154   20.3862 O   0  0  0  0  0  0  0  0  0  0  0  0
    7.4460  -15.6683   20.0089 C   0  0  2  0  0  0  0  0  0  0  0  0
    8.4021  -15.7113   18.8968 N   0  0  0  0  0  0  0  0  0  0  0  0
    8.0556  -15.2026   21.2663 C   0  0  0  0  0  0  0  0  0  0  0  0
    9.3095  -15.3371   21.4238 O   0  0  0  0  0  0  0  0  0  0  0  0
    7.4356  -11.4507   28.2481 C   0  0  0  0  0  0  0  0  0  0  0  0
    6.6001  -11.9170   26.7038 S   0  0  0  0  0  0  0  0  0  0  0  0
    7.6752  -13.1048   25.8153 C   0  0  0  0  0  0  0  0  0  0  0  0
    7.0705  -13.4553   24.4791 C   0  0  0  0  0  0  0  0  0  0  0  0
    7.9688  -14.3270   23.6482 C   0  0  2  0  0  0  0  0  0  0  0  0
    7.3629  -14.6050   22.3438 N   0  0  0  0  0  0  0  0  0  0  0  0
    8.4170  -15.5567   24.3058 C   0  0  0  0  0  0  0  0  0  0  0  0
    7.6503  -16.5136   24.5521 O   0  0  0  0  0  0  0  0  0  0  0  0
    9.7779  -15.7586   24.7190 N   0  0  0  0  0  0  0  0  0  0  0  0
   10.2320  -16.9726   25.3840 C   0  0  1  0  0  0  0  0  0  0  0  0
   11.6638  -17.2878   25.0387 C   0  0  0  0  0  0  0  0  0  0  0  0
   11.8712  -17.4854   23.5878 C   0  0  0  0  0  0  0  0  0  0  0  0
   11.1010  -18.1823   22.8790 O   0  0  0  0  0  0  0  0  0  0  0  0
   10.0465  -16.7866   26.8350 C   0  0  0  0  0  0  0  0  0  0  0  0
   10.1676  -17.8796   27.6909 O   0  0  0  0  0  0  0  0  0  0  0  0
   12.9573  -16.8892   22.9395 O   0  0  0  0  0  0  0  0  0  0  0  0
    9.7811  -15.6612   27.3105 O   0  0  0  0  0  0  0  0  0  0  0  0
  2  1  1  6
  2  3  1  0
  4  6  1  0
  4  2  1  0
  4  5  1  6
  6 13  1  0
  6  7  2  0
  8  9  1  0
  9 10  1  0
 10 11  1  0
 12 11  1  1
 12 14  1  0
 13 12  1  0
 14 16  1  0
 14 15  2  0
 16 17  1  0
 17 21  1  0
 17 18  1  1
 19 20  2  0
 19 18  1  0
 21 22  1  0
 23 19  1  0
 24 21  2  0
M  END
$$$$
