TMD.pdb
     RDKit          3D

 24 23  0  0  1  0  0  0  0  0999 V2000
    7.4353  -16.0272   19.4172 C   0  0  0  0  0  0  0  0  0  0  0  0
    8.2862  -14.8505   19.1052 C   0  0  1  0  0  0  0  0  0  0  0  0
    8.1434  -14.5251   17.7588 O   0  0  0  0  0  0  0  0  0  0  0  0
    7.9766  -13.6027   19.9068 C   0  0  2  0  0  0  0  0  0  0  0  0
    8.7788  -12.5516   19.2708 N   0  0  0  0  0  0  0  0  0  0  0  0
    8.2745  -13.7573   21.3410 C   0  0  0  0  0  0  0  0  0  0  0  0
    9.4648  -13.5637   21.7420 O   0  0  0  0  0  0  0  0  0  0  0  0
    7.6459  -12.0189   28.1817 C   0  0  0  0  0  0  0  0  0  0  0  0
    7.5542  -12.2418   26.3810 S   0  0  0  0  0  0  0  0  0  0  0  0
    6.6051  -13.7731   26.0481 C   0  0  0  0  0  0  0  0  0  0  0  0
    6.3547  -13.9187   24.5683 C   0  0  0  0  0  0  0  0  0  0  0  0
    7.6247  -14.0564   23.7774 C   0  0  2  0  0  0  0  0  0  0  0  0
    7.3402  -14.1100   22.3414 N   0  0  0  0  0  0  0  0  0  0  0  0
    8.4958  -15.1577   24.1943 C   0  0  0  0  0  0  0  0  0  0  0  0
    8.8166  -15.3560   25.3867 O   0  0  0  0  0  0  0  0  0  0  0  0
    9.0496  -16.0990   23.2612 N   0  0  0  0  0  0  0  0  0  0  0  0
    9.7780  -17.2904   23.6759 C   0  0  1  0  0  0  0  0  0  0  0  0
   10.0071  -18.2272   22.5189 C   0  0  0  0  0  0  0  0  0  0  0  0
   10.8206  -17.6190   21.4439 C   0  0  0  0  0  0  0  0  0  0  0  0
   11.7746  -16.8328   21.6746 O   0  0  0  0  0  0  0  0  0  0  0  0
   11.0470  -16.8521   24.2856 C   0  0  0  0  0  0  0  0  0  0  0  0
   11.2563  -15.4988   24.5437 O   0  0  0  0  0  0  0  0  0  0  0  0
   10.5498  -17.9050   20.1023 O   0  0  0  0  0  0  0  0  0  0  0  0
   11.9405  -17.6774   24.5748 O   0  0  0  0  0  0  0  0  0  0  0  0
  2  1  1  1
  2  3  1  0
  4  6  1  0
  4  2  1  0
  4  5  1  6
  6 13  1  0
  6  7  2  0
  8  9  1  0
  9 10  1  0
 10 11  1  0
 12 11  1  1
 12 14  1  0
 13 12  1  0
 14 16  1  0
 14 15  2  0
 16 17  1  0
 17 21  1  0
 17 18  1  6
 19 20  2  0
 19 18  1  0
 21 22  1  0
 23 19  1  0
 24 21  2  0
M  END
$$$$
