TMD.pdb
     RDKit          3D

 24 23  0  0  1  0  0  0  0  0999 V2000
    7.3887  -16.4188   19.8317 C   0  0  0  0  0  0  0  0  0  0  0  0
    7.9136  -15.0787   19.4644 C   0  0  1  0  0  0  0  0  0  0  0  0
    7.4774  -14.7504   18.1834 O   0  0  0  0  0  0  0  0  0  0  0  0
    7.4976  -13.9507   20.3863 C   0  0  2  0  0  0  0  0  0  0  0  0
    7.9760  -12.7362   19.7162 N   0  0  0  0  0  0  0  0  0  0  0  0
    8.0367  -14.0992   21.7489 C   0  0  0  0  0  0  0  0  0  0  0  0
    9.2586  -13.8185   21.9565 O   0  0  0  0  0  0  0  0  0  0  0  0
    6.4183  -10.5116   26.9660 C   0  0  0  0  0  0  0  0  0  0  0  0
    6.9295  -12.2549   26.9570 S   0  0  0  0  0  0  0  0  0  0  0  0
    6.4534  -12.9757   25.3414 C   0  0  0  0  0  0  0  0  0  0  0  0
    6.8622  -14.4257   25.2778 C   0  0  0  0  0  0  0  0  0  0  0  0
    7.8892  -14.6912   24.2138 C   0  0  2  0  0  0  0  0  0  0  0  0
    7.3074  -14.5357   22.8785 N   0  0  0  0  0  0  0  0  0  0  0  0
    8.6000  -15.9652   24.3455 C   0  0  0  0  0  0  0  0  0  0  0  0
    8.0342  -17.0742   24.2270 O   0  0  0  0  0  0  0  0  0  0  0  0
   10.0079  -16.0381   24.6210 N   0  0  0  0  0  0  0  0  0  0  0  0
   10.6909  -17.2871   24.9303 C   0  0  1  0  0  0  0  0  0  0  0  0
   12.1458  -17.2301   24.5446 C   0  0  0  0  0  0  0  0  0  0  0  0
   12.3446  -17.0539   23.0898 C   0  0  0  0  0  0  0  0  0  0  0  0
   11.6283  -17.6284   22.2306 O   0  0  0  0  0  0  0  0  0  0  0  0
   10.5157  -17.5506   26.3704 C   0  0  0  0  0  0  0  0  0  0  0  0
    9.8490  -16.6202   27.1652 O   0  0  0  0  0  0  0  0  0  0  0  0
   13.3606  -16.2221   22.6090 O   0  0  0  0  0  0  0  0  0  0  0  0
   10.9574  -18.5980   26.8911 O   0  0  0  0  0  0  0  0  0  0  0  0
  2  1  1  1
  2  3  1  0
  4  6  1  0
  4  2  1  0
  4  5  1  6
  6 13  1  0
  6  7  2  0
  8  9  1  0
  9 10  1  0
 10 11  1  0
 12 11  1  1
 12 14  1  0
 13 12  1  0
 14 16  1  0
 14 15  2  0
 16 17  1  0
 17 21  1  0
 17 18  1  1
 19 20  2  0
 19 18  1  0
 21 22  1  0
 23 19  1  0
 24 21  2  0
M  END
$$$$
