TMD.pdb
     RDKit          3D

 24 23  0  0  1  0  0  0  0  0999 V2000
    6.9120  -16.0213   19.8215 C   0  0  0  0  0  0  0  0  0  0  0  0
    7.7706  -14.8869   19.3947 C   0  0  1  0  0  0  0  0  0  0  0  0
    7.4261  -14.5131   18.0984 O   0  0  0  0  0  0  0  0  0  0  0  0
    7.6771  -13.6483   20.2621 C   0  0  2  0  0  0  0  0  0  0  0  0
    8.3443  -12.6025   19.4785 N   0  0  0  0  0  0  0  0  0  0  0  0
    8.2813  -13.8361   21.5922 C   0  0  0  0  0  0  0  0  0  0  0  0
    9.5461  -13.9211   21.6821 O   0  0  0  0  0  0  0  0  0  0  0  0
    5.3246  -11.9518   27.1877 C   0  0  0  0  0  0  0  0  0  0  0  0
    7.0517  -11.4716   26.8926 S   0  0  0  0  0  0  0  0  0  0  0  0
    7.5464  -12.1189   25.2516 C   0  0  0  0  0  0  0  0  0  0  0  0
    7.4337  -13.6224   25.2298 C   0  0  0  0  0  0  0  0  0  0  0  0
    8.2008  -14.2438   24.0972 C   0  0  2  0  0  0  0  0  0  0  0  0
    7.5719  -13.9340   22.8109 N   0  0  0  0  0  0  0  0  0  0  0  0
    8.4569  -15.6790   24.2386 C   0  0  0  0  0  0  0  0  0  0  0  0
    7.8760  -16.5441   23.5471 O   0  0  0  0  0  0  0  0  0  0  0  0
    9.4001  -16.2047   25.1860 N   0  0  0  0  0  0  0  0  0  0  0  0
   10.1081  -17.4618   24.9848 C   0  0  1  0  0  0  0  0  0  0  0  0
   11.0132  -17.3985   23.7825 C   0  0  0  0  0  0  0  0  0  0  0  0
   11.8605  -18.6024   23.6414 C   0  0  0  0  0  0  0  0  0  0  0  0
   13.1088  -18.5772   23.7911 O   0  0  0  0  0  0  0  0  0  0  0  0
   10.8573  -17.7584   26.2196 C   0  0  0  0  0  0  0  0  0  0  0  0
   10.8095  -16.8634   27.2866 O   0  0  0  0  0  0  0  0  0  0  0  0
   11.2879  -19.8392   23.3291 O   0  0  0  0  0  0  0  0  0  0  0  0
   11.5369  -18.8026   26.3245 O   0  0  0  0  0  0  0  0  0  0  0  0
  2  1  1  1
  2  3  1  0
  4  6  1  0
  4  2  1  0
  4  5  1  6
  6 13  1  0
  6  7  2  0
  8  9  1  0
  9 10  1  0
 10 11  1  0
 12 11  1  1
 12 14  1  0
 13 12  1  0
 14 16  1  0
 14 15  2  0
 16 17  1  0
 17 21  1  0
 17 18  1  6
 19 20  2  0
 19 18  1  0
 21 22  1  0
 23 19  1  0
 24 21  2  0
M  END
$$$$
