CPS.pdb
     RDKit          3D

 20 20  0  0  1  0  0  0  0  0999 V2000
   28.1418  -21.2656  -15.5151 N   0  0  0  0  0  0  0  0  0  0  0  0
   27.7964  -20.6982  -14.2372 C   0  0  1  0  0  0  0  0  0  0  0  0
   27.8763  -19.1842  -14.3316 C   0  0  0  0  0  0  0  0  0  0  0  0
   26.7173  -18.5531  -15.5744 S   0  0  0  0  0  0  0  0  0  0  0  0
   26.4417  -21.0945  -13.7816 C   0  0  0  0  0  0  0  0  0  0  0  0
   25.7077  -21.6306  -14.6587 O   0  0  0  0  0  0  0  0  0  0  0  0
   25.9522  -20.9085  -12.4653 N   0  0  0  0  0  0  0  0  0  0  0  0
   26.6940  -20.2495  -11.4106 C   0  0  0  0  0  0  0  0  0  0  0  0
   25.8286  -20.2853  -10.1725 C   0  0  0  0  0  0  0  0  0  0  0  0
   24.6985  -21.2181  -10.4829 C   0  0  0  0  0  0  0  0  0  0  0  0
   24.6721  -21.3388  -11.9932 C   0  0  1  0  0  0  0  0  0  0  0  0
   23.5549  -20.5145  -12.4868 C   0  0  0  0  0  0  0  0  0  0  0  0
   23.7443  -19.2968  -12.6699 O   0  0  0  0  0  0  0  0  0  0  0  0
   20.4831  -22.4589  -14.2498 O   0  0  0  0  0  0  0  0  0  0  0  0
   20.6507  -21.1087  -14.5618 C   0  0  0  0  0  0  0  0  0  0  0  0
   21.1893  -20.4029  -13.3457 C   0  0  2  0  0  0  0  0  0  0  0  0
   22.3012  -21.1082  -12.7422 N   0  0  0  0  0  0  0  0  0  0  0  0
   20.0847  -20.3263  -12.3504 C   0  0  0  0  0  0  0  0  0  0  0  0
   18.9124  -19.6322  -12.5846 O   0  0  0  0  0  0  0  0  0  0  0  0
   20.1789  -20.9068  -11.2265 O   0  0  0  0  0  0  0  0  0  0  0  0
  2  1  1  6
  2  3  1  0
  4  3  1  0
  5  2  1  0
  5  6  2  0
  7  5  1  0
  8  7  1  0
  9  8  1  0
 10  9  1  0
 10 11  1  0
 11  7  1  0
 11 12  1  6
 12 17  1  0
 12 13  2  0
 15 14  1  0
 16 15  1  6
 17 16  1  0
 18 16  1  0
 18 19  1  0
 20 18  2  0
M  END
$$$$
