CPS.pdb
     RDKit          3D

 20 20  0  0  1  0  0  0  0  0999 V2000
   16.4186  -11.1739  -11.9957 N   0  0  0  0  0  0  0  0  0  0  0  0
   16.0224   -9.8173  -12.2725 C   0  0  1  0  0  0  0  0  0  0  0  0
   15.7250   -9.1124  -10.9601 C   0  0  0  0  0  0  0  0  0  0  0  0
   14.2162   -9.7712  -10.2013 S   0  0  0  0  0  0  0  0  0  0  0  0
   17.0563   -9.0589  -13.0180 C   0  0  0  0  0  0  0  0  0  0  0  0
   18.2521   -9.3824  -12.7712 O   0  0  0  0  0  0  0  0  0  0  0  0
   16.7787   -8.0325  -13.9540 N   0  0  0  0  0  0  0  0  0  0  0  0
   15.4484   -7.5415  -14.2473 C   0  0  0  0  0  0  0  0  0  0  0  0
   15.5942   -6.4765  -15.3092 C   0  0  0  0  0  0  0  0  0  0  0  0
   17.0060   -6.5713  -15.8007 C   0  0  0  0  0  0  0  0  0  0  0  0
   17.7585   -7.3415  -14.7346 C   0  0  1  0  0  0  0  0  0  0  0  0
   18.5516   -6.3712  -13.9597 C   0  0  0  0  0  0  0  0  0  0  0  0
   17.9945   -5.7396  -13.0415 O   0  0  0  0  0  0  0  0  0  0  0  0
   22.6235   -6.1803  -14.7130 O   0  0  0  0  0  0  0  0  0  0  0  0
   22.2032   -5.9261  -13.4064 C   0  0  0  0  0  0  0  0  0  0  0  0
   20.8063   -5.3665  -13.4566 C   0  0  2  0  0  0  0  0  0  0  0  0
   19.9144   -6.1729  -14.2643 N   0  0  0  0  0  0  0  0  0  0  0  0
   20.8925   -4.0094  -14.0630 C   0  0  0  0  0  0  0  0  0  0  0  0
   20.3150   -3.6943  -15.2787 O   0  0  0  0  0  0  0  0  0  0  0  0
   21.5119   -3.0713  -13.4752 O   0  0  0  0  0  0  0  0  0  0  0  0
  2  1  1  1
  2  3  1  0
  4  3  1  0
  5  2  1  0
  5  6  2  0
  7  5  1  0
  8  7  1  0
  9  8  1  0
 10  9  1  0
 10 11  1  0
 11  7  1  0
 11 12  1  1
 12 17  1  0
 12 13  2  0
 15 14  1  0
 16 15  1  6
 17 16  1  0
 18 16  1  0
 18 19  1  0
 20 18  2  0
M  END
$$$$
