CPS.pdb
     RDKit          3D

 20 20  0  0  1  0  0  0  0  0999 V2000
   12.4681  -12.1579   -9.7176 N   0  0  0  0  0  0  0  0  0  0  0  0
   13.1155  -11.3979  -10.7556 C   0  0  1  0  0  0  0  0  0  0  0  0
   12.0696  -10.5803  -11.4942 C   0  0  0  0  0  0  0  0  0  0  0  0
   11.1878  -11.6025  -12.7040 S   0  0  0  0  0  0  0  0  0  0  0  0
   14.1699  -10.4954  -10.2325 C   0  0  0  0  0  0  0  0  0  0  0  0
   13.9720  -10.0441   -9.0695 O   0  0  0  0  0  0  0  0  0  0  0  0
   15.3389  -10.1307  -10.9447 N   0  0  0  0  0  0  0  0  0  0  0  0
   15.6816  -10.6418  -12.2554 C   0  0  0  0  0  0  0  0  0  0  0  0
   17.0063  -10.0240  -12.6385 C   0  0  0  0  0  0  0  0  0  0  0  0
   17.5314   -9.3667  -11.3992 C   0  0  0  0  0  0  0  0  0  0  0  0
   16.3368   -9.2175  -10.4789 C   0  0  1  0  0  0  0  0  0  0  0  0
   15.9120   -7.8073  -10.5250 C   0  0  0  0  0  0  0  0  0  0  0  0
   15.1539   -7.4397  -11.4428 O   0  0  0  0  0  0  0  0  0  0  0  0
   15.2908   -5.8375   -7.0627 O   0  0  0  0  0  0  0  0  0  0  0  0
   16.0289   -5.0577   -7.9547 C   0  0  0  0  0  0  0  0  0  0  0  0
   15.8007   -5.5832   -9.3471 C   0  0  2  0  0  0  0  0  0  0  0  0
   16.3640   -6.9035   -9.5410 N   0  0  0  0  0  0  0  0  0  0  0  0
   16.4666   -4.6442  -10.2914 C   0  0  0  0  0  0  0  0  0  0  0  0
   17.5138   -5.0230  -11.1104 O   0  0  0  0  0  0  0  0  0  0  0  0
   16.0908   -3.4361  -10.3825 O   0  0  0  0  0  0  0  0  0  0  0  0
  2  1  1  1
  2  3  1  0
  4  3  1  0
  5  2  1  0
  5  6  2  0
  7  5  1  0
  8  7  1  0
  9  8  1  0
 10  9  1  0
 10 11  1  0
 11  7  1  0
 11 12  1  6
 12 17  1  0
 12 13  2  0
 15 14  1  0
 16 15  1  1
 17 16  1  0
 18 16  1  0
 18 19  1  0
 20 18  2  0
M  END
$$$$
