CPS.pdb
     RDKit          3D

 20 20  0  0  1  0  0  0  0  0999 V2000
   18.7025  -12.1812  -15.6323 N   0  0  0  0  0  0  0  0  0  0  0  0
   18.9248  -10.7663  -15.7833 C   0  0  1  0  0  0  0  0  0  0  0  0
   17.8665  -10.1967  -16.7123 C   0  0  0  0  0  0  0  0  0  0  0  0
   18.1990  -10.6635  -18.4322 S   0  0  0  0  0  0  0  0  0  0  0  0
   18.8911  -10.0397  -14.4907 C   0  0  0  0  0  0  0  0  0  0  0  0
   18.0647  -10.4775  -13.6417 O   0  0  0  0  0  0  0  0  0  0  0  0
   19.7070   -8.9252  -14.1760 N   0  0  0  0  0  0  0  0  0  0  0  0
   20.6578   -8.3323  -15.0932 C   0  0  0  0  0  0  0  0  0  0  0  0
   21.3295   -7.1948  -14.3598 C   0  0  0  0  0  0  0  0  0  0  0  0
   20.9300   -7.3342  -12.9229 C   0  0  0  0  0  0  0  0  0  0  0  0
   19.7102   -8.2333  -12.9238 C   0  0  1  0  0  0  0  0  0  0  0  0
   18.5269   -7.3794  -12.7198 C   0  0  0  0  0  0  0  0  0  0  0  0
   17.9860   -6.8579  -13.7136 O   0  0  0  0  0  0  0  0  0  0  0  0
   17.4254   -6.5569   -8.8633 O   0  0  0  0  0  0  0  0  0  0  0  0
   16.3306   -6.6251   -9.7265 C   0  0  0  0  0  0  0  0  0  0  0  0
   16.8217   -6.4171  -11.1346 C   0  0  2  0  0  0  0  0  0  0  0  0
   18.0285   -7.1665  -11.4176 N   0  0  0  0  0  0  0  0  0  0  0  0
   17.1206   -4.9670  -11.2916 C   0  0  0  0  0  0  0  0  0  0  0  0
   16.1428   -3.9911  -11.2419 O   0  0  0  0  0  0  0  0  0  0  0  0
   18.3081   -4.5632  -11.4810 O   0  0  0  0  0  0  0  0  0  0  0  0
  2  1  1  1
  2  3  1  0
  4  3  1  0
  5  2  1  0
  5  6  2  0
  7  5  1  0
  8  7  1  0
  9  8  1  0
 10  9  1  0
 10 11  1  0
 11  7  1  0
 11 12  1  6
 12 17  1  0
 12 13  2  0
 15 14  1  0
 16 15  1  1
 17 16  1  0
 18 16  1  0
 18 19  1  0
 20 18  2  0
M  END
$$$$
