CPS.pdb
     RDKit          3D

 20 20  0  0  1  0  0  0  0  0999 V2000
   18.6397  -12.2160  -16.5746 N   0  0  0  0  0  0  0  0  0  0  0  0
   17.8594  -11.0403  -16.2863 C   0  0  1  0  0  0  0  0  0  0  0  0
   17.4066  -11.0916  -14.8371 C   0  0  0  0  0  0  0  0  0  0  0  0
   16.1017  -12.3297  -14.6123 S   0  0  0  0  0  0  0  0  0  0  0  0
   18.6079   -9.7826  -16.5264 C   0  0  0  0  0  0  0  0  0  0  0  0
   19.8559   -9.8486  -16.3431 O   0  0  0  0  0  0  0  0  0  0  0  0
   18.0152   -8.5623  -16.9343 N   0  0  0  0  0  0  0  0  0  0  0  0
   16.6105   -8.4098  -17.2510 C   0  0  0  0  0  0  0  0  0  0  0  0
   16.4031   -6.9702  -17.6602 C   0  0  0  0  0  0  0  0  0  0  0  0
   17.7719   -6.3852  -17.8278 C   0  0  0  0  0  0  0  0  0  0  0  0
   18.7086   -7.3207  -17.0905 C   0  0  1  0  0  0  0  0  0  0  0  0
   19.0637   -6.6796  -15.8122 C   0  0  0  0  0  0  0  0  0  0  0  0
   18.2534   -6.7375  -14.8676 O   0  0  0  0  0  0  0  0  0  0  0  0
   22.9724   -6.3206  -14.9618 O   0  0  0  0  0  0  0  0  0  0  0  0
   22.0161   -6.3275  -13.9451 C   0  0  0  0  0  0  0  0  0  0  0  0
   20.8204   -5.5401  -14.4115 C   0  0  2  0  0  0  0  0  0  0  0  0
   20.3015   -6.0170  -15.6769 N   0  0  0  0  0  0  0  0  0  0  0  0
   21.2582   -4.1276  -14.5848 C   0  0  0  0  0  0  0  0  0  0  0  0
   21.6367   -3.3255  -13.5245 O   0  0  0  0  0  0  0  0  0  0  0  0
   21.3015   -3.5953  -15.7353 O   0  0  0  0  0  0  0  0  0  0  0  0
  2  1  1  1
  2  3  1  0
  4  3  1  0
  5  2  1  0
  5  6  2  0
  7  5  1  0
  8  7  1  0
  9  8  1  0
 10  9  1  0
 10 11  1  0
 11  7  1  0
 11 12  1  1
 12 17  1  0
 12 13  2  0
 15 14  1  0
 16 15  1  6
 17 16  1  0
 18 16  1  0
 18 19  1  0
 20 18  2  0
M  END
$$$$
