CPS.pdb
     RDKit          3D

 20 20  0  0  1  0  0  0  0  0999 V2000
   25.2036  -18.1168  -16.2880 N   0  0  0  0  0  0  0  0  0  0  0  0
   24.4596  -18.8628  -15.3061 C   0  0  1  0  0  0  0  0  0  0  0  0
   22.9945  -18.8821  -15.7069 C   0  0  0  0  0  0  0  0  0  0  0  0
   21.9248  -18.8361  -14.2440 S   0  0  0  0  0  0  0  0  0  0  0  0
   24.9487  -20.2546  -15.1523 C   0  0  0  0  0  0  0  0  0  0  0  0
   25.3523  -20.8098  -16.2127 O   0  0  0  0  0  0  0  0  0  0  0  0
   24.9833  -20.9612  -13.9251 N   0  0  0  0  0  0  0  0  0  0  0  0
   24.5596  -20.4044  -12.6573 C   0  0  0  0  0  0  0  0  0  0  0  0
   24.7815  -21.4705  -11.6098 C   0  0  0  0  0  0  0  0  0  0  0  0
   25.5923  -22.5413  -12.2729 C   0  0  0  0  0  0  0  0  0  0  0  0
   25.4357  -22.3086  -13.7620 C   0  0  1  0  0  0  0  0  0  0  0  0
   24.4876  -23.3141  -14.2731 C   0  0  0  0  0  0  0  0  0  0  0  0
   23.2668  -23.1189  -14.1193 O   0  0  0  0  0  0  0  0  0  0  0  0
   26.0345  -26.6668  -16.1630 O   0  0  0  0  0  0  0  0  0  0  0  0
   24.9099  -26.0967  -16.7620 C   0  0  0  0  0  0  0  0  0  0  0  0
   24.1333  -25.3553  -15.7065 C   0  0  2  0  0  0  0  0  0  0  0  0
   24.9693  -24.4702  -14.9218 N   0  0  0  0  0  0  0  0  0  0  0  0
   23.5391  -26.3718  -14.7952 C   0  0  0  0  0  0  0  0  0  0  0  0
   23.8679  -26.4599  -13.4555 O   0  0  0  0  0  0  0  0  0  0  0  0
   22.6911  -27.2131  -15.2221 O   0  0  0  0  0  0  0  0  0  0  0  0
  2  1  1  6
  2  3  1  0
  4  3  1  0
  5  2  1  0
  5  6  2  0
  7  5  1  0
  8  7  1  0
  9  8  1  0
 10  9  1  0
 10 11  1  0
 11  7  1  0
 11 12  1  1
 12 17  1  0
 12 13  2  0
 15 14  1  0
 16 15  1  6
 17 16  1  0
 18 16  1  0
 18 19  1  0
 20 18  2  0
M  END
$$$$
