RKQ.pdb
     RDKit          3D

 30 29  0  0  1  0  0  0  0  0999 V2000
   28.7282  -19.1884  -20.3305 N   0  0  0  0  0  0  0  0  0  0  0  0
   27.7923  -18.1405  -20.6594 C   0  0  0  0  0  0  0  0  0  0  0  0
   27.7928  -17.5939  -21.8385 N   0  0  0  0  0  0  0  0  0  0  0  0
   26.8454  -17.6775  -19.7053 N   0  0  0  0  0  0  0  0  0  0  0  0
   26.3195  -18.5788  -18.6903 C   0  0  0  0  0  0  0  0  0  0  0  0
   26.0278  -19.9426  -19.2586 C   0  0  0  0  0  0  0  0  0  0  0  0
   25.3545  -20.8597  -18.3055 C   0  0  0  0  0  0  0  0  0  0  0  0
   26.1461  -21.2214  -17.0819 C   0  0  2  0  0  0  0  0  0  0  0  0
   27.0705  -22.3041  -17.3995 N   0  0  0  0  0  0  0  0  0  0  0  0
   25.2839  -21.6668  -15.9659 C   0  0  0  0  0  0  0  0  0  0  0  0
   24.5122  -22.6538  -16.1031 O   0  0  0  0  0  0  0  0  0  0  0  0
   27.1075  -16.8585  -22.0281 N   0  0  0  0  0  0  0  0  0  0  0  0
   25.3354  -20.9687  -14.7361 C   0  0  2  0  0  0  0  0  0  0  0  0
   24.4628  -21.3702  -13.6361 C   0  0  0  0  0  0  0  0  0  0  0  0
   24.9842  -20.7769  -12.3645 C   0  0  0  0  0  0  0  0  0  0  0  0
   24.1639  -21.1666  -11.1749 C   0  0  0  0  0  0  0  0  0  0  0  0
   24.7437  -20.5693   -9.8967 C   0  0  0  0  0  0  0  0  0  0  0  0
   23.8914  -21.0315   -8.7271 N   0  0  0  0  0  0  0  0  0  0  0  0
   24.3266  -20.4272   -7.4999 C   0  0  0  0  0  0  0  0  0  0  0  0
   23.0992  -20.8175  -13.9220 O   0  0  0  0  0  0  0  0  0  0  0  0
   22.9254  -19.6301  -14.3376 N   0  0  0  0  0  0  0  0  0  0  0  0
   18.5107  -23.4651  -16.9038 C   0  0  0  0  0  0  0  0  0  0  0  0
   17.8632  -22.3276  -16.3619 O   0  0  0  0  0  0  0  0  0  0  0  0
   16.7003  -22.0561  -16.7233 C   0  0  0  0  0  0  0  0  0  0  0  0
   18.5657  -21.4782  -15.3830 C   0  0  0  0  0  0  0  0  0  0  0  0
   19.9224  -21.9660  -15.0243 C   0  0  2  0  0  0  0  0  0  0  0  0
   20.6157  -21.0776  -14.0375 N   0  0  0  0  0  0  0  0  0  0  0  0
   21.9494  -21.6133  -13.7347 C   0  0  0  0  0  0  0  0  0  0  0  0
   19.8515  -20.8848  -12.7842 O   0  0  0  0  0  0  0  0  0  0  0  0
   20.1271  -21.4132  -11.6876 O   0  0  0  0  0  0  0  0  0  0  0  0
  2  3  2  0
  2  1  1  0
  4  2  1  0
  5  4  1  0
  6  5  1  0
  7  6  1  0
  8  9  1  6
  8  7  1  0
 10  8  1  0
 11 10  2  0
 12 10  1  0
 13 19  1  0
 13 12  1  0
 13 14  1  1
 15 14  1  0
 16 15  1  0
 17 16  1  0
 18 17  1  0
 19 20  2  0
 22 21  1  0
 22 24  1  0
 23 22  2  0
 25 24  1  0
 26 25  1  6
 27 19  1  0
 27 26  1  0
 28 30  1  0
 28 26  1  0
 29 28  2  0
M  END
$$$$
