RKQ.pdb
     RDKit          3D

 30 29  0  0  1  0  0  0  0  0999 V2000
   31.2195  -26.3048  -16.7457 N   0  0  0  0  0  0  0  0  0  0  0  0
   30.5409  -26.4378  -18.0122 C   0  0  0  0  0  0  0  0  0  0  0  0
   31.0936  -27.0779  -18.9991 N   0  0  0  0  0  0  0  0  0  0  0  0
   29.2519  -25.8738  -18.2158 N   0  0  0  0  0  0  0  0  0  0  0  0
   28.5531  -25.2156  -17.1214 C   0  0  0  0  0  0  0  0  0  0  0  0
   28.4785  -23.7258  -17.3290 C   0  0  0  0  0  0  0  0  0  0  0  0
   27.0995  -23.1796  -17.2753 C   0  0  0  0  0  0  0  0  0  0  0  0
   26.4461  -23.1955  -15.9236 C   0  0  2  0  0  0  0  0  0  0  0  0
   26.6856  -24.4821  -15.2794 N   0  0  0  0  0  0  0  0  0  0  0  0
   24.9840  -22.9874  -16.0034 C   0  0  0  0  0  0  0  0  0  0  0  0
   24.4833  -22.2831  -16.9210 O   0  0  0  0  0  0  0  0  0  0  0  0
   30.5927  -27.1125  -19.8905 N   0  0  0  0  0  0  0  0  0  0  0  0
   24.1494  -23.5910  -15.0332 C   0  0  1  0  0  0  0  0  0  0  0  0
   22.7080  -23.3595  -15.0699 C   0  0  0  0  0  0  0  0  0  0  0  0
   22.0243  -24.4458  -14.2997 C   0  0  0  0  0  0  0  0  0  0  0  0
   22.0520  -25.7585  -15.0178 C   0  0  0  0  0  0  0  0  0  0  0  0
   21.4021  -26.8517  -14.1756 C   0  0  0  0  0  0  0  0  0  0  0  0
   21.3338  -28.1182  -15.0119 N   0  0  0  0  0  0  0  0  0  0  0  0
   20.7631  -29.2018  -14.2630 C   0  0  0  0  0  0  0  0  0  0  0  0
   22.4497  -22.0400  -14.4074 O   0  0  0  0  0  0  0  0  0  0  0  0
   23.3195  -21.4679  -13.6801 N   0  0  0  0  0  0  0  0  0  0  0  0
   23.6747  -17.1977  -15.8028 C   0  0  0  0  0  0  0  0  0  0  0  0
   22.3880  -17.3679  -16.3703 O   0  0  0  0  0  0  0  0  0  0  0  0
   22.0780  -16.7168  -17.3885 C   0  0  0  0  0  0  0  0  0  0  0  0
   21.4311  -18.3059  -15.7556 C   0  0  0  0  0  0  0  0  0  0  0  0
   21.9931  -19.0850  -14.6222 C   0  0  1  0  0  0  0  0  0  0  0  0
   21.0027  -20.0376  -14.0261 N   0  0  0  0  0  0  0  0  0  0  0  0
   21.2121  -21.3837  -14.5752 C   0  0  0  0  0  0  0  0  0  0  0  0
   19.5959  -19.6225  -14.2271 O   0  0  0  0  0  0  0  0  0  0  0  0
   19.0316  -18.6856  -13.6259 O   0  0  0  0  0  0  0  0  0  0  0  0
  2  3  2  0
  2  1  1  0
  4  2  1  0
  5  4  1  0
  6  5  1  0
  7  6  1  0
  8  9  1  6
  8  7  1  0
 10  8  1  0
 11 10  2  0
 12 10  1  0
 13 19  1  0
 13 12  1  0
 13 14  1  6
 15 14  1  0
 16 15  1  0
 17 16  1  0
 18 17  1  0
 19 20  2  0
 22 21  1  0
 22 24  1  0
 23 22  2  0
 25 24  1  0
 26 25  1  1
 27 19  1  0
 27 26  1  0
 28 30  1  0
 28 26  1  0
 29 28  2  0
M  END
$$$$
