RKQ.pdb
     RDKit          3D

 30 29  0  0  1  0  0  0  0  0999 V2000
   17.2631  -23.6312   -9.9493 N   0  0  0  0  0  0  0  0  0  0  0  0
   18.1101  -24.5723  -10.6416 C   0  0  0  0  0  0  0  0  0  0  0  0
   18.1489  -25.8210  -10.2834 N   0  0  0  0  0  0  0  0  0  0  0  0
   18.9241  -24.1611  -11.7322 N   0  0  0  0  0  0  0  0  0  0  0  0
   18.7675  -22.8346  -12.3110 C   0  0  0  0  0  0  0  0  0  0  0  0
   19.6506  -21.8245  -11.6269 C   0  0  0  0  0  0  0  0  0  0  0  0
   21.0545  -21.8295  -12.1083 C   0  0  0  0  0  0  0  0  0  0  0  0
   21.2626  -21.3358  -13.5110 C   0  0  2  0  0  0  0  0  0  0  0  0
   20.9322  -22.3959  -14.4569 N   0  0  0  0  0  0  0  0  0  0  0  0
   22.6597  -20.9188  -13.7588 C   0  0  0  0  0  0  0  0  0  0  0  0
   23.1997  -20.0256  -13.0522 O   0  0  0  0  0  0  0  0  0  0  0  0
   18.7771  -26.4480  -10.7922 N   0  0  0  0  0  0  0  0  0  0  0  0
   23.3871  -21.5370  -14.8034 C   0  0  1  0  0  0  0  0  0  0  0  0
   24.7625  -21.1266  -15.0722 C   0  0  0  0  0  0  0  0  0  0  0  0
   25.5062  -22.2850  -15.6604 C   0  0  0  0  0  0  0  0  0  0  0  0
   26.9336  -21.9522  -15.9627 C   0  0  0  0  0  0  0  0  0  0  0  0
   27.6378  -23.1327  -16.6240 C   0  0  0  0  0  0  0  0  0  0  0  0
   29.0571  -22.7099  -16.9633 N   0  0  0  0  0  0  0  0  0  0  0  0
   29.7854  -23.7865  -17.5723 C   0  0  0  0  0  0  0  0  0  0  0  0
   24.7092  -20.0096  -16.0703 O   0  0  0  0  0  0  0  0  0  0  0  0
   23.9402  -20.0428  -17.0804 N   0  0  0  0  0  0  0  0  0  0  0  0
   25.4413  -14.0124  -14.8390 C   0  0  0  0  0  0  0  0  0  0  0  0
   24.2922  -14.3905  -15.5761 O   0  0  0  0  0  0  0  0  0  0  0  0
   23.3046  -13.6285  -15.6022 C   0  0  0  0  0  0  0  0  0  0  0  0
   24.2724  -15.6745  -16.3001 C   0  0  0  0  0  0  0  0  0  0  0  0
   25.5303  -16.4556  -16.1783 C   0  0  2  0  0  0  0  0  0  0  0  0
   25.4662  -17.7724  -16.8893 N   0  0  0  0  0  0  0  0  0  0  0  0
   25.5253  -18.8694  -15.9143 C   0  0  0  0  0  0  0  0  0  0  0  0
   26.5286  -17.9419  -17.9064 O   0  0  0  0  0  0  0  0  0  0  0  0
   27.4807  -18.7443  -17.8222 O   0  0  0  0  0  0  0  0  0  0  0  0
  2  3  2  0
  2  1  1  0
  4  2  1  0
  5  4  1  0
  6  5  1  0
  7  6  1  0
  8  9  1  6
  8  7  1  0
 10  8  1  0
 11 10  2  0
 12 10  1  0
 13 19  1  0
 13 12  1  0
 13 14  1  1
 15 14  1  0
 16 15  1  0
 17 16  1  0
 18 17  1  0
 19 20  2  0
 22 21  1  0
 22 24  1  0
 23 22  2  0
 25 24  1  0
 26 25  1  1
 27 19  1  0
 27 26  1  0
 28 30  1  0
 28 26  1  0
 29 28  2  0
M  END
$$$$
