RKQ.pdb
     RDKit          3D

 30 29  0  0  1  0  0  0  0  0999 V2000
   21.2226  -26.6943  -12.6466 N   0  0  0  0  0  0  0  0  0  0  0  0
   21.2879  -25.4426  -13.3615 C   0  0  0  0  0  0  0  0  0  0  0  0
   21.8398  -25.3754  -14.5363 N   0  0  0  0  0  0  0  0  0  0  0  0
   20.7518  -24.2505  -12.8026 N   0  0  0  0  0  0  0  0  0  0  0  0
   20.3694  -24.2006  -11.3988 C   0  0  0  0  0  0  0  0  0  0  0  0
   18.9371  -23.7665  -11.2305 C   0  0  0  0  0  0  0  0  0  0  0  0
   18.2413  -24.4176  -10.0926 C   0  0  0  0  0  0  0  0  0  0  0  0
   18.4322  -25.9025   -9.9776 C   0  0  2  0  0  0  0  0  0  0  0  0
   17.8915  -26.5586  -11.1628 N   0  0  0  0  0  0  0  0  0  0  0  0
   17.7530  -26.4664   -8.7910 C   0  0  0  0  0  0  0  0  0  0  0  0
   16.5606  -26.1569   -8.5242 O   0  0  0  0  0  0  0  0  0  0  0  0
   21.9018  -24.4590  -14.9868 N   0  0  0  0  0  0  0  0  0  0  0  0
   18.4604  -27.3618   -7.9543 C   0  0  1  0  0  0  0  0  0  0  0  0
   17.7845  -27.9815   -6.8179 C   0  0  0  0  0  0  0  0  0  0  0  0
   18.4958  -29.2509   -6.4660 C   0  0  0  0  0  0  0  0  0  0  0  0
   17.8558  -29.9635   -5.3161 C   0  0  0  0  0  0  0  0  0  0  0  0
   18.6010  -31.2552   -4.9956 C   0  0  0  0  0  0  0  0  0  0  0  0
   17.8470  -31.9773   -3.8918 N   0  0  0  0  0  0  0  0  0  0  0  0
   18.5226  -33.1846   -3.5088 C   0  0  0  0  0  0  0  0  0  0  0  0
   17.8739  -27.0245   -5.6678 O   0  0  0  0  0  0  0  0  0  0  0  0
   18.9392  -26.3863   -5.4017 N   0  0  0  0  0  0  0  0  0  0  0  0
   13.6062  -23.0724   -3.6230 C   0  0  0  0  0  0  0  0  0  0  0  0
   14.5235  -23.0766   -2.5436 O   0  0  0  0  0  0  0  0  0  0  0  0
   14.3903  -22.2430   -1.6249 C   0  0  0  0  0  0  0  0  0  0  0  0
   15.6225  -24.0589   -2.5160 C   0  0  0  0  0  0  0  0  0  0  0  0
   15.6403  -24.9776   -3.6835 C   0  0  1  0  0  0  0  0  0  0  0  0
   16.8484  -25.8627   -3.7063 N   0  0  0  0  0  0  0  0  0  0  0  0
   16.7587  -26.8007   -4.8330 C   0  0  0  0  0  0  0  0  0  0  0  0
   17.0534  -26.6074   -2.4432 O   0  0  0  0  0  0  0  0  0  0  0  0
   16.5105  -27.6935   -2.1548 O   0  0  0  0  0  0  0  0  0  0  0  0
  2  3  2  0
  2  1  1  0
  4  2  1  0
  5  4  1  0
  6  5  1  0
  7  6  1  0
  8  9  1  6
  8  7  1  0
 10  8  1  0
 11 10  2  0
 12 10  1  0
 13 19  1  0
 13 12  1  0
 13 14  1  6
 15 14  1  0
 16 15  1  0
 17 16  1  0
 18 17  1  0
 19 20  2  0
 22 21  1  0
 22 24  1  0
 23 22  2  0
 25 24  1  0
 26 25  1  6
 27 19  1  0
 27 26  1  0
 28 30  1  0
 28 26  1  0
 29 28  2  0
M  END
$$$$
