RKQ.pdb
     RDKit          3D

 30 29  0  0  1  0  0  0  0  0999 V2000
   31.4429  -22.2004   -9.7719 N   0  0  0  0  0  0  0  0  0  0  0  0
   31.0121  -21.6879   -8.4936 C   0  0  0  0  0  0  0  0  0  0  0  0
   31.7130  -21.9023   -7.4204 N   0  0  0  0  0  0  0  0  0  0  0  0
   29.8119  -20.9357   -8.3724 N   0  0  0  0  0  0  0  0  0  0  0  0
   29.0442  -20.5751   -9.5556 C   0  0  0  0  0  0  0  0  0  0  0  0
   27.5674  -20.5284   -9.2642 C   0  0  0  0  0  0  0  0  0  0  0  0
   26.7783  -21.5537   -9.9915 C   0  0  0  0  0  0  0  0  0  0  0  0
   26.7823  -21.4361  -11.4884 C   0  0  2  0  0  0  0  0  0  0  0  0
   27.9395  -20.6572  -11.9149 N   0  0  0  0  0  0  0  0  0  0  0  0
   25.5661  -20.7705  -12.0033 C   0  0  0  0  0  0  0  0  0  0  0  0
   25.4245  -19.5221  -11.9033 O   0  0  0  0  0  0  0  0  0  0  0  0
   31.4242  -21.4368   -6.5564 N   0  0  0  0  0  0  0  0  0  0  0  0
   24.5583  -21.5550  -12.6125 C   0  0  1  0  0  0  0  0  0  0  0  0
   23.7676  -20.9991  -13.7071 C   0  0  0  0  0  0  0  0  0  0  0  0
   24.1078  -21.7296  -14.9686 C   0  0  0  0  0  0  0  0  0  0  0  0
   23.1342  -22.8244  -15.2740 C   0  0  0  0  0  0  0  0  0  0  0  0
   23.5436  -23.5784  -16.5352 C   0  0  0  0  0  0  0  0  0  0  0  0
   22.5854  -24.7421  -16.7251 N   0  0  0  0  0  0  0  0  0  0  0  0
   22.8297  -25.4148  -17.9694 C   0  0  0  0  0  0  0  0  0  0  0  0
   22.3234  -21.2236  -13.3748 O   0  0  0  0  0  0  0  0  0  0  0  0
   21.9123  -22.3016  -12.8440 N   0  0  0  0  0  0  0  0  0  0  0  0
   18.9889  -21.5916  -17.8482 C   0  0  0  0  0  0  0  0  0  0  0  0
   18.5054  -22.4244  -16.8092 O   0  0  0  0  0  0  0  0  0  0  0  0
   17.8243  -23.4290  -17.0980 C   0  0  0  0  0  0  0  0  0  0  0  0
   18.8075  -22.0976  -15.4038 C   0  0  0  0  0  0  0  0  0  0  0  0
   19.6447  -20.8822  -15.2332 C   0  0  1  0  0  0  0  0  0  0  0  0
   19.9446  -20.5817  -13.7967 N   0  0  0  0  0  0  0  0  0  0  0  0
   21.3620  -20.2273  -13.6463 C   0  0  0  0  0  0  0  0  0  0  0  0
   19.6012  -21.6934  -12.8812 O   0  0  0  0  0  0  0  0  0  0  0  0
   20.0980  -22.8374  -12.9242 O   0  0  0  0  0  0  0  0  0  0  0  0
  2  3  2  0
  2  1  1  0
  4  2  1  0
  5  4  1  0
  6  5  1  0
  7  6  1  0
  8  9  1  1
  8  7  1  0
 10  8  1  0
 11 10  2  0
 12 10  1  0
 13 19  1  0
 13 12  1  0
 13 14  1  6
 15 14  1  0
 16 15  1  0
 17 16  1  0
 18 17  1  0
 19 20  2  0
 22 21  1  0
 22 24  1  0
 23 22  2  0
 25 24  1  0
 26 25  1  6
 27 19  1  0
 27 26  1  0
 28 30  1  0
 28 26  1  0
 29 28  2  0
M  END
$$$$
