RKQ.pdb
     RDKit          3D

 30 29  0  0  1  0  0  0  0  0999 V2000
   18.2310  -25.0682  -11.8341 N   0  0  0  0  0  0  0  0  0  0  0  0
   18.1157  -23.6973  -11.3989 C   0  0  0  0  0  0  0  0  0  0  0  0
   18.1114  -23.3990  -10.1339 N   0  0  0  0  0  0  0  0  0  0  0  0
   18.0039  -22.6368  -12.3391 N   0  0  0  0  0  0  0  0  0  0  0  0
   19.1436  -22.2558  -13.1608 C   0  0  0  0  0  0  0  0  0  0  0  0
   20.4073  -22.1653  -12.3465 C   0  0  0  0  0  0  0  0  0  0  0  0
   21.3057  -21.0557  -12.7522 C   0  0  0  0  0  0  0  0  0  0  0  0
   21.4743  -20.8635  -14.2318 C   0  0  2  0  0  0  0  0  0  0  0  0
   21.2913  -22.1392  -14.9149 N   0  0  0  0  0  0  0  0  0  0  0  0
   22.8137  -20.3434  -14.5822 C   0  0  0  0  0  0  0  0  0  0  0  0
   23.2747  -19.3174  -14.0134 O   0  0  0  0  0  0  0  0  0  0  0  0
   18.0163  -22.4146   -9.8723 N   0  0  0  0  0  0  0  0  0  0  0  0
   23.5757  -21.0140  -15.5681 C   0  0  1  0  0  0  0  0  0  0  0  0
   24.8068  -20.4098  -16.0698 C   0  0  0  0  0  0  0  0  0  0  0  0
   25.5658  -21.4369  -16.8508 C   0  0  0  0  0  0  0  0  0  0  0  0
   26.8458  -21.8304  -16.1828 C   0  0  0  0  0  0  0  0  0  0  0  0
   27.6149  -22.8364  -17.0332 C   0  0  0  0  0  0  0  0  0  0  0  0
   29.0081  -22.9877  -16.4464 N   0  0  0  0  0  0  0  0  0  0  0  0
   29.8094  -23.8760  -17.2398 C   0  0  0  0  0  0  0  0  0  0  0  0
   24.4148  -19.2828  -16.9770 O   0  0  0  0  0  0  0  0  0  0  0  0
   23.2201  -18.8584  -17.0492 N   0  0  0  0  0  0  0  0  0  0  0  0
   27.4695  -14.6726  -15.5081 C   0  0  0  0  0  0  0  0  0  0  0  0
   26.0659  -14.5219  -15.3906 O   0  0  0  0  0  0  0  0  0  0  0  0
   25.6021  -13.4651  -14.9166 C   0  0  0  0  0  0  0  0  0  0  0  0
   25.1704  -15.6096  -15.8247 C   0  0  0  0  0  0  0  0  0  0  0  0
   25.8811  -16.8438  -16.2480 C   0  0  2  0  0  0  0  0  0  0  0  0
   25.6150  -17.2048  -17.6771 N   0  0  0  0  0  0  0  0  0  0  0  0
   25.3778  -18.6498  -17.7911 C   0  0  0  0  0  0  0  0  0  0  0  0
   26.7009  -16.7964  -18.5969 O   0  0  0  0  0  0  0  0  0  0  0  0
   26.6566  -15.8167  -19.3687 O   0  0  0  0  0  0  0  0  0  0  0  0
  2  3  2  0
  2  1  1  0
  4  2  1  0
  5  4  1  0
  6  5  1  0
  7  6  1  0
  8  9  1  6
  8  7  1  0
 10  8  1  0
 11 10  2  0
 12 10  1  0
 13 19  1  0
 13 12  1  0
 13 14  1  1
 15 14  1  0
 16 15  1  0
 17 16  1  0
 18 17  1  0
 19 20  2  0
 22 21  1  0
 22 24  1  0
 23 22  2  0
 25 24  1  0
 26 25  1  1
 27 19  1  0
 27 26  1  0
 28 30  1  0
 28 26  1  0
 29 28  2  0
M  END
$$$$
