RKQ.pdb
     RDKit          3D

 30 29  0  0  1  0  0  0  0  0999 V2000
   18.2498  -25.3909  -12.6245 N   0  0  0  0  0  0  0  0  0  0  0  0
   18.3192  -23.9914  -12.9690 C   0  0  0  0  0  0  0  0  0  0  0  0
   18.5569  -23.6181  -14.1910 N   0  0  0  0  0  0  0  0  0  0  0  0
   18.1301  -22.9838  -11.9841 N   0  0  0  0  0  0  0  0  0  0  0  0
   17.6531  -23.3326  -10.6537 C   0  0  0  0  0  0  0  0  0  0  0  0
   18.7699  -23.8421   -9.7811 C   0  0  0  0  0  0  0  0  0  0  0  0
   18.3383  -24.2223   -8.4130 C   0  0  0  0  0  0  0  0  0  0  0  0
   18.7788  -25.5797   -7.9460 C   0  0  2  0  0  0  0  0  0  0  0  0
   18.6757  -26.5326   -9.0455 N   0  0  0  0  0  0  0  0  0  0  0  0
   17.9564  -26.0826   -6.8244 C   0  0  0  0  0  0  0  0  0  0  0  0
   17.0453  -26.9304   -7.0239 O   0  0  0  0  0  0  0  0  0  0  0  0
   18.5815  -22.6152  -14.3914 N   0  0  0  0  0  0  0  0  0  0  0  0
   18.2052  -25.5988   -5.5181 C   0  0  1  0  0  0  0  0  0  0  0  0
   17.3714  -26.0476   -4.4064 C   0  0  0  0  0  0  0  0  0  0  0  0
   18.2586  -26.5058   -3.2912 C   0  0  0  0  0  0  0  0  0  0  0  0
   17.4824  -26.9714   -2.0994 C   0  0  0  0  0  0  0  0  0  0  0  0
   18.4192  -27.4480   -0.9940 C   0  0  0  0  0  0  0  0  0  0  0  0
   17.5781  -28.0800    0.1020 N   0  0  0  0  0  0  0  0  0  0  0  0
   18.4057  -28.6056    1.1505 C   0  0  0  0  0  0  0  0  0  0  0  0
   16.5634  -24.8706   -3.9495 O   0  0  0  0  0  0  0  0  0  0  0  0
   16.9570  -23.6750   -4.1183 N   0  0  0  0  0  0  0  0  0  0  0  0
   12.8206  -21.2019   -5.7731 C   0  0  0  0  0  0  0  0  0  0  0  0
   12.9876  -22.4483   -6.4253 O   0  0  0  0  0  0  0  0  0  0  0  0
   13.3413  -22.4697   -7.6216 C   0  0  0  0  0  0  0  0  0  0  0  0
   12.7414  -23.7021   -5.6900 C   0  0  0  0  0  0  0  0  0  0  0  0
   13.9771  -24.3728   -5.2099 C   0  0  1  0  0  0  0  0  0  0  0  0
   14.1433  -24.2870   -3.7237 N   0  0  0  0  0  0  0  0  0  0  0  0
   15.3212  -25.0596   -3.3078 C   0  0  0  0  0  0  0  0  0  0  0  0
   12.9503  -24.7404   -2.9733 O   0  0  0  0  0  0  0  0  0  0  0  0
   12.0110  -24.0048   -2.6072 O   0  0  0  0  0  0  0  0  0  0  0  0
  2  3  2  0
  2  1  1  0
  4  2  1  0
  5  4  1  0
  6  5  1  0
  7  6  1  0
  8  9  1  6
  8  7  1  0
 10  8  1  0
 11 10  2  0
 12 10  1  0
 13 19  1  0
 13 12  1  0
 13 14  1  6
 15 14  1  0
 16 15  1  0
 17 16  1  0
 18 17  1  0
 19 20  2  0
 22 21  1  0
 22 24  1  0
 23 22  2  0
 25 24  1  0
 26 25  1  6
 27 19  1  0
 27 26  1  0
 28 30  1  0
 28 26  1  0
 29 28  2  0
M  END
$$$$
