RKQ.pdb
     RDKit          3D

 30 29  0  0  1  0  0  0  0  0999 V2000
   19.5529  -26.4354  -10.5795 N   0  0  0  0  0  0  0  0  0  0  0  0
   19.5340  -25.0209  -10.8640 C   0  0  0  0  0  0  0  0  0  0  0  0
   19.6463  -24.5860  -12.0836 N   0  0  0  0  0  0  0  0  0  0  0  0
   19.3922  -24.0654   -9.8210 N   0  0  0  0  0  0  0  0  0  0  0  0
   19.1584  -24.4978   -8.4508 C   0  0  0  0  0  0  0  0  0  0  0  0
   17.7062  -24.3738   -8.0715 C   0  0  0  0  0  0  0  0  0  0  0  0
   17.3988  -24.8586   -6.7028 C   0  0  0  0  0  0  0  0  0  0  0  0
   17.3330  -26.3499   -6.5407 C   0  0  2  0  0  0  0  0  0  0  0  0
   16.2728  -26.8876   -7.3860 N   0  0  0  0  0  0  0  0  0  0  0  0
   17.0554  -26.7521   -5.1448 C   0  0  0  0  0  0  0  0  0  0  0  0
   15.9482  -26.4834   -4.6058 O   0  0  0  0  0  0  0  0  0  0  0  0
   19.5440  -23.5814  -12.2473 N   0  0  0  0  0  0  0  0  0  0  0  0
   18.0518  -27.4454   -4.4177 C   0  0  2  0  0  0  0  0  0  0  0  0
   17.7971  -27.8449   -3.0364 C   0  0  0  0  0  0  0  0  0  0  0  0
   18.8016  -28.8816   -2.6401 C   0  0  0  0  0  0  0  0  0  0  0  0
   18.5680  -30.1927   -3.3229 C   0  0  0  0  0  0  0  0  0  0  0  0
   19.5805  -31.2346   -2.8581 C   0  0  0  0  0  0  0  0  0  0  0  0
   19.2788  -32.5415   -3.5716 N   0  0  0  0  0  0  0  0  0  0  0  0
   20.1162  -33.6011   -3.0852 C   0  0  0  0  0  0  0  0  0  0  0  0
   17.9718  -26.6278   -2.1792 O   0  0  0  0  0  0  0  0  0  0  0  0
   18.5710  -25.5886   -2.5961 N   0  0  0  0  0  0  0  0  0  0  0  0
   13.9171  -23.7532   -2.9987 C   0  0  0  0  0  0  0  0  0  0  0  0
   14.1462  -23.0997   -1.7629 O   0  0  0  0  0  0  0  0  0  0  0  0
   13.4767  -22.0875   -1.4734 C   0  0  0  0  0  0  0  0  0  0  0  0
   15.1691  -23.6170   -0.8359 C   0  0  0  0  0  0  0  0  0  0  0  0
   15.8663  -24.8345   -1.3247 C   0  0  1  0  0  0  0  0  0  0  0  0
   16.8420  -25.3828   -0.3292 N   0  0  0  0  0  0  0  0  0  0  0  0
   17.4673  -26.6004   -0.8618 C   0  0  0  0  0  0  0  0  0  0  0  0
   16.2365  -25.6618    0.9927 O   0  0  0  0  0  0  0  0  0  0  0  0
   15.3312  -26.4940    1.2056 O   0  0  0  0  0  0  0  0  0  0  0  0
  2  3  2  0
  2  1  1  0
  4  2  1  0
  5  4  1  0
  6  5  1  0
  7  6  1  0
  8  9  1  6
  8  7  1  0
 10  8  1  0
 11 10  2  0
 12 10  1  0
 13 19  1  0
 13 12  1  0
 13 14  1  6
 15 14  1  0
 16 15  1  0
 17 16  1  0
 18 17  1  0
 19 20  2  0
 22 21  1  0
 22 24  1  0
 23 22  2  0
 25 24  1  0
 26 25  1  6
 27 19  1  0
 27 26  1  0
 28 30  1  0
 28 26  1  0
 29 28  2  0
M  END
$$$$
