RKQ.pdb
     RDKit          3D

 30 29  0  0  1  0  0  0  0  0999 V2000
   31.4533  -21.6695  -19.4714 N   0  0  0  0  0  0  0  0  0  0  0  0
   30.8188  -21.6268  -20.7667 C   0  0  0  0  0  0  0  0  0  0  0  0
   31.5142  -21.7819  -21.8536 N   0  0  0  0  0  0  0  0  0  0  0  0
   29.4185  -21.4145  -20.8902 N   0  0  0  0  0  0  0  0  0  0  0  0
   28.5740  -21.3536  -19.7060 C   0  0  0  0  0  0  0  0  0  0  0  0
   29.1153  -22.2149  -18.5954 C   0  0  0  0  0  0  0  0  0  0  0  0
   28.1418  -22.4721  -17.5050 C   0  0  0  0  0  0  0  0  0  0  0  0
   27.4471  -21.2601  -16.9545 C   0  0  2  0  0  0  0  0  0  0  0  0
   28.4309  -20.3553  -16.3705 N   0  0  0  0  0  0  0  0  0  0  0  0
   26.4616  -21.6044  -15.9068 C   0  0  0  0  0  0  0  0  0  0  0  0
   25.6052  -22.5085  -16.1010 O   0  0  0  0  0  0  0  0  0  0  0  0
   31.0155  -21.7884  -22.7469 N   0  0  0  0  0  0  0  0  0  0  0  0
   26.4913  -20.9038  -14.6777 C   0  0  1  0  0  0  0  0  0  0  0  0
   25.5769  -21.2822  -13.6039 C   0  0  0  0  0  0  0  0  0  0  0  0
   26.0808  -20.7096  -12.3159 C   0  0  0  0  0  0  0  0  0  0  0  0
   25.2757  -21.1604  -11.1376 C   0  0  0  0  0  0  0  0  0  0  0  0
   25.8903  -20.6565   -9.8356 C   0  0  0  0  0  0  0  0  0  0  0  0
   25.0617  -21.1924   -8.6805 N   0  0  0  0  0  0  0  0  0  0  0  0
   25.6405  -20.8305   -7.4177 C   0  0  0  0  0  0  0  0  0  0  0  0
   24.2392  -20.6869  -13.9248 O   0  0  0  0  0  0  0  0  0  0  0  0
   24.1034  -19.4665  -14.2488 N   0  0  0  0  0  0  0  0  0  0  0  0
   18.6869  -23.8416  -14.5779 C   0  0  0  0  0  0  0  0  0  0  0  0
   18.3548  -22.4819  -14.7966 O   0  0  0  0  0  0  0  0  0  0  0  0
   17.1886  -22.1826  -15.1240 C   0  0  0  0  0  0  0  0  0  0  0  0
   19.3842  -21.4386  -14.6385 C   0  0  0  0  0  0  0  0  0  0  0  0
   20.7355  -21.9674  -14.3197 C   0  0  2  0  0  0  0  0  0  0  0  0
   21.7582  -20.8851  -14.1575 N   0  0  0  0  0  0  0  0  0  0  0  0
   23.0721  -21.4781  -13.8755 C   0  0  0  0  0  0  0  0  0  0  0  0
   21.4104  -19.9027  -13.1059 O   0  0  0  0  0  0  0  0  0  0  0  0
   21.4281  -20.1292  -11.8788 O   0  0  0  0  0  0  0  0  0  0  0  0
  2  3  2  0
  2  1  1  0
  4  2  1  0
  5  4  1  0
  6  5  1  0
  7  6  1  0
  8  9  1  1
  8  7  1  0
 10  8  1  0
 11 10  2  0
 12 10  1  0
 13 19  1  0
 13 12  1  0
 13 14  1  6
 15 14  1  0
 16 15  1  0
 17 16  1  0
 18 17  1  0
 19 20  2  0
 22 21  1  0
 22 24  1  0
 23 22  2  0
 25 24  1  0
 26 25  1  6
 27 19  1  0
 27 26  1  0
 28 30  1  0
 28 26  1  0
 29 28  2  0
M  END
$$$$
