TDH.pdb
     RDKit          3D

 26 26  0  0  1  0  0  0  0  0999 V2000
    7.7483  -12.3194   18.2366 C   0  0  0  0  0  0  0  0  0  0  0  0
    8.7690  -13.2419   18.8143 C   0  0  1  0  0  0  0  0  0  0  0  0
    8.0918  -14.2440   19.5292 O   0  0  0  0  0  0  0  0  0  0  0  0
    9.6389  -13.9326   17.7923 C   0  0  2  0  0  0  0  0  0  0  0  0
    8.7692  -14.6377   16.8618 N   0  0  0  0  0  0  0  0  0  0  0  0
   10.5975  -14.9019   18.4365 C   0  0  0  0  0  0  0  0  0  0  0  0
   10.2539  -16.0990   18.5451 O   0  0  0  0  0  0  0  0  0  0  0  0
   11.8505  -14.4733   18.9060 N   0  0  0  0  0  0  0  0  0  0  0  0
   12.8101  -15.1600   19.7110 C   0  0  1  0  0  0  0  0  0  0  0  0
   14.2650  -14.7878   19.4764 C   0  0  0  0  0  0  0  0  0  0  0  0
   14.7010  -14.9972   18.0798 C   0  0  0  0  0  0  0  0  0  0  0  0
   14.4966  -16.1103   17.5368 O   0  0  0  0  0  0  0  0  0  0  0  0
   12.4575  -15.3761   21.1063 C   0  0  0  0  0  0  0  0  0  0  0  0
   12.7579  -14.4898   21.9423 O   0  0  0  0  0  0  0  0  0  0  0  0
   15.3262  -14.0129   17.3459 O   0  0  0  0  0  0  0  0  0  0  0  0
   11.7986  -16.5403   21.5194 N   0  0  0  0  0  0  0  0  0  0  0  0
   11.4139  -16.7785   22.9196 C   0  0  1  0  0  0  0  0  0  0  0  0
    9.9471  -17.2192   22.8436 C   0  0  0  0  0  0  0  0  0  0  0  0
    9.0399  -16.1042   22.6162 C   0  0  0  0  0  0  0  0  0  0  0  0
    9.3785  -14.7739   22.5329 C   0  0  0  0  0  0  0  0  0  0  0  0
    8.2426  -14.0545   22.3135 N   0  0  0  0  0  0  0  0  0  0  0  0
    7.2199  -14.9101   22.2606 C   0  0  0  0  0  0  0  0  0  0  0  0
    7.7101  -16.1709   22.4465 N   0  0  0  0  0  0  0  0  0  0  0  0
   12.2808  -17.8663   23.4297 C   0  0  0  0  0  0  0  0  0  0  0  0
   12.9945  -18.5075   22.6127 O   0  0  0  0  0  0  0  0  0  0  0  0
   12.3623  -18.2332   24.7660 O   0  0  0  0  0  0  0  0  0  0  0  0
  2  1  1  6
  2  4  1  0
  3  2  1  0
  4  5  1  6
  6  4  1  0
  7  6  2  0
  8  6  1  0
  9  8  1  0
  9 10  1  1
 10 11  1  0
 11 15  1  0
 12 11  2  0
 13  9  1  0
 14 13  2  0
 16 13  1  0
 17 16  1  0
 17 18  1  6
 18 19  1  0
 19 23  1  0
 20 19  2  0
 20 21  1  0
 21 22  1  0
 23 22  2  0
 24 26  1  0
 24 17  1  0
 25 24  2  0
M  END
$$$$
