TDH.pdb
     RDKit          3D

 26 26  0  0  1  0  0  0  0  0999 V2000
   10.1597  -13.2175   19.4058 C   0  0  0  0  0  0  0  0  0  0  0  0
    9.0298  -13.5608   18.4937 C   0  0  1  0  0  0  0  0  0  0  0  0
    9.0150  -12.6208   17.4496 O   0  0  0  0  0  0  0  0  0  0  0  0
    9.1275  -14.9283   17.8623 C   0  0  2  0  0  0  0  0  0  0  0  0
    7.9943  -15.0923   16.9632 N   0  0  0  0  0  0  0  0  0  0  0  0
    9.1263  -16.0243   18.8977 C   0  0  0  0  0  0  0  0  0  0  0  0
    8.0278  -16.4585   19.3070 O   0  0  0  0  0  0  0  0  0  0  0  0
   10.3313  -16.5490   19.3945 N   0  0  0  0  0  0  0  0  0  0  0  0
   10.5555  -17.6510   20.2753 C   0  0  1  0  0  0  0  0  0  0  0  0
   11.6436  -18.6268   19.8579 C   0  0  0  0  0  0  0  0  0  0  0  0
   11.7243  -19.8163   20.7312 C   0  0  0  0  0  0  0  0  0  0  0  0
   10.7162  -20.5543   20.8525 O   0  0  0  0  0  0  0  0  0  0  0  0
   10.5113  -17.3668   21.7019 C   0  0  0  0  0  0  0  0  0  0  0  0
   10.5343  -18.3316   22.5039 O   0  0  0  0  0  0  0  0  0  0  0  0
   12.8694  -20.1496   21.4212 O   0  0  0  0  0  0  0  0  0  0  0  0
   10.4450  -16.0532   22.1813 N   0  0  0  0  0  0  0  0  0  0  0  0
   10.3959  -15.7354   23.6173 C   0  0  1  0  0  0  0  0  0  0  0  0
    8.9068  -15.8128   23.9754 C   0  0  0  0  0  0  0  0  0  0  0  0
    8.0700  -15.0643   23.0495 C   0  0  0  0  0  0  0  0  0  0  0  0
    7.7597  -13.7264   23.1207 C   0  0  0  0  0  0  0  0  0  0  0  0
    6.9532  -13.4159   22.0677 N   0  0  0  0  0  0  0  0  0  0  0  0
    6.7629  -14.5283   21.3556 C   0  0  0  0  0  0  0  0  0  0  0  0
    7.4499  -15.5423   21.9592 N   0  0  0  0  0  0  0  0  0  0  0  0
   11.1773  -16.7792   24.3207 C   0  0  0  0  0  0  0  0  0  0  0  0
   11.6607  -17.7306   23.6504 O   0  0  0  0  0  0  0  0  0  0  0  0
   11.4174  -16.7812   25.6879 O   0  0  0  0  0  0  0  0  0  0  0  0
  2  1  1  1
  2  4  1  0
  3  2  1  0
  4  5  1  6
  6  4  1  0
  7  6  2  0
  8  6  1  0
  9  8  1  0
  9 10  1  6
 10 11  1  0
 11 15  1  0
 12 11  2  0
 13  9  1  0
 14 13  2  0
 16 13  1  0
 17 16  1  0
 17 18  1  1
 18 19  1  0
 19 23  1  0
 20 19  2  0
 20 21  1  0
 21 22  1  0
 23 22  2  0
 24 26  1  0
 24 17  1  0
 25 24  2  0
M  END
$$$$
