TDH.pdb
     RDKit          3D

 26 26  0  0  1  0  0  0  0  0999 V2000
    7.9741  -12.5666   17.6921 C   0  0  0  0  0  0  0  0  0  0  0  0
    8.0988  -13.8086   18.5096 C   0  0  1  0  0  0  0  0  0  0  0  0
    8.8352  -14.7452   17.7650 O   0  0  0  0  0  0  0  0  0  0  0  0
    8.8136  -13.6231   19.8260 C   0  0  2  0  0  0  0  0  0  0  0  0
   10.1765  -13.1964   19.5433 N   0  0  0  0  0  0  0  0  0  0  0  0
    8.8296  -14.8932   20.6384 C   0  0  0  0  0  0  0  0  0  0  0  0
    7.7385  -15.3854   20.9993 O   0  0  0  0  0  0  0  0  0  0  0  0
   10.0419  -15.5132   20.9846 N   0  0  0  0  0  0  0  0  0  0  0  0
   10.2936  -16.5906   21.8881 C   0  0  1  0  0  0  0  0  0  0  0  0
   11.3559  -17.5881   21.4560 C   0  0  0  0  0  0  0  0  0  0  0  0
   11.5116  -18.7165   22.3976 C   0  0  0  0  0  0  0  0  0  0  0  0
   10.7927  -19.7354   22.2539 O   0  0  0  0  0  0  0  0  0  0  0  0
   10.3104  -16.2638   23.3062 C   0  0  0  0  0  0  0  0  0  0  0  0
   11.2353  -15.5350   23.7399 O   0  0  0  0  0  0  0  0  0  0  0  0
   12.4204  -18.6943   23.4330 O   0  0  0  0  0  0  0  0  0  0  0  0
    9.3245  -16.7441   24.1763 N   0  0  0  0  0  0  0  0  0  0  0  0
    9.2798  -16.3799   25.6014 C   0  0  1  0  0  0  0  0  0  0  0  0
    7.7935  -16.1320   25.8864 C   0  0  0  0  0  0  0  0  0  0  0  0
    7.4229  -14.7322   25.7416 C   0  0  0  0  0  0  0  0  0  0  0  0
    8.2747  -13.6763   25.5164 C   0  0  0  0  0  0  0  0  0  0  0  0
    7.5342  -12.5351   25.4434 N   0  0  0  0  0  0  0  0  0  0  0  0
    6.2533  -12.8663   25.6179 C   0  0  0  0  0  0  0  0  0  0  0  0
    6.1846  -14.2177   25.8011 N   0  0  0  0  0  0  0  0  0  0  0  0
    9.7912  -17.5428   26.3637 C   0  0  0  0  0  0  0  0  0  0  0  0
    9.8327  -18.6685   25.7985 O   0  0  0  0  0  0  0  0  0  0  0  0
   10.2345  -17.4769   27.6775 O   0  0  0  0  0  0  0  0  0  0  0  0
  2  1  1  6
  2  4  1  0
  3  2  1  0
  4  5  1  6
  6  4  1  0
  7  6  2  0
  8  6  1  0
  9  8  1  0
  9 10  1  6
 10 11  1  0
 11 15  1  0
 12 11  2  0
 13  9  1  0
 14 13  2  0
 16 13  1  0
 17 16  1  0
 17 18  1  1
 18 19  1  0
 19 23  1  0
 20 19  2  0
 20 21  1  0
 21 22  1  0
 23 22  2  0
 24 26  1  0
 24 17  1  0
 25 24  2  0
M  END
$$$$
