TDH.pdb
     RDKit          3D

 26 26  0  0  1  0  0  0  0  0999 V2000
    6.9170  -13.1067   19.1976 C   0  0  0  0  0  0  0  0  0  0  0  0
    8.1305  -13.7225   18.5855 C   0  0  1  0  0  0  0  0  0  0  0  0
    8.4133  -13.0317   17.3953 O   0  0  0  0  0  0  0  0  0  0  0  0
    9.3688  -13.6555   19.4459 C   0  0  2  0  0  0  0  0  0  0  0  0
   10.5193  -13.9541   18.6052 N   0  0  0  0  0  0  0  0  0  0  0  0
    9.3048  -14.6285   20.5959 C   0  0  0  0  0  0  0  0  0  0  0  0
    8.3851  -14.5040   21.4335 O   0  0  0  0  0  0  0  0  0  0  0  0
   10.2562  -15.6540   20.7274 N   0  0  0  0  0  0  0  0  0  0  0  0
   10.3177  -16.7309   21.6639 C   0  0  1  0  0  0  0  0  0  0  0  0
   11.1469  -17.9332   21.2430 C   0  0  0  0  0  0  0  0  0  0  0  0
   11.0479  -19.0668   22.1860 C   0  0  0  0  0  0  0  0  0  0  0  0
   11.9211  -19.1968   23.0783 O   0  0  0  0  0  0  0  0  0  0  0  0
   10.4439  -16.3694   23.0679 C   0  0  0  0  0  0  0  0  0  0  0  0
   11.4593  -15.7272   23.4302 O   0  0  0  0  0  0  0  0  0  0  0  0
   10.0288  -19.9921   22.1242 O   0  0  0  0  0  0  0  0  0  0  0  0
    9.4632  -16.7230   24.0023 N   0  0  0  0  0  0  0  0  0  0  0  0
    9.5729  -16.3885   25.4311 C   0  0  1  0  0  0  0  0  0  0  0  0
    8.1218  -16.2166   25.8962 C   0  0  0  0  0  0  0  0  0  0  0  0
    7.6349  -14.8570   25.7162 C   0  0  0  0  0  0  0  0  0  0  0  0
    8.3595  -13.7780   25.2670 C   0  0  0  0  0  0  0  0  0  0  0  0
    7.5395  -12.6904   25.2418 N   0  0  0  0  0  0  0  0  0  0  0  0
    6.3339  -13.0768   25.6636 C   0  0  0  0  0  0  0  0  0  0  0  0
    6.3922  -14.4094   25.9553 N   0  0  0  0  0  0  0  0  0  0  0  0
   10.2231  -17.5402   26.0987 C   0  0  0  0  0  0  0  0  0  0  0  0
   10.4188  -17.4898   27.3426 O   0  0  0  0  0  0  0  0  0  0  0  0
   10.6378  -18.6886   25.4382 O   0  0  0  0  0  0  0  0  0  0  0  0
  2  1  1  1
  2  4  1  0
  3  2  1  0
  4  5  1  6
  6  4  1  0
  7  6  2  0
  8  6  1  0
  9  8  1  0
  9 10  1  6
 10 11  1  0
 11 15  1  0
 12 11  2  0
 13  9  1  0
 14 13  2  0
 16 13  1  0
 17 16  1  0
 17 18  1  1
 18 19  1  0
 19 23  1  0
 20 19  2  0
 20 21  1  0
 21 22  1  0
 23 22  2  0
 24 26  1  0
 24 17  1  0
 25 24  2  0
M  END
$$$$
