TDH.pdb
     RDKit          3D

 26 26  0  0  1  0  0  0  0  0999 V2000
    7.5992  -12.5880   18.9879 C   0  0  0  0  0  0  0  0  0  0  0  0
    8.2166  -13.4312   20.0529 C   0  0  1  0  0  0  0  0  0  0  0  0
    7.6753  -13.0349   21.2874 O   0  0  0  0  0  0  0  0  0  0  0  0
    7.9601  -14.9115   19.9073 C   0  0  2  0  0  0  0  0  0  0  0  0
    6.5316  -15.1041   19.7027 N   0  0  0  0  0  0  0  0  0  0  0  0
    8.4147  -15.6807   21.1218 C   0  0  0  0  0  0  0  0  0  0  0  0
    7.5569  -16.0399   21.9573 O   0  0  0  0  0  0  0  0  0  0  0  0
    9.7719  -15.9890   21.3145 N   0  0  0  0  0  0  0  0  0  0  0  0
   10.4211  -16.6077   22.4263 C   0  0  1  0  0  0  0  0  0  0  0  0
   11.8177  -17.1481   22.1660 C   0  0  0  0  0  0  0  0  0  0  0  0
   12.3738  -17.8986   23.3113 C   0  0  0  0  0  0  0  0  0  0  0  0
   13.4398  -17.5015   23.8418 O   0  0  0  0  0  0  0  0  0  0  0  0
   10.2512  -15.9666   23.7217 C   0  0  0  0  0  0  0  0  0  0  0  0
   10.4637  -14.7331   23.8098 O   0  0  0  0  0  0  0  0  0  0  0  0
   11.7645  -19.0235   23.8230 O   0  0  0  0  0  0  0  0  0  0  0  0
    9.8603  -16.6968   24.8503 N   0  0  0  0  0  0  0  0  0  0  0  0
    9.3768  -16.0531   26.0822 C   0  0  1  0  0  0  0  0  0  0  0  0
    7.8825  -15.8184   25.8300 C   0  0  0  0  0  0  0  0  0  0  0  0
    7.4637  -14.4674   26.1724 C   0  0  0  0  0  0  0  0  0  0  0  0
    8.2561  -13.4670   26.6847 C   0  0  0  0  0  0  0  0  0  0  0  0
    7.4851  -12.3585   26.8656 N   0  0  0  0  0  0  0  0  0  0  0  0
    6.2435  -12.6556   26.4773 C   0  0  0  0  0  0  0  0  0  0  0  0
    6.2301  -13.9526   26.0507 N   0  0  0  0  0  0  0  0  0  0  0  0
    9.5953  -17.0132   27.1891 C   0  0  0  0  0  0  0  0  0  0  0  0
    9.5063  -16.6010   28.3767 O   0  0  0  0  0  0  0  0  0  0  0  0
    9.8959  -18.3559   27.0054 O   0  0  0  0  0  0  0  0  0  0  0  0
  2  1  1  6
  2  4  1  0
  3  2  1  0
  4  5  1  1
  6  4  1  0
  7  6  2  0
  8  6  1  0
  9  8  1  0
  9 10  1  6
 10 11  1  0
 11 15  1  0
 12 11  2  0
 13  9  1  0
 14 13  2  0
 16 13  1  0
 17 16  1  0
 17 18  1  6
 18 19  1  0
 19 23  1  0
 20 19  2  0
 20 21  1  0
 21 22  1  0
 23 22  2  0
 24 26  1  0
 24 17  1  0
 25 24  2  0
M  END
$$$$
