TDH.pdb
     RDKit          3D

 26 26  0  0  1  0  0  0  0  0999 V2000
    7.7864  -12.5856   17.1788 C   0  0  0  0  0  0  0  0  0  0  0  0
    8.7258  -13.3828   18.0204 C   0  0  1  0  0  0  0  0  0  0  0  0
    7.9602  -14.2005   18.8684 O   0  0  0  0  0  0  0  0  0  0  0  0
    9.6500  -14.2876   17.2424 C   0  0  2  0  0  0  0  0  0  0  0  0
    8.8322  -15.1890   16.4434 N   0  0  0  0  0  0  0  0  0  0  0  0
   10.5531  -15.0815   18.1521 C   0  0  0  0  0  0  0  0  0  0  0  0
   10.1576  -16.1934   18.5647 O   0  0  0  0  0  0  0  0  0  0  0  0
   11.8122  -14.5862   18.5305 N   0  0  0  0  0  0  0  0  0  0  0  0
   12.7067  -15.0405   19.5474 C   0  0  1  0  0  0  0  0  0  0  0  0
   14.1591  -14.6194   19.3939 C   0  0  0  0  0  0  0  0  0  0  0  0
   15.0599  -15.2722   20.3668 C   0  0  0  0  0  0  0  0  0  0  0  0
   15.0496  -16.5236   20.4642 O   0  0  0  0  0  0  0  0  0  0  0  0
   12.2093  -15.0135   20.9148 C   0  0  0  0  0  0  0  0  0  0  0  0
   12.3827  -13.9718   21.5927 O   0  0  0  0  0  0  0  0  0  0  0  0
   15.9159  -14.5572   21.1758 O   0  0  0  0  0  0  0  0  0  0  0  0
   11.5513  -16.1160   21.4727 N   0  0  0  0  0  0  0  0  0  0  0  0
   11.0968  -16.1427   22.8720 C   0  0  1  0  0  0  0  0  0  0  0  0
    9.6382  -16.6092   22.7915 C   0  0  0  0  0  0  0  0  0  0  0  0
    8.7395  -15.5575   22.3397 C   0  0  0  0  0  0  0  0  0  0  0  0
    7.5599  -15.7243   21.6528 C   0  0  0  0  0  0  0  0  0  0  0  0
    7.0218  -14.4949   21.4184 N   0  0  0  0  0  0  0  0  0  0  0  0
    7.8414  -13.5823   21.9439 C   0  0  0  0  0  0  0  0  0  0  0  0
    8.8979  -14.2357   22.5108 N   0  0  0  0  0  0  0  0  0  0  0  0
   11.9424  -17.1283   23.5852 C   0  0  0  0  0  0  0  0  0  0  0  0
   11.7359  -17.3306   24.8118 O   0  0  0  0  0  0  0  0  0  0  0  0
   12.9618  -17.8554   22.9860 O   0  0  0  0  0  0  0  0  0  0  0  0
  2  1  1  6
  2  4  1  0
  3  2  1  0
  4  5  1  1
  6  4  1  0
  7  6  2  0
  8  6  1  0
  9  8  1  0
  9 10  1  1
 10 11  1  0
 11 15  1  0
 12 11  2  0
 13  9  1  0
 14 13  2  0
 16 13  1  0
 17 16  1  0
 17 18  1  6
 18 19  1  0
 19 23  1  0
 20 19  2  0
 20 21  1  0
 21 22  1  0
 23 22  2  0
 24 26  1  0
 24 17  1  0
 25 24  2  0
M  END
$$$$
