TDH.pdb
     RDKit          3D

 26 26  0  0  1  0  0  0  0  0999 V2000
    9.1517  -12.6351   20.1020 C   0  0  0  0  0  0  0  0  0  0  0  0
    8.1729  -13.3554   19.2361 C   0  0  1  0  0  0  0  0  0  0  0  0
    7.9031  -12.5449   18.1206 O   0  0  0  0  0  0  0  0  0  0  0  0
    8.6585  -14.6860   18.7145 C   0  0  2  0  0  0  0  0  0  0  0  0
    7.6178  -15.2439   17.8629 N   0  0  0  0  0  0  0  0  0  0  0  0
    8.9763  -15.6441   19.8344 C   0  0  0  0  0  0  0  0  0  0  0  0
    8.0299  -16.2104   20.4230 O   0  0  0  0  0  0  0  0  0  0  0  0
   10.3058  -15.8977   20.2117 N   0  0  0  0  0  0  0  0  0  0  0  0
   10.8182  -16.7163   21.2642 C   0  0  1  0  0  0  0  0  0  0  0  0
   12.1004  -17.4723   20.9561 C   0  0  0  0  0  0  0  0  0  0  0  0
   12.0304  -18.2486   19.7004 C   0  0  0  0  0  0  0  0  0  0  0  0
   11.2302  -19.2125   19.6223 O   0  0  0  0  0  0  0  0  0  0  0  0
   10.7457  -16.1701   22.6111 C   0  0  0  0  0  0  0  0  0  0  0  0
   11.5774  -15.2917   22.9447 O   0  0  0  0  0  0  0  0  0  0  0  0
   12.8133  -17.9542   18.6055 O   0  0  0  0  0  0  0  0  0  0  0  0
    9.7762  -16.6051   23.5225 N   0  0  0  0  0  0  0  0  0  0  0  0
    9.8066  -16.2377   24.9472 C   0  0  1  0  0  0  0  0  0  0  0  0
    8.3298  -16.1395   25.3484 C   0  0  0  0  0  0  0  0  0  0  0  0
    7.7439  -14.8508   25.0111 C   0  0  0  0  0  0  0  0  0  0  0  0
    8.3845  -13.7868   24.4204 C   0  0  0  0  0  0  0  0  0  0  0  0
    7.4875  -12.7718   24.2758 N   0  0  0  0  0  0  0  0  0  0  0  0
    6.3166  -13.1878   24.7623 C   0  0  0  0  0  0  0  0  0  0  0  0
    6.4740  -14.4666   25.2144 N   0  0  0  0  0  0  0  0  0  0  0  0
   10.4913  -17.3380   25.6654 C   0  0  0  0  0  0  0  0  0  0  0  0
   10.7411  -18.4056   25.0442 O   0  0  0  0  0  0  0  0  0  0  0  0
   10.8825  -17.2726   26.9957 O   0  0  0  0  0  0  0  0  0  0  0  0
  2  1  1  1
  2  4  1  0
  3  2  1  0
  4  5  1  6
  6  4  1  0
  7  6  2  0
  8  6  1  0
  9  8  1  0
  9 10  1  6
 10 11  1  0
 11 15  1  0
 12 11  2  0
 13  9  1  0
 14 13  2  0
 16 13  1  0
 17 16  1  0
 17 18  1  1
 18 19  1  0
 19 23  1  0
 20 19  2  0
 20 21  1  0
 21 22  1  0
 23 22  2  0
 24 26  1  0
 24 17  1  0
 25 24  2  0
M  END
$$$$
