TDH.pdb
     RDKit          3D

 26 26  0  0  1  0  0  0  0  0999 V2000
   10.9347  -18.3829   13.4317 C   0  0  0  0  0  0  0  0  0  0  0  0
   11.8510  -17.9360   14.5213 C   0  0  1  0  0  0  0  0  0  0  0  0
   13.0702  -18.6171   14.3685 O   0  0  0  0  0  0  0  0  0  0  0  0
   12.1605  -16.4587   14.5131 C   0  0  2  0  0  0  0  0  0  0  0  0
   12.7277  -16.1236   13.2149 N   0  0  0  0  0  0  0  0  0  0  0  0
   13.1251  -16.0827   15.6092 C   0  0  0  0  0  0  0  0  0  0  0  0
   14.3444  -16.0268   15.3389 O   0  0  0  0  0  0  0  0  0  0  0  0
   12.6679  -15.8006   16.9075 N   0  0  0  0  0  0  0  0  0  0  0  0
   13.4062  -15.4961   18.0919 C   0  0  1  0  0  0  0  0  0  0  0  0
   12.6249  -14.8257   19.2100 C   0  0  0  0  0  0  0  0  0  0  0  0
   11.6483  -15.7261   19.8581 C   0  0  0  0  0  0  0  0  0  0  0  0
   11.5181  -16.8976   19.4267 O   0  0  0  0  0  0  0  0  0  0  0  0
   14.3666  -16.4944   18.5379 C   0  0  0  0  0  0  0  0  0  0  0  0
   14.0228  -17.7011   18.5253 O   0  0  0  0  0  0  0  0  0  0  0  0
   10.8708  -15.3280   20.9237 O   0  0  0  0  0  0  0  0  0  0  0  0
   15.6467  -16.1307   18.9728 N   0  0  0  0  0  0  0  0  0  0  0  0
   16.6459  -17.1192   19.4088 C   0  0  1  0  0  0  0  0  0  0  0  0
   17.9305  -16.7129   18.6766 C   0  0  0  0  0  0  0  0  0  0  0  0
   17.9401  -17.1413   17.2859 C   0  0  0  0  0  0  0  0  0  0  0  0
   17.2059  -18.1667   16.7374 C   0  0  0  0  0  0  0  0  0  0  0  0
   17.5012  -18.2440   15.4097 N   0  0  0  0  0  0  0  0  0  0  0  0
   18.3958  -17.2932   15.1332 C   0  0  0  0  0  0  0  0  0  0  0  0
   18.6658  -16.6148   16.2870 N   0  0  0  0  0  0  0  0  0  0  0  0
   16.7894  -16.9741   20.8762 C   0  0  0  0  0  0  0  0  0  0  0  0
   16.4380  -15.8911   21.4165 O   0  0  0  0  0  0  0  0  0  0  0  0
   17.2919  -17.9640   21.7096 O   0  0  0  0  0  0  0  0  0  0  0  0
  2  1  1  6
  2  4  1  0
  3  2  1  0
  4  5  1  6
  6  4  1  0
  7  6  2  0
  8  6  1  0
  9  8  1  0
  9 10  1  1
 10 11  1  0
 11 15  1  0
 12 11  2  0
 13  9  1  0
 14 13  2  0
 16 13  1  0
 17 16  1  0
 17 18  1  6
 18 19  1  0
 19 23  1  0
 20 19  2  0
 20 21  1  0
 21 22  1  0
 23 22  2  0
 24 26  1  0
 24 17  1  0
 25 24  2  0
M  END
$$$$
