TDH.pdb
     RDKit          3D

 26 26  0  0  1  0  0  0  0  0999 V2000
    7.8210  -12.2353   18.8372 C   0  0  0  0  0  0  0  0  0  0  0  0
    8.9063  -13.1774   19.2386 C   0  0  1  0  0  0  0  0  0  0  0  0
    8.3345  -14.1819   20.0372 O   0  0  0  0  0  0  0  0  0  0  0  0
    9.5987  -13.8631   18.0859 C   0  0  2  0  0  0  0  0  0  0  0  0
    8.5874  -14.5525   17.2975 N   0  0  0  0  0  0  0  0  0  0  0  0
   10.6387  -14.8456   18.5619 C   0  0  0  0  0  0  0  0  0  0  0  0
   10.3073  -16.0420   18.7093 O   0  0  0  0  0  0  0  0  0  0  0  0
   11.9526  -14.4297   18.8353 N   0  0  0  0  0  0  0  0  0  0  0  0
   13.0373  -15.1505   19.4222 C   0  0  1  0  0  0  0  0  0  0  0  0
   14.4304  -14.7379   18.9757 C   0  0  0  0  0  0  0  0  0  0  0  0
   14.6972  -15.0359   17.5530 C   0  0  0  0  0  0  0  0  0  0  0  0
   15.0892  -14.1123   16.7988 O   0  0  0  0  0  0  0  0  0  0  0  0
   12.9231  -15.4637   20.8388 C   0  0  0  0  0  0  0  0  0  0  0  0
   13.4427  -14.6780   21.6678 O   0  0  0  0  0  0  0  0  0  0  0  0
   14.5321  -16.2951   17.0186 O   0  0  0  0  0  0  0  0  0  0  0  0
   12.2521  -16.6106   21.2796 N   0  0  0  0  0  0  0  0  0  0  0  0
   12.1346  -16.9617   22.7039 C   0  0  1  0  0  0  0  0  0  0  0  0
   10.8662  -17.8198   22.7829 C   0  0  0  0  0  0  0  0  0  0  0  0
    9.6520  -17.0409   22.5902 C   0  0  0  0  0  0  0  0  0  0  0  0
    9.4159  -15.7632   23.0406 C   0  0  0  0  0  0  0  0  0  0  0  0
    8.1627  -15.3958   22.6528 N   0  0  0  0  0  0  0  0  0  0  0  0
    7.6277  -16.4150   21.9778 C   0  0  0  0  0  0  0  0  0  0  0  0
    8.5436  -17.4270   21.9390 N   0  0  0  0  0  0  0  0  0  0  0  0
   13.3413  -17.7441   23.0597 C   0  0  0  0  0  0  0  0  0  0  0  0
   13.5064  -18.0936   24.2592 O   0  0  0  0  0  0  0  0  0  0  0  0
   14.3173  -18.1247   22.1490 O   0  0  0  0  0  0  0  0  0  0  0  0
  2  1  1  6
  2  4  1  0
  3  2  1  0
  4  5  1  1
  6  4  1  0
  7  6  2  0
  8  6  1  0
  9  8  1  0
  9 10  1  1
 10 11  1  0
 11 15  1  0
 12 11  2  0
 13  9  1  0
 14 13  2  0
 16 13  1  0
 17 16  1  0
 17 18  1  6
 18 19  1  0
 19 23  1  0
 20 19  2  0
 20 21  1  0
 21 22  1  0
 23 22  2  0
 24 26  1  0
 24 17  1  0
 25 24  2  0
M  END
$$$$
