NND.pdb
     RDKit          3D

 25 24  0  0  1  0  0  0  0  0999 V2000
   12.0685  -16.0592   15.1848 N   0  0  0  0  0  0  0  0  0  0  0  0
   10.7734  -15.5293   15.3366 C   0  0  0  0  0  0  0  0  0  0  0  0
    9.9670  -15.5419   14.3752 O   0  0  0  0  0  0  0  0  0  0  0  0
   10.4168  -14.9616   16.6804 C   0  0  0  0  0  0  0  0  0  0  0  0
   11.6231  -15.0543   17.6269 C   0  0  2  0  0  0  0  0  0  0  0  0
   11.8429  -16.4393   17.9731 N   0  0  0  0  0  0  0  0  0  0  0  0
   11.2602  -14.3022   18.8390 C   0  0  0  0  0  0  0  0  0  0  0  0
   12.1025  -13.5141   19.3455 O   0  0  0  0  0  0  0  0  0  0  0  0
    7.4500  -12.9644   18.4506 N   0  0  0  0  0  0  0  0  0  0  0  0
    7.5855  -13.8628   19.5715 C   0  0  0  0  0  0  0  0  0  0  0  0
    7.1187  -15.0140   19.4547 O   0  0  0  0  0  0  0  0  0  0  0  0
    8.2510  -13.4408   20.8137 C   0  0  0  0  0  0  0  0  0  0  0  0
    9.7345  -13.7940   20.7045 C   0  0  2  0  0  0  0  0  0  0  0  0
    9.9694  -14.4577   19.4414 N   0  0  0  0  0  0  0  0  0  0  0  0
   10.1717  -14.6265   21.8487 C   0  0  0  0  0  0  0  0  0  0  0  0
    9.9348  -14.2906   23.0369 O   0  0  0  0  0  0  0  0  0  0  0  0
   10.8778  -15.8428   21.6785 N   0  0  0  0  0  0  0  0  0  0  0  0
   11.3859  -16.5805   22.8333 C   0  0  1  0  0  0  0  0  0  0  0  0
   10.6091  -17.8880   22.9710 C   0  0  0  0  0  0  0  0  0  0  0  0
   11.1239  -18.7678   24.0271 C   0  0  0  0  0  0  0  0  0  0  0  0
   11.1184  -18.4417   25.2438 O   0  0  0  0  0  0  0  0  0  0  0  0
   12.8404  -16.7892   22.6980 C   0  0  0  0  0  0  0  0  0  0  0  0
   13.3793  -16.5931   21.5518 O   0  0  0  0  0  0  0  0  0  0  0  0
   11.6476  -20.0103   23.7252 O   0  0  0  0  0  0  0  0  0  0  0  0
   13.7074  -17.1804   23.6887 O   0  0  0  0  0  0  0  0  0  0  0  0
  1  2  1  0
  2  3  2  0
  4  2  1  0
  5  4  1  0
  5  6  1  1
  7  8  2  0
  7  5  1  0
 10  9  1  0
 10 12  1  0
 11 10  2  0
 13 12  1  1
 13 14  1  0
 14  7  1  0
 15 13  1  0
 15 17  1  0
 16 15  2  0
 18 17  1  0
 18 22  1  0
 18 19  1  6
 19 20  1  0
 20 24  1  0
 20 21  2  0
 22 25  1  0
 23 22  2  0
M  END
$$$$
