NND.pdb
     RDKit          3D

 25 24  0  0  1  0  0  0  0  0999 V2000
    9.6427  -18.7953   18.9609 N   0  0  0  0  0  0  0  0  0  0  0  0
    8.7267  -17.7278   19.0112 C   0  0  0  0  0  0  0  0  0  0  0  0
    8.2216  -17.2761   17.9550 O   0  0  0  0  0  0  0  0  0  0  0  0
    8.3938  -17.1717   20.3659 C   0  0  0  0  0  0  0  0  0  0  0  0
    9.0806  -18.0042   21.4589 C   0  0  2  0  0  0  0  0  0  0  0  0
    9.0017  -19.4021   21.1036 N   0  0  0  0  0  0  0  0  0  0  0  0
    8.3196  -17.7741   22.6977 C   0  0  0  0  0  0  0  0  0  0  0  0
    8.2264  -16.6020   23.1498 O   0  0  0  0  0  0  0  0  0  0  0  0
    5.0007  -20.5023   22.6844 N   0  0  0  0  0  0  0  0  0  0  0  0
    5.5876  -20.3618   23.9950 C   0  0  0  0  0  0  0  0  0  0  0  0
    6.0466  -21.3859   24.5403 O   0  0  0  0  0  0  0  0  0  0  0  0
    5.6454  -19.0565   24.6710 C   0  0  0  0  0  0  0  0  0  0  0  0
    7.1001  -18.5861   24.6774 C   0  0  2  0  0  0  0  0  0  0  0  0
    7.6905  -18.8616   23.3864 N   0  0  0  0  0  0  0  0  0  0  0  0
    7.8637  -19.2238   25.7746 C   0  0  0  0  0  0  0  0  0  0  0  0
    7.2897  -19.8651   26.6911 O   0  0  0  0  0  0  0  0  0  0  0  0
    9.2759  -19.1524   25.8600 N   0  0  0  0  0  0  0  0  0  0  0  0
    9.9914  -19.7885   26.9642 C   0  0  1  0  0  0  0  0  0  0  0  0
    9.8504  -21.3042   26.8426 C   0  0  0  0  0  0  0  0  0  0  0  0
   10.4905  -21.8587   25.6437 C   0  0  0  0  0  0  0  0  0  0  0  0
   10.2227  -23.0075   25.2020 O   0  0  0  0  0  0  0  0  0  0  0  0
   11.3981  -19.3427   26.9768 C   0  0  0  0  0  0  0  0  0  0  0  0
   11.8180  -18.6260   26.0008 O   0  0  0  0  0  0  0  0  0  0  0  0
   11.4315  -21.1323   24.9395 O   0  0  0  0  0  0  0  0  0  0  0  0
   12.3352  -19.6157   27.9429 O   0  0  0  0  0  0  0  0  0  0  0  0
  1  2  1  0
  2  3  2  0
  4  2  1  0
  5  4  1  0
  5  6  1  6
  7  8  2  0
  7  5  1  0
 10  9  1  0
 10 12  1  0
 11 10  2  0
 13 12  1  6
 13 14  1  0
 14  7  1  0
 15 13  1  0
 15 17  1  0
 16 15  2  0
 18 17  1  0
 18 22  1  0
 18 19  1  6
 19 20  1  0
 20 24  1  0
 20 21  2  0
 22 25  1  0
 23 22  2  0
M  END
$$$$
