NND.pdb
     RDKit          3D

 25 24  0  0  1  0  0  0  0  0999 V2000
    6.4553  -14.1021   13.1523 N   0  0  0  0  0  0  0  0  0  0  0  0
    7.7285  -14.1907   13.7460 C   0  0  0  0  0  0  0  0  0  0  0  0
    8.6843  -14.7101   13.1205 O   0  0  0  0  0  0  0  0  0  0  0  0
    7.8778  -13.6423   15.1359 C   0  0  0  0  0  0  0  0  0  0  0  0
    8.6864  -14.6197   16.0024 C   0  0  2  0  0  0  0  0  0  0  0  0
    8.0115  -15.8966   16.0241 N   0  0  0  0  0  0  0  0  0  0  0  0
    8.7027  -14.0555   17.3618 C   0  0  0  0  0  0  0  0  0  0  0  0
    9.2717  -12.9489   17.5585 O   0  0  0  0  0  0  0  0  0  0  0  0
    7.7757  -12.7837   22.5126 N   0  0  0  0  0  0  0  0  0  0  0  0
    7.2256  -13.9924   21.9485 C   0  0  0  0  0  0  0  0  0  0  0  0
    6.9770  -14.9368   22.7251 O   0  0  0  0  0  0  0  0  0  0  0  0
    6.9646  -14.1132   20.5058 C   0  0  0  0  0  0  0  0  0  0  0  0
    8.3077  -14.2367   19.7861 C   0  0  2  0  0  0  0  0  0  0  0  0
    8.0829  -14.7481   18.4523 N   0  0  0  0  0  0  0  0  0  0  0  0
    9.2462  -15.0924   20.5482 C   0  0  0  0  0  0  0  0  0  0  0  0
    8.9371  -16.2593   20.8995 O   0  0  0  0  0  0  0  0  0  0  0  0
   10.5393  -14.6543   20.9259 N   0  0  0  0  0  0  0  0  0  0  0  0
   11.3218  -15.3964   21.9123 C   0  0  1  0  0  0  0  0  0  0  0  0
   10.4535  -15.6621   23.1402 C   0  0  0  0  0  0  0  0  0  0  0  0
   11.1172  -16.4805   24.1620 C   0  0  0  0  0  0  0  0  0  0  0  0
   12.3293  -16.8137   24.0819 O   0  0  0  0  0  0  0  0  0  0  0  0
   11.8533  -16.6329   21.3075 C   0  0  0  0  0  0  0  0  0  0  0  0
   11.0311  -17.4328   20.7357 O   0  0  0  0  0  0  0  0  0  0  0  0
   10.4274  -16.9296   25.2718 O   0  0  0  0  0  0  0  0  0  0  0  0
   13.1661  -17.0359   21.2864 O   0  0  0  0  0  0  0  0  0  0  0  0
  1  2  1  0
  2  3  2  0
  4  2  1  0
  5  4  1  0
  5  6  1  1
  7  8  2  0
  7  5  1  0
 10  9  1  0
 10 12  1  0
 11 10  2  0
 13 12  1  1
 13 14  1  0
 14  7  1  0
 15 13  1  0
 15 17  1  0
 16 15  2  0
 18 17  1  0
 18 22  1  0
 18 19  1  1
 19 20  1  0
 20 24  1  0
 20 21  2  0
 22 25  1  0
 23 22  2  0
M  END
$$$$
