NND.pdb
     RDKit          3D

 25 24  0  0  1  0  0  0  0  0999 V2000
   10.6792  -17.8543   15.7898 N   0  0  0  0  0  0  0  0  0  0  0  0
    9.3497  -17.3972   15.7210 C   0  0  0  0  0  0  0  0  0  0  0  0
    8.7402  -17.3841   14.6241 O   0  0  0  0  0  0  0  0  0  0  0  0
    8.7145  -16.9373   17.0017 C   0  0  0  0  0  0  0  0  0  0  0  0
    9.7328  -17.0109   18.1493 C   0  0  2  0  0  0  0  0  0  0  0  0
   10.0038  -18.3978   18.4484 N   0  0  0  0  0  0  0  0  0  0  0  0
    9.0935  -16.3785   19.3146 C   0  0  0  0  0  0  0  0  0  0  0  0
    8.8761  -15.1378   19.2951 O   0  0  0  0  0  0  0  0  0  0  0  0
    6.2879  -17.2381   19.7908 N   0  0  0  0  0  0  0  0  0  0  0  0
    6.1462  -17.7391   21.1363 C   0  0  0  0  0  0  0  0  0  0  0  0
    5.2256  -18.5508   21.3615 O   0  0  0  0  0  0  0  0  0  0  0  0
    7.0539  -17.3104   22.2116 C   0  0  0  0  0  0  0  0  0  0  0  0
    8.1574  -16.4530   21.5915 C   0  0  2  0  0  0  0  0  0  0  0  0
    8.7201  -17.1550   20.4595 N   0  0  0  0  0  0  0  0  0  0  0  0
    9.1942  -16.1101   22.5920 C   0  0  0  0  0  0  0  0  0  0  0  0
    8.8943  -15.8083   23.7751 O   0  0  0  0  0  0  0  0  0  0  0  0
   10.5765  -16.1007   22.2823 N   0  0  0  0  0  0  0  0  0  0  0  0
   11.5808  -16.1696   23.3418 C   0  0  1  0  0  0  0  0  0  0  0  0
   11.2896  -17.3793   24.2272 C   0  0  0  0  0  0  0  0  0  0  0  0
   12.3318  -17.6385   25.2277 C   0  0  0  0  0  0  0  0  0  0  0  0
   13.5574  -17.6654   24.9387 O   0  0  0  0  0  0  0  0  0  0  0  0
   12.9335  -16.2024   22.7531 C   0  0  0  0  0  0  0  0  0  0  0  0
   13.0848  -16.7548   21.6064 O   0  0  0  0  0  0  0  0  0  0  0  0
   12.0059  -17.8707   26.5502 O   0  0  0  0  0  0  0  0  0  0  0  0
   14.0815  -15.6937   23.3092 O   0  0  0  0  0  0  0  0  0  0  0  0
  1  2  1  0
  2  3  2  0
  4  2  1  0
  5  4  1  0
  5  6  1  1
  7  8  2  0
  7  5  1  0
 10  9  1  0
 10 12  1  0
 11 10  2  0
 13 12  1  1
 13 14  1  0
 14  7  1  0
 15 13  1  0
 15 17  1  0
 16 15  2  0
 18 17  1  0
 18 22  1  0
 18 19  1  6
 19 20  1  0
 20 24  1  0
 20 21  2  0
 22 25  1  0
 23 22  2  0
M  END
$$$$
