NND.pdb
     RDKit          3D

 25 24  0  0  1  0  0  0  0  0999 V2000
    7.2578  -13.1771   15.5175 N   0  0  0  0  0  0  0  0  0  0  0  0
    8.1482  -14.0859   16.1197 C   0  0  0  0  0  0  0  0  0  0  0  0
    8.5472  -15.0944   15.4885 O   0  0  0  0  0  0  0  0  0  0  0  0
    8.5853  -13.7899   17.5255 C   0  0  0  0  0  0  0  0  0  0  0  0
    8.8534  -15.1011   18.2796 C   0  0  2  0  0  0  0  0  0  0  0  0
    7.6844  -15.9444   18.1852 N   0  0  0  0  0  0  0  0  0  0  0  0
    9.0752  -14.7339   19.6876 C   0  0  0  0  0  0  0  0  0  0  0  0
   10.0591  -14.0043   19.9821 O   0  0  0  0  0  0  0  0  0  0  0  0
    8.4915  -13.5034   24.5215 N   0  0  0  0  0  0  0  0  0  0  0  0
    7.5987  -14.6184   24.3181 C   0  0  0  0  0  0  0  0  0  0  0  0
    7.0825  -15.1424   25.3261 O   0  0  0  0  0  0  0  0  0  0  0  0
    7.3031  -15.1254   22.9692 C   0  0  0  0  0  0  0  0  0  0  0  0
    8.5225  -14.8668   22.0840 C   0  0  2  0  0  0  0  0  0  0  0  0
    8.1899  -15.1951   20.7155 N   0  0  0  0  0  0  0  0  0  0  0  0
    9.6994  -15.6306   22.5585 C   0  0  0  0  0  0  0  0  0  0  0  0
   10.7224  -15.0537   23.0072 O   0  0  0  0  0  0  0  0  0  0  0  0
    9.7465  -17.0463   22.5370 N   0  0  0  0  0  0  0  0  0  0  0  0
   10.6006  -17.7803   23.4685 C   0  0  1  0  0  0  0  0  0  0  0  0
   10.1897  -17.4367   24.8986 C   0  0  0  0  0  0  0  0  0  0  0  0
   11.0459  -18.0531   25.9191 C   0  0  0  0  0  0  0  0  0  0  0  0
   12.2926  -18.1668   25.7797 O   0  0  0  0  0  0  0  0  0  0  0  0
   10.5309  -19.2266   23.1838 C   0  0  0  0  0  0  0  0  0  0  0  0
    9.4731  -19.6865   22.6249 O   0  0  0  0  0  0  0  0  0  0  0  0
   10.5104  -18.5453   27.0939 O   0  0  0  0  0  0  0  0  0  0  0  0
   11.4980  -20.1627   23.4567 O   0  0  0  0  0  0  0  0  0  0  0  0
  1  2  1  0
  2  3  2  0
  4  2  1  0
  5  4  1  0
  5  6  1  1
  7  8  2  0
  7  5  1  0
 10  9  1  0
 10 12  1  0
 11 10  2  0
 13 12  1  1
 13 14  1  0
 14  7  1  0
 15 13  1  0
 15 17  1  0
 16 15  2  0
 18 17  1  0
 18 22  1  0
 18 19  1  1
 19 20  1  0
 20 24  1  0
 20 21  2  0
 22 25  1  0
 23 22  2  0
M  END
$$$$
