NND.pdb
     RDKit          3D

 25 24  0  0  1  0  0  0  0  0999 V2000
    8.9866  -16.1140   14.2546 N   0  0  0  0  0  0  0  0  0  0  0  0
    9.1099  -15.1601   15.2822 C   0  0  0  0  0  0  0  0  0  0  0  0
    8.0899  -14.6026   15.7548 O   0  0  0  0  0  0  0  0  0  0  0  0
   10.4961  -14.8530   15.7715 C   0  0  0  0  0  0  0  0  0  0  0  0
   11.1502  -16.1258   16.3299 C   0  0  2  0  0  0  0  0  0  0  0  0
   10.3916  -16.5814   17.4716 N   0  0  0  0  0  0  0  0  0  0  0  0
   12.5023  -15.7419   16.7668 C   0  0  0  0  0  0  0  0  0  0  0  0
   13.2771  -15.1868   15.9430 O   0  0  0  0  0  0  0  0  0  0  0  0
   16.7311  -14.1213   17.1128 N   0  0  0  0  0  0  0  0  0  0  0  0
   15.8135  -13.6887   18.1388 C   0  0  0  0  0  0  0  0  0  0  0  0
   16.2678  -12.9961   19.0719 O   0  0  0  0  0  0  0  0  0  0  0  0
   14.3881  -14.0495   18.0916 C   0  0  0  0  0  0  0  0  0  0  0  0
   14.2548  -15.5213   18.4833 C   0  0  2  0  0  0  0  0  0  0  0  0
   12.9400  -15.9919   18.1081 N   0  0  0  0  0  0  0  0  0  0  0  0
   14.5127  -15.7156   19.9287 C   0  0  0  0  0  0  0  0  0  0  0  0
   14.8437  -14.7585   20.6737 O   0  0  0  0  0  0  0  0  0  0  0  0
   14.4034  -16.9803   20.5576 N   0  0  0  0  0  0  0  0  0  0  0  0
   14.5309  -17.1078   22.0079 C   0  0  1  0  0  0  0  0  0  0  0  0
   13.4545  -18.0618   22.5212 C   0  0  0  0  0  0  0  0  0  0  0  0
   12.0901  -17.5420   22.3716 C   0  0  0  0  0  0  0  0  0  0  0  0
   11.8497  -16.3800   21.9491 O   0  0  0  0  0  0  0  0  0  0  0  0
   15.8968  -17.5430   22.3576 C   0  0  0  0  0  0  0  0  0  0  0  0
   16.5132  -16.9200   23.2929 O   0  0  0  0  0  0  0  0  0  0  0  0
   10.9939  -18.3178   22.6964 O   0  0  0  0  0  0  0  0  0  0  0  0
   16.6031  -18.5690   21.7791 O   0  0  0  0  0  0  0  0  0  0  0  0
  1  2  1  0
  2  3  2  0
  4  2  1  0
  5  4  1  0
  5  6  1  1
  7  8  2  0
  7  5  1  0
 10  9  1  0
 10 12  1  0
 11 10  2  0
 13 12  1  1
 13 14  1  0
 14  7  1  0
 15 13  1  0
 15 17  1  0
 16 15  2  0
 18 17  1  0
 18 22  1  0
 18 19  1  6
 19 20  1  0
 20 24  1  0
 20 21  2  0
 22 25  1  0
 23 22  2  0
M  END
$$$$
