NND.pdb
     RDKit          3D

 25 24  0  0  1  0  0  0  0  0999 V2000
    6.7937  -13.4255   15.8290 N   0  0  0  0  0  0  0  0  0  0  0  0
    8.0140  -13.5745   16.5144 C   0  0  0  0  0  0  0  0  0  0  0  0
    8.8230  -14.4735   16.1796 O   0  0  0  0  0  0  0  0  0  0  0  0
    8.2895  -12.6213   17.6416 C   0  0  0  0  0  0  0  0  0  0  0  0
    9.6202  -12.9801   18.3199 C   0  0  2  0  0  0  0  0  0  0  0  0
   10.2212  -14.0899   17.6172 N   0  0  0  0  0  0  0  0  0  0  0  0
    9.2892  -13.3960   19.6925 C   0  0  0  0  0  0  0  0  0  0  0  0
    8.8962  -12.5283   20.5169 O   0  0  0  0  0  0  0  0  0  0  0  0
    6.1036  -14.9907   20.7766 N   0  0  0  0  0  0  0  0  0  0  0  0
    6.9445  -15.2988   21.9078 C   0  0  0  0  0  0  0  0  0  0  0  0
    6.5770  -14.9011   23.0320 O   0  0  0  0  0  0  0  0  0  0  0  0
    8.1953  -16.0563   21.7472 C   0  0  0  0  0  0  0  0  0  0  0  0
    9.3298  -15.0598   21.5080 C   0  0  2  0  0  0  0  0  0  0  0  0
    9.4092  -14.7661   20.0943 N   0  0  0  0  0  0  0  0  0  0  0  0
   10.6151  -15.5769   22.0315 C   0  0  0  0  0  0  0  0  0  0  0  0
   10.7350  -15.9609   23.2227 O   0  0  0  0  0  0  0  0  0  0  0  0
   11.7799  -15.6708   21.2307 N   0  0  0  0  0  0  0  0  0  0  0  0
   13.0818  -15.9481   21.8341 C   0  0  1  0  0  0  0  0  0  0  0  0
   14.0708  -14.8663   21.4056 C   0  0  0  0  0  0  0  0  0  0  0  0
   14.1971  -14.7304   19.9496 C   0  0  0  0  0  0  0  0  0  0  0  0
   14.1648  -13.6138   19.3675 O   0  0  0  0  0  0  0  0  0  0  0  0
   12.9463  -16.0529   23.2998 C   0  0  0  0  0  0  0  0  0  0  0  0
   13.9895  -16.3356   23.9887 O   0  0  0  0  0  0  0  0  0  0  0  0
   14.3566  -15.8407   19.1428 O   0  0  0  0  0  0  0  0  0  0  0  0
   11.7971  -15.8766   24.0308 O   0  0  0  0  0  0  0  0  0  0  0  0
  1  2  1  0
  2  3  2  0
  4  2  1  0
  5  4  1  0
  5  6  1  6
  7  8  2  0
  7  5  1  0
 10  9  1  0
 10 12  1  0
 11 10  2  0
 13 12  1  6
 13 14  1  0
 14  7  1  0
 15 13  1  0
 15 17  1  0
 16 15  2  0
 18 17  1  0
 18 22  1  0
 18 19  1  1
 19 20  1  0
 20 24  1  0
 20 21  2  0
 22 25  1  0
 23 22  2  0
M  END
$$$$
