NND.pdb
     RDKit          3D

 25 24  0  0  1  0  0  0  0  0999 V2000
   15.2717  -16.8089   14.5056 N   0  0  0  0  0  0  0  0  0  0  0  0
   14.9438  -15.5018   14.0990 C   0  0  0  0  0  0  0  0  0  0  0  0
   15.6469  -14.9088   13.2453 O   0  0  0  0  0  0  0  0  0  0  0  0
   13.7348  -14.8701   14.7270 C   0  0  0  0  0  0  0  0  0  0  0  0
   13.1103  -15.8321   15.7489 C   0  0  2  0  0  0  0  0  0  0  0  0
   11.7488  -16.1140   15.3572 N   0  0  0  0  0  0  0  0  0  0  0  0
   13.1080  -15.1246   17.0396 C   0  0  0  0  0  0  0  0  0  0  0  0
   14.2079  -14.8527   17.5905 O   0  0  0  0  0  0  0  0  0  0  0  0
    9.7035  -15.5321   18.4893 N   0  0  0  0  0  0  0  0  0  0  0  0
    9.5252  -14.1660   18.9179 C   0  0  0  0  0  0  0  0  0  0  0  0
    8.3582  -13.7446   19.0494 O   0  0  0  0  0  0  0  0  0  0  0  0
   10.6778  -13.2939   19.1919 C   0  0  0  0  0  0  0  0  0  0  0  0
   11.9543  -14.1028   18.9608 C   0  0  2  0  0  0  0  0  0  0  0  0
   11.8772  -14.7464   17.6681 N   0  0  0  0  0  0  0  0  0  0  0  0
   12.1694  -15.0851   20.0482 C   0  0  0  0  0  0  0  0  0  0  0  0
   11.7060  -16.2520   19.9834 O   0  0  0  0  0  0  0  0  0  0  0  0
   12.9041  -14.7750   21.2190 N   0  0  0  0  0  0  0  0  0  0  0  0
   13.1121  -15.7800   22.2594 C   0  0  1  0  0  0  0  0  0  0  0  0
   14.4167  -15.4762   22.9927 C   0  0  0  0  0  0  0  0  0  0  0  0
   15.6031  -15.5420   22.1310 C   0  0  0  0  0  0  0  0  0  0  0  0
   15.7583  -16.4366   21.2580 O   0  0  0  0  0  0  0  0  0  0  0  0
   11.9443  -15.8219   23.1605 C   0  0  0  0  0  0  0  0  0  0  0  0
   11.0949  -14.8640   23.1007 O   0  0  0  0  0  0  0  0  0  0  0  0
   16.6178  -14.6112   22.2456 O   0  0  0  0  0  0  0  0  0  0  0  0
   11.6553  -16.7983   24.0821 O   0  0  0  0  0  0  0  0  0  0  0  0
  1  2  1  0
  2  3  2  0
  4  2  1  0
  5  4  1  0
  5  6  1  6
  7  8  2  0
  7  5  1  0
 10  9  1  0
 10 12  1  0
 11 10  2  0
 13 12  1  1
 13 14  1  0
 14  7  1  0
 15 13  1  0
 15 17  1  0
 16 15  2  0
 18 17  1  0
 18 22  1  0
 18 19  1  1
 19 20  1  0
 20 24  1  0
 20 21  2  0
 22 25  1  0
 23 22  2  0
M  END
$$$$
