NND.pdb
     RDKit          3D

 25 24  0  0  1  0  0  0  0  0999 V2000
    7.4141  -13.4710   15.5474 N   0  0  0  0  0  0  0  0  0  0  0  0
    8.6290  -14.0186   16.0004 C   0  0  0  0  0  0  0  0  0  0  0  0
    9.3247  -14.7333   15.2389 O   0  0  0  0  0  0  0  0  0  0  0  0
    9.0384  -13.7083   17.4115 C   0  0  0  0  0  0  0  0  0  0  0  0
    9.4930  -14.9925   18.1213 C   0  0  2  0  0  0  0  0  0  0  0  0
    8.4422  -15.9790   18.0254 N   0  0  0  0  0  0  0  0  0  0  0  0
    9.6980  -14.6368   19.5348 C   0  0  0  0  0  0  0  0  0  0  0  0
   10.6052  -13.8155   19.8339 O   0  0  0  0  0  0  0  0  0  0  0  0
    6.1306  -14.4392   21.8594 N   0  0  0  0  0  0  0  0  0  0  0  0
    7.2064  -14.4086   22.8203 C   0  0  0  0  0  0  0  0  0  0  0  0
    7.2577  -13.4408   23.6064 O   0  0  0  0  0  0  0  0  0  0  0  0
    8.2129  -15.4800   22.8761 C   0  0  0  0  0  0  0  0  0  0  0  0
    9.3536  -15.1135   21.9265 C   0  0  2  0  0  0  0  0  0  0  0  0
    8.8822  -15.2115   20.5630 N   0  0  0  0  0  0  0  0  0  0  0  0
   10.5386  -15.9714   22.1578 C   0  0  0  0  0  0  0  0  0  0  0  0
   10.7435  -17.0094   21.4787 O   0  0  0  0  0  0  0  0  0  0  0  0
   11.5071  -15.6794   23.1496 N   0  0  0  0  0  0  0  0  0  0  0  0
   12.6884  -16.5243   23.3129 C   0  0  1  0  0  0  0  0  0  0  0  0
   13.9200  -15.7572   22.8368 C   0  0  0  0  0  0  0  0  0  0  0  0
   15.1705  -16.5139   22.9706 C   0  0  0  0  0  0  0  0  0  0  0  0
   15.2512  -17.7426   22.7052 O   0  0  0  0  0  0  0  0  0  0  0  0
   12.7982  -16.9719   24.7147 C   0  0  0  0  0  0  0  0  0  0  0  0
   12.1892  -16.2972   25.6184 O   0  0  0  0  0  0  0  0  0  0  0  0
   16.3303  -15.9002   23.4035 O   0  0  0  0  0  0  0  0  0  0  0  0
   13.4981  -18.0603   25.1746 O   0  0  0  0  0  0  0  0  0  0  0  0
  1  2  1  0
  2  3  2  0
  4  2  1  0
  5  4  1  0
  5  6  1  1
  7  8  2  0
  7  5  1  0
 10  9  1  0
 10 12  1  0
 11 10  2  0
 13 12  1  1
 13 14  1  0
 14  7  1  0
 15 13  1  0
 15 17  1  0
 16 15  2  0
 18 17  1  0
 18 22  1  0
 18 19  1  1
 19 20  1  0
 20 24  1  0
 20 21  2  0
 22 25  1  0
 23 22  2  0
M  END
$$$$
