MHH.pdb
     RDKit          3D

 29 30  0  0  1  0  0  0  0  0999 V2000
    5.1647  -11.1412   27.7656 C   0  0  0  0  0  0  0  0  0  0  0  0
    6.4493  -12.3455   27.3982 S   0  0  0  0  0  0  0  0  0  0  0  0
    5.8825  -13.5413   26.1310 C   0  0  0  0  0  0  0  0  0  0  0  0
    7.0194  -14.4754   25.8419 C   0  0  0  0  0  0  0  0  0  0  0  0
    6.8352  -15.3196   24.6151 C   0  0  2  0  0  0  0  0  0  0  0  0
    5.7413  -16.2343   24.9082 N   0  0  0  0  0  0  0  0  0  0  0  0
    8.0491  -16.0546   24.2056 C   0  0  0  0  0  0  0  0  0  0  0  0
    8.3595  -17.1393   24.7162 O   0  0  0  0  0  0  0  0  0  0  0  0
    8.8744  -15.5061   23.2078 N   0  0  0  0  0  0  0  0  0  0  0  0
   10.1178  -16.0851   22.7680 C   0  0  1  0  0  0  0  0  0  0  0  0
   10.5572  -15.4177   21.5099 C   0  0  0  0  0  0  0  0  0  0  0  0
    9.4805  -15.2407   20.5206 C   0  0  0  0  0  0  0  0  0  0  0  0
    8.1756  -15.6549   20.7721 C   0  0  0  0  0  0  0  0  0  0  0  0
    7.4334  -15.3591   19.6903 N   0  0  0  0  0  0  0  0  0  0  0  0
    8.2218  -14.7774   18.7746 C   0  0  0  0  0  0  0  0  0  0  0  0
    9.4573  -14.7165   19.2998 N   0  0  0  0  0  0  0  0  0  0  0  0
   11.1599  -16.0695   23.8217 C   0  0  0  0  0  0  0  0  0  0  0  0
   11.5510  -15.0275   24.4066 O   0  0  0  0  0  0  0  0  0  0  0  0
   11.7531  -17.3060   24.1944 N   0  0  0  0  0  0  0  0  0  0  0  0
   12.1949  -17.5924   25.5488 C   0  0  1  0  0  0  0  0  0  0  0  0
   11.0191  -17.2665   26.4560 C   0  0  0  0  0  0  0  0  0  0  0  0
   11.2515  -16.1423   27.3503 C   0  0  0  0  0  0  0  0  0  0  0  0
   11.4580  -14.8380   26.9748 C   0  0  0  0  0  0  0  0  0  0  0  0
   11.6362  -14.0804   28.0727 N   0  0  0  0  0  0  0  0  0  0  0  0
   11.5387  -14.9208   29.1210 C   0  0  0  0  0  0  0  0  0  0  0  0
   11.3058  -16.1703   28.6875 N   0  0  0  0  0  0  0  0  0  0  0  0
   12.6520  -18.9811   25.7064 C   0  0  0  0  0  0  0  0  0  0  0  0
   12.1503  -19.8828   25.0007 O   0  0  0  0  0  0  0  0  0  0  0  0
   13.6242  -19.2892   26.6224 O   0  0  0  0  0  0  0  0  0  0  0  0
  2  1  1  0
  3  4  1  0
  3  2  1  0
  4  5  1  0
  5  6  1  1
  7  8  2  0
  7  5  1  0
  9  7  1  0
 10  9  1  0
 10 11  1  6
 12 16  1  0
 12 11  1  0
 13 12  2  0
 14 13  1  0
 14 15  1  0
 15 16  2  0
 17 10  1  0
 18 17  2  0
 19 17  1  0
 20 21  1  1
 20 19  1  0
 21 22  1  0
 22 26  1  0
 22 23  2  0
 23 24  1  0
 25 24  1  0
 26 25  2  0
 27 20  1  0
 28 27  2  0
 29 27  1  0
M  END
$$$$
