MHH.pdb
     RDKit          3D

 29 30  0  0  1  0  0  0  0  0999 V2000
    5.9970  -11.5166   17.2541 C   0  0  0  0  0  0  0  0  0  0  0  0
    6.6946  -12.9288   18.1228 S   0  0  0  0  0  0  0  0  0  0  0  0
    7.8156  -12.3831   19.4654 C   0  0  0  0  0  0  0  0  0  0  0  0
    8.2885  -13.6062   20.1926 C   0  0  0  0  0  0  0  0  0  0  0  0
    9.5119  -14.2461   19.6048 C   0  0  2  0  0  0  0  0  0  0  0  0
    9.1533  -14.6493   18.2527 N   0  0  0  0  0  0  0  0  0  0  0  0
   10.0225  -15.3918   20.3847 C   0  0  0  0  0  0  0  0  0  0  0  0
   10.3909  -15.2693   21.5607 O   0  0  0  0  0  0  0  0  0  0  0  0
   10.0916  -16.6563   19.7733 N   0  0  0  0  0  0  0  0  0  0  0  0
   10.6628  -17.8284   20.3854 C   0  0  1  0  0  0  0  0  0  0  0  0
   10.4574  -19.0035   19.4921 C   0  0  0  0  0  0  0  0  0  0  0  0
    9.0675  -19.1693   19.0339 C   0  0  0  0  0  0  0  0  0  0  0  0
    8.0448  -19.5344   19.9047 C   0  0  0  0  0  0  0  0  0  0  0  0
    6.9042  -19.6030   19.1955 N   0  0  0  0  0  0  0  0  0  0  0  0
    7.1736  -19.2957   17.9183 C   0  0  0  0  0  0  0  0  0  0  0  0
    8.4902  -19.0368   17.8444 N   0  0  0  0  0  0  0  0  0  0  0  0
   12.0816  -17.6388   20.7695 C   0  0  0  0  0  0  0  0  0  0  0  0
   13.0490  -17.7965   19.9820 O   0  0  0  0  0  0  0  0  0  0  0  0
   12.3669  -17.2553   22.1079 N   0  0  0  0  0  0  0  0  0  0  0  0
   13.7137  -16.9804   22.5796 C   0  0  1  0  0  0  0  0  0  0  0  0
   13.9788  -15.5147   22.2742 C   0  0  0  0  0  0  0  0  0  0  0  0
   14.1951  -15.2308   20.8634 C   0  0  0  0  0  0  0  0  0  0  0  0
   14.2713  -16.1574   19.8533 C   0  0  0  0  0  0  0  0  0  0  0  0
   14.4778  -15.5257   18.6830 N   0  0  0  0  0  0  0  0  0  0  0  0
   14.5281  -14.2119   18.9764 C   0  0  0  0  0  0  0  0  0  0  0  0
   14.3574  -14.0293   20.2958 N   0  0  0  0  0  0  0  0  0  0  0  0
   13.8809  -17.2912   24.0071 C   0  0  0  0  0  0  0  0  0  0  0  0
   12.8992  -17.6805   24.6759 O   0  0  0  0  0  0  0  0  0  0  0  0
   15.1069  -17.1556   24.6051 O   0  0  0  0  0  0  0  0  0  0  0  0
  2  1  1  0
  3  4  1  0
  3  2  1  0
  4  5  1  0
  5  6  1  6
  7  8  2  0
  7  5  1  0
  9  7  1  0
 10  9  1  0
 10 11  1  6
 12 16  1  0
 12 11  1  0
 13 12  2  0
 14 13  1  0
 14 15  1  0
 15 16  2  0
 17 10  1  0
 18 17  2  0
 19 17  1  0
 20 21  1  1
 20 19  1  0
 21 22  1  0
 22 26  1  0
 22 23  2  0
 23 24  1  0
 25 24  1  0
 26 25  2  0
 27 20  1  0
 28 27  2  0
 29 27  1  0
M  END
$$$$
