MHH.pdb
     RDKit          3D

 29 30  0  0  1  0  0  0  0  0999 V2000
    8.0405  -11.7800   19.8412 C   0  0  0  0  0  0  0  0  0  0  0  0
    9.2933  -12.5081   18.7754 S   0  0  0  0  0  0  0  0  0  0  0  0
    8.5310  -13.6174   17.5324 C   0  0  0  0  0  0  0  0  0  0  0  0
    7.9136  -14.7707   18.2653 C   0  0  0  0  0  0  0  0  0  0  0  0
    8.7157  -16.0381   18.2211 C   0  0  2  0  0  0  0  0  0  0  0  0
    8.1047  -16.8735   17.1974 N   0  0  0  0  0  0  0  0  0  0  0  0
    8.7877  -16.7473   19.5147 C   0  0  0  0  0  0  0  0  0  0  0  0
    7.8441  -17.4272   19.9403 O   0  0  0  0  0  0  0  0  0  0  0  0
    9.9610  -16.6468   20.2832 N   0  0  0  0  0  0  0  0  0  0  0  0
   10.1226  -17.2026   21.6021 C   0  0  1  0  0  0  0  0  0  0  0  0
   11.3974  -17.9724   21.6623 C   0  0  0  0  0  0  0  0  0  0  0  0
   11.6846  -18.5489   22.9868 C   0  0  0  0  0  0  0  0  0  0  0  0
   12.6344  -17.9941   23.8399 C   0  0  0  0  0  0  0  0  0  0  0  0
   12.6661  -18.7371   24.9605 N   0  0  0  0  0  0  0  0  0  0  0  0
   11.7753  -19.7323   24.8412 C   0  0  0  0  0  0  0  0  0  0  0  0
   11.1930  -19.5980   23.6376 N   0  0  0  0  0  0  0  0  0  0  0  0
   10.0170  -16.1803   22.6700 C   0  0  0  0  0  0  0  0  0  0  0  0
   10.5759  -15.0551   22.6223 O   0  0  0  0  0  0  0  0  0  0  0  0
    9.2370  -16.4894   23.8172 N   0  0  0  0  0  0  0  0  0  0  0  0
    9.0493  -15.5587   24.9174 C   0  0  1  0  0  0  0  0  0  0  0  0
    7.6351  -15.0178   24.7784 C   0  0  0  0  0  0  0  0  0  0  0  0
    7.2622  -14.0569   25.8057 C   0  0  0  0  0  0  0  0  0  0  0  0
    6.6677  -12.8373   25.5962 C   0  0  0  0  0  0  0  0  0  0  0  0
    6.4726  -12.2269   26.7797 N   0  0  0  0  0  0  0  0  0  0  0  0
    6.9477  -13.0728   27.7142 C   0  0  0  0  0  0  0  0  0  0  0  0
    7.4267  -14.1822   27.1282 N   0  0  0  0  0  0  0  0  0  0  0  0
    9.2792  -16.1869   26.2270 C   0  0  0  0  0  0  0  0  0  0  0  0
    9.0841  -17.4135   26.3690 O   0  0  0  0  0  0  0  0  0  0  0  0
    9.7058  -15.4335   27.2897 O   0  0  0  0  0  0  0  0  0  0  0  0
  2  1  1  0
  3  4  1  0
  3  2  1  0
  4  5  1  0
  5  6  1  6
  7  8  2  0
  7  5  1  0
  9  7  1  0
 10  9  1  0
 10 11  1  6
 12 16  1  0
 12 11  1  0
 13 12  2  0
 14 13  1  0
 14 15  1  0
 15 16  2  0
 17 10  1  0
 18 17  2  0
 19 17  1  0
 20 21  1  1
 20 19  1  0
 21 22  1  0
 22 26  1  0
 22 23  2  0
 23 24  1  0
 25 24  1  0
 26 25  2  0
 27 20  1  0
 28 27  2  0
 29 27  1  0
M  END
$$$$
