MHH.pdb
     RDKit          3D

 29 30  0  0  1  0  0  0  0  0999 V2000
    8.2114  -11.6165   20.0203 C   0  0  0  0  0  0  0  0  0  0  0  0
    8.1094  -12.3874   18.3982 S   0  0  0  0  0  0  0  0  0  0  0  0
    9.1380  -13.9019   18.3275 C   0  0  0  0  0  0  0  0  0  0  0  0
    8.9582  -14.6385   19.6212 C   0  0  0  0  0  0  0  0  0  0  0  0
   10.2078  -15.2759   20.1538 C   0  0  2  0  0  0  0  0  0  0  0  0
   10.7345  -16.1047   19.0791 N   0  0  0  0  0  0  0  0  0  0  0  0
    9.9998  -16.0671   21.3836 C   0  0  0  0  0  0  0  0  0  0  0  0
    9.4077  -15.6024   22.3671 O   0  0  0  0  0  0  0  0  0  0  0  0
   10.4883  -17.3846   21.4377 N   0  0  0  0  0  0  0  0  0  0  0  0
   10.4674  -18.2149   22.6145 C   0  0  1  0  0  0  0  0  0  0  0  0
   11.0547  -19.5461   22.2917 C   0  0  0  0  0  0  0  0  0  0  0  0
   10.1279  -20.4546   21.5955 C   0  0  0  0  0  0  0  0  0  0  0  0
    8.7948  -20.1188   21.3766 C   0  0  0  0  0  0  0  0  0  0  0  0
    8.2139  -21.1412   20.7240 N   0  0  0  0  0  0  0  0  0  0  0  0
    9.1299  -22.1006   20.5268 C   0  0  0  0  0  0  0  0  0  0  0  0
   10.2814  -21.6624   21.0632 N   0  0  0  0  0  0  0  0  0  0  0  0
   11.1133  -17.5688   23.7814 C   0  0  0  0  0  0  0  0  0  0  0  0
   12.2584  -17.0503   23.7519 O   0  0  0  0  0  0  0  0  0  0  0  0
   10.3961  -17.5321   25.0078 N   0  0  0  0  0  0  0  0  0  0  0  0
   10.9131  -16.8909   26.2051 C   0  0  1  0  0  0  0  0  0  0  0  0
    9.9147  -15.8031   26.5681 C   0  0  0  0  0  0  0  0  0  0  0  0
   10.1587  -15.1790   27.8598 C   0  0  0  0  0  0  0  0  0  0  0  0
   11.1297  -15.5371   28.7619 C   0  0  0  0  0  0  0  0  0  0  0  0
   11.0532  -14.7368   29.8411 N   0  0  0  0  0  0  0  0  0  0  0  0
   10.0351  -13.8882   29.6001 C   0  0  0  0  0  0  0  0  0  0  0  0
    9.4909  -14.1529   28.4013 N   0  0  0  0  0  0  0  0  0  0  0  0
   11.1223  -17.8446   27.3046 C   0  0  0  0  0  0  0  0  0  0  0  0
   12.0260  -17.6361   28.1427 O   0  0  0  0  0  0  0  0  0  0  0  0
   10.3311  -18.9588   27.4131 O   0  0  0  0  0  0  0  0  0  0  0  0
  2  1  1  0
  3  4  1  0
  3  2  1  0
  4  5  1  0
  5  6  1  6
  7  8  2  0
  7  5  1  0
  9  7  1  0
 10  9  1  0
 10 11  1  6
 12 16  1  0
 12 11  1  0
 13 12  2  0
 14 13  1  0
 14 15  1  0
 15 16  2  0
 17 10  1  0
 18 17  2  0
 19 17  1  0
 20 21  1  1
 20 19  1  0
 21 22  1  0
 22 26  1  0
 22 23  2  0
 23 24  1  0
 25 24  1  0
 26 25  2  0
 27 20  1  0
 28 27  2  0
 29 27  1  0
M  END
$$$$
