MHH.pdb
     RDKit          3D

 29 30  0  0  1  0  0  0  0  0999 V2000
    6.0934  -11.6646   19.7615 C   0  0  0  0  0  0  0  0  0  0  0  0
    7.6201  -12.5563   20.0928 S   0  0  0  0  0  0  0  0  0  0  0  0
    8.3910  -13.1358   18.5350 C   0  0  0  0  0  0  0  0  0  0  0  0
    9.6565  -13.8572   18.8910 C   0  0  0  0  0  0  0  0  0  0  0  0
   10.4382  -14.3615   17.7136 C   0  0  2  0  0  0  0  0  0  0  0  0
    9.5280  -15.2002   16.9471 N   0  0  0  0  0  0  0  0  0  0  0  0
   11.6632  -15.1009   18.0799 C   0  0  0  0  0  0  0  0  0  0  0  0
   11.6641  -16.3302   18.2299 O   0  0  0  0  0  0  0  0  0  0  0  0
   12.8612  -14.3875   18.2629 N   0  0  0  0  0  0  0  0  0  0  0  0
   14.1037  -14.9760   18.6925 C   0  0  1  0  0  0  0  0  0  0  0  0
   15.2386  -14.2833   18.0193 C   0  0  0  0  0  0  0  0  0  0  0  0
   15.5062  -14.7648   16.6533 C   0  0  0  0  0  0  0  0  0  0  0  0
   15.7944  -16.1006   16.3879 C   0  0  0  0  0  0  0  0  0  0  0  0
   15.9884  -16.2251   15.0630 N   0  0  0  0  0  0  0  0  0  0  0  0
   15.8330  -15.0220   14.4913 C   0  0  0  0  0  0  0  0  0  0  0  0
   15.5414  -14.1532   15.4742 N   0  0  0  0  0  0  0  0  0  0  0  0
   14.2418  -15.0060   20.1679 C   0  0  0  0  0  0  0  0  0  0  0  0
   14.4322  -13.9846   20.8760 O   0  0  0  0  0  0  0  0  0  0  0  0
   14.1536  -16.2644   20.8226 N   0  0  0  0  0  0  0  0  0  0  0  0
   14.3136  -16.4193   22.2586 C   0  0  1  0  0  0  0  0  0  0  0  0
   13.8393  -17.8257   22.5886 C   0  0  0  0  0  0  0  0  0  0  0  0
   13.7852  -18.1161   24.0136 C   0  0  0  0  0  0  0  0  0  0  0  0
   13.7206  -17.1917   25.0266 C   0  0  0  0  0  0  0  0  0  0  0  0
   13.6842  -17.8296   26.2111 N   0  0  0  0  0  0  0  0  0  0  0  0
   13.7266  -19.1449   25.9235 C   0  0  0  0  0  0  0  0  0  0  0  0
   13.7878  -19.3224   24.5938 N   0  0  0  0  0  0  0  0  0  0  0  0
   15.6970  -16.1808   22.6964 C   0  0  0  0  0  0  0  0  0  0  0  0
   15.9149  -15.4806   23.7088 O   0  0  0  0  0  0  0  0  0  0  0  0
   16.7457  -16.7227   21.9995 O   0  0  0  0  0  0  0  0  0  0  0  0
  2  1  1  0
  3  4  1  0
  3  2  1  0
  4  5  1  0
  5  6  1  1
  7  8  2  0
  7  5  1  0
  9  7  1  0
 10  9  1  0
 10 11  1  6
 12 16  1  0
 12 11  1  0
 13 12  2  0
 14 13  1  0
 14 15  1  0
 15 16  2  0
 17 10  1  0
 18 17  2  0
 19 17  1  0
 20 21  1  6
 20 19  1  0
 21 22  1  0
 22 26  1  0
 22 23  2  0
 23 24  1  0
 25 24  1  0
 26 25  2  0
 27 20  1  0
 28 27  2  0
 29 27  1  0
M  END
$$$$
