MHH.pdb
     RDKit          3D

 29 30  0  0  1  0  0  0  0  0999 V2000
    7.6123  -11.2742   27.4389 C   0  0  0  0  0  0  0  0  0  0  0  0
    5.9890  -12.0487   27.4670 S   0  0  0  0  0  0  0  0  0  0  0  0
    5.5185  -12.6433   25.7991 C   0  0  0  0  0  0  0  0  0  0  0  0
    6.2809  -13.9064   25.5312 C   0  0  0  0  0  0  0  0  0  0  0  0
    7.6242  -13.7000   24.8952 C   0  0  2  0  0  0  0  0  0  0  0  0
    7.4039  -12.8352   23.7450 N   0  0  0  0  0  0  0  0  0  0  0  0
    8.2984  -14.9529   24.4984 C   0  0  0  0  0  0  0  0  0  0  0  0
    8.2499  -15.9716   25.2008 O   0  0  0  0  0  0  0  0  0  0  0  0
    9.0148  -14.9882   23.2888 N   0  0  0  0  0  0  0  0  0  0  0  0
    9.7902  -16.1130   22.8324 C   0  0  1  0  0  0  0  0  0  0  0  0
   10.2679  -15.8546   21.4445 C   0  0  0  0  0  0  0  0  0  0  0  0
    9.1864  -15.5874   20.4810 C   0  0  0  0  0  0  0  0  0  0  0  0
    7.8442  -15.6683   20.8412 C   0  0  0  0  0  0  0  0  0  0  0  0
    7.1076  -15.3722   19.7557 N   0  0  0  0  0  0  0  0  0  0  0  0
    7.9351  -15.1100   18.7336 C   0  0  0  0  0  0  0  0  0  0  0  0
    9.1892  -15.2467   19.1967 N   0  0  0  0  0  0  0  0  0  0  0  0
   10.8889  -16.4651   23.7628 C   0  0  0  0  0  0  0  0  0  0  0  0
   11.9645  -15.8205   23.8545 O   0  0  0  0  0  0  0  0  0  0  0  0
   10.7171  -17.5989   24.6022 N   0  0  0  0  0  0  0  0  0  0  0  0
   11.6754  -17.9726   25.6288 C   0  0  1  0  0  0  0  0  0  0  0  0
   10.8804  -18.1228   26.9161 C   0  0  0  0  0  0  0  0  0  0  0  0
   10.4210  -16.8632   27.4819 C   0  0  0  0  0  0  0  0  0  0  0  0
    9.4471  -16.0484   26.9600 C   0  0  0  0  0  0  0  0  0  0  0  0
    9.2917  -14.9733   27.7545 N   0  0  0  0  0  0  0  0  0  0  0  0
   10.1707  -15.1297   28.7633 C   0  0  0  0  0  0  0  0  0  0  0  0
   10.8564  -16.2730   28.6017 N   0  0  0  0  0  0  0  0  0  0  0  0
   12.4152  -19.1960   25.2849 C   0  0  0  0  0  0  0  0  0  0  0  0
   12.0729  -19.8679   24.2879 O   0  0  0  0  0  0  0  0  0  0  0  0
   13.4764  -19.6009   26.0523 O   0  0  0  0  0  0  0  0  0  0  0  0
  2  1  1  0
  3  4  1  0
  3  2  1  0
  4  5  1  0
  5  6  1  6
  7  8  2  0
  7  5  1  0
  9  7  1  0
 10  9  1  0
 10 11  1  6
 12 16  1  0
 12 11  1  0
 13 12  2  0
 14 13  1  0
 14 15  1  0
 15 16  2  0
 17 10  1  0
 18 17  2  0
 19 17  1  0
 20 21  1  1
 20 19  1  0
 21 22  1  0
 22 26  1  0
 22 23  2  0
 23 24  1  0
 25 24  1  0
 26 25  2  0
 27 20  1  0
 28 27  2  0
 29 27  1  0
M  END
$$$$
