MHH.pdb
     RDKit          3D

 29 30  0  0  1  0  0  0  0  0999 V2000
    8.8541  -11.8075   19.8631 C   0  0  0  0  0  0  0  0  0  0  0  0
    7.4837  -12.8514   19.3453 S   0  0  0  0  0  0  0  0  0  0  0  0
    7.9981  -14.6073   19.2502 C   0  0  0  0  0  0  0  0  0  0  0  0
    9.1176  -14.8101   20.2271 C   0  0  0  0  0  0  0  0  0  0  0  0
    9.7068  -16.1901   20.2213 C   0  0  2  0  0  0  0  0  0  0  0  0
    8.5933  -17.1112   20.3977 N   0  0  0  0  0  0  0  0  0  0  0  0
   10.7432  -16.4036   21.2519 C   0  0  0  0  0  0  0  0  0  0  0  0
   10.7188  -15.8063   22.3365 O   0  0  0  0  0  0  0  0  0  0  0  0
   11.7860  -17.3107   20.9926 N   0  0  0  0  0  0  0  0  0  0  0  0
   12.9072  -17.5368   21.8680 C   0  0  1  0  0  0  0  0  0  0  0  0
   12.7498  -18.8558   22.5438 C   0  0  0  0  0  0  0  0  0  0  0  0
   11.5512  -18.9515   23.3943 C   0  0  0  0  0  0  0  0  0  0  0  0
   10.3036  -19.2812   22.8722 C   0  0  0  0  0  0  0  0  0  0  0  0
    9.4210  -19.2886   23.8869 N   0  0  0  0  0  0  0  0  0  0  0  0
   10.0667  -18.9771   25.0201 C   0  0  0  0  0  0  0  0  0  0  0  0
   11.3558  -18.7771   24.6971 N   0  0  0  0  0  0  0  0  0  0  0  0
   14.2102  -17.3970   21.1757 C   0  0  0  0  0  0  0  0  0  0  0  0
   14.5334  -18.0483   20.1499 O   0  0  0  0  0  0  0  0  0  0  0  0
   15.1514  -16.4711   21.7018 N   0  0  0  0  0  0  0  0  0  0  0  0
   16.4951  -16.3233   21.1685 C   0  0  1  0  0  0  0  0  0  0  0  0
   16.6323  -14.8641   20.7640 C   0  0  0  0  0  0  0  0  0  0  0  0
   15.9533  -14.5247   19.5224 C   0  0  0  0  0  0  0  0  0  0  0  0
   15.2495  -15.3898   18.7216 C   0  0  0  0  0  0  0  0  0  0  0  0
   14.7620  -14.7197   17.6611 N   0  0  0  0  0  0  0  0  0  0  0  0
   15.1673  -13.4440   17.8124 C   0  0  0  0  0  0  0  0  0  0  0  0
   15.8889  -13.3219   18.9384 N   0  0  0  0  0  0  0  0  0  0  0  0
   17.5276  -16.7339   22.1317 C   0  0  0  0  0  0  0  0  0  0  0  0
   17.1935  -17.1099   23.2760 O   0  0  0  0  0  0  0  0  0  0  0  0
   18.8520  -16.7056   21.7793 O   0  0  0  0  0  0  0  0  0  0  0  0
  2  1  1  0
  3  4  1  0
  3  2  1  0
  4  5  1  0
  5  6  1  1
  7  8  2  0
  7  5  1  0
  9  7  1  0
 10  9  1  0
 10 11  1  6
 12 16  1  0
 12 11  1  0
 13 12  2  0
 14 13  1  0
 14 15  1  0
 15 16  2  0
 17 10  1  0
 18 17  2  0
 19 17  1  0
 20 21  1  1
 20 19  1  0
 21 22  1  0
 22 26  1  0
 22 23  2  0
 23 24  1  0
 25 24  1  0
 26 25  2  0
 27 20  1  0
 28 27  2  0
 29 27  1  0
M  END
$$$$
