MHH.pdb
     RDKit          3D

 29 30  0  0  1  0  0  0  0  0999 V2000
    8.2219  -10.6526   20.0711 C   0  0  0  0  0  0  0  0  0  0  0  0
    8.7168  -12.3042   20.5838 S   0  0  0  0  0  0  0  0  0  0  0  0
    7.2530  -13.3346   20.9741 C   0  0  0  0  0  0  0  0  0  0  0  0
    7.7430  -14.6141   21.5834 C   0  0  0  0  0  0  0  0  0  0  0  0
    8.2650  -15.6149   20.5946 C   0  0  2  0  0  0  0  0  0  0  0  0
    7.1125  -16.0814   19.8374 N   0  0  0  0  0  0  0  0  0  0  0  0
    8.9902  -16.7444   21.2112 C   0  0  0  0  0  0  0  0  0  0  0  0
    8.4207  -17.8043   21.5043 O   0  0  0  0  0  0  0  0  0  0  0  0
   10.3656  -16.6108   21.4719 N   0  0  0  0  0  0  0  0  0  0  0  0
   11.1831  -17.6282   22.0811 C   0  0  1  0  0  0  0  0  0  0  0  0
   12.5888  -17.4830   21.6080 C   0  0  0  0  0  0  0  0  0  0  0  0
   13.4845  -18.5623   22.0575 C   0  0  0  0  0  0  0  0  0  0  0  0
   14.5005  -18.3374   22.9822 C   0  0  0  0  0  0  0  0  0  0  0  0
   15.1367  -19.5043   23.1875 N   0  0  0  0  0  0  0  0  0  0  0  0
   14.5594  -20.4475   22.4291 C   0  0  0  0  0  0  0  0  0  0  0  0
   13.5611  -19.8536   21.7534 N   0  0  0  0  0  0  0  0  0  0  0  0
   11.0720  -17.6417   23.5590 C   0  0  0  0  0  0  0  0  0  0  0  0
   11.6043  -18.5111   24.2949 O   0  0  0  0  0  0  0  0  0  0  0  0
   10.3192  -16.6102   24.1828 N   0  0  0  0  0  0  0  0  0  0  0  0
   10.0638  -16.5747   25.6129 C   0  0  1  0  0  0  0  0  0  0  0  0
    8.5595  -16.7210   25.7785 C   0  0  0  0  0  0  0  0  0  0  0  0
    7.8042  -15.5256   25.4345 C   0  0  0  0  0  0  0  0  0  0  0  0
    8.3261  -14.3434   24.9711 C   0  0  0  0  0  0  0  0  0  0  0  0
    7.3270  -13.4664   24.7614 N   0  0  0  0  0  0  0  0  0  0  0  0
    6.1930  -14.1115   25.0965 C   0  0  0  0  0  0  0  0  0  0  0  0
    6.4778  -15.3588   25.5047 N   0  0  0  0  0  0  0  0  0  0  0  0
   10.8080  -17.6138   26.3401 C   0  0  0  0  0  0  0  0  0  0  0  0
   10.6653  -17.7279   27.5767 O   0  0  0  0  0  0  0  0  0  0  0  0
   11.6555  -18.4555   25.6677 O   0  0  0  0  0  0  0  0  0  0  0  0
  2  1  1  0
  3  4  1  0
  3  2  1  0
  4  5  1  0
  5  6  1  1
  7  8  2  0
  7  5  1  0
  9  7  1  0
 10  9  1  0
 10 11  1  1
 12 16  1  0
 12 11  1  0
 13 12  2  0
 14 13  1  0
 14 15  1  0
 15 16  2  0
 17 10  1  0
 18 17  2  0
 19 17  1  0
 20 21  1  6
 20 19  1  0
 21 22  1  0
 22 26  1  0
 22 23  2  0
 23 24  1  0
 25 24  1  0
 26 25  2  0
 27 20  1  0
 28 27  2  0
 29 27  1  0
M  END
$$$$
