MHH.pdb
     RDKit          3D

 29 30  0  0  1  0  0  0  0  0999 V2000
    8.6734  -11.4771   21.5165 C   0  0  0  0  0  0  0  0  0  0  0  0
    8.5749  -12.7706   20.2704 S   0  0  0  0  0  0  0  0  0  0  0  0
    7.1388  -13.8664   20.5766 C   0  0  0  0  0  0  0  0  0  0  0  0
    7.1340  -14.9231   19.5126 C   0  0  0  0  0  0  0  0  0  0  0  0
    8.3629  -15.7837   19.4842 C   0  0  2  0  0  0  0  0  0  0  0  0
    8.1988  -16.6943   18.3603 N   0  0  0  0  0  0  0  0  0  0  0  0
    8.6052  -16.5243   20.7390 C   0  0  0  0  0  0  0  0  0  0  0  0
    7.7457  -16.6038   21.6270 O   0  0  0  0  0  0  0  0  0  0  0  0
    9.8471  -17.1561   20.9289 N   0  0  0  0  0  0  0  0  0  0  0  0
   10.1508  -18.0471   22.0192 C   0  0  1  0  0  0  0  0  0  0  0  0
   11.2568  -18.9618   21.6176 C   0  0  0  0  0  0  0  0  0  0  0  0
   10.8730  -19.9494   20.5946 C   0  0  0  0  0  0  0  0  0  0  0  0
    9.6236  -20.5630   20.5972 C   0  0  0  0  0  0  0  0  0  0  0  0
    9.5753  -21.4043   19.5491 N   0  0  0  0  0  0  0  0  0  0  0  0
   10.7432  -21.3406   18.8931 C   0  0  0  0  0  0  0  0  0  0  0  0
   11.5133  -20.4528   19.5447 N   0  0  0  0  0  0  0  0  0  0  0  0
   10.4300  -17.3276   23.2845 C   0  0  0  0  0  0  0  0  0  0  0  0
   11.2402  -16.3713   23.3840 O   0  0  0  0  0  0  0  0  0  0  0  0
    9.7408  -17.7425   24.4561 N   0  0  0  0  0  0  0  0  0  0  0  0
   10.0246  -17.1972   25.7729 C   0  0  1  0  0  0  0  0  0  0  0  0
    8.6766  -16.8721   26.3964 C   0  0  0  0  0  0  0  0  0  0  0  0
    8.0154  -15.7141   25.8135 C   0  0  0  0  0  0  0  0  0  0  0  0
    8.5158  -14.9117   24.8182 C   0  0  0  0  0  0  0  0  0  0  0  0
    7.6258  -13.9421   24.5369 N   0  0  0  0  0  0  0  0  0  0  0  0
    6.5801  -14.1507   25.3601 C   0  0  0  0  0  0  0  0  0  0  0  0
    6.8124  -15.2228   26.1348 N   0  0  0  0  0  0  0  0  0  0  0  0
   10.8140  -18.1198   26.6023 C   0  0  0  0  0  0  0  0  0  0  0  0
   11.0015  -19.2940   26.2168 O   0  0  0  0  0  0  0  0  0  0  0  0
   11.3437  -17.6971   27.7939 O   0  0  0  0  0  0  0  0  0  0  0  0
  2  1  1  0
  3  4  1  0
  3  2  1  0
  4  5  1  0
  5  6  1  6
  7  8  2  0
  7  5  1  0
  9  7  1  0
 10  9  1  0
 10 11  1  6
 12 16  1  0
 12 11  1  0
 13 12  2  0
 14 13  1  0
 14 15  1  0
 15 16  2  0
 17 10  1  0
 18 17  2  0
 19 17  1  0
 20 21  1  1
 20 19  1  0
 21 22  1  0
 22 26  1  0
 22 23  2  0
 23 24  1  0
 25 24  1  0
 26 25  2  0
 27 20  1  0
 28 27  2  0
 29 27  1  0
M  END
$$$$
