MHH.pdb
     RDKit          3D

 29 30  0  0  1  0  0  0  0  0999 V2000
    5.7997  -10.9370   26.2536 C   0  0  0  0  0  0  0  0  0  0  0  0
    6.9431  -12.3253   26.2211 S   0  0  0  0  0  0  0  0  0  0  0  0
    6.4788  -13.5252   24.9167 C   0  0  0  0  0  0  0  0  0  0  0  0
    7.4528  -14.6638   24.9742 C   0  0  0  0  0  0  0  0  0  0  0  0
    7.2395  -15.7193   23.9292 C   0  0  2  0  0  0  0  0  0  0  0  0
    5.9668  -16.3533   24.2418 N   0  0  0  0  0  0  0  0  0  0  0  0
    8.3268  -16.7161   23.8534 C   0  0  0  0  0  0  0  0  0  0  0  0
    8.0984  -17.9194   23.6704 O   0  0  0  0  0  0  0  0  0  0  0  0
    9.6581  -16.2850   23.9931 N   0  0  0  0  0  0  0  0  0  0  0  0
   10.8127  -17.1152   23.7648 C   0  0  1  0  0  0  0  0  0  0  0  0
   11.3338  -16.8715   22.3900 C   0  0  0  0  0  0  0  0  0  0  0  0
   10.3268  -17.0484   21.3298 C   0  0  0  0  0  0  0  0  0  0  0  0
    9.8184  -15.9700   20.6114 C   0  0  0  0  0  0  0  0  0  0  0  0
    8.9282  -16.4486   19.7242 N   0  0  0  0  0  0  0  0  0  0  0  0
    8.8606  -17.7810   19.8598 C   0  0  0  0  0  0  0  0  0  0  0  0
    9.7165  -18.1215   20.8383 N   0  0  0  0  0  0  0  0  0  0  0  0
   11.8501  -16.9516   24.8106 C   0  0  0  0  0  0  0  0  0  0  0  0
   12.4763  -15.8810   25.0167 O   0  0  0  0  0  0  0  0  0  0  0  0
   12.1559  -18.0715   25.6306 N   0  0  0  0  0  0  0  0  0  0  0  0
   12.0417  -18.0431   27.0790 C   0  0  1  0  0  0  0  0  0  0  0  0
   10.5957  -17.6849   27.3831 C   0  0  0  0  0  0  0  0  0  0  0  0
   10.4019  -16.3083   27.8136 C   0  0  0  0  0  0  0  0  0  0  0  0
   11.3713  -15.3390   27.8881 C   0  0  0  0  0  0  0  0  0  0  0  0
   10.8219  -14.1913   28.3266 N   0  0  0  0  0  0  0  0  0  0  0  0
    9.5158  -14.4577   28.5208 C   0  0  0  0  0  0  0  0  0  0  0  0
    9.2576  -15.7387   28.2112 N   0  0  0  0  0  0  0  0  0  0  0  0
   12.4420  -19.3161   27.6968 C   0  0  0  0  0  0  0  0  0  0  0  0
   12.1085  -20.3961   27.1631 O   0  0  0  0  0  0  0  0  0  0  0  0
   13.1780  -19.3219   28.8532 O   0  0  0  0  0  0  0  0  0  0  0  0
  2  1  1  0
  3  4  1  0
  3  2  1  0
  4  5  1  0
  5  6  1  1
  7  8  2  0
  7  5  1  0
  9  7  1  0
 10  9  1  0
 10 11  1  6
 12 16  1  0
 12 11  1  0
 13 12  2  0
 14 13  1  0
 14 15  1  0
 15 16  2  0
 17 10  1  0
 18 17  2  0
 19 17  1  0
 20 21  1  6
 20 19  1  0
 21 22  1  0
 22 26  1  0
 22 23  2  0
 23 24  1  0
 25 24  1  0
 26 25  2  0
 27 20  1  0
 28 27  2  0
 29 27  1  0
M  END
$$$$
