PYL.pdb
     RDKit          3D

 28 29  0  0  1  0  0  0  0  0999 V2000
   27.5791  -21.2401  -14.7234 N   0  0  0  0  0  0  0  0  0  0  0  0
   28.0543  -21.0565  -16.0994 C   0  0  0  0  0  0  0  0  0  0  0  0
   27.3634  -19.7312  -16.4542 C   0  0  0  0  0  0  0  0  0  0  0  0
   27.6066  -18.9386  -15.1682 C   0  0  0  0  0  0  0  0  0  0  0  0
   27.9219  -19.9806  -14.1356 C   0  0  1  0  0  0  0  0  0  0  0  0
   27.2675  -19.7373  -12.8289 C   0  0  0  0  0  0  0  0  0  0  0  0
   27.4036  -18.5946  -12.3203 O   0  0  0  0  0  0  0  0  0  0  0  0
   20.6898  -19.0878  -14.8725 O   0  0  0  0  0  0  0  0  0  0  0  0
   21.5863  -19.5732  -13.9163 C   0  0  0  0  0  0  0  0  0  0  0  0
   21.6215  -19.0766  -12.6368 C   0  0  0  0  0  0  0  0  0  0  0  0
   22.5056  -19.5568  -11.6970 C   0  0  0  0  0  0  0  0  0  0  0  0
   23.4033  -20.5665  -12.0005 C   0  0  0  0  0  0  0  0  0  0  0  0
   24.3473  -21.0956  -11.0179 C   0  0  0  0  0  0  0  0  0  0  0  0
   25.6978  -20.4633  -11.0040 C   0  0  2  0  0  0  0  0  0  0  0  0
   26.5114  -20.7221  -12.1464 N   0  0  0  0  0  0  0  0  0  0  0  0
   26.3666  -20.8699   -9.7285 C   0  0  0  0  0  0  0  0  0  0  0  0
   26.7855  -22.0479   -9.6511 O   0  0  0  0  0  0  0  0  0  0  0  0
   23.3626  -21.0592  -13.2838 C   0  0  0  0  0  0  0  0  0  0  0  0
   22.4794  -20.5857  -14.2374 C   0  0  0  0  0  0  0  0  0  0  0  0
   28.0203  -19.9080   -4.3575 C   0  0  0  0  0  0  0  0  0  0  0  0
   28.7503  -19.4955   -5.5705 C   0  0  2  0  0  0  0  0  0  0  0  0
   29.5718  -18.2327   -5.2524 C   0  0  0  0  0  0  0  0  0  0  0  0
   28.0393  -19.3524   -6.8513 C   0  0  0  0  0  0  0  0  0  0  0  0
   27.1979  -20.4329   -7.3713 C   0  0  2  0  0  0  0  0  0  0  0  0
   26.5464  -20.0113   -8.6307 N   0  0  0  0  0  0  0  0  0  0  0  0
   26.1235  -20.9075   -6.5080 C   0  0  0  0  0  0  0  0  0  0  0  0
   24.9524  -20.4736   -6.4434 O   0  0  0  0  0  0  0  0  0  0  0  0
   26.3697  -21.9835   -5.6149 O   0  0  0  0  0  0  0  0  0  0  0  0
  1  5  1  0
  2  3  1  0
  2  1  1  0
  3  4  1  0
  4  5  1  0
  5  6  1  1
  6  7  2  0
  9 10  2  0
  9  8  1  0
 11 10  1  0
 12 11  2  0
 13 12  1  0
 14 13  1  6
 14 16  1  0
 15  6  1  0
 15 14  1  0
 16 25  1  0
 16 17  2  0
 18 12  1  0
 18 19  2  0
 19  9  1  0
 21 20  1  1
 21 23  1  0
 22 21  1  0
 24 23  1  1
 24 26  1  0
 25 24  1  0
 26 27  2  0
 26 28  1  0
M  END
$$$$
