PYL.pdb
     RDKit          3D

 28 29  0  0  1  0  0  0  0  0999 V2000
   16.0669  -21.0042   -0.0356 N   0  0  0  0  0  0  0  0  0  0  0  0
   15.1184  -21.8664   -0.7499 C   0  0  0  0  0  0  0  0  0  0  0  0
   14.9913  -23.0241    0.2517 C   0  0  0  0  0  0  0  0  0  0  0  0
   14.8851  -22.2449    1.5643 C   0  0  0  0  0  0  0  0  0  0  0  0
   15.4336  -20.8858    1.2428 C   0  0  1  0  0  0  0  0  0  0  0  0
   16.3206  -20.3401    2.2965 C   0  0  0  0  0  0  0  0  0  0  0  0
   17.5605  -20.3897    2.0885 O   0  0  0  0  0  0  0  0  0  0  0  0
   17.5918  -12.9911    2.6746 O   0  0  0  0  0  0  0  0  0  0  0  0
   17.2088  -14.1997    3.2630 C   0  0  0  0  0  0  0  0  0  0  0  0
   16.0890  -14.8819    2.8561 C   0  0  0  0  0  0  0  0  0  0  0  0
   15.7143  -16.0723    3.4374 C   0  0  0  0  0  0  0  0  0  0  0  0
   16.4525  -16.6381    4.4632 C   0  0  0  0  0  0  0  0  0  0  0  0
   16.0771  -17.9032    5.0917 C   0  0  0  0  0  0  0  0  0  0  0  0
   16.6534  -19.1336    4.4772 C   0  0  2  0  0  0  0  0  0  0  0  0
   15.8348  -19.7772    3.5025 N   0  0  0  0  0  0  0  0  0  0  0  0
   17.0329  -20.0538    5.5947 C   0  0  0  0  0  0  0  0  0  0  0  0
   16.2338  -20.9773    5.8734 O   0  0  0  0  0  0  0  0  0  0  0  0
   17.5728  -15.9496    4.8658 C   0  0  0  0  0  0  0  0  0  0  0  0
   17.9605  -14.7529    4.2901 C   0  0  0  0  0  0  0  0  0  0  0  0
   20.6399  -23.1798    6.7228 C   0  0  0  0  0  0  0  0  0  0  0  0
   20.8450  -21.7205    6.7748 C   0  0  2  0  0  0  0  0  0  0  0  0
   22.3406  -21.4353    7.0039 C   0  0  0  0  0  0  0  0  0  0  0  0
   20.0092  -20.8849    7.6521 C   0  0  0  0  0  0  0  0  0  0  0  0
   18.5567  -20.8215    7.4728 C   0  0  2  0  0  0  0  0  0  0  0  0
   18.2212  -19.9367    6.3356 N   0  0  0  0  0  0  0  0  0  0  0  0
   17.7724  -20.3335    8.6004 C   0  0  0  0  0  0  0  0  0  0  0  0
   17.4177  -19.1558    8.8266 O   0  0  0  0  0  0  0  0  0  0  0  0
   17.3289  -21.2495    9.5904 O   0  0  0  0  0  0  0  0  0  0  0  0
  1  5  1  0
  2  3  1  0
  2  1  1  0
  3  4  1  0
  4  5  1  0
  5  6  1  1
  6  7  2  0
  9 10  2  0
  9  8  1  0
 11 10  1  0
 12 11  2  0
 13 12  1  0
 14 13  1  1
 14 16  1  0
 15  6  1  0
 15 14  1  0
 16 25  1  0
 16 17  2  0
 18 12  1  0
 18 19  2  0
 19  9  1  0
 21 20  1  1
 21 23  1  0
 22 21  1  0
 24 23  1  1
 24 26  1  0
 25 24  1  0
 26 27  2  0
 26 28  1  0
M  END
$$$$
