PYL.pdb
     RDKit          3D

 28 29  0  0  1  0  0  0  0  0999 V2000
   27.3994  -35.0281   -4.3245 N   0  0  0  0  0  0  0  0  0  0  0  0
   27.9940  -35.3256   -5.6326 C   0  0  0  0  0  0  0  0  0  0  0  0
   29.2165  -34.3962   -5.5965 C   0  0  0  0  0  0  0  0  0  0  0  0
   29.7052  -34.6360   -4.1665 C   0  0  0  0  0  0  0  0  0  0  0  0
   28.5202  -35.2192   -3.4546 C   0  0  1  0  0  0  0  0  0  0  0  0
   28.3163  -34.6694   -2.0941 C   0  0  0  0  0  0  0  0  0  0  0  0
   29.2757  -34.7624   -1.2854 O   0  0  0  0  0  0  0  0  0  0  0  0
   24.8243  -30.2668    4.8344 O   0  0  0  0  0  0  0  0  0  0  0  0
   25.0764  -30.8029    3.5684 C   0  0  0  0  0  0  0  0  0  0  0  0
   26.2841  -30.6359    2.9372 C   0  0  0  0  0  0  0  0  0  0  0  0
   26.5296  -31.1653    1.6903 C   0  0  0  0  0  0  0  0  0  0  0  0
   25.5658  -31.8932    1.0130 C   0  0  0  0  0  0  0  0  0  0  0  0
   25.8055  -32.4689   -0.3090 C   0  0  0  0  0  0  0  0  0  0  0  0
   26.8987  -33.4797   -0.3922 C   0  0  2  0  0  0  0  0  0  0  0  0
   27.1080  -34.0567   -1.6796 N   0  0  0  0  0  0  0  0  0  0  0  0
   26.6294  -34.5142    0.6551 C   0  0  0  0  0  0  0  0  0  0  0  0
   25.7044  -35.3289    0.4316 O   0  0  0  0  0  0  0  0  0  0  0  0
   24.3586  -32.0565    1.6509 C   0  0  0  0  0  0  0  0  0  0  0  0
   24.0990  -31.5301    2.9037 C   0  0  0  0  0  0  0  0  0  0  0  0
   29.4652  -38.5474    4.0122 C   0  0  0  0  0  0  0  0  0  0  0  0
   28.2305  -37.8105    3.6853 C   0  0  2  0  0  0  0  0  0  0  0  0
   27.2905  -38.7392    2.8948 C   0  0  0  0  0  0  0  0  0  0  0  0
   28.3042  -36.4800    3.0603 C   0  0  0  0  0  0  0  0  0  0  0  0
   27.0986  -35.6715    2.8640 C   0  0  2  0  0  0  0  0  0  0  0  0
   27.3497  -34.6170    1.8573 N   0  0  0  0  0  0  0  0  0  0  0  0
   26.5659  -34.9845    4.0341 C   0  0  0  0  0  0  0  0  0  0  0  0
   26.8817  -33.8519    4.4598 O   0  0  0  0  0  0  0  0  0  0  0  0
   25.5716  -35.6199    4.8238 O   0  0  0  0  0  0  0  0  0  0  0  0
  1  5  1  0
  2  3  1  0
  2  1  1  0
  3  4  1  0
  4  5  1  0
  5  6  1  1
  6  7  2  0
  9 10  2  0
  9  8  1  0
 11 10  1  0
 12 11  2  0
 13 12  1  0
 14 13  1  6
 14 16  1  0
 15  6  1  0
 15 14  1  0
 16 25  1  0
 16 17  2  0
 18 12  1  0
 18 19  2  0
 19  9  1  0
 21 20  1  6
 21 23  1  0
 22 21  1  0
 24 23  1  1
 24 26  1  0
 25 24  1  0
 26 27  2  0
 26 28  1  0
M  END
$$$$
