PYL.pdb
     RDKit          3D

 28 29  0  0  1  0  0  0  0  0999 V2000
   19.4616  -15.6124  -15.8421 N   0  0  0  0  0  0  0  0  0  0  0  0
   19.4535  -17.0435  -16.1662 C   0  0  0  0  0  0  0  0  0  0  0  0
   18.6979  -17.0181  -17.5034 C   0  0  0  0  0  0  0  0  0  0  0  0
   19.3636  -15.8155  -18.1755 C   0  0  0  0  0  0  0  0  0  0  0  0
   19.9937  -15.0527  -17.0475 C   0  0  1  0  0  0  0  0  0  0  0  0
   19.8142  -13.5858  -17.1507 C   0  0  0  0  0  0  0  0  0  0  0  0
   20.3004  -13.0155  -18.1614 O   0  0  0  0  0  0  0  0  0  0  0  0
   13.7380  -13.3477  -19.8327 O   0  0  0  0  0  0  0  0  0  0  0  0
   14.6408  -12.7786  -18.9301 C   0  0  0  0  0  0  0  0  0  0  0  0
   15.3703  -11.6583  -19.2425 C   0  0  0  0  0  0  0  0  0  0  0  0
   16.2587  -11.1000  -18.3512 C   0  0  0  0  0  0  0  0  0  0  0  0
   16.4580  -11.6450  -17.0940 C   0  0  0  0  0  0  0  0  0  0  0  0
   17.3917  -11.0666  -16.1295 C   0  0  0  0  0  0  0  0  0  0  0  0
   18.8262  -11.4320  -16.3101 C   0  0  2  0  0  0  0  0  0  0  0  0
   19.1307  -12.8188  -16.1750 N   0  0  0  0  0  0  0  0  0  0  0  0
   19.6236  -10.5830  -15.3704 C   0  0  0  0  0  0  0  0  0  0  0  0
   19.3762  -10.6937  -14.1474 O   0  0  0  0  0  0  0  0  0  0  0  0
   15.7242  -12.7669  -16.7877 C   0  0  0  0  0  0  0  0  0  0  0  0
   14.8283  -13.3378  -17.6738 C   0  0  0  0  0  0  0  0  0  0  0  0
   24.7084  -10.3057  -15.9310 C   0  0  0  0  0  0  0  0  0  0  0  0
   23.8168   -9.7135  -14.9168 C   0  0  2  0  0  0  0  0  0  0  0  0
   23.2032  -10.8447  -14.0713 C   0  0  0  0  0  0  0  0  0  0  0  0
   22.7904   -8.7354  -15.3119 C   0  0  0  0  0  0  0  0  0  0  0  0
   21.4091   -8.8599  -14.8402 C   0  0  2  0  0  0  0  0  0  0  0  0
   20.6201   -9.6823  -15.7833 N   0  0  0  0  0  0  0  0  0  0  0  0
   20.6566   -7.6237  -14.6657 C   0  0  0  0  0  0  0  0  0  0  0  0
   19.8428   -7.1101  -15.4644 O   0  0  0  0  0  0  0  0  0  0  0  0
   20.8207   -6.8691  -13.4743 O   0  0  0  0  0  0  0  0  0  0  0  0
  1  5  1  0
  2  3  1  0
  2  1  1  0
  3  4  1  0
  4  5  1  0
  5  6  1  6
  6  7  2  0
  9 10  2  0
  9  8  1  0
 11 10  1  0
 12 11  2  0
 13 12  1  0
 14 13  1  1
 14 16  1  0
 15  6  1  0
 15 14  1  0
 16 25  1  0
 16 17  2  0
 18 12  1  0
 18 19  2  0
 19  9  1  0
 21 20  1  6
 21 23  1  0
 22 21  1  0
 24 23  1  6
 24 26  1  0
 25 24  1  0
 26 27  2  0
 26 28  1  0
M  END
$$$$
