PYL.pdb
     RDKit          3D

 28 29  0  0  1  0  0  0  0  0999 V2000
   24.6314  -12.9065  -15.6300 N   0  0  0  0  0  0  0  0  0  0  0  0
   25.5943  -14.0025  -15.7870 C   0  0  0  0  0  0  0  0  0  0  0  0
   25.1603  -14.5561  -17.1526 C   0  0  0  0  0  0  0  0  0  0  0  0
   24.9508  -13.2528  -17.9264 C   0  0  0  0  0  0  0  0  0  0  0  0
   24.8002  -12.2028  -16.8652 C   0  0  1  0  0  0  0  0  0  0  0  0
   23.7209  -11.2274  -17.1452 C   0  0  0  0  0  0  0  0  0  0  0  0
   23.7982  -10.5750  -18.2183 O   0  0  0  0  0  0  0  0  0  0  0  0
   19.0343  -14.5061  -20.5910 O   0  0  0  0  0  0  0  0  0  0  0  0
   19.3152  -13.5689  -19.5928 C   0  0  0  0  0  0  0  0  0  0  0  0
   19.0694  -12.2293  -19.7656 C   0  0  0  0  0  0  0  0  0  0  0  0
   19.3470  -11.3084  -18.7805 C   0  0  0  0  0  0  0  0  0  0  0  0
   19.8891  -11.6928  -17.5657 C   0  0  0  0  0  0  0  0  0  0  0  0
   20.1871  -10.7340  -16.5034 C   0  0  0  0  0  0  0  0  0  0  0  0
   21.5459  -10.1207  -16.5402 C   0  0  2  0  0  0  0  0  0  0  0  0
   22.6298  -11.0072  -16.2688 N   0  0  0  0  0  0  0  0  0  0  0  0
   21.5295   -8.9460  -15.6133 C   0  0  0  0  0  0  0  0  0  0  0  0
   21.6862   -9.1770  -14.3921 O   0  0  0  0  0  0  0  0  0  0  0  0
   20.1328  -13.0360  -17.3993 C   0  0  0  0  0  0  0  0  0  0  0  0
   19.8584  -13.9715  -18.3808 C   0  0  0  0  0  0  0  0  0  0  0  0
   21.8706   -4.0073  -13.5132 C   0  0  0  0  0  0  0  0  0  0  0  0
   22.1420   -4.0527  -14.9619 C   0  0  2  0  0  0  0  0  0  0  0  0
   21.3652   -2.9154  -15.6503 C   0  0  0  0  0  0  0  0  0  0  0  0
   21.9956   -5.3150  -15.7046 C   0  0  0  0  0  0  0  0  0  0  0  0
   21.3210   -6.4687  -15.1049 C   0  0  2  0  0  0  0  0  0  0  0  0
   21.3503   -7.6178  -16.0361 N   0  0  0  0  0  0  0  0  0  0  0  0
   19.9226   -6.2959  -14.7315 C   0  0  0  0  0  0  0  0  0  0  0  0
   18.9146   -6.5107  -15.4398 O   0  0  0  0  0  0  0  0  0  0  0  0
   19.6003   -5.8339  -13.4282 O   0  0  0  0  0  0  0  0  0  0  0  0
  1  5  1  0
  2  3  1  0
  2  1  1  0
  3  4  1  0
  4  5  1  0
  5  6  1  6
  6  7  2  0
  9 10  2  0
  9  8  1  0
 11 10  1  0
 12 11  2  0
 13 12  1  0
 14 13  1  1
 14 16  1  0
 15  6  1  0
 15 14  1  0
 16 25  1  0
 16 17  2  0
 18 12  1  0
 18 19  2  0
 19  9  1  0
 21 20  1  1
 21 23  1  0
 22 21  1  0
 24 23  1  6
 24 26  1  0
 25 24  1  0
 26 27  2  0
 26 28  1  0
M  END
$$$$
