PYL.pdb
     RDKit          3D

 28 29  0  0  1  0  0  0  0  0999 V2000
   27.5568  -21.1914  -14.8569 N   0  0  0  0  0  0  0  0  0  0  0  0
   28.0432  -20.9800  -16.2251 C   0  0  0  0  0  0  0  0  0  0  0  0
   27.3041  -19.6815  -16.5819 C   0  0  0  0  0  0  0  0  0  0  0  0
   27.4972  -18.8879  -15.2880 C   0  0  0  0  0  0  0  0  0  0  0  0
   27.8401  -19.9227  -14.2571 C   0  0  1  0  0  0  0  0  0  0  0  0
   27.1584  -19.7145  -12.9584 C   0  0  0  0  0  0  0  0  0  0  0  0
   27.2772  -18.5834  -12.4202 O   0  0  0  0  0  0  0  0  0  0  0  0
   20.7066  -19.0277  -15.3065 O   0  0  0  0  0  0  0  0  0  0  0  0
   21.5563  -19.5331  -14.3185 C   0  0  0  0  0  0  0  0  0  0  0  0
   21.6326  -18.9689  -13.0692 C   0  0  0  0  0  0  0  0  0  0  0  0
   22.4704  -19.4690  -12.0979 C   0  0  0  0  0  0  0  0  0  0  0  0
   23.2776  -20.5683  -12.3376 C   0  0  0  0  0  0  0  0  0  0  0  0
   24.1707  -21.1198  -11.3204 C   0  0  0  0  0  0  0  0  0  0  0  0
   25.5151  -20.4827  -11.2175 C   0  0  2  0  0  0  0  0  0  0  0  0
   26.3950  -20.7195  -12.3147 N   0  0  0  0  0  0  0  0  0  0  0  0
   26.1106  -20.9079   -9.9121 C   0  0  0  0  0  0  0  0  0  0  0  0
   26.2888  -22.1352   -9.7359 O   0  0  0  0  0  0  0  0  0  0  0  0
   23.1962  -21.1284  -13.5909 C   0  0  0  0  0  0  0  0  0  0  0  0
   22.3586  -20.6359  -14.5756 C   0  0  0  0  0  0  0  0  0  0  0  0
   28.1374  -20.0618   -4.6413 C   0  0  0  0  0  0  0  0  0  0  0  0
   28.8253  -19.7535   -5.9086 C   0  0  2  0  0  0  0  0  0  0  0  0
   29.8450  -18.6267   -5.6607 C   0  0  0  0  0  0  0  0  0  0  0  0
   28.0474  -19.4998   -7.1321 C   0  0  0  0  0  0  0  0  0  0  0  0
   27.0356  -20.4535   -7.5934 C   0  0  2  0  0  0  0  0  0  0  0  0
   26.4745  -20.0148   -8.8900 N   0  0  0  0  0  0  0  0  0  0  0  0
   25.8900  -20.6755   -6.7197 C   0  0  0  0  0  0  0  0  0  0  0  0
   24.8364  -20.0043   -6.6625 O   0  0  0  0  0  0  0  0  0  0  0  0
   25.9096  -21.7620   -5.8059 O   0  0  0  0  0  0  0  0  0  0  0  0
  1  5  1  0
  2  3  1  0
  2  1  1  0
  3  4  1  0
  4  5  1  0
  5  6  1  1
  6  7  2  0
  9 10  2  0
  9  8  1  0
 11 10  1  0
 12 11  2  0
 13 12  1  0
 14 13  1  6
 14 16  1  0
 15  6  1  0
 15 14  1  0
 16 25  1  0
 16 17  2  0
 18 12  1  0
 18 19  2  0
 19  9  1  0
 21 20  1  1
 21 23  1  0
 22 21  1  0
 24 23  1  1
 24 26  1  0
 25 24  1  0
 26 27  2  0
 26 28  1  0
M  END
$$$$
