PYL.pdb
     RDKit          3D

 28 29  0  0  1  0  0  0  0  0999 V2000
   28.6151  -20.3774  -16.6940 N   0  0  0  0  0  0  0  0  0  0  0  0
   29.3452  -19.8991  -17.8735 C   0  0  0  0  0  0  0  0  0  0  0  0
   28.6192  -18.5690  -18.1254 C   0  0  0  0  0  0  0  0  0  0  0  0
   28.5139  -18.0353  -16.6953 C   0  0  0  0  0  0  0  0  0  0  0  0
   28.7066  -19.2428  -15.8257 C   0  0  1  0  0  0  0  0  0  0  0  0
   27.7756  -19.2993  -14.6748 C   0  0  0  0  0  0  0  0  0  0  0  0
   27.7831  -18.3244  -13.8793 O   0  0  0  0  0  0  0  0  0  0  0  0
   19.8143  -20.0948  -11.0626 O   0  0  0  0  0  0  0  0  0  0  0  0
   20.9832  -20.3315  -11.7916 C   0  0  0  0  0  0  0  0  0  0  0  0
   21.4205  -19.4650  -12.7626 C   0  0  0  0  0  0  0  0  0  0  0  0
   22.5723  -19.7006  -13.4789 C   0  0  0  0  0  0  0  0  0  0  0  0
   23.3454  -20.8268  -13.2520 C   0  0  0  0  0  0  0  0  0  0  0  0
   24.5745  -21.0951  -13.9963 C   0  0  0  0  0  0  0  0  0  0  0  0
   25.7838  -20.3446  -13.5515 C   0  0  2  0  0  0  0  0  0  0  0  0
   26.8971  -20.3862  -14.4420 N   0  0  0  0  0  0  0  0  0  0  0  0
   26.1349  -20.8369  -12.1826 C   0  0  0  0  0  0  0  0  0  0  0  0
   26.6219  -21.9877  -12.0946 O   0  0  0  0  0  0  0  0  0  0  0  0
   22.9016  -21.6904  -12.2782 C   0  0  0  0  0  0  0  0  0  0  0  0
   21.7463  -21.4654  -11.5512 C   0  0  0  0  0  0  0  0  0  0  0  0
   27.6456  -18.8030   -6.5556 C   0  0  0  0  0  0  0  0  0  0  0  0
   27.4853  -19.8968   -7.5314 C   0  0  2  0  0  0  0  0  0  0  0  0
   28.7763  -20.7356   -7.5562 C   0  0  0  0  0  0  0  0  0  0  0  0
   27.0177  -19.6097   -8.8971 C   0  0  0  0  0  0  0  0  0  0  0  0
   26.2587  -20.6046   -9.6589 C   0  0  2  0  0  0  0  0  0  0  0  0
   25.9495  -20.0859  -11.0094 N   0  0  0  0  0  0  0  0  0  0  0  0
   24.9842  -21.0351   -9.0974 C   0  0  0  0  0  0  0  0  0  0  0  0
   23.8802  -20.4544   -9.1850 O   0  0  0  0  0  0  0  0  0  0  0  0
   24.9214  -22.2440   -8.3555 O   0  0  0  0  0  0  0  0  0  0  0  0
  1  5  1  0
  2  3  1  0
  2  1  1  0
  3  4  1  0
  4  5  1  0
  5  6  1  1
  6  7  2  0
  9 10  2  0
  9  8  1  0
 11 10  1  0
 12 11  2  0
 13 12  1  0
 14 13  1  6
 14 16  1  0
 15  6  1  0
 15 14  1  0
 16 25  1  0
 16 17  2  0
 18 12  1  0
 18 19  2  0
 19  9  1  0
 21 20  1  6
 21 23  1  0
 22 21  1  0
 24 23  1  1
 24 26  1  0
 25 24  1  0
 26 27  2  0
 26 28  1  0
M  END
$$$$
