PYL.pdb
     RDKit          3D

 28 29  0  0  1  0  0  0  0  0999 V2000
   33.6004  -36.0128   -1.0256 N   0  0  0  0  0  0  0  0  0  0  0  0
   34.5031  -37.0681   -0.5518 C   0  0  0  0  0  0  0  0  0  0  0  0
   33.8563  -37.3954    0.8025 C   0  0  0  0  0  0  0  0  0  0  0  0
   32.3780  -37.4076    0.4082 C   0  0  0  0  0  0  0  0  0  0  0  0
   32.3250  -36.6475   -0.8844 C   0  0  1  0  0  0  0  0  0  0  0  0
   31.1818  -35.7095   -0.9742 C   0  0  0  0  0  0  0  0  0  0  0  0
   31.3218  -34.5780   -0.4421 O   0  0  0  0  0  0  0  0  0  0  0  0
   23.5140  -31.8490   -3.3150 O   0  0  0  0  0  0  0  0  0  0  0  0
   24.6066  -32.7143   -3.2095 C   0  0  0  0  0  0  0  0  0  0  0  0
   25.8727  -32.3324   -3.5783 C   0  0  0  0  0  0  0  0  0  0  0  0
   26.9471  -33.1869   -3.4731 C   0  0  0  0  0  0  0  0  0  0  0  0
   26.7992  -34.4756   -2.9885 C   0  0  0  0  0  0  0  0  0  0  0  0
   27.9258  -35.3984   -2.8629 C   0  0  0  0  0  0  0  0  0  0  0  0
   28.8431  -35.1556   -1.7125 C   0  0  2  0  0  0  0  0  0  0  0  0
   29.9642  -36.0327   -1.6224 N   0  0  0  0  0  0  0  0  0  0  0  0
   28.0111  -35.1705   -0.4687 C   0  0  0  0  0  0  0  0  0  0  0  0
   27.8251  -36.2794    0.0834 O   0  0  0  0  0  0  0  0  0  0  0  0
   25.5285  -34.8514   -2.6209 C   0  0  0  0  0  0  0  0  0  0  0  0
   24.4406  -34.0028   -2.7214 C   0  0  0  0  0  0  0  0  0  0  0  0
   27.0856  -33.9678    4.4842 C   0  0  0  0  0  0  0  0  0  0  0  0
   27.6360  -33.0080    3.5095 C   0  0  2  0  0  0  0  0  0  0  0  0
   27.7933  -31.6377    4.1939 C   0  0  0  0  0  0  0  0  0  0  0  0
   27.0200  -32.8651    2.1804 C   0  0  0  0  0  0  0  0  0  0  0  0
   26.6830  -34.0416    1.3753 C   0  0  2  0  0  0  0  0  0  0  0  0
   27.4370  -34.0221    0.1027 N   0  0  0  0  0  0  0  0  0  0  0  0
   25.2832  -34.2098    1.0048 C   0  0  0  0  0  0  0  0  0  0  0  0
   24.6161  -33.5062    0.2151 O   0  0  0  0  0  0  0  0  0  0  0  0
   24.5351  -35.2760    1.5701 O   0  0  0  0  0  0  0  0  0  0  0  0
  1  5  1  0
  2  3  1  0
  2  1  1  0
  3  4  1  0
  4  5  1  0
  5  6  1  1
  6  7  2  0
  9 10  2  0
  9  8  1  0
 11 10  1  0
 12 11  2  0
 13 12  1  0
 14 13  1  6
 14 16  1  0
 15  6  1  0
 15 14  1  0
 16 25  1  0
 16 17  2  0
 18 12  1  0
 18 19  2  0
 19  9  1  0
 21 20  1  1
 21 23  1  0
 22 21  1  0
 24 23  1  6
 24 26  1  0
 25 24  1  0
 26 27  2  0
 26 28  1  0
M  END
$$$$
