CQI.pdb
     RDKit          3D

 24 23  0  0  1  0  0  0  0  0999 V2000
    7.5163  -15.0740   18.2448 N   0  0  0  0  0  0  0  0  0  0  0  0
    8.2481  -14.4926   19.3221 C   0  0  1  0  0  0  0  0  0  0  0  0
    7.8745  -13.0464   19.5660 C   0  0  0  0  0  0  0  0  0  0  0  0
    8.6115  -12.0542   18.2257 S   0  0  0  0  0  0  0  0  0  0  0  0
    7.9533  -15.2412   20.5670 C   0  0  0  0  0  0  0  0  0  0  0  0
    6.7949  -15.6958   20.8096 O   0  0  0  0  0  0  0  0  0  0  0  0
    9.9058  -20.8429   22.6524 N   0  0  0  0  0  0  0  0  0  0  0  0
   10.5157  -19.7108   23.2404 C   0  0  0  0  0  0  0  0  0  0  0  0
   11.7508  -19.7711   23.4689 O   0  0  0  0  0  0  0  0  0  0  0  0
    9.6821  -18.5315   23.5445 C   0  0  0  0  0  0  0  0  0  0  0  0
    9.5406  -17.5222   22.4758 C   0  0  0  0  0  0  0  0  0  0  0  0
    8.7765  -16.2837   22.7356 C   0  0  2  0  0  0  0  0  0  0  0  0
    8.9550  -15.4645   21.5094 N   0  0  0  0  0  0  0  0  0  0  0  0
    9.1800  -15.4263   23.8608 C   0  0  0  0  0  0  0  0  0  0  0  0
   10.2425  -14.7293   23.8306 O   0  0  0  0  0  0  0  0  0  0  0  0
    5.8973  -11.9341   25.7796 C   0  0  0  0  0  0  0  0  0  0  0  0
    7.1375  -12.6815   25.4846 C   0  0  0  0  0  0  0  0  0  0  0  0
    7.7534  -13.5270   26.5056 C   0  0  2  0  0  0  0  0  0  0  0  0
    8.1017  -12.6590   27.7214 C   0  0  0  0  0  0  0  0  0  0  0  0
    8.8554  -14.4459   26.1517 C   0  0  2  0  0  0  0  0  0  0  0  0
    8.4244  -15.3171   25.0428 N   0  0  0  0  0  0  0  0  0  0  0  0
    9.4305  -15.3234   27.1424 C   0  0  0  0  0  0  0  0  0  0  0  0
    9.0947  -16.6492   27.2558 O   0  0  0  0  0  0  0  0  0  0  0  0
   10.2961  -14.9145   27.9928 O   0  0  0  0  0  0  0  0  0  0  0  0
  2  1  1  6
  2  3  1  0
  3  4  1  0
  5  2  1  0
  5  6  2  0
  7  8  1  0
  8  9  2  0
  8 10  1  0
 10 11  1  0
 12 11  1  6
 12 13  1  0
 13  5  1  0
 14 12  1  0
 15 14  2  0
 17 16  1  0
 18 17  1  0
 18 20  1  0
 18 19  1  1
 20 22  1  0
 20 21  1  6
 21 14  1  0
 22 23  1  0
 24 22  2  0
M  END
$$$$
