CQI.pdb
     RDKit          3D

 24 23  0  0  1  0  0  0  0  0999 V2000
    5.1135  -19.0287   20.1402 N   0  0  0  0  0  0  0  0  0  0  0  0
    6.2498  -18.3509   20.6726 C   0  0  1  0  0  0  0  0  0  0  0  0
    6.6028  -17.1040   19.8910 C   0  0  0  0  0  0  0  0  0  0  0  0
    7.3330  -17.6356   18.3073 S   0  0  0  0  0  0  0  0  0  0  0  0
    5.9557  -17.9321   22.0637 C   0  0  0  0  0  0  0  0  0  0  0  0
    4.8737  -17.3438   22.3650 O   0  0  0  0  0  0  0  0  0  0  0  0
    7.6748  -21.3853   26.6380 N   0  0  0  0  0  0  0  0  0  0  0  0
    7.3423  -20.2552   27.4202 C   0  0  0  0  0  0  0  0  0  0  0  0
    7.3816  -20.3840   28.6705 O   0  0  0  0  0  0  0  0  0  0  0  0
    6.9783  -18.9991   26.7361 C   0  0  0  0  0  0  0  0  0  0  0  0
    6.8748  -19.0481   25.2638 C   0  0  0  0  0  0  0  0  0  0  0  0
    6.6609  -17.7986   24.5034 C   0  0  2  0  0  0  0  0  0  0  0  0
    6.8728  -18.1789   23.0832 N   0  0  0  0  0  0  0  0  0  0  0  0
    7.5510  -16.6551   24.7564 C   0  0  0  0  0  0  0  0  0  0  0  0
    8.6991  -16.5623   24.2190 O   0  0  0  0  0  0  0  0  0  0  0  0
    5.5773  -11.6111   26.0465 C   0  0  0  0  0  0  0  0  0  0  0  0
    6.4827  -12.6537   25.5204 C   0  0  0  0  0  0  0  0  0  0  0  0
    7.4262  -13.3317   26.4073 C   0  0  2  0  0  0  0  0  0  0  0  0
    8.3646  -12.2859   27.0226 C   0  0  0  0  0  0  0  0  0  0  0  0
    8.1621  -14.5269   25.9447 C   0  0  2  0  0  0  0  0  0  0  0  0
    7.1982  -15.5899   25.6054 N   0  0  0  0  0  0  0  0  0  0  0  0
    9.1579  -15.1500   26.7829 C   0  0  0  0  0  0  0  0  0  0  0  0
   10.5022  -14.9025   26.6614 O   0  0  0  0  0  0  0  0  0  0  0  0
    8.8472  -15.9883   27.6995 O   0  0  0  0  0  0  0  0  0  0  0  0
  2  1  1  6
  2  3  1  0
  3  4  1  0
  5  2  1  0
  5  6  2  0
  7  8  1  0
  8  9  2  0
  8 10  1  0
 10 11  1  0
 12 11  1  1
 12 13  1  0
 13  5  1  0
 14 12  1  0
 15 14  2  0
 17 16  1  0
 18 17  1  0
 18 20  1  0
 18 19  1  6
 20 22  1  0
 20 21  1  1
 21 14  1  0
 22 23  1  0
 24 22  2  0
M  END
$$$$
