CQI.pdb
     RDKit          3D

 24 23  0  0  1  0  0  0  0  0999 V2000
    7.5467  -14.7306   17.9759 N   0  0  0  0  0  0  0  0  0  0  0  0
    8.2758  -14.2229   19.0915 C   0  0  1  0  0  0  0  0  0  0  0  0
    7.8323  -12.8327   19.4928 C   0  0  0  0  0  0  0  0  0  0  0  0
    8.7113  -11.6450   18.4248 S   0  0  0  0  0  0  0  0  0  0  0  0
    8.0561  -15.1109   20.2578 C   0  0  0  0  0  0  0  0  0  0  0  0
    6.9082  -15.5739   20.5327 O   0  0  0  0  0  0  0  0  0  0  0  0
   11.9069  -19.4094   21.7060 N   0  0  0  0  0  0  0  0  0  0  0  0
   11.1856  -19.4384   22.9219 C   0  0  0  0  0  0  0  0  0  0  0  0
   11.4857  -20.3337   23.7524 O   0  0  0  0  0  0  0  0  0  0  0  0
   10.1372  -18.4253   23.1511 C   0  0  0  0  0  0  0  0  0  0  0  0
    9.9373  -17.4209   22.0871 C   0  0  0  0  0  0  0  0  0  0  0  0
    8.9850  -16.3103   22.2989 C   0  0  2  0  0  0  0  0  0  0  0  0
    9.1192  -15.4606   21.0880 N   0  0  0  0  0  0  0  0  0  0  0  0
    9.1861  -15.4155   23.4490 C   0  0  0  0  0  0  0  0  0  0  0  0
   10.1414  -14.5782   23.4933 O   0  0  0  0  0  0  0  0  0  0  0  0
    6.6078  -11.3946   26.8642 C   0  0  0  0  0  0  0  0  0  0  0  0
    7.5990  -12.4906   26.8534 C   0  0  0  0  0  0  0  0  0  0  0  0
    7.5327  -13.5392   25.8373 C   0  0  2  0  0  0  0  0  0  0  0  0
    6.1407  -14.1821   25.8810 C   0  0  0  0  0  0  0  0  0  0  0  0
    8.6038  -14.5524   25.7362 C   0  0  2  0  0  0  0  0  0  0  0  0
    8.3417  -15.4222   24.5746 N   0  0  0  0  0  0  0  0  0  0  0  0
    8.8854  -15.4402   26.8384 C   0  0  0  0  0  0  0  0  0  0  0  0
    8.6198  -16.7861   26.8043 O   0  0  0  0  0  0  0  0  0  0  0  0
    9.4009  -15.0225   27.9335 O   0  0  0  0  0  0  0  0  0  0  0  0
  2  1  1  6
  2  3  1  0
  3  4  1  0
  5  2  1  0
  5  6  2  0
  7  8  1  0
  8  9  2  0
  8 10  1  0
 10 11  1  0
 12 11  1  6
 12 13  1  0
 13  5  1  0
 14 12  1  0
 15 14  2  0
 17 16  1  0
 18 17  1  0
 18 20  1  0
 18 19  1  1
 20 22  1  0
 20 21  1  6
 21 14  1  0
 22 23  1  0
 24 22  2  0
M  END
$$$$
