CQI.pdb
     RDKit          3D

 24 23  0  0  1  0  0  0  0  0999 V2000
    8.2943  -15.2778   17.5335 N   0  0  0  0  0  0  0  0  0  0  0  0
    8.4995  -14.5212   18.7249 C   0  0  1  0  0  0  0  0  0  0  0  0
    7.8329  -13.1635   18.6743 C   0  0  0  0  0  0  0  0  0  0  0  0
    8.1247  -12.3472   20.2783 S   0  0  0  0  0  0  0  0  0  0  0  0
    7.9167  -15.2572   19.8720 C   0  0  0  0  0  0  0  0  0  0  0  0
    6.9248  -16.0337   19.7275 O   0  0  0  0  0  0  0  0  0  0  0  0
    9.2729  -19.9698   21.4084 N   0  0  0  0  0  0  0  0  0  0  0  0
   10.2991  -19.0043   21.5274 C   0  0  0  0  0  0  0  0  0  0  0  0
   11.4865  -19.4048   21.4228 O   0  0  0  0  0  0  0  0  0  0  0  0
    9.9262  -17.5950   21.7582 C   0  0  0  0  0  0  0  0  0  0  0  0
    8.4921  -17.3108   21.9661 C   0  0  0  0  0  0  0  0  0  0  0  0
    8.0611  -15.9411   22.3172 C   0  0  2  0  0  0  0  0  0  0  0  0
    8.4525  -15.1102   21.1498 N   0  0  0  0  0  0  0  0  0  0  0  0
    8.6551  -15.2928   23.4964 C   0  0  0  0  0  0  0  0  0  0  0  0
    9.8241  -14.7942   23.4748 O   0  0  0  0  0  0  0  0  0  0  0  0
    5.6497  -11.7867   25.9207 C   0  0  0  0  0  0  0  0  0  0  0  0
    6.7860  -12.5984   25.4373 C   0  0  0  0  0  0  0  0  0  0  0  0
    7.5176  -13.4694   26.3552 C   0  0  2  0  0  0  0  0  0  0  0  0
    8.0460  -12.6251   27.5218 C   0  0  0  0  0  0  0  0  0  0  0  0
    8.5420  -14.4039   25.8442 C   0  0  2  0  0  0  0  0  0  0  0  0
    7.9771  -15.1790   24.7241 N   0  0  0  0  0  0  0  0  0  0  0  0
    9.1615  -15.3695   26.7195 C   0  0  0  0  0  0  0  0  0  0  0  0
    8.8427  -16.7042   26.7095 O   0  0  0  0  0  0  0  0  0  0  0  0
   10.0537  -15.0373   27.5757 O   0  0  0  0  0  0  0  0  0  0  0  0
  2  1  1  6
  2  3  1  0
  3  4  1  0
  5  2  1  0
  5  6  2  0
  7  8  1  0
  8  9  2  0
  8 10  1  0
 10 11  1  0
 12 11  1  6
 12 13  1  0
 13  5  1  0
 14 12  1  0
 15 14  2  0
 17 16  1  0
 18 17  1  0
 18 20  1  0
 18 19  1  1
 20 22  1  0
 20 21  1  6
 21 14  1  0
 22 23  1  0
 24 22  2  0
M  END
$$$$
