CQI.pdb
     RDKit          3D

 24 23  0  0  1  0  0  0  0  0999 V2000
    7.7532  -14.9304   18.2672 N   0  0  0  0  0  0  0  0  0  0  0  0
    8.4449  -14.3563   19.3744 C   0  0  1  0  0  0  0  0  0  0  0  0
    7.8686  -13.0206   19.7916 C   0  0  0  0  0  0  0  0  0  0  0  0
    8.2473  -11.8215   18.4715 S   0  0  0  0  0  0  0  0  0  0  0  0
    8.3359  -15.2676   20.5384 C   0  0  0  0  0  0  0  0  0  0  0  0
    7.2302  -15.7925   20.8692 O   0  0  0  0  0  0  0  0  0  0  0  0
   12.3102  -19.2751   19.9363 N   0  0  0  0  0  0  0  0  0  0  0  0
   11.5732  -19.3661   21.1396 C   0  0  0  0  0  0  0  0  0  0  0  0
   11.9623  -20.2011   21.9957 O   0  0  0  0  0  0  0  0  0  0  0  0
   10.4057  -18.4829   21.3270 C   0  0  0  0  0  0  0  0  0  0  0  0
   10.5472  -17.3914   22.3115 C   0  0  0  0  0  0  0  0  0  0  0  0
    9.4361  -16.4370   22.5106 C   0  0  2  0  0  0  0  0  0  0  0  0
    9.4599  -15.5712   21.3038 N   0  0  0  0  0  0  0  0  0  0  0  0
    9.4829  -15.5275   23.6658 C   0  0  0  0  0  0  0  0  0  0  0  0
   10.4230  -14.6870   23.8248 O   0  0  0  0  0  0  0  0  0  0  0  0
    6.5293  -11.7036   27.1282 C   0  0  0  0  0  0  0  0  0  0  0  0
    7.5540  -12.7677   27.0918 C   0  0  0  0  0  0  0  0  0  0  0  0
    7.5861  -13.7277   25.9901 C   0  0  2  0  0  0  0  0  0  0  0  0
    6.1978  -14.3648   25.8495 C   0  0  0  0  0  0  0  0  0  0  0  0
    8.6646  -14.7346   25.9055 C   0  0  2  0  0  0  0  0  0  0  0  0
    8.4978  -15.5227   24.6705 N   0  0  0  0  0  0  0  0  0  0  0  0
    8.8605  -15.6959   26.9637 C   0  0  0  0  0  0  0  0  0  0  0  0
    8.6208  -17.0385   26.8114 O   0  0  0  0  0  0  0  0  0  0  0  0
    9.2688  -15.3523   28.1277 O   0  0  0  0  0  0  0  0  0  0  0  0
  2  1  1  6
  2  3  1  0
  3  4  1  0
  5  2  1  0
  5  6  2  0
  7  8  1  0
  8  9  2  0
  8 10  1  0
 10 11  1  0
 12 11  1  6
 12 13  1  0
 13  5  1  0
 14 12  1  0
 15 14  2  0
 17 16  1  0
 18 17  1  0
 18 20  1  0
 18 19  1  1
 20 22  1  0
 20 21  1  6
 21 14  1  0
 22 23  1  0
 24 22  2  0
M  END
$$$$
