PQL.pdb
     RDKit          3D

 25 25  0  0  1  0  0  0  0  0999 V2000
    9.3758  -14.3109   18.4235 N   0  0  0  0  0  0  0  0  0  0  0  0
    9.0513  -13.6011   17.1945 C   0  0  0  0  0  0  0  0  0  0  0  0
    7.5261  -13.6127   17.2548 C   0  0  0  0  0  0  0  0  0  0  0  0
    7.3101  -13.1723   18.7076 C   0  0  0  0  0  0  0  0  0  0  0  0
    8.5941  -13.5886   19.4037 C   0  0  1  0  0  0  0  0  0  0  0  0
    8.3117  -14.4008   20.6063 C   0  0  0  0  0  0  0  0  0  0  0  0
    7.4555  -13.9792   21.4131 O   0  0  0  0  0  0  0  0  0  0  0  0
    9.9999  -20.5074   21.2005 N   0  0  0  0  0  0  0  0  0  0  0  0
   10.1860  -19.9373   22.4827 C   0  0  0  0  0  0  0  0  0  0  0  0
   10.9736  -20.5550   23.2804 O   0  0  0  0  0  0  0  0  0  0  0  0
    9.5432  -18.6951   22.9416 C   0  0  0  0  0  0  0  0  0  0  0  0
    9.4213  -17.6893   21.8860 C   0  0  0  0  0  0  0  0  0  0  0  0
    8.7862  -16.3938   22.1152 C   0  0  2  0  0  0  0  0  0  0  0  0
    8.9696  -15.6198   20.8675 N   0  0  0  0  0  0  0  0  0  0  0  0
    9.0985  -15.5549   23.2376 C   0  0  0  0  0  0  0  0  0  0  0  0
   10.1309  -14.8439   23.3799 O   0  0  0  0  0  0  0  0  0  0  0  0
    5.7302  -12.4099   27.1003 C   0  0  0  0  0  0  0  0  0  0  0  0
    7.1675  -12.9282   26.9294 C   0  0  2  0  0  0  0  0  0  0  0  0
    8.0832  -11.7332   26.7831 C   0  0  0  0  0  0  0  0  0  0  0  0
    7.1405  -13.7849   25.6927 C   0  0  0  0  0  0  0  0  0  0  0  0
    8.4054  -14.5767   25.4645 C   0  0  2  0  0  0  0  0  0  0  0  0
    8.1864  -15.4793   24.3289 N   0  0  0  0  0  0  0  0  0  0  0  0
    8.8519  -15.3616   26.6110 C   0  0  0  0  0  0  0  0  0  0  0  0
    8.4362  -16.5331   26.7734 O   0  0  0  0  0  0  0  0  0  0  0  0
    9.7349  -14.8474   27.5406 O   0  0  0  0  0  0  0  0  0  0  0  0
  2  1  1  0
  3  2  1  0
  4  5  1  0
  4  3  1  0
  5  6  1  1
  5  1  1  0
  6  7  2  0
  9  8  1  0
  9 11  1  0
 10  9  2  0
 12 11  1  0
 13 12  1  6
 14 13  1  0
 14  6  1  0
 15 16  2  0
 15 13  1  0
 18 17  1  6
 18 19  1  0
 18 20  1  0
 21 20  1  1
 21 22  1  0
 21 23  1  0
 22 15  1  0
 23 25  1  0
 24 23  2  0
M  END
$$$$
