PQL.pdb
     RDKit          3D

 25 25  0  0  1  0  0  0  0  0999 V2000
    9.0438  -14.5198   19.0215 N   0  0  0  0  0  0  0  0  0  0  0  0
    8.8754  -13.7498   17.7975 C   0  0  0  0  0  0  0  0  0  0  0  0
    7.4263  -13.2938   17.9466 C   0  0  0  0  0  0  0  0  0  0  0  0
    7.4462  -12.8025   19.3991 C   0  0  0  0  0  0  0  0  0  0  0  0
    8.5827  -13.5889   20.0286 C   0  0  1  0  0  0  0  0  0  0  0  0
    8.1415  -14.2708   21.2640 C   0  0  0  0  0  0  0  0  0  0  0  0
    7.5626  -13.5896   22.1372 O   0  0  0  0  0  0  0  0  0  0  0  0
    8.4257  -20.5812   22.8239 N   0  0  0  0  0  0  0  0  0  0  0  0
    9.4389  -19.8243   22.1882 C   0  0  0  0  0  0  0  0  0  0  0  0
   10.4257  -20.4765   21.6992 O   0  0  0  0  0  0  0  0  0  0  0  0
    9.4212  -18.3586   22.0536 C   0  0  0  0  0  0  0  0  0  0  0  0
    8.1655  -17.7571   22.5034 C   0  0  0  0  0  0  0  0  0  0  0  0
    8.0375  -16.3250   22.7618 C   0  0  2  0  0  0  0  0  0  0  0  0
    8.3508  -15.6472   21.4844 N   0  0  0  0  0  0  0  0  0  0  0  0
    8.7267  -15.6560   23.8289 C   0  0  0  0  0  0  0  0  0  0  0  0
    9.9283  -15.2720   23.8229 O   0  0  0  0  0  0  0  0  0  0  0  0
    8.2066  -11.8480   25.8658 C   0  0  0  0  0  0  0  0  0  0  0  0
    7.0763  -12.8530   26.1415 C   0  0  2  0  0  0  0  0  0  0  0  0
    5.9781  -12.1306   26.8899 C   0  0  0  0  0  0  0  0  0  0  0  0
    7.7042  -13.9480   26.9605 C   0  0  0  0  0  0  0  0  0  0  0  0
    8.7061  -14.7858   26.2035 C   0  0  2  0  0  0  0  0  0  0  0  0
    8.0322  -15.3717   25.0394 N   0  0  0  0  0  0  0  0  0  0  0  0
    9.3205  -15.8572   26.9810 C   0  0  0  0  0  0  0  0  0  0  0  0
    9.0016  -17.0512   26.7709 O   0  0  0  0  0  0  0  0  0  0  0  0
   10.2603  -15.5948   27.9588 O   0  0  0  0  0  0  0  0  0  0  0  0
  2  1  1  0
  3  2  1  0
  4  5  1  0
  4  3  1  0
  5  6  1  1
  5  1  1  0
  6  7  2  0
  9  8  1  0
  9 11  1  0
 10  9  2  0
 12 11  1  0
 13 12  1  6
 14 13  1  0
 14  6  1  0
 15 16  2  0
 15 13  1  0
 18 17  1  1
 18 19  1  0
 18 20  1  0
 21 20  1  1
 21 22  1  0
 21 23  1  0
 22 15  1  0
 23 25  1  0
 24 23  2  0
M  END
$$$$
