PQL.pdb
     RDKit          3D

 25 25  0  0  1  0  0  0  0  0999 V2000
    9.2304  -14.6699   18.4956 N   0  0  0  0  0  0  0  0  0  0  0  0
    9.1268  -13.9469   17.2362 C   0  0  0  0  0  0  0  0  0  0  0  0
    7.6364  -13.6175   17.2203 C   0  0  0  0  0  0  0  0  0  0  0  0
    7.4609  -13.0922   18.6502 C   0  0  0  0  0  0  0  0  0  0  0  0
    8.5877  -13.7599   19.4189 C   0  0  1  0  0  0  0  0  0  0  0  0
    8.0786  -14.4488   20.6239 C   0  0  0  0  0  0  0  0  0  0  0  0
    7.3557  -13.8007   21.4107 O   0  0  0  0  0  0  0  0  0  0  0  0
    9.3203  -20.0445   19.5734 N   0  0  0  0  0  0  0  0  0  0  0  0
    9.3494  -19.8268   20.9718 C   0  0  0  0  0  0  0  0  0  0  0  0
    9.3224  -20.8660   21.7186 O   0  0  0  0  0  0  0  0  0  0  0  0
    9.4140  -18.4998   21.6055 C   0  0  0  0  0  0  0  0  0  0  0  0
    8.0942  -17.9241   21.8653 C   0  0  0  0  0  0  0  0  0  0  0  0
    7.9039  -16.4985   22.1214 C   0  0  2  0  0  0  0  0  0  0  0  0
    8.3794  -15.7961   20.9089 N   0  0  0  0  0  0  0  0  0  0  0  0
    8.4245  -15.8339   23.2827 C   0  0  0  0  0  0  0  0  0  0  0  0
    9.6206  -15.4811   23.4735 O   0  0  0  0  0  0  0  0  0  0  0  0
    5.8344  -11.9593   27.1228 C   0  0  0  0  0  0  0  0  0  0  0  0
    7.1467  -12.7236   26.8832 C   0  0  2  0  0  0  0  0  0  0  0  0
    8.2235  -11.7146   26.5510 C   0  0  0  0  0  0  0  0  0  0  0  0
    6.8633  -13.6579   25.7383 C   0  0  0  0  0  0  0  0  0  0  0  0
    7.9621  -14.6587   25.4739 C   0  0  2  0  0  0  0  0  0  0  0  0
    7.5467  -15.5164   24.3584 N   0  0  0  0  0  0  0  0  0  0  0  0
    8.3091  -15.5024   26.6131 C   0  0  0  0  0  0  0  0  0  0  0  0
    7.6804  -16.5661   26.8245 O   0  0  0  0  0  0  0  0  0  0  0  0
    9.3274  -15.1621   27.4823 O   0  0  0  0  0  0  0  0  0  0  0  0
  2  1  1  0
  3  2  1  0
  4  5  1  0
  4  3  1  0
  5  6  1  1
  5  1  1  0
  6  7  2  0
  9  8  1  0
  9 11  1  0
 10  9  2  0
 12 11  1  0
 13 12  1  6
 14 13  1  0
 14  6  1  0
 15 16  2  0
 15 13  1  0
 18 17  1  6
 18 19  1  0
 18 20  1  0
 21 20  1  1
 21 22  1  0
 21 23  1  0
 22 15  1  0
 23 25  1  0
 24 23  2  0
M  END
$$$$
