PQL.pdb
     RDKit          3D

 25 25  0  0  1  0  0  0  0  0999 V2000
    9.1177  -14.5730   18.8041 N   0  0  0  0  0  0  0  0  0  0  0  0
    8.8394  -13.7427   17.6410 C   0  0  0  0  0  0  0  0  0  0  0  0
    7.4145  -13.2907   17.9499 C   0  0  0  0  0  0  0  0  0  0  0  0
    7.5762  -12.8721   19.4162 C   0  0  0  0  0  0  0  0  0  0  0  0
    8.7615  -13.6920   19.8951 C   0  0  1  0  0  0  0  0  0  0  0  0
    8.4348  -14.4331   21.1319 C   0  0  0  0  0  0  0  0  0  0  0  0
    7.6220  -13.9177   21.9291 O   0  0  0  0  0  0  0  0  0  0  0  0
   10.4753  -20.7617   24.2595 N   0  0  0  0  0  0  0  0  0  0  0  0
    9.9839  -19.9485   23.2102 C   0  0  0  0  0  0  0  0  0  0  0  0
   10.4644  -20.1594   22.0428 O   0  0  0  0  0  0  0  0  0  0  0  0
    8.9668  -18.8979   23.3791 C   0  0  0  0  0  0  0  0  0  0  0  0
    9.0610  -17.8419   22.3707 C   0  0  0  0  0  0  0  0  0  0  0  0
    8.6640  -16.4636   22.6480 C   0  0  2  0  0  0  0  0  0  0  0  0
    9.0041  -15.6863   21.4357 N   0  0  0  0  0  0  0  0  0  0  0  0
    9.1024  -15.7394   23.8075 C   0  0  0  0  0  0  0  0  0  0  0  0
   10.2576  -15.2752   24.0112 O   0  0  0  0  0  0  0  0  0  0  0  0
    8.1465  -11.8674   25.7047 C   0  0  0  0  0  0  0  0  0  0  0  0
    6.9850  -12.8741   25.6696 C   0  0  2  0  0  0  0  0  0  0  0  0
    5.7361  -12.1665   26.1468 C   0  0  0  0  0  0  0  0  0  0  0  0
    7.3964  -13.9932   26.5874 C   0  0  0  0  0  0  0  0  0  0  0  0
    8.5781  -14.7919   26.0931 C   0  0  2  0  0  0  0  0  0  0  0  0
    8.1819  -15.4911   24.8657 N   0  0  0  0  0  0  0  0  0  0  0  0
    9.0984  -15.7686   27.0447 C   0  0  0  0  0  0  0  0  0  0  0  0
    8.7385  -16.9675   26.9778 O   0  0  0  0  0  0  0  0  0  0  0  0
    9.9920  -15.4094   28.0350 O   0  0  0  0  0  0  0  0  0  0  0  0
  2  1  1  0
  3  2  1  0
  4  5  1  0
  4  3  1  0
  5  6  1  1
  5  1  1  0
  6  7  2  0
  9  8  1  0
  9 11  1  0
 10  9  2  0
 12 11  1  0
 13 12  1  6
 14 13  1  0
 14  6  1  0
 15 16  2  0
 15 13  1  0
 18 17  1  1
 18 19  1  0
 18 20  1  0
 21 20  1  1
 21 22  1  0
 21 23  1  0
 22 15  1  0
 23 25  1  0
 24 23  2  0
M  END
$$$$
