PQL.pdb
     RDKit          3D

 25 25  0  0  1  0  0  0  0  0999 V2000
    9.1812  -14.4635   19.7138 N   0  0  0  0  0  0  0  0  0  0  0  0
    9.2016  -13.5987   18.5428 C   0  0  0  0  0  0  0  0  0  0  0  0
    7.7214  -13.2442   18.4266 C   0  0  0  0  0  0  0  0  0  0  0  0
    7.4151  -12.8838   19.8853 C   0  0  0  0  0  0  0  0  0  0  0  0
    8.4600  -13.6548   20.6727 C   0  0  1  0  0  0  0  0  0  0  0  0
    7.8351  -14.4689   21.7369 C   0  0  0  0  0  0  0  0  0  0  0  0
    6.7345  -14.0937   22.1948 O   0  0  0  0  0  0  0  0  0  0  0  0
    6.5999  -20.0288   21.7100 N   0  0  0  0  0  0  0  0  0  0  0  0
    7.4104  -20.1723   22.8616 C   0  0  0  0  0  0  0  0  0  0  0  0
    7.7648  -21.3620   23.1735 O   0  0  0  0  0  0  0  0  0  0  0  0
    7.8662  -19.0532   23.7022 C   0  0  0  0  0  0  0  0  0  0  0  0
    8.2774  -17.8836   22.9254 C   0  0  0  0  0  0  0  0  0  0  0  0
    7.7691  -16.5435   23.2085 C   0  0  2  0  0  0  0  0  0  0  0  0
    8.4344  -15.6395   22.2443 N   0  0  0  0  0  0  0  0  0  0  0  0
    7.8107  -15.9487   24.5145 C   0  0  0  0  0  0  0  0  0  0  0  0
    7.1800  -16.3349   25.5364 O   0  0  0  0  0  0  0  0  0  0  0  0
    7.9473  -11.4977   25.4216 C   0  0  0  0  0  0  0  0  0  0  0  0
    7.0253  -12.7163   25.5905 C   0  0  2  0  0  0  0  0  0  0  0  0
    5.6764  -12.2222   26.0642 C   0  0  0  0  0  0  0  0  0  0  0  0
    7.7035  -13.5946   26.6066 C   0  0  0  0  0  0  0  0  0  0  0  0
    8.9263  -14.3094   26.0843 C   0  0  2  0  0  0  0  0  0  0  0  0
    8.6304  -14.8050   24.7356 N   0  0  0  0  0  0  0  0  0  0  0  0
    9.3815  -15.4255   26.9072 C   0  0  0  0  0  0  0  0  0  0  0  0
    9.3747  -16.5916   26.4473 O   0  0  0  0  0  0  0  0  0  0  0  0
    9.8292  -15.2361   28.2002 O   0  0  0  0  0  0  0  0  0  0  0  0
  2  1  1  0
  3  2  1  0
  4  5  1  0
  4  3  1  0
  5  6  1  1
  5  1  1  0
  6  7  2  0
  9  8  1  0
  9 11  1  0
 10  9  2  0
 12 11  1  0
 13 12  1  1
 14 13  1  0
 14  6  1  0
 15 16  2  0
 15 13  1  0
 18 17  1  1
 18 19  1  0
 18 20  1  0
 21 20  1  1
 21 22  1  0
 21 23  1  0
 22 15  1  0
 23 25  1  0
 24 23  2  0
M  END
$$$$
