GFV.pdb
     RDKit          3D

 23 23  0  0  1  0  0  0  0  0999 V2000
   15.8603  -11.1323  -15.4797 N   0  0  0  0  0  0  0  0  0  0  0  0
   15.8928  -10.7677  -16.8718 C   0  0  0  0  0  0  0  0  0  0  0  0
   17.0841   -9.8897  -17.1528 C   0  0  0  0  0  0  0  0  0  0  0  0
   18.0093  -10.3317  -17.8724 O   0  0  0  0  0  0  0  0  0  0  0  0
   17.1780   -8.5817  -16.6222 N   0  0  0  0  0  0  0  0  0  0  0  0
   18.3826   -7.7734  -16.9313 C   0  0  1  0  0  0  0  0  0  0  0  0
   17.9355   -6.3839  -17.1971 C   0  0  0  0  0  0  0  0  0  0  0  0
   18.8715   -5.4627  -17.8305 C   0  0  0  0  0  0  0  0  0  0  0  0
   19.2388   -5.6503  -19.1711 C   0  0  0  0  0  0  0  0  0  0  0  0
   20.0848   -4.7891  -19.8336 C   0  0  0  0  0  0  0  0  0  0  0  0
   20.6042   -3.6941  -19.1780 C   0  0  0  0  0  0  0  0  0  0  0  0
   20.2671   -3.4778  -17.8645 C   0  0  0  0  0  0  0  0  0  0  0  0
   19.4144   -4.3602  -17.2236 C   0  0  0  0  0  0  0  0  0  0  0  0
   19.2706   -7.8588  -15.7617 C   0  0  0  0  0  0  0  0  0  0  0  0
   18.7376   -7.8525  -14.5830 O   0  0  0  0  0  0  0  0  0  0  0  0
   23.3060   -8.9527  -15.8164 C   0  0  0  0  0  0  0  0  0  0  0  0
   22.3607   -9.2838  -14.6775 C   0  0  1  0  0  0  0  0  0  0  0  0
   23.0935   -9.4521  -13.3791 C   0  0  0  0  0  0  0  0  0  0  0  0
   21.3834   -8.1178  -14.4986 C   0  0  2  0  0  0  0  0  0  0  0  0
   20.6741   -7.9588  -15.7476 N   0  0  0  0  0  0  0  0  0  0  0  0
   22.0872   -6.8833  -14.1462 C   0  0  0  0  0  0  0  0  0  0  0  0
   22.4573   -6.4740  -12.8788 O   0  0  0  0  0  0  0  0  0  0  0  0
   22.4221   -6.0509  -15.0723 O   0  0  0  0  0  0  0  0  0  0  0  0
  1  2  1  0
  3  4  2  0
  3  2  1  0
  5  3  1  0
  6  5  1  0
  6 14  1  0
  6  7  1  1
  8  7  1  0
  9  8  2  0
 10  9  1  0
 11 12  1  0
 11 10  2  0
 12 13  2  0
 13  8  1  0
 14 20  1  0
 15 14  2  0
 17 19  1  0
 17 16  1  6
 17 18  1  0
 19 21  1  0
 19 20  1  6
 21 23  2  0
 21 22  1  0
M  END
$$$$
