GFV.pdb
     RDKit          3D

 23 23  0  0  1  0  0  0  0  0999 V2000
   31.2529  -22.2680  -10.7152 N   0  0  0  0  0  0  0  0  0  0  0  0
   30.5928  -21.0185  -10.4414 C   0  0  0  0  0  0  0  0  0  0  0  0
   29.2243  -21.2680   -9.8632 C   0  0  0  0  0  0  0  0  0  0  0  0
   28.8247  -22.4481   -9.7335 O   0  0  0  0  0  0  0  0  0  0  0  0
   28.3857  -20.2004   -9.4659 N   0  0  0  0  0  0  0  0  0  0  0  0
   27.0273  -20.5136   -8.9591 C   0  0  1  0  0  0  0  0  0  0  0  0
   26.7590  -19.6165   -7.8083 C   0  0  0  0  0  0  0  0  0  0  0  0
   27.5998  -19.7372   -6.6232 C   0  0  0  0  0  0  0  0  0  0  0  0
   27.3538  -20.7564   -5.6916 C   0  0  0  0  0  0  0  0  0  0  0  0
   28.1399  -20.9449   -4.5767 C   0  0  0  0  0  0  0  0  0  0  0  0
   29.2150  -20.1149   -4.3440 C   0  0  0  0  0  0  0  0  0  0  0  0
   29.4870  -19.1055   -5.2344 C   0  0  0  0  0  0  0  0  0  0  0  0
   28.6795  -18.9394   -6.3466 C   0  0  0  0  0  0  0  0  0  0  0  0
   26.0904  -20.2891  -10.0707 C   0  0  0  0  0  0  0  0  0  0  0  0
   26.0847  -19.1304  -10.6459 O   0  0  0  0  0  0  0  0  0  0  0  0
   26.1865  -21.7167  -13.2070 C   0  0  0  0  0  0  0  0  0  0  0  0
   24.7071  -21.8222  -12.8897 C   0  0  1  0  0  0  0  0  0  0  0  0
   24.3423  -23.1899  -12.3923 C   0  0  0  0  0  0  0  0  0  0  0  0
   24.3749  -20.8297  -11.7712 C   0  0  2  0  0  0  0  0  0  0  0  0
   25.1693  -21.1990  -10.6217 N   0  0  0  0  0  0  0  0  0  0  0  0
   22.9488  -20.8582  -11.4411 C   0  0  0  0  0  0  0  0  0  0  0  0
   22.3738  -21.3810  -10.2979 O   0  0  0  0  0  0  0  0  0  0  0  0
   22.0912  -20.3590  -12.2645 O   0  0  0  0  0  0  0  0  0  0  0  0
  1  2  1  0
  3  4  2  0
  3  2  1  0
  5  3  1  0
  6  5  1  0
  6 14  1  0
  6  7  1  1
  8  7  1  0
  9  8  2  0
 10  9  1  0
 11 12  1  0
 11 10  2  0
 12 13  2  0
 13  8  1  0
 14 20  1  0
 15 14  2  0
 17 19  1  0
 17 16  1  1
 17 18  1  0
 19 21  1  0
 19 20  1  1
 21 23  2  0
 21 22  1  0
M  END
$$$$
