GFV.pdb
     RDKit          3D

 23 23  0  0  1  0  0  0  0  0999 V2000
   42.6574   -9.3620   -8.8964 N   0  0  0  0  0  0  0  0  0  0  0  0
   42.4547   -8.0135   -8.4354 C   0  0  0  0  0  0  0  0  0  0  0  0
   41.0532   -7.5603   -8.7506 C   0  0  0  0  0  0  0  0  0  0  0  0
   40.3984   -8.1721   -9.6258 O   0  0  0  0  0  0  0  0  0  0  0  0
   40.4649   -6.4621   -8.0804 N   0  0  0  0  0  0  0  0  0  0  0  0
   39.0668   -6.0930   -8.4111 C   0  0  1  0  0  0  0  0  0  0  0  0
   38.2459   -6.3057   -7.1937 C   0  0  0  0  0  0  0  0  0  0  0  0
   37.9049   -7.6722   -6.8164 C   0  0  0  0  0  0  0  0  0  0  0  0
   36.9541   -8.3868   -7.5597 C   0  0  0  0  0  0  0  0  0  0  0  0
   36.6232   -9.6931   -7.2762 C   0  0  0  0  0  0  0  0  0  0  0  0
   37.2343  -10.3462   -6.2281 C   0  0  0  0  0  0  0  0  0  0  0  0
   38.1705   -9.6786   -5.4774 C   0  0  0  0  0  0  0  0  0  0  0  0
   38.4833   -8.3656   -5.7852 C   0  0  0  0  0  0  0  0  0  0  0  0
   39.0816   -4.6842   -8.8338 C   0  0  0  0  0  0  0  0  0  0  0  0
   39.8363   -3.8559   -8.1874 O   0  0  0  0  0  0  0  0  0  0  0  0
   39.8447   -3.3152  -12.2078 C   0  0  0  0  0  0  0  0  0  0  0  0
   38.6190   -2.5654  -11.7220 C   0  0  1  0  0  0  0  0  0  0  0  0
   37.3542   -3.1490  -12.2797 C   0  0  0  0  0  0  0  0  0  0  0  0
   38.5420   -2.6901  -10.1973 C   0  0  2  0  0  0  0  0  0  0  0  0
   38.3667   -4.0916   -9.8910 N   0  0  0  0  0  0  0  0  0  0  0  0
   37.4332   -1.9027   -9.6546 C   0  0  0  0  0  0  0  0  0  0  0  0
   36.2334   -2.3876   -9.1687 O   0  0  0  0  0  0  0  0  0  0  0  0
   37.5275   -0.6180   -9.5994 O   0  0  0  0  0  0  0  0  0  0  0  0
  1  2  1  0
  3  4  2  0
  3  2  1  0
  5  3  1  0
  6  5  1  0
  6 14  1  0
  6  7  1  1
  8  7  1  0
  9  8  2  0
 10  9  1  0
 11 12  1  0
 11 10  2  0
 12 13  2  0
 13  8  1  0
 14 20  1  0
 15 14  2  0
 17 19  1  0
 17 16  1  6
 17 18  1  0
 19 21  1  0
 19 20  1  6
 21 23  2  0
 21 22  1  0
M  END
$$$$
