GFV.pdb
     RDKit          3D

 23 23  0  0  1  0  0  0  0  0999 V2000
   19.2901  -14.9278  -17.7304 N   0  0  0  0  0  0  0  0  0  0  0  0
   18.7453  -13.5970  -17.6669 C   0  0  0  0  0  0  0  0  0  0  0  0
   19.5344  -12.7568  -16.6971 C   0  0  0  0  0  0  0  0  0  0  0  0
   19.3316  -12.8937  -15.4686 O   0  0  0  0  0  0  0  0  0  0  0  0
   20.4956  -11.8205  -17.1448 N   0  0  0  0  0  0  0  0  0  0  0  0
   21.2101  -10.9980  -16.1382 C   0  0  1  0  0  0  0  0  0  0  0  0
   22.6650  -11.1432  -16.3901 C   0  0  0  0  0  0  0  0  0  0  0  0
   23.2907  -12.4325  -16.1215 C   0  0  0  0  0  0  0  0  0  0  0  0
   23.4147  -13.3778  -17.1501 C   0  0  0  0  0  0  0  0  0  0  0  0
   24.0337  -14.5941  -16.9661 C   0  0  0  0  0  0  0  0  0  0  0  0
   24.5596  -14.9197  -15.7348 C   0  0  0  0  0  0  0  0  0  0  0  0
   24.4571  -14.0191  -14.7033 C   0  0  0  0  0  0  0  0  0  0  0  0
   23.8294  -12.8039  -14.9171 C   0  0  0  0  0  0  0  0  0  0  0  0
   20.7506   -9.6112  -16.3103 C   0  0  0  0  0  0  0  0  0  0  0  0
   20.7301   -9.1137  -17.5042 O   0  0  0  0  0  0  0  0  0  0  0  0
   17.5347   -8.2134  -16.0849 C   0  0  0  0  0  0  0  0  0  0  0  0
   18.3785   -7.2960  -15.2208 C   0  0  1  0  0  0  0  0  0  0  0  0
   18.3353   -7.6993  -13.7762 C   0  0  0  0  0  0  0  0  0  0  0  0
   19.8372   -7.3997  -15.6768 C   0  0  2  0  0  0  0  0  0  0  0  0
   20.3049   -8.7191  -15.3176 N   0  0  0  0  0  0  0  0  0  0  0  0
   20.6662   -6.3710  -15.0457 C   0  0  0  0  0  0  0  0  0  0  0  0
   20.7383   -5.0357  -15.3960 O   0  0  0  0  0  0  0  0  0  0  0  0
   21.4304   -6.6835  -14.0553 O   0  0  0  0  0  0  0  0  0  0  0  0
  1  2  1  0
  3  4  2  0
  3  2  1  0
  5  3  1  0
  6  5  1  0
  6 14  1  0
  6  7  1  6
  8  7  1  0
  9  8  2  0
 10  9  1  0
 11 12  1  0
 11 10  2  0
 12 13  2  0
 13  8  1  0
 14 20  1  0
 15 14  2  0
 17 19  1  0
 17 16  1  6
 17 18  1  0
 19 21  1  0
 19 20  1  1
 21 23  2  0
 21 22  1  0
M  END
$$$$
