GFV.pdb
     RDKit          3D

 23 23  0  0  1  0  0  0  0  0999 V2000
   27.5362  -20.8615  -14.1817 N   0  0  0  0  0  0  0  0  0  0  0  0
   28.2006  -21.2441  -12.9634 C   0  0  0  0  0  0  0  0  0  0  0  0
   27.5658  -20.5534  -11.7848 C   0  0  0  0  0  0  0  0  0  0  0  0
   27.3810  -19.3153  -11.8324 O   0  0  0  0  0  0  0  0  0  0  0  0
   27.1762  -21.2725  -10.6306 N   0  0  0  0  0  0  0  0  0  0  0  0
   26.3802  -20.5737   -9.5922 C   0  0  1  0  0  0  0  0  0  0  0  0
   25.0454  -21.2192   -9.5389 C   0  0  0  0  0  0  0  0  0  0  0  0
   24.1318  -21.0178  -10.6573 C   0  0  0  0  0  0  0  0  0  0  0  0
   23.2792  -19.9042  -10.6725 C   0  0  0  0  0  0  0  0  0  0  0  0
   22.4263  -19.6400  -11.7208 C   0  0  0  0  0  0  0  0  0  0  0  0
   22.3894  -20.4855  -12.8082 C   0  0  0  0  0  0  0  0  0  0  0  0
   23.2099  -21.5863  -12.8289 C   0  0  0  0  0  0  0  0  0  0  0  0
   24.0572  -21.8272  -11.7609 C   0  0  0  0  0  0  0  0  0  0  0  0
   27.1144  -20.7068   -8.3244 C   0  0  0  0  0  0  0  0  0  0  0  0
   27.7192  -21.8235   -8.0783 O   0  0  0  0  0  0  0  0  0  0  0  0
   29.2693  -19.0694   -4.2374 C   0  0  0  0  0  0  0  0  0  0  0  0
   28.5823  -18.7755   -5.5573 C   0  0  1  0  0  0  0  0  0  0  0  0
   29.5533  -18.2871   -6.5916 C   0  0  0  0  0  0  0  0  0  0  0  0
   27.9688  -20.0745   -6.0891 C   0  0  2  0  0  0  0  0  0  0  0  0
   27.2622  -19.7467   -7.3064 N   0  0  0  0  0  0  0  0  0  0  0  0
   27.0578  -20.6719   -5.1109 C   0  0  0  0  0  0  0  0  0  0  0  0
   25.6922  -20.8387   -5.2453 O   0  0  0  0  0  0  0  0  0  0  0  0
   27.5195  -21.1051   -3.9876 O   0  0  0  0  0  0  0  0  0  0  0  0
  1  2  1  0
  3  4  2  0
  3  2  1  0
  5  3  1  0
  6  5  1  0
  6 14  1  0
  6  7  1  1
  8  7  1  0
  9  8  2  0
 10  9  1  0
 11 12  1  0
 11 10  2  0
 12 13  2  0
 13  8  1  0
 14 20  1  0
 15 14  2  0
 17 19  1  0
 17 16  1  1
 17 18  1  0
 19 21  1  0
 19 20  1  6
 21 23  2  0
 21 22  1  0
M  END
$$$$
