GFV.pdb
     RDKit          3D

 23 23  0  0  1  0  0  0  0  0999 V2000
   29.1292  -21.3348  -14.2584 N   0  0  0  0  0  0  0  0  0  0  0  0
   28.4996  -20.3358  -13.4352 C   0  0  0  0  0  0  0  0  0  0  0  0
   27.3507  -20.9394  -12.6705 C   0  0  0  0  0  0  0  0  0  0  0  0
   27.0569  -22.1418  -12.8626 O   0  0  0  0  0  0  0  0  0  0  0  0
   26.6006  -20.1780  -11.7438 N   0  0  0  0  0  0  0  0  0  0  0  0
   25.4493  -20.8194  -11.0629 C   0  0  1  0  0  0  0  0  0  0  0  0
   25.3247  -20.2067   -9.7174 C   0  0  0  0  0  0  0  0  0  0  0  0
   26.4685  -20.2734   -8.8156 C   0  0  0  0  0  0  0  0  0  0  0  0
   27.3311  -21.3784   -8.8602 C   0  0  0  0  0  0  0  0  0  0  0  0
   28.4497  -21.4761   -8.0629 C   0  0  0  0  0  0  0  0  0  0  0  0
   28.7560  -20.4641   -7.1794 C   0  0  0  0  0  0  0  0  0  0  0  0
   27.9343  -19.3662   -7.1077 C   0  0  0  0  0  0  0  0  0  0  0  0
   26.8165  -19.2949   -7.9212 C   0  0  0  0  0  0  0  0  0  0  0  0
   24.2637  -20.5747  -11.8985 C   0  0  0  0  0  0  0  0  0  0  0  0
   24.0977  -19.3939  -12.4000 O   0  0  0  0  0  0  0  0  0  0  0  0
   23.4785  -21.9672  -15.0539 C   0  0  0  0  0  0  0  0  0  0  0  0
   22.1665  -22.0812  -14.3016 C   0  0  1  0  0  0  0  0  0  0  0  0
   21.9805  -23.4493  -13.7144 C   0  0  0  0  0  0  0  0  0  0  0  0
   22.1826  -21.0864  -13.1369 C   0  0  2  0  0  0  0  0  0  0  0  0
   23.2499  -21.4857  -12.2481 N   0  0  0  0  0  0  0  0  0  0  0  0
   20.9010  -21.0755  -12.4290 C   0  0  0  0  0  0  0  0  0  0  0  0
   19.7036  -20.5629  -12.8921 O   0  0  0  0  0  0  0  0  0  0  0  0
   20.8190  -21.5819  -11.2461 O   0  0  0  0  0  0  0  0  0  0  0  0
  1  2  1  0
  3  4  2  0
  3  2  1  0
  5  3  1  0
  6  5  1  0
  6 14  1  0
  6  7  1  1
  8  7  1  0
  9  8  2  0
 10  9  1  0
 11 12  1  0
 11 10  2  0
 12 13  2  0
 13  8  1  0
 14 20  1  0
 15 14  2  0
 17 19  1  0
 17 16  1  1
 17 18  1  0
 19 21  1  0
 19 20  1  1
 21 23  2  0
 21 22  1  0
M  END
$$$$
