PPQ.pdb
     RDKit          3D

 24 25  0  0  1  0  0  0  0  0999 V2000
    9.1302  -13.9837   21.1304 N   0  0  0  0  0  0  0  0  0  0  0  0
    8.5783  -14.1510   19.8178 C   0  0  0  0  0  0  0  0  0  0  0  0
    7.1638  -14.6380   20.1011 C   0  0  0  0  0  0  0  0  0  0  0  0
    6.8050  -13.8580   21.3546 C   0  0  0  0  0  0  0  0  0  0  0  0
    8.1288  -13.5565   22.0476 C   0  0  1  0  0  0  0  0  0  0  0  0
    8.1661  -14.3327   23.3162 C   0  0  0  0  0  0  0  0  0  0  0  0
    8.5481  -15.5122   23.2172 O   0  0  0  0  0  0  0  0  0  0  0  0
    7.7940  -13.7516   24.5116 N   0  0  0  0  0  0  0  0  0  0  0  0
    7.7042  -12.2758   24.6782 C   0  0  0  0  0  0  0  0  0  0  0  0
    6.2962  -12.1883   25.2288 C   0  0  0  0  0  0  0  0  0  0  0  0
    6.0288  -13.5459   25.8993 C   0  0  0  0  0  0  0  0  0  0  0  0
    7.4171  -14.1697   25.8162 C   0  0  1  0  0  0  0  0  0  0  0  0
    7.4731  -15.5473   26.2024 C   0  0  0  0  0  0  0  0  0  0  0  0
    6.4490  -16.2328   26.4303 O   0  0  0  0  0  0  0  0  0  0  0  0
   10.8956  -19.8396   23.4128 N   0  0  0  0  0  0  0  0  0  0  0  0
   11.4748  -18.7239   24.0641 C   0  0  0  0  0  0  0  0  0  0  0  0
   12.6187  -18.3766   23.6938 O   0  0  0  0  0  0  0  0  0  0  0  0
   10.7874  -17.9945   25.1255 C   0  0  0  0  0  0  0  0  0  0  0  0
    9.3861  -18.4123   25.4152 C   0  0  0  0  0  0  0  0  0  0  0  0
    8.7631  -17.6955   26.5571 C   0  0  2  0  0  0  0  0  0  0  0  0
    8.6941  -16.2647   26.3630 N   0  0  0  0  0  0  0  0  0  0  0  0
    9.4480  -17.9717   27.8311 C   0  0  0  0  0  0  0  0  0  0  0  0
   10.0330  -17.1137   28.5329 O   0  0  0  0  0  0  0  0  0  0  0  0
    9.4826  -19.2786   28.3522 O   0  0  0  0  0  0  0  0  0  0  0  0
  1  5  1  0
  1  2  1  0
  2  3  1  0
  4  3  1  0
  5  4  1  0
  6  8  1  0
  5  6  1  1
  7  6  2  0
  8 12  1  0
  9  8  1  0
  9 10  1  0
 10 11  1  0
 12 11  1  0
 12 13  1  6
 13 14  2  0
 16 15  1  0
 16 17  2  0
 18 16  1  0
 19 18  1  0
 20 19  1  6
 20 21  1  0
 21 13  1  0
 22 20  1  0
 22 24  1  0
 23 22  2  0
M  END
$$$$
