PPQ.pdb
     RDKit          3D

 24 25  0  0  1  0  0  0  0  0999 V2000
    8.7641  -13.1513   20.9620 N   0  0  0  0  0  0  0  0  0  0  0  0
    8.1173  -13.3087   19.6922 C   0  0  0  0  0  0  0  0  0  0  0  0
    6.8609  -14.0938   20.0434 C   0  0  0  0  0  0  0  0  0  0  0  0
    6.4954  -13.5168   21.4006 C   0  0  0  0  0  0  0  0  0  0  0  0
    7.8032  -13.0179   22.0040 C   0  0  1  0  0  0  0  0  0  0  0  0
    8.1241  -13.8805   23.1728 C   0  0  0  0  0  0  0  0  0  0  0  0
    8.6831  -14.9601   22.9106 O   0  0  0  0  0  0  0  0  0  0  0  0
    7.8084  -13.4793   24.4552 N   0  0  0  0  0  0  0  0  0  0  0  0
    7.5115  -12.0599   24.7882 C   0  0  0  0  0  0  0  0  0  0  0  0
    6.1808  -12.2566   25.4835 C   0  0  0  0  0  0  0  0  0  0  0  0
    6.2063  -13.6945   26.0271 C   0  0  0  0  0  0  0  0  0  0  0  0
    7.6551  -14.0700   25.7383 C   0  0  1  0  0  0  0  0  0  0  0  0
    7.9680  -15.4486   25.9661 C   0  0  0  0  0  0  0  0  0  0  0  0
    7.1022  -16.3546   25.9515 O   0  0  0  0  0  0  0  0  0  0  0  0
   12.5613  -18.1546   23.0743 N   0  0  0  0  0  0  0  0  0  0  0  0
   12.7767  -17.1199   24.0164 C   0  0  0  0  0  0  0  0  0  0  0  0
   13.8320  -16.4564   23.9050 O   0  0  0  0  0  0  0  0  0  0  0  0
   11.8241  -16.8218   25.0817 C   0  0  0  0  0  0  0  0  0  0  0  0
   10.5970  -17.6668   25.1276 C   0  0  0  0  0  0  0  0  0  0  0  0
    9.6584  -17.3143   26.2233 C   0  0  2  0  0  0  0  0  0  0  0  0
    9.2879  -15.9171   26.2295 N   0  0  0  0  0  0  0  0  0  0  0  0
   10.1875  -17.6736   27.5497 C   0  0  0  0  0  0  0  0  0  0  0  0
   10.4022  -16.8628   28.4811 O   0  0  0  0  0  0  0  0  0  0  0  0
   10.4947  -19.0127   27.8550 O   0  0  0  0  0  0  0  0  0  0  0  0
  1  5  1  0
  1  2  1  0
  2  3  1  0
  4  3  1  0
  5  4  1  0
  6  8  1  0
  5  6  1  1
  7  6  2  0
  8 12  1  0
  9  8  1  0
  9 10  1  0
 10 11  1  0
 12 11  1  0
 12 13  1  6
 13 14  2  0
 16 15  1  0
 16 17  2  0
 18 16  1  0
 19 18  1  0
 20 19  1  6
 20 21  1  0
 21 13  1  0
 22 20  1  0
 22 24  1  0
 23 22  2  0
M  END
$$$$
