PPQ.pdb
     RDKit          3D

 24 25  0  0  1  0  0  0  0  0999 V2000
    9.0391  -13.5958   20.9180 N   0  0  0  0  0  0  0  0  0  0  0  0
    8.4260  -13.7636   19.6329 C   0  0  0  0  0  0  0  0  0  0  0  0
    7.0768  -14.3803   19.9756 C   0  0  0  0  0  0  0  0  0  0  0  0
    6.7290  -13.6788   21.2776 C   0  0  0  0  0  0  0  0  0  0  0  0
    8.0617  -13.2891   21.9066 C   0  0  1  0  0  0  0  0  0  0  0  0
    8.2395  -14.1035   23.1388 C   0  0  0  0  0  0  0  0  0  0  0  0
    8.7333  -15.2329   22.9737 O   0  0  0  0  0  0  0  0  0  0  0  0
    7.8699  -13.6080   24.3729 N   0  0  0  0  0  0  0  0  0  0  0  0
    7.6701  -12.1532   24.6124 C   0  0  0  0  0  0  0  0  0  0  0  0
    6.2824  -12.2044   25.2163 C   0  0  0  0  0  0  0  0  0  0  0  0
    6.1499  -13.6075   25.8308 C   0  0  0  0  0  0  0  0  0  0  0  0
    7.5788  -14.1127   25.6688 C   0  0  1  0  0  0  0  0  0  0  0  0
    7.7588  -15.4971   25.9870 C   0  0  0  0  0  0  0  0  0  0  0  0
    6.8202  -16.3273   25.9699 O   0  0  0  0  0  0  0  0  0  0  0  0
   11.6176  -18.9939   23.0629 N   0  0  0  0  0  0  0  0  0  0  0  0
   12.0722  -17.9046   23.8447 C   0  0  0  0  0  0  0  0  0  0  0  0
   13.1773  -17.4033   23.5384 O   0  0  0  0  0  0  0  0  0  0  0  0
   11.3034  -17.3721   24.9657 C   0  0  0  0  0  0  0  0  0  0  0  0
    9.9763  -18.0028   25.2167 C   0  0  0  0  0  0  0  0  0  0  0  0
    9.2729  -17.4792   26.4154 C   0  0  2  0  0  0  0  0  0  0  0  0
    9.0174  -16.0579   26.3513 N   0  0  0  0  0  0  0  0  0  0  0  0
    9.9961  -17.7782   27.6629 C   0  0  0  0  0  0  0  0  0  0  0  0
   10.4606  -16.9184   28.4476 O   0  0  0  0  0  0  0  0  0  0  0  0
   10.2137  -19.1114   28.0578 O   0  0  0  0  0  0  0  0  0  0  0  0
  1  5  1  0
  1  2  1  0
  2  3  1  0
  4  3  1  0
  5  4  1  0
  6  8  1  0
  5  6  1  1
  7  6  2  0
  8 12  1  0
  9  8  1  0
  9 10  1  0
 10 11  1  0
 12 11  1  0
 12 13  1  6
 13 14  2  0
 16 15  1  0
 16 17  2  0
 18 16  1  0
 19 18  1  0
 20 19  1  6
 20 21  1  0
 21 13  1  0
 22 20  1  0
 22 24  1  0
 23 22  2  0
M  END
$$$$
