PPQ.pdb
     RDKit          3D

 24 25  0  0  1  0  0  0  0  0999 V2000
    9.2284  -13.8744   20.9110 N   0  0  0  0  0  0  0  0  0  0  0  0
    8.7160  -13.9839   19.5764 C   0  0  0  0  0  0  0  0  0  0  0  0
    7.2938  -14.4814   19.7960 C   0  0  0  0  0  0  0  0  0  0  0  0
    6.8975  -13.7562   21.0709 C   0  0  0  0  0  0  0  0  0  0  0  0
    8.1999  -13.4865   21.8155 C   0  0  1  0  0  0  0  0  0  0  0  0
    8.1996  -14.3171   23.0497 C   0  0  0  0  0  0  0  0  0  0  0  0
    8.6275  -15.4777   22.9203 O   0  0  0  0  0  0  0  0  0  0  0  0
    7.7466  -13.8028   24.2478 N   0  0  0  0  0  0  0  0  0  0  0  0
    7.5790  -12.3407   24.4667 C   0  0  0  0  0  0  0  0  0  0  0  0
    6.1451  -12.3402   24.9533 C   0  0  0  0  0  0  0  0  0  0  0  0
    5.9126  -13.7347   25.5577 C   0  0  0  0  0  0  0  0  0  0  0  0
    7.3314  -14.2904   25.5162 C   0  0  1  0  0  0  0  0  0  0  0  0
    7.4354  -15.6786   25.8511 C   0  0  0  0  0  0  0  0  0  0  0  0
    6.5062  -16.4971   25.6582 O   0  0  0  0  0  0  0  0  0  0  0  0
   11.2427  -18.4690   22.5875 N   0  0  0  0  0  0  0  0  0  0  0  0
   11.0078  -19.4794   23.5511 C   0  0  0  0  0  0  0  0  0  0  0  0
   11.4693  -20.6174   23.3098 O   0  0  0  0  0  0  0  0  0  0  0  0
   10.2609  -19.2292   24.7802 C   0  0  0  0  0  0  0  0  0  0  0  0
    9.8973  -17.8102   25.0562 C   0  0  0  0  0  0  0  0  0  0  0  0
    9.0021  -17.6302   26.2275 C   0  0  2  0  0  0  0  0  0  0  0  0
    8.6009  -16.2567   26.4330 N   0  0  0  0  0  0  0  0  0  0  0  0
    9.5993  -18.1441   27.4716 C   0  0  0  0  0  0  0  0  0  0  0  0
    9.8114  -19.3541   27.7202 O   0  0  0  0  0  0  0  0  0  0  0  0
    9.9817  -17.2587   28.4966 O   0  0  0  0  0  0  0  0  0  0  0  0
  1  5  1  0
  1  2  1  0
  2  3  1  0
  4  3  1  0
  5  4  1  0
  6  8  1  0
  5  6  1  1
  7  6  2  0
  8 12  1  0
  9  8  1  0
  9 10  1  0
 10 11  1  0
 12 11  1  0
 12 13  1  6
 13 14  2  0
 16 15  1  0
 16 17  2  0
 18 16  1  0
 19 18  1  0
 20 19  1  6
 20 21  1  0
 21 13  1  0
 22 20  1  0
 22 24  1  0
 23 22  2  0
M  END
$$$$
