PPQ.pdb
     RDKit          3D

 24 25  0  0  1  0  0  0  0  0999 V2000
    8.7643  -14.2123   21.2863 N   0  0  0  0  0  0  0  0  0  0  0  0
    8.0989  -14.8377   20.1809 C   0  0  0  0  0  0  0  0  0  0  0  0
    7.0711  -15.7312   20.8617 C   0  0  0  0  0  0  0  0  0  0  0  0
    6.6626  -14.8896   22.0589 C   0  0  0  0  0  0  0  0  0  0  0  0
    7.8579  -13.9934   22.3619 C   0  0  1  0  0  0  0  0  0  0  0  0
    8.4280  -14.4205   23.6679 C   0  0  0  0  0  0  0  0  0  0  0  0
    9.2100  -15.3867   23.6264 O   0  0  0  0  0  0  0  0  0  0  0  0
    8.0907  -13.7648   24.8348 N   0  0  0  0  0  0  0  0  0  0  0  0
    7.7357  -12.3200   24.8546 C   0  0  0  0  0  0  0  0  0  0  0  0
    6.4107  -12.4150   25.5815 C   0  0  0  0  0  0  0  0  0  0  0  0
    6.4913  -13.6995   26.4227 C   0  0  0  0  0  0  0  0  0  0  0  0
    7.9552  -14.0701   26.2158 C   0  0  1  0  0  0  0  0  0  0  0  0
    8.3219  -15.3534   26.7345 C   0  0  0  0  0  0  0  0  0  0  0  0
    7.4951  -16.2790   26.9085 O   0  0  0  0  0  0  0  0  0  0  0  0
   11.8861  -18.5073   23.3220 N   0  0  0  0  0  0  0  0  0  0  0  0
   11.9252  -18.4177   24.7344 C   0  0  0  0  0  0  0  0  0  0  0  0
   12.8757  -18.9865   25.3169 O   0  0  0  0  0  0  0  0  0  0  0  0
   10.9111  -17.6996   25.5006 C   0  0  0  0  0  0  0  0  0  0  0  0
   11.0960  -17.6715   26.9795 C   0  0  0  0  0  0  0  0  0  0  0  0
   10.0212  -16.9541   27.7116 C   0  0  2  0  0  0  0  0  0  0  0  0
    9.6560  -15.6963   27.1000 N   0  0  0  0  0  0  0  0  0  0  0  0
   10.3692  -16.7154   29.1225 C   0  0  0  0  0  0  0  0  0  0  0  0
   10.4865  -15.5856   29.6521 O   0  0  0  0  0  0  0  0  0  0  0  0
   10.5993  -17.7978   29.9920 O   0  0  0  0  0  0  0  0  0  0  0  0
  1  5  1  0
  1  2  1  0
  2  3  1  0
  4  3  1  0
  5  4  1  0
  6  8  1  0
  5  6  1  1
  7  6  2  0
  8 12  1  0
  9  8  1  0
  9 10  1  0
 10 11  1  0
 12 11  1  0
 12 13  1  6
 13 14  2  0
 16 15  1  0
 16 17  2  0
 18 16  1  0
 19 18  1  0
 20 19  1  6
 20 21  1  0
 21 13  1  0
 22 20  1  0
 22 24  1  0
 23 22  2  0
M  END
$$$$
