PPQ.pdb
     RDKit          3D

 24 25  0  0  1  0  0  0  0  0999 V2000
    8.7322  -14.4192   20.7489 N   0  0  0  0  0  0  0  0  0  0  0  0
    8.0427  -14.9451   19.6071 C   0  0  0  0  0  0  0  0  0  0  0  0
    6.9487  -15.7999   20.2321 C   0  0  0  0  0  0  0  0  0  0  0  0
    6.5797  -14.9915   21.4645 C   0  0  0  0  0  0  0  0  0  0  0  0
    7.8270  -14.1924   21.8240 C   0  0  1  0  0  0  0  0  0  0  0  0
    8.3492  -14.7187   23.1138 C   0  0  0  0  0  0  0  0  0  0  0  0
    9.0258  -15.7596   23.0386 O   0  0  0  0  0  0  0  0  0  0  0  0
    8.0822  -14.0694   24.3022 N   0  0  0  0  0  0  0  0  0  0  0  0
    7.8537  -12.6006   24.3656 C   0  0  0  0  0  0  0  0  0  0  0  0
    6.5332  -12.6015   25.1068 C   0  0  0  0  0  0  0  0  0  0  0  0
    6.5113  -13.9112   25.9119 C   0  0  0  0  0  0  0  0  0  0  0  0
    7.9355  -14.4006   25.6761 C   0  0  1  0  0  0  0  0  0  0  0  0
    8.1953  -15.7247   26.1551 C   0  0  0  0  0  0  0  0  0  0  0  0
    7.3021  -16.5971   26.2636 O   0  0  0  0  0  0  0  0  0  0  0  0
   13.3048  -17.3539   23.6743 N   0  0  0  0  0  0  0  0  0  0  0  0
   13.0304  -18.0175   24.8945 C   0  0  0  0  0  0  0  0  0  0  0  0
   13.6399  -19.0887   25.1119 O   0  0  0  0  0  0  0  0  0  0  0  0
   12.0804  -17.4951   25.8721 C   0  0  0  0  0  0  0  0  0  0  0  0
   10.7547  -18.1738   25.9345 C   0  0  0  0  0  0  0  0  0  0  0  0
    9.7958  -17.5463   26.8793 C   0  0  2  0  0  0  0  0  0  0  0  0
    9.4889  -16.1723   26.5518 N   0  0  0  0  0  0  0  0  0  0  0  0
   10.2622  -17.6115   28.2746 C   0  0  0  0  0  0  0  0  0  0  0  0
   10.4213  -16.6209   29.0258 O   0  0  0  0  0  0  0  0  0  0  0  0
   10.5686  -18.8514   28.8658 O   0  0  0  0  0  0  0  0  0  0  0  0
  1  5  1  0
  1  2  1  0
  2  3  1  0
  4  3  1  0
  5  4  1  0
  6  8  1  0
  5  6  1  1
  7  6  2  0
  8 12  1  0
  9  8  1  0
  9 10  1  0
 10 11  1  0
 12 11  1  0
 12 13  1  6
 13 14  2  0
 16 15  1  0
 16 17  2  0
 18 16  1  0
 19 18  1  0
 20 19  1  6
 20 21  1  0
 21 13  1  0
 22 20  1  0
 22 24  1  0
 23 22  2  0
M  END
$$$$
