PPQ.pdb
     RDKit          3D

 24 25  0  0  1  0  0  0  0  0999 V2000
    8.7358  -14.0558   21.1978 N   0  0  0  0  0  0  0  0  0  0  0  0
    8.0629  -14.4852   20.0069 C   0  0  0  0  0  0  0  0  0  0  0  0
    6.8796  -15.2755   20.5488 C   0  0  0  0  0  0  0  0  0  0  0  0
    6.5152  -14.4863   21.7949 C   0  0  0  0  0  0  0  0  0  0  0  0
    7.8008  -13.7991   22.2403 C   0  0  1  0  0  0  0  0  0  0  0  0
    8.2210  -14.4105   23.5298 C   0  0  0  0  0  0  0  0  0  0  0  0
    8.8517  -15.4788   23.4414 O   0  0  0  0  0  0  0  0  0  0  0  0
    7.9149  -13.8053   24.7320 N   0  0  0  0  0  0  0  0  0  0  0  0
    7.7008  -12.3372   24.8452 C   0  0  0  0  0  0  0  0  0  0  0  0
    6.3523  -12.3505   25.5341 C   0  0  0  0  0  0  0  0  0  0  0  0
    6.2841  -13.6906   26.2847 C   0  0  0  0  0  0  0  0  0  0  0  0
    7.7108  -14.1885   26.0848 C   0  0  1  0  0  0  0  0  0  0  0  0
    7.9366  -15.5337   26.5203 C   0  0  0  0  0  0  0  0  0  0  0  0
    7.0213  -16.3859   26.6016 O   0  0  0  0  0  0  0  0  0  0  0  0
   12.2919  -19.2915   24.3167 N   0  0  0  0  0  0  0  0  0  0  0  0
   11.7831  -20.0010   25.4313 C   0  0  0  0  0  0  0  0  0  0  0  0
   12.1745  -21.1797   25.5854 O   0  0  0  0  0  0  0  0  0  0  0  0
   10.8405  -19.4051   26.3734 C   0  0  0  0  0  0  0  0  0  0  0  0
   10.4531  -17.9890   26.1154 C   0  0  0  0  0  0  0  0  0  0  0  0
    9.5073  -17.4274   27.1133 C   0  0  2  0  0  0  0  0  0  0  0  0
    9.2185  -16.0271   26.9004 N   0  0  0  0  0  0  0  0  0  0  0  0
    9.9786  -17.6125   28.4961 C   0  0  0  0  0  0  0  0  0  0  0  0
   10.4421  -16.7041   29.2247 O   0  0  0  0  0  0  0  0  0  0  0  0
    9.9305  -18.8825   29.1008 O   0  0  0  0  0  0  0  0  0  0  0  0
  1  5  1  0
  1  2  1  0
  2  3  1  0
  4  3  1  0
  5  4  1  0
  6  8  1  0
  5  6  1  1
  7  6  2  0
  8 12  1  0
  9  8  1  0
  9 10  1  0
 10 11  1  0
 12 11  1  0
 12 13  1  6
 13 14  2  0
 16 15  1  0
 16 17  2  0
 18 16  1  0
 19 18  1  0
 20 19  1  6
 20 21  1  0
 21 13  1  0
 22 20  1  0
 22 24  1  0
 23 22  2  0
M  END
$$$$
