PPQ.pdb
     RDKit          3D

 24 25  0  0  1  0  0  0  0  0999 V2000
    7.6759  -14.6683   19.3269 N   0  0  0  0  0  0  0  0  0  0  0  0
    7.2163  -13.3684   18.9335 C   0  0  0  0  0  0  0  0  0  0  0  0
    7.4778  -12.5237   20.1730 C   0  0  0  0  0  0  0  0  0  0  0  0
    8.7729  -13.1211   20.6966 C   0  0  0  0  0  0  0  0  0  0  0  0
    8.7914  -14.5640   20.2053 C   0  0  1  0  0  0  0  0  0  0  0  0
    8.6526  -15.4510   21.3915 C   0  0  0  0  0  0  0  0  0  0  0  0
    7.9954  -14.9867   22.3397 O   0  0  0  0  0  0  0  0  0  0  0  0
    9.2288  -16.7052   21.4075 N   0  0  0  0  0  0  0  0  0  0  0  0
    8.9203  -17.7294   20.3732 C   0  0  0  0  0  0  0  0  0  0  0  0
   10.3345  -18.0681   19.9509 C   0  0  0  0  0  0  0  0  0  0  0  0
   11.2195  -17.7354   21.1634 C   0  0  0  0  0  0  0  0  0  0  0  0
   10.1505  -17.4332   22.2071 C   0  0  1  0  0  0  0  0  0  0  0  0
   10.6548  -16.8989   23.4361 C   0  0  0  0  0  0  0  0  0  0  0  0
   11.6702  -16.1666   23.4944 O   0  0  0  0  0  0  0  0  0  0  0  0
    9.8569  -12.7276   29.0749 N   0  0  0  0  0  0  0  0  0  0  0  0
    9.3369  -13.6790   28.1645 C   0  0  0  0  0  0  0  0  0  0  0  0
    8.1538  -13.5221   27.7878 O   0  0  0  0  0  0  0  0  0  0  0  0
   10.1269  -14.8040   27.6730 C   0  0  0  0  0  0  0  0  0  0  0  0
    9.6520  -15.4461   26.4143 C   0  0  0  0  0  0  0  0  0  0  0  0
   10.5119  -16.5603   25.9400 C   0  0  2  0  0  0  0  0  0  0  0  0
   10.0515  -17.1492   24.7027 N   0  0  0  0  0  0  0  0  0  0  0  0
   10.6572  -17.6229   26.9491 C   0  0  0  0  0  0  0  0  0  0  0  0
   10.0322  -18.7092   26.9435 O   0  0  0  0  0  0  0  0  0  0  0  0
   11.5501  -17.4653   28.0256 O   0  0  0  0  0  0  0  0  0  0  0  0
  1  5  1  0
  1  2  1  0
  2  3  1  0
  4  3  1  0
  5  4  1  0
  6  8  1  0
  5  6  1  1
  7  6  2  0
  8 12  1  0
  9  8  1  0
  9 10  1  0
 10 11  1  0
 12 11  1  0
 12 13  1  1
 13 14  2  0
 16 15  1  0
 16 17  2  0
 18 16  1  0
 19 18  1  0
 20 19  1  1
 20 21  1  0
 21 13  1  0
 22 20  1  0
 22 24  1  0
 23 22  2  0
M  END
$$$$
