PPQ.pdb
     RDKit          3D

 24 25  0  0  1  0  0  0  0  0999 V2000
    8.9423  -14.3468   21.4465 N   0  0  0  0  0  0  0  0  0  0  0  0
    8.3341  -14.6481   20.1836 C   0  0  0  0  0  0  0  0  0  0  0  0
    6.9013  -14.9918   20.5674 C   0  0  0  0  0  0  0  0  0  0  0  0
    6.6400  -14.0283   21.7127 C   0  0  0  0  0  0  0  0  0  0  0  0
    8.0047  -13.7315   22.3234 C   0  0  1  0  0  0  0  0  0  0  0  0
    8.0354  -14.3324   23.6840 C   0  0  0  0  0  0  0  0  0  0  0  0
    8.3681  -15.5295   23.7388 O   0  0  0  0  0  0  0  0  0  0  0  0
    7.7099  -13.5818   24.7957 N   0  0  0  0  0  0  0  0  0  0  0  0
    7.6636  -12.0951   24.7590 C   0  0  0  0  0  0  0  0  0  0  0  0
    6.2732  -11.8909   25.3230 C   0  0  0  0  0  0  0  0  0  0  0  0
    5.9873  -13.1349   26.1801 C   0  0  0  0  0  0  0  0  0  0  0  0
    7.3560  -13.8054   26.1535 C   0  0  1  0  0  0  0  0  0  0  0  0
    7.3853  -15.1180   26.7247 C   0  0  0  0  0  0  0  0  0  0  0  0
    7.1539  -15.3387   27.9364 O   0  0  0  0  0  0  0  0  0  0  0  0
    5.9847  -21.0147   24.3059 N   0  0  0  0  0  0  0  0  0  0  0  0
    7.3635  -20.6965   24.2580 C   0  0  0  0  0  0  0  0  0  0  0  0
    8.1194  -21.5153   23.6885 O   0  0  0  0  0  0  0  0  0  0  0  0
    7.9042  -19.4725   24.8417 C   0  0  0  0  0  0  0  0  0  0  0  0
    6.9269  -18.5768   25.5234 C   0  0  0  0  0  0  0  0  0  0  0  0
    7.5418  -17.6331   26.4915 C   0  0  2  0  0  0  0  0  0  0  0  0
    7.6795  -16.2915   25.9713 N   0  0  0  0  0  0  0  0  0  0  0  0
    8.8558  -18.0976   26.9672 C   0  0  0  0  0  0  0  0  0  0  0  0
    9.0381  -19.0662   27.7415 O   0  0  0  0  0  0  0  0  0  0  0  0
   10.0332  -17.4453   26.5562 O   0  0  0  0  0  0  0  0  0  0  0  0
  1  5  1  0
  1  2  1  0
  2  3  1  0
  4  3  1  0
  5  4  1  0
  6  8  1  0
  5  6  1  1
  7  6  2  0
  8 12  1  0
  9  8  1  0
  9 10  1  0
 10 11  1  0
 12 11  1  0
 12 13  1  6
 13 14  2  0
 16 15  1  0
 16 17  2  0
 18 16  1  0
 19 18  1  0
 20 19  1  6
 20 21  1  0
 21 13  1  0
 22 20  1  0
 22 24  1  0
 23 22  2  0
M  END
$$$$
