WVV.pdb
     RDKit          3D

 29 30  0  0  1  0  0  0  0  0999 V2000
   24.5119  -20.7299  -11.7067 N   0  0  0  0  0  0  0  0  0  0  0  0
   24.2182  -21.1158  -10.3432 C   0  0  1  0  0  0  0  0  0  0  0  0
   24.9507  -20.1384   -9.4433 C   0  0  0  0  0  0  0  0  0  0  0  0
   26.3841  -20.5056   -9.3136 C   0  0  0  0  0  0  0  0  0  0  0  0
   27.1812  -21.2571  -10.1549 C   0  0  0  0  0  0  0  0  0  0  0  0
   28.4085  -21.3308   -9.6396 N   0  0  0  0  0  0  0  0  0  0  0  0
   28.4920  -20.6628   -8.4796 C   0  0  0  0  0  0  0  0  0  0  0  0
   29.5370  -20.4527   -7.5861 C   0  0  0  0  0  0  0  0  0  0  0  0
   29.2701  -19.6974   -6.4638 C   0  0  0  0  0  0  0  0  0  0  0  0
   28.0074  -19.1771   -6.2511 C   0  0  0  0  0  0  0  0  0  0  0  0
   26.9703  -19.3854   -7.1378 C   0  0  0  0  0  0  0  0  0  0  0  0
   27.2348  -20.1422   -8.2638 C   0  0  0  0  0  0  0  0  0  0  0  0
   22.7644  -21.0800  -10.1407 C   0  0  0  0  0  0  0  0  0  0  0  0
   22.1841  -19.9599  -10.1820 O   0  0  0  0  0  0  0  0  0  0  0  0
   20.1730  -21.1324  -11.9793 C   0  0  0  0  0  0  0  0  0  0  0  0
   19.8581  -22.3245  -11.1201 C   0  0  2  0  0  0  0  0  0  0  0  0
   18.3549  -22.4299  -11.0625 C   0  0  0  0  0  0  0  0  0  0  0  0
   20.4961  -22.1430   -9.7602 C   0  0  2  0  0  0  0  0  0  0  0  0
   21.9572  -22.1999   -9.9028 N   0  0  0  0  0  0  0  0  0  0  0  0
   20.1250  -23.2841   -8.9104 C   0  0  0  0  0  0  0  0  0  0  0  0
   20.6584  -24.4187   -9.1733 O   0  0  0  0  0  0  0  0  0  0  0  0
   17.4430  -23.1417   -5.7027 C   0  0  0  0  0  0  0  0  0  0  0  0
   18.5255  -24.1813   -5.6475 C   0  0  1  0  0  0  0  0  0  0  0  0
   18.0814  -25.4001   -4.8851 C   0  0  0  0  0  0  0  0  0  0  0  0
   18.9219  -24.5182   -7.0812 C   0  0  2  0  0  0  0  0  0  0  0  0
   19.2400  -23.2927   -7.8137 N   0  0  0  0  0  0  0  0  0  0  0  0
   17.7488  -25.1781   -7.6941 C   0  0  0  0  0  0  0  0  0  0  0  0
   16.8662  -24.5133   -8.2753 O   0  0  0  0  0  0  0  0  0  0  0  0
   17.5924  -26.5461   -7.6435 O   0  0  0  0  0  0  0  0  0  0  0  0
  2  1  1  6
  2 13  1  0
  3  2  1  0
  4  3  1  0
  4 12  1  0
  5  6  1  0
  5  4  2  0
  6  7  1  0
  7 12  2  0
  7  8  1  0
  8  9  2  0
  9 10  1  0
 11 10  2  0
 12 11  1  0
 13 14  2  0
 16 17  1  1
 16 15  1  0
 16 18  1  0
 18 19  1  6
 19 13  1  0
 20 21  2  0
 20 18  1  0
 23 22  1  6
 23 25  1  0
 24 23  1  0
 25 26  1  6
 25 27  1  0
 26 20  1  0
 27 29  1  0
 28 27  2  0
M  END
$$$$
