WVV.pdb
     RDKit          3D

 29 30  0  0  1  0  0  0  0  0999 V2000
   24.5782  -19.6698  -11.4020 N   0  0  0  0  0  0  0  0  0  0  0  0
   25.9065  -20.1757  -11.6740 C   0  0  1  0  0  0  0  0  0  0  0  0
   26.1262  -21.3538  -10.7439 C   0  0  0  0  0  0  0  0  0  0  0  0
   26.3182  -20.8980   -9.3433 C   0  0  0  0  0  0  0  0  0  0  0  0
   25.3795  -20.6452   -8.3620 C   0  0  0  0  0  0  0  0  0  0  0  0
   26.0058  -20.2532   -7.2524 N   0  0  0  0  0  0  0  0  0  0  0  0
   27.3354  -20.2248   -7.4261 C   0  0  0  0  0  0  0  0  0  0  0  0
   28.3893  -19.8911   -6.5821 C   0  0  0  0  0  0  0  0  0  0  0  0
   29.6657  -19.9750   -7.0969 C   0  0  0  0  0  0  0  0  0  0  0  0
   29.8712  -20.3771   -8.4032 C   0  0  0  0  0  0  0  0  0  0  0  0
   28.8255  -20.7085   -9.2409 C   0  0  0  0  0  0  0  0  0  0  0  0
   27.5448  -20.6253   -8.7276 C   0  0  0  0  0  0  0  0  0  0  0  0
   25.9901  -20.5578  -13.0892 C   0  0  0  0  0  0  0  0  0  0  0  0
   24.9354  -20.9423  -13.6662 O   0  0  0  0  0  0  0  0  0  0  0  0
   27.8009  -18.0097  -15.3055 C   0  0  0  0  0  0  0  0  0  0  0  0
   28.2376  -19.3881  -15.7152 C   0  0  2  0  0  0  0  0  0  0  0  0
   28.4893  -19.3371  -17.2012 C   0  0  0  0  0  0  0  0  0  0  0  0
   27.1706  -20.3871  -15.3247 C   0  0  2  0  0  0  0  0  0  0  0  0
   27.1578  -20.5305  -13.8626 N   0  0  0  0  0  0  0  0  0  0  0  0
   27.5418  -21.7053  -15.8601 C   0  0  0  0  0  0  0  0  0  0  0  0
   28.4627  -22.3555  -15.2518 O   0  0  0  0  0  0  0  0  0  0  0  0
   24.9461  -24.2999  -16.3336 C   0  0  0  0  0  0  0  0  0  0  0  0
   26.4077  -24.5890  -16.1441 C   0  0  1  0  0  0  0  0  0  0  0  0
   26.6930  -26.0642  -16.2229 C   0  0  0  0  0  0  0  0  0  0  0  0
   27.1791  -23.8016  -17.1981 C   0  0  2  0  0  0  0  0  0  0  0  0
   27.0004  -22.3662  -16.9809 N   0  0  0  0  0  0  0  0  0  0  0  0
   26.6072  -24.1854  -18.5068 C   0  0  0  0  0  0  0  0  0  0  0  0
   25.4994  -23.7464  -18.8795 O   0  0  0  0  0  0  0  0  0  0  0  0
   27.2776  -25.0386  -19.3559 O   0  0  0  0  0  0  0  0  0  0  0  0
  2  1  1  6
  2 13  1  0
  3  2  1  0
  4  3  1  0
  4 12  1  0
  5  6  1  0
  5  4  2  0
  6  7  1  0
  7 12  2  0
  7  8  1  0
  8  9  2  0
  9 10  1  0
 11 10  2  0
 12 11  1  0
 13 14  2  0
 16 17  1  6
 16 15  1  0
 16 18  1  0
 18 19  1  1
 19 13  1  0
 20 21  2  0
 20 18  1  0
 23 22  1  6
 23 25  1  0
 24 23  1  0
 25 26  1  1
 25 27  1  0
 26 20  1  0
 27 29  1  0
 28 27  2  0
M  END
$$$$
