WVV.pdb
     RDKit          3D

 29 30  0  0  1  0  0  0  0  0999 V2000
   24.2629  -19.2542  -17.4619 N   0  0  0  0  0  0  0  0  0  0  0  0
   24.8226  -18.5710  -16.3155 C   0  0  1  0  0  0  0  0  0  0  0  0
   23.7258  -17.6863  -15.7536 C   0  0  0  0  0  0  0  0  0  0  0  0
   23.7476  -16.3433  -16.3880 C   0  0  0  0  0  0  0  0  0  0  0  0
   22.7708  -15.6994  -17.1223 C   0  0  0  0  0  0  0  0  0  0  0  0
   23.2268  -14.5044  -17.4981 N   0  0  0  0  0  0  0  0  0  0  0  0
   24.4755  -14.2966  -17.0549 C   0  0  0  0  0  0  0  0  0  0  0  0
   25.3561  -13.2279  -17.1847 C   0  0  0  0  0  0  0  0  0  0  0  0
   26.5932  -13.3490  -16.5877 C   0  0  0  0  0  0  0  0  0  0  0  0
   26.9281  -14.4950  -15.8914 C   0  0  0  0  0  0  0  0  0  0  0  0
   26.0543  -15.5556  -15.7625 C   0  0  0  0  0  0  0  0  0  0  0  0
   24.8134  -15.4372  -16.3598 C   0  0  0  0  0  0  0  0  0  0  0  0
   25.2864  -19.5705  -15.3450 C   0  0  0  0  0  0  0  0  0  0  0  0
   24.5913  -20.6115  -15.1829 O   0  0  0  0  0  0  0  0  0  0  0  0
   29.0923  -20.7138  -14.4343 C   0  0  0  0  0  0  0  0  0  0  0  0
   28.3065  -20.2746  -13.2310 C   0  0  2  0  0  0  0  0  0  0  0  0
   28.7707  -21.1278  -12.0775 C   0  0  0  0  0  0  0  0  0  0  0  0
   26.8282  -20.4158  -13.5207 C   0  0  2  0  0  0  0  0  0  0  0  0
   26.4513  -19.4639  -14.5744 N   0  0  0  0  0  0  0  0  0  0  0  0
   26.0740  -20.0174  -12.3230 C   0  0  0  0  0  0  0  0  0  0  0  0
   25.6274  -18.8178  -12.2741 O   0  0  0  0  0  0  0  0  0  0  0  0
   23.5342  -19.0181  -11.5413 C   0  0  0  0  0  0  0  0  0  0  0  0
   23.5628  -20.0448  -10.4455 C   0  0  1  0  0  0  0  0  0  0  0  0
   22.8896  -21.3221  -10.8687 C   0  0  0  0  0  0  0  0  0  0  0  0
   25.0199  -20.2699  -10.0555 C   0  0  2  0  0  0  0  0  0  0  0  0
   25.7663  -20.8036  -11.1946 N   0  0  0  0  0  0  0  0  0  0  0  0
   25.0093  -21.2586   -8.9557 C   0  0  0  0  0  0  0  0  0  0  0  0
   24.5502  -20.9673   -7.8318 O   0  0  0  0  0  0  0  0  0  0  0  0
   25.5051  -22.5315   -9.1357 O   0  0  0  0  0  0  0  0  0  0  0  0
  2  1  1  6
  2 13  1  0
  3  2  1  0
  4  3  1  0
  4 12  1  0
  5  6  1  0
  5  4  2  0
  6  7  1  0
  7 12  2  0
  7  8  1  0
  8  9  2  0
  9 10  1  0
 11 10  2  0
 12 11  1  0
 13 14  2  0
 16 17  1  1
 16 15  1  0
 16 18  1  0
 18 19  1  6
 19 13  1  0
 20 21  2  0
 20 18  1  0
 23 22  1  6
 23 25  1  0
 24 23  1  0
 25 26  1  6
 25 27  1  0
 26 20  1  0
 27 29  1  0
 28 27  2  0
M  END
$$$$
