FTA.pdb
     RDKit          3D

 24 24  0  0  1  0  0  0  0  0999 V2000
    7.5752  -15.0670   20.8851 N   0  0  0  0  0  0  0  0  0  0  0  0
    7.8763  -14.4069   22.1181 C   0  0  1  0  0  0  0  0  0  0  0  0
    6.6211  -13.6443   22.5210 C   0  0  0  0  0  0  0  0  0  0  0  0
    6.7998  -13.0251   23.8522 C   0  0  0  0  0  0  0  0  0  0  0  0
    7.6596  -11.9281   23.9221 C   0  0  0  0  0  0  0  0  0  0  0  0
    7.8534  -11.3228   25.1454 C   0  0  0  0  0  0  0  0  0  0  0  0
    7.2282  -11.7657   26.2919 C   0  0  0  0  0  0  0  0  0  0  0  0
    6.3801  -12.8449   26.2330 C   0  0  0  0  0  0  0  0  0  0  0  0
    6.1796  -13.4605   25.0029 C   0  0  0  0  0  0  0  0  0  0  0  0
    8.1826  -15.3807   23.1777 C   0  0  0  0  0  0  0  0  0  0  0  0
    7.2762  -16.2234   23.4850 O   0  0  0  0  0  0  0  0  0  0  0  0
    9.7655  -18.1847   23.1130 C   0  0  0  0  0  0  0  0  0  0  0  0
   10.5074  -17.4958   24.2115 C   0  0  1  0  0  0  0  0  0  0  0  0
   11.6526  -16.8588   23.6552 O   0  0  0  0  0  0  0  0  0  0  0  0
    9.6371  -16.4144   24.8739 C   0  0  2  0  0  0  0  0  0  0  0  0
    9.4388  -15.3912   23.8387 N   0  0  0  0  0  0  0  0  0  0  0  0
   10.3203  -15.8272   26.0296 C   0  0  0  0  0  0  0  0  0  0  0  0
   11.2904  -15.0122   25.9039 O   0  0  0  0  0  0  0  0  0  0  0  0
   10.0619  -14.5992   29.3076 C   0  0  0  0  0  0  0  0  0  0  0  0
   10.7749  -15.6515   28.4888 C   0  0  2  0  0  0  0  0  0  0  0  0
    9.9694  -16.1013   27.3736 N   0  0  0  0  0  0  0  0  0  0  0  0
   11.2392  -16.7769   29.3193 C   0  0  0  0  0  0  0  0  0  0  0  0
   10.8105  -17.9350   29.1135 O   0  0  0  0  0  0  0  0  0  0  0  0
   12.1530  -16.6258   30.3498 O   0  0  0  0  0  0  0  0  0  0  0  0
  2  1  1  6
  2 10  1  0
  3  2  1  0
  4  3  1  0
  5  4  2  0
  6  5  1  0
  7  6  2  0
  7  8  1  0
  8  9  2  0
  9  4  1  0
 10 11  2  0
 10 16  1  0
 13 14  1  0
 13 12  1  6
 15 13  1  0
 15 16  1  6
 17 21  1  0
 17 15  1  0
 18 17  2  0
 20 19  1  1
 20 22  1  0
 20 21  1  0
 22 24  1  0
 23 22  2  0
M  END
$$$$
