FTA.pdb
     RDKit          3D

 24 24  0  0  1  0  0  0  0  0999 V2000
    6.0201  -16.8923   25.3839 N   0  0  0  0  0  0  0  0  0  0  0  0
    7.0901  -16.0513   24.9428 C   0  0  1  0  0  0  0  0  0  0  0  0
    7.6942  -15.4247   26.1926 C   0  0  0  0  0  0  0  0  0  0  0  0
    7.3299  -13.9939   26.2791 C   0  0  0  0  0  0  0  0  0  0  0  0
    6.1675  -13.6857   26.9872 C   0  0  0  0  0  0  0  0  0  0  0  0
    5.7930  -12.3630   27.0904 C   0  0  0  0  0  0  0  0  0  0  0  0
    6.5268  -11.3445   26.5195 C   0  0  0  0  0  0  0  0  0  0  0  0
    7.6725  -11.6383   25.8206 C   0  0  0  0  0  0  0  0  0  0  0  0
    8.0566  -12.9699   25.7121 C   0  0  0  0  0  0  0  0  0  0  0  0
    8.1369  -16.8368   24.2705 C   0  0  0  0  0  0  0  0  0  0  0  0
    8.3152  -18.0380   24.6595 O   0  0  0  0  0  0  0  0  0  0  0  0
    8.5497  -16.9352   20.5258 C   0  0  0  0  0  0  0  0  0  0  0  0
    9.9169  -16.8002   21.1124 C   0  0  1  0  0  0  0  0  0  0  0  0
   10.3271  -15.4418   20.9983 O   0  0  0  0  0  0  0  0  0  0  0  0
    9.9181  -17.1731   22.6046 C   0  0  2  0  0  0  0  0  0  0  0  0
    8.9238  -16.2872   23.2246 N   0  0  0  0  0  0  0  0  0  0  0  0
   11.2353  -16.9382   23.2023 C   0  0  0  0  0  0  0  0  0  0  0  0
   11.5556  -15.8219   23.7241 O   0  0  0  0  0  0  0  0  0  0  0  0
   14.3853  -18.8582   24.0297 C   0  0  0  0  0  0  0  0  0  0  0  0
   13.5953  -17.6065   23.7209 C   0  0  2  0  0  0  0  0  0  0  0  0
   12.2583  -17.9152   23.2604 N   0  0  0  0  0  0  0  0  0  0  0  0
   14.3078  -16.7210   22.7829 C   0  0  0  0  0  0  0  0  0  0  0  0
   13.9865  -16.6897   21.5733 O   0  0  0  0  0  0  0  0  0  0  0  0
   15.3477  -15.8922   23.1719 O   0  0  0  0  0  0  0  0  0  0  0  0
  2  1  1  1
  2 10  1  0
  3  2  1  0
  4  3  1  0
  5  4  2  0
  6  5  1  0
  7  6  2  0
  7  8  1  0
  8  9  2  0
  9  4  1  0
 10 11  2  0
 10 16  1  0
 13 14  1  0
 13 12  1  1
 15 13  1  0
 15 16  1  1
 17 21  1  0
 17 15  1  0
 18 17  2  0
 20 19  1  6
 20 22  1  0
 20 21  1  0
 22 24  1  0
 23 22  2  0
M  END
$$$$
