FTA.pdb
     RDKit          3D

 24 24  0  0  1  0  0  0  0  0999 V2000
    7.6874  -15.2298   20.7016 N   0  0  0  0  0  0  0  0  0  0  0  0
    7.9632  -14.5241   21.9151 C   0  0  1  0  0  0  0  0  0  0  0  0
    6.7254  -13.6928   22.2257 C   0  0  0  0  0  0  0  0  0  0  0  0
    6.8620  -13.0389   23.5451 C   0  0  0  0  0  0  0  0  0  0  0  0
    6.1271  -13.5898   24.5959 C   0  0  0  0  0  0  0  0  0  0  0  0
    6.2266  -13.0087   25.8420 C   0  0  0  0  0  0  0  0  0  0  0  0
    7.0240  -11.9088   26.0787 C   0  0  0  0  0  0  0  0  0  0  0  0
    7.7511  -11.3596   25.0506 C   0  0  0  0  0  0  0  0  0  0  0  0
    7.6559  -11.9400   23.7910 C   0  0  0  0  0  0  0  0  0  0  0  0
    8.1819  -15.4575   23.0312 C   0  0  0  0  0  0  0  0  0  0  0  0
    7.4170  -16.4748   23.1086 O   0  0  0  0  0  0  0  0  0  0  0  0
    9.5777  -17.9163   22.9744 C   0  0  0  0  0  0  0  0  0  0  0  0
   10.3485  -17.3383   24.1160 C   0  0  1  0  0  0  0  0  0  0  0  0
   11.4672  -16.6288   23.5948 O   0  0  0  0  0  0  0  0  0  0  0  0
    9.4890  -16.3467   24.9185 C   0  0  2  0  0  0  0  0  0  0  0  0
    9.2056  -15.2434   23.9911 N   0  0  0  0  0  0  0  0  0  0  0  0
   10.2210  -15.8421   26.0833 C   0  0  0  0  0  0  0  0  0  0  0  0
   11.1898  -15.0231   25.9748 O   0  0  0  0  0  0  0  0  0  0  0  0
    9.9314  -14.7534   29.3913 C   0  0  0  0  0  0  0  0  0  0  0  0
   10.7053  -15.7351   28.5408 C   0  0  2  0  0  0  0  0  0  0  0  0
    9.9226  -16.2069   27.4184 N   0  0  0  0  0  0  0  0  0  0  0  0
   11.2476  -16.8494   29.3384 C   0  0  0  0  0  0  0  0  0  0  0  0
   10.9213  -18.0303   29.0807 O   0  0  0  0  0  0  0  0  0  0  0  0
   12.1270  -16.6629   30.3926 O   0  0  0  0  0  0  0  0  0  0  0  0
  2  1  1  6
  2 10  1  0
  3  2  1  0
  4  3  1  0
  5  4  2  0
  6  5  1  0
  7  6  2  0
  7  8  1  0
  8  9  2  0
  9  4  1  0
 10 11  2  0
 10 16  1  0
 13 14  1  0
 13 12  1  6
 15 13  1  0
 15 16  1  6
 17 21  1  0
 17 15  1  0
 18 17  2  0
 20 19  1  1
 20 22  1  0
 20 21  1  0
 22 24  1  0
 23 22  2  0
M  END
$$$$
