FTA.pdb
     RDKit          3D

 24 24  0  0  1  0  0  0  0  0999 V2000
    5.7990  -17.0151   25.4819 N   0  0  0  0  0  0  0  0  0  0  0  0
    6.5416  -15.9784   24.8336 C   0  0  1  0  0  0  0  0  0  0  0  0
    7.4977  -15.4118   25.8750 C   0  0  0  0  0  0  0  0  0  0  0  0
    7.1068  -14.0319   26.2362 C   0  0  0  0  0  0  0  0  0  0  0  0
    8.1395  -13.1019   26.3639 C   0  0  0  0  0  0  0  0  0  0  0  0
    7.8167  -11.8045   26.7001 C   0  0  0  0  0  0  0  0  0  0  0  0
    6.5148  -11.4022   26.9120 C   0  0  0  0  0  0  0  0  0  0  0  0
    5.4916  -12.3106   26.7886 C   0  0  0  0  0  0  0  0  0  0  0  0
    5.8092  -13.6209   26.4498 C   0  0  0  0  0  0  0  0  0  0  0  0
    7.3402  -16.5169   23.7212 C   0  0  0  0  0  0  0  0  0  0  0  0
    6.7114  -17.0095   22.7273 O   0  0  0  0  0  0  0  0  0  0  0  0
    7.4182  -16.2007   21.3467 C   0  0  0  0  0  0  0  0  0  0  0  0
    8.9115  -16.1782   21.3792 C   0  0  1  0  0  0  0  0  0  0  0  0
    9.3409  -14.8326   21.5571 O   0  0  0  0  0  0  0  0  0  0  0  0
    9.4521  -17.0088   22.5555 C   0  0  2  0  0  0  0  0  0  0  0  0
    8.7594  -16.4920   23.7433 N   0  0  0  0  0  0  0  0  0  0  0  0
   10.8985  -16.8269   22.7044 C   0  0  0  0  0  0  0  0  0  0  0  0
   11.4008  -15.7909   23.2479 O   0  0  0  0  0  0  0  0  0  0  0  0
   13.9040  -19.1045   22.4879 C   0  0  0  0  0  0  0  0  0  0  0  0
   13.2083  -17.7973   22.7933 C   0  0  2  0  0  0  0  0  0  0  0  0
   11.8590  -17.7721   22.2703 N   0  0  0  0  0  0  0  0  0  0  0  0
   13.9936  -16.6349   22.3417 C   0  0  0  0  0  0  0  0  0  0  0  0
   13.6943  -16.0422   21.2803 O   0  0  0  0  0  0  0  0  0  0  0  0
   15.0805  -16.1411   23.0447 O   0  0  0  0  0  0  0  0  0  0  0  0
  2  1  1  1
  2 10  1  0
  3  2  1  0
  4  3  1  0
  5  4  2  0
  6  5  1  0
  7  6  2  0
  7  8  1  0
  8  9  2  0
  9  4  1  0
 10 11  2  0
 10 16  1  0
 13 14  1  0
 13 12  1  1
 15 13  1  0
 15 16  1  1
 17 21  1  0
 17 15  1  0
 18 17  2  0
 20 19  1  6
 20 22  1  0
 20 21  1  0
 22 24  1  0
 23 22  2  0
M  END
$$$$
