QQH.pdb
     RDKit          3D

 29 29  0  0  1  0  0  0  0  0999 V2000
   13.7988  -19.0027   17.2585 N   0  0  0  0  0  0  0  0  0  0  0  0
   14.9792  -18.2251   17.1035 C   0  0  0  0  0  0  0  0  0  0  0  0
   16.0641  -18.5635   17.6402 O   0  0  0  0  0  0  0  0  0  0  0  0
   14.8934  -16.9907   16.2821 C   0  0  0  0  0  0  0  0  0  0  0  0
   13.4766  -16.8152   15.7914 C   0  0  0  0  0  0  0  0  0  0  0  0
   13.0611  -15.3722   15.7267 C   0  0  2  0  0  0  0  0  0  0  0  0
   14.0363  -14.6608   14.9483 N   0  0  0  0  0  0  0  0  0  0  0  0
   12.8014  -14.7720   17.0402 C   0  0  0  0  0  0  0  0  0  0  0  0
   13.6897  -14.0439   17.5548 O   0  0  0  0  0  0  0  0  0  0  0  0
    7.2106  -14.5583   19.9090 N   0  0  0  0  0  0  0  0  0  0  0  0
    7.6691  -13.6884   18.8921 C   0  0  0  0  0  0  0  0  0  0  0  0
    6.7892  -13.0349   18.2624 O   0  0  0  0  0  0  0  0  0  0  0  0
    9.1027  -13.5307   18.5599 C   0  0  0  0  0  0  0  0  0  0  0  0
    9.9273  -14.3966   19.4890 C   0  0  0  0  0  0  0  0  0  0  0  0
   11.3873  -14.3961   19.1042 C   0  0  2  0  0  0  0  0  0  0  0  0
   11.6088  -14.9488   17.7908 N   0  0  0  0  0  0  0  0  0  0  0  0
   12.0947  -15.2642   20.0824 C   0  0  0  0  0  0  0  0  0  0  0  0
   12.1085  -16.5040   19.8446 O   0  0  0  0  0  0  0  0  0  0  0  0
   12.7407  -14.7871   21.2421 N   0  0  0  0  0  0  0  0  0  0  0  0
   13.2933  -15.7262   22.2041 C   0  0  1  0  0  0  0  0  0  0  0  0
   14.6008  -15.1551   22.7029 C   0  0  0  0  0  0  0  0  0  0  0  0
   15.6260  -15.1645   21.6411 C   0  0  0  0  0  0  0  0  0  0  0  0
   15.5427  -15.6306   20.3652 C   0  0  0  0  0  0  0  0  0  0  0  0
   16.7127  -15.4601   19.7069 N   0  0  0  0  0  0  0  0  0  0  0  0
   17.5428  -14.8727   20.5990 C   0  0  0  0  0  0  0  0  0  0  0  0
   16.8964  -14.6916   21.7648 N   0  0  0  0  0  0  0  0  0  0  0  0
   12.3328  -16.0460   23.2723 C   0  0  0  0  0  0  0  0  0  0  0  0
   12.6677  -16.9781   24.2319 O   0  0  0  0  0  0  0  0  0  0  0  0
   11.2196  -15.4920   23.3302 O   0  0  0  0  0  0  0  0  0  0  0  0
  1  2  1  0
  2  3  2  0
  4  2  1  0
  4  5  1  0
  6  5  1  0
  6  7  1  1
  8  6  1  0
  9  8  2  0
 10 11  1  0
 11 12  2  0
 11 13  1  0
 13 14  1  0
 15 14  1  1
 15 16  1  0
 16  8  1  0
 17 15  1  0
 17 18  2  0
 19 17  1  0
 20 19  1  0
 20 21  1  1
 21 22  1  0
 22 23  2  0
 23 24  1  0
 25 24  1  0
 26 22  1  0
 26 25  2  0
 27 20  1  0
 28 27  1  0
 29 27  2  0
M  END
$$$$
