QQH.pdb
     RDKit          3D

 29 29  0  0  1  0  0  0  0  0999 V2000
   16.8248  -16.6947   13.3719 N   0  0  0  0  0  0  0  0  0  0  0  0
   15.7097  -15.8132   13.4123 C   0  0  0  0  0  0  0  0  0  0  0  0
   15.6904  -14.7470   12.7471 O   0  0  0  0  0  0  0  0  0  0  0  0
   14.5578  -16.1911   14.2703 C   0  0  0  0  0  0  0  0  0  0  0  0
   14.7421  -15.5940   15.6445 C   0  0  0  0  0  0  0  0  0  0  0  0
   13.6575  -16.0007   16.6024 C   0  0  2  0  0  0  0  0  0  0  0  0
   12.4497  -15.3215   16.2246 N   0  0  0  0  0  0  0  0  0  0  0  0
   14.0180  -15.8241   18.0137 C   0  0  0  0  0  0  0  0  0  0  0  0
   13.4072  -14.9527   18.6857 O   0  0  0  0  0  0  0  0  0  0  0  0
   15.7019  -20.1272   22.3225 N   0  0  0  0  0  0  0  0  0  0  0  0
   15.4666  -18.8937   22.9739 C   0  0  0  0  0  0  0  0  0  0  0  0
   15.1152  -18.9484   24.1869 O   0  0  0  0  0  0  0  0  0  0  0  0
   15.6164  -17.5878   22.2936 C   0  0  0  0  0  0  0  0  0  0  0  0
   15.1588  -17.7198   20.8562 C   0  0  0  0  0  0  0  0  0  0  0  0
   15.3223  -16.4251   20.0967 C   0  0  2  0  0  0  0  0  0  0  0  0
   15.0170  -16.5692   18.6946 N   0  0  0  0  0  0  0  0  0  0  0  0
   16.7524  -16.0338   20.2074 C   0  0  0  0  0  0  0  0  0  0  0  0
   17.6068  -16.8498   19.7625 O   0  0  0  0  0  0  0  0  0  0  0  0
   17.2000  -14.8215   20.7728 N   0  0  0  0  0  0  0  0  0  0  0  0
   18.6220  -14.5245   20.8224 C   0  0  1  0  0  0  0  0  0  0  0  0
   18.7807  -13.0248   20.7211 C   0  0  0  0  0  0  0  0  0  0  0  0
   18.5099  -12.5517   19.3494 C   0  0  0  0  0  0  0  0  0  0  0  0
   17.9863  -13.2280   18.2909 C   0  0  0  0  0  0  0  0  0  0  0  0
   17.9046  -12.4344   17.1979 N   0  0  0  0  0  0  0  0  0  0  0  0
   18.3908  -11.2343   17.5900 C   0  0  0  0  0  0  0  0  0  0  0  0
   18.7570  -11.2970   18.8829 N   0  0  0  0  0  0  0  0  0  0  0  0
   19.2650  -15.1165   22.0064 C   0  0  0  0  0  0  0  0  0  0  0  0
   18.5036  -15.4132   23.1173 O   0  0  0  0  0  0  0  0  0  0  0  0
   20.4861  -15.3568   22.0286 O   0  0  0  0  0  0  0  0  0  0  0  0
  1  2  1  0
  2  3  2  0
  4  2  1  0
  4  5  1  0
  6  5  1  0
  6  7  1  6
  8  6  1  0
  9  8  2  0
 10 11  1  0
 11 12  2  0
 11 13  1  0
 13 14  1  0
 15 14  1  1
 15 16  1  0
 16  8  1  0
 17 15  1  0
 17 18  2  0
 19 17  1  0
 20 19  1  0
 20 21  1  1
 21 22  1  0
 22 23  2  0
 23 24  1  0
 25 24  1  0
 26 22  1  0
 26 25  2  0
 27 20  1  0
 28 27  1  0
 29 27  2  0
M  END
$$$$
