QQH.pdb
     RDKit          3D

 29 29  0  0  1  0  0  0  0  0999 V2000
   12.5563  -13.5786   12.1154 N   0  0  0  0  0  0  0  0  0  0  0  0
   11.9045  -14.8334   11.9646 C   0  0  0  0  0  0  0  0  0  0  0  0
   11.3218  -15.1470   10.8961 O   0  0  0  0  0  0  0  0  0  0  0  0
   11.9318  -15.7716   13.1156 C   0  0  0  0  0  0  0  0  0  0  0  0
   12.6152  -15.1063   14.2858 C   0  0  0  0  0  0  0  0  0  0  0  0
   12.6602  -15.9838   15.5051 C   0  0  2  0  0  0  0  0  0  0  0  0
   11.8476  -17.1411   15.2532 N   0  0  0  0  0  0  0  0  0  0  0  0
   12.3224  -15.2845   16.7500 C   0  0  0  0  0  0  0  0  0  0  0  0
   13.0149  -14.2891   17.0873 O   0  0  0  0  0  0  0  0  0  0  0  0
    7.2130  -13.0624   18.6424 N   0  0  0  0  0  0  0  0  0  0  0  0
    7.8681  -13.0787   19.8961 C   0  0  0  0  0  0  0  0  0  0  0  0
    7.4038  -12.3161   20.7909 O   0  0  0  0  0  0  0  0  0  0  0  0
    9.0417  -13.9362   20.1750 C   0  0  0  0  0  0  0  0  0  0  0  0
    9.4060  -14.7044   18.9220 C   0  0  0  0  0  0  0  0  0  0  0  0
   10.8973  -14.9108   18.8069 C   0  0  2  0  0  0  0  0  0  0  0  0
   11.2596  -15.6455   17.6200 N   0  0  0  0  0  0  0  0  0  0  0  0
   11.3160  -15.7200   19.9818 C   0  0  0  0  0  0  0  0  0  0  0  0
   10.8454  -16.8880   20.0715 O   0  0  0  0  0  0  0  0  0  0  0  0
   12.1955  -15.2625   20.9854 N   0  0  0  0  0  0  0  0  0  0  0  0
   12.4935  -16.1070   22.1302 C   0  0  1  0  0  0  0  0  0  0  0  0
   13.8204  -15.6580   22.6978 C   0  0  0  0  0  0  0  0  0  0  0  0
   14.9370  -16.0470   21.8143 C   0  0  0  0  0  0  0  0  0  0  0  0
   14.9201  -16.8082   20.6863 C   0  0  0  0  0  0  0  0  0  0  0  0
   16.1631  -16.9380   20.1675 N   0  0  0  0  0  0  0  0  0  0  0  0
   16.9716  -16.2384   20.9964 C   0  0  0  0  0  0  0  0  0  0  0  0
   16.2415  -15.6995   21.9894 N   0  0  0  0  0  0  0  0  0  0  0  0
   11.3942  -16.1125   23.1087 C   0  0  0  0  0  0  0  0  0  0  0  0
   11.5062  -16.8730   24.2536 O   0  0  0  0  0  0  0  0  0  0  0  0
   10.3607  -15.4432   22.9261 O   0  0  0  0  0  0  0  0  0  0  0  0
  1  2  1  0
  2  3  2  0
  4  2  1  0
  4  5  1  0
  6  5  1  0
  6  7  1  6
  8  6  1  0
  9  8  2  0
 10 11  1  0
 11 12  2  0
 11 13  1  0
 13 14  1  0
 15 14  1  1
 15 16  1  0
 16  8  1  0
 17 15  1  0
 17 18  2  0
 19 17  1  0
 20 19  1  0
 20 21  1  1
 21 22  1  0
 22 23  2  0
 23 24  1  0
 25 24  1  0
 26 22  1  0
 26 25  2  0
 27 20  1  0
 28 27  1  0
 29 27  2  0
M  END
$$$$
