QQH.pdb
     RDKit          3D

 29 29  0  0  1  0  0  0  0  0999 V2000
    8.1659  -20.8757   21.3669 N   0  0  0  0  0  0  0  0  0  0  0  0
    9.4699  -20.4783   20.9622 C   0  0  0  0  0  0  0  0  0  0  0  0
   10.3968  -21.3147   20.8184 O   0  0  0  0  0  0  0  0  0  0  0  0
    9.7080  -19.0338   20.7120 C   0  0  0  0  0  0  0  0  0  0  0  0
    8.4058  -18.2824   20.8482 C   0  0  0  0  0  0  0  0  0  0  0  0
    8.5648  -16.8041   20.6278 C   0  0  2  0  0  0  0  0  0  0  0  0
    9.4153  -16.6113   19.4866 N   0  0  0  0  0  0  0  0  0  0  0  0
    9.0029  -16.0719   21.8215 C   0  0  0  0  0  0  0  0  0  0  0  0
   10.2319  -15.8459   21.9709 O   0  0  0  0  0  0  0  0  0  0  0  0
    5.4251  -12.6603   25.8916 N   0  0  0  0  0  0  0  0  0  0  0  0
    6.7537  -12.4653   26.3366 C   0  0  0  0  0  0  0  0  0  0  0  0
    6.9317  -11.5905   27.2314 O   0  0  0  0  0  0  0  0  0  0  0  0
    7.8988  -13.2335   25.7989 C   0  0  0  0  0  0  0  0  0  0  0  0
    7.4222  -14.1012   24.6531 C   0  0  0  0  0  0  0  0  0  0  0  0
    8.5712  -14.7977   23.9643 C   0  0  2  0  0  0  0  0  0  0  0  0
    8.1380  -15.5892   22.8393 N   0  0  0  0  0  0  0  0  0  0  0  0
    9.1773  -15.7228   24.9580 C   0  0  0  0  0  0  0  0  0  0  0  0
    8.5237  -16.7636   25.2465 O   0  0  0  0  0  0  0  0  0  0  0  0
   10.4216  -15.5055   25.5859 N   0  0  0  0  0  0  0  0  0  0  0  0
   10.9564  -16.4993   26.5019 C   0  0  1  0  0  0  0  0  0  0  0  0
   12.4587  -16.3365   26.5286 C   0  0  0  0  0  0  0  0  0  0  0  0
   13.0463  -16.5931   25.1992 C   0  0  0  0  0  0  0  0  0  0  0  0
   12.4361  -16.9808   24.0462 C   0  0  0  0  0  0  0  0  0  0  0  0
   13.3329  -17.1157   23.0419 N   0  0  0  0  0  0  0  0  0  0  0  0
   14.5308  -16.8032   23.5874 C   0  0  0  0  0  0  0  0  0  0  0  0
   14.3666  -16.4877   24.8848 N   0  0  0  0  0  0  0  0  0  0  0  0
   10.3215  -16.4214   27.8274 C   0  0  0  0  0  0  0  0  0  0  0  0
   10.6858  -17.3176   28.8101 O   0  0  0  0  0  0  0  0  0  0  0  0
    9.4591  -15.5610   28.0833 O   0  0  0  0  0  0  0  0  0  0  0  0
  1  2  1  0
  2  3  2  0
  4  2  1  0
  4  5  1  0
  6  5  1  0
  6  7  1  6
  8  6  1  0
  9  8  2  0
 10 11  1  0
 11 12  2  0
 11 13  1  0
 13 14  1  0
 15 14  1  1
 15 16  1  0
 16  8  1  0
 17 15  1  0
 17 18  2  0
 19 17  1  0
 20 19  1  0
 20 21  1  1
 21 22  1  0
 22 23  2  0
 23 24  1  0
 25 24  1  0
 26 22  1  0
 26 25  2  0
 27 20  1  0
 28 27  1  0
 29 27  2  0
M  END
$$$$
