QQH.pdb
     RDKit          3D

 29 29  0  0  1  0  0  0  0  0999 V2000
   17.0409  -19.0457   15.0363 N   0  0  0  0  0  0  0  0  0  0  0  0
   15.8281  -19.7323   15.3189 C   0  0  0  0  0  0  0  0  0  0  0  0
   15.8149  -20.9606   15.5846 O   0  0  0  0  0  0  0  0  0  0  0  0
   14.5659  -18.9500   15.2912 C   0  0  0  0  0  0  0  0  0  0  0  0
   14.8853  -17.4959   15.0411 C   0  0  0  0  0  0  0  0  0  0  0  0
   13.6757  -16.6105   15.1513 C   0  0  2  0  0  0  0  0  0  0  0  0
   13.5484  -15.8731   13.9253 N   0  0  0  0  0  0  0  0  0  0  0  0
   13.6676  -15.7669   16.3517 C   0  0  0  0  0  0  0  0  0  0  0  0
   14.1360  -14.6016   16.2709 O   0  0  0  0  0  0  0  0  0  0  0  0
   10.6051  -16.6791   21.9111 N   0  0  0  0  0  0  0  0  0  0  0  0
   11.3731  -15.5105   22.1251 C   0  0  0  0  0  0  0  0  0  0  0  0
   11.2366  -14.9364   23.2430 O   0  0  0  0  0  0  0  0  0  0  0  0
   12.2990  -14.9637   21.1082 C   0  0  0  0  0  0  0  0  0  0  0  0
   12.2736  -15.8524   19.8825 C   0  0  0  0  0  0  0  0  0  0  0  0
   13.1882  -15.3353   18.7982 C   0  0  2  0  0  0  0  0  0  0  0  0
   13.1654  -16.1652   17.6191 N   0  0  0  0  0  0  0  0  0  0  0  0
   14.5709  -15.3676   19.3440 C   0  0  0  0  0  0  0  0  0  0  0  0
   15.1531  -16.4875   19.3662 O   0  0  0  0  0  0  0  0  0  0  0  0
   15.2568  -14.2350   19.8303 N   0  0  0  0  0  0  0  0  0  0  0  0
   16.6151  -14.3676   20.3303 C   0  0  1  0  0  0  0  0  0  0  0  0
   17.2190  -12.9833   20.3889 C   0  0  0  0  0  0  0  0  0  0  0  0
   18.6481  -13.0404   20.7539 C   0  0  0  0  0  0  0  0  0  0  0  0
   19.4477  -14.1252   20.9432 C   0  0  0  0  0  0  0  0  0  0  0  0
   20.7045  -13.7515   21.2781 N   0  0  0  0  0  0  0  0  0  0  0  0
   20.6826  -12.3990   21.2967 C   0  0  0  0  0  0  0  0  0  0  0  0
   19.4491  -11.9638   20.9824 N   0  0  0  0  0  0  0  0  0  0  0  0
   16.6604  -15.0957   21.6086 C   0  0  0  0  0  0  0  0  0  0  0  0
   17.6431  -16.0399   21.8193 O   0  0  0  0  0  0  0  0  0  0  0  0
   15.8282  -14.8780   22.5083 O   0  0  0  0  0  0  0  0  0  0  0  0
  1  2  1  0
  2  3  2  0
  4  2  1  0
  4  5  1  0
  6  5  1  0
  6  7  1  6
  8  6  1  0
  9  8  2  0
 10 11  1  0
 11 12  2  0
 11 13  1  0
 13 14  1  0
 15 14  1  1
 15 16  1  0
 16  8  1  0
 17 15  1  0
 17 18  2  0
 19 17  1  0
 20 19  1  0
 20 21  1  1
 21 22  1  0
 22 23  2  0
 23 24  1  0
 25 24  1  0
 26 22  1  0
 26 25  2  0
 27 20  1  0
 28 27  1  0
 29 27  2  0
M  END
$$$$
