QQH.pdb
     RDKit          3D

 29 29  0  0  1  0  0  0  0  0999 V2000
    7.8018  -18.5654   16.1370 N   0  0  0  0  0  0  0  0  0  0  0  0
    7.5859  -17.6636   15.0590 C   0  0  0  0  0  0  0  0  0  0  0  0
    6.5326  -17.6983   14.3741 O   0  0  0  0  0  0  0  0  0  0  0  0
    8.6495  -16.6703   14.7622 C   0  0  0  0  0  0  0  0  0  0  0  0
    9.7767  -16.8352   15.7528 C   0  0  0  0  0  0  0  0  0  0  0  0
   10.6863  -15.6396   15.7987 C   0  0  2  0  0  0  0  0  0  0  0  0
   11.1089  -15.3477   14.4574 N   0  0  0  0  0  0  0  0  0  0  0  0
   11.7944  -15.7755   16.7509 C   0  0  0  0  0  0  0  0  0  0  0  0
   12.3510  -16.8980   16.8694 O   0  0  0  0  0  0  0  0  0  0  0  0
   16.5405  -14.7057   17.3783 N   0  0  0  0  0  0  0  0  0  0  0  0
   16.5867  -14.4265   18.7643 C   0  0  0  0  0  0  0  0  0  0  0  0
   17.6717  -14.6815   19.3605 O   0  0  0  0  0  0  0  0  0  0  0  0
   15.4366  -13.8632   19.5061 C   0  0  0  0  0  0  0  0  0  0  0  0
   14.2772  -13.6658   18.5523 C   0  0  0  0  0  0  0  0  0  0  0  0
   13.3771  -14.8772   18.5085 C   0  0  2  0  0  0  0  0  0  0  0  0
   12.2985  -14.7255   17.5634 N   0  0  0  0  0  0  0  0  0  0  0  0
   12.7739  -15.0195   19.8600 C   0  0  0  0  0  0  0  0  0  0  0  0
   12.5120  -13.9552   20.4866 O   0  0  0  0  0  0  0  0  0  0  0  0
   12.4830  -16.2572   20.4709 N   0  0  0  0  0  0  0  0  0  0  0  0
   11.8559  -16.2907   21.7817 C   0  0  1  0  0  0  0  0  0  0  0  0
   10.7966  -17.3684   21.7556 C   0  0  0  0  0  0  0  0  0  0  0  0
    9.7141  -17.0289   20.8114 C   0  0  0  0  0  0  0  0  0  0  0  0
    9.3849  -15.8230   20.2735 C   0  0  0  0  0  0  0  0  0  0  0  0
    8.3154  -15.9318   19.4515 N   0  0  0  0  0  0  0  0  0  0  0  0
    7.9732  -17.2403   19.4811 C   0  0  0  0  0  0  0  0  0  0  0  0
    8.8099  -17.9067   20.2968 N   0  0  0  0  0  0  0  0  0  0  0  0
   12.8457  -16.4494   22.8593 C   0  0  0  0  0  0  0  0  0  0  0  0
   12.4326  -16.4071   24.1744 O   0  0  0  0  0  0  0  0  0  0  0  0
   14.0530  -16.6218   22.6101 O   0  0  0  0  0  0  0  0  0  0  0  0
  1  2  1  0
  2  3  2  0
  4  2  1  0
  4  5  1  0
  6  5  1  0
  6  7  1  6
  8  6  1  0
  9  8  2  0
 10 11  1  0
 11 12  2  0
 11 13  1  0
 13 14  1  0
 15 14  1  1
 15 16  1  0
 16  8  1  0
 17 15  1  0
 17 18  2  0
 19 17  1  0
 20 19  1  0
 20 21  1  6
 21 22  1  0
 22 23  2  0
 23 24  1  0
 25 24  1  0
 26 22  1  0
 26 25  2  0
 27 20  1  0
 28 27  1  0
 29 27  2  0
M  END
$$$$
