QQH.pdb
     RDKit          3D

 29 29  0  0  1  0  0  0  0  0999 V2000
    8.4932  -12.5512   18.9965 N   0  0  0  0  0  0  0  0  0  0  0  0
    8.0014  -13.4200   17.9840 C   0  0  0  0  0  0  0  0  0  0  0  0
    8.3233  -13.2724   16.7781 O   0  0  0  0  0  0  0  0  0  0  0  0
    7.0883  -14.5169   18.3951 C   0  0  0  0  0  0  0  0  0  0  0  0
    6.8934  -14.4696   19.8913 C   0  0  0  0  0  0  0  0  0  0  0  0
    7.9422  -15.2468   20.6364 C   0  0  2  0  0  0  0  0  0  0  0  0
    8.3095  -16.3821   19.8368 N   0  0  0  0  0  0  0  0  0  0  0  0
    7.5589  -15.5910   22.0102 C   0  0  0  0  0  0  0  0  0  0  0  0
    6.8690  -14.7677   22.6661 O   0  0  0  0  0  0  0  0  0  0  0  0
    7.7075  -21.3171   24.8458 N   0  0  0  0  0  0  0  0  0  0  0  0
    6.7412  -20.5391   25.5257 C   0  0  0  0  0  0  0  0  0  0  0  0
    6.0024  -21.1450   26.3533 O   0  0  0  0  0  0  0  0  0  0  0  0
    6.5805  -19.0854   25.2995 C   0  0  0  0  0  0  0  0  0  0  0  0
    7.6002  -18.6245   24.2794 C   0  0  0  0  0  0  0  0  0  0  0  0
    7.4878  -17.1437   24.0066 C   0  0  2  0  0  0  0  0  0  0  0  0
    7.9089  -16.7982   22.6713 N   0  0  0  0  0  0  0  0  0  0  0  0
    8.4004  -16.4561   24.9578 C   0  0  0  0  0  0  0  0  0  0  0  0
    9.6019  -16.3121   24.5981 O   0  0  0  0  0  0  0  0  0  0  0  0
    8.0047  -15.9637   26.2191 N   0  0  0  0  0  0  0  0  0  0  0  0
    8.9662  -15.2759   27.0647 C   0  0  1  0  0  0  0  0  0  0  0  0
    8.2063  -14.2696   27.8979 C   0  0  0  0  0  0  0  0  0  0  0  0
    7.4692  -13.3182   27.0434 C   0  0  0  0  0  0  0  0  0  0  0  0
    7.4866  -13.1820   25.6895 C   0  0  0  0  0  0  0  0  0  0  0  0
    6.6699  -12.1795   25.2902 N   0  0  0  0  0  0  0  0  0  0  0  0
    6.1323  -11.6816   26.4274 C   0  0  0  0  0  0  0  0  0  0  0  0
    6.6082  -12.3613   27.4862 N   0  0  0  0  0  0  0  0  0  0  0  0
    9.7755  -16.2183   27.8539 C   0  0  0  0  0  0  0  0  0  0  0  0
   10.7999  -15.7399   28.6435 O   0  0  0  0  0  0  0  0  0  0  0  0
    9.5556  -17.4431   27.8253 O   0  0  0  0  0  0  0  0  0  0  0  0
  1  2  1  0
  2  3  2  0
  4  2  1  0
  4  5  1  0
  6  5  1  0
  6  7  1  6
  8  6  1  0
  9  8  2  0
 10 11  1  0
 11 12  2  0
 11 13  1  0
 13 14  1  0
 15 14  1  6
 15 16  1  0
 16  8  1  0
 17 15  1  0
 17 18  2  0
 19 17  1  0
 20 19  1  0
 20 21  1  1
 21 22  1  0
 22 23  2  0
 23 24  1  0
 25 24  1  0
 26 22  1  0
 26 25  2  0
 27 20  1  0
 28 27  1  0
 29 27  2  0
M  END
$$$$
